
 OpenBabel03272509123D

 28 30  0  0  0  0  0  0  0  0999 V2000
   35.2200   25.7500   30.8260 C   0  0  0  0  0  0  0  0  0  0  0  0
   36.1030   26.3620   31.7490 C   0  0  0  0  0  0  0  0  0  0  0  0
   36.8720   25.5550   32.5640 C   0  0  0  0  0  0  0  0  0  0  0  0
   36.7620   24.1960   32.4630 N   0  0  0  0  0  0  0  0  0  0  0  0
   35.8970   23.6360   31.5600 C   0  0  0  0  0  0  0  0  0  0  0  0
   35.1400   24.4210   30.7560 N   0  0  0  0  0  0  0  0  0  0  0  0
   34.5930   26.3070   30.1610 H   0  0  0  0  0  0  0  0  0  0  0  0
   35.9050   22.5420   31.5800 H   0  0  0  0  0  0  0  0  0  0  0  0
   37.7980   26.0940   33.5280 C   0  0  0  0  0  0  0  0  0  0  0  0
   37.3750   26.2730   34.8150 C   0  0  0  0  0  0  0  0  0  0  0  0
   38.2270   26.7970   35.7970 C   0  0  0  0  0  0  0  0  0  0  0  0
   39.5240   27.1300   35.4100 C   0  0  0  0  0  0  0  0  0  0  0  0
   40.0110   26.9710   34.1130 C   0  0  0  0  0  0  0  0  0  0  0  0
   39.0960   26.4490   33.2250 C   0  0  0  0  0  0  0  0  0  0  0  0
   36.4100   26.0790   35.2500 H   0  0  0  0  0  0  0  0  0  0  0  0
   37.9640   26.9640   36.8290 H   0  0  0  0  0  0  0  0  0  0  0  0
   40.2260   27.5420   36.1360 H   0  0  0  0  0  0  0  0  0  0  0  0
   41.0170   27.2390   33.8490 H   0  0  0  0  0  0  0  0  0  0  0  0
   39.4300   26.3020   32.1870 H   0  0  0  0  0  0  0  0  0  0  0  0
   36.0670   27.8150   31.7280 C   0  0  0  0  0  0  0  0  0  0  0  0
   35.4620   28.6590   32.6730 C   0  0  0  0  0  0  0  0  0  0  0  0
   34.9710   28.1110   33.4890 H   0  0  0  0  0  0  0  0  0  0  0  0
   35.5280   30.0280   32.5130 C   0  0  0  0  0  3  0  0  0  0  0  0
   36.1930   30.5490   31.4170 C   0  0  0  0  0  0  0  0  0  0  0  0
   36.2170   31.6400   31.3350 H   0  0  0  0  0  0  0  0  0  0  0  0
   36.8040   29.7670   30.4590 C   0  0  0  0  0  0  0  0  0  0  0  0
   37.3210   30.1860   29.6040 H   0  0  0  0  0  0  0  0  0  0  0  0
   36.7290   28.3900   30.6330 C   0  0  0  0  0  3  0  0  0  0  0  0
  1  2  1  0  0  0  0
  2  3  2  0  0  0  0
  3  9  1  0  0  0  0
  4  3  1  0  0  0  0
  5  8  1  0  0  0  0
  5  4  2  0  0  0  0
  6  1  2  0  0  0  0
  6  5  1  0  0  0  0
  7  1  1  0  0  0  0
  9 10  1  0  0  0  0
 10 15  1  0  0  0  0
 10 11  2  0  0  0  0
 11 16  1  0  0  0  0
 12 11  1  0  0  0  0
 12 17  1  0  0  0  0
 13 12  2  0  0  0  0
 14  9  2  0  0  0  0
 14 13  1  0  0  0  0
 18 13  1  0  0  0  0
 19 14  1  0  0  0  0
 20  2  1  0  0  0  0
 20 21  1  0  0  0  0
 21 22  1  0  0  0  0
 23 21  2  0  0  0  0
 24 23  1  0  0  0  0
 25 24  1  0  0  0  0
 26 28  1  0  0  0  0
 26 24  2  0  0  0  0
 27 26  1  0  0  0  0
 28 20  2  0  0  0  0
M  END
>  <minimizedAffinity>
-5.07474089

$$$$

 OpenBabel03272509123D

 28 30  0  0  0  0  0  0  0  0999 V2000
   38.5170   21.8650   33.9550 C   0  0  0  0  0  0  0  0  0  0  0  0
   38.3870   23.1470   34.5430 C   0  0  0  0  0  0  0  0  0  0  0  0
   38.1520   24.2320   33.7210 C   0  0  0  0  0  0  0  0  0  0  0  0
   38.0550   24.0430   32.3700 N   0  0  0  0  0  0  0  0  0  0  0  0
   38.1880   22.7900   31.8340 C   0  0  0  0  0  0  0  0  0  0  0  0
   38.4160   21.7210   32.6340 N   0  0  0  0  0  0  0  0  0  0  0  0
   38.6990   20.9780   34.5250 H   0  0  0  0  0  0  0  0  0  0  0  0
   38.0890   22.7780   30.7440 H   0  0  0  0  0  0  0  0  0  0  0  0
   38.0040   25.5700   34.2360 C   0  0  0  0  0  0  0  0  0  0  0  0
   38.9650   26.0600   35.0750 C   0  0  0  0  0  0  0  0  0  0  0  0
   38.8740   27.3520   35.6110 C   0  0  0  0  0  0  0  0  0  0  0  0
   37.7660   28.1180   35.2570 C   0  0  0  0  0  0  0  0  0  0  0  0
   36.7540   27.6720   34.4070 C   0  0  0  0  0  0  0  0  0  0  0  0
   36.9370   26.3900   33.9340 C   0  0  0  0  0  0  0  0  0  0  0  0
   39.8560   25.5840   35.4440 H   0  0  0  0  0  0  0  0  0  0  0  0
   39.5930   27.8040   36.2760 H   0  0  0  0  0  0  0  0  0  0  0  0
   37.6480   29.1290   35.6470 H   0  0  0  0  0  0  0  0  0  0  0  0
   35.9120   28.2890   34.1550 H   0  0  0  0  0  0  0  0  0  0  0  0
   36.1670   25.9890   33.2590 H   0  0  0  0  0  0  0  0  0  0  0  0
   38.5420   23.1530   35.9890 C   0  0  0  0  0  0  0  0  0  0  0  0
   37.5530   23.4360   36.9440 C   0  0  0  0  0  0  0  0  0  0  0  0
   36.5790   23.6800   36.4970 H   0  0  0  0  0  0  0  0  0  0  0  0
   37.8620   23.3880   38.2870 C   0  0  0  0  0  3  0  0  0  0  0  0
   39.1500   23.0600   38.6740 C   0  0  0  0  0  0  0  0  0  0  0  0
   39.3450   23.0350   39.7500 H   0  0  0  0  0  0  0  0  0  0  0  0
   40.1590   22.7740   37.7790 C   0  0  0  0  0  0  0  0  0  0  0  0
   41.1640   22.5190   38.0920 H   0  0  0  0  0  0  0  0  0  0  0  0
   39.8340   22.8260   36.4280 C   0  0  0  0  0  3  0  0  0  0  0  0
  1  7  1  0  0  0  0
  1  2  1  0  0  0  0
  2 20  1  0  0  0  0
  3  9  1  0  0  0  0
  3  2  2  0  0  0  0
  4  3  1  0  0  0  0
  5  4  2  0  0  0  0
  5  6  1  0  0  0  0
  6  1  2  0  0  0  0
  8  5  1  0  0  0  0
  9 10  1  0  0  0  0
 10 15  1  0  0  0  0
 10 11  2  0  0  0  0
 11 16  1  0  0  0  0
 12 11  1  0  0  0  0
 12 17  1  0  0  0  0
 13 12  2  0  0  0  0
 14  9  2  0  0  0  0
 14 13  1  0  0  0  0
 18 13  1  0  0  0  0
 19 14  1  0  0  0  0
 20 28  2  0  0  0  0
 20 21  1  0  0  0  0
 21 23  2  0  0  0  0
 22 21  1  0  0  0  0
 23 24  1  0  0  0  0
 24 25  1  0  0  0  0
 26 27  1  0  0  0  0
 26 24  2  0  0  0  0
 28 26  1  0  0  0  0
M  END
>  <minimizedAffinity>
-5.03225946

$$$$

 OpenBabel03272509123D

 28 30  0  0  0  0  0  0  0  0999 V2000
   36.7760   24.3610   32.4020 C   0  0  0  0  0  0  0  0  0  0  0  0
   36.8720   25.7700   32.5030 C   0  0  0  0  0  0  0  0  0  0  0  0
   36.0660   26.5470   31.6950 C   0  0  0  0  0  0  0  0  0  0  0  0
   35.2040   25.9430   30.8230 N   0  0  0  0  0  0  0  0  0  0  0  0
   35.1370   24.5770   30.7490 C   0  0  0  0  0  0  0  0  0  0  0  0
   35.9240   23.8070   31.5400 N   0  0  0  0  0  0  0  0  0  0  0  0
   37.3670   23.6920   32.9950 H   0  0  0  0  0  0  0  0  0  0  0  0
   34.4100   24.2220   30.0140 H   0  0  0  0  0  0  0  0  0  0  0  0
   36.0970   27.9880   31.7350 C   0  0  0  0  0  0  0  0  0  0  0  0
   36.7600   28.6580   30.7460 C   0  0  0  0  0  0  0  0  0  0  0  0
   36.8290   30.0580   30.7320 C   0  0  0  0  0  0  0  0  0  0  0  0
   36.1950   30.7420   31.7670 C   0  0  0  0  0  0  0  0  0  0  0  0
   35.5040   30.1130   32.8030 C   0  0  0  0  0  0  0  0  0  0  0  0
   35.4950   28.7370   32.7240 C   0  0  0  0  0  0  0  0  0  0  0  0
   37.3020   28.2680   29.9020 H   0  0  0  0  0  0  0  0  0  0  0  0
   37.3310   30.6520   29.9860 H   0  0  0  0  0  0  0  0  0  0  0  0
   36.2190   31.8310   31.8030 H   0  0  0  0  0  0  0  0  0  0  0  0
   35.0260   30.6720   33.5860 H   0  0  0  0  0  0  0  0  0  0  0  0
   34.9630   28.1920   33.5170 H   0  0  0  0  0  0  0  0  0  0  0  0
   37.8580   26.2290   33.4680 C   0  0  0  0  0  0  0  0  0  0  0  0
   39.1860   26.6030   33.2060 C   0  0  0  0  0  0  0  0  0  0  0  0
   39.4590   26.5120   32.1460 H   0  0  0  0  0  0  0  0  0  0  0  0
   39.9940   27.0300   34.2390 C   0  0  0  0  0  3  0  0  0  0  0  0
   39.4810   27.0830   35.5230 C   0  0  0  0  0  0  0  0  0  0  0  0
   40.1620   27.4290   36.3070 H   0  0  0  0  0  0  0  0  0  0  0  0
   38.1850   26.7280   35.8360 C   0  0  0  0  0  0  0  0  0  0  0  0
   37.7940   26.7720   36.8450 H   0  0  0  0  0  0  0  0  0  0  0  0
   37.3820   26.2990   34.7850 C   0  0  0  0  0  3  0  0  0  0  0  0
  1  2  1  0  0  0  0
  1  7  1  0  0  0  0
  2 20  1  0  0  0  0
  3  9  1  0  0  0  0
  3  2  2  0  0  0  0
  4  3  1  0  0  0  0
  5  4  2  0  0  0  0
  5  6  1  0  0  0  0
  6  1  2  0  0  0  0
  8  5  1  0  0  0  0
  9 14  1  0  0  0  0
 10  9  2  0  0  0  0
 11 10  1  0  0  0  0
 11 12  2  0  0  0  0
 12 17  1  0  0  0  0
 12 13  1  0  0  0  0
 13 18  1  0  0  0  0
 14 13  2  0  0  0  0
 14 19  1  0  0  0  0
 15 10  1  0  0  0  0
 16 11  1  0  0  0  0
 20 28  1  0  0  0  0
 21 20  2  0  0  0  0
 21 23  1  0  0  0  0
 22 21  1  0  0  0  0
 23 24  2  0  0  0  0
 24 26  1  0  0  0  0
 24 25  1  0  0  0  0
 26 27  1  0  0  0  0
 28 26  2  0  0  0  0
M  END
>  <minimizedAffinity>
-5.00598431

$$$$

 OpenBabel03272509123D

 28 30  0  0  0  0  0  0  0  0999 V2000
   41.4510   26.9750   34.1130 C   0  0  0  0  0  0  0  0  0  0  0  0
   40.3500   26.1500   34.4510 C   0  0  0  0  0  0  0  0  0  0  0  0
   40.5970   24.8610   34.8820 C   0  0  0  0  0  0  0  0  0  0  0  0
   41.8860   24.4160   34.9680 N   0  0  0  0  0  0  0  0  0  0  0  0
   42.9280   25.2390   34.6330 C   0  0  0  0  0  0  0  0  0  0  0  0
   42.6940   26.5060   34.2110 N   0  0  0  0  0  0  0  0  0  0  0  0
   41.3410   27.9840   33.7730 H   0  0  0  0  0  0  0  0  0  0  0  0
   43.9060   24.7620   34.7470 H   0  0  0  0  0  0  0  0  0  0  0  0
   39.5360   23.9560   35.2480 C   0  0  0  0  0  0  0  0  0  0  0  0
   39.0500   23.0980   34.3020 C   0  0  0  0  0  0  0  0  0  0  0  0
   38.0170   22.1980   34.5960 C   0  0  0  0  0  0  0  0  0  0  0  0
   37.5030   22.2110   35.8910 C   0  0  0  0  0  0  0  0  0  0  0  0
   37.9580   23.0630   36.8970 C   0  0  0  0  0  0  0  0  0  0  0  0
   38.9740   23.9080   36.5070 C   0  0  0  0  0  0  0  0  0  0  0  0
   39.3340   22.9870   33.2700 H   0  0  0  0  0  0  0  0  0  0  0  0
   37.5850   21.4940   33.9030 H   0  0  0  0  0  0  0  0  0  0  0  0
   36.6980   21.5300   36.1710 H   0  0  0  0  0  0  0  0  0  0  0  0
   37.5390   23.0470   37.8860 H   0  0  0  0  0  0  0  0  0  0  0  0
   39.3700   24.6010   37.2630 H   0  0  0  0  0  0  0  0  0  0  0  0
   39.0560   26.7880   34.2740 C   0  0  0  0  0  0  0  0  0  0  0  0
   38.2310   27.3200   35.2790 C   0  0  0  0  0  0  0  0  0  0  0  0
   38.6520   27.2080   36.2870 H   0  0  0  0  0  0  0  0  0  0  0  0
   37.0290   27.9070   34.9410 C   0  0  0  0  0  3  0  0  0  0  0  0
   36.6540   27.9620   33.6100 C   0  0  0  0  0  0  0  0  0  0  0  0
   35.6920   28.4370   33.3940 H   0  0  0  0  0  0  0  0  0  0  0  0
   37.4250   27.4560   32.5840 C   0  0  0  0  0  0  0  0  0  0  0  0
   37.1210   27.5040   31.5450 H   0  0  0  0  0  0  0  0  0  0  0  0
   38.6330   26.8670   32.9390 C   0  0  0  0  0  3  0  0  0  0  0  0
  1  6  2  0  0  0  0
  1  2  1  0  0  0  0
  2  3  2  0  0  0  0
  3  4  1  0  0  0  0
  3  9  1  0  0  0  0
  5  8  1  0  0  0  0
  5  4  2  0  0  0  0
  6  5  1  0  0  0  0
  7  1  1  0  0  0  0
  9 14  1  0  0  0  0
 10 11  1  0  0  0  0
 10  9  2  0  0  0  0
 11 12  2  0  0  0  0
 12 17  1  0  0  0  0
 12 13  1  0  0  0  0
 13 18  1  0  0  0  0
 14 13  2  0  0  0  0
 14 19  1  0  0  0  0
 15 10  1  0  0  0  0
 16 11  1  0  0  0  0
 20  2  1  0  0  0  0
 20 21  1  0  0  0  0
 21 22  1  0  0  0  0
 23 21  2  0  0  0  0
 24 23  1  0  0  0  0
 25 24  1  0  0  0  0
 26 28  1  0  0  0  0
 26 24  2  0  0  0  0
 27 26  1  0  0  0  0
 28 20  2  0  0  0  0
M  END
>  <minimizedAffinity>
-4.83816624

$$$$

 OpenBabel03272509123D

 28 30  0  0  0  0  0  0  0  0999 V2000
   37.1650   21.6070   34.4870 C   0  0  0  0  0  0  0  0  0  0  0  0
   37.9880   22.7420   34.6880 C   0  0  0  0  0  0  0  0  0  0  0  0
   38.2430   23.5730   33.6150 C   0  0  0  0  0  0  0  0  0  0  0  0
   37.7010   23.2810   32.3950 N   0  0  0  0  0  0  0  0  0  0  0  0
   36.9100   22.1750   32.2340 C   0  0  0  0  0  0  0  0  0  0  0  0
   36.6540   21.3560   33.2820 N   0  0  0  0  0  0  0  0  0  0  0  0
   36.9210   20.9170   35.2690 H   0  0  0  0  0  0  0  0  0  0  0  0
   36.5410   22.0570   31.2110 H   0  0  0  0  0  0  0  0  0  0  0  0
   39.0670   24.7500   33.7330 C   0  0  0  0  0  0  0  0  0  0  0  0
   38.4750   25.9350   34.0680 C   0  0  0  0  0  0  0  0  0  0  0  0
   39.2220   27.1140   34.1940 C   0  0  0  0  0  0  0  0  0  0  0  0
   40.5940   27.0320   33.9630 C   0  0  0  0  0  0  0  0  0  0  0  0
   41.2540   25.8530   33.6170 C   0  0  0  0  0  0  0  0  0  0  0  0
   40.4300   24.7520   33.5200 C   0  0  0  0  0  0  0  0  0  0  0  0
   37.4380   26.1500   34.2590 H   0  0  0  0  0  0  0  0  0  0  0  0
   38.8250   28.0810   34.4560 H   0  0  0  0  0  0  0  0  0  0  0  0
   41.2200   27.9210   34.0470 H   0  0  0  0  0  0  0  0  0  0  0  0
   42.3130   25.8250   33.4450 H   0  0  0  0  0  0  0  0  0  0  0  0
   40.9000   23.7950   33.2500 H   0  0  0  0  0  0  0  0  0  0  0  0
   38.4900   22.8750   36.0460 C   0  0  0  0  0  0  0  0  0  0  0  0
   39.7560   22.4960   36.5200 C   0  0  0  0  0  0  0  0  0  0  0  0
   40.3910   22.0480   35.7440 H   0  0  0  0  0  0  0  0  0  0  0  0
   40.0840   22.7030   37.8440 C   0  0  0  0  0  3  0  0  0  0  0  0
   39.1540   23.2840   38.6880 C   0  0  0  0  0  0  0  0  0  0  0  0
   39.4620   23.4280   39.7290 H   0  0  0  0  0  0  0  0  0  0  0  0
   37.8980   23.6760   38.2760 C   0  0  0  0  0  0  0  0  0  0  0  0
   37.1770   24.1300   38.9450 H   0  0  0  0  0  0  0  0  0  0  0  0
   37.5810   23.4610   36.9390 C   0  0  0  0  0  3  0  0  0  0  0  0
  1  2  1  0  0  0  0
  1  7  1  0  0  0  0
  2 20  1  0  0  0  0
  3  9  1  0  0  0  0
  3  2  2  0  0  0  0
  4  3  1  0  0  0  0
  5  4  2  0  0  0  0
  5  6  1  0  0  0  0
  6  1  2  0  0  0  0
  8  5  1  0  0  0  0
  9 10  1  0  0  0  0
 10 11  2  0  0  0  0
 10 15  1  0  0  0  0
 11 16  1  0  0  0  0
 12 17  1  0  0  0  0
 12 11  1  0  0  0  0
 13 12  2  0  0  0  0
 14 13  1  0  0  0  0
 14  9  2  0  0  0  0
 18 13  1  0  0  0  0
 19 14  1  0  0  0  0
 20 21  2  0  0  0  0
 20 28  1  0  0  0  0
 21 23  1  0  0  0  0
 22 21  1  0  0  0  0
 23 24  2  0  0  0  0
 24 25  1  0  0  0  0
 26 24  1  0  0  0  0
 26 27  1  0  0  0  0
 28 26  2  0  0  0  0
M  END
>  <minimizedAffinity>
-4.83064365

$$$$

 OpenBabel03272509123D

 28 30  0  0  0  0  0  0  0  0999 V2000
   38.3310   23.4080   32.3140 C   0  0  0  0  0  0  0  0  0  0  0  0
   38.6860   23.6570   33.6620 C   0  0  0  0  0  0  0  0  0  0  0  0
   38.2040   22.8100   34.6410 C   0  0  0  0  0  0  0  0  0  0  0  0
   37.4000   21.7620   34.2870 N   0  0  0  0  0  0  0  0  0  0  0  0
   37.0750   21.5500   32.9740 C   0  0  0  0  0  0  0  0  0  0  0  0
   37.5460   22.3760   32.0080 N   0  0  0  0  0  0  0  0  0  0  0  0
   38.6660   24.0180   31.5010 H   0  0  0  0  0  0  0  0  0  0  0  0
   36.4280   20.6810   32.8270 H   0  0  0  0  0  0  0  0  0  0  0  0
   38.5170   22.9890   36.0370 C   0  0  0  0  0  0  0  0  0  0  0  0
   37.6130   23.6300   36.8360 C   0  0  0  0  0  0  0  0  0  0  0  0
   37.8630   23.8380   38.1990 C   0  0  0  0  0  0  0  0  0  0  0  0
   39.0700   23.3650   38.7100 C   0  0  0  0  0  0  0  0  0  0  0  0
   40.0310   22.7050   37.9440 C   0  0  0  0  0  0  0  0  0  0  0  0
   39.6890   22.5510   36.6180 C   0  0  0  0  0  0  0  0  0  0  0  0
   36.6590   24.0570   36.5800 H   0  0  0  0  0  0  0  0  0  0  0  0
   37.1980   24.3330   38.8880 H   0  0  0  0  0  0  0  0  0  0  0  0
   39.3130   23.5020   39.7640 H   0  0  0  0  0  0  0  0  0  0  0  0
   40.9520   22.3540   38.3700 H   0  0  0  0  0  0  0  0  0  0  0  0
   40.4130   22.0360   35.9690 H   0  0  0  0  0  0  0  0  0  0  0  0
   39.5280   24.8280   33.8470 C   0  0  0  0  0  0  0  0  0  0  0  0
   39.1210   26.1050   34.2640 C   0  0  0  0  0  0  0  0  0  0  0  0
   38.0400   26.1740   34.4480 H   0  0  0  0  0  0  0  0  0  0  0  0
   40.0530   27.1120   34.4010 C   0  0  0  0  0  3  0  0  0  0  0  0
   41.3830   26.8460   34.1240 C   0  0  0  0  0  0  0  0  0  0  0  0
   42.0830   27.6780   34.2480 H   0  0  0  0  0  0  0  0  0  0  0  0
   41.8380   25.6110   33.7110 C   0  0  0  0  0  0  0  0  0  0  0  0
   42.8810   25.4130   33.4960 H   0  0  0  0  0  0  0  0  0  0  0  0
   40.8870   24.6050   33.5760 C   0  0  0  0  0  3  0  0  0  0  0  0
  1  2  1  0  0  0  0
  2 20  1  0  0  0  0
  2  3  2  0  0  0  0
  3  9  1  0  0  0  0
  4  3  1  0  0  0  0
  5  4  2  0  0  0  0
  6  1  2  0  0  0  0
  6  5  1  0  0  0  0
  7  1  1  0  0  0  0
  8  5  1  0  0  0  0
  9 14  2  0  0  0  0
  9 10  1  0  0  0  0
 10 11  2  0  0  0  0
 11 12  1  0  0  0  0
 11 16  1  0  0  0  0
 12 17  1  0  0  0  0
 13 18  1  0  0  0  0
 13 12  2  0  0  0  0
 14 13  1  0  0  0  0
 15 10  1  0  0  0  0
 19 14  1  0  0  0  0
 20 21  1  0  0  0  0
 21 23  2  0  0  0  0
 21 22  1  0  0  0  0
 24 25  1  0  0  0  0
 24 23  1  0  0  0  0
 26 24  2  0  0  0  0
 27 26  1  0  0  0  0
 28 26  1  0  0  0  0
 28 20  2  0  0  0  0
M  END
>  <minimizedAffinity>
-4.82319832

$$$$

 OpenBabel03272509123D

 28 30  0  0  0  0  0  0  0  0999 V2000
   41.7790   27.1510   33.7390 C   0  0  0  0  0  0  0  0  0  0  0  0
   40.4130   26.9060   33.4580 C   0  0  0  0  0  0  0  0  0  0  0  0
   39.9490   27.1340   32.1770 C   0  0  0  0  0  0  0  0  0  0  0  0
   40.8140   27.5880   31.2200 N   0  0  0  0  0  0  0  0  0  0  0  0
   42.1290   27.8150   31.5250 C   0  0  0  0  0  0  0  0  0  0  0  0
   42.5910   27.5930   32.7800 N   0  0  0  0  0  0  0  0  0  0  0  0
   42.2120   26.9970   34.7060 H   0  0  0  0  0  0  0  0  0  0  0  0
   42.7110   28.1760   30.6730 H   0  0  0  0  0  0  0  0  0  0  0  0
   38.5750   26.9090   31.8040 C   0  0  0  0  0  0  0  0  0  0  0  0
   37.7110   27.9680   31.8130 C   0  0  0  0  0  0  0  0  0  0  0  0
   36.3630   27.8120   31.4650 C   0  0  0  0  0  0  0  0  0  0  0  0
   35.9350   26.5340   31.1090 C   0  0  0  0  0  0  0  0  0  0  0  0
   36.7700   25.4170   31.0820 C   0  0  0  0  0  0  0  0  0  0  0  0
   38.0750   25.6760   31.4410 C   0  0  0  0  0  0  0  0  0  0  0  0
   37.8930   28.9950   32.0770 H   0  0  0  0  0  0  0  0  0  0  0  0
   35.6260   28.5990   31.4470 H   0  0  0  0  0  0  0  0  0  0  0  0
   34.8960   26.3590   30.8300 H   0  0  0  0  0  0  0  0  0  0  0  0
   36.4070   24.4450   30.8040 H   0  0  0  0  0  0  0  0  0  0  0  0
   38.7760   24.8290   31.4370 H   0  0  0  0  0  0  0  0  0  0  0  0
   39.6450   26.4490   34.6050 C   0  0  0  0  0  0  0  0  0  0  0  0
   38.8980   27.2400   35.4920 C   0  0  0  0  0  0  0  0  0  0  0  0
   38.9390   28.3120   35.2540 H   0  0  0  0  0  0  0  0  0  0  0  0
   38.2120   26.6460   36.5300 C   0  0  0  0  0  3  0  0  0  0  0  0
   38.2710   25.2720   36.6820 C   0  0  0  0  0  0  0  0  0  0  0  0
   37.7100   24.8490   37.5210 H   0  0  0  0  0  0  0  0  0  0  0  0
   38.9890   24.4470   35.8410 C   0  0  0  0  0  0  0  0  0  0  0  0
   39.0290   23.3720   35.9680 H   0  0  0  0  0  0  0  0  0  0  0  0
   39.6760   25.0600   34.7990 C   0  0  0  0  0  3  0  0  0  0  0  0
  1  7  1  0  0  0  0
  2  1  1  0  0  0  0
  2 20  1  0  0  0  0
  3  2  2  0  0  0  0
  4  5  2  0  0  0  0
  4  3  1  0  0  0  0
  5  6  1  0  0  0  0
  6  1  2  0  0  0  0
  8  5  1  0  0  0  0
  9 10  1  0  0  0  0
  9  3  1  0  0  0  0
 10 15  1  0  0  0  0
 11 10  2  0  0  0  0
 12 11  1  0  0  0  0
 13 12  2  0  0  0  0
 13 14  1  0  0  0  0
 14  9  2  0  0  0  0
 16 11  1  0  0  0  0
 17 12  1  0  0  0  0
 18 13  1  0  0  0  0
 19 14  1  0  0  0  0
 20 28  2  0  0  0  0
 20 21  1  0  0  0  0
 21 23  2  0  0  0  0
 22 21  1  0  0  0  0
 23 24  1  0  0  0  0
 24 25  1  0  0  0  0
 26 27  1  0  0  0  0
 26 24  2  0  0  0  0
 28 26  1  0  0  0  0
M  END
>  <minimizedAffinity>
-4.69037819

$$$$

 OpenBabel03272509123D

 28 30  0  0  0  0  0  0  0  0999 V2000
   35.4220   24.2980   31.0270 C   0  0  0  0  0  0  0  0  0  0  0  0
   36.3350   23.5370   31.7960 C   0  0  0  0  0  0  0  0  0  0  0  0
   37.2340   24.2030   32.6060 C   0  0  0  0  0  0  0  0  0  0  0  0
   37.2220   25.5690   32.6420 N   0  0  0  0  0  0  0  0  0  0  0  0
   36.3260   26.2750   31.8850 C   0  0  0  0  0  0  0  0  0  0  0  0
   35.4400   25.6290   31.0890 N   0  0  0  0  0  0  0  0  0  0  0  0
   34.6950   23.8540   30.3780 H   0  0  0  0  0  0  0  0  0  0  0  0
   36.4220   27.3580   32.0050 H   0  0  0  0  0  0  0  0  0  0  0  0
   38.1960   23.5060   33.4230 C   0  0  0  0  0  0  0  0  0  0  0  0
   39.4910   23.4340   32.9950 C   0  0  0  0  0  0  0  0  0  0  0  0
   40.4710   22.7670   33.7430 C   0  0  0  0  0  0  0  0  0  0  0  0
   40.0740   22.1800   34.9430 C   0  0  0  0  0  0  0  0  0  0  0  0
   38.7680   22.2210   35.4310 C   0  0  0  0  0  0  0  0  0  0  0  0
   37.8820   22.8990   34.6210 C   0  0  0  0  0  0  0  0  0  0  0  0
   39.9350   23.8210   32.0940 H   0  0  0  0  0  0  0  0  0  0  0  0
   41.5090   22.6710   33.4690 H   0  0  0  0  0  0  0  0  0  0  0  0
   40.7980   21.6500   35.5620 H   0  0  0  0  0  0  0  0  0  0  0  0
   38.4950   21.7560   36.3600 H   0  0  0  0  0  0  0  0  0  0  0  0
   36.8380   22.9610   34.9600 H   0  0  0  0  0  0  0  0  0  0  0  0
   36.2130   22.1000   31.6100 C   0  0  0  0  0  0  0  0  0  0  0  0
   37.0320   21.2770   30.8200 C   0  0  0  0  0  0  0  0  0  0  0  0
   37.8280   21.8300   30.3030 H   0  0  0  0  0  0  0  0  0  0  0  0
   36.7870   19.9210   30.7590 C   0  0  0  0  0  3  0  0  0  0  0  0
   35.7330   19.3910   31.4810 C   0  0  0  0  0  0  0  0  0  0  0  0
   35.5810   18.3100   31.3990 H   0  0  0  0  0  0  0  0  0  0  0  0
   34.8980   20.1510   32.2720 C   0  0  0  0  0  0  0  0  0  0  0  0
   34.0750   19.7260   32.8330 H   0  0  0  0  0  0  0  0  0  0  0  0
   35.1550   21.5170   32.3240 C   0  0  0  0  0  3  0  0  0  0  0  0
  1  6  2  0  0  0  0
  1  2  1  0  0  0  0
  2  3  2  0  0  0  0
  3  4  1  0  0  0  0
  3  9  1  0  0  0  0
  5  8  1  0  0  0  0
  5  4  2  0  0  0  0
  6  5  1  0  0  0  0
  7  1  1  0  0  0  0
  9 14  1  0  0  0  0
 10  9  2  0  0  0  0
 10 11  1  0  0  0  0
 11 12  2  0  0  0  0
 12 13  1  0  0  0  0
 12 17  1  0  0  0  0
 13 18  1  0  0  0  0
 14 19  1  0  0  0  0
 14 13  2  0  0  0  0
 15 10  1  0  0  0  0
 16 11  1  0  0  0  0
 20  2  1  0  0  0  0
 20 28  1  0  0  0  0
 21 20  2  0  0  0  0
 22 21  1  0  0  0  0
 23 21  1  0  0  0  0
 23 24  2  0  0  0  0
 24 26  1  0  0  0  0
 25 24  1  0  0  0  0
 26 28  2  0  0  0  0
 26 27  1  0  0  0  0
M  END
>  <minimizedAffinity>
-4.64751768

$$$$

 OpenBabel03272509123D

 28 30  0  0  0  0  0  0  0  0999 V2000
   37.2430   25.5040   32.6280 C   0  0  0  0  0  0  0  0  0  0  0  0
   37.1750   24.0920   32.5490 C   0  0  0  0  0  0  0  0  0  0  0  0
   36.1950   23.5190   31.7630 C   0  0  0  0  0  0  0  0  0  0  0  0
   35.3200   24.3230   31.0870 N   0  0  0  0  0  0  0  0  0  0  0  0
   35.4120   25.6860   31.1860 C   0  0  0  0  0  0  0  0  0  0  0  0
   36.3720   26.2550   31.9540 N   0  0  0  0  0  0  0  0  0  0  0  0
   37.9740   26.0210   33.2150 H   0  0  0  0  0  0  0  0  0  0  0  0
   34.6540   26.2110   30.5970 H   0  0  0  0  0  0  0  0  0  0  0  0
   36.0570   22.0910   31.6240 C   0  0  0  0  0  0  0  0  0  0  0  0
   35.0880   21.4520   32.3450 C   0  0  0  0  0  0  0  0  0  0  0  0
   34.9070   20.0650   32.2560 C   0  0  0  0  0  0  0  0  0  0  0  0
   35.7540   19.3610   31.4040 C   0  0  0  0  0  0  0  0  0  0  0  0
   36.7600   19.9570   30.6440 C   0  0  0  0  0  0  0  0  0  0  0  0
   36.8550   21.3230   30.8030 C   0  0  0  0  0  0  0  0  0  0  0  0
   34.3790   21.8580   33.0460 H   0  0  0  0  0  0  0  0  0  0  0  0
   34.1650   19.4960   32.7930 H   0  0  0  0  0  0  0  0  0  0  0  0
   35.6550   18.2800   31.2990 H   0  0  0  0  0  0  0  0  0  0  0  0
   37.3970   19.3830   29.9960 H   0  0  0  0  0  0  0  0  0  0  0  0
   37.6340   21.8430   30.2250 H   0  0  0  0  0  0  0  0  0  0  0  0
   38.1730   23.4060   33.3530 C   0  0  0  0  0  0  0  0  0  0  0  0
   37.9860   22.8230   34.6170 C   0  0  0  0  0  0  0  0  0  0  0  0
   36.9610   22.9330   34.9950 H   0  0  0  0  0  0  0  0  0  0  0  0
   39.0410   22.1940   35.2460 C   0  0  0  0  0  3  0  0  0  0  0  0
   40.2730   22.1490   34.6180 C   0  0  0  0  0  0  0  0  0  0  0  0
   41.0770   21.6390   35.1580 H   0  0  0  0  0  0  0  0  0  0  0  0
   40.5130   22.7040   33.3780 C   0  0  0  0  0  0  0  0  0  0  0  0
   41.4820   22.6630   32.8960 H   0  0  0  0  0  0  0  0  0  0  0  0
   39.4410   23.3350   32.7560 C   0  0  0  0  0  3  0  0  0  0  0  0
  1  7  1  0  0  0  0
  2  1  1  0  0  0  0
  2 20  1  0  0  0  0
  3  2  2  0  0  0  0
  4  5  2  0  0  0  0
  4  3  1  0  0  0  0
  5  6  1  0  0  0  0
  6  1  2  0  0  0  0
  8  5  1  0  0  0  0
  9  3  1  0  0  0  0
  9 10  1  0  0  0  0
 10 15  1  0  0  0  0
 11 10  2  0  0  0  0
 11 16  1  0  0  0  0
 12 11  1  0  0  0  0
 13 14  1  0  0  0  0
 13 12  2  0  0  0  0
 14  9  2  0  0  0  0
 17 12  1  0  0  0  0
 18 13  1  0  0  0  0
 19 14  1  0  0  0  0
 20 21  1  0  0  0  0
 21 22  1  0  0  0  0
 21 23  2  0  0  0  0
 24 25  1  0  0  0  0
 24 23  1  0  0  0  0
 26 24  2  0  0  0  0
 27 26  1  0  0  0  0
 28 20  2  0  0  0  0
 28 26  1  0  0  0  0
M  END
>  <minimizedAffinity>
-4.60585022

$$$$
