
 OpenBabel03272509513D

 33 35  0  0  0  0  0  0  0  0999 V2000
   37.1880   27.5740   34.7030 C   0  0  0  0  0  0  0  0  0  0  0  0
   37.8370   26.7420   35.6220 C   0  0  0  0  0  0  0  0  0  0  0  0
   38.1220   25.4350   35.2790 C   0  0  0  0  0  0  0  0  0  0  0  0
   37.7390   25.0360   34.0360 N   0  0  0  0  0  0  0  0  0  0  0  0
   37.1130   25.8470   33.1580 C   0  0  0  0  0  0  0  0  0  0  0  0
   36.8410   27.1270   33.5100 N   0  0  0  0  0  0  0  0  0  0  0  0
   36.9500   28.5880   34.9280 H   0  0  0  0  0  0  0  0  0  0  0  0
   38.1140   27.1010   36.5760 H   0  0  0  0  0  0  0  0  0  0  0  0
   38.7930   24.4780   36.1530 C   0  0  0  0  0  0  0  0  0  0  0  0
   38.2100   24.2480   37.3830 C   0  0  0  0  0  0  0  0  0  0  0  0
   37.3060   24.7060   37.7620 H   0  0  0  0  0  0  0  0  0  0  0  0
   38.8350   23.3380   38.2320 C   0  0  0  0  0  3  0  0  0  0  0  0
   39.9950   22.7050   37.8300 C   0  0  0  0  0  0  0  0  0  0  0  0
   40.5220   21.9790   38.4690 H   0  0  0  0  0  0  0  0  0  0  0  0
   40.5820   22.9300   36.6030 C   0  0  0  0  0  0  0  0  0  0  0  0
   41.4940   22.4320   36.2860 H   0  0  0  0  0  0  0  0  0  0  0  0
   39.9390   23.8430   35.7710 C   0  0  0  0  0  3  0  0  0  0  0  0
   36.8250   25.2170   31.9620 O   0  0  0  0  0  0  0  0  0  0  0  0
   37.0020   23.8110   31.8930 C   0  0  0  0  0  0  0  0  0  0  0  0
   37.3020   23.4400   32.9030 H   0  0  0  0  0  0  0  0  0  0  0  0
   37.8440   23.5940   31.1880 H   0  0  0  0  0  0  0  0  0  0  0  0
   35.7390   23.1430   31.4440 C   0  0  0  0  0  0  0  0  0  0  0  0
   34.8730   23.5690   32.0100 H   0  0  0  0  0  0  0  0  0  0  0  0
   35.5610   23.3410   30.3500 H   0  0  0  0  0  0  0  0  0  0  0  0
   35.7630   21.6730   31.6530 C   0  0  0  0  0  0  0  0  0  0  0  0
   35.4660   21.2080   32.9180 C   0  0  0  0  0  0  0  0  0  0  0  0
   35.4610   19.8540   33.2160 C   0  0  0  0  0  0  0  0  0  0  0  0
   35.7480   18.9740   32.2640 N   0  0  0  0  0  0  0  0  0  0  0  0
   36.0370   19.4320   31.0270 C   0  0  0  0  0  0  0  0  0  0  0  0
   36.0470   20.7420   30.7180 N   0  0  0  0  0  0  0  0  0  0  0  0
   35.2180   21.8450   33.7660 H   0  0  0  0  0  0  0  0  0  0  0  0
   35.2290   19.4810   34.2090 H   0  0  0  0  0  0  0  0  0  0  0  0
   36.2740   18.7290   30.2350 H   0  0  0  0  0  0  0  0  0  0  0  0
  1  7  1  0  0  0  0
  1  2  1  0  0  0  0
  2  8  1  0  0  0  0
  3  2  2  0  0  0  0
  3  9  1  0  0  0  0
  4  3  1  0  0  0  0
  5  6  1  0  0  0  0
  5  4  2  0  0  0  0
  6  1  2  0  0  0  0
  9 10  1  0  0  0  0
 10 11  1  0  0  0  0
 10 12  2  0  0  0  0
 13 12  1  0  0  0  0
 13 14  1  0  0  0  0
 15 13  2  0  0  0  0
 16 15  1  0  0  0  0
 17  9  2  0  0  0  0
 17 15  1  0  0  0  0
 18  5  1  0  0  0  0
 19 18  1  0  0  0  0
 19 20  1  0  0  0  0
 21 19  1  0  0  0  0
 22 25  1  0  0  0  0
 22 19  1  0  0  0  0
 22 23  1  0  0  0  0
 24 22  1  0  0  0  0
 25 26  1  0  0  0  0
 26 27  2  0  0  0  0
 26 31  1  0  0  0  0
 27 32  1  0  0  0  0
 28 27  1  0  0  0  0
 29 28  2  0  0  0  0
 30 29  1  0  0  0  0
 30 25  2  0  0  0  0
 33 29  1  0  0  0  0
M  END
>  <minimizedAffinity>
-5.49782419

$$$$

 OpenBabel03272509513D

 33 35  0  0  0  0  0  0  0  0999 V2000
   36.5400   29.1900   31.4090 C   0  0  0  0  0  0  0  0  0  0  0  0
   35.9650   30.0250   32.3740 C   0  0  0  0  0  0  0  0  0  0  0  0
   35.7380   29.5430   33.6470 C   0  0  0  0  0  0  0  0  0  0  0  0
   36.0980   28.2520   33.8810 N   0  0  0  0  0  0  0  0  0  0  0  0
   36.6510   27.4560   32.9430 C   0  0  0  0  0  0  0  0  0  0  0  0
   36.8680   27.9440   31.6970 N   0  0  0  0  0  0  0  0  0  0  0  0
   36.7320   29.5230   30.4150 H   0  0  0  0  0  0  0  0  0  0  0  0
   35.7040   31.0230   32.1410 H   0  0  0  0  0  0  0  0  0  0  0  0
   35.1470   30.3190   34.7330 C   0  0  0  0  0  0  0  0  0  0  0  0
   33.7900   30.1660   34.9350 C   0  0  0  0  0  0  0  0  0  0  0  0
   33.1230   29.5270   34.3700 H   0  0  0  0  0  0  0  0  0  0  0  0
   33.2050   30.8970   35.9660 C   0  0  0  0  0  3  0  0  0  0  0  0
   33.9810   31.7380   36.7390 C   0  0  0  0  0  0  0  0  0  0  0  0
   33.5610   32.3350   37.5640 H   0  0  0  0  0  0  0  0  0  0  0  0
   35.3360   31.8960   36.5420 C   0  0  0  0  0  0  0  0  0  0  0  0
   35.9470   32.5570   37.1510 H   0  0  0  0  0  0  0  0  0  0  0  0
   35.8980   31.1540   35.5070 C   0  0  0  0  0  3  0  0  0  0  0  0
   36.9300   26.1880   33.4160 O   0  0  0  0  0  0  0  0  0  0  0  0
   37.6850   26.0770   34.6130 C   0  0  0  0  0  0  0  0  0  0  0  0
   36.9790   26.0540   35.4780 H   0  0  0  0  0  0  0  0  0  0  0  0
   38.3180   26.9950   34.7180 H   0  0  0  0  0  0  0  0  0  0  0  0
   38.5280   24.8400   34.5910 C   0  0  0  0  0  0  0  0  0  0  0  0
   38.0440   24.0740   33.9340 H   0  0  0  0  0  0  0  0  0  0  0  0
   39.5430   25.0670   34.1590 H   0  0  0  0  0  0  0  0  0  0  0  0
   38.7180   24.2530   35.9410 C   0  0  0  0  0  0  0  0  0  0  0  0
   37.8590   24.6660   36.9390 C   0  0  0  0  0  0  0  0  0  0  0  0
   37.9520   24.1780   38.2330 C   0  0  0  0  0  0  0  0  0  0  0  0
   38.8930   23.2880   38.5300 N   0  0  0  0  0  0  0  0  0  0  0  0
   39.7310   22.8850   37.5510 C   0  0  0  0  0  0  0  0  0  0  0  0
   39.6560   23.3470   36.2890 N   0  0  0  0  0  0  0  0  0  0  0  0
   37.0570   25.3900   36.8000 H   0  0  0  0  0  0  0  0  0  0  0  0
   37.2800   24.5000   39.0230 H   0  0  0  0  0  0  0  0  0  0  0  0
   40.5060   22.1580   37.7730 H   0  0  0  0  0  0  0  0  0  0  0  0
  1  6  2  0  0  0  0
  1  2  1  0  0  0  0
  2  3  2  0  0  0  0
  3  4  1  0  0  0  0
  3  9  1  0  0  0  0
  5 18  1  0  0  0  0
  5  4  2  0  0  0  0
  6  5  1  0  0  0  0
  7  1  1  0  0  0  0
  8  2  1  0  0  0  0
  9 10  2  0  0  0  0
  9 17  1  0  0  0  0
 10 12  1  0  0  0  0
 11 10  1  0  0  0  0
 12 13  2  0  0  0  0
 13 14  1  0  0  0  0
 15 13  1  0  0  0  0
 15 16  1  0  0  0  0
 17 15  2  0  0  0  0
 18 19  1  0  0  0  0
 19 21  1  0  0  0  0
 19 20  1  0  0  0  0
 22 19  1  0  0  0  0
 22 25  1  0  0  0  0
 23 22  1  0  0  0  0
 24 22  1  0  0  0  0
 25 30  2  0  0  0  0
 25 26  1  0  0  0  0
 26 27  2  0  0  0  0
 27 28  1  0  0  0  0
 27 32  1  0  0  0  0
 29 33  1  0  0  0  0
 29 28  2  0  0  0  0
 30 29  1  0  0  0  0
 31 26  1  0  0  0  0
M  END
>  <minimizedAffinity>
-5.48792839

$$$$

 OpenBabel03272509513D

 33 35  0  0  0  0  0  0  0  0999 V2000
   43.5220   26.7300   33.8930 C   0  0  0  0  0  0  0  0  0  0  0  0
   42.2040   27.1790   33.7560 C   0  0  0  0  0  0  0  0  0  0  0  0
   41.1810   26.4990   34.3850 C   0  0  0  0  0  0  0  0  0  0  0  0
   41.5360   25.4060   35.1140 N   0  0  0  0  0  0  0  0  0  0  0  0
   42.8100   24.9820   35.2390 C   0  0  0  0  0  0  0  0  0  0  0  0
   43.8040   25.6610   34.6160 N   0  0  0  0  0  0  0  0  0  0  0  0
   44.3410   27.2260   33.4250 H   0  0  0  0  0  0  0  0  0  0  0  0
   41.9810   28.0360   33.1770 H   0  0  0  0  0  0  0  0  0  0  0  0
   39.7720   26.8740   34.3140 C   0  0  0  0  0  0  0  0  0  0  0  0
   39.1260   27.0840   35.5160 C   0  0  0  0  0  0  0  0  0  0  0  0
   39.5610   26.9990   36.5040 H   0  0  0  0  0  0  0  0  0  0  0  0
   37.7820   27.4420   35.4720 C   0  0  0  0  0  3  0  0  0  0  0  0
   37.1440   27.5740   34.2540 C   0  0  0  0  0  0  0  0  0  0  0  0
   36.0830   27.8560   34.1710 H   0  0  0  0  0  0  0  0  0  0  0  0
   37.7830   27.3660   33.0500 C   0  0  0  0  0  0  0  0  0  0  0  0
   37.2820   27.4700   32.0910 H   0  0  0  0  0  0  0  0  0  0  0  0
   39.1270   27.0090   33.1200 C   0  0  0  0  0  3  0  0  0  0  0  0
   42.9210   23.8530   36.0280 O   0  0  0  0  0  0  0  0  0  0  0  0
   42.0620   22.7590   35.7470 C   0  0  0  0  0  0  0  0  0  0  0  0
   42.6670   21.9400   35.2870 H   0  0  0  0  0  0  0  0  0  0  0  0
   41.3070   23.0890   34.9880 H   0  0  0  0  0  0  0  0  0  0  0  0
   41.3940   22.2790   36.9980 C   0  0  0  0  0  0  0  0  0  0  0  0
   41.3430   21.1620   36.9860 H   0  0  0  0  0  0  0  0  0  0  0  0
   41.9940   22.5830   37.9010 H   0  0  0  0  0  0  0  0  0  0  0  0
   40.0180   22.8140   37.1540 C   0  0  0  0  0  0  0  0  0  0  0  0
   39.2840   23.0210   36.0030 C   0  0  0  0  0  0  0  0  0  0  0  0
   37.9900   23.5160   36.0400 C   0  0  0  0  0  0  0  0  0  0  0  0
   37.4330   23.8020   37.2110 N   0  0  0  0  0  0  0  0  0  0  0  0
   38.1520   23.5980   38.3360 C   0  0  0  0  0  0  0  0  0  0  0  0
   39.4100   23.1180   38.3200 N   0  0  0  0  0  0  0  0  0  0  0  0
   39.6480   22.8190   34.9960 H   0  0  0  0  0  0  0  0  0  0  0  0
   37.4080   23.6820   35.1380 H   0  0  0  0  0  0  0  0  0  0  0  0
   37.7150   23.8250   39.3030 H   0  0  0  0  0  0  0  0  0  0  0  0
  1  6  1  0  0  0  0
  2  1  2  0  0  0  0
  2  3  1  0  0  0  0
  3  4  2  0  0  0  0
  4  5  1  0  0  0  0
  5 18  1  0  0  0  0
  6  5  2  0  0  0  0
  7  1  1  0  0  0  0
  8  2  1  0  0  0  0
  9  3  1  0  0  0  0
  9 10  1  0  0  0  0
 10 11  1  0  0  0  0
 12 10  2  0  0  0  0
 13 12  1  0  0  0  0
 14 13  1  0  0  0  0
 15 17  1  0  0  0  0
 15 13  2  0  0  0  0
 16 15  1  0  0  0  0
 17  9  2  0  0  0  0
 19 18  1  0  0  0  0
 19 22  1  0  0  0  0
 20 19  1  0  0  0  0
 21 19  1  0  0  0  0
 22 25  1  0  0  0  0
 22 24  1  0  0  0  0
 23 22  1  0  0  0  0
 25 30  1  0  0  0  0
 26 27  1  0  0  0  0
 26 25  2  0  0  0  0
 27 28  2  0  0  0  0
 28 29  1  0  0  0  0
 29 33  1  0  0  0  0
 30 29  2  0  0  0  0
 31 26  1  0  0  0  0
 32 27  1  0  0  0  0
M  END
>  <minimizedAffinity>
-5.38726282

$$$$

 OpenBabel03272509513D

 33 35  0  0  0  0  0  0  0  0999 V2000
   35.3320   25.8150   31.1230 C   0  0  0  0  0  0  0  0  0  0  0  0
   35.1520   24.4290   31.0720 C   0  0  0  0  0  0  0  0  0  0  0  0
   36.1230   23.5930   31.5860 C   0  0  0  0  0  0  0  0  0  0  0  0
   37.2200   24.1950   32.1220 N   0  0  0  0  0  0  0  0  0  0  0  0
   37.3820   25.5330   32.1670 C   0  0  0  0  0  0  0  0  0  0  0  0
   36.4200   26.3400   31.6570 N   0  0  0  0  0  0  0  0  0  0  0  0
   34.6070   26.4950   30.7380 H   0  0  0  0  0  0  0  0  0  0  0  0
   34.2800   24.0110   30.6440 H   0  0  0  0  0  0  0  0  0  0  0  0
   36.0450   22.1360   31.5880 C   0  0  0  0  0  0  0  0  0  0  0  0
   35.0340   21.5710   32.3410 C   0  0  0  0  0  0  0  0  0  0  0  0
   34.2950   22.1030   32.9280 H   0  0  0  0  0  0  0  0  0  0  0  0
   34.9410   20.1820   32.3560 C   0  0  0  0  0  3  0  0  0  0  0  0
   35.8430   19.4240   31.6360 C   0  0  0  0  0  0  0  0  0  0  0  0
   35.8070   18.3230   31.6200 H   0  0  0  0  0  0  0  0  0  0  0  0
   36.8540   19.9810   30.8830 C   0  0  0  0  0  0  0  0  0  0  0  0
   37.5630   19.3840   30.3150 H   0  0  0  0  0  0  0  0  0  0  0  0
   36.9260   21.3710   30.8820 C   0  0  0  0  0  3  0  0  0  0  0  0
   38.5750   25.9060   32.7570 O   0  0  0  0  0  0  0  0  0  0  0  0
   38.5520   26.9950   33.6670 C   0  0  0  0  0  0  0  0  0  0  0  0
   37.5100   27.1170   34.0500 H   0  0  0  0  0  0  0  0  0  0  0  0
   38.8190   27.9280   33.1080 H   0  0  0  0  0  0  0  0  0  0  0  0
   39.5030   26.7550   34.7990 C   0  0  0  0  0  0  0  0  0  0  0  0
   40.5510   26.7450   34.4070 H   0  0  0  0  0  0  0  0  0  0  0  0
   39.4290   27.5870   35.5540 H   0  0  0  0  0  0  0  0  0  0  0  0
   39.2470   25.4700   35.4970 C   0  0  0  0  0  0  0  0  0  0  0  0
   38.1080   25.3840   36.2710 C   0  0  0  0  0  0  0  0  0  0  0  0
   37.7790   24.2300   36.9630 C   0  0  0  0  0  0  0  0  0  0  0  0
   38.5770   23.1710   36.8860 N   0  0  0  0  0  0  0  0  0  0  0  0
   39.6910   23.2570   36.1270 C   0  0  0  0  0  0  0  0  0  0  0  0
   40.0280   24.3690   35.4480 N   0  0  0  0  0  0  0  0  0  0  0  0
   37.3900   26.1940   36.4010 H   0  0  0  0  0  0  0  0  0  0  0  0
   36.8840   24.1560   37.5740 H   0  0  0  0  0  0  0  0  0  0  0  0
   40.3560   22.4030   36.0500 H   0  0  0  0  0  0  0  0  0  0  0  0
  1  6  1  0  0  0  0
  2  1  2  0  0  0  0
  2  3  1  0  0  0  0
  3  9  1  0  0  0  0
  3  4  2  0  0  0  0
  4  5  1  0  0  0  0
  5 18  1  0  0  0  0
  6  5  2  0  0  0  0
  7  1  1  0  0  0  0
  8  2  1  0  0  0  0
  9 10  1  0  0  0  0
 10 12  2  0  0  0  0
 10 11  1  0  0  0  0
 13 12  1  0  0  0  0
 14 13  1  0  0  0  0
 15 13  2  0  0  0  0
 16 15  1  0  0  0  0
 17 15  1  0  0  0  0
 17  9  2  0  0  0  0
 18 19  1  0  0  0  0
 19 20  1  0  0  0  0
 19 22  1  0  0  0  0
 21 19  1  0  0  0  0
 22 25  1  0  0  0  0
 22 24  1  0  0  0  0
 23 22  1  0  0  0  0
 25 26  1  0  0  0  0
 26 31  1  0  0  0  0
 26 27  2  0  0  0  0
 27 32  1  0  0  0  0
 28 27  1  0  0  0  0
 29 28  2  0  0  0  0
 30 25  2  0  0  0  0
 30 29  1  0  0  0  0
 33 29  1  0  0  0  0
M  END
>  <minimizedAffinity>
-5.25413418

$$$$

 OpenBabel03272509513D

 33 35  0  0  0  0  0  0  0  0999 V2000
   38.1020   25.9620   32.5890 C   0  0  0  0  0  0  0  0  0  0  0  0
   38.5440   25.1070   33.6050 C   0  0  0  0  0  0  0  0  0  0  0  0
   38.1750   25.3500   34.9130 C   0  0  0  0  0  0  0  0  0  0  0  0
   37.3860   26.4370   35.1300 N   0  0  0  0  0  0  0  0  0  0  0  0
   36.9660   27.2550   34.1430 C   0  0  0  0  0  0  0  0  0  0  0  0
   37.3370   27.0030   32.8640 N   0  0  0  0  0  0  0  0  0  0  0  0
   38.3630   25.8100   31.5680 H   0  0  0  0  0  0  0  0  0  0  0  0
   39.1560   24.2740   33.3830 H   0  0  0  0  0  0  0  0  0  0  0  0
   38.5740   24.5280   36.0510 C   0  0  0  0  0  0  0  0  0  0  0  0
   37.8340   24.6730   37.2080 C   0  0  0  0  0  0  0  0  0  0  0  0
   36.9890   25.3340   37.3530 H   0  0  0  0  0  0  0  0  0  0  0  0
   38.1980   23.8980   38.3070 C   0  0  0  0  0  3  0  0  0  0  0  0
   39.2650   23.0260   38.2120 C   0  0  0  0  0  0  0  0  0  0  0  0
   39.5870   22.3950   39.0540 H   0  0  0  0  0  0  0  0  0  0  0  0
   40.0070   22.8770   37.0600 C   0  0  0  0  0  0  0  0  0  0  0  0
   40.8460   22.1900   36.9840 H   0  0  0  0  0  0  0  0  0  0  0  0
   39.6240   23.6610   35.9750 C   0  0  0  0  0  3  0  0  0  0  0  0
   36.1770   28.2900   34.6080 O   0  0  0  0  0  0  0  0  0  0  0  0
   35.7020   29.2370   33.6640 C   0  0  0  0  0  0  0  0  0  0  0  0
   35.7440   28.7780   32.6460 H   0  0  0  0  0  0  0  0  0  0  0  0
   36.3940   30.1170   33.6670 H   0  0  0  0  0  0  0  0  0  0  0  0
   34.3020   29.6520   33.9940 C   0  0  0  0  0  0  0  0  0  0  0  0
   33.8460   30.1590   33.1070 H   0  0  0  0  0  0  0  0  0  0  0  0
   33.6720   28.7490   34.2310 H   0  0  0  0  0  0  0  0  0  0  0  0
   34.2370   30.5790   35.1520 C   0  0  0  0  0  0  0  0  0  0  0  0
   35.3110   31.4240   35.3490 C   0  0  0  0  0  0  0  0  0  0  0  0
   35.3490   32.3260   36.4000 C   0  0  0  0  0  0  0  0  0  0  0  0
   34.3270   32.3860   37.2470 N   0  0  0  0  0  0  0  0  0  0  0  0
   33.2780   31.5590   37.0520 C   0  0  0  0  0  0  0  0  0  0  0  0
   33.2230   30.6760   36.0370 N   0  0  0  0  0  0  0  0  0  0  0  0
   36.1960   31.4520   34.7140 H   0  0  0  0  0  0  0  0  0  0  0  0
   36.1910   32.9930   36.5610 H   0  0  0  0  0  0  0  0  0  0  0  0
   32.4330   31.5930   37.7330 H   0  0  0  0  0  0  0  0  0  0  0  0
  1  6  2  0  0  0  0
  1  2  1  0  0  0  0
  2  3  2  0  0  0  0
  3  4  1  0  0  0  0
  3  9  1  0  0  0  0
  5 18  1  0  0  0  0
  5  4  2  0  0  0  0
  6  5  1  0  0  0  0
  7  1  1  0  0  0  0
  8  2  1  0  0  0  0
  9 10  1  0  0  0  0
 10 11  1  0  0  0  0
 10 12  2  0  0  0  0
 13 12  1  0  0  0  0
 13 14  1  0  0  0  0
 15 13  2  0  0  0  0
 16 15  1  0  0  0  0
 17  9  2  0  0  0  0
 17 15  1  0  0  0  0
 19 21  1  0  0  0  0
 19 22  1  0  0  0  0
 19 18  1  0  0  0  0
 20 19  1  0  0  0  0
 22 24  1  0  0  0  0
 22 25  1  0  0  0  0
 23 22  1  0  0  0  0
 25 26  2  0  0  0  0
 25 30  1  0  0  0  0
 26 27  1  0  0  0  0
 27 32  1  0  0  0  0
 27 28  2  0  0  0  0
 29 28  1  0  0  0  0
 29 33  1  0  0  0  0
 30 29  2  0  0  0  0
 31 26  1  0  0  0  0
M  END
>  <minimizedAffinity>
-5.24246407

$$$$

 OpenBabel03272509513D

 33 35  0  0  0  0  0  0  0  0999 V2000
   35.8410   25.5850   31.3170 C   0  0  0  0  0  0  0  0  0  0  0  0
   35.4740   24.2350   31.2770 C   0  0  0  0  0  0  0  0  0  0  0  0
   36.4120   23.2620   31.5590 C   0  0  0  0  0  0  0  0  0  0  0  0
   37.6640   23.6960   31.8640 N   0  0  0  0  0  0  0  0  0  0  0  0
   38.0070   25.0000   31.9010 C   0  0  0  0  0  0  0  0  0  0  0  0
   37.0760   25.9440   31.6210 N   0  0  0  0  0  0  0  0  0  0  0  0
   35.1490   26.3660   31.1070 H   0  0  0  0  0  0  0  0  0  0  0  0
   34.4850   23.9500   31.0340 H   0  0  0  0  0  0  0  0  0  0  0  0
   36.1440   21.8270   31.5480 C   0  0  0  0  0  0  0  0  0  0  0  0
   35.0530   21.3950   32.2740 C   0  0  0  0  0  0  0  0  0  0  0  0
   34.3770   22.0150   32.8500 H   0  0  0  0  0  0  0  0  0  0  0  0
   34.7790   20.0300   32.2770 C   0  0  0  0  0  3  0  0  0  0  0  0
   35.5900   19.1640   31.5700 C   0  0  0  0  0  0  0  0  0  0  0  0
   35.4120   18.0780   31.5440 H   0  0  0  0  0  0  0  0  0  0  0  0
   36.6820   19.5890   30.8420 C   0  0  0  0  0  0  0  0  0  0  0  0
   37.3190   18.9080   30.2850 H   0  0  0  0  0  0  0  0  0  0  0  0
   36.9340   20.9580   30.8540 C   0  0  0  0  0  3  0  0  0  0  0  0
   39.3340   25.1930   32.2350 O   0  0  0  0  0  0  0  0  0  0  0  0
   39.7670   24.7570   33.5140 C   0  0  0  0  0  0  0  0  0  0  0  0
   40.8750   24.8830   33.5770 H   0  0  0  0  0  0  0  0  0  0  0  0
   39.5450   23.6630   33.6080 H   0  0  0  0  0  0  0  0  0  0  0  0
   39.0880   25.5400   34.5940 C   0  0  0  0  0  0  0  0  0  0  0  0
   39.6890   26.4550   34.8230 H   0  0  0  0  0  0  0  0  0  0  0  0
   38.0700   25.8770   34.2510 H   0  0  0  0  0  0  0  0  0  0  0  0
   38.9200   24.7600   35.8470 C   0  0  0  0  0  0  0  0  0  0  0  0
   39.7050   23.6360   36.0050 C   0  0  0  0  0  0  0  0  0  0  0  0
   39.6250   22.8410   37.1370 C   0  0  0  0  0  0  0  0  0  0  0  0
   38.7700   23.1620   38.1020 N   0  0  0  0  0  0  0  0  0  0  0  0
   38.0040   24.2630   37.9460 C   0  0  0  0  0  0  0  0  0  0  0  0
   38.0670   25.0470   36.8540 N   0  0  0  0  0  0  0  0  0  0  0  0
   40.4340   23.2870   35.2740 H   0  0  0  0  0  0  0  0  0  0  0  0
   40.2400   21.9550   37.2670 H   0  0  0  0  0  0  0  0  0  0  0  0
   37.3000   24.5420   38.7230 H   0  0  0  0  0  0  0  0  0  0  0  0
  1  6  1  0  0  0  0
  2  1  2  0  0  0  0
  2  3  1  0  0  0  0
  3  4  2  0  0  0  0
  4  5  1  0  0  0  0
  5 18  1  0  0  0  0
  6  5  2  0  0  0  0
  7  1  1  0  0  0  0
  8  2  1  0  0  0  0
  9  3  1  0  0  0  0
  9 10  1  0  0  0  0
 10 12  2  0  0  0  0
 10 11  1  0  0  0  0
 13 12  1  0  0  0  0
 14 13  1  0  0  0  0
 15 17  1  0  0  0  0
 15 13  2  0  0  0  0
 16 15  1  0  0  0  0
 17  9  2  0  0  0  0
 18 19  1  0  0  0  0
 19 20  1  0  0  0  0
 19 21  1  0  0  0  0
 19 22  1  0  0  0  0
 22 23  1  0  0  0  0
 22 25  1  0  0  0  0
 24 22  1  0  0  0  0
 25 26  2  0  0  0  0
 25 30  1  0  0  0  0
 26 27  1  0  0  0  0
 27 32  1  0  0  0  0
 27 28  2  0  0  0  0
 29 28  1  0  0  0  0
 29 33  1  0  0  0  0
 30 29  2  0  0  0  0
 31 26  1  0  0  0  0
M  END
>  <minimizedAffinity>
-5.09907246

$$$$

 OpenBabel03272509513D

 33 35  0  0  0  0  0  0  0  0999 V2000
   35.3750   26.3360   31.0290 C   0  0  0  0  0  0  0  0  0  0  0  0
   35.4370   24.9380   31.0140 C   0  0  0  0  0  0  0  0  0  0  0  0
   36.2910   24.2810   31.8780 C   0  0  0  0  0  0  0  0  0  0  0  0
   37.0360   25.0620   32.7060 N   0  0  0  0  0  0  0  0  0  0  0  0
   36.9680   26.4090   32.7120 C   0  0  0  0  0  0  0  0  0  0  0  0
   36.1250   27.0390   31.8580 N   0  0  0  0  0  0  0  0  0  0  0  0
   34.7290   26.8810   30.3800 H   0  0  0  0  0  0  0  0  0  0  0  0
   34.8350   24.3760   30.3500 H   0  0  0  0  0  0  0  0  0  0  0  0
   36.4390   22.8310   31.9510 C   0  0  0  0  0  0  0  0  0  0  0  0
   37.4230   22.3520   32.7930 C   0  0  0  0  0  0  0  0  0  0  0  0
   38.0940   22.9450   33.4020 H   0  0  0  0  0  0  0  0  0  0  0  0
   37.5820   20.9710   32.8780 C   0  0  0  0  0  3  0  0  0  0  0  0
   36.7700   20.1370   32.1350 C   0  0  0  0  0  0  0  0  0  0  0  0
   36.8600   19.0410   32.1710 H   0  0  0  0  0  0  0  0  0  0  0  0
   35.7860   20.6090   31.2920 C   0  0  0  0  0  0  0  0  0  0  0  0
   35.1460   19.9540   30.7080 H   0  0  0  0  0  0  0  0  0  0  0  0
   35.6460   21.9930   31.2250 C   0  0  0  0  0  3  0  0  0  0  0  0
   37.8180   26.9820   33.6390 O   0  0  0  0  0  0  0  0  0  0  0  0
   37.3530   27.1120   34.9740 C   0  0  0  0  0  0  0  0  0  0  0  0
   36.4300   26.4940   35.0910 H   0  0  0  0  0  0  0  0  0  0  0  0
   37.0690   28.1810   35.1460 H   0  0  0  0  0  0  0  0  0  0  0  0
   38.4060   26.6710   35.9420 C   0  0  0  0  0  0  0  0  0  0  0  0
   39.4040   27.0500   35.6040 H   0  0  0  0  0  0  0  0  0  0  0  0
   38.2050   27.1050   36.9620 H   0  0  0  0  0  0  0  0  0  0  0  0
   38.4810   25.1940   36.0720 C   0  0  0  0  0  0  0  0  0  0  0  0
   39.5620   24.5600   35.4940 C   0  0  0  0  0  0  0  0  0  0  0  0
   39.7250   23.1860   35.5580 C   0  0  0  0  0  0  0  0  0  0  0  0
   38.8200   22.4490   36.1940 N   0  0  0  0  0  0  0  0  0  0  0  0
   37.7640   23.0720   36.7600 C   0  0  0  0  0  0  0  0  0  0  0  0
   37.5890   24.4050   36.7070 N   0  0  0  0  0  0  0  0  0  0  0  0
   40.3570   25.0710   34.9510 H   0  0  0  0  0  0  0  0  0  0  0  0
   40.5730   22.6810   35.1050 H   0  0  0  0  0  0  0  0  0  0  0  0
   37.0140   22.4880   37.2840 H   0  0  0  0  0  0  0  0  0  0  0  0
  1  6  1  0  0  0  0
  2  1  2  0  0  0  0
  2  3  1  0  0  0  0
  3  9  1  0  0  0  0
  3  4  2  0  0  0  0
  4  5  1  0  0  0  0
  5 18  1  0  0  0  0
  6  5  2  0  0  0  0
  7  1  1  0  0  0  0
  8  2  1  0  0  0  0
  9 10  1  0  0  0  0
 10 12  2  0  0  0  0
 10 11  1  0  0  0  0
 13 14  1  0  0  0  0
 13 12  1  0  0  0  0
 15 13  2  0  0  0  0
 16 15  1  0  0  0  0
 17 15  1  0  0  0  0
 17  9  2  0  0  0  0
 18 19  1  0  0  0  0
 19 20  1  0  0  0  0
 19 21  1  0  0  0  0
 19 22  1  0  0  0  0
 22 25  1  0  0  0  0
 22 24  1  0  0  0  0
 23 22  1  0  0  0  0
 25 30  1  0  0  0  0
 26 27  1  0  0  0  0
 26 25  2  0  0  0  0
 27 28  2  0  0  0  0
 28 29  1  0  0  0  0
 29 33  1  0  0  0  0
 30 29  2  0  0  0  0
 31 26  1  0  0  0  0
 32 27  1  0  0  0  0
M  END
>  <minimizedAffinity>
-5.07104349

$$$$

 OpenBabel03272509513D

 33 35  0  0  0  0  0  0  0  0999 V2000
   38.1390   26.1130   32.6410 C   0  0  0  0  0  0  0  0  0  0  0  0
   38.5690   25.2510   33.6560 C   0  0  0  0  0  0  0  0  0  0  0  0
   38.1470   25.4580   34.9550 C   0  0  0  0  0  0  0  0  0  0  0  0
   37.3210   26.5190   35.1620 N   0  0  0  0  0  0  0  0  0  0  0  0
   36.9130   27.3440   34.1760 C   0  0  0  0  0  0  0  0  0  0  0  0
   37.3350   27.1270   32.9070 N   0  0  0  0  0  0  0  0  0  0  0  0
   38.4400   25.9870   31.6270 H   0  0  0  0  0  0  0  0  0  0  0  0
   39.2110   24.4390   33.4410 H   0  0  0  0  0  0  0  0  0  0  0  0
   38.5290   24.6260   36.0920 C   0  0  0  0  0  0  0  0  0  0  0  0
   39.5700   23.7430   35.8900 C   0  0  0  0  0  0  0  0  0  0  0  0
   40.1310   23.6070   34.9740 H   0  0  0  0  0  0  0  0  0  0  0  0
   39.9510   22.9400   36.9620 C   0  0  0  0  0  3  0  0  0  0  0  0
   39.2900   23.0460   38.1700 C   0  0  0  0  0  0  0  0  0  0  0  0
   39.5570   22.4310   39.0440 H   0  0  0  0  0  0  0  0  0  0  0  0
   38.2490   23.9260   38.3780 C   0  0  0  0  0  0  0  0  0  0  0  0
   37.7290   24.0090   39.3290 H   0  0  0  0  0  0  0  0  0  0  0  0
   37.8880   24.7180   37.2920 C   0  0  0  0  0  3  0  0  0  0  0  0
   36.0780   28.3470   34.6310 O   0  0  0  0  0  0  0  0  0  0  0  0
   35.5530   29.2560   33.6760 C   0  0  0  0  0  0  0  0  0  0  0  0
   34.8010   28.7180   33.0490 H   0  0  0  0  0  0  0  0  0  0  0  0
   36.3850   29.5820   33.0020 H   0  0  0  0  0  0  0  0  0  0  0  0
   34.9220   30.4300   34.3590 C   0  0  0  0  0  0  0  0  0  0  0  0
   33.9070   30.6110   33.9240 H   0  0  0  0  0  0  0  0  0  0  0  0
   34.7880   30.2170   35.4570 H   0  0  0  0  0  0  0  0  0  0  0  0
   35.7240   31.6720   34.2210 C   0  0  0  0  0  0  0  0  0  0  0  0
   36.1630   32.2750   35.3820 C   0  0  0  0  0  0  0  0  0  0  0  0
   36.9180   33.4380   35.3620 C   0  0  0  0  0  0  0  0  0  0  0  0
   37.2320   33.9920   34.1960 N   0  0  0  0  0  0  0  0  0  0  0  0
   36.8030   33.3990   33.0620 C   0  0  0  0  0  0  0  0  0  0  0  0
   36.0680   32.2710   33.0610 N   0  0  0  0  0  0  0  0  0  0  0  0
   35.9590   31.9020   36.3850 H   0  0  0  0  0  0  0  0  0  0  0  0
   37.2650   33.9180   36.2710 H   0  0  0  0  0  0  0  0  0  0  0  0
   37.0490   33.8360   32.1000 H   0  0  0  0  0  0  0  0  0  0  0  0
  1  6  2  0  0  0  0
  1  2  1  0  0  0  0
  2  3  2  0  0  0  0
  3  4  1  0  0  0  0
  3  9  1  0  0  0  0
  5 18  1  0  0  0  0
  5  4  2  0  0  0  0
  6  5  1  0  0  0  0
  7  1  1  0  0  0  0
  8  2  1  0  0  0  0
  9 17  1  0  0  0  0
 10  9  2  0  0  0  0
 10 12  1  0  0  0  0
 11 10  1  0  0  0  0
 12 13  2  0  0  0  0
 13 15  1  0  0  0  0
 13 14  1  0  0  0  0
 15 16  1  0  0  0  0
 17 15  2  0  0  0  0
 19 22  1  0  0  0  0
 19 18  1  0  0  0  0
 20 19  1  0  0  0  0
 21 19  1  0  0  0  0
 22 24  1  0  0  0  0
 23 22  1  0  0  0  0
 25 22  1  0  0  0  0
 25 26  1  0  0  0  0
 26 31  1  0  0  0  0
 27 26  2  0  0  0  0
 27 32  1  0  0  0  0
 28 27  1  0  0  0  0
 29 28  2  0  0  0  0
 30 29  1  0  0  0  0
 30 25  2  0  0  0  0
 33 29  1  0  0  0  0
M  END
>  <minimizedAffinity>
-4.96398878

$$$$

 OpenBabel03272509513D

 33 35  0  0  0  0  0  0  0  0999 V2000
   38.4030   25.9330   35.7600 C   0  0  0  0  0  0  0  0  0  0  0  0
   37.8470   27.1150   35.2590 C   0  0  0  0  0  0  0  0  0  0  0  0
   37.1850   27.1000   34.0480 C   0  0  0  0  0  0  0  0  0  0  0  0
   37.1190   25.9020   33.4060 N   0  0  0  0  0  0  0  0  0  0  0  0
   37.6590   24.7680   33.8990 C   0  0  0  0  0  0  0  0  0  0  0  0
   38.3060   24.7990   35.0900 N   0  0  0  0  0  0  0  0  0  0  0  0
   38.9210   25.9010   36.6910 H   0  0  0  0  0  0  0  0  0  0  0  0
   37.9260   28.0210   35.7980 H   0  0  0  0  0  0  0  0  0  0  0  0
   36.5660   28.2680   33.4280 C   0  0  0  0  0  0  0  0  0  0  0  0
   35.8720   29.1180   34.2650 C   0  0  0  0  0  0  0  0  0  0  0  0
   35.7420   29.0040   35.3340 H   0  0  0  0  0  0  0  0  0  0  0  0
   35.2740   30.2380   33.6940 C   0  0  0  0  0  3  0  0  0  0  0  0
   35.3890   30.4630   32.3370 C   0  0  0  0  0  0  0  0  0  0  0  0
   34.9330   31.3360   31.8430 H   0  0  0  0  0  0  0  0  0  0  0  0
   36.0810   29.6190   31.4950 C   0  0  0  0  0  0  0  0  0  0  0  0
   36.1720   29.7960   30.4270 H   0  0  0  0  0  0  0  0  0  0  0  0
   36.6700   28.5060   32.0890 C   0  0  0  0  0  3  0  0  0  0  0  0
   37.4640   23.6800   33.0700 O   0  0  0  0  0  0  0  0  0  0  0  0
   37.0180   23.9270   31.7450 C   0  0  0  0  0  0  0  0  0  0  0  0
   37.7900   23.5470   31.0330 H   0  0  0  0  0  0  0  0  0  0  0  0
   36.9380   25.0340   31.5990 H   0  0  0  0  0  0  0  0  0  0  0  0
   35.7020   23.2550   31.4990 C   0  0  0  0  0  0  0  0  0  0  0  0
   34.9940   23.5120   32.3270 H   0  0  0  0  0  0  0  0  0  0  0  0
   35.2500   23.6240   30.5370 H   0  0  0  0  0  0  0  0  0  0  0  0
   35.8210   21.7770   31.4200 C   0  0  0  0  0  0  0  0  0  0  0  0
   34.9120   21.0280   32.1410 C   0  0  0  0  0  0  0  0  0  0  0  0
   34.9380   19.6430   32.1340 C   0  0  0  0  0  0  0  0  0  0  0  0
   35.8580   19.0090   31.4170 N   0  0  0  0  0  0  0  0  0  0  0  0
   36.7450   19.7440   30.7110 C   0  0  0  0  0  0  0  0  0  0  0  0
   36.7370   21.0900   30.7060 N   0  0  0  0  0  0  0  0  0  0  0  0
   34.1210   21.4500   32.7600 H   0  0  0  0  0  0  0  0  0  0  0  0
   34.2260   19.0480   32.7000 H   0  0  0  0  0  0  0  0  0  0  0  0
   37.5050   19.2450   30.1180 H   0  0  0  0  0  0  0  0  0  0  0  0
  1  7  1  0  0  0  0
  2  1  1  0  0  0  0
  2  8  1  0  0  0  0
  3  2  2  0  0  0  0
  4  5  2  0  0  0  0
  4  3  1  0  0  0  0
  5  6  1  0  0  0  0
  6  1  2  0  0  0  0
  9  3  1  0  0  0  0
  9 10  1  0  0  0  0
 10 11  1  0  0  0  0
 12 10  2  0  0  0  0
 13 12  1  0  0  0  0
 14 13  1  0  0  0  0
 15 17  1  0  0  0  0
 15 13  2  0  0  0  0
 16 15  1  0  0  0  0
 17  9  2  0  0  0  0
 18  5  1  0  0  0  0
 19 18  1  0  0  0  0
 20 19  1  0  0  0  0
 21 19  1  0  0  0  0
 22 19  1  0  0  0  0
 22 23  1  0  0  0  0
 24 22  1  0  0  0  0
 25 22  1  0  0  0  0
 25 26  1  0  0  0  0
 26 31  1  0  0  0  0
 27 26  2  0  0  0  0
 27 32  1  0  0  0  0
 28 27  1  0  0  0  0
 29 28  2  0  0  0  0
 30 29  1  0  0  0  0
 30 25  2  0  0  0  0
 33 29  1  0  0  0  0
M  END
>  <minimizedAffinity>
-4.94598913

$$$$
