
 OpenBabel03262523173D

 39 42  0  0  0  0  0  0  0  0999 V2000
   36.9940   27.2380   32.4060 C   0  0  0  0  0  0  0  0  0  0  0  0
   37.2770   27.7130   31.1390 C   0  0  0  0  0  0  0  0  0  0  0  0
   36.8780   29.0160   30.9240 C   0  0  0  0  0  0  0  0  0  0  0  0
   36.2570   29.7700   31.8870 C   0  0  0  0  0  0  0  0  0  0  0  0
   36.0150   29.2200   33.1160 C   0  0  0  0  0  0  0  0  0  0  0  0
   36.3900   27.9520   33.3600 N   0  0  0  0  0  0  0  0  0  0  0  0
   37.7720   27.1140   30.3730 H   0  0  0  0  0  0  0  0  0  0  0  0
   37.0850   29.4290   29.9290 H   0  0  0  0  0  0  0  0  0  0  0  0
   36.0010   30.7630   31.6050 H   0  0  0  0  0  0  0  0  0  0  0  0
   32.9920   29.1560   33.1340 Cl  0  0  0  0  0  0  0  0  0  0  0  0
   33.9890   30.0150   34.2690 C   0  0  0  0  0  0  0  0  0  0  0  0
   35.3570   29.9730   34.1630 C   0  0  0  0  0  0  0  0  0  0  0  0
   36.0210   30.7030   35.1400 C   0  0  0  0  0  0  0  0  0  0  0  0
   35.4170   31.4140   36.1340 C   0  0  0  0  0  0  0  0  0  0  0  0
   34.0390   31.4280   36.2010 C   0  0  0  0  0  0  0  0  0  0  0  0
   33.2080   32.3250   37.4570 Cl  0  0  0  0  0  0  0  0  0  0  0  0
   33.3340   30.7240   35.2630 C   0  0  0  0  0  0  0  0  0  0  0  0
   37.1120   30.7110   35.1110 H   0  0  0  0  0  0  0  0  0  0  0  0
   36.0210   31.9540   36.8510 H   0  0  0  0  0  0  0  0  0  0  0  0
   32.2530   30.7520   35.3380 H   0  0  0  0  0  0  0  0  0  0  0  0
   37.8080   23.6660   32.1100 C   0  0  0  0  0  0  0  0  0  0  0  0
   38.1090   23.3050   33.4230 C   0  0  0  0  0  0  0  0  0  0  0  0
   38.0300   24.2860   34.3910 C   0  0  0  0  0  0  0  0  0  0  0  0
   37.6690   25.5250   34.0080 N   0  0  0  0  0  0  0  0  0  0  0  0
   37.3800   25.8640   32.7450 C   0  0  0  0  0  0  0  0  0  0  0  0
   37.4550   24.9100   31.7920 N   0  0  0  0  0  0  0  0  0  0  0  0
   38.3870   22.3090   33.6510 H   0  0  0  0  0  0  0  0  0  0  0  0
   38.3220   24.0260   35.7890 C   0  0  0  0  0  0  0  0  0  0  0  0
   39.3600   23.1450   36.0680 C   0  0  0  0  0  0  0  0  0  0  0  0
   39.9690   22.6370   35.3320 H   0  0  0  0  0  0  0  0  0  0  0  0
   39.6870   22.8570   37.3760 C   0  0  0  0  0  3  0  0  0  0  0  0
   39.0020   23.4260   38.4310 C   0  0  0  0  0  0  0  0  0  0  0  0
   39.2780   23.1840   39.4470 H   0  0  0  0  0  0  0  0  0  0  0  0
   37.9720   24.3000   38.1260 C   0  0  0  0  0  0  0  0  0  0  0  0
   37.4660   24.7200   38.9800 H   0  0  0  0  0  0  0  0  0  0  0  0
   37.6450   24.5890   36.8270 C   0  0  0  0  0  3  0  0  0  0  0  0
   37.8570   22.7190   31.0190 N   0  0  0  0  0  0  0  0  0  0  0  0
   38.8260   22.3820   30.7840 H   0  0  0  0  0  0  0  0  0  0  0  0
   36.9490   22.4680   30.5810 H   0  0  0  0  0  0  0  0  0  0  0  0
  1 25  1  0  0  0  0
  1  6  1  0  0  0  0
  2  1  2  0  0  0  0
  3  2  1  0  0  0  0
  3  4  2  0  0  0  0
  4  5  1  0  0  0  0
  5  6  2  0  0  0  0
  5 12  1  0  0  0  0
  7  2  1  0  0  0  0
  8  3  1  0  0  0  0
  9  4  1  0  0  0  0
 10 11  1  0  0  0  0
 11 17  1  0  0  0  0
 12 11  2  0  0  0  0
 12 13  1  0  0  0  0
 13 14  2  0  0  0  0
 14 15  1  0  0  0  0
 14 19  1  0  0  0  0
 15 16  1  0  0  0  0
 17 20  1  0  0  0  0
 17 15  2  0  0  0  0
 18 13  1  0  0  0  0
 21 22  1  0  0  0  0
 22 27  1  0  0  0  0
 22 23  2  0  0  0  0
 23 28  1  0  0  0  0
 24 23  1  0  0  0  0
 25 24  2  0  0  0  0
 26 21  2  0  0  0  0
 26 25  1  0  0  0  0
 28 29  2  0  0  0  0
 28 36  1  0  0  0  0
 29 31  1  0  0  0  0
 30 29  1  0  0  0  0
 31 32  2  0  0  0  0
 32 33  1  0  0  0  0
 34 32  1  0  0  0  0
 34 35  1  0  0  0  0
 36 34  2  0  0  0  0
 37 21  1  0  0  0  0
 38 37  1  0  0  0  0
 39 37  1  0  0  0  0
M  END
>  <minimizedAffinity>
-7.07158947

$$$$

 OpenBabel03262523173D

 39 42  0  0  0  0  0  0  0  0999 V2000
   36.3220   26.7280   32.0650 C   0  0  0  0  0  0  0  0  0  0  0  0
   35.5950   25.9450   31.1880 C   0  0  0  0  0  0  0  0  0  0  0  0
   35.8820   24.5980   31.2660 C   0  0  0  0  0  0  0  0  0  0  0  0
   36.8070   24.0860   32.1390 C   0  0  0  0  0  0  0  0  0  0  0  0
   37.4820   24.9340   32.9730 C   0  0  0  0  0  0  0  0  0  0  0  0
   37.2280   26.2530   32.9240 N   0  0  0  0  0  0  0  0  0  0  0  0
   34.8580   26.3520   30.4930 H   0  0  0  0  0  0  0  0  0  0  0  0
   35.3250   23.9430   30.5840 H   0  0  0  0  0  0  0  0  0  0  0  0
   36.9370   23.0310   32.1100 H   0  0  0  0  0  0  0  0  0  0  0  0
   40.3360   24.8110   31.9830 Cl  0  0  0  0  0  0  0  0  0  0  0  0
   39.7990   24.3450   33.5670 C   0  0  0  0  0  0  0  0  0  0  0  0
   38.4720   24.4430   33.9090 C   0  0  0  0  0  0  0  0  0  0  0  0
   38.1920   24.0380   35.2070 C   0  0  0  0  0  0  0  0  0  0  0  0
   39.1130   23.5760   36.1000 C   0  0  0  0  0  0  0  0  0  0  0  0
   40.4340   23.4950   35.7140 C   0  0  0  0  0  0  0  0  0  0  0  0
   41.6610   22.9090   36.8200 Cl  0  0  0  0  0  0  0  0  0  0  0  0
   40.7670   23.8820   34.4440 C   0  0  0  0  0  0  0  0  0  0  0  0
   37.1540   24.0920   35.5400 H   0  0  0  0  0  0  0  0  0  0  0  0
   38.7970   23.2830   37.0930 H   0  0  0  0  0  0  0  0  0  0  0  0
   41.8120   23.8070   34.1650 H   0  0  0  0  0  0  0  0  0  0  0  0
   36.0660   30.2280   30.9690 C   0  0  0  0  0  0  0  0  0  0  0  0
   35.6480   30.8860   32.1250 C   0  0  0  0  0  0  0  0  0  0  0  0
   35.4600   30.1270   33.2630 C   0  0  0  0  0  0  0  0  0  0  0  0
   35.6900   28.8030   33.1840 N   0  0  0  0  0  0  0  0  0  0  0  0
   36.0920   28.1770   32.0700 C   0  0  0  0  0  0  0  0  0  0  0  0
   36.2780   28.9120   30.9530 N   0  0  0  0  0  0  0  0  0  0  0  0
   35.4860   31.9320   32.1120 H   0  0  0  0  0  0  0  0  0  0  0  0
   35.0260   30.7050   34.5220 C   0  0  0  0  0  0  0  0  0  0  0  0
   33.7090   30.4860   34.9010 C   0  0  0  0  0  0  0  0  0  0  0  0
   32.9780   29.9200   34.3380 H   0  0  0  0  0  0  0  0  0  0  0  0
   33.2360   31.0080   36.0870 C   0  0  0  0  0  3  0  0  0  0  0  0
   34.0470   31.7540   36.9170 C   0  0  0  0  0  0  0  0  0  0  0  0
   33.6530   32.1520   37.8410 H   0  0  0  0  0  0  0  0  0  0  0  0
   35.3570   31.9580   36.5170 C   0  0  0  0  0  0  0  0  0  0  0  0
   35.9530   32.5450   37.1960 H   0  0  0  0  0  0  0  0  0  0  0  0
   35.8290   31.4400   35.3400 C   0  0  0  0  0  3  0  0  0  0  0  0
   36.2940   30.9250   29.7240 N   0  0  0  0  0  0  0  0  0  0  0  0
   35.4220   31.3110   29.2790 H   0  0  0  0  0  0  0  0  0  0  0  0
   37.2780   30.9750   29.3940 H   0  0  0  0  0  0  0  0  0  0  0  0
  1 25  1  0  0  0  0
  1  6  1  0  0  0  0
  2  3  1  0  0  0  0
  2  1  2  0  0  0  0
  3  4  2  0  0  0  0
  4  5  1  0  0  0  0
  5 12  1  0  0  0  0
  6  5  2  0  0  0  0
  7  2  1  0  0  0  0
  8  3  1  0  0  0  0
  9  4  1  0  0  0  0
 10 11  1  0  0  0  0
 11 12  2  0  0  0  0
 11 17  1  0  0  0  0
 12 13  1  0  0  0  0
 13 18  1  0  0  0  0
 13 14  2  0  0  0  0
 14 19  1  0  0  0  0
 15 14  1  0  0  0  0
 15 16  1  0  0  0  0
 17 15  2  0  0  0  0
 20 17  1  0  0  0  0
 21 22  1  0  0  0  0
 22 23  2  0  0  0  0
 23 28  1  0  0  0  0
 24 23  1  0  0  0  0
 25 24  2  0  0  0  0
 26 21  2  0  0  0  0
 26 25  1  0  0  0  0
 27 22  1  0  0  0  0
 28 29  2  0  0  0  0
 28 36  1  0  0  0  0
 29 31  1  0  0  0  0
 30 29  1  0  0  0  0
 31 32  2  0  0  0  0
 32 33  1  0  0  0  0
 34 32  1  0  0  0  0
 34 35  1  0  0  0  0
 36 34  2  0  0  0  0
 37 21  1  0  0  0  0
 38 37  1  0  0  0  0
 39 37  1  0  0  0  0
M  END
>  <minimizedAffinity>
-6.70290422

$$$$

 OpenBabel03262523173D

 39 42  0  0  0  0  0  0  0  0999 V2000
   38.9970   25.1600   33.5390 C   0  0  0  0  0  0  0  0  0  0  0  0
   39.3000   26.4910   33.7580 C   0  0  0  0  0  0  0  0  0  0  0  0
   40.3780   26.6920   34.5940 C   0  0  0  0  0  0  0  0  0  0  0  0
   41.0860   25.6590   35.1550 C   0  0  0  0  0  0  0  0  0  0  0  0
   40.7160   24.3700   34.8840 C   0  0  0  0  0  0  0  0  0  0  0  0
   39.6700   24.1370   34.0740 N   0  0  0  0  0  0  0  0  0  0  0  0
   38.7390   27.3130   33.3120 H   0  0  0  0  0  0  0  0  0  0  0  0
   40.6500   27.7360   34.7940 H   0  0  0  0  0  0  0  0  0  0  0  0
   41.9000   25.9400   35.7790 H   0  0  0  0  0  0  0  0  0  0  0  0
   39.4980   23.1110   37.3480 Cl  0  0  0  0  0  0  0  0  0  0  0  0
   40.9660   22.5960   36.5750 C   0  0  0  0  0  0  0  0  0  0  0  0
   41.4270   23.2450   35.4560 C   0  0  0  0  0  0  0  0  0  0  0  0
   42.6080   22.7220   34.9470 C   0  0  0  0  0  0  0  0  0  0  0  0
   43.2870   21.6630   35.4720 C   0  0  0  0  0  0  0  0  0  0  0  0
   42.7870   21.0410   36.5960 C   0  0  0  0  0  0  0  0  0  0  0  0
   43.6170   19.6750   37.3150 Cl  0  0  0  0  0  0  0  0  0  0  0  0
   41.6240   21.5160   37.1400 C   0  0  0  0  0  0  0  0  0  0  0  0
   43.0280   23.1950   34.0570 H   0  0  0  0  0  0  0  0  0  0  0  0
   44.2020   21.3270   35.0020 H   0  0  0  0  0  0  0  0  0  0  0  0
   41.2530   21.0100   38.0240 H   0  0  0  0  0  0  0  0  0  0  0  0
   36.2160   25.4820   31.1570 C   0  0  0  0  0  0  0  0  0  0  0  0
   35.7650   24.1690   31.0250 C   0  0  0  0  0  0  0  0  0  0  0  0
   36.4170   23.1920   31.7500 C   0  0  0  0  0  0  0  0  0  0  0  0
   37.4430   23.5670   32.5370 N   0  0  0  0  0  0  0  0  0  0  0  0
   37.8690   24.8300   32.6600 C   0  0  0  0  0  0  0  0  0  0  0  0
   37.2380   25.7930   31.9540 N   0  0  0  0  0  0  0  0  0  0  0  0
   34.9510   23.9480   30.3860 H   0  0  0  0  0  0  0  0  0  0  0  0
   36.0350   21.7930   31.6900 C   0  0  0  0  0  0  0  0  0  0  0  0
   36.8030   20.9580   30.8880 C   0  0  0  0  0  0  0  0  0  0  0  0
   37.6610   21.2630   30.3050 H   0  0  0  0  0  0  0  0  0  0  0  0
   36.4910   19.6190   30.7890 C   0  0  0  0  0  3  0  0  0  0  0  0
   35.4230   19.0770   31.4740 C   0  0  0  0  0  0  0  0  0  0  0  0
   35.2000   18.0230   31.3790 H   0  0  0  0  0  0  0  0  0  0  0  0
   34.6730   19.9290   32.2660 C   0  0  0  0  0  0  0  0  0  0  0  0
   33.8500   19.4630   32.7820 H   0  0  0  0  0  0  0  0  0  0  0  0
   34.9800   21.2600   32.3670 C   0  0  0  0  0  3  0  0  0  0  0  0
   35.6060   26.5830   30.4460 N   0  0  0  0  0  0  0  0  0  0  0  0
   35.7540   26.5570   29.4040 H   0  0  0  0  0  0  0  0  0  0  0  0
   35.0920   27.2790   31.0200 H   0  0  0  0  0  0  0  0  0  0  0  0
  1  2  2  0  0  0  0
  1  6  1  0  0  0  0
  2  3  1  0  0  0  0
  3  8  1  0  0  0  0
  3  4  2  0  0  0  0
  4  9  1  0  0  0  0
  5  4  1  0  0  0  0
  5 12  1  0  0  0  0
  6  5  2  0  0  0  0
  7  2  1  0  0  0  0
 11 17  1  0  0  0  0
 11 10  1  0  0  0  0
 12 11  2  0  0  0  0
 13 12  1  0  0  0  0
 13 14  2  0  0  0  0
 14 15  1  0  0  0  0
 15 17  2  0  0  0  0
 15 16  1  0  0  0  0
 17 20  1  0  0  0  0
 18 13  1  0  0  0  0
 19 14  1  0  0  0  0
 21 26  1  0  0  0  0
 22 21  2  0  0  0  0
 22 23  1  0  0  0  0
 23 24  2  0  0  0  0
 24 25  1  0  0  0  0
 25  1  1  0  0  0  0
 26 25  2  0  0  0  0
 27 22  1  0  0  0  0
 28 23  1  0  0  0  0
 28 36  1  0  0  0  0
 29 28  2  0  0  0  0
 30 29  1  0  0  0  0
 31 29  1  0  0  0  0
 31 32  2  0  0  0  0
 32 34  1  0  0  0  0
 33 32  1  0  0  0  0
 34 36  2  0  0  0  0
 34 35  1  0  0  0  0
 37 39  1  0  0  0  0
 37 21  1  0  0  0  0
 38 37  1  0  0  0  0
M  END
>  <minimizedAffinity>
-6.70277739

$$$$

 OpenBabel03262523173D

 39 42  0  0  0  0  0  0  0  0999 V2000
   36.3490   28.1590   33.4450 C   0  0  0  0  0  0  0  0  0  0  0  0
   35.5530   27.9120   32.3420 C   0  0  0  0  0  0  0  0  0  0  0  0
   34.4830   28.7730   32.2170 C   0  0  0  0  0  0  0  0  0  0  0  0
   34.2350   29.7840   33.1100 C   0  0  0  0  0  0  0  0  0  0  0  0
   35.0760   29.9570   34.1750 C   0  0  0  0  0  0  0  0  0  0  0  0
   36.1290   29.1360   34.3290 N   0  0  0  0  0  0  0  0  0  0  0  0
   35.7500   27.1080   31.6310 H   0  0  0  0  0  0  0  0  0  0  0  0
   33.8270   28.6090   31.3530 H   0  0  0  0  0  0  0  0  0  0  0  0
   33.3830   30.3860   32.9040 H   0  0  0  0  0  0  0  0  0  0  0  0
   32.5850   29.7240   35.8730 Cl  0  0  0  0  0  0  0  0  0  0  0  0
   33.7560   31.0020   35.9730 C   0  0  0  0  0  0  0  0  0  0  0  0
   34.8540   31.0060   35.1490 C   0  0  0  0  0  0  0  0  0  0  0  0
   35.7030   32.0870   35.3440 C   0  0  0  0  0  0  0  0  0  0  0  0
   35.5100   33.0810   36.2570 C   0  0  0  0  0  0  0  0  0  0  0  0
   34.3940   33.0360   37.0660 C   0  0  0  0  0  0  0  0  0  0  0  0
   34.0930   34.2850   38.2570 Cl  0  0  0  0  0  0  0  0  0  0  0  0
   33.5220   31.9910   36.9150 C   0  0  0  0  0  0  0  0  0  0  0  0
   36.5960   32.1490   34.7180 H   0  0  0  0  0  0  0  0  0  0  0  0
   36.2300   33.8850   36.3360 H   0  0  0  0  0  0  0  0  0  0  0  0
   32.6520   31.9800   37.5620 H   0  0  0  0  0  0  0  0  0  0  0  0
   39.6070   26.5120   33.0150 C   0  0  0  0  0  0  0  0  0  0  0  0
   39.6930   25.6920   34.1390 C   0  0  0  0  0  0  0  0  0  0  0  0
   38.6370   25.7120   35.0290 C   0  0  0  0  0  0  0  0  0  0  0  0
   37.5960   26.5200   34.7560 N   0  0  0  0  0  0  0  0  0  0  0  0
   37.5200   27.3040   33.6730 C   0  0  0  0  0  0  0  0  0  0  0  0
   38.5480   27.2900   32.7980 N   0  0  0  0  0  0  0  0  0  0  0  0
   40.5450   25.0810   34.2890 H   0  0  0  0  0  0  0  0  0  0  0  0
   38.6180   24.9010   36.2330 C   0  0  0  0  0  0  0  0  0  0  0  0
   39.4050   23.7570   36.2410 C   0  0  0  0  0  0  0  0  0  0  0  0
   40.0310   23.4190   35.4260 H   0  0  0  0  0  0  0  0  0  0  0  0
   39.4310   22.9450   37.3550 C   0  0  0  0  0  3  0  0  0  0  0  0
   38.6850   23.2420   38.4780 C   0  0  0  0  0  0  0  0  0  0  0  0
   38.7240   22.5890   39.3380 H   0  0  0  0  0  0  0  0  0  0  0  0
   37.9100   24.3880   38.4450 C   0  0  0  0  0  0  0  0  0  0  0  0
   37.3450   24.5800   39.3430 H   0  0  0  0  0  0  0  0  0  0  0  0
   37.8820   25.1960   37.3400 C   0  0  0  0  0  3  0  0  0  0  0  0
   40.6530   26.5670   32.0190 N   0  0  0  0  0  0  0  0  0  0  0  0
   41.5500   27.0000   32.3590 H   0  0  0  0  0  0  0  0  0  0  0  0
   40.4230   26.1830   31.0810 H   0  0  0  0  0  0  0  0  0  0  0  0
  1 25  1  0  0  0  0
  1  6  1  0  0  0  0
  2  1  2  0  0  0  0
  3  2  1  0  0  0  0
  3  4  2  0  0  0  0
  4  5  1  0  0  0  0
  5  6  2  0  0  0  0
  5 12  1  0  0  0  0
  7  2  1  0  0  0  0
  8  3  1  0  0  0  0
  9  4  1  0  0  0  0
 10 11  1  0  0  0  0
 11 17  1  0  0  0  0
 12 13  1  0  0  0  0
 12 11  2  0  0  0  0
 13 14  2  0  0  0  0
 14 19  1  0  0  0  0
 14 15  1  0  0  0  0
 15 16  1  0  0  0  0
 17 15  2  0  0  0  0
 17 20  1  0  0  0  0
 18 13  1  0  0  0  0
 21 22  1  0  0  0  0
 22 27  1  0  0  0  0
 22 23  2  0  0  0  0
 23 28  1  0  0  0  0
 24 23  1  0  0  0  0
 25 24  2  0  0  0  0
 26 21  2  0  0  0  0
 26 25  1  0  0  0  0
 28 29  2  0  0  0  0
 28 36  1  0  0  0  0
 29 31  1  0  0  0  0
 30 29  1  0  0  0  0
 31 32  2  0  0  0  0
 32 33  1  0  0  0  0
 34 32  1  0  0  0  0
 34 35  1  0  0  0  0
 36 34  2  0  0  0  0
 37 38  1  0  0  0  0
 37 21  1  0  0  0  0
 39 37  1  0  0  0  0
M  END
>  <minimizedAffinity>
-6.65193367

$$$$

 OpenBabel03262523173D

 39 42  0  0  0  0  0  0  0  0999 V2000
   36.9940   27.3890   32.6000 C   0  0  0  0  0  0  0  0  0  0  0  0
   37.0970   27.7640   31.2730 C   0  0  0  0  0  0  0  0  0  0  0  0
   36.5430   28.9960   30.9930 C   0  0  0  0  0  0  0  0  0  0  0  0
   35.9460   29.7760   31.9490 C   0  0  0  0  0  0  0  0  0  0  0  0
   35.8880   29.3270   33.2400 C   0  0  0  0  0  0  0  0  0  0  0  0
   36.4170   28.1300   33.5500 N   0  0  0  0  0  0  0  0  0  0  0  0
   37.5730   27.1440   30.5120 H   0  0  0  0  0  0  0  0  0  0  0  0
   36.6040   29.3290   29.9490 H   0  0  0  0  0  0  0  0  0  0  0  0
   35.5600   30.7080   31.6120 H   0  0  0  0  0  0  0  0  0  0  0  0
   32.8690   29.2420   33.3730 Cl  0  0  0  0  0  0  0  0  0  0  0  0
   33.8990   30.1460   34.4390 C   0  0  0  0  0  0  0  0  0  0  0  0
   35.2630   30.1110   34.2850 C   0  0  0  0  0  0  0  0  0  0  0  0
   35.9560   30.8790   35.2100 C   0  0  0  0  0  0  0  0  0  0  0  0
   35.3830   31.6200   36.2010 C   0  0  0  0  0  0  0  0  0  0  0  0
   34.0090   31.6260   36.3190 C   0  0  0  0  0  0  0  0  0  0  0  0
   33.2160   32.5600   37.5720 Cl  0  0  0  0  0  0  0  0  0  0  0  0
   33.2750   30.8850   35.4320 C   0  0  0  0  0  0  0  0  0  0  0  0
   37.0450   30.8940   35.1410 H   0  0  0  0  0  0  0  0  0  0  0  0
   36.0080   32.1890   36.8760 H   0  0  0  0  0  0  0  0  0  0  0  0
   32.1970   30.9080   35.5460 H   0  0  0  0  0  0  0  0  0  0  0  0
   39.1830   24.8580   34.1210 C   0  0  0  0  0  0  0  0  0  0  0  0
   38.5710   23.6580   33.7600 C   0  0  0  0  0  0  0  0  0  0  0  0
   37.4190   23.7300   33.0010 C   0  0  0  0  0  0  0  0  0  0  0  0
   36.9620   24.9490   32.6610 N   0  0  0  0  0  0  0  0  0  0  0  0
   37.5560   26.0970   33.0110 C   0  0  0  0  0  0  0  0  0  0  0  0
   38.6830   26.0360   33.7530 N   0  0  0  0  0  0  0  0  0  0  0  0
   38.9880   22.7350   34.0650 H   0  0  0  0  0  0  0  0  0  0  0  0
   36.6970   22.5470   32.5680 C   0  0  0  0  0  0  0  0  0  0  0  0
   36.6050   21.4940   33.4690 C   0  0  0  0  0  0  0  0  0  0  0  0
   37.0250   21.4800   34.4660 H   0  0  0  0  0  0  0  0  0  0  0  0
   35.9320   20.3430   33.1180 C   0  0  0  0  0  3  0  0  0  0  0  0
   35.3400   20.2070   31.8780 C   0  0  0  0  0  0  0  0  0  0  0  0
   34.8180   19.2940   31.6280 H   0  0  0  0  0  0  0  0  0  0  0  0
   35.4460   21.2710   30.9990 C   0  0  0  0  0  0  0  0  0  0  0  0
   34.9690   21.1200   30.0450 H   0  0  0  0  0  0  0  0  0  0  0  0
   36.1140   22.4150   31.3450 C   0  0  0  0  0  3  0  0  0  0  0  0
   40.3920   24.8990   34.9120 N   0  0  0  0  0  0  0  0  0  0  0  0
   40.2690   24.5750   35.9060 H   0  0  0  0  0  0  0  0  0  0  0  0
   41.2490   25.2380   34.4330 H   0  0  0  0  0  0  0  0  0  0  0  0
  1 25  1  0  0  0  0
  1  6  1  0  0  0  0
  2  1  2  0  0  0  0
  3  2  1  0  0  0  0
  3  4  2  0  0  0  0
  4  5  1  0  0  0  0
  5  6  2  0  0  0  0
  5 12  1  0  0  0  0
  7  2  1  0  0  0  0
  8  3  1  0  0  0  0
  9  4  1  0  0  0  0
 10 11  1  0  0  0  0
 11 17  1  0  0  0  0
 12 11  2  0  0  0  0
 12 13  1  0  0  0  0
 13 14  2  0  0  0  0
 14 15  1  0  0  0  0
 14 19  1  0  0  0  0
 15 16  1  0  0  0  0
 17 20  1  0  0  0  0
 17 15  2  0  0  0  0
 18 13  1  0  0  0  0
 21 37  1  0  0  0  0
 22 27  1  0  0  0  0
 22 21  1  0  0  0  0
 23 22  2  0  0  0  0
 24 23  1  0  0  0  0
 24 25  2  0  0  0  0
 25 26  1  0  0  0  0
 26 21  2  0  0  0  0
 28 23  1  0  0  0  0
 28 29  1  0  0  0  0
 29 30  1  0  0  0  0
 31 29  2  0  0  0  0
 32 31  1  0  0  0  0
 33 32  1  0  0  0  0
 34 36  1  0  0  0  0
 34 32  2  0  0  0  0
 35 34  1  0  0  0  0
 36 28  2  0  0  0  0
 37 38  1  0  0  0  0
 39 37  1  0  0  0  0
M  END
>  <minimizedAffinity>
-6.63433743

$$$$

 OpenBabel03262523173D

 39 42  0  0  0  0  0  0  0  0999 V2000
   37.2870   26.6110   33.8990 C   0  0  0  0  0  0  0  0  0  0  0  0
   37.9520   26.5900   35.1110 C   0  0  0  0  0  0  0  0  0  0  0  0
   38.5220   25.3720   35.4180 C   0  0  0  0  0  0  0  0  0  0  0  0
   38.4370   24.2820   34.5900 C   0  0  0  0  0  0  0  0  0  0  0  0
   37.7580   24.3920   33.4070 C   0  0  0  0  0  0  0  0  0  0  0  0
   37.1880   25.5640   33.0750 N   0  0  0  0  0  0  0  0  0  0  0  0
   38.0220   27.4570   35.7690 H   0  0  0  0  0  0  0  0  0  0  0  0
   39.0600   25.3150   36.3730 H   0  0  0  0  0  0  0  0  0  0  0  0
   38.9210   23.4000   34.9320 H   0  0  0  0  0  0  0  0  0  0  0  0
   39.8770   24.1400   31.2660 Cl  0  0  0  0  0  0  0  0  0  0  0  0
   38.5400   23.0560   31.4910 C   0  0  0  0  0  0  0  0  0  0  0  0
   37.6340   23.2690   32.5010 C   0  0  0  0  0  0  0  0  0  0  0  0
   36.6210   22.3210   32.5610 C   0  0  0  0  0  0  0  0  0  0  0  0
   36.4920   21.2570   31.7180 C   0  0  0  0  0  0  0  0  0  0  0  0
   37.4260   21.0820   30.7180 C   0  0  0  0  0  0  0  0  0  0  0  0
   37.3110   19.7330   29.6040 Cl  0  0  0  0  0  0  0  0  0  0  0  0
   38.4460   21.9880   30.6130 C   0  0  0  0  0  0  0  0  0  0  0  0
   35.8680   22.4340   33.3420 H   0  0  0  0  0  0  0  0  0  0  0  0
   35.6660   20.5700   31.8430 H   0  0  0  0  0  0  0  0  0  0  0  0
   39.1660   21.8270   29.8180 H   0  0  0  0  0  0  0  0  0  0  0  0
   35.9970   29.3280   31.7850 C   0  0  0  0  0  0  0  0  0  0  0  0
   35.4360   30.2050   32.7120 C   0  0  0  0  0  0  0  0  0  0  0  0
   35.5060   29.8570   34.0470 C   0  0  0  0  0  0  0  0  0  0  0  0
   36.1090   28.6970   34.3670 N   0  0  0  0  0  0  0  0  0  0  0  0
   36.6460   27.8600   33.4700 C   0  0  0  0  0  0  0  0  0  0  0  0
   36.5820   28.1920   32.1630 N   0  0  0  0  0  0  0  0  0  0  0  0
   34.9770   31.1020   32.3870 H   0  0  0  0  0  0  0  0  0  0  0  0
   34.9550   30.6920   35.0990 C   0  0  0  0  0  0  0  0  0  0  0  0
   33.6020   30.5530   35.3780 C   0  0  0  0  0  0  0  0  0  0  0  0
   32.9240   29.8750   34.8780 H   0  0  0  0  0  0  0  0  0  0  0  0
   33.0200   31.3180   36.3670 C   0  0  0  0  0  3  0  0  0  0  0  0
   33.7540   32.2310   37.0960 C   0  0  0  0  0  0  0  0  0  0  0  0
   33.2740   32.8170   37.8660 H   0  0  0  0  0  0  0  0  0  0  0  0
   35.1010   32.3510   36.7990 C   0  0  0  0  0  0  0  0  0  0  0  0
   35.6340   33.0740   37.3920 H   0  0  0  0  0  0  0  0  0  0  0  0
   35.6820   31.5920   35.8170 C   0  0  0  0  0  3  0  0  0  0  0  0
   35.9810   29.5940   30.3640 N   0  0  0  0  0  0  0  0  0  0  0  0
   35.0240   29.5600   29.9300 H   0  0  0  0  0  0  0  0  0  0  0  0
   36.9000   29.7880   29.9180 H   0  0  0  0  0  0  0  0  0  0  0  0
  1  2  1  0  0  0  0
  2  3  2  0  0  0  0
  2  7  1  0  0  0  0
  3  8  1  0  0  0  0
  4  9  1  0  0  0  0
  4  3  1  0  0  0  0
  5  4  2  0  0  0  0
  6  5  1  0  0  0  0
  6  1  2  0  0  0  0
 10 11  1  0  0  0  0
 11 12  1  0  0  0  0
 12 13  2  0  0  0  0
 12  5  1  0  0  0  0
 13 18  1  0  0  0  0
 14 19  1  0  0  0  0
 14 13  1  0  0  0  0
 15 14  2  0  0  0  0
 16 15  1  0  0  0  0
 17 15  1  0  0  0  0
 17 11  2  0  0  0  0
 20 17  1  0  0  0  0
 21 26  2  0  0  0  0
 21 22  1  0  0  0  0
 22 23  2  0  0  0  0
 23 24  1  0  0  0  0
 23 28  1  0  0  0  0
 25  1  1  0  0  0  0
 25 24  2  0  0  0  0
 26 25  1  0  0  0  0
 27 22  1  0  0  0  0
 28 29  2  0  0  0  0
 28 36  1  0  0  0  0
 29 31  1  0  0  0  0
 30 29  1  0  0  0  0
 31 32  2  0  0  0  0
 32 33  1  0  0  0  0
 34 32  1  0  0  0  0
 34 35  1  0  0  0  0
 36 34  2  0  0  0  0
 37 21  1  0  0  0  0
 38 37  1  0  0  0  0
 39 37  1  0  0  0  0
M  END
>  <minimizedAffinity>
-6.62079239

$$$$

 OpenBabel03262523173D

 39 42  0  0  0  0  0  0  0  0999 V2000
   37.8640   26.9200   32.4890 C   0  0  0  0  0  0  0  0  0  0  0  0
   39.2150   26.9950   32.7730 C   0  0  0  0  0  0  0  0  0  0  0  0
   39.8270   25.7680   32.9240 C   0  0  0  0  0  0  0  0  0  0  0  0
   39.1520   24.5810   32.7990 C   0  0  0  0  0  0  0  0  0  0  0  0
   37.8130   24.5990   32.5160 C   0  0  0  0  0  0  0  0  0  0  0  0
   37.1840   25.7770   32.3630 N   0  0  0  0  0  0  0  0  0  0  0  0
   39.7540   27.9390   32.8710 H   0  0  0  0  0  0  0  0  0  0  0  0
   40.9010   25.7860   33.1510 H   0  0  0  0  0  0  0  0  0  0  0  0
   39.7330   23.7010   32.9320 H   0  0  0  0  0  0  0  0  0  0  0  0
   37.9360   22.6670   34.8380 Cl  0  0  0  0  0  0  0  0  0  0  0  0
   37.0370   22.4250   33.3720 C   0  0  0  0  0  0  0  0  0  0  0  0
   37.0540   23.3740   32.3800 C   0  0  0  0  0  0  0  0  0  0  0  0
   36.2870   23.0440   31.2700 C   0  0  0  0  0  0  0  0  0  0  0  0
   35.5650   21.8970   31.1290 C   0  0  0  0  0  0  0  0  0  0  0  0
   35.5760   20.9710   32.1510 C   0  0  0  0  0  0  0  0  0  0  0  0
   34.6680   19.4780   32.0250 Cl  0  0  0  0  0  0  0  0  0  0  0  0
   36.3160   21.2450   33.2700 C   0  0  0  0  0  0  0  0  0  0  0  0
   36.2600   23.7580   30.4450 H   0  0  0  0  0  0  0  0  0  0  0  0
   34.9970   21.7290   30.2230 H   0  0  0  0  0  0  0  0  0  0  0  0
   36.3090   20.5010   34.0580 H   0  0  0  0  0  0  0  0  0  0  0  0
   36.3970   29.9170   30.9460 C   0  0  0  0  0  0  0  0  0  0  0  0
   35.6960   30.4990   32.0010 C   0  0  0  0  0  0  0  0  0  0  0  0
   35.7340   29.8610   33.2250 C   0  0  0  0  0  0  0  0  0  0  0  0
   36.4430   28.7210   33.3210 N   0  0  0  0  0  0  0  0  0  0  0  0
   37.1140   28.1680   32.3030 C   0  0  0  0  0  0  0  0  0  0  0  0
   37.0830   28.7850   31.1030 N   0  0  0  0  0  0  0  0  0  0  0  0
   35.1600   31.3990   31.8510 H   0  0  0  0  0  0  0  0  0  0  0  0
   35.0420   30.3750   34.3920 C   0  0  0  0  0  0  0  0  0  0  0  0
   35.7750   31.1640   35.2690 C   0  0  0  0  0  0  0  0  0  0  0  0
   36.8180   31.4280   35.1560 H   0  0  0  0  0  0  0  0  0  0  0  0
   35.1740   31.6830   36.3970 C   0  0  0  0  0  3  0  0  0  0  0  0
   33.8460   31.4360   36.6820 C   0  0  0  0  0  0  0  0  0  0  0  0
   33.3990   31.8550   37.5720 H   0  0  0  0  0  0  0  0  0  0  0  0
   33.1370   30.6470   35.7930 C   0  0  0  0  0  0  0  0  0  0  0  0
   32.1060   30.4810   36.0550 H   0  0  0  0  0  0  0  0  0  0  0  0
   33.7320   30.1300   34.6720 C   0  0  0  0  0  3  0  0  0  0  0  0
   36.4270   30.5000   29.6240 N   0  0  0  0  0  0  0  0  0  0  0  0
   35.5030   30.4780   29.1210 H   0  0  0  0  0  0  0  0  0  0  0  0
   37.3400   30.8780   29.3030 H   0  0  0  0  0  0  0  0  0  0  0  0
  1  2  1  0  0  0  0
  2  7  1  0  0  0  0
  2  3  2  0  0  0  0
  3  8  1  0  0  0  0
  4  3  1  0  0  0  0
  4  9  1  0  0  0  0
  5  4  2  0  0  0  0
  6  1  2  0  0  0  0
  6  5  1  0  0  0  0
 11 10  1  0  0  0  0
 12  5  1  0  0  0  0
 12 11  2  0  0  0  0
 13 12  1  0  0  0  0
 14 13  2  0  0  0  0
 14 15  1  0  0  0  0
 15 17  2  0  0  0  0
 16 15  1  0  0  0  0
 17 11  1  0  0  0  0
 17 20  1  0  0  0  0
 18 13  1  0  0  0  0
 19 14  1  0  0  0  0
 21 26  2  0  0  0  0
 21 22  1  0  0  0  0
 22 23  2  0  0  0  0
 23 24  1  0  0  0  0
 23 28  1  0  0  0  0
 25  1  1  0  0  0  0
 25 24  2  0  0  0  0
 26 25  1  0  0  0  0
 27 22  1  0  0  0  0
 28 36  2  0  0  0  0
 28 29  1  0  0  0  0
 29 31  2  0  0  0  0
 30 29  1  0  0  0  0
 31 32  1  0  0  0  0
 32 33  1  0  0  0  0
 34 35  1  0  0  0  0
 34 32  2  0  0  0  0
 36 34  1  0  0  0  0
 37 21  1  0  0  0  0
 38 37  1  0  0  0  0
 39 37  1  0  0  0  0
M  END
>  <minimizedAffinity>
-6.52650595

$$$$

 OpenBabel03262523173D

 39 42  0  0  0  0  0  0  0  0999 V2000
   37.5930   25.9430   32.0160 C   0  0  0  0  0  0  0  0  0  0  0  0
   38.3390   26.1720   30.8750 C   0  0  0  0  0  0  0  0  0  0  0  0
   38.1820   27.4360   30.3450 C   0  0  0  0  0  0  0  0  0  0  0  0
   37.3590   28.3790   30.9050 C   0  0  0  0  0  0  0  0  0  0  0  0
   36.6560   28.0670   32.0370 C   0  0  0  0  0  0  0  0  0  0  0  0
   36.7840   26.8440   32.5810 N   0  0  0  0  0  0  0  0  0  0  0  0
   38.9950   25.4230   30.4290 H   0  0  0  0  0  0  0  0  0  0  0  0
   38.7580   27.6560   29.4380 H   0  0  0  0  0  0  0  0  0  0  0  0
   37.3250   29.3180   30.4090 H   0  0  0  0  0  0  0  0  0  0  0  0
   36.9060   28.3850   35.0330 Cl  0  0  0  0  0  0  0  0  0  0  0  0
   35.7960   29.2520   34.0170 C   0  0  0  0  0  0  0  0  0  0  0  0
   35.7690   29.0250   32.6630 C   0  0  0  0  0  0  0  0  0  0  0  0
   34.8350   29.7920   31.9800 C   0  0  0  0  0  0  0  0  0  0  0  0
   33.9960   30.7000   32.5550 C   0  0  0  0  0  0  0  0  0  0  0  0
   34.0570   30.8960   33.9190 C   0  0  0  0  0  0  0  0  0  0  0  0
   33.0030   32.0500   34.7120 Cl  0  0  0  0  0  0  0  0  0  0  0  0
   34.9620   30.1660   34.6410 C   0  0  0  0  0  0  0  0  0  0  0  0
   34.7630   29.6590   30.8990 H   0  0  0  0  0  0  0  0  0  0  0  0
   33.2980   31.2520   31.9380 H   0  0  0  0  0  0  0  0  0  0  0  0
   34.9890   30.3380   35.7110 H   0  0  0  0  0  0  0  0  0  0  0  0
   37.5450   22.3100   32.5760 C   0  0  0  0  0  0  0  0  0  0  0  0
   37.8790   22.1980   33.9250 C   0  0  0  0  0  0  0  0  0  0  0  0
   38.1150   23.3640   34.6260 C   0  0  0  0  0  0  0  0  0  0  0  0
   38.0090   24.5320   33.9640 N   0  0  0  0  0  0  0  0  0  0  0  0
   37.6880   24.6310   32.6670 C   0  0  0  0  0  0  0  0  0  0  0  0
   37.4550   23.4960   31.9750 N   0  0  0  0  0  0  0  0  0  0  0  0
   37.9430   21.2440   34.3800 H   0  0  0  0  0  0  0  0  0  0  0  0
   38.4700   23.3680   36.0330 C   0  0  0  0  0  0  0  0  0  0  0  0
   37.6420   24.0770   36.8950 C   0  0  0  0  0  0  0  0  0  0  0  0
   36.7560   24.6260   36.6060 H   0  0  0  0  0  0  0  0  0  0  0  0
   37.9250   24.1190   38.2440 C   0  0  0  0  0  3  0  0  0  0  0  0
   39.0230   23.4680   38.7680 C   0  0  0  0  0  0  0  0  0  0  0  0
   39.2220   23.5160   39.8290 H   0  0  0  0  0  0  0  0  0  0  0  0
   39.8320   22.7680   37.8890 C   0  0  0  0  0  0  0  0  0  0  0  0
   40.6760   22.2760   38.3420 H   0  0  0  0  0  0  0  0  0  0  0  0
   39.5530   22.7250   36.5480 C   0  0  0  0  0  3  0  0  0  0  0  0
   37.2760   21.1550   31.7490 N   0  0  0  0  0  0  0  0  0  0  0  0
   38.1170   20.5490   31.5690 H   0  0  0  0  0  0  0  0  0  0  0  0
   36.2980   21.0380   31.4180 H   0  0  0  0  0  0  0  0  0  0  0  0
  1  6  1  0  0  0  0
  1 25  1  0  0  0  0
  2  1  2  0  0  0  0
  3  2  1  0  0  0  0
  3  4  2  0  0  0  0
  4  5  1  0  0  0  0
  5  6  2  0  0  0  0
  5 12  1  0  0  0  0
  7  2  1  0  0  0  0
  8  3  1  0  0  0  0
  9  4  1  0  0  0  0
 11 17  1  0  0  0  0
 11 10  1  0  0  0  0
 12 11  2  0  0  0  0
 13 14  2  0  0  0  0
 13 12  1  0  0  0  0
 14 15  1  0  0  0  0
 15 17  2  0  0  0  0
 15 16  1  0  0  0  0
 17 20  1  0  0  0  0
 18 13  1  0  0  0  0
 19 14  1  0  0  0  0
 21 22  1  0  0  0  0
 22 27  1  0  0  0  0
 22 23  2  0  0  0  0
 23 28  1  0  0  0  0
 24 23  1  0  0  0  0
 25 24  2  0  0  0  0
 26 21  2  0  0  0  0
 26 25  1  0  0  0  0
 28 36  2  0  0  0  0
 28 29  1  0  0  0  0
 29 31  2  0  0  0  0
 30 29  1  0  0  0  0
 31 32  1  0  0  0  0
 32 33  1  0  0  0  0
 34 35  1  0  0  0  0
 34 32  2  0  0  0  0
 36 34  1  0  0  0  0
 37 21  1  0  0  0  0
 38 37  1  0  0  0  0
 39 37  1  0  0  0  0
M  END
>  <minimizedAffinity>
-6.46839333

$$$$

 OpenBabel03262523173D

 39 42  0  0  0  0  0  0  0  0999 V2000
   36.9570   27.2500   32.8530 C   0  0  0  0  0  0  0  0  0  0  0  0
   36.2390   27.8960   33.8430 C   0  0  0  0  0  0  0  0  0  0  0  0
   35.8700   29.1850   33.5180 C   0  0  0  0  0  0  0  0  0  0  0  0
   36.1890   29.7690   32.3190 C   0  0  0  0  0  0  0  0  0  0  0  0
   36.9040   29.0560   31.3960 C   0  0  0  0  0  0  0  0  0  0  0  0
   37.2800   27.7970   31.6780 N   0  0  0  0  0  0  0  0  0  0  0  0
   35.9840   27.4310   34.7960 H   0  0  0  0  0  0  0  0  0  0  0  0
   35.2990   29.7320   34.2790 H   0  0  0  0  0  0  0  0  0  0  0  0
   35.8450   30.7660   32.1830 H   0  0  0  0  0  0  0  0  0  0  0  0
   38.7620   27.4200   29.6610 Cl  0  0  0  0  0  0  0  0  0  0  0  0
   38.1070   28.9750   29.2490 C   0  0  0  0  0  0  0  0  0  0  0  0
   37.2700   29.6300   30.1180 C   0  0  0  0  0  0  0  0  0  0  0  0
   36.8230   30.8600   29.6530 C   0  0  0  0  0  0  0  0  0  0  0  0
   37.1560   31.4120   28.4520 C   0  0  0  0  0  0  0  0  0  0  0  0
   38.0000   30.7190   27.6100 C   0  0  0  0  0  0  0  0  0  0  0  0
   38.4630   31.3790   26.0540 Cl  0  0  0  0  0  0  0  0  0  0  0  0
   38.4710   29.5000   28.0190 C   0  0  0  0  0  0  0  0  0  0  0  0
   36.1530   31.4310   30.2980 H   0  0  0  0  0  0  0  0  0  0  0  0
   36.7570   32.3790   28.1770 H   0  0  0  0  0  0  0  0  0  0  0  0
   39.1330   28.9760   27.3390 H   0  0  0  0  0  0  0  0  0  0  0  0
   37.8640   23.7300   32.3040 C   0  0  0  0  0  0  0  0  0  0  0  0
   38.2260   23.2990   33.5800 C   0  0  0  0  0  0  0  0  0  0  0  0
   38.1550   24.2150   34.6100 C   0  0  0  0  0  0  0  0  0  0  0  0
   37.7430   25.4630   34.3190 N   0  0  0  0  0  0  0  0  0  0  0  0
   37.3970   25.8700   33.0910 C   0  0  0  0  0  0  0  0  0  0  0  0
   37.4630   24.9800   32.0770 N   0  0  0  0  0  0  0  0  0  0  0  0
   38.5410   22.3000   33.7340 H   0  0  0  0  0  0  0  0  0  0  0  0
   38.5080   23.8780   35.9770 C   0  0  0  0  0  0  0  0  0  0  0  0
   37.7140   24.4060   36.9870 C   0  0  0  0  0  0  0  0  0  0  0  0
   36.8550   25.0480   36.8400 H   0  0  0  0  0  0  0  0  0  0  0  0
   37.9970   24.1230   38.3060 C   0  0  0  0  0  3  0  0  0  0  0  0
   39.0630   23.3180   38.6560 C   0  0  0  0  0  0  0  0  0  0  0  0
   39.2630   23.1110   39.6980 H   0  0  0  0  0  0  0  0  0  0  0  0
   39.8380   22.8040   37.6310 C   0  0  0  0  0  0  0  0  0  0  0  0
   40.6580   22.1820   37.9510 H   0  0  0  0  0  0  0  0  0  0  0  0
   39.5600   23.0840   36.3200 C   0  0  0  0  0  3  0  0  0  0  0  0
   37.8990   22.8540   31.1550 N   0  0  0  0  0  0  0  0  0  0  0  0
   38.8670   22.5630   30.8630 H   0  0  0  0  0  0  0  0  0  0  0  0
   36.9820   22.6020   30.7350 H   0  0  0  0  0  0  0  0  0  0  0  0
  1 25  1  0  0  0  0
  1  2  1  0  0  0  0
  2  7  1  0  0  0  0
  3  2  2  0  0  0  0
  3  8  1  0  0  0  0
  4  3  1  0  0  0  0
  5  6  1  0  0  0  0
  5  4  2  0  0  0  0
  6  1  2  0  0  0  0
  9  4  1  0  0  0  0
 11 10  1  0  0  0  0
 11 12  1  0  0  0  0
 12  5  1  0  0  0  0
 13 12  2  0  0  0  0
 13 18  1  0  0  0  0
 14 13  1  0  0  0  0
 15 17  1  0  0  0  0
 15 14  2  0  0  0  0
 16 15  1  0  0  0  0
 17 11  2  0  0  0  0
 19 14  1  0  0  0  0
 20 17  1  0  0  0  0
 21 22  1  0  0  0  0
 22 27  1  0  0  0  0
 22 23  2  0  0  0  0
 23 28  1  0  0  0  0
 24 23  1  0  0  0  0
 25 24  2  0  0  0  0
 26 21  2  0  0  0  0
 26 25  1  0  0  0  0
 28 36  2  0  0  0  0
 28 29  1  0  0  0  0
 29 31  2  0  0  0  0
 30 29  1  0  0  0  0
 31 32  1  0  0  0  0
 32 33  1  0  0  0  0
 34 35  1  0  0  0  0
 34 32  2  0  0  0  0
 36 34  1  0  0  0  0
 37 21  1  0  0  0  0
 38 37  1  0  0  0  0
 39 37  1  0  0  0  0
M  END
>  <minimizedAffinity>
-6.38316917

$$$$
