
 OpenBabel03272506093D

 44 47  0  0  0  0  0  0  0  0999 V2000
   34.1990   28.0330   48.9070 C   0  0  0  0  0  0  0  0  0  0  0  0
   35.0020   28.2520   48.1870 H   0  0  0  0  0  0  0  0  0  0  0  0
   34.3840   26.9670   49.2280 H   0  0  0  0  0  0  0  0  0  0  0  0
   32.8590   28.0910   48.2250 C   0  0  0  0  0  0  0  0  0  0  0  0
   32.7890   28.5820   46.8710 C   0  0  0  0  0  0  0  0  0  0  0  0
   31.0560   28.4500   46.5460 S   0  0  0  0  0  0  0  0  0  0  0  0
   30.6350   27.7600   48.2420 C   0  0  0  0  0  0  0  0  0  0  0  0
   31.7200   27.7370   48.7290 N   0  0  0  0  0  0  0  0  0  0  0  0
   29.3690   27.3550   48.8380 N   0  0  0  0  0  0  0  0  0  0  0  0
   28.3760   26.8840   47.9270 C   0  0  0  0  0  0  0  0  0  0  0  0
   26.9970   26.8330   48.4880 C   0  0  0  0  0  0  0  0  0  0  0  0
   26.8770   27.5000   49.7740 N   0  0  0  0  0  0  0  0  0  0  0  0
   27.8710   26.8610   50.6330 C   0  0  0  0  0  0  0  0  0  0  0  0
   29.2010   27.4500   50.2610 C   0  0  0  0  0  0  0  0  0  0  0  0
   33.5890   28.9210   46.2720 H   0  0  0  0  0  0  0  0  0  0  0  0
   28.3550   27.5840   47.0620 H   0  0  0  0  0  0  0  0  0  0  0  0
   28.6550   25.8850   47.4900 H   0  0  0  0  0  0  0  0  0  0  0  0
   26.2200   27.1510   47.7730 H   0  0  0  0  0  0  0  0  0  0  0  0
   26.7580   25.7570   48.7090 H   0  0  0  0  0  0  0  0  0  0  0  0
   27.1430   28.5110   49.6880 H   0  0  0  0  0  0  0  0  0  0  0  0
   27.6480   27.1220   51.6990 H   0  0  0  0  0  0  0  0  0  0  0  0
   27.8900   25.7690   50.5200 H   0  0  0  0  0  0  0  0  0  0  0  0
   29.2840   28.5050   50.5970 H   0  0  0  0  0  0  0  0  0  0  0  0
   29.9820   26.8440   50.8020 H   0  0  0  0  0  0  0  0  0  0  0  0
   34.2470   28.9070   50.0940 C   0  0  0  0  0  0  0  0  0  0  0  0
   33.9860   28.3690   51.0320 H   0  0  0  0  0  0  0  0  0  0  0  0
   33.5420   29.7670   50.0370 H   0  0  0  0  0  0  0  0  0  0  0  0
   37.4670   30.1300   51.4670 C   0  0  0  0  0  0  0  0  0  0  0  0
   38.0680   30.7270   50.3690 C   0  0  0  0  0  0  0  0  0  0  0  0
   37.3620   30.7050   49.1680 C   0  0  0  0  0  0  0  0  0  0  0  0
   36.1510   30.1150   49.1250 N   0  0  0  0  0  0  0  0  0  0  0  0
   35.6070   29.5410   50.2410 C   0  0  0  0  0  0  0  0  0  0  0  0
   36.2630   29.5530   51.3930 N   0  0  0  0  0  0  0  0  0  0  0  0
   38.0240   30.1520   52.4000 H   0  0  0  0  0  0  0  0  0  0  0  0
   39.0370   31.1940   50.4180 H   0  0  0  0  0  0  0  0  0  0  0  0
   37.8780   31.2930   47.9470 C   0  0  0  0  0  0  0  0  0  0  0  0
   37.2490   30.9600   46.7670 C   0  0  0  0  0  0  0  0  0  0  0  0
   36.4010   30.2970   46.6680 H   0  0  0  0  0  0  0  0  0  0  0  0
   37.7030   31.4980   45.5570 C   0  0  0  0  0  0  0  0  0  0  0  0
   38.7670   32.3600   45.4830 C   0  0  0  0  0  0  0  0  0  0  0  0
   39.1360   32.7870   44.5660 H   0  0  0  0  0  0  0  0  0  0  0  0
   39.4010   32.6940   46.6790 C   0  0  0  0  0  0  0  0  0  0  0  0
   40.2400   33.3660   46.6690 H   0  0  0  0  0  0  0  0  0  0  0  0
   38.9300   32.1470   47.8550 C   0  0  0  0  0  0  0  0  0  0  0  0
  1  3  1  0  0  0  0
  1 25  1  0  0  0  0
  2  1  1  0  0  0  0
  4  8  1  0  0  0  0
  4  1  1  0  0  0  0
  5  4  2  0  0  0  0
  6  5  1  0  0  0  0
  6  7  1  0  0  0  0
  7  8  2  0  0  0  0
  7  9  1  0  0  0  0
  9 14  1  0  0  0  0
 10 11  1  0  0  0  0
 10  9  1  0  0  0  0
 11 19  1  0  0  0  0
 11 12  1  0  0  0  0
 12 13  1  0  0  0  0
 13 21  1  0  0  0  0
 14 23  1  0  0  0  0
 14 13  1  0  0  0  0
 14 24  1  0  0  0  0
 15  5  1  0  0  0  0
 16 10  1  0  0  0  0
 17 10  1  0  0  0  0
 18 11  1  0  0  0  0
 20 12  1  0  0  0  0
 22 13  1  0  0  0  0
 25 32  1  0  0  0  0
 25 26  1  0  0  0  0
 27 25  1  0  0  0  0
 28 34  1  0  0  0  0
 29 35  1  0  0  0  0
 29 28  2  0  0  0  0
 30 29  1  0  0  0  0
 31 30  2  0  0  0  0
 31 32  1  0  0  0  0
 32 33  2  0  0  0  0
 33 28  1  0  0  0  0
 36 30  1  0  0  0  0
 37 36  2  0  0  0  0
 38 37  1  0  0  0  0
 39 37  1  0  0  0  0
 40 39  2  0  0  0  0
 40 42  1  0  0  0  0
 41 40  1  0  0  0  0
 42 44  2  0  0  0  0
 43 42  1  0  0  0  0
 44 36  1  0  0  0  0
M  END
>  <minimizedAffinity>
-7.61617422

>  <minimizedRMSD>
1.89353347

$$$$
