
 OpenBabel03272510333D

 28 30  0  0  0  0  0  0  0  0999 V2000
   35.8590   30.1060   47.2080 C   0  0  0  0  0  0  0  0  0  0  0  0
   35.4320   30.1660   45.9030 C   0  0  0  0  0  0  0  0  0  0  0  0
   34.4070   29.3370   45.4710 C   0  0  0  0  0  0  0  0  0  0  0  0
   33.8400   28.4640   46.3780 C   0  0  0  0  0  0  0  0  0  0  0  0
   34.2660   28.3990   47.6870 C   0  0  0  0  0  0  0  0  0  0  0  0
   35.2880   29.2280   48.1180 C   0  0  0  0  0  0  0  0  0  0  0  0
   35.8840   30.8580   45.1890 H   0  0  0  0  0  0  0  0  0  0  0  0
   34.0680   29.3810   44.4460 H   0  0  0  0  0  0  0  0  0  0  0  0
   33.0320   27.7860   46.1010 H   0  0  0  0  0  0  0  0  0  0  0  0
   33.8720   27.7410   48.4590 H   0  0  0  0  0  0  0  0  0  0  0  0
   37.6690   32.6980   49.0340 C   0  0  0  0  0  0  0  0  0  0  0  0
   38.8960   32.8000   48.3790 C   0  0  0  0  0  0  0  0  0  0  0  0
   39.0970   31.9450   47.2720 C   0  0  0  0  0  0  0  0  0  0  0  0
   38.1100   31.0860   46.9110 N   0  0  0  0  0  0  0  0  0  0  0  0
   36.9480   31.0220   47.5710 C   0  0  0  0  0  0  0  0  0  0  0  0
   36.7270   31.8350   48.6410 N   0  0  0  0  0  0  0  0  0  0  0  0
   37.4770   33.3390   49.8900 H   0  0  0  0  0  0  0  0  0  0  0  0
   39.6780   33.4890   48.6710 H   0  0  0  0  0  0  0  0  0  0  0  0
   40.0330   31.9810   46.7230 H   0  0  0  0  0  0  0  0  0  0  0  0
   35.8690   29.3010   49.4610 C   0  0  0  0  0  0  0  0  0  0  0  0
   37.2430   29.0870   49.5680 C   0  0  0  0  0  0  0  0  0  0  0  0
   37.9000   28.8720   48.7190 H   0  0  0  0  0  0  0  0  0  0  0  0
   37.8680   29.1410   50.8090 C   0  0  0  0  0  3  0  0  0  0  0  0
   37.0960   29.4120   51.9460 C   0  0  0  0  0  0  0  0  0  0  0  0
   37.6150   29.4470   52.8990 H   0  0  0  0  0  0  0  0  0  0  0  0
   35.7220   29.6210   51.8150 C   0  0  0  0  0  0  0  0  0  0  0  0
   35.1270   29.8330   52.7140 H   0  0  0  0  0  0  0  0  0  0  0  0
   35.1220   29.5660   50.5920 C   0  0  0  0  0  3  0  0  0  0  0  0
  1 15  1  0  0  0  0
  1  6  1  0  0  0  0
  2  1  2  0  0  0  0
  3  2  1  0  0  0  0
  3  4  2  0  0  0  0
  4  5  1  0  0  0  0
  5  6  2  0  0  0  0
  5 10  1  0  0  0  0
  6 20  1  0  0  0  0
  7  2  1  0  0  0  0
  8  3  1  0  0  0  0
  9  4  1  0  0  0  0
 11 17  1  0  0  0  0
 12 18  1  0  0  0  0
 12 11  2  0  0  0  0
 13 12  1  0  0  0  0
 14 13  2  0  0  0  0
 14 15  1  0  0  0  0
 15 16  2  0  0  0  0
 16 11  1  0  0  0  0
 19 13  1  0  0  0  0
 20 21  2  0  0  0  0
 20 28  1  0  0  0  0
 21 23  1  0  0  0  0
 22 21  1  0  0  0  0
 23 24  2  0  0  0  0
 24 25  1  0  0  0  0
 26 24  1  0  0  0  0
 26 27  1  0  0  0  0
 28 26  2  0  0  0  0
M  END
>  <minimizedAffinity>
-4.82679415

>  <minimizedRMSD>
1.60604215

$$$$
