
 OpenBabel03272507343D

 36 39  0  0  1  0  0  0  0  0999 V2000
   35.8620   29.1480   49.8050 C   0  0  0  0  0  0  0  0  0  0  0  0
   34.8100   29.6240   50.5590 C   0  0  0  0  0  0  0  0  0  0  0  0
   33.6380   29.0500   50.0480 C   0  0  0  0  0  0  0  0  0  0  0  0
   34.0550   28.2510   49.0060 C   0  0  0  0  0  0  0  0  0  0  0  0
   35.3630   28.3420   48.9020 O   0  0  0  0  0  0  0  0  0  0  0  0
   34.7570   30.3140   51.4100 H   0  0  0  0  0  0  0  0  0  0  0  0
   32.6080   29.1680   50.3620 H   0  0  0  0  0  0  0  0  0  0  0  0
   37.2340   29.5440   50.0650 C   0  0  0  0  0  0  0  0  0  0  0  0
   37.8640   28.9840   50.9770 O   0  0  0  0  0  0  0  0  0  0  0  0
   37.7860   30.5770   49.2360 C   0  0  0  0  0  0  0  0  0  0  0  0
   38.1210   31.7730   49.8530 C   0  0  0  0  0  0  0  0  0  0  0  0
   38.6590   32.7980   49.0710 C   0  0  0  0  0  0  0  0  0  0  0  0
   38.8270   32.5620   47.7240 N   0  0  0  0  0  0  0  0  0  0  0  0
   38.4930   31.3990   47.1620 C   0  0  0  0  0  0  0  0  0  0  0  0
   37.9750   30.4070   47.9050 N   0  0  0  0  0  0  0  0  0  0  0  0
   38.0100   32.0070   50.9020 H   0  0  0  0  0  0  0  0  0  0  0  0
   38.9350   33.7480   49.5060 H   0  0  0  0  0  0  0  0  0  0  0  0
   38.6440   31.2610   46.0970 H   0  0  0  0  0  0  0  0  0  0  0  0
   33.1940   27.4330   48.1580 C   0  0  0  0  0  0  0  0  0  0  0  0
   31.9440   27.3980   48.4170 O   0  0  0  0  0  0  0  0  0  0  0  0
   33.7680   26.6480   47.0140 C   0  0  1  0  0  0  0  0  0  0  0  0
   33.7680   25.1080   47.3750 C   0  0  0  0  0  0  0  0  0  0  0  0
   32.9490   25.6820   46.2830 C   0  0  2  0  0  0  0  0  0  0  0  0
   34.8030   26.9310   46.7240 H   0  0  0  0  0  0  0  0  0  0  0  0
   33.2710   24.8080   48.2910 H   0  0  0  0  0  0  0  0  0  0  0  0
   34.6400   24.5310   47.0450 H   0  0  0  0  0  0  0  0  0  0  0  0
   31.8580   25.7470   46.4780 H   0  0  0  0  0  0  0  0  0  0  0  0
   33.2990   25.4760   44.8540 C   0  0  0  0  0  0  0  0  0  0  0  0
   34.6390   25.3890   44.4880 C   0  0  0  0  0  0  0  0  0  0  0  0
   35.4600   25.4660   45.2140 H   0  0  0  0  0  0  0  0  0  0  0  0
   34.9930   25.1950   43.1480 C   0  0  0  0  0  0  0  0  0  0  0  0
   33.9640   25.0980   42.2320 C   0  0  0  0  0  0  0  0  0  0  0  0
   34.2220   24.9490   41.2030 H   0  0  0  0  0  0  0  0  0  0  0  0
   32.6220   25.1770   42.5390 C   0  0  0  0  0  0  0  0  0  0  0  0
   31.8470   25.0950   41.7920 H   0  0  0  0  0  0  0  0  0  0  0  0
   32.3160   25.3680   43.8760 C   0  0  0  0  0  0  0  0  0  0  0  0
  1  8  1  0  0  0  0
  1  2  2  0  0  0  0
  2  6  1  0  0  0  0
  3  7  1  0  0  0  0
  3  2  1  0  0  0  0
  4  3  2  0  0  0  0
  5  4  1  0  0  0  0
  5  1  1  0  0  0  0
  8  9  2  0  0  0  0
 10 11  1  0  0  0  0
 10  8  1  0  0  0  0
 11 16  1  0  0  0  0
 12 17  1  0  0  0  0
 12 11  2  0  0  0  0
 13 12  1  0  0  0  0
 14 13  2  0  0  0  0
 14 15  1  0  0  0  0
 15 10  2  0  0  0  0
 18 14  1  0  0  0  0
 19 20  2  0  0  0  0
 19  4  1  0  0  0  0
 21 24  1  6  0  0  0
 21 22  1  0  0  0  0
 21 19  1  0  0  0  0
 22 25  1  0  0  0  0
 23 27  1  1  0  0  0
 23 21  1  0  0  0  0
 23 22  1  0  0  0  0
 26 22  1  0  0  0  0
 28 23  1  0  0  0  0
 29 28  1  0  0  0  0
 29 30  1  0  0  0  0
 31 29  2  0  0  0  0
 32 34  2  0  0  0  0
 32 31  1  0  0  0  0
 33 32  1  0  0  0  0
 34 36  1  0  0  0  0
 35 34  1  0  0  0  0
 36 28  2  0  0  0  0
M  END
>  <minimizedAffinity>
-4.9831028

>  <minimizedRMSD>
0.334183127

$$$$
