
 OpenBabel03272501333D

 27 29  0  0  1  0  0  0  0  0999 V2000
   39.9140   25.1670   33.9580 C   0  0  2  0  0  0  0  0  0  0  0  0
   40.3150   26.3260   34.9500 C   0  0  0  0  0  0  0  0  0  0  0  0
   39.7740   26.5620   33.5650 C   0  0  2  0  0  0  0  0  0  0  0  0
   40.8430   24.5530   33.8820 H   0  0  0  0  0  0  0  0  0  0  0  0
   41.3970   26.5740   35.0150 H   0  0  0  0  0  0  0  0  0  0  0  0
   39.7220   26.4570   35.8450 H   0  0  0  0  0  0  0  0  0  0  0  0
   40.4570   26.9430   32.7470 H   0  0  0  0  0  0  0  0  0  0  0  0
   38.4430   27.2160   33.5500 C   0  0  0  0  0  0  0  0  0  0  0  0
   37.9320   27.5250   32.2900 C   0  0  0  0  0  0  0  0  0  0  0  0
   38.4870   27.2810   31.3750 H   0  0  0  0  0  0  0  0  0  0  0  0
   36.7160   28.1480   32.0470 C   0  0  0  0  0  3  0  0  0  0  0  0
   35.9420   28.4950   33.1240 C   0  0  0  0  0  0  0  0  0  0  0  0
   34.9800   28.9820   33.0630 H   0  0  0  0  0  0  0  0  0  0  0  0
   36.4160   28.2040   34.3850 C   0  0  0  0  0  0  0  0  0  0  0  0
   35.8380   28.4600   35.2800 H   0  0  0  0  0  0  0  0  0  0  0  0
   37.6280   27.5860   34.5950 C   0  0  0  0  0  3  0  0  0  0  0  0
   38.7940   24.3790   34.5380 C   0  0  0  0  0  0  0  0  0  0  0  0
   37.8230   24.0910   33.7570 O   0  0  0  0  0  0  0  0  0  0  0  0
   37.9500   24.1370   38.1700 C   0  0  0  0  0  0  0  0  0  0  0  0
   37.8970   24.4870   36.8270 C   0  0  0  0  0  0  0  0  0  0  0  0
   38.8380   23.9840   35.9240 C   0  0  0  0  0  0  0  0  0  0  0  0
   39.7740   23.1660   36.4050 N   0  0  0  0  0  0  0  0  0  0  0  0
   39.8040   22.8370   37.7310 C   0  0  0  0  0  0  0  0  0  0  0  0
   38.9230   23.3040   38.5970 N   0  0  0  0  0  0  0  0  0  0  0  0
   37.1690   24.5910   38.7630 H   0  0  0  0  0  0  0  0  0  0  0  0
   37.1460   25.1470   36.4240 H   0  0  0  0  0  0  0  0  0  0  0  0
   40.6120   22.1650   37.9910 H   0  0  0  0  0  0  0  0  0  0  0  0
  1  4  1  6  0  0  0
  1 17  1  0  0  0  0
  1  2  1  0  0  0  0
  2  5  1  0  0  0  0
  2  6  1  0  0  0  0
  3  7  1  6  0  0  0
  3  1  1  0  0  0  0
  3  2  1  0  0  0  0
  8  3  1  0  0  0  0
  8 16  1  0  0  0  0
  9  8  2  0  0  0  0
 10  9  1  0  0  0  0
 11  9  1  0  0  0  0
 11 12  2  0  0  0  0
 12 14  1  0  0  0  0
 13 12  1  0  0  0  0
 14 16  2  0  0  0  0
 14 15  1  0  0  0  0
 17 21  1  0  0  0  0
 18 17  2  0  0  0  0
 19 24  1  0  0  0  0
 19 25  1  0  0  0  0
 20 19  2  0  0  0  0
 21 22  2  0  0  0  0
 21 20  1  0  0  0  0
 22 23  1  0  0  0  0
 23 27  1  0  0  0  0
 23 24  2  0  0  0  0
 26 20  1  0  0  0  0
M  END
>  <minimizedAffinity>
-4.84701967

$$$$

 OpenBabel03272501333D

 27 29  0  0  1  0  0  0  0  0999 V2000
   38.2880   25.6770   36.0990 C   0  0  2  0  0  0  0  0  0  0  0  0
   37.3040   26.4680   35.1540 C   0  0  0  0  0  0  0  0  0  0  0  0
   38.6730   26.9630   35.5350 C   0  0  2  0  0  0  0  0  0  0  0  0
   37.6900   25.5190   37.0280 H   0  0  0  0  0  0  0  0  0  0  0  0
   36.5020   27.0570   35.6510 H   0  0  0  0  0  0  0  0  0  0  0  0
   37.0790   26.0440   34.1850 H   0  0  0  0  0  0  0  0  0  0  0  0
   38.7820   27.8320   36.2510 H   0  0  0  0  0  0  0  0  0  0  0  0
   39.6180   27.0390   34.3940 C   0  0  0  0  0  0  0  0  0  0  0  0
   39.0380   27.0900   33.1280 C   0  0  0  0  0  0  0  0  0  0  0  0
   37.9480   27.0860   32.9990 H   0  0  0  0  0  0  0  0  0  0  0  0
   39.7330   27.1510   31.9280 C   0  0  0  0  0  3  0  0  0  0  0  0
   41.1030   27.1620   31.9760 C   0  0  0  0  0  0  0  0  0  0  0  0
   41.7520   27.2080   31.1140 H   0  0  0  0  0  0  0  0  0  0  0  0
   41.7100   27.1130   33.2120 C   0  0  0  0  0  0  0  0  0  0  0  0
   42.8020   27.1190   33.3070 H   0  0  0  0  0  0  0  0  0  0  0  0
   40.9930   27.0520   34.3860 C   0  0  0  0  0  3  0  0  0  0  0  0
   38.6530   24.3810   35.4670 C   0  0  0  0  0  0  0  0  0  0  0  0
   37.9430   24.0010   34.4740 O   0  0  0  0  0  0  0  0  0  0  0  0
   42.0400   22.8330   35.7740 C   0  0  0  0  0  0  0  0  0  0  0  0
   40.9780   23.5920   35.3000 C   0  0  0  0  0  0  0  0  0  0  0  0
   39.7600   23.6170   35.9860 C   0  0  0  0  0  0  0  0  0  0  0  0
   39.6680   22.8890   37.0990 N   0  0  0  0  0  0  0  0  0  0  0  0
   40.7280   22.1510   37.5450 C   0  0  0  0  0  0  0  0  0  0  0  0
   41.8850   22.1170   36.9080 N   0  0  0  0  0  0  0  0  0  0  0  0
   42.9240   22.8970   35.1560 H   0  0  0  0  0  0  0  0  0  0  0  0
   41.0380   24.1850   34.4020 H   0  0  0  0  0  0  0  0  0  0  0  0
   40.5230   21.6080   38.4590 H   0  0  0  0  0  0  0  0  0  0  0  0
  1  4  1  1  0  0  0
  2  3  1  0  0  0  0
  2  5  1  0  0  0  0
  2  1  1  0  0  0  0
  3  1  1  0  0  0  0
  3  7  1  1  0  0  0
  6  2  1  0  0  0  0
  8  3  1  0  0  0  0
  9  8  2  0  0  0  0
 10  9  1  0  0  0  0
 11 12  2  0  0  0  0
 11  9  1  0  0  0  0
 12 14  1  0  0  0  0
 13 12  1  0  0  0  0
 14 15  1  0  0  0  0
 14 16  2  0  0  0  0
 16  8  1  0  0  0  0
 17 21  1  0  0  0  0
 17  1  1  0  0  0  0
 18 17  2  0  0  0  0
 19 24  1  0  0  0  0
 20 19  2  0  0  0  0
 20 21  1  0  0  0  0
 21 22  2  0  0  0  0
 22 23  1  0  0  0  0
 23 27  1  0  0  0  0
 24 23  2  0  0  0  0
 25 19  1  0  0  0  0
 26 20  1  0  0  0  0
M  END
>  <minimizedAffinity>
-4.65634966

$$$$

 OpenBabel03272501333D

 27 29  0  0  1  0  0  0  0  0999 V2000
   39.3760   24.8100   33.5620 C   0  0  2  0  0  0  0  0  0  0  0  0
   37.9500   24.1370   33.5200 C   0  0  0  0  0  0  0  0  0  0  0  0
   39.1070   23.5920   34.3120 C   0  0  2  0  0  0  0  0  0  0  0  0
   39.6710   24.8690   32.4870 H   0  0  0  0  0  0  0  0  0  0  0  0
   37.7240   23.5040   32.6340 H   0  0  0  0  0  0  0  0  0  0  0  0
   37.1230   24.6680   33.9730 H   0  0  0  0  0  0  0  0  0  0  0  0
   39.6310   22.6480   33.9730 H   0  0  0  0  0  0  0  0  0  0  0  0
   38.8970   23.6340   35.7800 C   0  0  0  0  0  0  0  0  0  0  0  0
   39.8660   22.9950   36.5510 C   0  0  0  0  0  0  0  0  0  0  0  0
   40.7320   22.5050   36.0880 H   0  0  0  0  0  0  0  0  0  0  0  0
   39.8580   22.9020   37.9360 C   0  0  0  0  0  3  0  0  0  0  0  0
   38.8180   23.4830   38.6150 C   0  0  0  0  0  0  0  0  0  0  0  0
   38.7010   23.4780   39.6890 H   0  0  0  0  0  0  0  0  0  0  0  0
   37.8420   24.1240   37.8840 C   0  0  0  0  0  0  0  0  0  0  0  0
   36.9890   24.6050   38.3770 H   0  0  0  0  0  0  0  0  0  0  0  0
   37.8760   24.1990   36.5100 C   0  0  0  0  0  3  0  0  0  0  0  0
   39.2700   26.1650   34.1660 C   0  0  0  0  0  0  0  0  0  0  0  0
   40.1710   26.4940   35.0120 O   0  0  0  0  0  0  0  0  0  0  0  0
   37.0190   28.3190   32.1030 C   0  0  0  0  0  0  0  0  0  0  0  0
   38.0450   27.4570   32.4670 C   0  0  0  0  0  0  0  0  0  0  0  0
   38.1820   27.0340   33.7920 C   0  0  0  0  0  0  0  0  0  0  0  0
   37.2960   27.4920   34.6770 N   0  0  0  0  0  0  0  0  0  0  0  0
   36.2960   28.3400   34.2930 C   0  0  0  0  0  0  0  0  0  0  0  0
   36.1530   28.7480   33.0450 N   0  0  0  0  0  0  0  0  0  0  0  0
   37.0220   28.5710   31.0520 H   0  0  0  0  0  0  0  0  0  0  0  0
   38.7680   27.0780   31.7620 H   0  0  0  0  0  0  0  0  0  0  0  0
   35.6450   28.6360   35.1060 H   0  0  0  0  0  0  0  0  0  0  0  0
  1  4  1  6  0  0  0
  1 17  1  0  0  0  0
  1  3  1  0  0  0  0
  2  1  1  0  0  0  0
  2  6  1  0  0  0  0
  2  3  1  0  0  0  0
  3  7  1  6  0  0  0
  3  8  1  0  0  0  0
  5  2  1  0  0  0  0
  8 16  2  0  0  0  0
  8  9  1  0  0  0  0
  9 11  2  0  0  0  0
 10  9  1  0  0  0  0
 11 12  1  0  0  0  0
 12 13  1  0  0  0  0
 14 15  1  0  0  0  0
 14 12  2  0  0  0  0
 16 14  1  0  0  0  0
 17 18  2  0  0  0  0
 19 20  2  0  0  0  0
 19 24  1  0  0  0  0
 20 21  1  0  0  0  0
 21 17  1  0  0  0  0
 21 22  2  0  0  0  0
 23 22  1  0  0  0  0
 23 27  1  0  0  0  0
 24 23  2  0  0  0  0
 25 19  1  0  0  0  0
 26 20  1  0  0  0  0
M  END
>  <minimizedAffinity>
-4.59695387

$$$$

 OpenBabel03272501333D

 27 29  0  0  1  0  0  0  0  0999 V2000
   37.4480   26.8430   34.8330 C   0  0  2  0  0  0  0  0  0  0  0  0
   38.7070   27.3390   35.6420 C   0  0  0  0  0  0  0  0  0  0  0  0
   37.9720   26.0610   35.9430 C   0  0  2  0  0  0  0  0  0  0  0  0
   36.7330   27.6970   34.9090 H   0  0  0  0  0  0  0  0  0  0  0  0
   38.5250   28.1100   36.4230 H   0  0  0  0  0  0  0  0  0  0  0  0
   39.6610   27.3650   35.1340 H   0  0  0  0  0  0  0  0  0  0  0  0
   37.3290   25.9820   36.8710 H   0  0  0  0  0  0  0  0  0  0  0  0
   38.7770   24.8390   35.6980 C   0  0  0  0  0  0  0  0  0  0  0  0
   38.1410   23.6280   35.9670 C   0  0  0  0  0  0  0  0  0  0  0  0
   37.1040   23.5960   36.3250 H   0  0  0  0  0  0  0  0  0  0  0  0
   38.7110   22.3720   35.8210 C   0  0  0  0  0  3  0  0  0  0  0  0
   40.0060   22.2980   35.3770 C   0  0  0  0  0  0  0  0  0  0  0  0
   40.5570   21.3820   35.2240 H   0  0  0  0  0  0  0  0  0  0  0  0
   40.6660   23.4770   35.1010 C   0  0  0  0  0  0  0  0  0  0  0  0
   41.7020   23.4750   34.7440 H   0  0  0  0  0  0  0  0  0  0  0  0
   40.0730   24.7100   35.2560 C   0  0  0  0  0  3  0  0  0  0  0  0
   37.8330   26.5890   33.4190 C   0  0  0  0  0  0  0  0  0  0  0  0
   38.9150   27.1310   33.0060 O   0  0  0  0  0  0  0  0  0  0  0  0
   36.4300   23.5940   31.6780 C   0  0  0  0  0  0  0  0  0  0  0  0
   37.2140   24.3890   32.5050 C   0  0  0  0  0  0  0  0  0  0  0  0
   36.9920   25.7670   32.5830 C   0  0  0  0  0  0  0  0  0  0  0  0
   36.0090   26.2740   31.8390 N   0  0  0  0  0  0  0  0  0  0  0  0
   35.2520   25.4700   31.0340 C   0  0  0  0  0  0  0  0  0  0  0  0
   35.4490   24.1670   30.9490 N   0  0  0  0  0  0  0  0  0  0  0  0
   36.7010   22.5480   31.7060 H   0  0  0  0  0  0  0  0  0  0  0  0
   38.0110   23.9930   33.1120 H   0  0  0  0  0  0  0  0  0  0  0  0
   34.4880   26.0050   30.4850 H   0  0  0  0  0  0  0  0  0  0  0  0
  1  4  1  1  0  0  0
  1  2  1  0  0  0  0
  1  3  1  0  0  0  0
  2  3  1  0  0  0  0
  2  5  1  0  0  0  0
  3  7  1  1  0  0  0
  6  2  1  0  0  0  0
  8  3  1  0  0  0  0
  8  9  1  0  0  0  0
  9 10  1  0  0  0  0
 11  9  2  0  0  0  0
 12 11  1  0  0  0  0
 13 12  1  0  0  0  0
 14 16  1  0  0  0  0
 14 12  2  0  0  0  0
 15 14  1  0  0  0  0
 16  8  2  0  0  0  0
 17  1  1  0  0  0  0
 18 17  2  0  0  0  0
 19 25  1  0  0  0  0
 19 20  1  0  0  0  0
 20 21  2  0  0  0  0
 20 26  1  0  0  0  0
 21 17  1  0  0  0  0
 22 21  1  0  0  0  0
 23 22  2  0  0  0  0
 24 23  1  0  0  0  0
 24 19  2  0  0  0  0
 27 23  1  0  0  0  0
M  END
>  <minimizedAffinity>
-4.58637667

$$$$

 OpenBabel03272501333D

 27 29  0  0  1  0  0  0  0  0999 V2000
   39.4970   24.0230   33.5590 C   0  0  2  0  0  0  0  0  0  0  0  0
   39.1340   24.5870   32.1310 C   0  0  0  0  0  0  0  0  0  0  0  0
   39.0760   23.1270   32.4920 C   0  0  2  0  0  0  0  0  0  0  0  0
   40.5350   24.3960   33.7330 H   0  0  0  0  0  0  0  0  0  0  0  0
   39.9860   24.8080   31.4510 H   0  0  0  0  0  0  0  0  0  0  0  0
   38.2530   25.2070   32.0380 H   0  0  0  0  0  0  0  0  0  0  0  0
   39.8490   22.4100   32.0800 H   0  0  0  0  0  0  0  0  0  0  0  0
   37.7040   22.5620   32.4710 C   0  0  0  0  0  0  0  0  0  0  0  0
   37.4850   21.4690   33.3070 C   0  0  0  0  0  0  0  0  0  0  0  0
   38.2830   21.0690   33.9440 H   0  0  0  0  0  0  0  0  0  0  0  0
   36.2850   20.7820   33.4320 C   0  0  0  0  0  3  0  0  0  0  0  0
   35.2190   21.2020   32.6790 C   0  0  0  0  0  0  0  0  0  0  0  0
   34.2380   20.7500   32.6890 H   0  0  0  0  0  0  0  0  0  0  0  0
   35.4010   22.2810   31.8420 C   0  0  0  0  0  0  0  0  0  0  0  0
   34.5820   22.6580   31.2180 H   0  0  0  0  0  0  0  0  0  0  0  0
   36.6040   22.9420   31.7380 C   0  0  0  0  0  3  0  0  0  0  0  0
   38.5520   24.5720   34.5670 C   0  0  0  0  0  0  0  0  0  0  0  0
   37.6800   25.4090   34.1490 O   0  0  0  0  0  0  0  0  0  0  0  0
   39.7400   22.8360   37.6560 C   0  0  0  0  0  0  0  0  0  0  0  0
   39.6550   23.2670   36.3380 C   0  0  0  0  0  0  0  0  0  0  0  0
   38.6520   24.1560   35.9450 C   0  0  0  0  0  0  0  0  0  0  0  0
   37.7930   24.5650   36.8790 N   0  0  0  0  0  0  0  0  0  0  0  0
   37.8980   24.1270   38.1690 C   0  0  0  0  0  0  0  0  0  0  0  0
   38.8410   23.2870   38.5560 N   0  0  0  0  0  0  0  0  0  0  0  0
   40.5570   22.1510   37.8320 H   0  0  0  0  0  0  0  0  0  0  0  0
   40.3430   22.9450   35.5730 H   0  0  0  0  0  0  0  0  0  0  0  0
   37.1420   24.5350   38.8270 H   0  0  0  0  0  0  0  0  0  0  0  0
  1  4  1  1  0  0  0
  1 17  1  0  0  0  0
  2  3  1  0  0  0  0
  2  1  1  0  0  0  0
  3  7  1  6  0  0  0
  3  1  1  0  0  0  0
  5  2  1  0  0  0  0
  6  2  1  0  0  0  0
  8  3  1  0  0  0  0
  8  9  1  0  0  0  0
  9 11  2  0  0  0  0
  9 10  1  0  0  0  0
 12 13  1  0  0  0  0
 12 11  1  0  0  0  0
 14 12  2  0  0  0  0
 15 14  1  0  0  0  0
 16 14  1  0  0  0  0
 16  8  2  0  0  0  0
 17 21  1  0  0  0  0
 18 17  2  0  0  0  0
 19 25  1  0  0  0  0
 19 24  1  0  0  0  0
 20 19  2  0  0  0  0
 21 20  1  0  0  0  0
 21 22  2  0  0  0  0
 22 23  1  0  0  0  0
 23 24  2  0  0  0  0
 23 27  1  0  0  0  0
 26 20  1  0  0  0  0
M  END
>  <minimizedAffinity>
-4.4309392

$$$$

 OpenBabel03272501333D

 27 29  0  0  1  0  0  0  0  0999 V2000
   38.8050   26.5630   33.7760 C   0  0  2  0  0  0  0  0  0  0  0  0
   37.9210   27.3910   32.7670 C   0  0  0  0  0  0  0  0  0  0  0  0
   38.6090   26.1010   32.4100 C   0  0  2  0  0  0  0  0  0  0  0  0
   39.5720   27.2980   34.1190 H   0  0  0  0  0  0  0  0  0  0  0  0
   38.4080   28.2640   32.2790 H   0  0  0  0  0  0  0  0  0  0  0  0
   36.8590   27.4600   32.9580 H   0  0  0  0  0  0  0  0  0  0  0  0
   39.5100   26.1100   31.7250 H   0  0  0  0  0  0  0  0  0  0  0  0
   37.6730   24.9900   32.1100 C   0  0  0  0  0  0  0  0  0  0  0  0
   36.4140   25.3650   31.6460 C   0  0  0  0  0  0  0  0  0  0  0  0
   36.1500   26.4210   31.5040 H   0  0  0  0  0  0  0  0  0  0  0  0
   35.3850   24.4930   31.3190 C   0  0  0  0  0  3  0  0  0  0  0  0
   35.6110   23.1470   31.4600 C   0  0  0  0  0  0  0  0  0  0  0  0
   34.8920   22.3730   31.2380 H   0  0  0  0  0  0  0  0  0  0  0  0
   36.8470   22.7410   31.9160 C   0  0  0  0  0  0  0  0  0  0  0  0
   37.0800   21.6780   32.0470 H   0  0  0  0  0  0  0  0  0  0  0  0
   37.8480   23.6310   32.2330 C   0  0  0  0  0  3  0  0  0  0  0  0
   37.9620   26.0970   34.9100 C   0  0  0  0  0  0  0  0  0  0  0  0
   36.8450   26.6930   35.0850 O   0  0  0  0  0  0  0  0  0  0  0  0
   40.0620   23.3090   36.2470 C   0  0  0  0  0  0  0  0  0  0  0  0
   39.6250   24.3670   35.4590 C   0  0  0  0  0  0  0  0  0  0  0  0
   38.4250   25.0220   35.7530 C   0  0  0  0  0  0  0  0  0  0  0  0
   37.7320   24.5900   36.8060 N   0  0  0  0  0  0  0  0  0  0  0  0
   38.1850   23.5470   37.5650 C   0  0  0  0  0  0  0  0  0  0  0  0
   39.3160   22.9190   37.3010 N   0  0  0  0  0  0  0  0  0  0  0  0
   41.0010   22.8890   35.9170 H   0  0  0  0  0  0  0  0  0  0  0  0
   40.1750   24.7260   34.6050 H   0  0  0  0  0  0  0  0  0  0  0  0
   37.5300   23.2970   38.3900 H   0  0  0  0  0  0  0  0  0  0  0  0
  1  4  1  1  0  0  0
  1 17  1  0  0  0  0
  2  6  1  0  0  0  0
  2  1  1  0  0  0  0
  3  7  1  6  0  0  0
  3  2  1  0  0  0  0
  3  1  1  0  0  0  0
  5  2  1  0  0  0  0
  8 16  1  0  0  0  0
  8  3  1  0  0  0  0
  9  8  2  0  0  0  0
 10  9  1  0  0  0  0
 11 12  2  0  0  0  0
 11  9  1  0  0  0  0
 12 14  1  0  0  0  0
 13 12  1  0  0  0  0
 14 15  1  0  0  0  0
 14 16  2  0  0  0  0
 17 18  2  0  0  0  0
 17 21  1  0  0  0  0
 19 24  1  0  0  0  0
 20 21  1  0  0  0  0
 20 19  2  0  0  0  0
 21 22  2  0  0  0  0
 22 23  1  0  0  0  0
 23 27  1  0  0  0  0
 24 23  2  0  0  0  0
 25 19  1  0  0  0  0
 26 20  1  0  0  0  0
M  END
>  <minimizedAffinity>
-4.42296648

$$$$

 OpenBabel03272501333D

 27 29  0  0  1  0  0  0  0  0999 V2000
   36.0740   25.8430   31.4000 C   0  0  2  0  0  0  0  0  0  0  0  0
   36.7570   27.1390   30.8170 C   0  0  0  0  0  0  0  0  0  0  0  0
   36.3510   26.9860   32.2580 C   0  0  2  0  0  0  0  0  0  0  0  0
   35.1730   25.7080   30.7560 H   0  0  0  0  0  0  0  0  0  0  0  0
   36.0940   27.8520   30.2780 H   0  0  0  0  0  0  0  0  0  0  0  0
   37.7830   27.0670   30.4820 H   0  0  0  0  0  0  0  0  0  0  0  0
   35.4630   27.5600   32.6600 H   0  0  0  0  0  0  0  0  0  0  0  0
   37.4960   26.9680   33.2000 C   0  0  0  0  0  0  0  0  0  0  0  0
   37.1730   26.8000   34.5460 C   0  0  0  0  0  0  0  0  0  0  0  0
   36.1320   26.6760   34.8710 H   0  0  0  0  0  0  0  0  0  0  0  0
   38.0840   26.7670   35.5920 C   0  0  0  0  0  3  0  0  0  0  0  0
   39.4150   26.9110   35.2950 C   0  0  0  0  0  0  0  0  0  0  0  0
   40.2150   26.9030   36.0190 H   0  0  0  0  0  0  0  0  0  0  0  0
   39.7700   27.0800   33.9740 C   0  0  0  0  0  0  0  0  0  0  0  0
   40.8190   27.2000   33.6810 H   0  0  0  0  0  0  0  0  0  0  0  0
   38.8430   27.1090   32.9560 C   0  0  0  0  0  3  0  0  0  0  0  0
   37.0040   24.6890   31.2740 C   0  0  0  0  0  0  0  0  0  0  0  0
   37.9570   24.8030   30.4300 O   0  0  0  0  0  0  0  0  0  0  0  0
   37.5120   22.0680   33.8880 C   0  0  0  0  0  0  0  0  0  0  0  0
   37.6810   23.2160   33.1250 C   0  0  0  0  0  0  0  0  0  0  0  0
   36.8000   23.5120   32.0810 C   0  0  0  0  0  0  0  0  0  0  0  0
   35.8050   22.6530   31.8560 N   0  0  0  0  0  0  0  0  0  0  0  0
   35.6610   21.5300   32.6210 C   0  0  0  0  0  0  0  0  0  0  0  0
   36.4850   21.2370   33.6110 N   0  0  0  0  0  0  0  0  0  0  0  0
   38.2570   21.9530   34.6620 H   0  0  0  0  0  0  0  0  0  0  0  0
   38.4810   23.9190   33.2960 H   0  0  0  0  0  0  0  0  0  0  0  0
   34.8140   20.9190   32.3350 H   0  0  0  0  0  0  0  0  0  0  0  0
  1  4  1  6  0  0  0
  1  3  1  0  0  0  0
  2  1  1  0  0  0  0
  2  3  1  0  0  0  0
  3  7  1  1  0  0  0
  3  8  1  0  0  0  0
  5  2  1  0  0  0  0
  6  2  1  0  0  0  0
  8  9  1  0  0  0  0
  9 10  1  0  0  0  0
  9 11  2  0  0  0  0
 12 11  1  0  0  0  0
 12 13  1  0  0  0  0
 14 12  2  0  0  0  0
 15 14  1  0  0  0  0
 16  8  2  0  0  0  0
 16 14  1  0  0  0  0
 17  1  1  0  0  0  0
 17 21  1  0  0  0  0
 18 17  2  0  0  0  0
 19 25  1  0  0  0  0
 20 26  1  0  0  0  0
 20 19  2  0  0  0  0
 21 20  1  0  0  0  0
 22 21  2  0  0  0  0
 22 23  1  0  0  0  0
 23 24  2  0  0  0  0
 24 19  1  0  0  0  0
 27 23  1  0  0  0  0
M  END
>  <minimizedAffinity>
-4.42183638

$$$$

 OpenBabel03272501333D

 27 29  0  0  1  0  0  0  0  0999 V2000
   34.6340   31.9100   36.8160 C   0  0  2  0  0  0  0  0  0  0  0  0
   35.4750   33.0550   36.1310 C   0  0  0  0  0  0  0  0  0  0  0  0
   35.8370   31.5970   36.0590 C   0  0  2  0  0  0  0  0  0  0  0  0
   34.5930   32.2180   37.8870 H   0  0  0  0  0  0  0  0  0  0  0  0
   36.1740   33.6190   36.7870 H   0  0  0  0  0  0  0  0  0  0  0  0
   35.0260   33.5940   35.3070 H   0  0  0  0  0  0  0  0  0  0  0  0
   36.7260   31.2040   36.6370 H   0  0  0  0  0  0  0  0  0  0  0  0
   35.7470   31.0280   34.6910 C   0  0  0  0  0  0  0  0  0  0  0  0
   35.8180   29.6390   34.6050 C   0  0  0  0  0  0  0  0  0  0  0  0
   35.9200   29.0170   35.5020 H   0  0  0  0  0  0  0  0  0  0  0  0
   35.7680   28.9040   33.4280 C   0  0  0  0  0  3  0  0  0  0  0  0
   35.6390   29.5860   32.2460 C   0  0  0  0  0  0  0  0  0  0  0  0
   35.5890   29.1280   31.2690 H   0  0  0  0  0  0  0  0  0  0  0  0
   35.5660   30.9620   32.2940 C   0  0  0  0  0  0  0  0  0  0  0  0
   35.4630   31.5560   31.3790 H   0  0  0  0  0  0  0  0  0  0  0  0
   35.6190   31.6640   33.4780 C   0  0  0  0  0  3  0  0  0  0  0  0
   33.2730   31.8650   36.2160 C   0  0  0  0  0  0  0  0  0  0  0  0
   32.8050   32.9640   35.7570 O   0  0  0  0  0  0  0  0  0  0  0  0
   31.4810   28.8580   34.9080 C   0  0  0  0  0  0  0  0  0  0  0  0
   32.2090   30.0410   34.9540 C   0  0  0  0  0  0  0  0  0  0  0  0
   32.5460   30.6200   36.1800 C   0  0  0  0  0  0  0  0  0  0  0  0
   32.1420   29.9950   37.2860 N   0  0  0  0  0  0  0  0  0  0  0  0
   31.4280   28.8330   37.2140 C   0  0  0  0  0  0  0  0  0  0  0  0
   31.1020   28.2720   36.0630 N   0  0  0  0  0  0  0  0  0  0  0  0
   31.2850   28.5140   33.9030 H   0  0  0  0  0  0  0  0  0  0  0  0
   32.5420   30.5570   34.0670 H   0  0  0  0  0  0  0  0  0  0  0  0
   31.1630   28.4280   38.1830 H   0  0  0  0  0  0  0  0  0  0  0  0
  1  4  1  1  0  0  0
  2  5  1  0  0  0  0
  2  1  1  0  0  0  0
  3  2  1  0  0  0  0
  3  7  1  1  0  0  0
  3  1  1  0  0  0  0
  6  2  1  0  0  0  0
  8  3  1  0  0  0  0
  9  8  1  0  0  0  0
  9 10  1  0  0  0  0
 11  9  2  0  0  0  0
 12 14  2  0  0  0  0
 12 11  1  0  0  0  0
 13 12  1  0  0  0  0
 14 16  1  0  0  0  0
 15 14  1  0  0  0  0
 16  8  2  0  0  0  0
 17  1  1  0  0  0  0
 18 17  2  0  0  0  0
 19 20  2  0  0  0  0
 19 24  1  0  0  0  0
 20 21  1  0  0  0  0
 21 17  1  0  0  0  0
 21 22  2  0  0  0  0
 23 22  1  0  0  0  0
 23 27  1  0  0  0  0
 24 23  2  0  0  0  0
 25 19  1  0  0  0  0
 26 20  1  0  0  0  0
M  END
>  <minimizedAffinity>
-4.39120626

$$$$

 OpenBabel03272501333D

 27 29  0  0  1  0  0  0  0  0999 V2000
   36.2490   25.8830   31.2510 C   0  0  2  0  0  0  0  0  0  0  0  0
   37.0400   27.1930   30.8710 C   0  0  0  0  0  0  0  0  0  0  0  0
   36.4250   26.9520   32.2230 C   0  0  2  0  0  0  0  0  0  0  0  0
   35.4480   25.8250   30.4760 H   0  0  0  0  0  0  0  0  0  0  0  0
   36.4800   27.9650   30.2980 H   0  0  0  0  0  0  0  0  0  0  0  0
   38.1020   27.1100   30.6830 H   0  0  0  0  0  0  0  0  0  0  0  0
   35.5020   27.5260   32.5370 H   0  0  0  0  0  0  0  0  0  0  0  0
   37.4210   26.8280   33.3160 C   0  0  0  0  0  0  0  0  0  0  0  0
   38.7320   27.1660   32.9850 C   0  0  0  0  0  0  0  0  0  0  0  0
   38.9940   27.5130   31.9780 H   0  0  0  0  0  0  0  0  0  0  0  0
   39.8180   27.1100   33.8480 C   0  0  0  0  0  3  0  0  0  0  0  0
   39.5990   26.6890   35.1340 C   0  0  0  0  0  0  0  0  0  0  0  0
   40.3610   26.6040   35.8950 H   0  0  0  0  0  0  0  0  0  0  0  0
   38.3140   26.3470   35.4960 C   0  0  0  0  0  0  0  0  0  0  0  0
   38.0840   26.0040   36.5120 H   0  0  0  0  0  0  0  0  0  0  0  0
   37.2560   26.4120   34.6170 C   0  0  0  0  0  3  0  0  0  0  0  0
   37.1600   24.7100   31.1730 C   0  0  0  0  0  0  0  0  0  0  0  0
   38.1930   24.8270   30.4290 O   0  0  0  0  0  0  0  0  0  0  0  0
   35.3650   21.6560   32.3630 C   0  0  0  0  0  0  0  0  0  0  0  0
   35.6870   22.7930   31.6330 C   0  0  0  0  0  0  0  0  0  0  0  0
   36.8520   23.5120   31.9140 C   0  0  0  0  0  0  0  0  0  0  0  0
   37.6270   23.0620   32.9010 N   0  0  0  0  0  0  0  0  0  0  0  0
   37.2890   21.9400   33.6040 C   0  0  0  0  0  0  0  0  0  0  0  0
   36.1920   21.2500   33.3500 N   0  0  0  0  0  0  0  0  0  0  0  0
   34.4420   21.1910   32.0490 H   0  0  0  0  0  0  0  0  0  0  0  0
   35.0690   23.1680   30.8320 H   0  0  0  0  0  0  0  0  0  0  0  0
   38.0030   21.6820   34.3760 H   0  0  0  0  0  0  0  0  0  0  0  0
  1  4  1  6  0  0  0
  1  3  1  0  0  0  0
  2  1  1  0  0  0  0
  2  3  1  0  0  0  0
  3  7  1  1  0  0  0
  3  8  1  0  0  0  0
  5  2  1  0  0  0  0
  6  2  1  0  0  0  0
  8 16  1  0  0  0  0
  9  8  2  0  0  0  0
  9 11  1  0  0  0  0
 10  9  1  0  0  0  0
 11 12  2  0  0  0  0
 12 14  1  0  0  0  0
 12 13  1  0  0  0  0
 14 15  1  0  0  0  0
 16 14  2  0  0  0  0
 17  1  1  0  0  0  0
 17 21  1  0  0  0  0
 18 17  2  0  0  0  0
 19 24  1  0  0  0  0
 20 21  1  0  0  0  0
 20 19  2  0  0  0  0
 21 22  2  0  0  0  0
 22 23  1  0  0  0  0
 23 27  1  0  0  0  0
 24 23  2  0  0  0  0
 25 19  1  0  0  0  0
 26 20  1  0  0  0  0
M  END
>  <minimizedAffinity>
-4.39113569

$$$$
