
 OpenBabel03272505353D

 35 37  0  0  1  0  0  0  0  0999 V2000
   39.1470   23.0090   37.4730 C   0  0  0  0  0  0  0  0  0  0  0  0
   40.3970   22.4400   37.6660 C   0  0  0  0  0  0  0  0  0  0  0  0
   41.0820   21.9690   36.5350 C   0  0  0  0  0  0  0  0  0  0  0  0
   40.4680   22.1030   35.3130 N   0  0  0  0  0  0  0  0  0  0  0  0
   39.2570   22.6620   35.1790 C   0  0  0  0  0  0  0  0  0  0  0  0
   38.6120   23.1060   36.2450 N   0  0  0  0  0  0  0  0  0  0  0  0
   38.7300   22.7420   33.8650 N   0  0  0  0  0  0  0  0  0  0  0  0
   37.9300   21.6510   33.3540 C   0  0  0  0  0  0  0  0  0  0  0  0
   38.2880   21.3400   31.9130 C   0  0  0  0  0  0  0  0  0  0  0  0
   38.3700   22.5240   31.1030 N   0  0  0  0  0  0  0  0  0  0  0  0
   38.0600   23.7270   31.7930 C   0  0  0  0  0  0  0  0  0  0  0  0
   38.9750   23.9040   33.0120 C   0  0  1  0  0  0  0  0  0  0  0  0
   40.8730   22.3380   38.6340 H   0  0  0  0  0  0  0  0  0  0  0  0
   42.0560   21.5130   36.5880 H   0  0  0  0  0  0  0  0  0  0  0  0
   38.0530   20.7380   33.9540 H   0  0  0  0  0  0  0  0  0  0  0  0
   36.8310   21.9080   33.3820 H   0  0  0  0  0  0  0  0  0  0  0  0
   39.2530   20.7630   31.9210 H   0  0  0  0  0  0  0  0  0  0  0  0
   37.5320   20.6360   31.5140 H   0  0  0  0  0  0  0  0  0  0  0  0
   39.3550   22.6030   30.7550 H   0  0  0  0  0  0  0  0  0  0  0  0
   37.0400   23.6520   32.2320 H   0  0  0  0  0  0  0  0  0  0  0  0
   38.1240   24.5740   31.1040 H   0  0  0  0  0  0  0  0  0  0  0  0
   40.0070   23.7830   32.6210 H   0  0  0  0  0  0  0  0  0  0  0  0
   38.7240   25.1820   33.6910 C   0  0  0  0  0  0  0  0  0  0  0  0
   37.3990   25.6020   33.6930 C   0  0  0  0  0  0  0  0  0  0  0  0
   36.5730   25.0780   33.2490 H   0  0  0  0  0  0  0  0  0  0  0  0
   37.0730   26.7970   34.3120 C   0  0  0  0  0  3  0  0  0  0  0  0
   38.0800   27.5290   34.9050 C   0  0  0  0  0  0  0  0  0  0  0  0
   37.8680   28.4640   35.3980 H   0  0  0  0  0  0  0  0  0  0  0  0
   39.4240   27.1340   34.9210 C   0  0  0  0  0  0  0  0  0  0  0  0
   40.1750   27.7480   35.4020 H   0  0  0  0  0  0  0  0  0  0  0  0
   39.7300   25.9240   34.2900 C   0  0  0  0  0  3  0  0  0  0  0  0
   38.4040   23.5170   38.6700 C   0  0  0  0  0  0  0  0  0  0  0  0
   37.3950   22.6340   39.0150 F   0  0  0  0  0  0  0  0  0  0  0  0
   39.3100   23.7590   39.6640 F   0  0  0  0  0  0  0  0  0  0  0  0
   37.7740   24.7110   38.2750 F   0  0  0  0  0  0  0  0  0  0  0  0
  1  2  1  0  0  0  0
  1 32  1  0  0  0  0
  2 13  1  0  0  0  0
  3 14  1  0  0  0  0
  3  2  2  0  0  0  0
  4  3  1  0  0  0  0
  5  4  2  0  0  0  0
  5  6  1  0  0  0  0
  6  1  2  0  0  0  0
  7  5  1  0  0  0  0
  8 16  1  0  0  0  0
  8  7  1  0  0  0  0
  8 15  1  0  0  0  0
  9 17  1  0  0  0  0
  9  8  1  0  0  0  0
 10 11  1  0  0  0  0
 10  9  1  0  0  0  0
 11 20  1  0  0  0  0
 11 12  1  0  0  0  0
 12 22  1  6  0  0  0
 12 23  1  0  0  0  0
 12  7  1  0  0  0  0
 18  9  1  0  0  0  0
 19 10  1  0  0  0  0
 21 11  1  0  0  0  0
 23 24  2  0  0  0  0
 23 31  1  0  0  0  0
 24 26  1  0  0  0  0
 25 24  1  0  0  0  0
 26 27  2  0  0  0  0
 27 29  1  0  0  0  0
 27 28  1  0  0  0  0
 29 30  1  0  0  0  0
 31 29  2  0  0  0  0
 32 33  1  0  0  0  0
 32 34  1  0  0  0  0
 35 32  1  0  0  0  0
M  END
>  <minimizedAffinity>
-5.96575594

$$$$

 OpenBabel03272505353D

 35 37  0  0  1  0  0  0  0  0999 V2000
   38.5140   22.6360   34.5270 C   0  0  0  0  0  0  0  0  0  0  0  0
   38.7200   22.0970   35.7880 C   0  0  0  0  0  0  0  0  0  0  0  0
   39.7530   22.6400   36.5680 C   0  0  0  0  0  0  0  0  0  0  0  0
   40.4890   23.6680   36.0310 N   0  0  0  0  0  0  0  0  0  0  0  0
   40.2490   24.1540   34.8040 C   0  0  0  0  0  0  0  0  0  0  0  0
   39.2760   23.6420   34.0700 N   0  0  0  0  0  0  0  0  0  0  0  0
   41.0780   25.2150   34.3610 N   0  0  0  0  0  0  0  0  0  0  0  0
   42.3010   24.9100   33.6520 C   0  0  0  0  0  0  0  0  0  0  0  0
   43.4400   25.7990   34.1200 C   0  0  0  0  0  0  0  0  0  0  0  0
   43.0560   27.1810   34.1960 N   0  0  0  0  0  0  0  0  0  0  0  0
   41.7220   27.4420   33.7810 C   0  0  0  0  0  0  0  0  0  0  0  0
   40.7270   26.6140   34.6040 C   0  0  1  0  0  0  0  0  0  0  0  0
   38.1340   21.2860   36.2040 H   0  0  0  0  0  0  0  0  0  0  0  0
   39.9860   22.2860   37.5580 H   0  0  0  0  0  0  0  0  0  0  0  0
   42.5980   23.8600   33.7810 H   0  0  0  0  0  0  0  0  0  0  0  0
   42.1780   25.0750   32.5420 H   0  0  0  0  0  0  0  0  0  0  0  0
   43.7940   25.4020   35.1100 H   0  0  0  0  0  0  0  0  0  0  0  0
   44.2930   25.6590   33.4280 H   0  0  0  0  0  0  0  0  0  0  0  0
   43.1410   27.4800   35.1970 H   0  0  0  0  0  0  0  0  0  0  0  0
   41.5780   27.0770   32.7390 H   0  0  0  0  0  0  0  0  0  0  0  0
   41.5180   28.5140   33.8480 H   0  0  0  0  0  0  0  0  0  0  0  0
   40.9890   26.8140   35.6650 H   0  0  0  0  0  0  0  0  0  0  0  0
   39.3380   26.9300   34.2460 C   0  0  0  0  0  0  0  0  0  0  0  0
   39.0920   27.0560   32.8830 C   0  0  0  0  0  0  0  0  0  0  0  0
   39.8190   26.9440   32.1010 H   0  0  0  0  0  0  0  0  0  0  0  0
   37.8090   27.3540   32.4560 C   0  0  0  0  0  3  0  0  0  0  0  0
   36.8190   27.5150   33.4040 C   0  0  0  0  0  0  0  0  0  0  0  0
   35.8080   27.7470   33.1120 H   0  0  0  0  0  0  0  0  0  0  0  0
   37.0340   27.3940   34.7830 C   0  0  0  0  0  0  0  0  0  0  0  0
   36.2200   27.5300   35.4840 H   0  0  0  0  0  0  0  0  0  0  0  0
   38.3380   27.0930   35.1900 C   0  0  0  0  0  3  0  0  0  0  0  0
   37.4150   22.0670   33.6820 C   0  0  0  0  0  0  0  0  0  0  0  0
   36.4940   21.4080   34.4770 F   0  0  0  0  0  0  0  0  0  0  0  0
   36.8910   23.0780   32.9260 F   0  0  0  0  0  0  0  0  0  0  0  0
   38.0060   21.0900   32.8590 F   0  0  0  0  0  0  0  0  0  0  0  0
  1  2  1  0  0  0  0
  2 13  1  0  0  0  0
  2  3  2  0  0  0  0
  3 14  1  0  0  0  0
  4  3  1  0  0  0  0
  5  4  2  0  0  0  0
  6  1  2  0  0  0  0
  6  5  1  0  0  0  0
  7 12  1  0  0  0  0
  7  5  1  0  0  0  0
  8 15  1  0  0  0  0
  8  9  1  0  0  0  0
  8  7  1  0  0  0  0
  9 10  1  0  0  0  0
  9 17  1  0  0  0  0
 10 19  1  0  0  0  0
 11 21  1  0  0  0  0
 11 10  1  0  0  0  0
 11 12  1  0  0  0  0
 12 22  1  1  0  0  0
 16  8  1  0  0  0  0
 18  9  1  0  0  0  0
 20 11  1  0  0  0  0
 23 12  1  0  0  0  0
 23 31  1  0  0  0  0
 24 23  2  0  0  0  0
 25 24  1  0  0  0  0
 26 24  1  0  0  0  0
 26 27  2  0  0  0  0
 27 29  1  0  0  0  0
 28 27  1  0  0  0  0
 29 31  2  0  0  0  0
 29 30  1  0  0  0  0
 32 33  1  0  0  0  0
 32  1  1  0  0  0  0
 34 32  1  0  0  0  0
 35 32  1  0  0  0  0
M  END
>  <minimizedAffinity>
-5.58183289

$$$$

 OpenBabel03272505353D

 35 37  0  0  1  0  0  0  0  0999 V2000
   37.2860   21.5260   33.2300 C   0  0  0  0  0  0  0  0  0  0  0  0
   38.1030   20.7880   32.3880 C   0  0  0  0  0  0  0  0  0  0  0  0
   39.2490   21.4160   31.8750 C   0  0  0  0  0  0  0  0  0  0  0  0
   39.4830   22.7190   32.2410 N   0  0  0  0  0  0  0  0  0  0  0  0
   38.6610   23.3900   33.0600 C   0  0  0  0  0  0  0  0  0  0  0  0
   37.5810   22.7980   33.5440 N   0  0  0  0  0  0  0  0  0  0  0  0
   39.0110   24.7300   33.3640 N   0  0  0  0  0  0  0  0  0  0  0  0
   38.5230   25.7990   32.5200 C   0  0  0  0  0  0  0  0  0  0  0  0
   39.6070   26.8280   32.2600 C   0  0  0  0  0  0  0  0  0  0  0  0
   40.2980   27.2080   33.4600 N   0  0  0  0  0  0  0  0  0  0  0  0
   39.8040   26.5880   34.6400 C   0  0  0  0  0  0  0  0  0  0  0  0
   39.8560   25.0600   34.5110 C   0  0  1  0  0  0  0  0  0  0  0  0
   37.9100   19.7600   32.1040 H   0  0  0  0  0  0  0  0  0  0  0  0
   39.9410   20.9220   31.2140 H   0  0  0  0  0  0  0  0  0  0  0  0
   38.1540   25.4220   31.5560 H   0  0  0  0  0  0  0  0  0  0  0  0
   37.6570   26.3360   33.0070 H   0  0  0  0  0  0  0  0  0  0  0  0
   40.3030   26.3990   31.4880 H   0  0  0  0  0  0  0  0  0  0  0  0
   39.1390   27.7060   31.7730 H   0  0  0  0  0  0  0  0  0  0  0  0
   41.3020   26.9290   33.3520 H   0  0  0  0  0  0  0  0  0  0  0  0
   38.7200   26.8120   34.7530 H   0  0  0  0  0  0  0  0  0  0  0  0
   40.3670   26.9460   35.5070 H   0  0  0  0  0  0  0  0  0  0  0  0
   40.8960   24.8290   34.2000 H   0  0  0  0  0  0  0  0  0  0  0  0
   39.4260   24.4010   35.7520 C   0  0  0  0  0  0  0  0  0  0  0  0
   38.2790   24.9270   36.3350 C   0  0  0  0  0  0  0  0  0  0  0  0
   37.7040   25.7510   35.9590 H   0  0  0  0  0  0  0  0  0  0  0  0
   37.8030   24.3650   37.5080 C   0  0  0  0  0  3  0  0  0  0  0  0
   38.4890   23.3000   38.0560 C   0  0  0  0  0  0  0  0  0  0  0  0
   38.1510   22.8360   38.9670 H   0  0  0  0  0  0  0  0  0  0  0  0
   39.6470   22.7480   37.4930 C   0  0  0  0  0  0  0  0  0  0  0  0
   40.1460   21.9110   37.9650 H   0  0  0  0  0  0  0  0  0  0  0  0
   40.1080   23.3310   36.3080 C   0  0  0  0  0  3  0  0  0  0  0  0
   36.0590   20.8700   33.7860 C   0  0  0  0  0  0  0  0  0  0  0  0
   36.0160   19.5400   33.4070 F   0  0  0  0  0  0  0  0  0  0  0  0
   36.0400   21.0750   35.1370 F   0  0  0  0  0  0  0  0  0  0  0  0
   34.9570   21.4960   33.1760 F   0  0  0  0  0  0  0  0  0  0  0  0
  1  6  1  0  0  0  0
  1 32  1  0  0  0  0
  2  1  2  0  0  0  0
  3  4  2  0  0  0  0
  3  2  1  0  0  0  0
  4  5  1  0  0  0  0
  5  7  1  0  0  0  0
  5  6  2  0  0  0  0
  7 12  1  0  0  0  0
  8 16  1  0  0  0  0
  8  7  1  0  0  0  0
  9  8  1  0  0  0  0
  9 10  1  0  0  0  0
 10 11  1  0  0  0  0
 11 20  1  0  0  0  0
 11 21  1  0  0  0  0
 12 22  1  6  0  0  0
 12 11  1  0  0  0  0
 12 23  1  0  0  0  0
 13  2  1  0  0  0  0
 14  3  1  0  0  0  0
 15  8  1  0  0  0  0
 17  9  1  0  0  0  0
 18  9  1  0  0  0  0
 19 10  1  0  0  0  0
 23 31  2  0  0  0  0
 23 24  1  0  0  0  0
 24 26  2  0  0  0  0
 25 24  1  0  0  0  0
 26 27  1  0  0  0  0
 27 28  1  0  0  0  0
 29 30  1  0  0  0  0
 29 27  2  0  0  0  0
 31 29  1  0  0  0  0
 32 34  1  0  0  0  0
 33 32  1  0  0  0  0
 35 32  1  0  0  0  0
M  END
>  <minimizedAffinity>
-5.49317503

$$$$

 OpenBabel03272505353D

 35 37  0  0  1  0  0  0  0  0999 V2000
   37.2080   26.1670   33.5520 C   0  0  0  0  0  0  0  0  0  0  0  0
   37.3190   27.4550   34.0510 C   0  0  0  0  0  0  0  0  0  0  0  0
   37.8920   27.6140   35.3230 C   0  0  0  0  0  0  0  0  0  0  0  0
   38.3040   26.4830   35.9860 N   0  0  0  0  0  0  0  0  0  0  0  0
   38.1730   25.2580   35.4580 C   0  0  0  0  0  0  0  0  0  0  0  0
   37.6340   25.1090   34.2600 N   0  0  0  0  0  0  0  0  0  0  0  0
   38.6350   24.1700   36.2410 N   0  0  0  0  0  0  0  0  0  0  0  0
   37.7260   23.5210   37.1590 C   0  0  0  0  0  0  0  0  0  0  0  0
   38.4090   23.2180   38.4800 C   0  0  0  0  0  0  0  0  0  0  0  0
   39.6990   22.6110   38.3010 N   0  0  0  0  0  0  0  0  0  0  0  0
   40.0520   22.3780   36.9440 C   0  0  0  0  0  0  0  0  0  0  0  0
   40.0120   23.6860   36.1420 C   0  0  1  0  0  0  0  0  0  0  0  0
   36.9920   28.3420   33.5220 H   0  0  0  0  0  0  0  0  0  0  0  0
   38.0200   28.5750   35.7920 H   0  0  0  0  0  0  0  0  0  0  0  0
   36.8360   24.1350   37.3550 H   0  0  0  0  0  0  0  0  0  0  0  0
   37.3550   22.5420   36.7380 H   0  0  0  0  0  0  0  0  0  0  0  0
   38.4700   24.1800   39.0590 H   0  0  0  0  0  0  0  0  0  0  0  0
   37.7400   22.5640   39.0720 H   0  0  0  0  0  0  0  0  0  0  0  0
   40.4150   23.2590   38.7080 H   0  0  0  0  0  0  0  0  0  0  0  0
   39.2760   21.7430   36.4610 H   0  0  0  0  0  0  0  0  0  0  0  0
   41.0330   21.8970   36.8960 H   0  0  0  0  0  0  0  0  0  0  0  0
   40.6300   24.4020   36.7230 H   0  0  0  0  0  0  0  0  0  0  0  0
   40.4530   23.4790   34.7560 C   0  0  0  0  0  0  0  0  0  0  0  0
   39.9980   22.3100   34.1570 C   0  0  0  0  0  0  0  0  0  0  0  0
   39.3700   21.5710   34.6180 H   0  0  0  0  0  0  0  0  0  0  0  0
   40.3660   22.0370   32.8500 C   0  0  0  0  0  3  0  0  0  0  0  0
   41.1740   22.9390   32.1900 C   0  0  0  0  0  0  0  0  0  0  0  0
   41.4820   22.7630   31.1720 H   0  0  0  0  0  0  0  0  0  0  0  0
   41.6480   24.1250   32.7640 C   0  0  0  0  0  0  0  0  0  0  0  0
   42.2810   24.7990   32.2000 H   0  0  0  0  0  0  0  0  0  0  0  0
   41.2640   24.3800   34.0850 C   0  0  0  0  0  3  0  0  0  0  0  0
   36.5980   25.9810   32.1960 C   0  0  0  0  0  0  0  0  0  0  0  0
   35.9380   24.7660   32.1320 F   0  0  0  0  0  0  0  0  0  0  0  0
   35.8150   27.0680   31.9270 F   0  0  0  0  0  0  0  0  0  0  0  0
   37.6660   25.9040   31.2820 F   0  0  0  0  0  0  0  0  0  0  0  0
  1  2  2  0  0  0  0
  1  6  1  0  0  0  0
  2  3  1  0  0  0  0
  3 14  1  0  0  0  0
  3  4  2  0  0  0  0
  5  4  1  0  0  0  0
  5  7  1  0  0  0  0
  6  5  2  0  0  0  0
  7  8  1  0  0  0  0
  8 15  1  0  0  0  0
  8  9  1  0  0  0  0
  9 17  1  0  0  0  0
  9 18  1  0  0  0  0
 10  9  1  0  0  0  0
 10 19  1  0  0  0  0
 11 10  1  0  0  0  0
 12  7  1  0  0  0  0
 12 22  1  1  0  0  0
 12 11  1  0  0  0  0
 13  2  1  0  0  0  0
 16  8  1  0  0  0  0
 20 11  1  0  0  0  0
 21 11  1  0  0  0  0
 23 12  1  0  0  0  0
 24 25  1  0  0  0  0
 24 23  1  0  0  0  0
 26 24  2  0  0  0  0
 27 29  2  0  0  0  0
 27 26  1  0  0  0  0
 28 27  1  0  0  0  0
 29 31  1  0  0  0  0
 30 29  1  0  0  0  0
 31 23  2  0  0  0  0
 32  1  1  0  0  0  0
 33 32  1  0  0  0  0
 34 32  1  0  0  0  0
 35 32  1  0  0  0  0
M  END
>  <minimizedAffinity>
-5.48160505

$$$$

 OpenBabel03272505353D

 35 37  0  0  1  0  0  0  0  0999 V2000
   38.4650   23.4190   36.6910 C   0  0  0  0  0  0  0  0  0  0  0  0
   37.6880   22.4110   36.1410 C   0  0  0  0  0  0  0  0  0  0  0  0
   37.7050   22.2640   34.7450 C   0  0  0  0  0  0  0  0  0  0  0  0
   38.4900   23.1270   34.0190 N   0  0  0  0  0  0  0  0  0  0  0  0
   39.2240   24.0860   34.6010 C   0  0  0  0  0  0  0  0  0  0  0  0
   39.2080   24.2250   35.9160 N   0  0  0  0  0  0  0  0  0  0  0  0
   39.9920   24.9140   33.7440 N   0  0  0  0  0  0  0  0  0  0  0  0
   39.4060   26.1270   33.2180 C   0  0  0  0  0  0  0  0  0  0  0  0
   39.7580   26.3140   31.7530 C   0  0  0  0  0  0  0  0  0  0  0  0
   41.1550   26.1000   31.4970 N   0  0  0  0  0  0  0  0  0  0  0  0
   41.9240   25.8050   32.6550 C   0  0  0  0  0  0  0  0  0  0  0  0
   41.3660   24.5720   33.3770 C   0  0  1  0  0  0  0  0  0  0  0  0
   37.0720   21.7350   36.7210 H   0  0  0  0  0  0  0  0  0  0  0  0
   37.1350   21.5100   34.2290 H   0  0  0  0  0  0  0  0  0  0  0  0
   38.3120   26.1310   33.3210 H   0  0  0  0  0  0  0  0  0  0  0  0
   39.7840   27.0340   33.7740 H   0  0  0  0  0  0  0  0  0  0  0  0
   39.1060   25.6190   31.1570 H   0  0  0  0  0  0  0  0  0  0  0  0
   39.4490   27.3340   31.4520 H   0  0  0  0  0  0  0  0  0  0  0  0
   41.2380   25.2820   30.8460 H   0  0  0  0  0  0  0  0  0  0  0  0
   41.8090   26.6260   33.3980 H   0  0  0  0  0  0  0  0  0  0  0  0
   42.9750   25.6780   32.3780 H   0  0  0  0  0  0  0  0  0  0  0  0
   41.2860   23.7880   32.5940 H   0  0  0  0  0  0  0  0  0  0  0  0
   42.1960   24.2030   34.5310 C   0  0  0  0  0  0  0  0  0  0  0  0
   42.8610   25.2590   35.1440 C   0  0  0  0  0  0  0  0  0  0  0  0
   42.8140   26.2890   34.8460 H   0  0  0  0  0  0  0  0  0  0  0  0
   43.6660   25.0010   36.2410 C   0  0  0  0  0  3  0  0  0  0  0  0
   43.7780   23.6990   36.6850 C   0  0  0  0  0  0  0  0  0  0  0  0
   44.3950   23.4570   37.5350 H   0  0  0  0  0  0  0  0  0  0  0  0
   43.1220   22.6140   36.0910 C   0  0  0  0  0  0  0  0  0  0  0  0
   43.2460   21.6110   36.4800 H   0  0  0  0  0  0  0  0  0  0  0  0
   42.3150   22.8990   34.9840 C   0  0  0  0  0  3  0  0  0  0  0  0
   38.4570   23.5900   38.1800 C   0  0  0  0  0  0  0  0  0  0  0  0
   37.4440   22.8330   38.7420 F   0  0  0  0  0  0  0  0  0  0  0  0
   39.7080   23.3010   38.6490 F   0  0  0  0  0  0  0  0  0  0  0  0
   38.1360   24.9370   38.4280 F   0  0  0  0  0  0  0  0  0  0  0  0
  1 32  1  0  0  0  0
  2  1  1  0  0  0  0
  2 13  1  0  0  0  0
  3  2  2  0  0  0  0
  4  5  2  0  0  0  0
  4  3  1  0  0  0  0
  5  6  1  0  0  0  0
  6  1  2  0  0  0  0
  7  5  1  0  0  0  0
  8 15  1  0  0  0  0
  8  7  1  0  0  0  0
  8 16  1  0  0  0  0
  9  8  1  0  0  0  0
 10  9  1  0  0  0  0
 10 11  1  0  0  0  0
 11 12  1  0  0  0  0
 11 20  1  0  0  0  0
 12 22  1  6  0  0  0
 12  7  1  0  0  0  0
 12 23  1  0  0  0  0
 14  3  1  0  0  0  0
 17  9  1  0  0  0  0
 18  9  1  0  0  0  0
 19 10  1  0  0  0  0
 21 11  1  0  0  0  0
 23 31  2  0  0  0  0
 23 24  1  0  0  0  0
 24 26  2  0  0  0  0
 25 24  1  0  0  0  0
 26 27  1  0  0  0  0
 27 28  1  0  0  0  0
 29 30  1  0  0  0  0
 29 27  2  0  0  0  0
 31 29  1  0  0  0  0
 32 35  1  0  0  0  0
 32 34  1  0  0  0  0
 32 33  1  0  0  0  0
M  END
>  <minimizedAffinity>
-5.35542965

$$$$

 OpenBabel03272505353D

 35 37  0  0  1  0  0  0  0  0999 V2000
   37.8450   25.9670   34.7450 C   0  0  0  0  0  0  0  0  0  0  0  0
   37.0450   27.0940   34.6360 C   0  0  0  0  0  0  0  0  0  0  0  0
   36.7780   27.5830   33.3480 C   0  0  0  0  0  0  0  0  0  0  0  0
   37.3270   26.9120   32.2820 N   0  0  0  0  0  0  0  0  0  0  0  0
   38.0950   25.8240   32.4400 C   0  0  0  0  0  0  0  0  0  0  0  0
   38.3460   25.3640   33.6540 N   0  0  0  0  0  0  0  0  0  0  0  0
   38.6030   25.2210   31.2620 N   0  0  0  0  0  0  0  0  0  0  0  0
   39.8800   25.6530   30.7390 C   0  0  0  0  0  0  0  0  0  0  0  0
   39.8360   25.7830   29.2280 C   0  0  0  0  0  0  0  0  0  0  0  0
   39.2250   24.6430   28.6010 N   0  0  0  0  0  0  0  0  0  0  0  0
   38.8320   23.6190   29.5040 C   0  0  0  0  0  0  0  0  0  0  0  0
   37.8670   24.1700   30.5610 C   0  0  1  0  0  0  0  0  0  0  0  0
   36.6160   27.6170   35.4830 H   0  0  0  0  0  0  0  0  0  0  0  0
   36.1680   28.4520   33.1660 H   0  0  0  0  0  0  0  0  0  0  0  0
   40.1930   26.6160   31.1670 H   0  0  0  0  0  0  0  0  0  0  0  0
   40.6930   24.9110   30.9910 H   0  0  0  0  0  0  0  0  0  0  0  0
   39.2970   26.7400   28.9860 H   0  0  0  0  0  0  0  0  0  0  0  0
   40.8710   25.9310   28.8640 H   0  0  0  0  0  0  0  0  0  0  0  0
   38.3640   24.9770   28.1050 H   0  0  0  0  0  0  0  0  0  0  0  0
   39.7150   23.2850   30.0940 H   0  0  0  0  0  0  0  0  0  0  0  0
   38.3990   22.7830   28.9470 H   0  0  0  0  0  0  0  0  0  0  0  0
   37.0700   24.6880   29.9860 H   0  0  0  0  0  0  0  0  0  0  0  0
   37.3850   23.1080   31.4550 C   0  0  0  0  0  0  0  0  0  0  0  0
   36.0030   22.9750   31.5260 C   0  0  0  0  0  0  0  0  0  0  0  0
   35.2860   23.5720   30.9950 H   0  0  0  0  0  0  0  0  0  0  0  0
   35.4630   21.9980   32.3460 C   0  0  0  0  0  3  0  0  0  0  0  0
   36.3220   21.1900   33.0640 C   0  0  0  0  0  0  0  0  0  0  0  0
   35.9410   20.4180   33.7120 H   0  0  0  0  0  0  0  0  0  0  0  0
   37.7170   21.2980   33.0130 C   0  0  0  0  0  0  0  0  0  0  0  0
   38.3450   20.6380   33.5980 H   0  0  0  0  0  0  0  0  0  0  0  0
   38.2400   22.2920   32.1790 C   0  0  0  0  0  3  0  0  0  0  0  0
   38.1390   25.4320   36.1130 C   0  0  0  0  0  0  0  0  0  0  0  0
   38.2750   26.4750   37.0130 F   0  0  0  0  0  0  0  0  0  0  0  0
   37.1670   24.5280   36.4360 F   0  0  0  0  0  0  0  0  0  0  0  0
   39.3950   24.8020   36.0370 F   0  0  0  0  0  0  0  0  0  0  0  0
  1 32  1  0  0  0  0
  2  1  1  0  0  0  0
  2 13  1  0  0  0  0
  3  2  2  0  0  0  0
  4  5  2  0  0  0  0
  4  3  1  0  0  0  0
  5  6  1  0  0  0  0
  6  1  2  0  0  0  0
  7  5  1  0  0  0  0
  8 16  1  0  0  0  0
  8 15  1  0  0  0  0
  8  7  1  0  0  0  0
  9  8  1  0  0  0  0
 10  9  1  0  0  0  0
 10 11  1  0  0  0  0
 11 20  1  0  0  0  0
 11 12  1  0  0  0  0
 12 22  1  6  0  0  0
 12  7  1  0  0  0  0
 12 23  1  0  0  0  0
 14  3  1  0  0  0  0
 17  9  1  0  0  0  0
 18  9  1  0  0  0  0
 19 10  1  0  0  0  0
 21 11  1  0  0  0  0
 23 24  2  0  0  0  0
 23 31  1  0  0  0  0
 24 26  1  0  0  0  0
 25 24  1  0  0  0  0
 26 27  2  0  0  0  0
 27 28  1  0  0  0  0
 29 27  1  0  0  0  0
 29 30  1  0  0  0  0
 31 29  2  0  0  0  0
 32 34  1  0  0  0  0
 32 33  1  0  0  0  0
 35 32  1  0  0  0  0
M  END
>  <minimizedAffinity>
-5.34857321

$$$$

 OpenBabel03272505353D

 35 37  0  0  1  0  0  0  0  0999 V2000
   38.7210   24.6050   35.2020 C   0  0  0  0  0  0  0  0  0  0  0  0
   40.0280   24.1500   35.2860 C   0  0  0  0  0  0  0  0  0  0  0  0
   40.3710   23.0110   34.5410 C   0  0  0  0  0  0  0  0  0  0  0  0
   39.3900   22.4250   33.7780 N   0  0  0  0  0  0  0  0  0  0  0  0
   38.1390   22.9050   33.7310 C   0  0  0  0  0  0  0  0  0  0  0  0
   37.8160   23.9780   34.4340 N   0  0  0  0  0  0  0  0  0  0  0  0
   37.2160   22.2110   32.9080 N   0  0  0  0  0  0  0  0  0  0  0  0
   36.4380   21.1290   33.4710 C   0  0  0  0  0  0  0  0  0  0  0  0
   36.3560   19.9570   32.5100 C   0  0  0  0  0  0  0  0  0  0  0  0
   36.0290   20.3700   31.1740 N   0  0  0  0  0  0  0  0  0  0  0  0
   35.8070   21.7660   31.0310 C   0  0  0  0  0  0  0  0  0  0  0  0
   37.0320   22.5610   31.5000 C   0  0  1  0  0  0  0  0  0  0  0  0
   40.7960   24.6190   35.8900 H   0  0  0  0  0  0  0  0  0  0  0  0
   41.3610   22.5860   34.5430 H   0  0  0  0  0  0  0  0  0  0  0  0
   36.8580   20.7760   34.4230 H   0  0  0  0  0  0  0  0  0  0  0  0
   35.3820   21.4620   33.6890 H   0  0  0  0  0  0  0  0  0  0  0  0
   37.3380   19.4120   32.5570 H   0  0  0  0  0  0  0  0  0  0  0  0
   35.6070   19.2420   32.9010 H   0  0  0  0  0  0  0  0  0  0  0  0
   36.8350   20.1130   30.5550 H   0  0  0  0  0  0  0  0  0  0  0  0
   34.9960   22.0870   31.7230 H   0  0  0  0  0  0  0  0  0  0  0  0
   35.5430   21.9930   29.9940 H   0  0  0  0  0  0  0  0  0  0  0  0
   37.8930   22.1160   30.9590 H   0  0  0  0  0  0  0  0  0  0  0  0
   36.8520   24.0030   31.2840 C   0  0  0  0  0  0  0  0  0  0  0  0
   35.5430   24.4590   31.3880 C   0  0  0  0  0  0  0  0  0  0  0  0
   34.6820   23.8550   31.6060 H   0  0  0  0  0  0  0  0  0  0  0  0
   35.2830   25.8060   31.1990 C   0  0  0  0  0  3  0  0  0  0  0  0
   36.3380   26.6480   30.9130 C   0  0  0  0  0  0  0  0  0  0  0  0
   36.1770   27.7030   30.7590 H   0  0  0  0  0  0  0  0  0  0  0  0
   37.6670   26.2210   30.8030 C   0  0  0  0  0  0  0  0  0  0  0  0
   38.4580   26.9250   30.5760 H   0  0  0  0  0  0  0  0  0  0  0  0
   37.9060   24.8560   30.9970 C   0  0  0  0  0  3  0  0  0  0  0  0
   38.3390   25.8200   35.9920 C   0  0  0  0  0  0  0  0  0  0  0  0
   38.1440   25.4830   37.3200 F   0  0  0  0  0  0  0  0  0  0  0  0
   39.2880   26.7800   35.7830 F   0  0  0  0  0  0  0  0  0  0  0  0
   37.0910   26.2430   35.4990 F   0  0  0  0  0  0  0  0  0  0  0  0
  1  2  1  0  0  0  0
  1 32  1  0  0  0  0
  2 13  1  0  0  0  0
  3 14  1  0  0  0  0
  3  2  2  0  0  0  0
  4  3  1  0  0  0  0
  5  4  2  0  0  0  0
  5  6  1  0  0  0  0
  6  1  2  0  0  0  0
  7  8  1  0  0  0  0
  7  5  1  0  0  0  0
  8 16  1  0  0  0  0
  8 15  1  0  0  0  0
  9 17  1  0  0  0  0
  9 18  1  0  0  0  0
  9  8  1  0  0  0  0
 10  9  1  0  0  0  0
 11 10  1  0  0  0  0
 11 12  1  0  0  0  0
 11 20  1  0  0  0  0
 12 22  1  6  0  0  0
 12  7  1  0  0  0  0
 19 10  1  0  0  0  0
 21 11  1  0  0  0  0
 23 24  1  0  0  0  0
 23 12  1  0  0  0  0
 24 25  1  0  0  0  0
 26 24  2  0  0  0  0
 27 26  1  0  0  0  0
 28 27  1  0  0  0  0
 29 27  2  0  0  0  0
 29 31  1  0  0  0  0
 30 29  1  0  0  0  0
 31 23  2  0  0  0  0
 32 33  1  0  0  0  0
 34 32  1  0  0  0  0
 35 32  1  0  0  0  0
M  END
>  <minimizedAffinity>
-5.32036734

$$$$

 OpenBabel03272505353D

 35 37  0  0  1  0  0  0  0  0999 V2000
   38.2220   24.1590   35.5650 C   0  0  0  0  0  0  0  0  0  0  0  0
   37.6340   25.3550   35.9450 C   0  0  0  0  0  0  0  0  0  0  0  0
   37.3990   26.3130   34.9460 C   0  0  0  0  0  0  0  0  0  0  0  0
   37.7670   26.0000   33.6600 N   0  0  0  0  0  0  0  0  0  0  0  0
   38.3330   24.8270   33.3440 C   0  0  0  0  0  0  0  0  0  0  0  0
   38.5550   23.9250   34.2850 N   0  0  0  0  0  0  0  0  0  0  0  0
   38.6690   24.6230   31.9810 N   0  0  0  0  0  0  0  0  0  0  0  0
   39.9770   25.0180   31.5070 C   0  0  0  0  0  0  0  0  0  0  0  0
   39.8860   25.6920   30.1500 C   0  0  0  0  0  0  0  0  0  0  0  0
   39.0510   24.9640   29.2350 N   0  0  0  0  0  0  0  0  0  0  0  0
   38.5240   23.7540   29.7600 C   0  0  0  0  0  0  0  0  0  0  0  0
   37.7240   24.0230   31.0410 C   0  0  1  0  0  0  0  0  0  0  0  0
   37.3460   25.5940   36.9620 H   0  0  0  0  0  0  0  0  0  0  0  0
   36.9470   27.2700   35.1460 H   0  0  0  0  0  0  0  0  0  0  0  0
   40.4770   25.7010   32.2080 H   0  0  0  0  0  0  0  0  0  0  0  0
   40.6540   24.1210   31.3940 H   0  0  0  0  0  0  0  0  0  0  0  0
   39.5170   26.7410   30.3180 H   0  0  0  0  0  0  0  0  0  0  0  0
   40.9120   25.8040   29.7510 H   0  0  0  0  0  0  0  0  0  0  0  0
   38.2410   25.5800   28.9840 H   0  0  0  0  0  0  0  0  0  0  0  0
   39.3580   23.0990   30.0970 H   0  0  0  0  0  0  0  0  0  0  0  0
   37.9210   23.2530   28.9970 H   0  0  0  0  0  0  0  0  0  0  0  0
   37.0070   24.8270   30.7740 H   0  0  0  0  0  0  0  0  0  0  0  0
   37.1020   22.7940   31.5540 C   0  0  0  0  0  0  0  0  0  0  0  0
   37.9510   21.6970   31.6520 C   0  0  0  0  0  0  0  0  0  0  0  0
   38.9910   21.6820   31.3890 H   0  0  0  0  0  0  0  0  0  0  0  0
   37.4470   20.4980   32.1270 C   0  0  0  0  0  3  0  0  0  0  0  0
   36.1160   20.4370   32.4850 C   0  0  0  0  0  0  0  0  0  0  0  0
   35.6860   19.5220   32.8590 H   0  0  0  0  0  0  0  0  0  0  0  0
   35.2350   21.5230   32.3990 C   0  0  0  0  0  0  0  0  0  0  0  0
   34.1990   21.4200   32.6940 H   0  0  0  0  0  0  0  0  0  0  0  0
   35.7670   22.7240   31.9170 C   0  0  0  0  0  3  0  0  0  0  0  0
   38.4790   23.1260   36.6200 C   0  0  0  0  0  0  0  0  0  0  0  0
   39.7250   23.3260   37.1890 F   0  0  0  0  0  0  0  0  0  0  0  0
   37.4390   23.1540   37.5060 F   0  0  0  0  0  0  0  0  0  0  0  0
   38.5340   21.8840   35.9610 F   0  0  0  0  0  0  0  0  0  0  0  0
  1  2  1  0  0  0  0
  1 32  1  0  0  0  0
  2 13  1  0  0  0  0
  3 14  1  0  0  0  0
  3  2  2  0  0  0  0
  4  3  1  0  0  0  0
  5  4  2  0  0  0  0
  5  6  1  0  0  0  0
  6  1  2  0  0  0  0
  7  5  1  0  0  0  0
  8  7  1  0  0  0  0
  8 15  1  0  0  0  0
  9 17  1  0  0  0  0
  9  8  1  0  0  0  0
 10 11  1  0  0  0  0
 10  9  1  0  0  0  0
 11 20  1  0  0  0  0
 11 12  1  0  0  0  0
 12 22  1  6  0  0  0
 12 23  1  0  0  0  0
 12  7  1  0  0  0  0
 16  8  1  0  0  0  0
 18  9  1  0  0  0  0
 19 10  1  0  0  0  0
 21 11  1  0  0  0  0
 23 24  2  0  0  0  0
 23 31  1  0  0  0  0
 24 26  1  0  0  0  0
 25 24  1  0  0  0  0
 26 27  2  0  0  0  0
 27 28  1  0  0  0  0
 29 27  1  0  0  0  0
 29 30  1  0  0  0  0
 31 29  2  0  0  0  0
 32 33  1  0  0  0  0
 32 34  1  0  0  0  0
 35 32  1  0  0  0  0
M  END
>  <minimizedAffinity>
-5.3141489

$$$$

 OpenBabel03272505353D

 35 37  0  0  1  0  0  0  0  0999 V2000
   37.0730   26.5960   32.2380 C   0  0  0  0  0  0  0  0  0  0  0  0
   38.2220   27.3410   32.0270 C   0  0  0  0  0  0  0  0  0  0  0  0
   39.3660   27.0020   32.7670 C   0  0  0  0  0  0  0  0  0  0  0  0
   39.2690   25.9540   33.6510 N   0  0  0  0  0  0  0  0  0  0  0  0
   38.1320   25.2630   33.8180 C   0  0  0  0  0  0  0  0  0  0  0  0
   37.0550   25.5840   33.1210 N   0  0  0  0  0  0  0  0  0  0  0  0
   38.1580   24.2040   34.7610 N   0  0  0  0  0  0  0  0  0  0  0  0
   37.8210   24.4750   36.1410 C   0  0  0  0  0  0  0  0  0  0  0  0
   38.7640   23.7520   37.0850 C   0  0  0  0  0  0  0  0  0  0  0  0
   38.9550   22.3770   36.7170 N   0  0  0  0  0  0  0  0  0  0  0  0
   38.2000   21.9630   35.5870 C   0  0  0  0  0  0  0  0  0  0  0  0
   38.5180   22.8420   34.3710 C   0  0  1  0  0  0  0  0  0  0  0  0
   38.2900   28.1660   31.3280 H   0  0  0  0  0  0  0  0  0  0  0  0
   40.3030   27.5240   32.6700 H   0  0  0  0  0  0  0  0  0  0  0  0
   37.8520   25.5500   36.3660 H   0  0  0  0  0  0  0  0  0  0  0  0
   36.7730   24.1270   36.3770 H   0  0  0  0  0  0  0  0  0  0  0  0
   39.7310   24.3260   37.1020 H   0  0  0  0  0  0  0  0  0  0  0  0
   38.3570   23.8380   38.1110 H   0  0  0  0  0  0  0  0  0  0  0  0
   39.9690   22.2480   36.4850 H   0  0  0  0  0  0  0  0  0  0  0  0
   37.1180   22.1460   35.7750 H   0  0  0  0  0  0  0  0  0  0  0  0
   38.3850   20.9030   35.3880 H   0  0  0  0  0  0  0  0  0  0  0  0
   39.6250   22.8310   34.2860 H   0  0  0  0  0  0  0  0  0  0  0  0
   37.8070   22.3780   33.1720 C   0  0  0  0  0  0  0  0  0  0  0  0
   36.5240   21.8920   33.3950 C   0  0  0  0  0  0  0  0  0  0  0  0
   36.0310   21.8320   34.3470 H   0  0  0  0  0  0  0  0  0  0  0  0
   35.7820   21.4330   32.3190 C   0  0  0  0  0  3  0  0  0  0  0  0
   36.3480   21.4770   31.0610 C   0  0  0  0  0  0  0  0  0  0  0  0
   35.8030   21.1300   30.1980 H   0  0  0  0  0  0  0  0  0  0  0  0
   37.6370   21.9610   30.8030 C   0  0  0  0  0  0  0  0  0  0  0  0
   38.0320   21.9720   29.7950 H   0  0  0  0  0  0  0  0  0  0  0  0
   38.3670   22.4180   31.9050 C   0  0  0  0  0  3  0  0  0  0  0  0
   35.8440   26.9460   31.4560 C   0  0  0  0  0  0  0  0  0  0  0  0
   35.1350   25.7990   31.1430 F   0  0  0  0  0  0  0  0  0  0  0  0
   35.1360   27.8750   32.1660 F   0  0  0  0  0  0  0  0  0  0  0  0
   36.2860   27.4890   30.2360 F   0  0  0  0  0  0  0  0  0  0  0  0
  1  6  1  0  0  0  0
  2  1  2  0  0  0  0
  2  3  1  0  0  0  0
  3  4  2  0  0  0  0
  4  5  1  0  0  0  0
  5  7  1  0  0  0  0
  6  5  2  0  0  0  0
  7  8  1  0  0  0  0
  8 15  1  0  0  0  0
  8 16  1  0  0  0  0
  8  9  1  0  0  0  0
  9 17  1  0  0  0  0
  9 18  1  0  0  0  0
 10  9  1  0  0  0  0
 11 20  1  0  0  0  0
 11 10  1  0  0  0  0
 12 22  1  6  0  0  0
 12  7  1  0  0  0  0
 12 11  1  0  0  0  0
 13  2  1  0  0  0  0
 14  3  1  0  0  0  0
 19 10  1  0  0  0  0
 21 11  1  0  0  0  0
 23 24  1  0  0  0  0
 23 12  1  0  0  0  0
 24 25  1  0  0  0  0
 26 24  2  0  0  0  0
 27 26  1  0  0  0  0
 28 27  1  0  0  0  0
 29 27  2  0  0  0  0
 29 31  1  0  0  0  0
 30 29  1  0  0  0  0
 31 23  2  0  0  0  0
 32 34  1  0  0  0  0
 32  1  1  0  0  0  0
 33 32  1  0  0  0  0
 35 32  1  0  0  0  0
M  END
>  <minimizedAffinity>
-5.29485226

$$$$
