
 OpenBabel03272510173D

 28 30  0  0  0  0  0  0  0  0999 V2000
   37.4660   29.2060   50.8590 Br  0  0  0  0  0  0  0  0  0  0  0  0
   36.0480   29.2830   49.5900 C   0  0  0  0  0  0  0  0  0  0  0  0
   36.0080   30.2670   48.6220 C   0  0  0  0  0  0  0  0  0  0  0  0
   34.9440   30.2640   47.7330 C   0  0  0  0  0  0  0  0  0  0  0  0
   33.9330   29.3270   47.7760 C   0  0  0  0  0  0  0  0  0  0  0  0
   33.9980   28.3640   48.7460 C   0  0  0  0  0  0  0  0  0  0  0  0
   35.0480   28.3510   49.6370 C   0  0  0  0  0  0  0  0  0  0  0  0
   34.9510   31.0600   46.9820 H   0  0  0  0  0  0  0  0  0  0  0  0
   33.2390   27.5970   48.8380 H   0  0  0  0  0  0  0  0  0  0  0  0
   35.0740   27.5770   50.3950 H   0  0  0  0  0  0  0  0  0  0  0  0
   38.0230   33.1950   49.4330 C   0  0  0  0  0  0  0  0  0  0  0  0
   39.0420   33.2060   48.4490 C   0  0  0  0  0  0  0  0  0  0  0  0
   39.0100   32.1840   47.5110 C   0  0  0  0  0  0  0  0  0  0  0  0
   38.0230   31.2320   47.5730 N   0  0  0  0  0  0  0  0  0  0  0  0
   37.0620   31.2710   48.5490 C   0  0  0  0  0  0  0  0  0  0  0  0
   37.0760   32.2520   49.4650 N   0  0  0  0  0  0  0  0  0  0  0  0
   37.9650   33.9530   50.2080 H   0  0  0  0  0  0  0  0  0  0  0  0
   39.7810   33.9790   48.4590 H   0  0  0  0  0  0  0  0  0  0  0  0
   39.7660   32.1450   46.7360 H   0  0  0  0  0  0  0  0  0  0  0  0
   32.8360   29.3640   46.8210 C   0  0  0  0  0  0  0  0  0  0  0  0
   32.0100   28.2350   46.8090 C   0  0  0  0  0  0  0  0  0  0  0  0
   32.1760   27.4010   47.4590 H   0  0  0  0  0  0  0  0  0  0  0  0
   30.9330   28.1390   45.9510 C   0  0  0  0  0  3  0  0  0  0  0  0
   30.6500   29.1690   45.0800 C   0  0  0  0  0  0  0  0  0  0  0  0
   29.7880   29.0660   44.4110 H   0  0  0  0  0  0  0  0  0  0  0  0
   31.4680   30.2960   45.0880 C   0  0  0  0  0  0  0  0  0  0  0  0
   31.2540   31.0950   44.4170 H   0  0  0  0  0  0  0  0  0  0  0  0
   32.5510   30.3930   45.9500 C   0  0  0  0  0  3  0  0  0  0  0  0
  2  7  1  0  0  0  0
  2  1  1  0  0  0  0
  3  2  2  0  0  0  0
  4  5  2  0  0  0  0
  4  3  1  0  0  0  0
  5  6  1  0  0  0  0
  6  9  1  0  0  0  0
  6  7  2  0  0  0  0
  7 10  1  0  0  0  0
  8  4  1  0  0  0  0
 11 16  1  0  0  0  0
 11 17  1  0  0  0  0
 12 18  1  0  0  0  0
 12 11  2  0  0  0  0
 13 14  2  0  0  0  0
 13 12  1  0  0  0  0
 14 15  1  0  0  0  0
 15  3  1  0  0  0  0
 15 16  2  0  0  0  0
 19 13  1  0  0  0  0
 20  5  1  0  0  0  0
 21 20  1  0  0  0  0
 21 22  1  0  0  0  0
 23 21  2  0  0  0  0
 24 26  2  0  0  0  0
 24 23  1  0  0  0  0
 25 24  1  0  0  0  0
 26 28  1  0  0  0  0
 27 26  1  0  0  0  0
 28 20  2  0  0  0  0
M  END
>  <minimizedAffinity>
-5.89595413

>  <minimizedRMSD>
0.306604445

$$$$
