
 OpenBabel03272510073D

 30 32  0  0  0  0  0  0  0  0999 V2000
   37.7640   25.1430   33.8930 C   0  0  0  0  0  0  0  0  0  0  0  0
   38.0710   25.5220   35.2050 C   0  0  0  0  0  0  0  0  0  0  0  0
   37.8340   26.8460   35.5920 C   0  0  0  0  0  0  0  0  0  0  0  0
   37.3160   27.7000   34.6680 N   0  0  0  0  0  0  0  0  0  0  0  0
   37.0310   27.3130   33.4200 C   0  0  0  0  0  0  0  0  0  0  0  0
   37.2510   26.0420   33.0250 N   0  0  0  0  0  0  0  0  0  0  0  0
   36.4810   28.2710   32.4980 N   0  0  0  0  0  0  0  0  0  0  0  0
   35.2390   28.9910   32.7390 C   0  0  0  0  0  0  0  0  0  0  0  0
   35.1790   30.0090   31.6620 C   0  0  0  0  0  0  0  0  0  0  0  0
   36.5380   30.0150   31.0090 C   0  0  0  0  0  0  0  0  0  0  0  0
   37.0770   28.6410   31.2250 C   0  0  0  0  0  0  0  0  0  0  0  0
   37.9480   24.1290   33.6100 H   0  0  0  0  0  0  0  0  0  0  0  0
   38.0500   27.1940   36.5940 H   0  0  0  0  0  0  0  0  0  0  0  0
   34.3730   28.3360   32.8390 H   0  0  0  0  0  0  0  0  0  0  0  0
   35.3810   29.4580   33.7560 H   0  0  0  0  0  0  0  0  0  0  0  0
   35.0380   31.0100   32.1500 H   0  0  0  0  0  0  0  0  0  0  0  0
   34.3400   29.8300   30.9550 H   0  0  0  0  0  0  0  0  0  0  0  0
   37.1780   30.8380   31.3270 H   0  0  0  0  0  0  0  0  0  0  0  0
   36.3590   30.1510   29.9130 H   0  0  0  0  0  0  0  0  0  0  0  0
   38.1810   28.6710   31.3930 H   0  0  0  0  0  0  0  0  0  0  0  0
   36.8580   27.9170   30.4230 H   0  0  0  0  0  0  0  0  0  0  0  0
   38.6270   24.5870   36.1710 C   0  0  0  0  0  0  0  0  0  0  0  0
   39.7500   23.8800   35.8210 C   0  0  0  0  0  0  0  0  0  0  0  0
   40.2630   23.9610   34.8790 H   0  0  0  0  0  0  0  0  0  0  0  0
   40.2850   22.9860   36.7370 C   0  0  0  0  0  3  0  0  0  0  0  0
   39.7220   22.7920   37.9770 C   0  0  0  0  0  0  0  0  0  0  0  0
   40.1720   22.0790   38.6690 H   0  0  0  0  0  0  0  0  0  0  0  0
   38.5870   23.5180   38.3120 C   0  0  0  0  0  0  0  0  0  0  0  0
   38.1290   23.3710   39.2970 H   0  0  0  0  0  0  0  0  0  0  0  0
   38.0490   24.4100   37.4070 C   0  0  0  0  0  3  0  0  0  0  0  0
  1  2  1  0  0  0  0
  2  3  2  0  0  0  0
  2 22  1  0  0  0  0
  3 13  1  0  0  0  0
  4  3  1  0  0  0  0
  5  4  2  0  0  0  0
  6  5  1  0  0  0  0
  6  1  2  0  0  0  0
  7  8  1  0  0  0  0
  7  5  1  0  0  0  0
  8 14  1  0  0  0  0
  8 15  1  0  0  0  0
  9 16  1  0  0  0  0
  9  8  1  0  0  0  0
 10 11  1  0  0  0  0
 10 18  1  0  0  0  0
 10  9  1  0  0  0  0
 11 20  1  0  0  0  0
 11  7  1  0  0  0  0
 12  1  1  0  0  0  0
 17  9  1  0  0  0  0
 19 10  1  0  0  0  0
 21 11  1  0  0  0  0
 22 30  1  0  0  0  0
 23 22  2  0  0  0  0
 23 25  1  0  0  0  0
 24 23  1  0  0  0  0
 25 26  2  0  0  0  0
 26 28  1  0  0  0  0
 26 27  1  0  0  0  0
 28 29  1  0  0  0  0
 30 28  2  0  0  0  0
M  END
>  <minimizedAffinity>
-5.22193098

$$$$

 OpenBabel03272510073D

 30 32  0  0  0  0  0  0  0  0999 V2000
   37.2490   23.6960   32.5150 C   0  0  0  0  0  0  0  0  0  0  0  0
   36.1750   23.0460   31.8970 C   0  0  0  0  0  0  0  0  0  0  0  0
   35.2320   23.8170   31.2070 C   0  0  0  0  0  0  0  0  0  0  0  0
   35.4100   25.1650   31.1740 N   0  0  0  0  0  0  0  0  0  0  0  0
   36.4460   25.7630   31.7730 C   0  0  0  0  0  0  0  0  0  0  0  0
   37.3660   25.0390   32.4440 N   0  0  0  0  0  0  0  0  0  0  0  0
   36.5710   27.1950   31.6930 N   0  0  0  0  0  0  0  0  0  0  0  0
   36.6630   27.9190   30.4340 C   0  0  0  0  0  0  0  0  0  0  0  0
   36.5520   29.3480   30.8140 C   0  0  0  0  0  0  0  0  0  0  0  0
   36.1160   29.3700   32.2560 C   0  0  0  0  0  0  0  0  0  0  0  0
   36.6240   28.0920   32.8340 C   0  0  0  0  0  0  0  0  0  0  0  0
   37.9620   23.0950   33.0380 H   0  0  0  0  0  0  0  0  0  0  0  0
   34.3830   23.3670   30.7080 H   0  0  0  0  0  0  0  0  0  0  0  0
   37.5320   27.6400   29.8370 H   0  0  0  0  0  0  0  0  0  0  0  0
   35.7680   27.5670   29.8440 H   0  0  0  0  0  0  0  0  0  0  0  0
   35.7220   29.7970   30.2060 H   0  0  0  0  0  0  0  0  0  0  0  0
   37.4900   29.9140   30.6180 H   0  0  0  0  0  0  0  0  0  0  0  0
   35.0530   29.5710   32.3940 H   0  0  0  0  0  0  0  0  0  0  0  0
   36.6690   30.2160   32.7390 H   0  0  0  0  0  0  0  0  0  0  0  0
   35.9060   27.6850   33.5870 H   0  0  0  0  0  0  0  0  0  0  0  0
   37.6270   28.1470   33.2900 H   0  0  0  0  0  0  0  0  0  0  0  0
   36.0080   21.6010   31.9510 C   0  0  0  0  0  0  0  0  0  0  0  0
   35.6140   21.0350   33.1380 C   0  0  0  0  0  0  0  0  0  0  0  0
   35.4120   21.5770   34.0450 H   0  0  0  0  0  0  0  0  0  0  0  0
   35.4550   19.6580   33.1970 C   0  0  0  0  0  3  0  0  0  0  0  0
   35.6810   18.8520   32.1060 C   0  0  0  0  0  0  0  0  0  0  0  0
   35.5460   17.7740   32.1930 H   0  0  0  0  0  0  0  0  0  0  0  0
   36.0790   19.4450   30.9150 C   0  0  0  0  0  0  0  0  0  0  0  0
   36.2630   18.8130   30.0380 H   0  0  0  0  0  0  0  0  0  0  0  0
   36.2380   20.8140   30.8470 C   0  0  0  0  0  3  0  0  0  0  0  0
  1 12  1  0  0  0  0
  2 22  1  0  0  0  0
  2  1  2  0  0  0  0
  3  2  1  0  0  0  0
  4  3  2  0  0  0  0
  4  5  1  0  0  0  0
  5  6  2  0  0  0  0
  6  1  1  0  0  0  0
  7  5  1  0  0  0  0
  7 11  1  0  0  0  0
  8  9  1  0  0  0  0
  8  7  1  0  0  0  0
  9 10  1  0  0  0  0
 10 18  1  0  0  0  0
 10 19  1  0  0  0  0
 10 11  1  0  0  0  0
 11 21  1  0  0  0  0
 11 20  1  0  0  0  0
 13  3  1  0  0  0  0
 14  8  1  0  0  0  0
 15  8  1  0  0  0  0
 16  9  1  0  0  0  0
 17  9  1  0  0  0  0
 22 23  1  0  0  0  0
 23 25  2  0  0  0  0
 23 24  1  0  0  0  0
 26 27  1  0  0  0  0
 26 25  1  0  0  0  0
 28 26  2  0  0  0  0
 29 28  1  0  0  0  0
 30 28  1  0  0  0  0
 30 22  2  0  0  0  0
M  END
>  <minimizedAffinity>
-5.15782118

$$$$

 OpenBabel03272510073D

 30 32  0  0  0  0  0  0  0  0999 V2000
   34.9850   28.9640   32.7380 C   0  0  0  0  0  0  0  0  0  0  0  0
   35.5140   29.1400   34.0220 C   0  0  0  0  0  0  0  0  0  0  0  0
   36.4970   28.2490   34.4680 C   0  0  0  0  0  0  0  0  0  0  0  0
   36.8880   27.2530   33.6290 N   0  0  0  0  0  0  0  0  0  0  0  0
   36.3660   27.1060   32.4060 C   0  0  0  0  0  0  0  0  0  0  0  0
   35.4180   27.9520   31.9550 N   0  0  0  0  0  0  0  0  0  0  0  0
   36.8310   26.0300   31.5710 N   0  0  0  0  0  0  0  0  0  0  0  0
   38.2240   25.8650   31.1810 C   0  0  0  0  0  0  0  0  0  0  0  0
   38.2770   24.5350   30.5280 C   0  0  0  0  0  0  0  0  0  0  0  0
   36.9590   23.8660   30.8230 C   0  0  0  0  0  0  0  0  0  0  0  0
   35.9910   24.9850   31.0120 C   0  0  0  0  0  0  0  0  0  0  0  0
   34.2360   29.6510   32.4080 H   0  0  0  0  0  0  0  0  0  0  0  0
   36.9430   28.3400   35.4510 H   0  0  0  0  0  0  0  0  0  0  0  0
   38.6130   26.7070   30.6060 H   0  0  0  0  0  0  0  0  0  0  0  0
   38.7890   25.8810   32.1570 H   0  0  0  0  0  0  0  0  0  0  0  0
   39.0780   23.9380   31.0400 H   0  0  0  0  0  0  0  0  0  0  0  0
   38.5140   24.6040   29.4430 H   0  0  0  0  0  0  0  0  0  0  0  0
   37.0070   23.1300   31.6250 H   0  0  0  0  0  0  0  0  0  0  0  0
   36.6740   23.3110   29.8930 H   0  0  0  0  0  0  0  0  0  0  0  0
   35.2410   24.7300   31.8010 H   0  0  0  0  0  0  0  0  0  0  0  0
   35.4560   25.3050   30.1020 H   0  0  0  0  0  0  0  0  0  0  0  0
   35.0750   30.2140   34.9000 C   0  0  0  0  0  0  0  0  0  0  0  0
   33.7290   30.3670   35.1180 C   0  0  0  0  0  0  0  0  0  0  0  0
   32.9590   29.7510   34.6890 H   0  0  0  0  0  0  0  0  0  0  0  0
   33.3030   31.3900   35.9530 C   0  0  0  0  0  3  0  0  0  0  0  0
   34.1890   32.2470   36.5630 C   0  0  0  0  0  0  0  0  0  0  0  0
   33.8150   33.0390   37.2120 H   0  0  0  0  0  0  0  0  0  0  0  0
   35.5470   32.0730   36.3300 C   0  0  0  0  0  0  0  0  0  0  0  0
   36.2630   32.7510   36.8100 H   0  0  0  0  0  0  0  0  0  0  0  0
   35.9790   31.0580   35.5020 C   0  0  0  0  0  3  0  0  0  0  0  0
  1  2  1  0  0  0  0
  2  3  2  0  0  0  0
  2 22  1  0  0  0  0
  3 13  1  0  0  0  0
  4  3  1  0  0  0  0
  5  4  2  0  0  0  0
  6  5  1  0  0  0  0
  6  1  2  0  0  0  0
  7  5  1  0  0  0  0
  8  7  1  0  0  0  0
  8 15  1  0  0  0  0
  9 10  1  0  0  0  0
  9 16  1  0  0  0  0
  9  8  1  0  0  0  0
 10 11  1  0  0  0  0
 10 18  1  0  0  0  0
 11  7  1  0  0  0  0
 11 20  1  0  0  0  0
 12  1  1  0  0  0  0
 14  8  1  0  0  0  0
 17  9  1  0  0  0  0
 19 10  1  0  0  0  0
 21 11  1  0  0  0  0
 22 23  2  0  0  0  0
 22 30  1  0  0  0  0
 23 25  1  0  0  0  0
 24 23  1  0  0  0  0
 25 26  2  0  0  0  0
 26 27  1  0  0  0  0
 28 26  1  0  0  0  0
 28 29  1  0  0  0  0
 30 28  2  0  0  0  0
M  END
>  <minimizedAffinity>
-5.05903578

$$$$

 OpenBabel03272510073D

 30 32  0  0  0  0  0  0  0  0999 V2000
   37.0150   24.6890   32.5440 C   0  0  0  0  0  0  0  0  0  0  0  0
   36.1360   23.9920   31.7070 C   0  0  0  0  0  0  0  0  0  0  0  0
   35.2560   24.7250   30.9020 C   0  0  0  0  0  0  0  0  0  0  0  0
   35.3000   26.0820   30.9770 N   0  0  0  0  0  0  0  0  0  0  0  0
   36.1490   26.7250   31.7860 C   0  0  0  0  0  0  0  0  0  0  0  0
   37.0060   26.0400   32.5700 N   0  0  0  0  0  0  0  0  0  0  0  0
   36.1410   28.1640   31.8090 N   0  0  0  0  0  0  0  0  0  0  0  0
   36.3780   28.9840   30.6290 C   0  0  0  0  0  0  0  0  0  0  0  0
   36.0590   30.3660   31.0620 C   0  0  0  0  0  0  0  0  0  0  0  0
   35.3780   30.2430   32.4010 C   0  0  0  0  0  0  0  0  0  0  0  0
   35.9040   28.9770   32.9890 C   0  0  0  0  0  0  0  0  0  0  0  0
   37.6830   24.1190   33.1530 H   0  0  0  0  0  0  0  0  0  0  0  0
   34.5560   24.2380   30.2340 H   0  0  0  0  0  0  0  0  0  0  0  0
   37.3610   28.8270   30.1850 H   0  0  0  0  0  0  0  0  0  0  0  0
   35.6400   28.5970   29.8690 H   0  0  0  0  0  0  0  0  0  0  0  0
   35.3060   30.7810   30.3400 H   0  0  0  0  0  0  0  0  0  0  0  0
   36.9540   31.0250   31.0710 H   0  0  0  0  0  0  0  0  0  0  0  0
   34.2920   30.3380   32.3550 H   0  0  0  0  0  0  0  0  0  0  0  0
   35.7500   31.0980   33.0220 H   0  0  0  0  0  0  0  0  0  0  0  0
   35.1100   28.4540   33.5760 H   0  0  0  0  0  0  0  0  0  0  0  0
   36.8010   29.0880   33.6210 H   0  0  0  0  0  0  0  0  0  0  0  0
   36.1100   22.5380   31.6500 C   0  0  0  0  0  0  0  0  0  0  0  0
   35.0660   21.8820   32.2530 C   0  0  0  0  0  0  0  0  0  0  0  0
   34.2520   22.3580   32.7700 H   0  0  0  0  0  0  0  0  0  0  0  0
   35.0350   20.4960   32.2040 C   0  0  0  0  0  3  0  0  0  0  0  0
   36.0170   19.7690   31.5720 C   0  0  0  0  0  0  0  0  0  0  0  0
   35.9570   18.6800   31.5550 H   0  0  0  0  0  0  0  0  0  0  0  0
   37.0630   20.4530   30.9670 C   0  0  0  0  0  0  0  0  0  0  0  0
   37.8520   19.8840   30.4610 H   0  0  0  0  0  0  0  0  0  0  0  0
   37.1010   21.8310   31.0110 C   0  0  0  0  0  3  0  0  0  0  0  0
  1  6  1  0  0  0  0
  1 12  1  0  0  0  0
  2  1  2  0  0  0  0
  3  4  2  0  0  0  0
  3  2  1  0  0  0  0
  4  5  1  0  0  0  0
  5  7  1  0  0  0  0
  5  6  2  0  0  0  0
  7 11  1  0  0  0  0
  8  9  1  0  0  0  0
  8  7  1  0  0  0  0
  9 17  1  0  0  0  0
  9 10  1  0  0  0  0
 10 11  1  0  0  0  0
 10 19  1  0  0  0  0
 11 20  1  0  0  0  0
 11 21  1  0  0  0  0
 13  3  1  0  0  0  0
 14  8  1  0  0  0  0
 15  8  1  0  0  0  0
 16  9  1  0  0  0  0
 18 10  1  0  0  0  0
 22  2  1  0  0  0  0
 22 23  1  0  0  0  0
 23 24  1  0  0  0  0
 25 23  2  0  0  0  0
 26 25  1  0  0  0  0
 27 26  1  0  0  0  0
 28 30  1  0  0  0  0
 28 26  2  0  0  0  0
 29 28  1  0  0  0  0
 30 22  2  0  0  0  0
M  END
>  <minimizedAffinity>
-4.96585417

$$$$

 OpenBabel03272510073D

 30 32  0  0  0  0  0  0  0  0999 V2000
   37.2910   25.4790   32.0870 C   0  0  0  0  0  0  0  0  0  0  0  0
   36.2570   26.2260   31.5120 C   0  0  0  0  0  0  0  0  0  0  0  0
   35.1540   25.5450   30.9830 C   0  0  0  0  0  0  0  0  0  0  0  0
   35.1470   24.1870   31.0540 N   0  0  0  0  0  0  0  0  0  0  0  0
   36.1490   23.4960   31.6080 C   0  0  0  0  0  0  0  0  0  0  0  0
   37.2210   24.1310   32.1240 N   0  0  0  0  0  0  0  0  0  0  0  0
   36.0700   22.0590   31.6500 N   0  0  0  0  0  0  0  0  0  0  0  0
   34.9870   21.3370   32.3010 C   0  0  0  0  0  0  0  0  0  0  0  0
   35.1910   19.9210   31.9110 C   0  0  0  0  0  0  0  0  0  0  0  0
   36.2270   19.9290   30.8160 C   0  0  0  0  0  0  0  0  0  0  0  0
   37.0430   21.1540   31.0640 C   0  0  0  0  0  0  0  0  0  0  0  0
   38.1270   26.0110   32.4890 H   0  0  0  0  0  0  0  0  0  0  0  0
   34.3240   26.0720   30.5290 H   0  0  0  0  0  0  0  0  0  0  0  0
   34.9120   21.5430   33.3700 H   0  0  0  0  0  0  0  0  0  0  0  0
   34.0500   21.7710   31.8460 H   0  0  0  0  0  0  0  0  0  0  0  0
   34.2320   19.5520   31.4610 H   0  0  0  0  0  0  0  0  0  0  0  0
   35.4570   19.2760   32.7770 H   0  0  0  0  0  0  0  0  0  0  0  0
   35.8120   19.8220   29.8140 H   0  0  0  0  0  0  0  0  0  0  0  0
   36.8780   19.0350   30.9930 H   0  0  0  0  0  0  0  0  0  0  0  0
   37.3620   21.6180   30.0990 H   0  0  0  0  0  0  0  0  0  0  0  0
   37.9320   21.0070   31.7010 H   0  0  0  0  0  0  0  0  0  0  0  0
   36.2930   27.6790   31.4480 C   0  0  0  0  0  0  0  0  0  0  0  0
   35.8810   28.3900   32.5480 C   0  0  0  0  0  0  0  0  0  0  0  0
   35.5300   27.9570   33.4680 H   0  0  0  0  0  0  0  0  0  0  0  0
   35.9120   29.7760   32.4930 C   0  0  0  0  0  3  0  0  0  0  0  0
   36.3400   30.4500   31.3730 C   0  0  0  0  0  0  0  0  0  0  0  0
   36.3490   31.5400   31.3690 H   0  0  0  0  0  0  0  0  0  0  0  0
   36.7540   29.7120   30.2730 C   0  0  0  0  0  0  0  0  0  0  0  0
   37.0970   30.2380   29.3740 H   0  0  0  0  0  0  0  0  0  0  0  0
   36.7280   28.3330   30.3190 C   0  0  0  0  0  3  0  0  0  0  0  0
  1  6  1  0  0  0  0
  1 12  1  0  0  0  0
  2  1  2  0  0  0  0
  3  4  2  0  0  0  0
  3  2  1  0  0  0  0
  4  5  1  0  0  0  0
  5  7  1  0  0  0  0
  5  6  2  0  0  0  0
  7  8  1  0  0  0  0
  8 14  1  0  0  0  0
  9  8  1  0  0  0  0
  9 17  1  0  0  0  0
 10 19  1  0  0  0  0
 10 11  1  0  0  0  0
 10  9  1  0  0  0  0
 11  7  1  0  0  0  0
 11 21  1  0  0  0  0
 13  3  1  0  0  0  0
 15  8  1  0  0  0  0
 16  9  1  0  0  0  0
 18 10  1  0  0  0  0
 20 11  1  0  0  0  0
 22  2  1  0  0  0  0
 22 23  1  0  0  0  0
 23 24  1  0  0  0  0
 25 23  2  0  0  0  0
 26 25  1  0  0  0  0
 27 26  1  0  0  0  0
 28 30  1  0  0  0  0
 28 26  2  0  0  0  0
 29 28  1  0  0  0  0
 30 22  2  0  0  0  0
M  END
>  <minimizedAffinity>
-4.93346643

$$$$

 OpenBabel03272510073D

 30 32  0  0  0  0  0  0  0  0999 V2000
   37.4980   25.4690   33.6970 C   0  0  0  0  0  0  0  0  0  0  0  0
   37.7210   26.8080   34.0340 C   0  0  0  0  0  0  0  0  0  0  0  0
   38.7240   27.1060   34.9650 C   0  0  0  0  0  0  0  0  0  0  0  0
   39.4310   26.0720   35.4950 N   0  0  0  0  0  0  0  0  0  0  0  0
   39.1980   24.8000   35.1560 C   0  0  0  0  0  0  0  0  0  0  0  0
   38.2370   24.4900   34.2620 N   0  0  0  0  0  0  0  0  0  0  0  0
   39.9900   23.7580   35.7570 N   0  0  0  0  0  0  0  0  0  0  0  0
   41.4410   23.6970   35.6550 C   0  0  0  0  0  0  0  0  0  0  0  0
   41.8380   22.6160   36.5880 C   0  0  0  0  0  0  0  0  0  0  0  0
   40.6130   22.2880   37.4020 C   0  0  0  0  0  0  0  0  0  0  0  0
   39.4590   22.6480   36.5280 C   0  0  0  0  0  0  0  0  0  0  0  0
   36.7300   25.2540   32.9840 H   0  0  0  0  0  0  0  0  0  0  0  0
   38.9410   28.1240   35.2610 H   0  0  0  0  0  0  0  0  0  0  0  0
   41.7980   23.6110   34.6270 H   0  0  0  0  0  0  0  0  0  0  0  0
   41.7870   24.7110   36.0080 H   0  0  0  0  0  0  0  0  0  0  0  0
   42.6040   23.0390   37.2900 H   0  0  0  0  0  0  0  0  0  0  0  0
   42.2750   21.7400   36.0610 H   0  0  0  0  0  0  0  0  0  0  0  0
   40.6150   22.7270   38.4010 H   0  0  0  0  0  0  0  0  0  0  0  0
   40.6150   21.1770   37.5400 H   0  0  0  0  0  0  0  0  0  0  0  0
   38.6160   23.0610   37.1350 H   0  0  0  0  0  0  0  0  0  0  0  0
   39.0750   21.8300   35.8950 H   0  0  0  0  0  0  0  0  0  0  0  0
   36.9460   27.8930   33.4520 C   0  0  0  0  0  0  0  0  0  0  0  0
   36.1340   28.6290   34.2780 C   0  0  0  0  0  0  0  0  0  0  0  0
   36.0200   28.4700   35.3350 H   0  0  0  0  0  0  0  0  0  0  0  0
   35.3900   29.6640   33.7290 C   0  0  0  0  0  3  0  0  0  0  0  0
   35.4470   29.9690   32.3890 C   0  0  0  0  0  0  0  0  0  0  0  0
   34.8480   30.7900   31.9950 H   0  0  0  0  0  0  0  0  0  0  0  0
   36.2770   29.2130   31.5710 C   0  0  0  0  0  0  0  0  0  0  0  0
   36.3310   29.4460   30.5010 H   0  0  0  0  0  0  0  0  0  0  0  0
   37.0200   28.1820   32.1090 C   0  0  0  0  0  3  0  0  0  0  0  0
  1  2  2  0  0  0  0
  1  6  1  0  0  0  0
  2  3  1  0  0  0  0
  3 13  1  0  0  0  0
  3  4  2  0  0  0  0
  5  4  1  0  0  0  0
  5  7  1  0  0  0  0
  6  5  2  0  0  0  0
  7 11  1  0  0  0  0
  8  7  1  0  0  0  0
  8 15  1  0  0  0  0
  8  9  1  0  0  0  0
  9 16  1  0  0  0  0
  9 10  1  0  0  0  0
 10 19  1  0  0  0  0
 10 18  1  0  0  0  0
 11 20  1  0  0  0  0
 11 10  1  0  0  0  0
 12  1  1  0  0  0  0
 14  8  1  0  0  0  0
 17  9  1  0  0  0  0
 21 11  1  0  0  0  0
 22  2  1  0  0  0  0
 22 23  1  0  0  0  0
 23 24  1  0  0  0  0
 25 23  2  0  0  0  0
 26 25  1  0  0  0  0
 27 26  1  0  0  0  0
 28 30  1  0  0  0  0
 28 26  2  0  0  0  0
 29 28  1  0  0  0  0
 30 22  2  0  0  0  0
M  END
>  <minimizedAffinity>
-4.90722179

$$$$

 OpenBabel03272510073D

 30 32  0  0  0  0  0  0  0  0999 V2000
   38.7850   26.5430   35.7480 C   0  0  0  0  0  0  0  0  0  0  0  0
   38.7680   25.2100   35.3250 C   0  0  0  0  0  0  0  0  0  0  0  0
   38.0230   24.8780   34.1870 C   0  0  0  0  0  0  0  0  0  0  0  0
   37.3510   25.8740   33.5500 N   0  0  0  0  0  0  0  0  0  0  0  0
   37.3830   27.1420   33.9750 C   0  0  0  0  0  0  0  0  0  0  0  0
   38.0930   27.4840   35.0690 N   0  0  0  0  0  0  0  0  0  0  0  0
   36.6480   28.1430   33.2470 N   0  0  0  0  0  0  0  0  0  0  0  0
   36.8710   28.4320   31.8380 C   0  0  0  0  0  0  0  0  0  0  0  0
   35.7680   29.3490   31.4630 C   0  0  0  0  0  0  0  0  0  0  0  0
   34.7890   29.3250   32.6090 C   0  0  0  0  0  0  0  0  0  0  0  0
   35.6080   28.9870   33.8100 C   0  0  0  0  0  0  0  0  0  0  0  0
   39.3580   26.7840   36.6170 H   0  0  0  0  0  0  0  0  0  0  0  0
   37.9770   23.8630   33.8130 H   0  0  0  0  0  0  0  0  0  0  0  0
   37.8840   28.7750   31.6230 H   0  0  0  0  0  0  0  0  0  0  0  0
   36.7800   27.4290   31.3310 H   0  0  0  0  0  0  0  0  0  0  0  0
   35.2490   28.9070   30.5710 H   0  0  0  0  0  0  0  0  0  0  0  0
   36.1310   30.3670   31.2030 H   0  0  0  0  0  0  0  0  0  0  0  0
   33.9150   28.6980   32.4310 H   0  0  0  0  0  0  0  0  0  0  0  0
   34.4160   30.3740   32.7250 H   0  0  0  0  0  0  0  0  0  0  0  0
   35.0280   28.3430   34.5150 H   0  0  0  0  0  0  0  0  0  0  0  0
   36.0100   29.8520   34.3650 H   0  0  0  0  0  0  0  0  0  0  0  0
   39.4960   24.1640   36.0280 C   0  0  0  0  0  0  0  0  0  0  0  0
   38.9680   23.6790   37.1980 C   0  0  0  0  0  0  0  0  0  0  0  0
   38.0480   24.0090   37.6460 H   0  0  0  0  0  0  0  0  0  0  0  0
   39.6580   22.6830   37.8750 C   0  0  0  0  0  3  0  0  0  0  0  0
   40.8470   22.1740   37.4070 C   0  0  0  0  0  0  0  0  0  0  0  0
   41.3590   21.3930   37.9680 H   0  0  0  0  0  0  0  0  0  0  0  0
   41.3620   22.6790   36.2200 C   0  0  0  0  0  0  0  0  0  0  0  0
   42.3100   22.2830   35.8370 H   0  0  0  0  0  0  0  0  0  0  0  0
   40.6820   23.6690   35.5400 C   0  0  0  0  0  3  0  0  0  0  0  0
  1 12  1  0  0  0  0
  2  1  1  0  0  0  0
  2 22  1  0  0  0  0
  3  2  2  0  0  0  0
  4  5  2  0  0  0  0
  4  3  1  0  0  0  0
  5  6  1  0  0  0  0
  6  1  2  0  0  0  0
  7 11  1  0  0  0  0
  7  5  1  0  0  0  0
  8  7  1  0  0  0  0
  9  8  1  0  0  0  0
  9 10  1  0  0  0  0
 10 19  1  0  0  0  0
 10 11  1  0  0  0  0
 11 21  1  0  0  0  0
 11 20  1  0  0  0  0
 13  3  1  0  0  0  0
 14  8  1  0  0  0  0
 15  8  1  0  0  0  0
 16  9  1  0  0  0  0
 17  9  1  0  0  0  0
 18 10  1  0  0  0  0
 22 23  1  0  0  0  0
 23 24  1  0  0  0  0
 23 25  2  0  0  0  0
 26 25  1  0  0  0  0
 26 27  1  0  0  0  0
 28 26  2  0  0  0  0
 29 28  1  0  0  0  0
 30 22  2  0  0  0  0
 30 28  1  0  0  0  0
M  END
>  <minimizedAffinity>
-4.88159609

$$$$

 OpenBabel03272510073D

 30 32  0  0  0  0  0  0  0  0999 V2000
   38.3350   24.4660   33.6710 C   0  0  0  0  0  0  0  0  0  0  0  0
   38.4210   25.1710   34.8750 C   0  0  0  0  0  0  0  0  0  0  0  0
   38.3190   26.5670   34.8430 C   0  0  0  0  0  0  0  0  0  0  0  0
   38.1410   27.1670   33.6350 N   0  0  0  0  0  0  0  0  0  0  0  0
   38.0630   26.4690   32.4970 C   0  0  0  0  0  0  0  0  0  0  0  0
   38.1590   25.1240   32.5050 N   0  0  0  0  0  0  0  0  0  0  0  0
   37.8700   27.1730   31.2560 N   0  0  0  0  0  0  0  0  0  0  0  0
   36.7330   28.0450   30.9990 C   0  0  0  0  0  0  0  0  0  0  0  0
   37.0560   28.7150   29.7160 C   0  0  0  0  0  0  0  0  0  0  0  0
   38.5030   28.4080   29.4300 C   0  0  0  0  0  0  0  0  0  0  0  0
   38.7650   27.1080   30.1130 C   0  0  0  0  0  0  0  0  0  0  0  0
   38.4140   23.4000   33.7090 H   0  0  0  0  0  0  0  0  0  0  0  0
   38.3760   27.1640   35.7450 H   0  0  0  0  0  0  0  0  0  0  0  0
   35.7730   27.5290   31.0520 H   0  0  0  0  0  0  0  0  0  0  0  0
   36.7340   28.7660   31.8660 H   0  0  0  0  0  0  0  0  0  0  0  0
   36.9750   29.8220   29.8830 H   0  0  0  0  0  0  0  0  0  0  0  0
   36.3630   28.4210   28.8970 H   0  0  0  0  0  0  0  0  0  0  0  0
   39.1840   29.2240   29.6710 H   0  0  0  0  0  0  0  0  0  0  0  0
   38.5770   28.2430   28.3250 H   0  0  0  0  0  0  0  0  0  0  0  0
   39.8030   27.0810   30.5280 H   0  0  0  0  0  0  0  0  0  0  0  0
   38.6060   26.2090   29.4940 H   0  0  0  0  0  0  0  0  0  0  0  0
   38.6140   24.5020   36.1530 C   0  0  0  0  0  0  0  0  0  0  0  0
   37.8390   24.8930   37.2160 C   0  0  0  0  0  0  0  0  0  0  0  0
   37.0880   25.6620   37.1840 H   0  0  0  0  0  0  0  0  0  0  0  0
   38.0190   24.2600   38.4380 C   0  0  0  0  0  3  0  0  0  0  0  0
   38.9470   23.2610   38.6100 C   0  0  0  0  0  0  0  0  0  0  0  0
   39.0590   22.7880   39.5860 H   0  0  0  0  0  0  0  0  0  0  0  0
   39.7210   22.8800   37.5210 C   0  0  0  0  0  0  0  0  0  0  0  0
   40.4650   22.0850   37.6450 H   0  0  0  0  0  0  0  0  0  0  0  0
   39.5480   23.5030   36.3020 C   0  0  0  0  0  3  0  0  0  0  0  0
  1 12  1  0  0  0  0
  1  2  1  0  0  0  0
  2 22  1  0  0  0  0
  3  2  2  0  0  0  0
  3 13  1  0  0  0  0
  4  3  1  0  0  0  0
  5  6  1  0  0  0  0
  5  4  2  0  0  0  0
  6  1  2  0  0  0  0
  7  5  1  0  0  0  0
  8 14  1  0  0  0  0
  8  7  1  0  0  0  0
  8 15  1  0  0  0  0
  9 16  1  0  0  0  0
  9  8  1  0  0  0  0
 10 18  1  0  0  0  0
 10  9  1  0  0  0  0
 10 11  1  0  0  0  0
 11 20  1  0  0  0  0
 11  7  1  0  0  0  0
 17  9  1  0  0  0  0
 19 10  1  0  0  0  0
 21 11  1  0  0  0  0
 22 30  2  0  0  0  0
 22 23  1  0  0  0  0
 23 25  2  0  0  0  0
 24 23  1  0  0  0  0
 25 26  1  0  0  0  0
 26 27  1  0  0  0  0
 28 29  1  0  0  0  0
 28 26  2  0  0  0  0
 30 28  1  0  0  0  0
M  END
>  <minimizedAffinity>
-4.86703014

$$$$

 OpenBabel03272510073D

 30 32  0  0  0  0  0  0  0  0999 V2000
   37.4120   25.4530   33.1950 C   0  0  0  0  0  0  0  0  0  0  0  0
   38.0760   26.6790   33.0830 C   0  0  0  0  0  0  0  0  0  0  0  0
   39.1180   26.9600   33.9730 C   0  0  0  0  0  0  0  0  0  0  0  0
   39.4330   26.0220   34.9070 N   0  0  0  0  0  0  0  0  0  0  0  0
   38.7820   24.8570   34.9930 C   0  0  0  0  0  0  0  0  0  0  0  0
   37.7750   24.5650   34.1460 N   0  0  0  0  0  0  0  0  0  0  0  0
   39.1730   23.9100   36.0050 N   0  0  0  0  0  0  0  0  0  0  0  0
   40.5180   23.3620   36.1110 C   0  0  0  0  0  0  0  0  0  0  0  0
   40.5230   22.6250   37.3970 C   0  0  0  0  0  0  0  0  0  0  0  0
   39.2580   23.0190   38.1160 C   0  0  0  0  0  0  0  0  0  0  0  0
   38.2960   23.3820   37.0360 C   0  0  0  0  0  0  0  0  0  0  0  0
   36.6190   25.2490   32.5080 H   0  0  0  0  0  0  0  0  0  0  0  0
   39.6680   27.8930   33.9310 H   0  0  0  0  0  0  0  0  0  0  0  0
   40.8260   22.8020   35.2270 H   0  0  0  0  0  0  0  0  0  0  0  0
   41.1860   24.2700   36.1390 H   0  0  0  0  0  0  0  0  0  0  0  0
   41.3860   23.0090   38.0040 H   0  0  0  0  0  0  0  0  0  0  0  0
   40.6390   21.5280   37.2570 H   0  0  0  0  0  0  0  0  0  0  0  0
   39.4080   23.7640   38.8980 H   0  0  0  0  0  0  0  0  0  0  0  0
   38.8830   22.0930   38.6210 H   0  0  0  0  0  0  0  0  0  0  0  0
   37.6420   24.2300   37.3570 H   0  0  0  0  0  0  0  0  0  0  0  0
   37.6580   22.5570   36.6750 H   0  0  0  0  0  0  0  0  0  0  0  0
   37.7160   27.6660   32.0750 C   0  0  0  0  0  0  0  0  0  0  0  0
   38.5240   27.7960   30.9730 C   0  0  0  0  0  0  0  0  0  0  0  0
   39.4130   27.2210   30.7880 H   0  0  0  0  0  0  0  0  0  0  0  0
   38.1880   28.7360   30.0100 C   0  0  0  0  0  3  0  0  0  0  0  0
   37.0740   29.5340   30.1300 C   0  0  0  0  0  0  0  0  0  0  0  0
   36.8440   30.2610   29.3510 H   0  0  0  0  0  0  0  0  0  0  0  0
   36.2690   29.3850   31.2510 C   0  0  0  0  0  0  0  0  0  0  0  0
   35.3790   30.0160   31.3590 H   0  0  0  0  0  0  0  0  0  0  0  0
   36.5960   28.4520   32.2140 C   0  0  0  0  0  3  0  0  0  0  0  0
  1  6  1  0  0  0  0
  2  1  2  0  0  0  0
  2  3  1  0  0  0  0
  3  4  2  0  0  0  0
  4  5  1  0  0  0  0
  5  7  1  0  0  0  0
  6  5  2  0  0  0  0
  7  8  1  0  0  0  0
  7 11  1  0  0  0  0
  8 15  1  0  0  0  0
  8  9  1  0  0  0  0
  9 16  1  0  0  0  0
  9 10  1  0  0  0  0
 10 19  1  0  0  0  0
 10 18  1  0  0  0  0
 11 20  1  0  0  0  0
 11 10  1  0  0  0  0
 12  1  1  0  0  0  0
 13  3  1  0  0  0  0
 14  8  1  0  0  0  0
 17  9  1  0  0  0  0
 21 11  1  0  0  0  0
 22 30  1  0  0  0  0
 22  2  1  0  0  0  0
 23 22  2  0  0  0  0
 24 23  1  0  0  0  0
 25 26  2  0  0  0  0
 25 23  1  0  0  0  0
 26 28  1  0  0  0  0
 27 26  1  0  0  0  0
 28 29  1  0  0  0  0
 28 30  2  0  0  0  0
M  END
>  <minimizedAffinity>
-4.83844948

$$$$
