
 OpenBabel03272510173D

 28 30  0  0  0  0  0  0  0  0999 V2000
   37.4250   29.2100   50.8640 Br  0  0  0  0  0  0  0  0  0  0  0  0
   36.0300   29.2800   49.5700 C   0  0  0  0  0  0  0  0  0  0  0  0
   36.0060   30.2600   48.5980 C   0  0  0  0  0  0  0  0  0  0  0  0
   34.9570   30.2530   47.6900 C   0  0  0  0  0  0  0  0  0  0  0  0
   33.9470   29.3140   47.7190 C   0  0  0  0  0  0  0  0  0  0  0  0
   33.9960   28.3550   48.6940 C   0  0  0  0  0  0  0  0  0  0  0  0
   35.0300   28.3470   49.6030 C   0  0  0  0  0  0  0  0  0  0  0  0
   34.9760   31.0460   46.9360 H   0  0  0  0  0  0  0  0  0  0  0  0
   33.2370   27.5870   48.7750 H   0  0  0  0  0  0  0  0  0  0  0  0
   35.0450   27.5750   50.3640 H   0  0  0  0  0  0  0  0  0  0  0  0
   38.0100   33.1860   49.4430 C   0  0  0  0  0  0  0  0  0  0  0  0
   39.0380   33.2030   48.4680 C   0  0  0  0  0  0  0  0  0  0  0  0
   39.0160   32.1860   47.5250 C   0  0  0  0  0  0  0  0  0  0  0  0
   38.0290   31.2330   47.5730 N   0  0  0  0  0  0  0  0  0  0  0  0
   37.0600   31.2660   48.5400 C   0  0  0  0  0  0  0  0  0  0  0  0
   37.0640   32.2420   49.4610 N   0  0  0  0  0  0  0  0  0  0  0  0
   37.9450   33.9400   50.2200 H   0  0  0  0  0  0  0  0  0  0  0  0
   39.7760   33.9770   48.4890 H   0  0  0  0  0  0  0  0  0  0  0  0
   39.7800   32.1510   46.7560 H   0  0  0  0  0  0  0  0  0  0  0  0
   32.8670   29.3460   46.7440 C   0  0  0  0  0  0  0  0  0  0  0  0
   32.6810   30.5710   46.0930 C   0  0  0  0  0  0  0  0  0  0  0  0
   33.2920   31.4240   46.2980 H   0  0  0  0  0  0  0  0  0  0  0  0
   31.6920   30.7370   45.1450 C   0  0  0  0  0  3  0  0  0  0  0  0
   30.8590   29.6890   44.8210 C   0  0  0  0  0  0  0  0  0  0  0  0
   30.0830   29.8510   44.0650 H   0  0  0  0  0  0  0  0  0  0  0  0
   31.0400   28.4680   45.4670 C   0  0  0  0  0  0  0  0  0  0  0  0
   30.4000   27.6540   45.2200 H   0  0  0  0  0  0  0  0  0  0  0  0
   32.0340   28.2980   46.4190 C   0  0  0  0  0  3  0  0  0  0  0  0
  2  7  1  0  0  0  0
  2  1  1  0  0  0  0
  3  2  2  0  0  0  0
  4  5  2  0  0  0  0
  4  3  1  0  0  0  0
  5  6  1  0  0  0  0
  6  9  1  0  0  0  0
  6  7  2  0  0  0  0
  7 10  1  0  0  0  0
  8  4  1  0  0  0  0
 11 16  1  0  0  0  0
 11 17  1  0  0  0  0
 12 18  1  0  0  0  0
 12 11  2  0  0  0  0
 13 14  2  0  0  0  0
 13 12  1  0  0  0  0
 14 15  1  0  0  0  0
 15  3  1  0  0  0  0
 15 16  2  0  0  0  0
 19 13  1  0  0  0  0
 20  5  1  0  0  0  0
 21 22  1  0  0  0  0
 21 20  2  0  0  0  0
 23 21  1  0  0  0  0
 24 23  2  0  0  0  0
 24 26  1  0  0  0  0
 25 24  1  0  0  0  0
 26 28  2  0  0  0  0
 27 26  1  0  0  0  0
 28 20  1  0  0  0  0
M  END
>  <minimizedAffinity>
-5.94981813

>  <minimizedRMSD>
0.521890402

$$$$
