
 OpenBabel03272509053D

 33 35  0  0  0  0  0  0  0  0999 V2000
   37.4000   30.2380   51.4180 C   0  0  0  0  0  0  0  0  0  0  0  0
   37.9870   30.8990   50.3170 C   0  0  0  0  0  0  0  0  0  0  0  0
   37.4290   30.6840   49.0420 C   0  0  0  0  0  0  0  0  0  0  0  0
   36.3640   29.8500   48.9720 N   0  0  0  0  0  0  0  0  0  0  0  0
   35.8280   29.2340   50.0440 C   0  0  0  0  0  0  0  0  0  0  0  0
   36.3460   29.4280   51.2680 N   0  0  0  0  0  0  0  0  0  0  0  0
   37.8500   30.4200   52.4030 H   0  0  0  0  0  0  0  0  0  0  0  0
   38.8320   31.5550   50.3970 H   0  0  0  0  0  0  0  0  0  0  0  0
   37.9310   31.2980   47.8200 C   0  0  0  0  0  0  0  0  0  0  0  0
   37.2910   30.9500   46.6500 C   0  0  0  0  0  0  0  0  0  0  0  0
   36.4440   30.2490   46.5970 H   0  0  0  0  0  0  0  0  0  0  0  0
   37.7000   31.4870   45.4350 C   0  0  0  0  0  0  0  0  0  0  0  0
   38.7580   32.3740   45.4230 C   0  0  0  0  0  0  0  0  0  0  0  0
   39.0250   32.7540   44.4420 H   0  0  0  0  0  0  0  0  0  0  0  0
   39.3730   32.6980   46.6100 C   0  0  0  0  0  0  0  0  0  0  0  0
   40.1910   33.4020   46.4930 H   0  0  0  0  0  0  0  0  0  0  0  0
   38.9850   32.1830   47.8110 C   0  0  0  0  0  0  0  0  0  0  0  0
   34.6970   28.3850   49.7700 C   0  0  0  0  0  0  0  0  0  0  0  0
   34.3510   28.1500   48.5500 C   0  0  0  0  0  0  0  0  0  0  0  0
   33.2420   27.3220   48.0630 C   0  0  0  0  0  0  0  0  0  0  0  0
   32.4970   27.9560   47.5440 H   0  0  0  0  0  0  0  0  0  0  0  0
   32.7180   26.8220   48.9010 H   0  0  0  0  0  0  0  0  0  0  0  0
   33.6900   26.2950   47.0620 C   0  0  0  0  0  0  0  0  0  0  0  0
   33.9460   24.9710   47.3250 C   0  0  0  0  0  0  0  0  0  0  0  0
   34.3530   24.1340   46.3120 C   0  0  0  0  0  0  0  0  0  0  0  0
   34.5190   24.5830   45.0090 C   0  0  0  0  0  0  0  0  0  0  0  0
   34.2670   25.9070   44.7280 C   0  0  0  0  0  0  0  0  0  0  0  0
   33.8610   26.7390   45.7460 C   0  0  0  0  0  0  0  0  0  0  0  0
   33.7970   24.6880   48.3580 H   0  0  0  0  0  0  0  0  0  0  0  0
   34.5270   23.1070   46.6330 H   0  0  0  0  0  0  0  0  0  0  0  0
   34.8440   23.8710   44.2520 H   0  0  0  0  0  0  0  0  0  0  0  0
   34.3990   26.2510   43.7100 H   0  0  0  0  0  0  0  0  0  0  0  0
   33.6730   27.7750   45.4750 H   0  0  0  0  0  0  0  0  0  0  0  0
  1  7  1  0  0  0  0
  2  8  1  0  0  0  0
  2  1  2  0  0  0  0
  3  2  1  0  0  0  0
  4  3  2  0  0  0  0
  4  5  1  0  0  0  0
  5  6  2  0  0  0  0
  6  1  1  0  0  0  0
  9  3  1  0  0  0  0
 10  9  2  0  0  0  0
 11 10  1  0  0  0  0
 12 10  1  0  0  0  0
 13 12  2  0  0  0  0
 13 15  1  0  0  0  0
 14 13  1  0  0  0  0
 15 17  2  0  0  0  0
 16 15  1  0  0  0  0
 17  9  1  0  0  0  0
 18  5  1  0  0  0  0
 19 18  2  0  0  0  0
 20 19  1  0  0  0  0
 20 22  1  0  0  0  0
 21 20  1  0  0  0  0
 23 24  1  0  0  0  0
 23 20  1  0  0  0  0
 24 29  1  0  0  0  0
 25 30  1  0  0  0  0
 25 24  2  0  0  0  0
 26 25  1  0  0  0  0
 27 26  2  0  0  0  0
 27 28  1  0  0  0  0
 28 23  2  0  0  0  0
 31 26  1  0  0  0  0
 32 27  1  0  0  0  0
 33 28  1  0  0  0  0
M  END
>  <minimizedAffinity>
-6.2960043

>  <minimizedRMSD>
0.513930321

$$$$
