
 OpenBabel03272507193D

 30 32  0  0  1  0  0  0  0  0999 V2000
   36.8460   31.3760   49.1670 C   0  0  0  0  0  0  0  0  0  0  0  0
   37.1610   32.4820   49.9500 C   0  0  0  0  0  0  0  0  0  0  0  0
   38.1830   33.2820   49.4450 C   0  0  0  0  0  0  0  0  0  0  0  0
   38.8130   32.9770   48.2630 N   0  0  0  0  0  0  0  0  0  0  0  0
   38.4670   31.8830   47.5330 C   0  0  0  0  0  0  0  0  0  0  0  0
   37.4670   31.0730   47.9960 N   0  0  0  0  0  0  0  0  0  0  0  0
   36.6470   32.6820   50.8610 H   0  0  0  0  0  0  0  0  0  0  0  0
   38.4860   34.1680   50.0060 H   0  0  0  0  0  0  0  0  0  0  0  0
   39.1630   31.6120   46.2970 C   0  0  0  0  0  0  0  0  0  0  0  0
   40.1190   32.4770   45.8190 C   0  0  0  0  0  0  0  0  0  0  0  0
   40.3860   33.3870   46.3450 H   0  0  0  0  0  0  0  0  0  0  0  0
   40.7180   32.1250   44.6380 C   0  0  0  0  0  0  0  0  0  0  0  0
   40.4400   30.9900   43.9070 C   0  0  0  0  0  0  0  0  0  0  0  0
   40.9370   30.7630   42.9900 H   0  0  0  0  0  0  0  0  0  0  0  0
   39.4630   30.1320   44.4210 C   0  0  0  0  0  0  0  0  0  0  0  0
   39.2030   29.2200   43.8840 H   0  0  0  0  0  0  0  0  0  0  0  0
   38.8330   30.4620   45.6230 C   0  0  0  0  0  0  0  0  0  0  0  0
   35.7380   30.5020   49.6770 C   0  0  1  0  0  0  0  0  0  0  0  0
   34.9690   29.6380   48.7810 C   0  0  2  0  0  0  0  0  0  0  0  0
   36.0940   29.0050   49.5420 C   0  0  0  0  0  0  0  0  0  0  0  0
   35.3930   30.7410   50.7160 H   0  0  0  0  0  0  0  0  0  0  0  0
   33.8900   29.5220   49.1060 H   0  0  0  0  0  0  0  0  0  0  0  0
   35.7980   28.3340   50.3750 H   0  0  0  0  0  0  0  0  0  0  0  0
   36.9930   28.7220   48.9790 H   0  0  0  0  0  0  0  0  0  0  0  0
   35.1090   29.8530   47.4170 O   0  0  0  0  0  0  0  0  0  0  0  0
   34.1730   29.9470   46.4480 C   0  0  0  0  0  0  0  0  0  0  0  0
   34.2390   29.3070   45.3780 O   0  0  0  0  0  0  0  0  0  0  0  0
   33.1960   30.8500   46.8750 N   0  0  0  0  0  0  0  0  0  0  0  0
   32.3700   30.8780   47.5140 H   0  0  0  0  0  0  0  0  0  0  0  0
   32.8960   31.8470   46.7310 H   0  0  0  0  0  0  0  0  0  0  0  0
  1 18  1  0  0  0  0
  1  2  1  0  0  0  0
  2  7  1  0  0  0  0
  3  2  2  0  0  0  0
  3  8  1  0  0  0  0
  4  3  1  0  0  0  0
  5  6  1  0  0  0  0
  5  4  2  0  0  0  0
  6  1  2  0  0  0  0
  9  5  1  0  0  0  0
 10  9  1  0  0  0  0
 10 11  1  0  0  0  0
 12 10  2  0  0  0  0
 13 15  2  0  0  0  0
 13 12  1  0  0  0  0
 14 13  1  0  0  0  0
 15 17  1  0  0  0  0
 16 15  1  0  0  0  0
 17  9  2  0  0  0  0
 18 21  1  1  0  0  0
 19 22  1  1  0  0  0
 19 20  1  0  0  0  0
 19 18  1  0  0  0  0
 20 18  1  0  0  0  0
 20 23  1  0  0  0  0
 24 20  1  0  0  0  0
 25 19  1  0  0  0  0
 26 28  1  0  0  0  0
 26 25  1  0  0  0  0
 27 26  2  0  0  0  0
 28 29  1  0  0  0  0
 30 28  1  0  0  0  0
M  END
>  <minimizedAffinity>
-6.21825552

>  <minimizedRMSD>
2.82483244

$$$$
