
 OpenBabel03272506523D

 34 36  0  0  1  0  0  0  0  0999 V2000
   38.6670   26.8070   32.6630 C   0  0  1  0  0  0  0  0  0  0  0  0
   39.8340   27.0640   33.5010 C   0  0  0  0  0  0  0  0  0  0  0  0
   39.9900   26.2190   34.7340 C   0  0  0  0  0  0  0  0  0  0  0  0
   39.5460   24.8100   34.6270 C   0  0  2  0  0  0  0  0  0  0  0  0
   38.3880   24.5160   33.7340 C   0  0  0  0  0  0  0  0  0  0  0  0
   38.4060   25.3390   32.4880 C   0  0  0  0  0  0  0  0  0  0  0  0
   38.9120   27.1490   31.6070 H   0  0  0  0  0  0  0  0  0  0  0  0
   40.0640   28.0900   33.7780 H   0  0  0  0  0  0  0  0  0  0  0  0
   40.7390   26.7650   32.8760 H   0  0  0  0  0  0  0  0  0  0  0  0
   39.3980   26.7210   35.5380 H   0  0  0  0  0  0  0  0  0  0  0  0
   41.0430   26.2440   35.0550 H   0  0  0  0  0  0  0  0  0  0  0  0
   40.4140   24.2060   34.2800 H   0  0  0  0  0  0  0  0  0  0  0  0
   38.4350   23.4580   33.4350 H   0  0  0  0  0  0  0  0  0  0  0  0
   37.4520   24.7040   34.2960 H   0  0  0  0  0  0  0  0  0  0  0  0
   37.6400   25.0620   31.7750 H   0  0  0  0  0  0  0  0  0  0  0  0
   39.3560   24.9860   31.9660 H   0  0  0  0  0  0  0  0  0  0  0  0
   37.0590   27.8840   34.2770 C   0  0  0  0  0  0  0  0  0  0  0  0
   37.4440   27.5930   32.9580 C   0  0  0  0  0  0  0  0  0  0  0  0
   36.6420   28.0700   31.9380 C   0  0  0  0  0  0  0  0  0  0  0  0
   35.5300   28.7930   32.2640 N   0  0  0  0  0  0  0  0  0  0  0  0
   35.1900   29.0550   33.5470 C   0  0  0  0  0  0  0  0  0  0  0  0
   35.9660   28.5920   34.5540 N   0  0  0  0  0  0  0  0  0  0  0  0
   37.6230   27.5530   35.1360 H   0  0  0  0  0  0  0  0  0  0  0  0
   36.8420   27.9080   30.8890 H   0  0  0  0  0  0  0  0  0  0  0  0
   34.3040   29.6290   33.7850 H   0  0  0  0  0  0  0  0  0  0  0  0
   39.1970   24.3330   35.9950 C   0  0  0  0  0  0  0  0  0  0  0  0
   39.9780   23.3020   36.5300 C   0  0  0  0  0  0  0  0  0  0  0  0
   40.8100   22.8530   35.9830 H   0  0  0  0  0  0  0  0  0  0  0  0
   39.6780   22.8350   37.8070 C   0  0  0  0  0  3  0  0  0  0  0  0
   38.6460   23.3760   38.5100 C   0  0  0  0  0  0  0  0  0  0  0  0
   38.4200   23.0070   39.5010 H   0  0  0  0  0  0  0  0  0  0  0  0
   37.8790   24.3920   37.9800 C   0  0  0  0  0  0  0  0  0  0  0  0
   37.0550   24.7970   38.5880 H   0  0  0  0  0  0  0  0  0  0  0  0
   38.1500   24.8870   36.7030 C   0  0  0  0  0  3  0  0  0  0  0  0
  1  7  1  6  0  0  0
  1 18  1  0  0  0  0
  1  2  1  0  0  0  0
  2  8  1  0  0  0  0
  2  3  1  0  0  0  0
  3 11  1  0  0  0  0
  3 10  1  0  0  0  0
  4 12  1  6  0  0  0
  4  3  1  0  0  0  0
  4 26  1  0  0  0  0
  5 14  1  0  0  0  0
  5  4  1  0  0  0  0
  6  1  1  0  0  0  0
  6  5  1  0  0  0  0
  9  2  1  0  0  0  0
 13  5  1  0  0  0  0
 15  6  1  0  0  0  0
 16  6  1  0  0  0  0
 17 22  1  0  0  0  0
 17 23  1  0  0  0  0
 18 17  2  0  0  0  0
 19 20  2  0  0  0  0
 19 18  1  0  0  0  0
 20 21  1  0  0  0  0
 21 25  1  0  0  0  0
 21 22  2  0  0  0  0
 24 19  1  0  0  0  0
 26 27  2  0  0  0  0
 26 34  1  0  0  0  0
 27 29  1  0  0  0  0
 28 27  1  0  0  0  0
 29 30  2  0  0  0  0
 30 31  1  0  0  0  0
 32 30  1  0  0  0  0
 32 33  1  0  0  0  0
 34 32  2  0  0  0  0
M  END
>  <minimizedAffinity>
-5.28175592

$$$$

 OpenBabel03272506523D

 34 36  0  0  1  0  0  0  0  0999 V2000
   37.5800   27.0830   32.8210 C   0  0  1  0  0  0  0  0  0  0  0  0
   37.0560   27.6410   34.0650 C   0  0  0  0  0  0  0  0  0  0  0  0
   37.4250   26.9350   35.3390 C   0  0  0  0  0  0  0  0  0  0  0  0
   38.7810   26.3420   35.3950 C   0  0  2  0  0  0  0  0  0  0  0  0
   39.3580   25.8150   34.1250 C   0  0  0  0  0  0  0  0  0  0  0  0
   39.0160   26.6660   32.9460 C   0  0  0  0  0  0  0  0  0  0  0  0
   37.6240   27.9210   32.0540 H   0  0  0  0  0  0  0  0  0  0  0  0
   35.9990   27.8880   34.1230 H   0  0  0  0  0  0  0  0  0  0  0  0
   37.5580   28.6570   34.1860 H   0  0  0  0  0  0  0  0  0  0  0  0
   36.6730   26.1200   35.4770 H   0  0  0  0  0  0  0  0  0  0  0  0
   37.2970   27.6290   36.1830 H   0  0  0  0  0  0  0  0  0  0  0  0
   39.4740   27.1170   35.7950 H   0  0  0  0  0  0  0  0  0  0  0  0
   40.4550   25.7990   34.2170 H   0  0  0  0  0  0  0  0  0  0  0  0
   38.9820   24.7850   33.9680 H   0  0  0  0  0  0  0  0  0  0  0  0
   39.5170   26.3660   32.0340 H   0  0  0  0  0  0  0  0  0  0  0  0
   39.5330   27.6520   33.1890 H   0  0  0  0  0  0  0  0  0  0  0  0
   36.9430   24.7040   32.2870 C   0  0  0  0  0  0  0  0  0  0  0  0
   36.7320   26.0830   32.1260 C   0  0  0  0  0  0  0  0  0  0  0  0
   35.7000   26.4800   31.2970 C   0  0  0  0  0  0  0  0  0  0  0  0
   34.9470   25.5190   30.6850 N   0  0  0  0  0  0  0  0  0  0  0  0
   35.1790   24.1980   30.8640 C   0  0  0  0  0  0  0  0  0  0  0  0
   36.1860   23.7970   31.6720 N   0  0  0  0  0  0  0  0  0  0  0  0
   37.7250   24.3020   32.9140 H   0  0  0  0  0  0  0  0  0  0  0  0
   35.4470   27.5110   31.1010 H   0  0  0  0  0  0  0  0  0  0  0  0
   34.5700   23.4520   30.3690 H   0  0  0  0  0  0  0  0  0  0  0  0
   38.7550   25.2250   36.3800 C   0  0  0  0  0  0  0  0  0  0  0  0
   39.5100   24.0870   36.0770 C   0  0  0  0  0  0  0  0  0  0  0  0
   40.1000   24.0020   35.1610 H   0  0  0  0  0  0  0  0  0  0  0  0
   39.5070   23.0260   36.9790 C   0  0  0  0  0  3  0  0  0  0  0  0
   38.7810   23.1060   38.1270 C   0  0  0  0  0  0  0  0  0  0  0  0
   38.7840   22.2770   38.8210 H   0  0  0  0  0  0  0  0  0  0  0  0
   38.0380   24.2290   38.4230 C   0  0  0  0  0  0  0  0  0  0  0  0
   37.4670   24.2440   39.3650 H   0  0  0  0  0  0  0  0  0  0  0  0
   38.0170   25.3120   37.5430 C   0  0  0  0  0  3  0  0  0  0  0  0
  1  7  1  6  0  0  0
  1  6  1  0  0  0  0
  1  2  1  0  0  0  0
  2  8  1  0  0  0  0
  2  9  1  0  0  0  0
  2  3  1  0  0  0  0
  3  4  1  0  0  0  0
  3 10  1  0  0  0  0
  3 11  1  0  0  0  0
  4 12  1  1  0  0  0
  4 26  1  0  0  0  0
  5 13  1  0  0  0  0
  5  4  1  0  0  0  0
  6 16  1  0  0  0  0
  6  5  1  0  0  0  0
 14  5  1  0  0  0  0
 15  6  1  0  0  0  0
 17 23  1  0  0  0  0
 18 17  1  0  0  0  0
 18  1  1  0  0  0  0
 19 18  2  0  0  0  0
 20 21  2  0  0  0  0
 20 19  1  0  0  0  0
 21 22  1  0  0  0  0
 22 17  2  0  0  0  0
 24 19  1  0  0  0  0
 25 21  1  0  0  0  0
 26 34  1  0  0  0  0
 27 26  2  0  0  0  0
 27 29  1  0  0  0  0
 28 27  1  0  0  0  0
 29 30  2  0  0  0  0
 30 32  1  0  0  0  0
 30 31  1  0  0  0  0
 32 33  1  0  0  0  0
 34 32  2  0  0  0  0
M  END
>  <minimizedAffinity>
-5.24328089

$$$$

 OpenBabel03272506523D

 34 36  0  0  1  0  0  0  0  0999 V2000
   37.2340   25.3950   31.5980 C   0  0  1  0  0  0  0  0  0  0  0  0
   38.1610   24.4380   31.0000 C   0  0  0  0  0  0  0  0  0  0  0  0
   37.7690   22.9880   31.0470 C   0  0  0  0  0  0  0  0  0  0  0  0
   36.3250   22.6900   30.9090 C   0  0  2  0  0  0  0  0  0  0  0  0
   35.3590   23.6800   31.4650 C   0  0  0  0  0  0  0  0  0  0  0  0
   35.8040   25.0900   31.2560 C   0  0  0  0  0  0  0  0  0  0  0  0
   37.4050   26.4040   31.1020 H   0  0  0  0  0  0  0  0  0  0  0  0
   39.2140   24.5000   31.2570 H   0  0  0  0  0  0  0  0  0  0  0  0
   38.1610   24.6620   29.8820 H   0  0  0  0  0  0  0  0  0  0  0  0
   38.1230   22.5980   32.0330 H   0  0  0  0  0  0  0  0  0  0  0  0
   38.3290   22.4410   30.2730 H   0  0  0  0  0  0  0  0  0  0  0  0
   36.1070   22.5630   29.8250 H   0  0  0  0  0  0  0  0  0  0  0  0
   34.3940   23.5560   30.9520 H   0  0  0  0  0  0  0  0  0  0  0  0
   35.2340   23.4820   32.5480 H   0  0  0  0  0  0  0  0  0  0  0  0
   35.0660   25.8260   31.5490 H   0  0  0  0  0  0  0  0  0  0  0  0
   35.8020   25.1900   30.1210 H   0  0  0  0  0  0  0  0  0  0  0  0
   38.0990   24.8380   33.8980 C   0  0  0  0  0  0  0  0  0  0  0  0
   37.4420   25.7250   33.0290 C   0  0  0  0  0  0  0  0  0  0  0  0
   36.9960   26.9230   33.5550 C   0  0  0  0  0  0  0  0  0  0  0  0
   37.2180   27.1790   34.8780 N   0  0  0  0  0  0  0  0  0  0  0  0
   37.8550   26.3010   35.6860 C   0  0  0  0  0  0  0  0  0  0  0  0
   38.2950   25.1250   35.1840 N   0  0  0  0  0  0  0  0  0  0  0  0
   38.4800   23.8810   33.5770 H   0  0  0  0  0  0  0  0  0  0  0  0
   36.4810   27.6780   32.9800 H   0  0  0  0  0  0  0  0  0  0  0  0
   38.0210   26.5230   36.7330 H   0  0  0  0  0  0  0  0  0  0  0  0
   36.0610   21.3790   31.5670 C   0  0  0  0  0  0  0  0  0  0  0  0
   35.7550   21.3990   32.9320 C   0  0  0  0  0  0  0  0  0  0  0  0
   35.7070   22.3260   33.5080 H   0  0  0  0  0  0  0  0  0  0  0  0
   35.5020   20.1900   33.5750 C   0  0  0  0  0  3  0  0  0  0  0  0
   35.5550   19.0210   32.8810 C   0  0  0  0  0  0  0  0  0  0  0  0
   35.3580   18.0870   33.3890 H   0  0  0  0  0  0  0  0  0  0  0  0
   35.8570   19.0050   31.5360 C   0  0  0  0  0  0  0  0  0  0  0  0
   35.8880   18.0330   31.0190 H   0  0  0  0  0  0  0  0  0  0  0  0
   36.1160   20.1970   30.8570 C   0  0  0  0  0  3  0  0  0  0  0  0
  1  7  1  6  0  0  0
  1 18  1  0  0  0  0
  2  3  1  0  0  0  0
  2  8  1  0  0  0  0
  2  1  1  0  0  0  0
  3 10  1  0  0  0  0
  4 12  1  6  0  0  0
  4  3  1  0  0  0  0
  4  5  1  0  0  0  0
  4 26  1  0  0  0  0
  5 14  1  0  0  0  0
  6  5  1  0  0  0  0
  6 15  1  0  0  0  0
  6  1  1  0  0  0  0
  9  2  1  0  0  0  0
 11  3  1  0  0  0  0
 13  5  1  0  0  0  0
 16  6  1  0  0  0  0
 17 22  1  0  0  0  0
 18 19  1  0  0  0  0
 18 17  2  0  0  0  0
 19 20  2  0  0  0  0
 20 21  1  0  0  0  0
 21 25  1  0  0  0  0
 22 21  2  0  0  0  0
 23 17  1  0  0  0  0
 24 19  1  0  0  0  0
 26 27  1  0  0  0  0
 27 28  1  0  0  0  0
 27 29  2  0  0  0  0
 30 31  1  0  0  0  0
 30 29  1  0  0  0  0
 32 30  2  0  0  0  0
 33 32  1  0  0  0  0
 34 32  1  0  0  0  0
 34 26  2  0  0  0  0
M  END
>  <minimizedAffinity>
-5.12043905

$$$$

 OpenBabel03272506523D

 34 36  0  0  1  0  0  0  0  0999 V2000
   39.9130   24.2980   34.5130 C   0  0  1  0  0  0  0  0  0  0  0  0
   39.0700   24.0450   33.3470 C   0  0  0  0  0  0  0  0  0  0  0  0
   38.2120   25.1810   32.8650 C   0  0  0  0  0  0  0  0  0  0  0  0
   38.7880   26.5400   32.9880 C   0  0  2  0  0  0  0  0  0  0  0  0
   39.6940   26.8060   34.1420 C   0  0  0  0  0  0  0  0  0  0  0  0
   40.5790   25.6430   34.4510 C   0  0  0  0  0  0  0  0  0  0  0  0
   40.7910   23.5770   34.4720 H   0  0  0  0  0  0  0  0  0  0  0  0
   38.4620   23.1450   33.3260 H   0  0  0  0  0  0  0  0  0  0  0  0
   39.7860   23.8850   32.4740 H   0  0  0  0  0  0  0  0  0  0  0  0
   37.2680   25.1380   33.4620 H   0  0  0  0  0  0  0  0  0  0  0  0
   37.9320   24.9990   31.8170 H   0  0  0  0  0  0  0  0  0  0  0  0
   39.3470   26.7580   32.0500 H   0  0  0  0  0  0  0  0  0  0  0  0
   40.3420   27.6590   33.8910 H   0  0  0  0  0  0  0  0  0  0  0  0
   39.0760   27.0550   35.0270 H   0  0  0  0  0  0  0  0  0  0  0  0
   41.3220   25.8530   35.2100 H   0  0  0  0  0  0  0  0  0  0  0  0
   41.2160   25.5530   33.5110 H   0  0  0  0  0  0  0  0  0  0  0  0
   38.0610   24.4590   36.2130 C   0  0  0  0  0  0  0  0  0  0  0  0
   39.3300   23.9870   35.8410 C   0  0  0  0  0  0  0  0  0  0  0  0
   40.0200   23.2150   36.7560 C   0  0  0  0  0  0  0  0  0  0  0  0
   39.4350   22.9540   37.9630 N   0  0  0  0  0  0  0  0  0  0  0  0
   38.2100   23.4250   38.2880 C   0  0  0  0  0  0  0  0  0  0  0  0
   37.5250   24.1830   37.4010 N   0  0  0  0  0  0  0  0  0  0  0  0
   37.4510   25.0680   35.5640 H   0  0  0  0  0  0  0  0  0  0  0  0
   41.0000   22.7990   36.5770 H   0  0  0  0  0  0  0  0  0  0  0  0
   37.7640   23.2080   39.2510 H   0  0  0  0  0  0  0  0  0  0  0  0
   37.6610   27.5120   33.0630 C   0  0  0  0  0  0  0  0  0  0  0  0
   37.0770   27.7180   34.3180 C   0  0  0  0  0  0  0  0  0  0  0  0
   37.4190   27.1980   35.2160 H   0  0  0  0  0  0  0  0  0  0  0  0
   36.0220   28.6210   34.4210 C   0  0  0  0  0  3  0  0  0  0  0  0
   35.5770   29.2820   33.3180 C   0  0  0  0  0  0  0  0  0  0  0  0
   34.7560   29.9810   33.4080 H   0  0  0  0  0  0  0  0  0  0  0  0
   36.1540   29.0770   32.0840 C   0  0  0  0  0  0  0  0  0  0  0  0
   35.7570   29.6370   31.2220 H   0  0  0  0  0  0  0  0  0  0  0  0
   37.2140   28.1800   31.9410 C   0  0  0  0  0  3  0  0  0  0  0  0
  1  7  1  6  0  0  0
  1 18  1  0  0  0  0
  2  1  1  0  0  0  0
  3  4  1  0  0  0  0
  3  2  1  0  0  0  0
  3 10  1  0  0  0  0
  4 12  1  6  0  0  0
  4 26  1  0  0  0  0
  4  5  1  0  0  0  0
  5  6  1  0  0  0  0
  5 14  1  0  0  0  0
  6  1  1  0  0  0  0
  6 15  1  0  0  0  0
  8  2  1  0  0  0  0
  9  2  1  0  0  0  0
 11  3  1  0  0  0  0
 13  5  1  0  0  0  0
 16  6  1  0  0  0  0
 17 22  1  0  0  0  0
 18 17  2  0  0  0  0
 18 19  1  0  0  0  0
 19 20  2  0  0  0  0
 20 21  1  0  0  0  0
 21 25  1  0  0  0  0
 22 21  2  0  0  0  0
 23 17  1  0  0  0  0
 24 19  1  0  0  0  0
 26 27  1  0  0  0  0
 27 29  2  0  0  0  0
 27 28  1  0  0  0  0
 30 31  1  0  0  0  0
 30 29  1  0  0  0  0
 32 30  2  0  0  0  0
 33 32  1  0  0  0  0
 34 32  1  0  0  0  0
 34 26  2  0  0  0  0
M  END
>  <minimizedAffinity>
-5.09375811

$$$$

 OpenBabel03272506523D

 34 36  0  0  1  0  0  0  0  0999 V2000
   37.6340   26.2420   31.4710 C   0  0  1  0  0  0  0  0  0  0  0  0
   38.4720   25.1780   30.9260 C   0  0  0  0  0  0  0  0  0  0  0  0
   37.9750   23.7690   31.0810 C   0  0  0  0  0  0  0  0  0  0  0  0
   36.5100   23.5730   30.9910 C   0  0  2  0  0  0  0  0  0  0  0  0
   35.6330   24.6700   31.4930 C   0  0  0  0  0  0  0  0  0  0  0  0
   36.1780   26.0240   31.1770 C   0  0  0  0  0  0  0  0  0  0  0  0
   37.8680   27.1980   30.9030 H   0  0  0  0  0  0  0  0  0  0  0  0
   39.5340   25.1770   31.1590 H   0  0  0  0  0  0  0  0  0  0  0  0
   38.4640   25.3240   29.7950 H   0  0  0  0  0  0  0  0  0  0  0  0
   38.3210   23.4210   32.0860 H   0  0  0  0  0  0  0  0  0  0  0  0
   38.4740   23.1290   30.3380 H   0  0  0  0  0  0  0  0  0  0  0  0
   36.2580   23.3890   29.9220 H   0  0  0  0  0  0  0  0  0  0  0  0
   34.6500   24.5850   31.0070 H   0  0  0  0  0  0  0  0  0  0  0  0
   35.5190   24.5560   32.5890 H   0  0  0  0  0  0  0  0  0  0  0  0
   35.5040   26.8330   31.4310 H   0  0  0  0  0  0  0  0  0  0  0  0
   36.1570   26.0460   30.0380 H   0  0  0  0  0  0  0  0  0  0  0  0
   36.9180   27.2910   33.6470 C   0  0  0  0  0  0  0  0  0  0  0  0
   37.8990   26.6520   32.8720 C   0  0  0  0  0  0  0  0  0  0  0  0
   39.1250   26.4130   33.4620 C   0  0  0  0  0  0  0  0  0  0  0  0
   39.3160   26.8060   34.7570 N   0  0  0  0  0  0  0  0  0  0  0  0
   38.3470   27.4200   35.4740 C   0  0  0  0  0  0  0  0  0  0  0  0
   37.1430   27.6610   34.9070 N   0  0  0  0  0  0  0  0  0  0  0  0
   35.9320   27.5190   33.2710 H   0  0  0  0  0  0  0  0  0  0  0  0
   39.9500   25.9280   32.9620 H   0  0  0  0  0  0  0  0  0  0  0  0
   38.5180   27.7250   36.4990 H   0  0  0  0  0  0  0  0  0  0  0  0
   36.1640   22.3340   31.7430 C   0  0  0  0  0  0  0  0  0  0  0  0
   36.7130   22.1890   33.0230 C   0  0  0  0  0  0  0  0  0  0  0  0
   37.3690   22.9410   33.4670 H   0  0  0  0  0  0  0  0  0  0  0  0
   36.4070   21.0430   33.7520 C   0  0  0  0  0  3  0  0  0  0  0  0
   35.5920   20.0910   33.2210 C   0  0  0  0  0  0  0  0  0  0  0  0
   35.3610   19.2040   33.7950 H   0  0  0  0  0  0  0  0  0  0  0  0
   35.0520   20.2380   31.9610 C   0  0  0  0  0  0  0  0  0  0  0  0
   34.3990   19.4390   31.5770 H   0  0  0  0  0  0  0  0  0  0  0  0
   35.3360   21.3730   31.2010 C   0  0  0  0  0  3  0  0  0  0  0  0
  1  7  1  6  0  0  0
  1 18  1  0  0  0  0
  2  3  1  0  0  0  0
  2  8  1  0  0  0  0
  2  1  1  0  0  0  0
  3 10  1  0  0  0  0
  4 12  1  6  0  0  0
  4  3  1  0  0  0  0
  4  5  1  0  0  0  0
  4 26  1  0  0  0  0
  5 14  1  0  0  0  0
  6 15  1  0  0  0  0
  6  1  1  0  0  0  0
  6  5  1  0  0  0  0
  9  2  1  0  0  0  0
 11  3  1  0  0  0  0
 13  5  1  0  0  0  0
 16  6  1  0  0  0  0
 17 22  1  0  0  0  0
 18 19  1  0  0  0  0
 18 17  2  0  0  0  0
 19 20  2  0  0  0  0
 20 21  1  0  0  0  0
 21 25  1  0  0  0  0
 22 21  2  0  0  0  0
 23 17  1  0  0  0  0
 24 19  1  0  0  0  0
 26 27  1  0  0  0  0
 27 28  1  0  0  0  0
 27 29  2  0  0  0  0
 30 29  1  0  0  0  0
 30 31  1  0  0  0  0
 32 30  2  0  0  0  0
 33 32  1  0  0  0  0
 34 26  2  0  0  0  0
 34 32  1  0  0  0  0
M  END
>  <minimizedAffinity>
-5.03707838

$$$$

 OpenBabel03272506523D

 34 36  0  0  1  0  0  0  0  0999 V2000
   38.8470   22.9520   35.6100 C   0  0  1  0  0  0  0  0  0  0  0  0
   39.7240   23.5050   34.5810 C   0  0  0  0  0  0  0  0  0  0  0  0
   39.3720   24.8620   34.0400 C   0  0  0  0  0  0  0  0  0  0  0  0
   38.7860   25.8230   35.0020 C   0  0  2  0  0  0  0  0  0  0  0  0
   37.9300   25.2750   36.0930 C   0  0  0  0  0  0  0  0  0  0  0  0
   38.4480   23.9800   36.6280 C   0  0  0  0  0  0  0  0  0  0  0  0
   39.4520   22.2090   36.2220 H   0  0  0  0  0  0  0  0  0  0  0  0
   40.0010   22.8790   33.7370 H   0  0  0  0  0  0  0  0  0  0  0  0
   40.7260   23.6920   35.0930 H   0  0  0  0  0  0  0  0  0  0  0  0
   38.6380   24.6910   33.2140 H   0  0  0  0  0  0  0  0  0  0  0  0
   40.2670   25.3080   33.5800 H   0  0  0  0  0  0  0  0  0  0  0  0
   39.6250   26.3880   35.4690 H   0  0  0  0  0  0  0  0  0  0  0  0
   37.9160   25.9960   36.9250 H   0  0  0  0  0  0  0  0  0  0  0  0
   36.9040   25.1380   35.7010 H   0  0  0  0  0  0  0  0  0  0  0  0
   37.9070   23.6220   37.4950 H   0  0  0  0  0  0  0  0  0  0  0  0
   39.4520   24.2760   37.0780 H   0  0  0  0  0  0  0  0  0  0  0  0
   37.5770   21.7530   33.7940 C   0  0  0  0  0  0  0  0  0  0  0  0
   37.7180   22.1100   35.1450 C   0  0  0  0  0  0  0  0  0  0  0  0
   36.7660   21.6450   36.0320 C   0  0  0  0  0  0  0  0  0  0  0  0
   35.7490   20.8700   35.5520 N   0  0  0  0  0  0  0  0  0  0  0  0
   35.6440   20.5450   34.2440 C   0  0  0  0  0  0  0  0  0  0  0  0
   36.5690   20.9950   33.3650 N   0  0  0  0  0  0  0  0  0  0  0  0
   38.2710   22.0700   33.0300 H   0  0  0  0  0  0  0  0  0  0  0  0
   36.7760   21.8560   37.0910 H   0  0  0  0  0  0  0  0  0  0  0  0
   34.8300   19.9300   33.8830 H   0  0  0  0  0  0  0  0  0  0  0  0
   37.9700   26.8040   34.2330 C   0  0  0  0  0  0  0  0  0  0  0  0
   38.2510   26.9390   32.8690 C   0  0  0  0  0  0  0  0  0  0  0  0
   39.0320   26.3600   32.3720 H   0  0  0  0  0  0  0  0  0  0  0  0
   37.5040   27.8470   32.1230 C   0  0  0  0  0  3  0  0  0  0  0  0
   36.5260   28.5820   32.7180 C   0  0  0  0  0  0  0  0  0  0  0  0
   35.9510   29.2850   32.1300 H   0  0  0  0  0  0  0  0  0  0  0  0
   36.2510   28.4460   34.0620 C   0  0  0  0  0  0  0  0  0  0  0  0
   35.4490   29.0640   34.4960 H   0  0  0  0  0  0  0  0  0  0  0  0
   36.9780   27.5460   34.8420 C   0  0  0  0  0  3  0  0  0  0  0  0
  1  7  1  1  0  0  0
  1  6  1  0  0  0  0
  2  9  1  0  0  0  0
  2  1  1  0  0  0  0
  3  2  1  0  0  0  0
  3  4  1  0  0  0  0
  4 12  1  1  0  0  0
  4  5  1  0  0  0  0
  5  6  1  0  0  0  0
  5 13  1  0  0  0  0
  6 16  1  0  0  0  0
  6 15  1  0  0  0  0
  8  2  1  0  0  0  0
 10  3  1  0  0  0  0
 11  3  1  0  0  0  0
 14  5  1  0  0  0  0
 17 18  1  0  0  0  0
 18  1  1  0  0  0  0
 18 19  2  0  0  0  0
 19 24  1  0  0  0  0
 20 19  1  0  0  0  0
 21 20  2  0  0  0  0
 22 17  2  0  0  0  0
 22 21  1  0  0  0  0
 23 17  1  0  0  0  0
 25 21  1  0  0  0  0
 26 34  1  0  0  0  0
 26  4  1  0  0  0  0
 27 26  2  0  0  0  0
 28 27  1  0  0  0  0
 29 30  2  0  0  0  0
 29 27  1  0  0  0  0
 30 32  1  0  0  0  0
 31 30  1  0  0  0  0
 32 33  1  0  0  0  0
 32 34  2  0  0  0  0
M  END
>  <minimizedAffinity>
-5.01461601

$$$$

 OpenBabel03272506523D

 34 36  0  0  1  0  0  0  0  0999 V2000
   38.1820   26.9260   33.0980 C   0  0  1  0  0  0  0  0  0  0  0  0
   37.6810   25.5650   32.9240 C   0  0  0  0  0  0  0  0  0  0  0  0
   37.8660   24.6170   34.0750 C   0  0  0  0  0  0  0  0  0  0  0  0
   37.7550   25.1980   35.4330 C   0  0  2  0  0  0  0  0  0  0  0  0
   38.2110   26.6050   35.6210 C   0  0  0  0  0  0  0  0  0  0  0  0
   37.8680   27.4770   34.4590 C   0  0  0  0  0  0  0  0  0  0  0  0
   37.5920   27.6070   32.4050 H   0  0  0  0  0  0  0  0  0  0  0  0
   37.9320   25.0270   32.0140 H   0  0  0  0  0  0  0  0  0  0  0  0
   36.5470   25.6580   32.8550 H   0  0  0  0  0  0  0  0  0  0  0  0
   38.8850   24.1740   33.9580 H   0  0  0  0  0  0  0  0  0  0  0  0
   37.1490   23.7880   33.9750 H   0  0  0  0  0  0  0  0  0  0  0  0
   36.6870   25.1350   35.7420 H   0  0  0  0  0  0  0  0  0  0  0  0
   37.7100   27.0210   36.5080 H   0  0  0  0  0  0  0  0  0  0  0  0
   39.3080   26.6020   35.7800 H   0  0  0  0  0  0  0  0  0  0  0  0
   38.0880   28.5250   34.6220 H   0  0  0  0  0  0  0  0  0  0  0  0
   36.7290   27.4690   34.4640 H   0  0  0  0  0  0  0  0  0  0  0  0
   40.6350   27.2390   33.5810 C   0  0  0  0  0  0  0  0  0  0  0  0
   39.5750   27.1870   32.6610 C   0  0  0  0  0  0  0  0  0  0  0  0
   39.8770   27.3850   31.3270 C   0  0  0  0  0  0  0  0  0  0  0  0
   41.1770   27.6170   30.9780 N   0  0  0  0  0  0  0  0  0  0  0  0
   42.1720   27.6590   31.8920 C   0  0  0  0  0  0  0  0  0  0  0  0
   41.8910   27.4680   33.2010 N   0  0  0  0  0  0  0  0  0  0  0  0
   40.4950   27.0960   34.6420 H   0  0  0  0  0  0  0  0  0  0  0  0
   39.1430   27.3660   30.5350 H   0  0  0  0  0  0  0  0  0  0  0  0
   43.1970   27.8450   31.5950 H   0  0  0  0  0  0  0  0  0  0  0  0
   38.5350   24.3380   36.3660 C   0  0  0  0  0  0  0  0  0  0  0  0
   39.7090   23.7590   35.8720 C   0  0  0  0  0  0  0  0  0  0  0  0
   40.0550   23.9190   34.8480 H   0  0  0  0  0  0  0  0  0  0  0  0
   40.4610   22.9510   36.7210 C   0  0  0  0  0  3  0  0  0  0  0  0
   40.0520   22.7360   38.0010 C   0  0  0  0  0  0  0  0  0  0  0  0
   40.6420   22.1060   38.6530 H   0  0  0  0  0  0  0  0  0  0  0  0
   38.8950   23.3080   38.4850 C   0  0  0  0  0  0  0  0  0  0  0  0
   38.6080   23.1030   39.5280 H   0  0  0  0  0  0  0  0  0  0  0  0
   38.1160   24.1250   37.6640 C   0  0  0  0  0  3  0  0  0  0  0  0
  1  7  1  6  0  0  0
  1  6  1  0  0  0  0
  2  1  1  0  0  0  0
  2  3  1  0  0  0  0
  3  4  1  0  0  0  0
  4  5  1  0  0  0  0
  4 12  1  1  0  0  0
  4 26  1  0  0  0  0
  5 14  1  0  0  0  0
  5 13  1  0  0  0  0
  6 16  1  0  0  0  0
  6 15  1  0  0  0  0
  6  5  1  0  0  0  0
  8  2  1  0  0  0  0
  9  2  1  0  0  0  0
 10  3  1  0  0  0  0
 11  3  1  0  0  0  0
 17 23  1  0  0  0  0
 18  1  1  0  0  0  0
 18 17  2  0  0  0  0
 19 18  1  0  0  0  0
 20 19  2  0  0  0  0
 20 21  1  0  0  0  0
 21 22  2  0  0  0  0
 22 17  1  0  0  0  0
 24 19  1  0  0  0  0
 25 21  1  0  0  0  0
 26 34  1  0  0  0  0
 27 26  2  0  0  0  0
 27 29  1  0  0  0  0
 28 27  1  0  0  0  0
 29 30  2  0  0  0  0
 30 32  1  0  0  0  0
 30 31  1  0  0  0  0
 32 33  1  0  0  0  0
 34 32  2  0  0  0  0
M  END
>  <minimizedAffinity>
-5.0094099

$$$$

 OpenBabel03272506523D

 34 36  0  0  1  0  0  0  0  0999 V2000
   37.4240   27.3280   32.7830 C   0  0  1  0  0  0  0  0  0  0  0  0
   37.4110   27.4480   34.2380 C   0  0  0  0  0  0  0  0  0  0  0  0
   38.5360   26.7930   34.9880 C   0  0  0  0  0  0  0  0  0  0  0  0
   39.8640   26.8100   34.3310 C   0  0  2  0  0  0  0  0  0  0  0  0
   39.8990   26.7420   32.8420 C   0  0  0  0  0  0  0  0  0  0  0  0
   38.7970   27.5270   32.2090 C   0  0  0  0  0  0  0  0  0  0  0  0
   36.8390   28.2040   32.3540 H   0  0  0  0  0  0  0  0  0  0  0  0
   36.4910   27.2280   34.7730 H   0  0  0  0  0  0  0  0  0  0  0  0
   37.5710   28.5550   34.4600 H   0  0  0  0  0  0  0  0  0  0  0  0
   38.2310   25.7300   35.1490 H   0  0  0  0  0  0  0  0  0  0  0  0
   38.6180   27.2530   35.9840 H   0  0  0  0  0  0  0  0  0  0  0  0
   40.3870   27.7400   34.6490 H   0  0  0  0  0  0  0  0  0  0  0  0
   40.8520   27.1670   32.4930 H   0  0  0  0  0  0  0  0  0  0  0  0
   39.8300   25.6800   32.5350 H   0  0  0  0  0  0  0  0  0  0  0  0
   38.8700   27.5850   31.1300 H   0  0  0  0  0  0  0  0  0  0  0  0
   39.0350   28.5960   32.5220 H   0  0  0  0  0  0  0  0  0  0  0  0
   37.0730   24.8490   32.4960 C   0  0  0  0  0  0  0  0  0  0  0  0
   36.7010   26.1710   32.2000 C   0  0  0  0  0  0  0  0  0  0  0  0
   35.6310   26.3580   31.3460 C   0  0  0  0  0  0  0  0  0  0  0  0
   34.9980   25.2580   30.8400 N   0  0  0  0  0  0  0  0  0  0  0  0
   35.3830   23.9990   31.1480 C   0  0  0  0  0  0  0  0  0  0  0  0
   36.4300   23.8020   31.9820 N   0  0  0  0  0  0  0  0  0  0  0  0
   37.8960   24.6070   33.1520 H   0  0  0  0  0  0  0  0  0  0  0  0
   35.2590   27.3270   31.0500 H   0  0  0  0  0  0  0  0  0  0  0  0
   34.8680   23.1400   30.7360 H   0  0  0  0  0  0  0  0  0  0  0  0
   40.6520   25.6600   34.8570 C   0  0  0  0  0  0  0  0  0  0  0  0
   42.0460   25.7740   34.8270 C   0  0  0  0  0  0  0  0  0  0  0  0
   42.5530   26.6600   34.4370 H   0  0  0  0  0  0  0  0  0  0  0  0
   42.8110   24.7170   35.3120 C   0  0  0  0  0  3  0  0  0  0  0  0
   42.2050   23.6020   35.8030 C   0  0  0  0  0  0  0  0  0  0  0  0
   42.8070   22.7860   36.1770 H   0  0  0  0  0  0  0  0  0  0  0  0
   40.8310   23.4930   35.8320 C   0  0  0  0  0  0  0  0  0  0  0  0
   40.3880   22.5700   36.2390 H   0  0  0  0  0  0  0  0  0  0  0  0
   40.0310   24.5330   35.3540 C   0  0  0  0  0  3  0  0  0  0  0  0
  1  7  1  6  0  0  0
  1  2  1  0  0  0  0
  2  9  1  0  0  0  0
  2  8  1  0  0  0  0
  2  3  1  0  0  0  0
  3 10  1  0  0  0  0
  3 11  1  0  0  0  0
  4 12  1  1  0  0  0
  4 26  1  0  0  0  0
  4  3  1  0  0  0  0
  5  4  1  0  0  0  0
  6 16  1  0  0  0  0
  6  1  1  0  0  0  0
  6  5  1  0  0  0  0
 13  5  1  0  0  0  0
 14  5  1  0  0  0  0
 15  6  1  0  0  0  0
 17 23  1  0  0  0  0
 18 17  1  0  0  0  0
 18  1  1  0  0  0  0
 19 18  2  0  0  0  0
 20 21  2  0  0  0  0
 20 19  1  0  0  0  0
 21 22  1  0  0  0  0
 22 17  2  0  0  0  0
 24 19  1  0  0  0  0
 25 21  1  0  0  0  0
 26 34  1  0  0  0  0
 27 26  2  0  0  0  0
 27 29  1  0  0  0  0
 28 27  1  0  0  0  0
 29 30  2  0  0  0  0
 30 32  1  0  0  0  0
 30 31  1  0  0  0  0
 32 33  1  0  0  0  0
 34 32  2  0  0  0  0
M  END
>  <minimizedAffinity>
-4.95333767

$$$$

 OpenBabel03272506523D

 34 36  0  0  1  0  0  0  0  0999 V2000
   35.4490   30.3150   31.5220 C   0  0  1  0  0  0  0  0  0  0  0  0
   36.1910   29.3350   30.7320 C   0  0  0  0  0  0  0  0  0  0  0  0
   37.0560   28.3650   31.4850 C   0  0  0  0  0  0  0  0  0  0  0  0
   36.5480   27.9120   32.8010 C   0  0  2  0  0  0  0  0  0  0  0  0
   35.7430   28.8780   33.6010 C   0  0  0  0  0  0  0  0  0  0  0  0
   34.8370   29.7070   32.7500 C   0  0  0  0  0  0  0  0  0  0  0  0
   34.5420   30.6360   30.9170 H   0  0  0  0  0  0  0  0  0  0  0  0
   36.7580   29.6780   29.8710 H   0  0  0  0  0  0  0  0  0  0  0  0
   35.4050   28.6570   30.2600 H   0  0  0  0  0  0  0  0  0  0  0  0
   38.0400   28.8720   31.6380 H   0  0  0  0  0  0  0  0  0  0  0  0
   37.2490   27.4880   30.8490 H   0  0  0  0  0  0  0  0  0  0  0  0
   35.9290   27.0020   32.6300 H   0  0  0  0  0  0  0  0  0  0  0  0
   35.1130   28.3130   34.3040 H   0  0  0  0  0  0  0  0  0  0  0  0
   36.4360   29.5340   34.1640 H   0  0  0  0  0  0  0  0  0  0  0  0
   34.1630   30.3350   33.3190 H   0  0  0  0  0  0  0  0  0  0  0  0
   34.1270   28.9340   32.3080 H   0  0  0  0  0  0  0  0  0  0  0  0
   35.9070   32.3280   32.9660 C   0  0  0  0  0  0  0  0  0  0  0  0
   36.1180   31.6150   31.7750 C   0  0  0  0  0  0  0  0  0  0  0  0
   36.9780   32.1650   30.8430 C   0  0  0  0  0  0  0  0  0  0  0  0
   37.5710   33.3620   31.1290 N   0  0  0  0  0  0  0  0  0  0  0  0
   37.3450   34.0220   32.2870 C   0  0  0  0  0  0  0  0  0  0  0  0
   36.5040   33.4940   33.2060 N   0  0  0  0  0  0  0  0  0  0  0  0
   35.2530   31.9770   33.7490 H   0  0  0  0  0  0  0  0  0  0  0  0
   37.2150   31.7040   29.8960 H   0  0  0  0  0  0  0  0  0  0  0  0
   37.8240   34.9700   32.4940 H   0  0  0  0  0  0  0  0  0  0  0  0
   37.7160   27.4990   33.6280 C   0  0  0  0  0  0  0  0  0  0  0  0
   37.5620   27.5400   35.0180 C   0  0  0  0  0  0  0  0  0  0  0  0
   36.6320   27.8590   35.4940 H   0  0  0  0  0  0  0  0  0  0  0  0
   38.6350   27.1600   35.8190 C   0  0  0  0  0  3  0  0  0  0  0  0
   39.8050   26.7590   35.2510 C   0  0  0  0  0  0  0  0  0  0  0  0
   40.6330   26.4650   35.8810 H   0  0  0  0  0  0  0  0  0  0  0  0
   39.9540   26.7180   33.8810 C   0  0  0  0  0  0  0  0  0  0  0  0
   40.9210   26.3860   33.4700 H   0  0  0  0  0  0  0  0  0  0  0  0
   38.9000   27.0920   33.0460 C   0  0  0  0  0  3  0  0  0  0  0  0
  1  7  1  6  0  0  0
  1 18  1  0  0  0  0
  1  6  1  0  0  0  0
  2  3  1  0  0  0  0
  2  1  1  0  0  0  0
  3 10  1  0  0  0  0
  3  4  1  0  0  0  0
  4 12  1  6  0  0  0
  4  5  1  0  0  0  0
  4 26  1  0  0  0  0
  5 14  1  0  0  0  0
  5 13  1  0  0  0  0
  6 15  1  0  0  0  0
  6  5  1  0  0  0  0
  8  2  1  0  0  0  0
  9  2  1  0  0  0  0
 11  3  1  0  0  0  0
 16  6  1  0  0  0  0
 17 22  1  0  0  0  0
 17 23  1  0  0  0  0
 18 17  2  0  0  0  0
 19 20  2  0  0  0  0
 19 18  1  0  0  0  0
 20 21  1  0  0  0  0
 21 25  1  0  0  0  0
 21 22  2  0  0  0  0
 24 19  1  0  0  0  0
 26 27  1  0  0  0  0
 27 28  1  0  0  0  0
 27 29  2  0  0  0  0
 30 29  1  0  0  0  0
 30 31  1  0  0  0  0
 32 30  2  0  0  0  0
 33 32  1  0  0  0  0
 34 26  2  0  0  0  0
 34 32  1  0  0  0  0
M  END
>  <minimizedAffinity>
-4.92073774

$$$$
