
 OpenBabel03262523483D

 38 41  0  0  0  0  0  0  0  0999 V2000
   38.6820   32.9380   49.7820 Cl  0  0  0  0  0  0  0  0  0  0  0  0
   38.6430   32.2730   48.1640 C   0  0  0  0  0  0  0  0  0  0  0  0
   37.8880   31.1510   47.8820 C   0  0  0  0  0  0  0  0  0  0  0  0
   37.9150   30.6970   46.5900 C   0  0  0  0  0  0  0  0  0  0  0  0
   38.6340   31.2830   45.5920 C   0  0  0  0  0  0  0  0  0  0  0  0
   39.3900   32.4220   45.9180 C   0  0  0  0  0  0  0  0  0  0  0  0
   40.3030   33.1550   44.6200 Cl  0  0  0  0  0  0  0  0  0  0  0  0
   39.3960   32.9170   47.2000 C   0  0  0  0  0  0  0  0  0  0  0  0
   37.3050   29.8100   46.4080 H   0  0  0  0  0  0  0  0  0  0  0  0
   39.9830   33.7950   47.4380 H   0  0  0  0  0  0  0  0  0  0  0  0
   36.8870   32.6130   43.4900 Cl  0  0  0  0  0  0  0  0  0  0  0  0
   37.8320   31.1430   43.1970 C   0  0  0  0  0  0  0  0  0  0  0  0
   38.5640   30.6860   44.2700 C   0  0  0  0  0  0  0  0  0  0  0  0
   39.3330   29.5340   44.1190 C   0  0  0  0  0  0  0  0  0  0  0  0
   39.3730   28.8480   42.9140 C   0  0  0  0  0  0  0  0  0  0  0  0
   38.6190   29.3470   41.8650 C   0  0  0  0  0  0  0  0  0  0  0  0
   37.8390   30.5000   41.9910 C   0  0  0  0  0  0  0  0  0  0  0  0
   39.9280   29.1210   44.9130 H   0  0  0  0  0  0  0  0  0  0  0  0
   39.9630   27.9520   42.7770 H   0  0  0  0  0  0  0  0  0  0  0  0
   38.6290   28.8340   40.9130 H   0  0  0  0  0  0  0  0  0  0  0  0
   37.0460   31.0250   40.8870 C   0  0  0  0  0  0  0  0  0  0  0  0
   35.7180   30.7500   40.6420 C   0  0  0  0  0  0  0  0  0  0  0  0
   35.2260   30.0930   41.3210 H   0  0  0  0  0  0  0  0  0  0  0  0
   35.0430   31.2930   39.5690 C   0  0  0  0  0  0  0  0  0  0  0  0
   35.6940   32.1540   38.6820 C   0  0  0  0  0  0  0  0  0  0  0  0
   35.2010   32.5990   37.8300 H   0  0  0  0  0  0  0  0  0  0  0  0
   37.0220   32.4040   38.9610 C   0  0  0  0  0  0  0  0  0  0  0  0
   37.5250   33.0830   38.2580 H   0  0  0  0  0  0  0  0  0  0  0  0
   37.7320   31.8780   40.0270 C   0  0  0  0  0  0  0  0  0  0  0  0
   37.0410   29.3520   51.0980 C   0  0  0  0  0  0  0  0  0  0  0  0
   37.7680   29.9160   50.0520 C   0  0  0  0  0  0  0  0  0  0  0  0
   37.1310   30.5550   48.9850 C   0  0  0  0  0  0  0  0  0  0  0  0
   35.7620   30.5980   49.0160 N   0  0  0  0  0  0  0  0  0  0  0  0
   35.0920   30.0410   50.0430 C   0  0  0  0  0  0  0  0  0  0  0  0
   35.6960   29.4320   51.0610 N   0  0  0  0  0  0  0  0  0  0  0  0
   37.5420   28.8640   51.9120 H   0  0  0  0  0  0  0  0  0  0  0  0
   38.8480   29.8880   50.0190 H   0  0  0  0  0  0  0  0  0  0  0  0
   34.0090   30.0510   50.1080 H   0  0  0  0  0  0  0  0  0  0  0  0
  2  1  1  0  0  0  0
  3  2  1  0  0  0  0
  3 32  1  0  0  0  0
  4  3  2  0  0  0  0
  5  6  2  0  0  0  0
  5  4  1  0  0  0  0
  6  8  1  0  0  0  0
  7  6  1  0  0  0  0
  8 10  1  0  0  0  0
  8  2  2  0  0  0  0
  9  4  1  0  0  0  0
 12 11  1  0  0  0  0
 12 13  1  0  0  0  0
 13  5  1  0  0  0  0
 14 13  2  0  0  0  0
 14 18  1  0  0  0  0
 15 14  1  0  0  0  0
 16 17  1  0  0  0  0
 16 15  2  0  0  0  0
 17 12  2  0  0  0  0
 19 15  1  0  0  0  0
 20 16  1  0  0  0  0
 21 17  1  0  0  0  0
 22 21  1  0  0  0  0
 22 23  1  0  0  0  0
 24 22  2  0  0  0  0
 25 27  2  0  0  0  0
 25 24  1  0  0  0  0
 26 25  1  0  0  0  0
 27 29  1  0  0  0  0
 28 27  1  0  0  0  0
 29 21  2  0  0  0  0
 30 36  1  0  0  0  0
 31 30  2  0  0  0  0
 32 33  2  0  0  0  0
 32 31  1  0  0  0  0
 33 34  1  0  0  0  0
 34 38  1  0  0  0  0
 34 35  2  0  0  0  0
 35 30  1  0  0  0  0
 37 31  1  0  0  0  0
M  END
>  <minimizedAffinity>
-6.40473652

>  <minimizedRMSD>
0.547766984

$$$$
