
 OpenBabel03272509273D

 41 43  0  0  1  0  0  0  0  0999 V2000
   37.6890   24.9750   33.8940 C   0  0  2  0  0  0  0  0  0  0  0  0
   37.1730   26.0800   32.9870 C   0  0  0  0  0  0  0  0  0  0  0  0
   37.6420   27.4190   33.4550 C   0  0  0  0  0  0  0  0  0  0  0  0
   37.7510   27.4220   34.9730 C   0  0  0  0  0  0  0  0  0  0  0  0
   39.0490   26.7000   35.1940 C   0  0  0  0  0  0  0  0  0  0  0  0
   38.8840   25.3020   34.6490 C   0  0  1  0  0  0  0  0  0  0  0  0
   36.7740   24.6710   34.4740 H   0  0  0  0  0  0  0  0  0  0  0  0
   36.0910   26.0700   32.8460 H   0  0  0  0  0  0  0  0  0  0  0  0
   37.6080   25.9490   31.9530 H   0  0  0  0  0  0  0  0  0  0  0  0
   36.9430   28.2150   33.1740 H   0  0  0  0  0  0  0  0  0  0  0  0
   38.6360   27.6840   33.0380 H   0  0  0  0  0  0  0  0  0  0  0  0
   37.9020   28.4770   35.2650 H   0  0  0  0  0  0  0  0  0  0  0  0
   36.8900   26.9430   35.4470 H   0  0  0  0  0  0  0  0  0  0  0  0
   39.8020   27.2830   34.5840 H   0  0  0  0  0  0  0  0  0  0  0  0
   39.3490   26.8220   36.2180 H   0  0  0  0  0  0  0  0  0  0  0  0
   39.8050   25.0870   34.1080 H   0  0  0  0  0  0  0  0  0  0  0  0
   38.8770   24.5670   35.9930 C   0  0  0  0  0  0  0  0  0  0  0  0
   39.7850   23.5670   36.2890 C   0  0  0  0  0  0  0  0  0  0  0  0
   40.5200   23.3050   35.5350 H   0  0  0  0  0  0  0  0  0  0  0  0
   39.8600   22.8580   37.4640 C   0  0  0  0  0  3  0  0  0  0  0  0
   38.9400   23.1830   38.4360 C   0  0  0  0  0  0  0  0  0  0  0  0
   38.9710   22.6500   39.3630 H   0  0  0  0  0  0  0  0  0  0  0  0
   38.0090   24.1680   38.2120 C   0  0  0  0  0  0  0  0  0  0  0  0
   37.3180   24.3810   38.9980 H   0  0  0  0  0  0  0  0  0  0  0  0
   37.9900   24.8380   37.0090 C   0  0  0  0  0  3  0  0  0  0  0  0
   38.0090   23.5550   32.8050 S   0  0  0  0  0  0  0  0  0  0  0  0
   36.9390   23.5400   31.3520 C   0  0  0  0  0  0  0  0  0  0  0  0
   36.8040   24.6370   31.0850 H   0  0  0  0  0  0  0  0  0  0  0  0
   37.5070   23.1670   30.5040 H   0  0  0  0  0  0  0  0  0  0  0  0
   35.6290   22.9100   31.6720 C   0  0  0  0  0  0  0  0  0  0  0  0
   34.9430   23.0470   30.8010 H   0  0  0  0  0  0  0  0  0  0  0  0
   35.1730   23.2870   32.6130 H   0  0  0  0  0  0  0  0  0  0  0  0
   35.4530   19.4050   32.9440 C   0  0  0  0  0  0  0  0  0  0  0  0
   35.3400   20.7890   32.9040 C   0  0  0  0  0  0  0  0  0  0  0  0
   35.6870   21.4680   31.7730 C   0  0  0  0  0  0  0  0  0  0  0  0
   36.1370   20.7100   30.7180 N   0  0  0  0  0  0  0  0  0  0  0  0
   36.2340   19.3860   30.7850 C   0  0  0  0  0  0  0  0  0  0  0  0
   35.8990   18.7090   31.8840 N   0  0  0  0  0  0  0  0  0  0  0  0
   35.1960   18.8110   33.8060 H   0  0  0  0  0  0  0  0  0  0  0  0
   34.9590   21.1800   33.8320 H   0  0  0  0  0  0  0  0  0  0  0  0
   36.5960   18.8390   29.9170 H   0  0  0  0  0  0  0  0  0  0  0  0
  1  7  1  1  0  0  0
  1  6  1  0  0  0  0
  2  3  1  0  0  0  0
  2  1  1  0  0  0  0
  3  4  1  0  0  0  0
  4  5  1  0  0  0  0
  4 12  1  0  0  0  0
  4 13  1  0  0  0  0
  5 15  1  0  0  0  0
  6 16  1  6  0  0  0
  6  5  1  0  0  0  0
  6 17  1  0  0  0  0
  8  2  1  0  0  0  0
  9  2  1  0  0  0  0
 10  3  1  0  0  0  0
 11  3  1  0  0  0  0
 14  5  1  0  0  0  0
 17 18  2  0  0  0  0
 17 25  1  0  0  0  0
 18 20  1  0  0  0  0
 19 18  1  0  0  0  0
 20 21  2  0  0  0  0
 21 22  1  0  0  0  0
 23 21  1  0  0  0  0
 23 24  1  0  0  0  0
 25 23  2  0  0  0  0
 26  1  1  0  0  0  0
 27 30  1  0  0  0  0
 27 26  1  0  0  0  0
 28 27  1  0  0  0  0
 29 27  1  0  0  0  0
 30 35  1  0  0  0  0
 30 32  1  0  0  0  0
 31 30  1  0  0  0  0
 33 39  1  0  0  0  0
 34 33  1  0  0  0  0
 34 40  1  0  0  0  0
 35 34  2  0  0  0  0
 36 37  2  0  0  0  0
 36 35  1  0  0  0  0
 37 38  1  0  0  0  0
 38 33  2  0  0  0  0
 41 37  1  0  0  0  0
M  END
>  <minimizedAffinity>
-5.74572372

$$$$

 OpenBabel03272509273D

 41 43  0  0  1  0  0  0  0  0999 V2000
   38.8690   25.2520   33.3250 C   0  0  2  0  0  0  0  0  0  0  0  0
   40.1930   24.6010   33.6910 C   0  0  0  0  0  0  0  0  0  0  0  0
   40.8320   25.3030   34.8440 C   0  0  0  0  0  0  0  0  0  0  0  0
   40.4950   26.7850   34.7930 C   0  0  0  0  0  0  0  0  0  0  0  0
   39.0950   26.8060   35.3360 C   0  0  0  0  0  0  0  0  0  0  0  0
   38.2340   26.0050   34.3890 C   0  0  1  0  0  0  0  0  0  0  0  0
   39.1070   25.7990   32.3700 H   0  0  0  0  0  0  0  0  0  0  0  0
   40.8870   24.5060   32.8550 H   0  0  0  0  0  0  0  0  0  0  0  0
   40.0060   23.5440   34.0420 H   0  0  0  0  0  0  0  0  0  0  0  0
   41.9250   25.2120   34.8200 H   0  0  0  0  0  0  0  0  0  0  0  0
   40.4860   24.9040   35.8210 H   0  0  0  0  0  0  0  0  0  0  0  0
   41.1490   27.2720   35.5400 H   0  0  0  0  0  0  0  0  0  0  0  0
   40.5860   27.1920   33.7830 H   0  0  0  0  0  0  0  0  0  0  0  0
   39.1760   26.2910   36.3400 H   0  0  0  0  0  0  0  0  0  0  0  0
   38.8170   27.8200   35.5530 H   0  0  0  0  0  0  0  0  0  0  0  0
   37.5910   25.3940   35.0220 H   0  0  0  0  0  0  0  0  0  0  0  0
   37.4410   27.1780   33.8060 C   0  0  0  0  0  0  0  0  0  0  0  0
   36.5890   27.9460   34.5790 C   0  0  0  0  0  0  0  0  0  0  0  0
   36.4900   27.6980   35.6310 H   0  0  0  0  0  0  0  0  0  0  0  0
   35.8430   29.0170   34.1480 C   0  0  0  0  0  3  0  0  0  0  0  0
   35.9620   29.3520   32.8180 C   0  0  0  0  0  0  0  0  0  0  0  0
   35.3950   30.1810   32.4500 H   0  0  0  0  0  0  0  0  0  0  0  0
   36.7920   28.6350   31.9910 C   0  0  0  0  0  0  0  0  0  0  0  0
   36.8480   28.9350   30.9680 H   0  0  0  0  0  0  0  0  0  0  0  0
   37.5100   27.5700   32.4890 C   0  0  0  0  0  3  0  0  0  0  0  0
   37.7850   23.8930   32.7910 S   0  0  0  0  0  0  0  0  0  0  0  0
   38.3050   22.2930   33.4440 C   0  0  0  0  0  0  0  0  0  0  0  0
   38.0490   21.5520   32.6210 H   0  0  0  0  0  0  0  0  0  0  0  0
   39.3910   22.2560   33.4540 H   0  0  0  0  0  0  0  0  0  0  0  0
   37.5640   21.9700   34.6930 C   0  0  0  0  0  0  0  0  0  0  0  0
   37.5370   20.8610   34.8170 H   0  0  0  0  0  0  0  0  0  0  0  0
   36.5420   22.4090   34.7300 H   0  0  0  0  0  0  0  0  0  0  0  0
   38.4020   23.5660   37.9620 C   0  0  0  0  0  0  0  0  0  0  0  0
   37.6740   23.1790   36.8440 C   0  0  0  0  0  0  0  0  0  0  0  0
   38.2490   22.3830   35.8990 C   0  0  0  0  0  0  0  0  0  0  0  0
   39.5510   22.0040   36.1270 N   0  0  0  0  0  0  0  0  0  0  0  0
   40.2240   22.3880   37.2070 C   0  0  0  0  0  0  0  0  0  0  0  0
   39.6740   23.1690   38.1390 N   0  0  0  0  0  0  0  0  0  0  0  0
   38.0060   24.1950   38.7430 H   0  0  0  0  0  0  0  0  0  0  0  0
   36.6740   23.5780   36.8680 H   0  0  0  0  0  0  0  0  0  0  0  0
   41.2520   22.0570   37.3340 H   0  0  0  0  0  0  0  0  0  0  0  0
  1  7  1  6  0  0  0
  1  2  1  0  0  0  0
  1  6  1  0  0  0  0
  2  9  1  0  0  0  0
  2  3  1  0  0  0  0
  3 11  1  0  0  0  0
  4  3  1  0  0  0  0
  4  5  1  0  0  0  0
  4 12  1  0  0  0  0
  5 15  1  0  0  0  0
  5 14  1  0  0  0  0
  6 16  1  1  0  0  0
  6  5  1  0  0  0  0
  8  2  1  0  0  0  0
 10  3  1  0  0  0  0
 13  4  1  0  0  0  0
 17  6  1  0  0  0  0
 17 18  1  0  0  0  0
 18 19  1  0  0  0  0
 20 18  2  0  0  0  0
 21 20  1  0  0  0  0
 22 21  1  0  0  0  0
 23 25  1  0  0  0  0
 23 21  2  0  0  0  0
 24 23  1  0  0  0  0
 25 17  2  0  0  0  0
 26  1  1  0  0  0  0
 26 27  1  0  0  0  0
 27 29  1  0  0  0  0
 27 30  1  0  0  0  0
 28 27  1  0  0  0  0
 30 32  1  0  0  0  0
 30 31  1  0  0  0  0
 30 35  1  0  0  0  0
 33 38  1  0  0  0  0
 33 39  1  0  0  0  0
 34 40  1  0  0  0  0
 34 33  2  0  0  0  0
 35 36  2  0  0  0  0
 35 34  1  0  0  0  0
 36 37  1  0  0  0  0
 37 41  1  0  0  0  0
 37 38  2  0  0  0  0
M  END
>  <minimizedAffinity>
-5.33644915

$$$$

 OpenBabel03272509273D

 41 43  0  0  1  0  0  0  0  0999 V2000
   38.9480   25.1500   33.4390 C   0  0  2  0  0  0  0  0  0  0  0  0
   40.2950   24.5220   33.7640 C   0  0  0  0  0  0  0  0  0  0  0  0
   41.0370   25.3400   34.7690 C   0  0  0  0  0  0  0  0  0  0  0  0
   40.7070   26.8120   34.5760 C   0  0  0  0  0  0  0  0  0  0  0  0
   39.3600   26.9190   35.2310 C   0  0  0  0  0  0  0  0  0  0  0  0
   38.4140   26.0300   34.4600 C   0  0  1  0  0  0  0  0  0  0  0  0
   39.1060   25.5790   32.4110 H   0  0  0  0  0  0  0  0  0  0  0  0
   40.9130   24.3200   32.8870 H   0  0  0  0  0  0  0  0  0  0  0  0
   40.1310   23.5150   34.2490 H   0  0  0  0  0  0  0  0  0  0  0  0
   42.1220   25.2280   34.6620 H   0  0  0  0  0  0  0  0  0  0  0  0
   40.7740   25.0620   35.8120 H   0  0  0  0  0  0  0  0  0  0  0  0
   41.4270   27.3710   35.2030 H   0  0  0  0  0  0  0  0  0  0  0  0
   40.7120   27.1000   33.5220 H   0  0  0  0  0  0  0  0  0  0  0  0
   39.5240   26.5210   36.2770 H   0  0  0  0  0  0  0  0  0  0  0  0
   39.1090   27.9570   35.3520 H   0  0  0  0  0  0  0  0  0  0  0  0
   37.8250   25.5070   35.2120 H   0  0  0  0  0  0  0  0  0  0  0  0
   37.5820   27.1420   33.8150 C   0  0  0  0  0  0  0  0  0  0  0  0
   36.6790   27.8980   34.5400 C   0  0  0  0  0  0  0  0  0  0  0  0
   36.5680   27.6860   35.5980 H   0  0  0  0  0  0  0  0  0  0  0  0
   35.8950   28.9170   34.0520 C   0  0  0  0  0  3  0  0  0  0  0  0
   36.0280   29.2060   32.7130 C   0  0  0  0  0  0  0  0  0  0  0  0
   35.4330   29.9940   32.3020 H   0  0  0  0  0  0  0  0  0  0  0  0
   36.9070   28.4970   31.9320 C   0  0  0  0  0  0  0  0  0  0  0  0
   36.9730   28.7610   30.8990 H   0  0  0  0  0  0  0  0  0  0  0  0
   37.6620   27.4870   32.4860 C   0  0  0  0  0  3  0  0  0  0  0  0
   37.8130   23.7580   33.1610 S   0  0  0  0  0  0  0  0  0  0  0  0
   37.0660   23.7880   31.5180 C   0  0  0  0  0  0  0  0  0  0  0  0
   37.0050   24.8920   31.2520 H   0  0  0  0  0  0  0  0  0  0  0  0
   37.7910   23.4200   30.7980 H   0  0  0  0  0  0  0  0  0  0  0  0
   35.7080   23.1780   31.5480 C   0  0  0  0  0  0  0  0  0  0  0  0
   35.1770   23.4400   30.6020 H   0  0  0  0  0  0  0  0  0  0  0  0
   35.1120   23.4650   32.4420 H   0  0  0  0  0  0  0  0  0  0  0  0
   34.9550   19.5690   32.1300 C   0  0  0  0  0  0  0  0  0  0  0  0
   34.8660   20.9530   32.2100 C   0  0  0  0  0  0  0  0  0  0  0  0
   35.7190   21.7330   31.4870 C   0  0  0  0  0  0  0  0  0  0  0  0
   36.6360   21.0740   30.7020 N   0  0  0  0  0  0  0  0  0  0  0  0
   36.6970   19.7470   30.6440 C   0  0  0  0  0  0  0  0  0  0  0  0
   35.8700   18.9720   31.3470 N   0  0  0  0  0  0  0  0  0  0  0  0
   34.3120   18.8980   32.6760 H   0  0  0  0  0  0  0  0  0  0  0  0
   34.0750   21.2590   32.8730 H   0  0  0  0  0  0  0  0  0  0  0  0
   37.4440   19.2810   30.0050 H   0  0  0  0  0  0  0  0  0  0  0  0
  1  7  1  6  0  0  0
  1  2  1  0  0  0  0
  1  6  1  0  0  0  0
  2  9  1  0  0  0  0
  2  3  1  0  0  0  0
  3 11  1  0  0  0  0
  4  3  1  0  0  0  0
  4 12  1  0  0  0  0
  4  5  1  0  0  0  0
  5 15  1  0  0  0  0
  5 14  1  0  0  0  0
  6 16  1  1  0  0  0
  6  5  1  0  0  0  0
  8  2  1  0  0  0  0
 10  3  1  0  0  0  0
 13  4  1  0  0  0  0
 17  6  1  0  0  0  0
 17 18  1  0  0  0  0
 18 19  1  0  0  0  0
 20 18  2  0  0  0  0
 21 20  1  0  0  0  0
 22 21  1  0  0  0  0
 23 25  1  0  0  0  0
 23 21  2  0  0  0  0
 24 23  1  0  0  0  0
 25 17  2  0  0  0  0
 26  1  1  0  0  0  0
 27 30  1  0  0  0  0
 27 26  1  0  0  0  0
 28 27  1  0  0  0  0
 29 27  1  0  0  0  0
 30 32  1  0  0  0  0
 31 30  1  0  0  0  0
 33 34  1  0  0  0  0
 33 39  1  0  0  0  0
 34 40  1  0  0  0  0
 35 30  1  0  0  0  0
 35 34  2  0  0  0  0
 36 35  1  0  0  0  0
 37 36  2  0  0  0  0
 37 38  1  0  0  0  0
 38 33  2  0  0  0  0
 41 37  1  0  0  0  0
M  END
>  <minimizedAffinity>
-5.2536068

$$$$

 OpenBabel03272509273D

 41 43  0  0  1  0  0  0  0  0999 V2000
   36.6340   24.3550   32.2340 C   0  0  2  0  0  0  0  0  0  0  0  0
   35.4210   24.2200   31.3280 C   0  0  0  0  0  0  0  0  0  0  0  0
   35.1200   25.5130   30.6420 C   0  0  0  0  0  0  0  0  0  0  0  0
   35.4900   26.6740   31.5520 C   0  0  0  0  0  0  0  0  0  0  0  0
   36.9810   26.7370   31.3870 C   0  0  0  0  0  0  0  0  0  0  0  0
   37.5450   25.4310   31.8930 C   0  0  1  0  0  0  0  0  0  0  0  0
   36.1850   24.3610   33.2660 H   0  0  0  0  0  0  0  0  0  0  0  0
   34.5350   23.8250   31.8280 H   0  0  0  0  0  0  0  0  0  0  0  0
   35.6500   23.4830   30.5030 H   0  0  0  0  0  0  0  0  0  0  0  0
   34.0540   25.6070   30.4040 H   0  0  0  0  0  0  0  0  0  0  0  0
   35.6860   25.6250   29.6930 H   0  0  0  0  0  0  0  0  0  0  0  0
   35.0640   27.5790   31.0800 H   0  0  0  0  0  0  0  0  0  0  0  0
   35.1640   26.5090   32.5820 H   0  0  0  0  0  0  0  0  0  0  0  0
   37.1360   26.8370   30.2720 H   0  0  0  0  0  0  0  0  0  0  0  0
   37.3440   27.6540   31.8130 H   0  0  0  0  0  0  0  0  0  0  0  0
   38.3020   25.1370   31.1670 H   0  0  0  0  0  0  0  0  0  0  0  0
   38.2100   25.9810   33.1580 C   0  0  0  0  0  0  0  0  0  0  0  0
   37.5350   26.0760   34.3610 C   0  0  0  0  0  0  0  0  0  0  0  0
   36.5030   25.7440   34.3960 H   0  0  0  0  0  0  0  0  0  0  0  0
   38.0480   26.5490   35.5460 C   0  0  0  0  0  3  0  0  0  0  0  0
   39.3600   26.9650   35.5240 C   0  0  0  0  0  0  0  0  0  0  0  0
   39.7900   27.3380   36.4290 H   0  0  0  0  0  0  0  0  0  0  0  0
   40.0920   26.8980   34.3630 C   0  0  0  0  0  0  0  0  0  0  0  0
   41.1060   27.2340   34.4000 H   0  0  0  0  0  0  0  0  0  0  0  0
   39.5150   26.4140   33.2100 C   0  0  0  0  0  3  0  0  0  0  0  0
   37.4960   22.7570   32.1420 S   0  0  0  0  0  0  0  0  0  0  0  0
   37.7550   22.0130   33.7650 C   0  0  0  0  0  0  0  0  0  0  0  0
   36.8800   22.3800   34.3920 H   0  0  0  0  0  0  0  0  0  0  0  0
   37.5550   20.9470   33.6970 H   0  0  0  0  0  0  0  0  0  0  0  0
   39.0480   22.4650   34.3490 C   0  0  0  0  0  0  0  0  0  0  0  0
   39.3010   23.4660   33.9270 H   0  0  0  0  0  0  0  0  0  0  0  0
   39.8780   21.7390   34.2030 H   0  0  0  0  0  0  0  0  0  0  0  0
   39.9090   22.9330   37.9510 C   0  0  0  0  0  0  0  0  0  0  0  0
   40.0560   22.6760   36.5940 C   0  0  0  0  0  0  0  0  0  0  0  0
   38.9760   22.7530   35.7650 C   0  0  0  0  0  0  0  0  0  0  0  0
   37.7790   23.0940   36.3490 N   0  0  0  0  0  0  0  0  0  0  0  0
   37.6680   23.3360   37.6510 C   0  0  0  0  0  0  0  0  0  0  0  0
   38.7160   23.2630   38.4740 N   0  0  0  0  0  0  0  0  0  0  0  0
   40.7210   22.8870   38.6580 H   0  0  0  0  0  0  0  0  0  0  0  0
   41.0770   22.4380   36.3460 H   0  0  0  0  0  0  0  0  0  0  0  0
   36.6950   23.6020   38.0580 H   0  0  0  0  0  0  0  0  0  0  0  0
  1  7  1  1  0  0  0
  2  8  1  0  0  0  0
  2  1  1  0  0  0  0
  3  2  1  0  0  0  0
  3  4  1  0  0  0  0
  4 13  1  0  0  0  0
  5  4  1  0  0  0  0
  5 15  1  0  0  0  0
  5  6  1  0  0  0  0
  6 16  1  6  0  0  0
  6  1  1  0  0  0  0
  6 17  1  0  0  0  0
  9  2  1  0  0  0  0
 10  3  1  0  0  0  0
 11  3  1  0  0  0  0
 12  4  1  0  0  0  0
 14  5  1  0  0  0  0
 17 25  2  0  0  0  0
 17 18  1  0  0  0  0
 18 19  1  0  0  0  0
 18 20  2  0  0  0  0
 21 20  1  0  0  0  0
 21 22  1  0  0  0  0
 23 24  1  0  0  0  0
 23 21  2  0  0  0  0
 25 23  1  0  0  0  0
 26  1  1  0  0  0  0
 26 27  1  0  0  0  0
 27 30  1  0  0  0  0
 27 28  1  0  0  0  0
 29 27  1  0  0  0  0
 30 35  1  0  0  0  0
 31 30  1  0  0  0  0
 32 30  1  0  0  0  0
 33 38  1  0  0  0  0
 33 39  1  0  0  0  0
 34 33  2  0  0  0  0
 35 36  2  0  0  0  0
 35 34  1  0  0  0  0
 36 37  1  0  0  0  0
 37 41  1  0  0  0  0
 37 38  2  0  0  0  0
 40 34  1  0  0  0  0
M  END
>  <minimizedAffinity>
-5.22862387

$$$$

 OpenBabel03272509273D

 41 43  0  0  1  0  0  0  0  0999 V2000
   38.6710   25.6070   33.8080 C   0  0  2  0  0  0  0  0  0  0  0  0
   39.1490   26.6960   32.8620 C   0  0  0  0  0  0  0  0  0  0  0  0
   40.5860   27.0220   33.1050 C   0  0  0  0  0  0  0  0  0  0  0  0
   40.9080   26.8500   34.5820 C   0  0  0  0  0  0  0  0  0  0  0  0
   41.0490   25.3600   34.7000 C   0  0  0  0  0  0  0  0  0  0  0  0
   39.7120   24.7530   34.3460 C   0  0  1  0  0  0  0  0  0  0  0  0
   38.0270   26.1670   34.5410 H   0  0  0  0  0  0  0  0  0  0  0  0
   38.5340   27.5980   32.8760 H   0  0  0  0  0  0  0  0  0  0  0  0
   39.0970   26.3190   31.7990 H   0  0  0  0  0  0  0  0  0  0  0  0
   40.8190   28.0590   32.8350 H   0  0  0  0  0  0  0  0  0  0  0  0
   41.2680   26.3650   32.5250 H   0  0  0  0  0  0  0  0  0  0  0  0
   41.9110   27.2930   34.7280 H   0  0  0  0  0  0  0  0  0  0  0  0
   40.1320   27.2750   35.2230 H   0  0  0  0  0  0  0  0  0  0  0  0
   41.8300   25.0900   33.9280 H   0  0  0  0  0  0  0  0  0  0  0  0
   41.4870   25.1220   35.6510 H   0  0  0  0  0  0  0  0  0  0  0  0
   39.9370   23.8980   33.7090 H   0  0  0  0  0  0  0  0  0  0  0  0
   39.3340   24.2800   35.7520 C   0  0  0  0  0  0  0  0  0  0  0  0
   40.0360   23.2830   36.4060 C   0  0  0  0  0  0  0  0  0  0  0  0
   40.8800   22.8330   35.8940 H   0  0  0  0  0  0  0  0  0  0  0  0
   39.7750   22.7980   37.6650 C   0  0  0  0  0  3  0  0  0  0  0  0
   38.7140   23.3640   38.3340 C   0  0  0  0  0  0  0  0  0  0  0  0
   38.4850   23.0090   39.3170 H   0  0  0  0  0  0  0  0  0  0  0  0
   37.9720   24.3600   37.7470 C   0  0  0  0  0  0  0  0  0  0  0  0
   37.1590   24.7660   38.3080 H   0  0  0  0  0  0  0  0  0  0  0  0
   38.2880   24.7990   36.4790 C   0  0  0  0  0  3  0  0  0  0  0  0
   37.4830   24.6150   32.8540 S   0  0  0  0  0  0  0  0  0  0  0  0
   37.2030   25.2720   31.1960 C   0  0  0  0  0  0  0  0  0  0  0  0
   38.0860   25.9640   31.0090 H   0  0  0  0  0  0  0  0  0  0  0  0
   37.3770   24.4800   30.4730 H   0  0  0  0  0  0  0  0  0  0  0  0
   35.9220   26.0270   31.1410 C   0  0  0  0  0  0  0  0  0  0  0  0
   35.3510   25.8350   32.0810 H   0  0  0  0  0  0  0  0  0  0  0  0
   35.3110   25.7980   30.2390 H   0  0  0  0  0  0  0  0  0  0  0  0
   35.8420   29.6030   32.2090 C   0  0  0  0  0  0  0  0  0  0  0  0
   35.6790   28.2240   32.2430 C   0  0  0  0  0  0  0  0  0  0  0  0
   36.0910   27.4630   31.1890 C   0  0  0  0  0  0  0  0  0  0  0  0
   36.6580   28.1360   30.1320 N   0  0  0  0  0  0  0  0  0  0  0  0
   36.8020   29.4570   30.1270 C   0  0  0  0  0  0  0  0  0  0  0  0
   36.4030   30.2140   31.1510 N   0  0  0  0  0  0  0  0  0  0  0  0
   35.5370   30.2590   33.0070 H   0  0  0  0  0  0  0  0  0  0  0  0
   35.2240   27.9040   33.1650 H   0  0  0  0  0  0  0  0  0  0  0  0
   37.2580   29.9350   29.2630 H   0  0  0  0  0  0  0  0  0  0  0  0
  1  6  1  0  0  0  0
  1  7  1  1  0  0  0
  2  8  1  0  0  0  0
  2  3  1  0  0  0  0
  2  1  1  0  0  0  0
  3  4  1  0  0  0  0
  4  5  1  0  0  0  0
  4 12  1  0  0  0  0
  4 13  1  0  0  0  0
  5 15  1  0  0  0  0
  6 16  1  6  0  0  0
  6  5  1  0  0  0  0
  6 17  1  0  0  0  0
  9  2  1  0  0  0  0
 10  3  1  0  0  0  0
 11  3  1  0  0  0  0
 14  5  1  0  0  0  0
 17 18  2  0  0  0  0
 17 25  1  0  0  0  0
 18 20  1  0  0  0  0
 19 18  1  0  0  0  0
 20 21  2  0  0  0  0
 21 22  1  0  0  0  0
 23 24  1  0  0  0  0
 23 21  1  0  0  0  0
 25 23  2  0  0  0  0
 26  1  1  0  0  0  0
 27 26  1  0  0  0  0
 28 27  1  0  0  0  0
 29 27  1  0  0  0  0
 30 35  1  0  0  0  0
 30 27  1  0  0  0  0
 30 31  1  0  0  0  0
 32 30  1  0  0  0  0
 33 34  1  0  0  0  0
 33 39  1  0  0  0  0
 34 40  1  0  0  0  0
 35 34  2  0  0  0  0
 36 35  1  0  0  0  0
 37 36  2  0  0  0  0
 37 38  1  0  0  0  0
 38 33  2  0  0  0  0
 41 37  1  0  0  0  0
M  END
>  <minimizedAffinity>
-5.18720627

$$$$

 OpenBabel03272509273D

 41 43  0  0  1  0  0  0  0  0999 V2000
   37.0330   27.0400   33.9050 C   0  0  2  0  0  0  0  0  0  0  0  0
   37.4550   27.7740   35.1670 C   0  0  0  0  0  0  0  0  0  0  0  0
   38.5610   27.0490   35.8630 C   0  0  0  0  0  0  0  0  0  0  0  0
   38.4020   25.5510   35.6550 C   0  0  0  0  0  0  0  0  0  0  0  0
   38.9300   25.3710   34.2610 C   0  0  0  0  0  0  0  0  0  0  0  0
   38.0360   26.1610   33.3360 C   0  0  1  0  0  0  0  0  0  0  0  0
   36.0440   26.5850   34.1910 H   0  0  0  0  0  0  0  0  0  0  0  0
   36.6330   27.9880   35.8530 H   0  0  0  0  0  0  0  0  0  0  0  0
   37.8800   28.7830   34.8890 H   0  0  0  0  0  0  0  0  0  0  0  0
   38.5520   27.2350   36.9430 H   0  0  0  0  0  0  0  0  0  0  0  0
   39.5610   27.3450   35.4820 H   0  0  0  0  0  0  0  0  0  0  0  0
   39.1170   25.0690   36.3480 H   0  0  0  0  0  0  0  0  0  0  0  0
   37.3650   25.2260   35.7820 H   0  0  0  0  0  0  0  0  0  0  0  0
   39.9690   25.8170   34.2950 H   0  0  0  0  0  0  0  0  0  0  0  0
   39.0720   24.3230   34.0710 H   0  0  0  0  0  0  0  0  0  0  0  0
   38.7060   26.6670   32.6420 H   0  0  0  0  0  0  0  0  0  0  0  0
   37.3640   24.9680   32.6480 C   0  0  0  0  0  0  0  0  0  0  0  0
   36.1970   25.1030   31.9190 C   0  0  0  0  0  0  0  0  0  0  0  0
   35.7550   26.0900   31.8390 H   0  0  0  0  0  0  0  0  0  0  0  0
   35.5270   24.0960   31.2640 C   0  0  0  0  0  3  0  0  0  0  0  0
   36.0780   22.8380   31.3460 C   0  0  0  0  0  0  0  0  0  0  0  0
   35.5820   22.0320   30.8480 H   0  0  0  0  0  0  0  0  0  0  0  0
   37.2380   22.6300   32.0530 C   0  0  0  0  0  0  0  0  0  0  0  0
   37.6240   21.6350   32.0860 H   0  0  0  0  0  0  0  0  0  0  0  0
   37.8570   23.6850   32.6870 C   0  0  0  0  0  3  0  0  0  0  0  0
   36.5890   28.3350   32.7090 S   0  0  0  0  0  0  0  0  0  0  0  0
   35.1450   29.2880   33.2220 C   0  0  0  0  0  0  0  0  0  0  0  0
   34.5110   29.3750   32.2820 H   0  0  0  0  0  0  0  0  0  0  0  0
   34.5240   28.6650   33.8600 H   0  0  0  0  0  0  0  0  0  0  0  0
   35.5510   30.6350   33.7100 C   0  0  0  0  0  0  0  0  0  0  0  0
   35.1910   31.4020   32.9840 H   0  0  0  0  0  0  0  0  0  0  0  0
   36.6440   30.7290   33.8940 H   0  0  0  0  0  0  0  0  0  0  0  0
   34.7780   32.1290   37.0410 C   0  0  0  0  0  0  0  0  0  0  0  0
   35.4720   31.8040   35.8840 C   0  0  0  0  0  0  0  0  0  0  0  0
   34.8770   31.0410   34.9240 C   0  0  0  0  0  0  0  0  0  0  0  0
   33.5870   30.6340   35.1760 N   0  0  0  0  0  0  0  0  0  0  0  0
   32.9470   30.9610   36.2940 C   0  0  0  0  0  0  0  0  0  0  0  0
   33.5170   31.7070   37.2420 N   0  0  0  0  0  0  0  0  0  0  0  0
   35.1910   32.7260   37.8370 H   0  0  0  0  0  0  0  0  0  0  0  0
   36.4600   32.2310   35.8840 H   0  0  0  0  0  0  0  0  0  0  0  0
   31.9270   30.6110   36.4390 H   0  0  0  0  0  0  0  0  0  0  0  0
  1  7  1  1  0  0  0
  1  2  1  0  0  0  0
  2  8  1  0  0  0  0
  2  3  1  0  0  0  0
  3 10  1  0  0  0  0
  4 13  1  0  0  0  0
  4  3  1  0  0  0  0
  4 12  1  0  0  0  0
  5 14  1  0  0  0  0
  5  4  1  0  0  0  0
  6 16  1  6  0  0  0
  6  1  1  0  0  0  0
  6  5  1  0  0  0  0
  9  2  1  0  0  0  0
 11  3  1  0  0  0  0
 15  5  1  0  0  0  0
 17 25  1  0  0  0  0
 17  6  1  0  0  0  0
 18 17  2  0  0  0  0
 19 18  1  0  0  0  0
 20 21  2  0  0  0  0
 20 18  1  0  0  0  0
 21 23  1  0  0  0  0
 22 21  1  0  0  0  0
 23 24  1  0  0  0  0
 23 25  2  0  0  0  0
 26 27  1  0  0  0  0
 26  1  1  0  0  0  0
 27 30  1  0  0  0  0
 27 29  1  0  0  0  0
 28 27  1  0  0  0  0
 30 32  1  0  0  0  0
 30 35  1  0  0  0  0
 31 30  1  0  0  0  0
 33 38  1  0  0  0  0
 33 39  1  0  0  0  0
 34 40  1  0  0  0  0
 34 33  2  0  0  0  0
 35 36  2  0  0  0  0
 35 34  1  0  0  0  0
 36 37  1  0  0  0  0
 37 41  1  0  0  0  0
 37 38  2  0  0  0  0
M  END
>  <minimizedAffinity>
-5.17521429

$$$$

 OpenBabel03272509273D

 41 43  0  0  1  0  0  0  0  0999 V2000
   36.5620   26.7990   31.6240 C   0  0  2  0  0  0  0  0  0  0  0  0
   35.4730   25.9650   30.9680 C   0  0  0  0  0  0  0  0  0  0  0  0
   35.5400   24.5450   31.4250 C   0  0  0  0  0  0  0  0  0  0  0  0
   36.9860   24.1600   31.6930 C   0  0  0  0  0  0  0  0  0  0  0  0
   37.2310   24.7830   33.0380 C   0  0  0  0  0  0  0  0  0  0  0  0
   37.0720   26.2760   32.8760 C   0  0  1  0  0  0  0  0  0  0  0  0
   37.2990   26.9620   30.7890 H   0  0  0  0  0  0  0  0  0  0  0  0
   35.4630   26.0270   29.8780 H   0  0  0  0  0  0  0  0  0  0  0  0
   34.4610   26.3450   31.2960 H   0  0  0  0  0  0  0  0  0  0  0  0
   35.1500   23.8550   30.6660 H   0  0  0  0  0  0  0  0  0  0  0  0
   34.9600   24.3770   32.3570 H   0  0  0  0  0  0  0  0  0  0  0  0
   36.9900   23.0620   31.8290 H   0  0  0  0  0  0  0  0  0  0  0  0
   37.6590   24.5170   30.9090 H   0  0  0  0  0  0  0  0  0  0  0  0
   36.4150   24.3600   33.6960 H   0  0  0  0  0  0  0  0  0  0  0  0
   38.1530   24.4030   33.4390 H   0  0  0  0  0  0  0  0  0  0  0  0
   36.5000   26.6050   33.7430 H   0  0  0  0  0  0  0  0  0  0  0  0
   38.5480   26.6490   33.0430 C   0  0  0  0  0  0  0  0  0  0  0  0
   39.1650   26.6710   34.2800 C   0  0  0  0  0  0  0  0  0  0  0  0
   38.5730   26.4110   35.1520 H   0  0  0  0  0  0  0  0  0  0  0  0
   40.4800   26.9860   34.5280 C   0  0  0  0  0  3  0  0  0  0  0  0
   41.2500   27.3090   33.4330 C   0  0  0  0  0  0  0  0  0  0  0  0
   42.2780   27.5590   33.5910 H   0  0  0  0  0  0  0  0  0  0  0  0
   40.7040   27.3070   32.1730 C   0  0  0  0  0  0  0  0  0  0  0  0
   41.3440   27.5660   31.3580 H   0  0  0  0  0  0  0  0  0  0  0  0
   39.3770   26.9820   31.9970 C   0  0  0  0  0  3  0  0  0  0  0  0
   35.8300   28.4420   31.8880 S   0  0  0  0  0  0  0  0  0  0  0  0
   35.6460   28.8480   33.6370 C   0  0  0  0  0  0  0  0  0  0  0  0
   34.5950   28.5030   33.9010 H   0  0  0  0  0  0  0  0  0  0  0  0
   36.2620   28.1690   34.2190 H   0  0  0  0  0  0  0  0  0  0  0  0
   35.7900   30.3130   33.8530 C   0  0  0  0  0  0  0  0  0  0  0  0
   35.3040   30.8510   33.0040 H   0  0  0  0  0  0  0  0  0  0  0  0
   36.8440   30.6400   33.9920 H   0  0  0  0  0  0  0  0  0  0  0  0
   34.7990   32.0550   37.0020 C   0  0  0  0  0  0  0  0  0  0  0  0
   35.5690   31.6430   35.9230 C   0  0  0  0  0  0  0  0  0  0  0  0
   35.0360   30.8110   34.9840 C   0  0  0  0  0  0  0  0  0  0  0  0
   33.7300   30.4260   35.1760 N   0  0  0  0  0  0  0  0  0  0  0  0
   33.0160   30.8370   36.2190 C   0  0  0  0  0  0  0  0  0  0  0  0
   33.5250   31.6510   37.1460 N   0  0  0  0  0  0  0  0  0  0  0  0
   35.1600   32.7100   37.7780 H   0  0  0  0  0  0  0  0  0  0  0  0
   36.5580   32.0670   35.9600 H   0  0  0  0  0  0  0  0  0  0  0  0
   31.9860   30.5010   36.3190 H   0  0  0  0  0  0  0  0  0  0  0  0
  1  7  1  6  0  0  0
  1 26  1  0  0  0  0
  1  6  1  0  0  0  0
  2  9  1  0  0  0  0
  2  3  1  0  0  0  0
  2  1  1  0  0  0  0
  3  4  1  0  0  0  0
  3 11  1  0  0  0  0
  4 12  1  0  0  0  0
  4  5  1  0  0  0  0
  5 15  1  0  0  0  0
  5 14  1  0  0  0  0
  6  5  1  0  0  0  0
  6 17  1  0  0  0  0
  6 16  1  1  0  0  0
  8  2  1  0  0  0  0
 10  3  1  0  0  0  0
 13  4  1  0  0  0  0
 17 18  1  0  0  0  0
 18 20  2  0  0  0  0
 18 19  1  0  0  0  0
 21 22  1  0  0  0  0
 21 20  1  0  0  0  0
 23 21  2  0  0  0  0
 24 23  1  0  0  0  0
 25 23  1  0  0  0  0
 25 17  2  0  0  0  0
 26 27  1  0  0  0  0
 27 30  1  0  0  0  0
 27 28  1  0  0  0  0
 27 29  1  0  0  0  0
 30 32  1  0  0  0  0
 30 35  1  0  0  0  0
 31 30  1  0  0  0  0
 33 38  1  0  0  0  0
 33 39  1  0  0  0  0
 34 40  1  0  0  0  0
 34 33  2  0  0  0  0
 35 36  2  0  0  0  0
 35 34  1  0  0  0  0
 36 37  1  0  0  0  0
 37 41  1  0  0  0  0
 37 38  2  0  0  0  0
M  END
>  <minimizedAffinity>
-5.01913404

$$$$

 OpenBabel03272509273D

 41 43  0  0  1  0  0  0  0  0999 V2000
   38.4260   25.3160   34.1300 C   0  0  2  0  0  0  0  0  0  0  0  0
   38.8210   25.1390   35.5880 C   0  0  0  0  0  0  0  0  0  0  0  0
   38.3180   26.2750   36.4190 C   0  0  0  0  0  0  0  0  0  0  0  0
   38.3150   27.5520   35.5930 C   0  0  0  0  0  0  0  0  0  0  0  0
   37.0740   27.3850   34.7640 C   0  0  0  0  0  0  0  0  0  0  0  0
   37.2730   26.1630   33.9000 C   0  0  1  0  0  0  0  0  0  0  0  0
   39.3940   25.6080   33.6370 H   0  0  0  0  0  0  0  0  0  0  0  0
   39.8890   24.9820   35.7430 H   0  0  0  0  0  0  0  0  0  0  0  0
   38.3220   24.2140   36.0020 H   0  0  0  0  0  0  0  0  0  0  0  0
   38.9540   26.4490   37.2950 H   0  0  0  0  0  0  0  0  0  0  0  0
   37.2840   26.0990   36.7860 H   0  0  0  0  0  0  0  0  0  0  0  0
   38.1310   28.3760   36.3070 H   0  0  0  0  0  0  0  0  0  0  0  0
   39.2300   27.6630   35.0050 H   0  0  0  0  0  0  0  0  0  0  0  0
   36.2520   27.2140   35.5200 H   0  0  0  0  0  0  0  0  0  0  0  0
   36.8410   28.3200   34.2880 H   0  0  0  0  0  0  0  0  0  0  0  0
   36.3280   25.6200   33.9380 H   0  0  0  0  0  0  0  0  0  0  0  0
   37.4110   26.8910   32.5590 C   0  0  0  0  0  0  0  0  0  0  0  0
   38.6440   27.1720   32.0000 C   0  0  0  0  0  0  0  0  0  0  0  0
   39.5330   26.8600   32.5380 H   0  0  0  0  0  0  0  0  0  0  0  0
   38.8670   27.8130   30.8040 C   0  0  0  0  0  3  0  0  0  0  0  0
   37.7510   28.2090   30.1020 C   0  0  0  0  0  0  0  0  0  0  0  0
   37.8900   28.7100   29.1680 H   0  0  0  0  0  0  0  0  0  0  0  0
   36.4940   27.9610   30.5970 C   0  0  0  0  0  0  0  0  0  0  0  0
   35.6610   28.2880   30.0140 H   0  0  0  0  0  0  0  0  0  0  0  0
   36.3420   27.3140   31.8040 C   0  0  0  0  0  3  0  0  0  0  0  0
   38.1050   23.6400   33.5030 S   0  0  0  0  0  0  0  0  0  0  0  0
   38.1620   23.5500   31.7010 C   0  0  0  0  0  0  0  0  0  0  0  0
   38.6060   24.5460   31.3790 H   0  0  0  0  0  0  0  0  0  0  0  0
   38.9400   22.8490   31.4120 H   0  0  0  0  0  0  0  0  0  0  0  0
   36.7950   23.3770   31.1400 C   0  0  0  0  0  0  0  0  0  0  0  0
   36.8470   23.4770   30.0300 H   0  0  0  0  0  0  0  0  0  0  0  0
   36.0440   24.0720   31.5780 H   0  0  0  0  0  0  0  0  0  0  0  0
   34.7370   20.4340   32.1600 C   0  0  0  0  0  0  0  0  0  0  0  0
   35.1640   21.7490   32.0320 C   0  0  0  0  0  0  0  0  0  0  0  0
   36.2710   22.0360   31.2890 C   0  0  0  0  0  0  0  0  0  0  0  0
   36.9060   20.9690   30.6980 N   0  0  0  0  0  0  0  0  0  0  0  0
   36.4730   19.7200   30.8370 C   0  0  0  0  0  0  0  0  0  0  0  0
   35.3920   19.4250   31.5620 N   0  0  0  0  0  0  0  0  0  0  0  0
   33.8720   20.1420   32.7320 H   0  0  0  0  0  0  0  0  0  0  0  0
   34.5200   22.4270   32.5650 H   0  0  0  0  0  0  0  0  0  0  0  0
   37.0160   18.9150   30.3460 H   0  0  0  0  0  0  0  0  0  0  0  0
  1  7  1  6  0  0  0
  1  2  1  0  0  0  0
  2  8  1  0  0  0  0
  2  9  1  0  0  0  0
  2  3  1  0  0  0  0
  3 11  1  0  0  0  0
  3 10  1  0  0  0  0
  4 12  1  0  0  0  0
  4  3  1  0  0  0  0
  5 14  1  0  0  0  0
  5  4  1  0  0  0  0
  6 16  1  1  0  0  0
  6  1  1  0  0  0  0
  6  5  1  0  0  0  0
 13  4  1  0  0  0  0
 15  5  1  0  0  0  0
 17  6  1  0  0  0  0
 18 19  1  0  0  0  0
 18 17  1  0  0  0  0
 20 18  2  0  0  0  0
 21 23  2  0  0  0  0
 21 20  1  0  0  0  0
 22 21  1  0  0  0  0
 23 25  1  0  0  0  0
 24 23  1  0  0  0  0
 25 17  2  0  0  0  0
 26  1  1  0  0  0  0
 27 26  1  0  0  0  0
 28 27  1  0  0  0  0
 29 27  1  0  0  0  0
 30 35  1  0  0  0  0
 30 32  1  0  0  0  0
 30 27  1  0  0  0  0
 31 30  1  0  0  0  0
 33 39  1  0  0  0  0
 34 33  1  0  0  0  0
 34 40  1  0  0  0  0
 35 34  2  0  0  0  0
 36 37  2  0  0  0  0
 36 35  1  0  0  0  0
 37 38  1  0  0  0  0
 38 33  2  0  0  0  0
 41 37  1  0  0  0  0
M  END
>  <minimizedAffinity>
-5.00336218

$$$$

 OpenBabel03272509273D

 41 43  0  0  1  0  0  0  0  0999 V2000
   39.8890   23.7940   35.9730 C   0  0  2  0  0  0  0  0  0  0  0  0
   40.3580   22.9150   37.1210 C   0  0  0  0  0  0  0  0  0  0  0  0
   39.2850   22.7590   38.1480 C   0  0  0  0  0  0  0  0  0  0  0  0
   38.4520   24.0300   38.2160 C   0  0  0  0  0  0  0  0  0  0  0  0
   37.5620   23.8850   37.0150 C   0  0  0  0  0  0  0  0  0  0  0  0
   38.4520   23.8650   35.7960 C   0  0  1  0  0  0  0  0  0  0  0  0
   40.4410   24.7590   36.1470 H   0  0  0  0  0  0  0  0  0  0  0  0
   41.2940   23.2420   37.5780 H   0  0  0  0  0  0  0  0  0  0  0  0
   40.5650   21.8730   36.7350 H   0  0  0  0  0  0  0  0  0  0  0  0
   39.7010   22.5830   39.1470 H   0  0  0  0  0  0  0  0  0  0  0  0
   38.6040   21.9130   37.9160 H   0  0  0  0  0  0  0  0  0  0  0  0
   37.8170   23.9300   39.1160 H   0  0  0  0  0  0  0  0  0  0  0  0
   39.0730   24.9290   38.2020 H   0  0  0  0  0  0  0  0  0  0  0  0
   37.0560   22.8840   37.1600 H   0  0  0  0  0  0  0  0  0  0  0  0
   36.7770   24.6160   37.0690 H   0  0  0  0  0  0  0  0  0  0  0  0
   38.0590   23.0740   35.1580 H   0  0  0  0  0  0  0  0  0  0  0  0
   38.0560   25.2370   35.2420 C   0  0  0  0  0  0  0  0  0  0  0  0
   37.4840   25.3880   33.9920 C   0  0  0  0  0  0  0  0  0  0  0  0
   37.3160   24.4970   33.3960 H   0  0  0  0  0  0  0  0  0  0  0  0
   37.0910   26.5730   33.4150 C   0  0  0  0  0  3  0  0  0  0  0  0
   37.2880   27.7130   34.1600 C   0  0  0  0  0  0  0  0  0  0  0  0
   36.9930   28.6520   33.7410 H   0  0  0  0  0  0  0  0  0  0  0  0
   37.8500   27.6390   35.4120 C   0  0  0  0  0  0  0  0  0  0  0  0
   37.9810   28.5530   35.9490 H   0  0  0  0  0  0  0  0  0  0  0  0
   38.2220   26.4170   35.9290 C   0  0  0  0  0  3  0  0  0  0  0  0
   40.6680   23.1080   34.4810 S   0  0  0  0  0  0  0  0  0  0  0  0
   39.6710   21.8170   33.7080 C   0  0  0  0  0  0  0  0  0  0  0  0
   40.4240   21.0260   33.3890 H   0  0  0  0  0  0  0  0  0  0  0  0
   39.1110   21.2990   34.4820 H   0  0  0  0  0  0  0  0  0  0  0  0
   38.9390   22.3530   32.5280 C   0  0  0  0  0  0  0  0  0  0  0  0
   39.3980   21.9350   31.6010 H   0  0  0  0  0  0  0  0  0  0  0  0
   38.9010   23.4650   32.4980 H   0  0  0  0  0  0  0  0  0  0  0  0
   35.5340   21.5140   31.2520 C   0  0  0  0  0  0  0  0  0  0  0  0
   36.8480   21.9600   31.2740 C   0  0  0  0  0  0  0  0  0  0  0  0
   37.5770   21.8760   32.4230 C   0  0  0  0  0  0  0  0  0  0  0  0
   36.9400   21.3350   33.5150 N   0  0  0  0  0  0  0  0  0  0  0  0
   35.6800   20.9150   33.4650 C   0  0  0  0  0  0  0  0  0  0  0  0
   34.9550   20.9920   32.3480 N   0  0  0  0  0  0  0  0  0  0  0  0
   34.9040   21.5540   30.3780 H   0  0  0  0  0  0  0  0  0  0  0  0
   37.1520   22.3370   30.3120 H   0  0  0  0  0  0  0  0  0  0  0  0
   35.2280   20.4950   34.3610 H   0  0  0  0  0  0  0  0  0  0  0  0
  1  7  1  1  0  0  0
  1  2  1  0  0  0  0
  2  8  1  0  0  0  0
  2  3  1  0  0  0  0
  3  4  1  0  0  0  0
  3 10  1  0  0  0  0
  4 12  1  0  0  0  0
  5 15  1  0  0  0  0
  5 14  1  0  0  0  0
  5  4  1  0  0  0  0
  6 16  1  6  0  0  0
  6  1  1  0  0  0  0
  6  5  1  0  0  0  0
  9  2  1  0  0  0  0
 11  3  1  0  0  0  0
 13  4  1  0  0  0  0
 17  6  1  0  0  0  0
 17 25  1  0  0  0  0
 18 17  2  0  0  0  0
 19 18  1  0  0  0  0
 20 18  1  0  0  0  0
 20 21  2  0  0  0  0
 21 23  1  0  0  0  0
 22 21  1  0  0  0  0
 23 25  2  0  0  0  0
 23 24  1  0  0  0  0
 26  1  1  0  0  0  0
 27 26  1  0  0  0  0
 27 29  1  0  0  0  0
 28 27  1  0  0  0  0
 30 27  1  0  0  0  0
 31 30  1  0  0  0  0
 32 30  1  0  0  0  0
 33 34  2  0  0  0  0
 33 38  1  0  0  0  0
 34 35  1  0  0  0  0
 35 30  1  0  0  0  0
 35 36  2  0  0  0  0
 37 36  1  0  0  0  0
 37 41  1  0  0  0  0
 38 37  2  0  0  0  0
 39 33  1  0  0  0  0
 40 34  1  0  0  0  0
M  END
>  <minimizedAffinity>
-4.98051548

$$$$
