
 OpenBabel03272509273D

 41 43  0  0  1  0  0  0  0  0999 V2000
   38.3630   31.9970   48.7510 C   0  0  2  0  0  0  0  0  0  0  0  0
   38.8910   32.8330   49.9060 C   0  0  0  0  0  0  0  0  0  0  0  0
   39.5460   34.0800   49.4080 C   0  0  0  0  0  0  0  0  0  0  0  0
   40.2050   33.8110   48.0640 C   0  0  0  0  0  0  0  0  0  0  0  0
   39.0320   33.8490   47.1270 C   0  0  0  0  0  0  0  0  0  0  0  0
   38.1020   32.7290   47.5270 C   0  0  1  0  0  0  0  0  0  0  0  0
   39.0920   31.1410   48.7010 H   0  0  0  0  0  0  0  0  0  0  0  0
   39.5480   32.2880   50.5850 H   0  0  0  0  0  0  0  0  0  0  0  0
   38.0250   33.1780   50.5450 H   0  0  0  0  0  0  0  0  0  0  0  0
   40.3260   34.4300   50.0940 H   0  0  0  0  0  0  0  0  0  0  0  0
   38.8200   34.9100   49.2760 H   0  0  0  0  0  0  0  0  0  0  0  0
   40.8320   34.6960   47.8490 H   0  0  0  0  0  0  0  0  0  0  0  0
   40.7490   32.8630   48.0560 H   0  0  0  0  0  0  0  0  0  0  0  0
   38.5540   34.8560   47.3170 H   0  0  0  0  0  0  0  0  0  0  0  0
   39.3910   33.8850   46.1160 H   0  0  0  0  0  0  0  0  0  0  0  0
   37.0980   33.1520   47.4870 H   0  0  0  0  0  0  0  0  0  0  0  0
   38.3450   31.8290   46.3110 C   0  0  0  0  0  0  0  0  0  0  0  0
   37.6860   32.0230   45.1100 C   0  0  0  0  0  0  0  0  0  0  0  0
   36.9790   32.8430   45.0420 H   0  0  0  0  0  0  0  0  0  0  0  0
   37.8430   31.2740   43.9680 C   0  0  0  0  0  3  0  0  0  0  0  0
   38.7440   30.2360   44.0340 C   0  0  0  0  0  0  0  0  0  0  0  0
   38.8890   29.6340   43.1610 H   0  0  0  0  0  0  0  0  0  0  0  0
   39.4350   29.9860   45.1940 C   0  0  0  0  0  0  0  0  0  0  0  0
   40.1220   29.1680   45.1920 H   0  0  0  0  0  0  0  0  0  0  0  0
   39.2290   30.7750   46.3030 C   0  0  0  0  0  3  0  0  0  0  0  0
   36.8310   31.2320   49.3590 S   0  0  0  0  0  0  0  0  0  0  0  0
   36.4030   29.7250   48.4620 C   0  0  0  0  0  0  0  0  0  0  0  0
   37.3860   29.3720   48.0110 H   0  0  0  0  0  0  0  0  0  0  0  0
   36.1870   28.9400   49.1810 H   0  0  0  0  0  0  0  0  0  0  0  0
   35.4080   30.0160   47.3940 C   0  0  0  0  0  0  0  0  0  0  0  0
   35.7820   29.5940   46.4300 H   0  0  0  0  0  0  0  0  0  0  0  0
   35.1630   31.0970   47.2970 H   0  0  0  0  0  0  0  0  0  0  0  0
   32.6850   27.8250   48.7030 C   0  0  0  0  0  0  0  0  0  0  0  0
   33.8940   28.5030   48.6260 C   0  0  0  0  0  0  0  0  0  0  0  0
   34.1570   29.3070   47.5570 C   0  0  0  0  0  0  0  0  0  0  0  0
   33.1730   29.3960   46.6000 N   0  0  0  0  0  0  0  0  0  0  0  0
   32.0240   28.7360   46.7000 C   0  0  0  0  0  0  0  0  0  0  0  0
   31.7540   27.9440   47.7400 N   0  0  0  0  0  0  0  0  0  0  0  0
   32.4170   27.1740   49.5190 H   0  0  0  0  0  0  0  0  0  0  0  0
   34.5140   28.3010   49.4830 H   0  0  0  0  0  0  0  0  0  0  0  0
   31.2830   28.8450   45.9120 H   0  0  0  0  0  0  0  0  0  0  0  0
  1  7  1  6  0  0  0
  1 26  1  0  0  0  0
  1  2  1  0  0  0  0
  2  9  1  0  0  0  0
  2  8  1  0  0  0  0
  3  2  1  0  0  0  0
  3 10  1  0  0  0  0
  4  3  1  0  0  0  0
  5 14  1  0  0  0  0
  5  6  1  0  0  0  0
  5  4  1  0  0  0  0
  6 16  1  6  0  0  0
  6  1  1  0  0  0  0
 11  3  1  0  0  0  0
 12  4  1  0  0  0  0
 13  4  1  0  0  0  0
 15  5  1  0  0  0  0
 17  6  1  0  0  0  0
 18 17  2  0  0  0  0
 19 18  1  0  0  0  0
 20 21  2  0  0  0  0
 20 18  1  0  0  0  0
 21 23  1  0  0  0  0
 22 21  1  0  0  0  0
 23 25  2  0  0  0  0
 24 23  1  0  0  0  0
 25 17  1  0  0  0  0
 27 29  1  0  0  0  0
 27 26  1  0  0  0  0
 28 27  1  0  0  0  0
 30 35  1  0  0  0  0
 30 27  1  0  0  0  0
 31 30  1  0  0  0  0
 32 30  1  0  0  0  0
 33 39  1  0  0  0  0
 34 33  1  0  0  0  0
 34 40  1  0  0  0  0
 35 34  2  0  0  0  0
 36 37  2  0  0  0  0
 36 35  1  0  0  0  0
 37 38  1  0  0  0  0
 38 33  2  0  0  0  0
 41 37  1  0  0  0  0
M  END
>  <minimizedAffinity>
-3.49414587

>  <minimizedRMSD>
1.18393135

$$$$
