
 OpenBabel03272506563D

 20 21  0  0  0  0  0  0  0  0999 V2000
   35.6190   30.4380   49.6620 C   0  0  0  0  0  0  0  0  0  0  0  0
   36.0000   29.8370   50.8610 C   0  0  0  0  0  0  0  0  0  0  0  0
   37.3070   30.1010   51.3040 C   0  0  0  0  0  0  0  0  0  0  0  0
   38.1150   30.9110   50.5590 N   0  0  0  0  0  0  0  0  0  0  0  0
   37.6930   31.4630   49.4120 C   0  0  0  0  0  0  0  0  0  0  0  0
   36.4380   31.2400   48.9380 N   0  0  0  0  0  0  0  0  0  0  0  0
   34.6290   30.3030   49.2240 H   0  0  0  0  0  0  0  0  0  0  0  0
   37.6140   29.6480   52.2210 H   0  0  0  0  0  0  0  0  0  0  0  0
   38.5460   32.3300   48.6070 C   0  0  0  0  0  0  0  0  0  0  0  0
   39.0230   33.5330   49.1100 C   0  0  0  0  0  0  0  0  0  0  0  0
   38.7740   33.8620   50.1160 H   0  0  0  0  0  0  0  0  0  0  0  0
   39.8380   34.3610   48.3380 C   0  0  0  0  0  0  0  0  0  0  0  0
   40.1860   34.0000   47.0620 C   0  0  0  0  0  0  0  0  0  0  0  0
   40.8220   34.5920   46.3910 H   0  0  0  0  0  0  0  0  0  0  0  0
   39.7360   32.8200   46.5310 C   0  0  0  0  0  0  0  0  0  0  0  0
   39.9670   32.4640   45.5280 H   0  0  0  0  0  0  0  0  0  0  0  0
   38.9320   32.0270   47.3200 C   0  0  0  0  0  0  0  0  0  0  0  0
   35.0780   29.0090   51.5590 N   0  0  0  0  0  0  0  0  0  0  0  0
   34.4330   29.2810   52.3430 H   0  0  0  0  0  0  0  0  0  0  0  0
   35.2550   28.0990   51.0550 H   0  0  0  0  0  0  0  0  0  0  0  0
  1  2  1  0  0  0  0
  2  3  2  0  0  0  0
  2 18  1  0  0  0  0
  3  8  1  0  0  0  0
  4  3  1  0  0  0  0
  5  4  2  0  0  0  0
  6  5  1  0  0  0  0
  6  1  2  0  0  0  0
  7  1  1  0  0  0  0
  9 10  1  0  0  0  0
  9  5  1  0  0  0  0
 10 11  1  0  0  0  0
 12 10  2  0  0  0  0
 13 12  1  0  0  0  0
 14 13  1  0  0  0  0
 15 13  2  0  0  0  0
 15 17  1  0  0  0  0
 16 15  1  0  0  0  0
 17  9  2  0  0  0  0
 18 19  1  0  0  0  0
 20 18  1  0  0  0  0
M  END
>  <minimizedAffinity>
-4.81037521

>  <minimizedRMSD>
6.81210613

$$$$
