
 OpenBabel03272502363D

 36 38  0  0  1  0  0  0  0  0999 V2000
   36.2690   28.6650   34.7220 C   0  0  0  0  0  3  0  0  0  0  0  0
   35.4710   29.2590   33.8940 C   0  0  0  0  0  3  0  0  0  0  0  0
   37.7020   25.8770   32.7070 C   0  0  0  0  0  0  0  0  0  0  0  0
   37.0810   27.0510   33.0870 C   0  0  0  0  0  0  0  0  0  0  0  0
   36.9340   27.4320   34.3940 C   0  0  0  0  0  0  0  0  0  0  0  0
   37.4370   26.5850   35.3240 N   0  0  0  0  0  0  0  0  0  0  0  0
   38.0380   25.4500   34.9810 C   0  0  0  0  0  0  0  0  0  0  0  0
   38.1770   25.0840   33.6900 N   0  0  0  0  0  0  0  0  0  0  0  0
   37.8340   25.5480   31.6940 H   0  0  0  0  0  0  0  0  0  0  0  0
   36.7390   27.6100   32.2270 H   0  0  0  0  0  0  0  0  0  0  0  0
   38.5640   24.5680   36.0190 C   0  0  0  0  0  0  0  0  0  0  0  0
   39.6640   23.7730   35.7750 C   0  0  0  0  0  0  0  0  0  0  0  0
   40.1630   23.7780   34.8210 H   0  0  0  0  0  0  0  0  0  0  0  0
   40.1380   22.9500   36.7770 C   0  0  0  0  0  3  0  0  0  0  0  0
   39.5300   22.9120   38.0150 C   0  0  0  0  0  0  0  0  0  0  0  0
   39.8850   22.2670   38.8320 H   0  0  0  0  0  0  0  0  0  0  0  0
   38.4140   23.6970   38.3130 C   0  0  0  0  0  0  0  0  0  0  0  0
   37.9090   23.6980   39.2650 H   0  0  0  0  0  0  0  0  0  0  0  0
   37.9940   24.4910   37.2730 C   0  0  0  0  0  3  0  0  0  0  0  0
   34.8200   30.5380   34.3400 C   0  0  1  0  0  0  0  0  0  0  0  0
   34.6770   31.2160   33.4750 H   0  0  0  0  0  0  0  0  0  0  0  0
   33.5930   30.2310   35.0860 C   0  0  0  0  0  0  0  0  0  0  0  0
   33.3970   31.0810   36.2060 C   0  0  0  0  0  0  0  0  0  0  0  0
   32.3150   30.9820   37.0560 C   0  0  0  0  0  0  0  0  0  0  0  0
   31.3310   30.0040   36.8410 C   0  0  0  0  0  0  0  0  0  0  0  0
   31.5980   29.2180   35.7290 C   0  0  0  0  0  0  0  0  0  0  0  0
   32.6380   29.2960   34.8910 N   0  0  0  0  0  0  0  0  0  0  0  0
   34.0140   31.9100   36.5790 H   0  0  0  0  0  0  0  0  0  0  0  0
   32.1070   31.5900   37.9200 H   0  0  0  0  0  0  0  0  0  0  0  0
   30.4510   29.7910   37.3860 H   0  0  0  0  0  0  0  0  0  0  0  0
   30.9230   28.4130   35.4320 H   0  0  0  0  0  0  0  0  0  0  0  0
   35.9560   31.3270   35.5320 S   0  0  0  0  0  0  0  0  0  0  0  0
   36.3870   32.9780   35.0120 C   0  0  0  0  0  0  0  0  0  0  0  0
   35.3570   33.8910   35.1800 F   0  0  0  0  0  0  0  0  0  0  0  0
   37.5580   33.4110   35.6110 F   0  0  0  0  0  0  0  0  0  0  0  0
   36.6680   32.9010   33.6330 F   0  0  0  0  0  0  0  0  0  0  0  0
  2 20  1  0  0  0  0
  2  1  2  0  0  0  0
  3  4  2  0  0  0  0
  3  8  1  0  0  0  0
  4  5  1  0  0  0  0
  5  1  1  0  0  0  0
  5  6  2  0  0  0  0
  7  6  1  0  0  0  0
  7 11  1  0  0  0  0
  8  7  2  0  0  0  0
  9  3  1  0  0  0  0
 10  4  1  0  0  0  0
 11 19  1  0  0  0  0
 12 11  2  0  0  0  0
 12 14  1  0  0  0  0
 13 12  1  0  0  0  0
 14 15  2  0  0  0  0
 15 17  1  0  0  0  0
 15 16  1  0  0  0  0
 17 18  1  0  0  0  0
 19 17  2  0  0  0  0
 20 21  1  6  0  0  0
 20 22  1  0  0  0  0
 20 32  1  0  0  0  0
 22 23  1  0  0  0  0
 23 28  1  0  0  0  0
 23 24  2  0  0  0  0
 24 29  1  0  0  0  0
 25 24  1  0  0  0  0
 25 30  1  0  0  0  0
 26 25  2  0  0  0  0
 27 22  2  0  0  0  0
 27 26  1  0  0  0  0
 31 26  1  0  0  0  0
 33 34  1  0  0  0  0
 33 32  1  0  0  0  0
 33 35  1  0  0  0  0
 36 33  1  0  0  0  0
M  END
>  <minimizedAffinity>
-6.17380905

$$$$

 OpenBabel03272502363D

 36 38  0  0  1  0  0  0  0  0999 V2000
   37.8060   26.8120   33.4290 C   0  0  0  0  0  3  0  0  0  0  0  0
   37.4150   25.7330   34.0280 C   0  0  0  0  0  3  0  0  0  0  0  0
   35.7520   29.3010   31.5650 C   0  0  0  0  0  0  0  0  0  0  0  0
   36.5950   28.2540   31.8810 C   0  0  0  0  0  0  0  0  0  0  0  0
   36.9130   27.9090   33.1680 C   0  0  0  0  0  0  0  0  0  0  0  0
   36.3470   28.6590   34.1440 N   0  0  0  0  0  0  0  0  0  0  0  0
   35.5320   29.6710   33.8630 C   0  0  0  0  0  0  0  0  0  0  0  0
   35.2270   30.0020   32.5920 N   0  0  0  0  0  0  0  0  0  0  0  0
   35.4830   29.5980   30.5700 H   0  0  0  0  0  0  0  0  0  0  0  0
   36.9590   27.7600   30.9910 H   0  0  0  0  0  0  0  0  0  0  0  0
   34.9470   30.4520   34.9500 C   0  0  0  0  0  0  0  0  0  0  0  0
   35.7320   31.2920   35.7140 C   0  0  0  0  0  0  0  0  0  0  0  0
   36.7870   31.3950   35.5340 H   0  0  0  0  0  0  0  0  0  0  0  0
   35.1490   32.0170   36.7330 C   0  0  0  0  0  3  0  0  0  0  0  0
   33.7980   31.9150   36.9990 C   0  0  0  0  0  0  0  0  0  0  0  0
   33.3060   32.4800   37.8040 H   0  0  0  0  0  0  0  0  0  0  0  0
   32.9620   31.0790   36.2560 C   0  0  0  0  0  0  0  0  0  0  0  0
   31.9030   30.9690   36.4300 H   0  0  0  0  0  0  0  0  0  0  0  0
   33.6040   30.3870   35.2580 C   0  0  0  0  0  3  0  0  0  0  0  0
   38.4260   24.6430   34.2430 C   0  0  1  0  0  0  0  0  0  0  0  0
   39.4030   24.9360   33.8100 H   0  0  0  0  0  0  0  0  0  0  0  0
   38.4710   24.2890   35.6680 C   0  0  0  0  0  0  0  0  0  0  0  0
   39.5030   23.3660   35.9780 C   0  0  0  0  0  0  0  0  0  0  0  0
   39.7390   22.8880   37.2510 C   0  0  0  0  0  0  0  0  0  0  0  0
   38.9410   23.3080   38.3260 C   0  0  0  0  0  0  0  0  0  0  0  0
   37.9580   24.2070   37.9370 C   0  0  0  0  0  0  0  0  0  0  0  0
   37.7110   24.6850   36.7130 N   0  0  0  0  0  0  0  0  0  0  0  0
   40.2510   22.8970   35.3230 H   0  0  0  0  0  0  0  0  0  0  0  0
   40.5010   22.1890   37.5540 H   0  0  0  0  0  0  0  0  0  0  0  0
   38.9810   23.0460   39.3480 H   0  0  0  0  0  0  0  0  0  0  0  0
   37.2570   24.6250   38.6630 H   0  0  0  0  0  0  0  0  0  0  0  0
   37.8090   23.1620   33.3710 S   0  0  0  0  0  0  0  0  0  0  0  0
   37.1580   23.5870   31.7660 C   0  0  0  0  0  0  0  0  0  0  0  0
   35.8640   24.0840   31.8150 F   0  0  0  0  0  0  0  0  0  0  0  0
   38.0080   24.4390   31.0800 F   0  0  0  0  0  0  0  0  0  0  0  0
   37.1280   22.3930   31.0190 F   0  0  0  0  0  0  0  0  0  0  0  0
  1  2  2  0  0  0  0
  2 20  1  0  0  0  0
  3  4  2  0  0  0  0
  3  8  1  0  0  0  0
  4  5  1  0  0  0  0
  5  1  1  0  0  0  0
  5  6  2  0  0  0  0
  7  6  1  0  0  0  0
  7 11  1  0  0  0  0
  8  7  2  0  0  0  0
  9  3  1  0  0  0  0
 10  4  1  0  0  0  0
 11 19  2  0  0  0  0
 11 12  1  0  0  0  0
 12 14  2  0  0  0  0
 13 12  1  0  0  0  0
 14 15  1  0  0  0  0
 15 16  1  0  0  0  0
 17 18  1  0  0  0  0
 17 15  2  0  0  0  0
 19 17  1  0  0  0  0
 20 21  1  6  0  0  0
 20 22  1  0  0  0  0
 22 23  2  0  0  0  0
 22 27  1  0  0  0  0
 23 24  1  0  0  0  0
 24 29  1  0  0  0  0
 24 25  2  0  0  0  0
 25 30  1  0  0  0  0
 26 25  1  0  0  0  0
 26 31  1  0  0  0  0
 27 26  2  0  0  0  0
 28 23  1  0  0  0  0
 32 20  1  0  0  0  0
 33 34  1  0  0  0  0
 33 32  1  0  0  0  0
 35 33  1  0  0  0  0
 36 33  1  0  0  0  0
M  END
>  <minimizedAffinity>
-6.08785439

$$$$

 OpenBabel03272502363D

 36 38  0  0  1  0  0  0  0  0999 V2000
   37.7770   26.6600   32.7920 C   0  0  0  0  0  3  0  0  0  0  0  0
   37.3370   25.6630   33.4910 C   0  0  0  0  0  3  0  0  0  0  0  0
   36.1690   29.5960   31.1560 C   0  0  0  0  0  0  0  0  0  0  0  0
   36.8770   28.4330   31.3820 C   0  0  0  0  0  0  0  0  0  0  0  0
   37.0180   27.8700   32.6230 C   0  0  0  0  0  0  0  0  0  0  0  0
   36.4160   28.5220   33.6460 N   0  0  0  0  0  0  0  0  0  0  0  0
   35.7290   29.6430   33.4520 C   0  0  0  0  0  0  0  0  0  0  0  0
   35.5970   30.1890   32.2240 N   0  0  0  0  0  0  0  0  0  0  0  0
   36.0390   30.0640   30.1990 H   0  0  0  0  0  0  0  0  0  0  0  0
   37.2930   28.0410   30.4640 H   0  0  0  0  0  0  0  0  0  0  0  0
   35.0970   30.3110   34.5860 C   0  0  0  0  0  0  0  0  0  0  0  0
   33.7520   30.1380   34.8430 C   0  0  0  0  0  0  0  0  0  0  0  0
   33.1350   29.5140   34.2210 H   0  0  0  0  0  0  0  0  0  0  0  0
   33.1840   30.7820   35.9240 C   0  0  0  0  0  3  0  0  0  0  0  0
   33.9380   31.5930   36.7480 C   0  0  0  0  0  0  0  0  0  0  0  0
   33.5130   32.1180   37.6160 H   0  0  0  0  0  0  0  0  0  0  0  0
   35.3020   31.8000   36.5310 C   0  0  0  0  0  0  0  0  0  0  0  0
   35.9270   32.4240   37.1490 H   0  0  0  0  0  0  0  0  0  0  0  0
   35.8040   31.1310   35.4400 C   0  0  0  0  0  3  0  0  0  0  0  0
   38.2050   24.4410   33.5970 C   0  0  1  0  0  0  0  0  0  0  0  0
   39.1430   24.5870   33.0230 H   0  0  0  0  0  0  0  0  0  0  0  0
   38.4010   24.0990   35.0120 C   0  0  0  0  0  0  0  0  0  0  0  0
   37.8340   25.0520   35.8970 C   0  0  0  0  0  0  0  0  0  0  0  0
   37.8920   24.9440   37.2710 C   0  0  0  0  0  0  0  0  0  0  0  0
   38.5370   23.8500   37.8690 C   0  0  0  0  0  0  0  0  0  0  0  0
   39.0630   22.9680   36.9350 C   0  0  0  0  0  0  0  0  0  0  0  0
   39.0180   23.0520   35.6020 N   0  0  0  0  0  0  0  0  0  0  0  0
   37.2840   25.9790   35.6790 H   0  0  0  0  0  0  0  0  0  0  0  0
   37.4860   25.6270   37.9970 H   0  0  0  0  0  0  0  0  0  0  0  0
   38.6740   23.6130   38.8900 H   0  0  0  0  0  0  0  0  0  0  0  0
   39.5950   22.0670   37.2480 H   0  0  0  0  0  0  0  0  0  0  0  0
   37.2700   23.0560   32.8630 S   0  0  0  0  0  0  0  0  0  0  0  0
   36.3620   23.5850   31.4230 C   0  0  0  0  0  0  0  0  0  0  0  0
   35.1980   24.2740   31.7320 F   0  0  0  0  0  0  0  0  0  0  0  0
   37.1630   24.3010   30.5500 F   0  0  0  0  0  0  0  0  0  0  0  0
   35.9930   22.4140   30.7310 F   0  0  0  0  0  0  0  0  0  0  0  0
  1  2  2  0  0  0  0
  2 20  1  0  0  0  0
  3  4  2  0  0  0  0
  3  8  1  0  0  0  0
  4  5  1  0  0  0  0
  5  1  1  0  0  0  0
  5  6  2  0  0  0  0
  7  6  1  0  0  0  0
  7 11  1  0  0  0  0
  8  7  2  0  0  0  0
  9  3  1  0  0  0  0
 10  4  1  0  0  0  0
 11 12  2  0  0  0  0
 11 19  1  0  0  0  0
 12 14  1  0  0  0  0
 13 12  1  0  0  0  0
 14 15  2  0  0  0  0
 15 16  1  0  0  0  0
 17 15  1  0  0  0  0
 17 18  1  0  0  0  0
 19 17  2  0  0  0  0
 20 21  1  6  0  0  0
 20 22  1  0  0  0  0
 22 27  2  0  0  0  0
 22 23  1  0  0  0  0
 23 24  2  0  0  0  0
 24 25  1  0  0  0  0
 24 29  1  0  0  0  0
 25 30  1  0  0  0  0
 26 31  1  0  0  0  0
 26 25  2  0  0  0  0
 27 26  1  0  0  0  0
 28 23  1  0  0  0  0
 32 20  1  0  0  0  0
 33 34  1  0  0  0  0
 33 32  1  0  0  0  0
 35 33  1  0  0  0  0
 36 33  1  0  0  0  0
M  END
>  <minimizedAffinity>
-6.01202488

$$$$

 OpenBabel03272502363D

 36 38  0  0  1  0  0  0  0  0999 V2000
   36.1900   28.2520   33.4770 C   0  0  0  0  0  3  0  0  0  0  0  0
   35.8300   28.9070   34.5340 C   0  0  0  0  0  3  0  0  0  0  0  0
   38.7550   25.7710   32.4040 C   0  0  0  0  0  0  0  0  0  0  0  0
   37.8410   26.8060   32.4170 C   0  0  0  0  0  0  0  0  0  0  0  0
   37.1350   27.1690   33.5330 C   0  0  0  0  0  0  0  0  0  0  0  0
   37.3800   26.4490   34.6540 N   0  0  0  0  0  0  0  0  0  0  0  0
   38.2550   25.4490   34.6650 C   0  0  0  0  0  0  0  0  0  0  0  0
   38.9450   25.1000   33.5590 N   0  0  0  0  0  0  0  0  0  0  0  0
   39.3240   25.4610   31.5480 H   0  0  0  0  0  0  0  0  0  0  0  0
   37.7650   27.2760   31.4460 H   0  0  0  0  0  0  0  0  0  0  0  0
   38.4850   24.7020   35.8980 C   0  0  0  0  0  0  0  0  0  0  0  0
   37.7770   25.0020   37.0440 C   0  0  0  0  0  0  0  0  0  0  0  0
   37.0430   25.7880   37.0640 H   0  0  0  0  0  0  0  0  0  0  0  0
   38.0160   24.2760   38.1940 C   0  0  0  0  0  3  0  0  0  0  0  0
   38.9490   23.2590   38.2140 C   0  0  0  0  0  0  0  0  0  0  0  0
   39.1610   22.6650   39.1150 H   0  0  0  0  0  0  0  0  0  0  0  0
   39.6910   22.9170   37.0810 C   0  0  0  0  0  0  0  0  0  0  0  0
   40.4280   22.1310   37.0540 H   0  0  0  0  0  0  0  0  0  0  0  0
   39.4040   23.6760   35.9730 C   0  0  0  0  0  3  0  0  0  0  0  0
   34.8430   30.0270   34.3650 C   0  0  1  0  0  0  0  0  0  0  0  0
   34.1300   30.0400   35.2130 H   0  0  0  0  0  0  0  0  0  0  0  0
   35.5640   31.2890   34.1530 C   0  0  0  0  0  0  0  0  0  0  0  0
   35.9780   31.9020   35.3650 C   0  0  0  0  0  0  0  0  0  0  0  0
   36.6700   33.0940   35.4170 C   0  0  0  0  0  0  0  0  0  0  0  0
   37.0050   33.7720   34.2350 C   0  0  0  0  0  0  0  0  0  0  0  0
   36.5640   33.1060   33.0990 C   0  0  0  0  0  0  0  0  0  0  0  0
   35.8940   31.9520   33.0240 N   0  0  0  0  0  0  0  0  0  0  0  0
   35.8410   31.5730   36.4050 H   0  0  0  0  0  0  0  0  0  0  0  0
   37.0120   33.6110   36.2970 H   0  0  0  0  0  0  0  0  0  0  0  0
   37.5240   34.6810   34.0940 H   0  0  0  0  0  0  0  0  0  0  0  0
   36.7500   33.5110   32.1010 H   0  0  0  0  0  0  0  0  0  0  0  0
   33.9250   29.7010   32.8210 S   0  0  0  0  0  0  0  0  0  0  0  0
   32.2710   29.1300   33.1650 C   0  0  0  0  0  0  0  0  0  0  0  0
   31.2950   30.0700   32.8680 F   0  0  0  0  0  0  0  0  0  0  0  0
   32.0140   27.9150   32.5540 F   0  0  0  0  0  0  0  0  0  0  0  0
   32.2160   28.8820   34.5510 F   0  0  0  0  0  0  0  0  0  0  0  0
  1  5  1  0  0  0  0
  1  2  2  0  0  0  0
  3  4  2  0  0  0  0
  3  8  1  0  0  0  0
  4  5  1  0  0  0  0
  5  6  2  0  0  0  0
  6  7  1  0  0  0  0
  7 11  1  0  0  0  0
  8  7  2  0  0  0  0
  9  3  1  0  0  0  0
 10  4  1  0  0  0  0
 11 19  2  0  0  0  0
 11 12  1  0  0  0  0
 12 13  1  0  0  0  0
 12 14  2  0  0  0  0
 14 15  1  0  0  0  0
 15 16  1  0  0  0  0
 17 15  2  0  0  0  0
 18 17  1  0  0  0  0
 19 17  1  0  0  0  0
 20  2  1  0  0  0  0
 20 21  1  1  0  0  0
 22 20  1  0  0  0  0
 22 23  1  0  0  0  0
 23 24  2  0  0  0  0
 23 28  1  0  0  0  0
 24 29  1  0  0  0  0
 25 24  1  0  0  0  0
 26 25  2  0  0  0  0
 27 26  1  0  0  0  0
 27 22  2  0  0  0  0
 30 25  1  0  0  0  0
 31 26  1  0  0  0  0
 32 33  1  0  0  0  0
 32 20  1  0  0  0  0
 33 36  1  0  0  0  0
 34 33  1  0  0  0  0
 35 33  1  0  0  0  0
M  END
>  <minimizedAffinity>
-5.92793655

$$$$

 OpenBabel03272502363D

 36 38  0  0  1  0  0  0  0  0999 V2000
   37.0690   26.8110   33.6290 C   0  0  0  0  0  3  0  0  0  0  0  0
   37.5500   26.4710   34.7810 C   0  0  0  0  0  3  0  0  0  0  0  0
   35.9910   29.9050   31.8530 C   0  0  0  0  0  0  0  0  0  0  0  0
   36.5190   28.6620   32.1410 C   0  0  0  0  0  0  0  0  0  0  0  0
   36.4920   28.1080   33.3930 C   0  0  0  0  0  0  0  0  0  0  0  0
   35.9080   28.8520   34.3630 N   0  0  0  0  0  0  0  0  0  0  0  0
   35.3930   30.0510   34.1080 C   0  0  0  0  0  0  0  0  0  0  0  0
   35.4260   30.5870   32.8700 N   0  0  0  0  0  0  0  0  0  0  0  0
   35.9960   30.3680   30.8850 H   0  0  0  0  0  0  0  0  0  0  0  0
   36.9450   28.2020   31.2600 H   0  0  0  0  0  0  0  0  0  0  0  0
   34.7740   30.8160   35.1870 C   0  0  0  0  0  0  0  0  0  0  0  0
   35.5350   31.6400   35.9900 C   0  0  0  0  0  0  0  0  0  0  0  0
   36.5970   31.7420   35.8490 H   0  0  0  0  0  0  0  0  0  0  0  0
   34.9210   32.3510   37.0010 C   0  0  0  0  0  3  0  0  0  0  0  0
   33.5620   32.2510   37.2190 C   0  0  0  0  0  0  0  0  0  0  0  0
   33.0450   32.8050   38.0160 H   0  0  0  0  0  0  0  0  0  0  0  0
   32.7480   31.4310   36.4330 C   0  0  0  0  0  0  0  0  0  0  0  0
   31.6830   31.3240   36.5690 H   0  0  0  0  0  0  0  0  0  0  0  0
   33.4210   30.7530   35.4470 C   0  0  0  0  0  3  0  0  0  0  0  0
   38.1220   25.0890   34.9230 C   0  0  1  0  0  0  0  0  0  0  0  0
   37.4440   24.3450   34.4590 H   0  0  0  0  0  0  0  0  0  0  0  0
   39.4970   25.0700   34.4070 C   0  0  0  0  0  0  0  0  0  0  0  0
   40.2810   26.1560   34.8750 C   0  0  0  0  0  0  0  0  0  0  0  0
   41.6010   26.3480   34.5250 C   0  0  0  0  0  0  0  0  0  0  0  0
   42.2440   25.4470   33.6620 C   0  0  0  0  0  0  0  0  0  0  0  0
   41.4090   24.4170   33.2510 C   0  0  0  0  0  0  0  0  0  0  0  0
   40.1290   24.2110   33.5780 N   0  0  0  0  0  0  0  0  0  0  0  0
   40.0120   26.9800   35.5510 H   0  0  0  0  0  0  0  0  0  0  0  0
   42.2500   27.1470   34.8420 H   0  0  0  0  0  0  0  0  0  0  0  0
   43.2350   25.4440   33.2950 H   0  0  0  0  0  0  0  0  0  0  0  0
   41.7660   23.6370   32.5770 H   0  0  0  0  0  0  0  0  0  0  0  0
   38.2460   24.7440   36.7120 S   0  0  0  0  0  0  0  0  0  0  0  0
   39.1810   23.2560   37.0160 C   0  0  0  0  0  0  0  0  0  0  0  0
   40.5270   23.3830   36.7060 F   0  0  0  0  0  0  0  0  0  0  0  0
   38.9950   22.7910   38.3070 F   0  0  0  0  0  0  0  0  0  0  0  0
   38.6410   22.2660   36.1700 F   0  0  0  0  0  0  0  0  0  0  0  0
  1  2  2  0  0  0  0
  2 20  1  0  0  0  0
  3  4  2  0  0  0  0
  3  8  1  0  0  0  0
  4  5  1  0  0  0  0
  5  1  1  0  0  0  0
  5  6  2  0  0  0  0
  7  6  1  0  0  0  0
  7 11  1  0  0  0  0
  8  7  2  0  0  0  0
  9  3  1  0  0  0  0
 10  4  1  0  0  0  0
 11 19  2  0  0  0  0
 11 12  1  0  0  0  0
 12 14  2  0  0  0  0
 13 12  1  0  0  0  0
 14 15  1  0  0  0  0
 15 16  1  0  0  0  0
 17 18  1  0  0  0  0
 17 15  2  0  0  0  0
 19 17  1  0  0  0  0
 20 21  1  6  0  0  0
 20 32  1  0  0  0  0
 22 23  1  0  0  0  0
 22 20  1  0  0  0  0
 23 28  1  0  0  0  0
 24 29  1  0  0  0  0
 24 23  2  0  0  0  0
 25 24  1  0  0  0  0
 26 27  1  0  0  0  0
 26 25  2  0  0  0  0
 27 22  2  0  0  0  0
 30 25  1  0  0  0  0
 31 26  1  0  0  0  0
 32 33  1  0  0  0  0
 33 35  1  0  0  0  0
 34 33  1  0  0  0  0
 36 33  1  0  0  0  0
M  END
>  <minimizedAffinity>
-5.8516264

$$$$

 OpenBabel03272502363D

 36 38  0  0  1  0  0  0  0  0999 V2000
   37.8580   26.8810   33.8520 C   0  0  0  0  0  3  0  0  0  0  0  0
   38.5550   26.9230   34.9430 C   0  0  0  0  0  3  0  0  0  0  0  0
   35.5490   29.0170   31.8550 C   0  0  0  0  0  0  0  0  0  0  0  0
   36.4720   28.0620   32.2330 C   0  0  0  0  0  0  0  0  0  0  0  0
   36.8860   27.8900   33.5270 C   0  0  0  0  0  0  0  0  0  0  0  0
   36.3350   28.7200   34.4450 N   0  0  0  0  0  0  0  0  0  0  0  0
   35.4450   29.6460   34.1040 C   0  0  0  0  0  0  0  0  0  0  0  0
   35.0440   29.8060   32.8260 N   0  0  0  0  0  0  0  0  0  0  0  0
   35.2030   29.1790   30.8520 H   0  0  0  0  0  0  0  0  0  0  0  0
   36.8110   27.4850   31.3830 H   0  0  0  0  0  0  0  0  0  0  0  0
   34.8790   30.5180   35.1300 C   0  0  0  0  0  0  0  0  0  0  0  0
   35.6840   31.3920   35.8310 C   0  0  0  0  0  0  0  0  0  0  0  0
   36.7410   31.4570   35.6460 H   0  0  0  0  0  0  0  0  0  0  0  0
   35.1190   32.2040   36.7940 C   0  0  0  0  0  3  0  0  0  0  0  0
   33.7670   32.1540   37.0650 C   0  0  0  0  0  0  0  0  0  0  0  0
   33.2890   32.7880   37.8260 H   0  0  0  0  0  0  0  0  0  0  0  0
   32.9100   31.2860   36.3840 C   0  0  0  0  0  0  0  0  0  0  0  0
   31.8490   31.2160   36.5640 H   0  0  0  0  0  0  0  0  0  0  0  0
   33.5350   30.5080   35.4400 C   0  0  0  0  0  3  0  0  0  0  0  0
   39.5370   25.8140   35.1920 C   0  0  1  0  0  0  0  0  0  0  0  0
   40.2710   26.1190   35.9640 H   0  0  0  0  0  0  0  0  0  0  0  0
   38.8120   24.5730   35.4930 C   0  0  0  0  0  0  0  0  0  0  0  0
   38.2190   24.5760   36.7830 C   0  0  0  0  0  0  0  0  0  0  0  0
   37.4880   23.5200   37.2870 C   0  0  0  0  0  0  0  0  0  0  0  0
   37.2960   22.3600   36.5200 C   0  0  0  0  0  0  0  0  0  0  0  0
   37.9070   22.4400   35.2760 C   0  0  0  0  0  0  0  0  0  0  0  0
   38.6180   23.4510   34.7670 N   0  0  0  0  0  0  0  0  0  0  0  0
   38.2240   25.3530   37.5600 H   0  0  0  0  0  0  0  0  0  0  0  0
   37.0140   23.4570   38.2520 H   0  0  0  0  0  0  0  0  0  0  0  0
   36.7720   21.4720   36.7480 H   0  0  0  0  0  0  0  0  0  0  0  0
   37.8450   21.6130   34.5640 H   0  0  0  0  0  0  0  0  0  0  0  0
   40.4180   25.5180   33.6200 S   0  0  0  0  0  0  0  0  0  0  0  0
   41.7530   26.6800   33.4030 C   0  0  0  0  0  0  0  0  0  0  0  0
   41.3200   27.9870   33.2340 F   0  0  0  0  0  0  0  0  0  0  0  0
   42.6870   26.5790   34.4210 F   0  0  0  0  0  0  0  0  0  0  0  0
   42.4270   26.2990   32.2260 F   0  0  0  0  0  0  0  0  0  0  0  0
  1  2  2  0  0  0  0
  2 20  1  0  0  0  0
  3  4  2  0  0  0  0
  3  8  1  0  0  0  0
  4  5  1  0  0  0  0
  5  1  1  0  0  0  0
  5  6  2  0  0  0  0
  7  6  1  0  0  0  0
  7 11  1  0  0  0  0
  8  7  2  0  0  0  0
  9  3  1  0  0  0  0
 10  4  1  0  0  0  0
 11 19  2  0  0  0  0
 11 12  1  0  0  0  0
 12 14  2  0  0  0  0
 13 12  1  0  0  0  0
 14 15  1  0  0  0  0
 15 16  1  0  0  0  0
 17 18  1  0  0  0  0
 17 15  2  0  0  0  0
 19 17  1  0  0  0  0
 20 22  1  0  0  0  0
 20 21  1  1  0  0  0
 22 23  1  0  0  0  0
 23 24  2  0  0  0  0
 23 28  1  0  0  0  0
 24 29  1  0  0  0  0
 25 30  1  0  0  0  0
 25 24  1  0  0  0  0
 26 25  2  0  0  0  0
 27 26  1  0  0  0  0
 27 22  2  0  0  0  0
 31 26  1  0  0  0  0
 32 20  1  0  0  0  0
 33 32  1  0  0  0  0
 33 35  1  0  0  0  0
 34 33  1  0  0  0  0
 36 33  1  0  0  0  0
M  END
>  <minimizedAffinity>
-5.70155191

$$$$

 OpenBabel03272502363D

 36 38  0  0  1  0  0  0  0  0999 V2000
   38.2810   26.3860   34.0130 C   0  0  0  0  0  3  0  0  0  0  0  0
   37.9300   27.2530   33.1180 C   0  0  0  0  0  3  0  0  0  0  0  0
   41.9900   26.7260   34.1400 C   0  0  0  0  0  0  0  0  0  0  0  0
   40.6480   26.9590   33.9110 C   0  0  0  0  0  0  0  0  0  0  0  0
   39.6620   26.0880   34.2890 C   0  0  0  0  0  0  0  0  0  0  0  0
   40.0700   24.9580   34.9150 N   0  0  0  0  0  0  0  0  0  0  0  0
   41.3560   24.7140   35.1460 C   0  0  0  0  0  0  0  0  0  0  0  0
   42.3200   25.5790   34.7690 N   0  0  0  0  0  0  0  0  0  0  0  0
   42.7880   27.3860   33.8560 H   0  0  0  0  0  0  0  0  0  0  0  0
   40.4940   27.9010   33.4040 H   0  0  0  0  0  0  0  0  0  0  0  0
   41.7470   23.4820   35.8240 C   0  0  0  0  0  0  0  0  0  0  0  0
   43.0030   22.9410   35.6310 C   0  0  0  0  0  0  0  0  0  0  0  0
   43.7220   23.4060   34.9810 H   0  0  0  0  0  0  0  0  0  0  0  0
   43.3440   21.7760   36.2870 C   0  0  0  0  0  3  0  0  0  0  0  0
   42.4510   21.1450   37.1300 C   0  0  0  0  0  0  0  0  0  0  0  0
   42.6940   20.2160   37.6660 H   0  0  0  0  0  0  0  0  0  0  0  0
   41.1690   21.6510   37.3590 C   0  0  0  0  0  0  0  0  0  0  0  0
   40.4420   21.1900   38.0090 H   0  0  0  0  0  0  0  0  0  0  0  0
   40.8950   22.8110   36.6770 C   0  0  0  0  0  3  0  0  0  0  0  0
   36.4610   27.4830   32.9010 C   0  0  1  0  0  0  0  0  0  0  0  0
   35.8690   26.8630   33.6030 H   0  0  0  0  0  0  0  0  0  0  0  0
   36.1740   28.9220   32.9660 C   0  0  0  0  0  0  0  0  0  0  0  0
   35.8030   29.3560   34.2660 C   0  0  0  0  0  0  0  0  0  0  0  0
   35.4880   30.6650   34.5700 C   0  0  0  0  0  0  0  0  0  0  0  0
   35.5210   31.6520   33.5730 C   0  0  0  0  0  0  0  0  0  0  0  0
   35.8930   31.1450   32.3350 C   0  0  0  0  0  0  0  0  0  0  0  0
   36.2030   29.8840   32.0180 N   0  0  0  0  0  0  0  0  0  0  0  0
   35.7070   28.7850   35.2000 H   0  0  0  0  0  0  0  0  0  0  0  0
   35.1990   31.0600   35.5290 H   0  0  0  0  0  0  0  0  0  0  0  0
   35.3120   32.6860   33.6310 H   0  0  0  0  0  0  0  0  0  0  0  0
   35.9640   31.7930   31.4590 H   0  0  0  0  0  0  0  0  0  0  0  0
   36.0870   26.9670   31.1910 S   0  0  0  0  0  0  0  0  0  0  0  0
   35.8500   25.2020   31.0900 C   0  0  0  0  0  0  0  0  0  0  0  0
   35.8730   24.5760   32.3270 F   0  0  0  0  0  0  0  0  0  0  0  0
   34.7080   24.8820   30.3760 F   0  0  0  0  0  0  0  0  0  0  0  0
   36.9280   24.6980   30.3350 F   0  0  0  0  0  0  0  0  0  0  0  0
  1  5  1  0  0  0  0
  2  1  2  0  0  0  0
  3  8  1  0  0  0  0
  4  3  2  0  0  0  0
  4  5  1  0  0  0  0
  5  6  2  0  0  0  0
  6  7  1  0  0  0  0
  7 11  1  0  0  0  0
  8  7  2  0  0  0  0
  9  3  1  0  0  0  0
 10  4  1  0  0  0  0
 11 19  1  0  0  0  0
 12 11  2  0  0  0  0
 12 14  1  0  0  0  0
 13 12  1  0  0  0  0
 14 15  2  0  0  0  0
 15 17  1  0  0  0  0
 15 16  1  0  0  0  0
 17 18  1  0  0  0  0
 19 17  2  0  0  0  0
 20 22  1  0  0  0  0
 20  2  1  0  0  0  0
 20 21  1  1  0  0  0
 22 23  1  0  0  0  0
 23 24  2  0  0  0  0
 23 28  1  0  0  0  0
 24 29  1  0  0  0  0
 25 30  1  0  0  0  0
 25 24  1  0  0  0  0
 26 25  2  0  0  0  0
 27 26  1  0  0  0  0
 27 22  2  0  0  0  0
 31 26  1  0  0  0  0
 32 20  1  0  0  0  0
 33 32  1  0  0  0  0
 33 34  1  0  0  0  0
 35 33  1  0  0  0  0
 36 33  1  0  0  0  0
M  END
>  <minimizedAffinity>
-5.55645323

$$$$

 OpenBabel03272502363D

 36 38  0  0  1  0  0  0  0  0999 V2000
   38.3570   26.5370   33.4100 C   0  0  0  0  0  3  0  0  0  0  0  0
   38.1660   25.6010   34.2830 C   0  0  0  0  0  3  0  0  0  0  0  0
   35.9470   28.5260   31.3800 C   0  0  0  0  0  0  0  0  0  0  0  0
   36.9190   27.6270   31.7710 C   0  0  0  0  0  0  0  0  0  0  0  0
   37.3320   27.4870   33.0700 C   0  0  0  0  0  0  0  0  0  0  0  0
   36.7270   28.2900   33.9780 N   0  0  0  0  0  0  0  0  0  0  0  0
   35.7890   29.1620   33.6240 C   0  0  0  0  0  0  0  0  0  0  0  0
   35.3900   29.2910   32.3420 N   0  0  0  0  0  0  0  0  0  0  0  0
   35.6010   28.6620   30.3730 H   0  0  0  0  0  0  0  0  0  0  0  0
   37.2980   27.0660   30.9280 H   0  0  0  0  0  0  0  0  0  0  0  0
   35.1660   30.0060   34.6400 C   0  0  0  0  0  0  0  0  0  0  0  0
   33.8110   29.9240   34.8870 C   0  0  0  0  0  0  0  0  0  0  0  0
   33.1790   29.2440   34.3450 H   0  0  0  0  0  0  0  0  0  0  0  0
   33.2510   30.7350   35.8540 C   0  0  0  0  0  3  0  0  0  0  0  0
   34.0240   31.6230   36.5740 C   0  0  0  0  0  0  0  0  0  0  0  0
   33.6070   32.2810   37.3500 H   0  0  0  0  0  0  0  0  0  0  0  0
   35.4000   31.7440   36.3620 C   0  0  0  0  0  0  0  0  0  0  0  0
   36.0400   32.4230   36.9020 H   0  0  0  0  0  0  0  0  0  0  0  0
   35.8910   30.9090   35.3880 C   0  0  0  0  0  3  0  0  0  0  0  0
   39.3010   24.6550   34.5590 C   0  0  1  0  0  0  0  0  0  0  0  0
   40.2690   25.1380   34.3190 H   0  0  0  0  0  0  0  0  0  0  0  0
   39.1940   24.1470   35.9330 C   0  0  0  0  0  0  0  0  0  0  0  0
   38.1430   24.7530   36.6690 C   0  0  0  0  0  0  0  0  0  0  0  0
   37.8510   24.4370   37.9800 C   0  0  0  0  0  0  0  0  0  0  0  0
   38.6080   23.4710   38.6610 C   0  0  0  0  0  0  0  0  0  0  0  0
   39.6130   22.9290   37.8710 C   0  0  0  0  0  0  0  0  0  0  0  0
   39.9130   23.2190   36.6010 N   0  0  0  0  0  0  0  0  0  0  0  0
   37.4200   25.5220   36.3630 H   0  0  0  0  0  0  0  0  0  0  0  0
   37.0730   24.8560   38.5940 H   0  0  0  0  0  0  0  0  0  0  0  0
   38.5230   23.1130   39.6520 H   0  0  0  0  0  0  0  0  0  0  0  0
   40.2860   22.1640   38.2630 H   0  0  0  0  0  0  0  0  0  0  0  0
   39.0700   23.2120   33.4640 S   0  0  0  0  0  0  0  0  0  0  0  0
   40.6400   22.5290   32.9630 C   0  0  0  0  0  0  0  0  0  0  0  0
   41.1300   21.5800   33.8460 F   0  0  0  0  0  0  0  0  0  0  0  0
   40.5940   22.0460   31.6660 F   0  0  0  0  0  0  0  0  0  0  0  0
   41.5530   23.6020   32.9400 F   0  0  0  0  0  0  0  0  0  0  0  0
  1  2  2  0  0  0  0
  2 20  1  0  0  0  0
  3  4  2  0  0  0  0
  3  8  1  0  0  0  0
  4  5  1  0  0  0  0
  5  1  1  0  0  0  0
  5  6  2  0  0  0  0
  7  6  1  0  0  0  0
  7 11  1  0  0  0  0
  8  7  2  0  0  0  0
  9  3  1  0  0  0  0
 10  4  1  0  0  0  0
 11 12  2  0  0  0  0
 11 19  1  0  0  0  0
 12 14  1  0  0  0  0
 13 12  1  0  0  0  0
 14 15  2  0  0  0  0
 15 16  1  0  0  0  0
 17 15  1  0  0  0  0
 17 18  1  0  0  0  0
 19 17  2  0  0  0  0
 20 21  1  6  0  0  0
 20 22  1  0  0  0  0
 22 27  2  0  0  0  0
 22 23  1  0  0  0  0
 23 24  2  0  0  0  0
 24 29  1  0  0  0  0
 24 25  1  0  0  0  0
 25 30  1  0  0  0  0
 26 31  1  0  0  0  0
 26 25  2  0  0  0  0
 27 26  1  0  0  0  0
 28 23  1  0  0  0  0
 32 20  1  0  0  0  0
 33 32  1  0  0  0  0
 33 34  1  0  0  0  0
 35 33  1  0  0  0  0
 36 33  1  0  0  0  0
M  END
>  <minimizedAffinity>
-5.55030966

$$$$

 OpenBabel03272502363D

 36 38  0  0  1  0  0  0  0  0999 V2000
   35.9600   27.8840   33.4950 C   0  0  0  0  0  3  0  0  0  0  0  0
   35.8280   29.1140   33.8780 C   0  0  0  0  0  3  0  0  0  0  0  0
   39.4000   26.5760   32.9090 C   0  0  0  0  0  0  0  0  0  0  0  0
   38.2070   27.2600   32.7850 C   0  0  0  0  0  0  0  0  0  0  0  0
   37.1830   27.1500   33.6880 C   0  0  0  0  0  0  0  0  0  0  0  0
   37.3970   26.3190   34.7360 N   0  0  0  0  0  0  0  0  0  0  0  0
   38.5370   25.6520   34.8760 C   0  0  0  0  0  0  0  0  0  0  0  0
   39.5400   25.7670   33.9800 N   0  0  0  0  0  0  0  0  0  0  0  0
   40.2210   26.6380   32.2210 H   0  0  0  0  0  0  0  0  0  0  0  0
   38.1980   27.8770   31.8970 H   0  0  0  0  0  0  0  0  0  0  0  0
   38.7220   24.7670   36.0230 C   0  0  0  0  0  0  0  0  0  0  0  0
   39.6830   23.7780   36.0000 C   0  0  0  0  0  0  0  0  0  0  0  0
   40.3190   23.6290   35.1450 H   0  0  0  0  0  0  0  0  0  0  0  0
   39.8340   22.9580   37.1000 C   0  0  0  0  0  3  0  0  0  0  0  0
   39.0410   23.1130   38.2190 C   0  0  0  0  0  0  0  0  0  0  0  0
   39.1380   22.4760   39.1100 H   0  0  0  0  0  0  0  0  0  0  0  0
   38.0540   24.0990   38.2920 C   0  0  0  0  0  0  0  0  0  0  0  0
   37.4140   24.2550   39.1450 H   0  0  0  0  0  0  0  0  0  0  0  0
   37.9570   24.8790   37.1650 C   0  0  0  0  0  3  0  0  0  0  0  0
   34.5120   29.7920   33.6210 C   0  0  1  0  0  0  0  0  0  0  0  0
   33.6810   29.0650   33.7250 H   0  0  0  0  0  0  0  0  0  0  0  0
   34.3960   30.9800   34.4770 C   0  0  0  0  0  0  0  0  0  0  0  0
   35.4570   31.0970   35.4110 C   0  0  0  0  0  0  0  0  0  0  0  0
   35.5620   32.1300   36.3190 C   0  0  0  0  0  0  0  0  0  0  0  0
   34.5900   33.1420   36.3570 C   0  0  0  0  0  0  0  0  0  0  0  0
   33.5900   32.9520   35.4130 C   0  0  0  0  0  0  0  0  0  0  0  0
   33.4680   31.9610   34.5240 N   0  0  0  0  0  0  0  0  0  0  0  0
   36.3270   30.4450   35.5760 H   0  0  0  0  0  0  0  0  0  0  0  0
   36.3360   32.2790   37.0520 H   0  0  0  0  0  0  0  0  0  0  0  0
   34.5150   33.9930   36.9780 H   0  0  0  0  0  0  0  0  0  0  0  0
   32.7610   33.6580   35.3200 H   0  0  0  0  0  0  0  0  0  0  0  0
   34.5540   30.4050   31.9020 S   0  0  0  0  0  0  0  0  0  0  0  0
   36.1600   31.0650   31.4940 C   0  0  0  0  0  0  0  0  0  0  0  0
   36.6320   31.9720   32.4310 F   0  0  0  0  0  0  0  0  0  0  0  0
   37.0770   30.0570   31.2490 F   0  0  0  0  0  0  0  0  0  0  0  0
   36.0100   31.7520   30.2730 F   0  0  0  0  0  0  0  0  0  0  0  0
  1  5  1  0  0  0  0
  1  2  2  0  0  0  0
  3  8  1  0  0  0  0
  4  3  2  0  0  0  0
  4  5  1  0  0  0  0
  5  6  2  0  0  0  0
  6  7  1  0  0  0  0
  7 11  1  0  0  0  0
  8  7  2  0  0  0  0
  9  3  1  0  0  0  0
 10  4  1  0  0  0  0
 11 19  1  0  0  0  0
 12 11  2  0  0  0  0
 12 14  1  0  0  0  0
 13 12  1  0  0  0  0
 14 15  2  0  0  0  0
 15 17  1  0  0  0  0
 15 16  1  0  0  0  0
 17 18  1  0  0  0  0
 19 17  2  0  0  0  0
 20 21  1  1  0  0  0
 20  2  1  0  0  0  0
 20 22  1  0  0  0  0
 22 27  2  0  0  0  0
 22 23  1  0  0  0  0
 23 28  1  0  0  0  0
 23 24  2  0  0  0  0
 24 25  1  0  0  0  0
 24 29  1  0  0  0  0
 25 30  1  0  0  0  0
 26 25  2  0  0  0  0
 27 26  1  0  0  0  0
 31 26  1  0  0  0  0
 32 20  1  0  0  0  0
 33 32  1  0  0  0  0
 33 34  1  0  0  0  0
 35 33  1  0  0  0  0
 36 33  1  0  0  0  0
M  END
>  <minimizedAffinity>
-5.54981136

$$$$
