
 OpenBabel03272500033D

 28 30  0  0  0  0  0  0  0  0999 V2000
   36.1830   29.4200   49.1900 C   0  0  0  0  0  0  0  0  0  0  0  0
   36.1960   30.4880   48.2590 C   0  0  0  0  0  0  0  0  0  0  0  0
   35.2620   30.4360   47.2340 C   0  0  0  0  0  0  0  0  0  0  0  0
   34.3980   29.3840   47.1790 N   0  0  0  0  0  0  0  0  0  0  0  0
   34.4110   28.3910   48.0730 C   0  0  0  0  0  0  0  0  0  0  0  0
   35.3020   28.4040   49.0810 N   0  0  0  0  0  0  0  0  0  0  0  0
   36.8990   29.4220   50.0090 H   0  0  0  0  0  0  0  0  0  0  0  0
   35.2710   31.2500   46.5240 H   0  0  0  0  0  0  0  0  0  0  0  0
   37.1570   31.5210   48.4430 N   0  0  0  0  0  0  0  0  0  0  0  0
   37.2250   32.2270   49.5780 C   0  0  0  0  0  0  0  0  0  0  0  0
   38.1790   33.2350   49.7280 C   0  0  0  0  0  0  0  0  0  0  0  0
   38.9880   33.3890   48.6120 C   0  0  0  0  0  0  0  0  0  0  0  0
   39.8740   34.3090   48.7230 O   0  0  0  0  0  0  0  0  0  0  0  0
   38.9440   32.7010   47.4670 N   0  0  0  0  0  0  0  0  0  0  0  0
   37.9930   31.7400   47.3980 C   0  0  0  0  0  0  0  0  0  0  0  0
   37.9370   31.0810   46.3230 O   0  0  0  0  0  0  0  0  0  0  0  0
   36.5480   32.0330   50.3970 H   0  0  0  0  0  0  0  0  0  0  0  0
   38.2960   33.8380   50.5980 H   0  0  0  0  0  0  0  0  0  0  0  0
   39.6060   32.9080   46.6980 H   0  0  0  0  0  0  0  0  0  0  0  0
   33.4600   27.2870   47.9620 C   0  0  0  0  0  0  0  0  0  0  0  0
   33.8580   26.0810   47.4160 C   0  0  0  0  0  0  0  0  0  0  0  0
   34.8970   26.0170   47.0840 H   0  0  0  0  0  0  0  0  0  0  0  0
   32.9840   25.0290   47.3010 C   0  0  0  0  0  0  0  0  0  0  0  0
   31.6730   25.1370   47.7280 C   0  0  0  0  0  0  0  0  0  0  0  0
   31.0140   24.2960   47.6240 H   0  0  0  0  0  0  0  0  0  0  0  0
   31.2660   26.3320   48.2740 C   0  0  0  0  0  0  0  0  0  0  0  0
   30.2290   26.3800   48.5980 H   0  0  0  0  0  0  0  0  0  0  0  0
   32.1710   27.3930   48.3820 C   0  0  0  0  0  0  0  0  0  0  0  0
  1  7  1  0  0  0  0
  2  9  1  0  0  0  0
  2  1  2  0  0  0  0
  3  2  1  0  0  0  0
  4  3  2  0  0  0  0
  4  5  1  0  0  0  0
  5  6  2  0  0  0  0
  6  1  1  0  0  0  0
  8  3  1  0  0  0  0
  9 10  1  0  0  0  0
 10 11  2  0  0  0  0
 10 17  1  0  0  0  0
 11 18  1  0  0  0  0
 12 13  2  0  0  0  0
 12 11  1  0  0  0  0
 14 12  1  0  0  0  0
 15 14  1  0  0  0  0
 15  9  1  0  0  0  0
 16 15  2  0  0  0  0
 19 14  1  0  0  0  0
 20  5  1  0  0  0  0
 20 28  1  0  0  0  0
 21 20  2  0  0  0  0
 22 21  1  0  0  0  0
 23 21  1  0  0  0  0
 23 24  2  0  0  0  0
 24 26  1  0  0  0  0
 25 24  1  0  0  0  0
 26 28  2  0  0  0  0
 26 27  1  0  0  0  0
M  END
>  <minimizedAffinity>
-5.89859724

>  <minimizedRMSD>
0.519699633

$$$$
