
 OpenBabel03262523493D

 38 41  0  0  0  0  0  0  0  0999 V2000
   35.8490   31.6210   32.1070 Cl  0  0  0  0  0  0  0  0  0  0  0  0
   36.2680   29.9440   32.3730 C   0  0  0  0  0  0  0  0  0  0  0  0
   35.9230   29.3100   33.5520 C   0  0  0  0  0  0  0  0  0  0  0  0
   36.2890   27.9970   33.6780 C   0  0  0  0  0  0  0  0  0  0  0  0
   36.9630   27.2990   32.7210 C   0  0  0  0  0  0  0  0  0  0  0  0
   37.2960   27.9770   31.5360 C   0  0  0  0  0  0  0  0  0  0  0  0
   38.1600   27.0600   30.3240 Cl  0  0  0  0  0  0  0  0  0  0  0  0
   36.9510   29.2960   31.3610 C   0  0  0  0  0  0  0  0  0  0  0  0
   35.9980   27.5330   34.6220 H   0  0  0  0  0  0  0  0  0  0  0  0
   37.2140   29.8070   30.4430 H   0  0  0  0  0  0  0  0  0  0  0  0
   38.8980   26.6800   34.9810 Cl  0  0  0  0  0  0  0  0  0  0  0  0
   38.1330   25.4390   33.9740 C   0  0  0  0  0  0  0  0  0  0  0  0
   37.2840   25.9100   32.9980 C   0  0  0  0  0  0  0  0  0  0  0  0
   36.6430   24.9960   32.1650 C   0  0  0  0  0  0  0  0  0  0  0  0
   36.8450   23.6300   32.3030 C   0  0  0  0  0  0  0  0  0  0  0  0
   37.7080   23.2070   33.3000 C   0  0  0  0  0  0  0  0  0  0  0  0
   38.3630   24.1030   34.1480 C   0  0  0  0  0  0  0  0  0  0  0  0
   35.9680   25.2920   31.3820 H   0  0  0  0  0  0  0  0  0  0  0  0
   36.3570   22.9050   31.6660 H   0  0  0  0  0  0  0  0  0  0  0  0
   37.8870   22.1480   33.4330 H   0  0  0  0  0  0  0  0  0  0  0  0
   39.2710   23.6570   35.1970 C   0  0  0  0  0  0  0  0  0  0  0  0
   40.6310   23.4690   35.0640 C   0  0  0  0  0  0  0  0  0  0  0  0
   41.0560   23.6670   34.1080 H   0  0  0  0  0  0  0  0  0  0  0  0
   41.4170   23.0430   36.1140 C   0  0  0  0  0  3  0  0  0  0  0  0
   40.8530   22.7850   37.3650 C   0  0  0  0  0  0  0  0  0  0  0  0
   41.4350   22.4490   38.2120 H   0  0  0  0  0  0  0  0  0  0  0  0
   39.4910   22.9850   37.4570 C   0  0  0  0  0  0  0  0  0  0  0  0
   39.0570   22.7790   38.4460 H   0  0  0  0  0  0  0  0  0  0  0  0
   38.6700   23.4110   36.4280 C   0  0  0  0  0  3  0  0  0  0  0  0
   35.1710   31.6760   36.4050 C   0  0  0  0  0  0  0  0  0  0  0  0
   35.8670   30.9280   35.4570 C   0  0  0  0  0  0  0  0  0  0  0  0
   35.1990   30.0990   34.5520 C   0  0  0  0  0  0  0  0  0  0  0  0
   33.8330   30.0550   34.6440 N   0  0  0  0  0  0  0  0  0  0  0  0
   33.1940   30.7900   35.5730 C   0  0  0  0  0  0  0  0  0  0  0  0
   33.8280   31.5810   36.4360 N   0  0  0  0  0  0  0  0  0  0  0  0
   35.6970   32.3090   37.0950 H   0  0  0  0  0  0  0  0  0  0  0  0
   36.9440   30.9570   35.3760 H   0  0  0  0  0  0  0  0  0  0  0  0
   32.1150   30.7850   35.6820 H   0  0  0  0  0  0  0  0  0  0  0  0
  1  2  1  0  0  0  0
  2  3  1  0  0  0  0
  3  4  2  0  0  0  0
  3 32  1  0  0  0  0
  4  9  1  0  0  0  0
  5 13  1  0  0  0  0
  5  4  1  0  0  0  0
  6  5  2  0  0  0  0
  7  6  1  0  0  0  0
  8  6  1  0  0  0  0
  8  2  2  0  0  0  0
 10  8  1  0  0  0  0
 12 17  1  0  0  0  0
 12 11  1  0  0  0  0
 13 12  2  0  0  0  0
 14 15  2  0  0  0  0
 14 13  1  0  0  0  0
 15 16  1  0  0  0  0
 16 20  1  0  0  0  0
 16 17  2  0  0  0  0
 17 21  1  0  0  0  0
 18 14  1  0  0  0  0
 19 15  1  0  0  0  0
 21 29  1  0  0  0  0
 22 21  2  0  0  0  0
 22 24  1  0  0  0  0
 23 22  1  0  0  0  0
 24 25  2  0  0  0  0
 25 27  1  0  0  0  0
 25 26  1  0  0  0  0
 27 28  1  0  0  0  0
 29 27  2  0  0  0  0
 30 35  1  0  0  0  0
 30 36  1  0  0  0  0
 31 30  2  0  0  0  0
 32 33  2  0  0  0  0
 32 31  1  0  0  0  0
 33 34  1  0  0  0  0
 34 38  1  0  0  0  0
 34 35  2  0  0  0  0
 37 31  1  0  0  0  0
M  END
>  <minimizedAffinity>
-6.55401945

$$$$

 OpenBabel03262523493D

 38 41  0  0  0  0  0  0  0  0999 V2000
   35.5410   31.6180   32.0230 Cl  0  0  0  0  0  0  0  0  0  0  0  0
   36.1230   29.9890   32.2840 C   0  0  0  0  0  0  0  0  0  0  0  0
   35.9020   29.3470   33.4880 C   0  0  0  0  0  0  0  0  0  0  0  0
   36.3920   28.0740   33.6080 C   0  0  0  0  0  0  0  0  0  0  0  0
   37.0720   27.4240   32.6230 C   0  0  0  0  0  0  0  0  0  0  0  0
   37.2770   28.1090   31.4140 C   0  0  0  0  0  0  0  0  0  0  0  0
   38.1520   27.2530   30.1660 Cl  0  0  0  0  0  0  0  0  0  0  0  0
   36.8060   29.3880   31.2430 C   0  0  0  0  0  0  0  0  0  0  0  0
   36.1960   27.6020   34.5730 H   0  0  0  0  0  0  0  0  0  0  0  0
   36.9700   29.9060   30.3060 H   0  0  0  0  0  0  0  0  0  0  0  0
   35.5720   25.0960   31.3700 Cl  0  0  0  0  0  0  0  0  0  0  0  0
   36.9830   24.9030   32.4240 C   0  0  0  0  0  0  0  0  0  0  0  0
   37.5310   26.0730   32.8980 C   0  0  0  0  0  0  0  0  0  0  0  0
   38.6440   26.0050   33.7340 C   0  0  0  0  0  0  0  0  0  0  0  0
   39.2040   24.7870   34.0900 C   0  0  0  0  0  0  0  0  0  0  0  0
   38.6160   23.6380   33.5870 C   0  0  0  0  0  0  0  0  0  0  0  0
   37.5000   23.6800   32.7480 C   0  0  0  0  0  0  0  0  0  0  0  0
   39.1230   26.8770   34.1410 H   0  0  0  0  0  0  0  0  0  0  0  0
   40.0680   24.7130   34.7370 H   0  0  0  0  0  0  0  0  0  0  0  0
   39.0290   22.6730   33.8470 H   0  0  0  0  0  0  0  0  0  0  0  0
   36.8810   22.4710   32.2180 C   0  0  0  0  0  0  0  0  0  0  0  0
   35.7150   21.8930   32.6730 C   0  0  0  0  0  0  0  0  0  0  0  0
   35.2210   22.3730   33.4860 H   0  0  0  0  0  0  0  0  0  0  0  0
   35.2000   20.7440   32.1100 C   0  0  0  0  0  3  0  0  0  0  0  0
   35.8530   20.1200   31.0450 C   0  0  0  0  0  0  0  0  0  0  0  0
   35.4810   19.2190   30.5780 H   0  0  0  0  0  0  0  0  0  0  0  0
   37.0150   20.7290   30.6200 C   0  0  0  0  0  0  0  0  0  0  0  0
   37.5210   20.2300   29.7800 H   0  0  0  0  0  0  0  0  0  0  0  0
   37.5630   21.8800   31.1580 C   0  0  0  0  0  3  0  0  0  0  0  0
   35.1040   31.6540   36.3760 C   0  0  0  0  0  0  0  0  0  0  0  0
   35.8110   30.9560   35.3990 C   0  0  0  0  0  0  0  0  0  0  0  0
   35.1660   30.0840   34.5180 C   0  0  0  0  0  0  0  0  0  0  0  0
   33.8110   29.9490   34.6610 N   0  0  0  0  0  0  0  0  0  0  0  0
   33.1600   30.6380   35.6170 C   0  0  0  0  0  0  0  0  0  0  0  0
   33.7720   31.4690   36.4580 N   0  0  0  0  0  0  0  0  0  0  0  0
   35.6120   32.3200   37.0480 H   0  0  0  0  0  0  0  0  0  0  0  0
   36.8800   31.0560   35.2780 H   0  0  0  0  0  0  0  0  0  0  0  0
   32.0880   30.5610   35.7670 H   0  0  0  0  0  0  0  0  0  0  0  0
  1  2  1  0  0  0  0
  2  3  1  0  0  0  0
  3  4  2  0  0  0  0
  3 32  1  0  0  0  0
  4  9  1  0  0  0  0
  5 13  1  0  0  0  0
  5  4  1  0  0  0  0
  6  5  2  0  0  0  0
  7  6  1  0  0  0  0
  8  6  1  0  0  0  0
  8  2  2  0  0  0  0
 10  8  1  0  0  0  0
 11 12  1  0  0  0  0
 12 17  2  0  0  0  0
 12 13  1  0  0  0  0
 13 14  2  0  0  0  0
 14 15  1  0  0  0  0
 14 18  1  0  0  0  0
 15 19  1  0  0  0  0
 16 20  1  0  0  0  0
 16 15  2  0  0  0  0
 17 16  1  0  0  0  0
 21 22  1  0  0  0  0
 21 17  1  0  0  0  0
 22 23  1  0  0  0  0
 24 22  2  0  0  0  0
 25 24  1  0  0  0  0
 26 25  1  0  0  0  0
 27 25  2  0  0  0  0
 27 29  1  0  0  0  0
 28 27  1  0  0  0  0
 29 21  2  0  0  0  0
 30 35  1  0  0  0  0
 30 36  1  0  0  0  0
 31 30  2  0  0  0  0
 32 33  2  0  0  0  0
 32 31  1  0  0  0  0
 33 34  1  0  0  0  0
 34 38  1  0  0  0  0
 34 35  2  0  0  0  0
 37 31  1  0  0  0  0
M  END
>  <minimizedAffinity>
-6.43950462

$$$$

 OpenBabel03262523493D

 38 41  0  0  0  0  0  0  0  0999 V2000
   36.0660   30.9490   31.4320 Cl  0  0  0  0  0  0  0  0  0  0  0  0
   36.5510   29.3190   31.8410 C   0  0  0  0  0  0  0  0  0  0  0  0
   36.1330   28.7360   33.0220 C   0  0  0  0  0  0  0  0  0  0  0  0
   36.5600   27.4570   33.2640 C   0  0  0  0  0  0  0  0  0  0  0  0
   37.3570   26.7470   32.4170 C   0  0  0  0  0  0  0  0  0  0  0  0
   37.7610   27.3740   31.2260 C   0  0  0  0  0  0  0  0  0  0  0  0
   38.7820   26.4420   30.1570 Cl  0  0  0  0  0  0  0  0  0  0  0  0
   37.3600   28.6560   30.9370 C   0  0  0  0  0  0  0  0  0  0  0  0
   36.2090   27.0320   34.2060 H   0  0  0  0  0  0  0  0  0  0  0  0
   37.6780   29.1280   30.0160 H   0  0  0  0  0  0  0  0  0  0  0  0
   35.6520   24.4290   31.4380 Cl  0  0  0  0  0  0  0  0  0  0  0  0
   37.0810   24.2330   32.4670 C   0  0  0  0  0  0  0  0  0  0  0  0
   37.7280   25.3990   32.8100 C   0  0  0  0  0  0  0  0  0  0  0  0
   38.8610   25.3280   33.6180 C   0  0  0  0  0  0  0  0  0  0  0  0
   39.3440   24.1110   34.0760 C   0  0  0  0  0  0  0  0  0  0  0  0
   38.6580   22.9670   33.7030 C   0  0  0  0  0  0  0  0  0  0  0  0
   37.5190   23.0110   32.8950 C   0  0  0  0  0  0  0  0  0  0  0  0
   39.4140   26.1960   33.9250 H   0  0  0  0  0  0  0  0  0  0  0  0
   40.2210   24.0350   34.7040 H   0  0  0  0  0  0  0  0  0  0  0  0
   39.0090   22.0020   34.0450 H   0  0  0  0  0  0  0  0  0  0  0  0
   36.7980   21.8070   32.5030 C   0  0  0  0  0  0  0  0  0  0  0  0
   36.7410   21.2760   31.2320 C   0  0  0  0  0  0  0  0  0  0  0  0
   37.2710   21.7940   30.4660 H   0  0  0  0  0  0  0  0  0  0  0  0
   36.0320   20.1280   30.9490 C   0  0  0  0  0  3  0  0  0  0  0  0
   35.3380   19.4540   31.9570 C   0  0  0  0  0  0  0  0  0  0  0  0
   34.7710   18.5520   31.7760 H   0  0  0  0  0  0  0  0  0  0  0  0
   35.4210   20.0160   33.2140 C   0  0  0  0  0  0  0  0  0  0  0  0
   34.8730   19.4780   34.0010 H   0  0  0  0  0  0  0  0  0  0  0  0
   36.1220   21.1660   33.5370 C   0  0  0  0  0  3  0  0  0  0  0  0
   34.9920   31.1690   35.6820 C   0  0  0  0  0  0  0  0  0  0  0  0
   35.8130   30.4110   34.8490 C   0  0  0  0  0  0  0  0  0  0  0  0
   35.2780   29.5350   33.9010 C   0  0  0  0  0  0  0  0  0  0  0  0
   33.9120   29.4570   33.8320 N   0  0  0  0  0  0  0  0  0  0  0  0
   33.1490   30.2030   34.6530 C   0  0  0  0  0  0  0  0  0  0  0  0
   33.6560   31.0380   35.5570 N   0  0  0  0  0  0  0  0  0  0  0  0
   35.4160   31.8390   36.4060 H   0  0  0  0  0  0  0  0  0  0  0  0
   36.8910   30.4670   34.8960 H   0  0  0  0  0  0  0  0  0  0  0  0
   32.0650   30.1720   34.6330 H   0  0  0  0  0  0  0  0  0  0  0  0
  1  2  1  0  0  0  0
  2  3  1  0  0  0  0
  3  4  2  0  0  0  0
  3 32  1  0  0  0  0
  4  9  1  0  0  0  0
  5 13  1  0  0  0  0
  5  4  1  0  0  0  0
  6  5  2  0  0  0  0
  7  6  1  0  0  0  0
  8  6  1  0  0  0  0
  8  2  2  0  0  0  0
 10  8  1  0  0  0  0
 11 12  1  0  0  0  0
 12 13  2  0  0  0  0
 12 17  1  0  0  0  0
 13 14  1  0  0  0  0
 14 18  1  0  0  0  0
 14 15  2  0  0  0  0
 15 19  1  0  0  0  0
 16 20  1  0  0  0  0
 16 15  1  0  0  0  0
 17 16  2  0  0  0  0
 21 17  1  0  0  0  0
 21 29  1  0  0  0  0
 22 21  2  0  0  0  0
 23 22  1  0  0  0  0
 24 22  1  0  0  0  0
 24 25  2  0  0  0  0
 25 27  1  0  0  0  0
 26 25  1  0  0  0  0
 27 29  2  0  0  0  0
 27 28  1  0  0  0  0
 30 36  1  0  0  0  0
 31 37  1  0  0  0  0
 31 30  2  0  0  0  0
 32 31  1  0  0  0  0
 33 32  2  0  0  0  0
 33 34  1  0  0  0  0
 34 35  2  0  0  0  0
 35 30  1  0  0  0  0
 38 34  1  0  0  0  0
M  END
>  <minimizedAffinity>
-6.29516649

$$$$

 OpenBabel03262523493D

 38 41  0  0  0  0  0  0  0  0999 V2000
   39.6830   21.8110   33.0870 Cl  0  0  0  0  0  0  0  0  0  0  0  0
   38.9230   23.3740   32.8900 C   0  0  0  0  0  0  0  0  0  0  0  0
   37.5780   23.4690   32.5840 C   0  0  0  0  0  0  0  0  0  0  0  0
   37.0650   24.7310   32.4470 C   0  0  0  0  0  0  0  0  0  0  0  0
   37.7950   25.8710   32.5940 C   0  0  0  0  0  0  0  0  0  0  0  0
   39.1590   25.7340   32.9050 C   0  0  0  0  0  0  0  0  0  0  0  0
   40.0740   27.2110   33.0880 Cl  0  0  0  0  0  0  0  0  0  0  0  0
   39.7230   24.4890   33.0530 C   0  0  0  0  0  0  0  0  0  0  0  0
   36.0000   24.7640   32.2060 H   0  0  0  0  0  0  0  0  0  0  0  0
   40.7750   24.3970   33.2920 H   0  0  0  0  0  0  0  0  0  0  0  0
   36.7530   27.3120   35.0590 Cl  0  0  0  0  0  0  0  0  0  0  0  0
   36.5730   27.9320   33.4080 C   0  0  0  0  0  0  0  0  0  0  0  0
   37.1100   27.1400   32.4180 C   0  0  0  0  0  0  0  0  0  0  0  0
   37.0090   27.5580   31.0930 C   0  0  0  0  0  0  0  0  0  0  0  0
   36.3830   28.7500   30.7600 C   0  0  0  0  0  0  0  0  0  0  0  0
   35.8590   29.5110   31.7910 C   0  0  0  0  0  0  0  0  0  0  0  0
   35.9470   29.1140   33.1280 C   0  0  0  0  0  0  0  0  0  0  0  0
   37.4040   26.9910   30.2690 H   0  0  0  0  0  0  0  0  0  0  0  0
   36.2940   29.0920   29.7370 H   0  0  0  0  0  0  0  0  0  0  0  0
   35.3640   30.4450   31.5640 H   0  0  0  0  0  0  0  0  0  0  0  0
   35.3960   29.9140   34.2140 C   0  0  0  0  0  0  0  0  0  0  0  0
   36.1030   30.7850   35.0160 C   0  0  0  0  0  0  0  0  0  0  0  0
   37.1470   30.8810   34.8260 H   0  0  0  0  0  0  0  0  0  0  0  0
   35.4980   31.5060   36.0240 C   0  0  0  0  0  3  0  0  0  0  0  0
   34.1290   31.3750   36.2690 C   0  0  0  0  0  0  0  0  0  0  0  0
   33.6190   31.9220   37.0500 H   0  0  0  0  0  0  0  0  0  0  0  0
   33.4580   30.4950   35.4460 C   0  0  0  0  0  0  0  0  0  0  0  0
   32.3820   30.4000   35.6460 H   0  0  0  0  0  0  0  0  0  0  0  0
   34.0290   29.7550   34.4250 C   0  0  0  0  0  3  0  0  0  0  0  0
   35.8700   20.4650   31.0500 C   0  0  0  0  0  0  0  0  0  0  0  0
   36.5800   21.6570   31.1820 C   0  0  0  0  0  0  0  0  0  0  0  0
   36.8320   22.2180   32.4360 C   0  0  0  0  0  0  0  0  0  0  0  0
   36.3460   21.5440   33.5250 N   0  0  0  0  0  0  0  0  0  0  0  0
   35.6630   20.3960   33.3600 C   0  0  0  0  0  0  0  0  0  0  0  0
   35.4220   19.8590   32.1660 N   0  0  0  0  0  0  0  0  0  0  0  0
   35.6830   20.0440   30.0790 H   0  0  0  0  0  0  0  0  0  0  0  0
   36.9680   22.1950   30.3290 H   0  0  0  0  0  0  0  0  0  0  0  0
   35.2600   19.8300   34.1940 H   0  0  0  0  0  0  0  0  0  0  0  0
  2  8  1  0  0  0  0
  2  1  1  0  0  0  0
  3  2  2  0  0  0  0
  4  3  1  0  0  0  0
  4  5  2  0  0  0  0
  5  6  1  0  0  0  0
  6  8  2  0  0  0  0
  6  7  1  0  0  0  0
  8 10  1  0  0  0  0
  9  4  1  0  0  0  0
 12 11  1  0  0  0  0
 13  5  1  0  0  0  0
 13 12  2  0  0  0  0
 14 13  1  0  0  0  0
 15 14  2  0  0  0  0
 15 16  1  0  0  0  0
 16 17  2  0  0  0  0
 17 12  1  0  0  0  0
 17 21  1  0  0  0  0
 18 14  1  0  0  0  0
 19 15  1  0  0  0  0
 20 16  1  0  0  0  0
 21 29  2  0  0  0  0
 21 22  1  0  0  0  0
 22 24  2  0  0  0  0
 23 22  1  0  0  0  0
 24 25  1  0  0  0  0
 25 26  1  0  0  0  0
 27 28  1  0  0  0  0
 27 25  2  0  0  0  0
 29 27  1  0  0  0  0
 30 31  2  0  0  0  0
 30 35  1  0  0  0  0
 31 32  1  0  0  0  0
 32  3  1  0  0  0  0
 32 33  2  0  0  0  0
 34 33  1  0  0  0  0
 34 38  1  0  0  0  0
 35 34  2  0  0  0  0
 36 30  1  0  0  0  0
 37 31  1  0  0  0  0
M  END
>  <minimizedAffinity>
-6.26180363

$$$$

 OpenBabel03262523493D

 38 41  0  0  0  0  0  0  0  0999 V2000
   35.6650   32.7720   32.5030 Cl  0  0  0  0  0  0  0  0  0  0  0  0
   35.8530   31.0400   32.3540 C   0  0  0  0  0  0  0  0  0  0  0  0
   35.4570   30.1980   33.3760 C   0  0  0  0  0  0  0  0  0  0  0  0
   35.6400   28.8560   33.1770 C   0  0  0  0  0  0  0  0  0  0  0  0
   36.1800   28.3200   32.0470 C   0  0  0  0  0  0  0  0  0  0  0  0
   36.5710   29.2080   31.0300 C   0  0  0  0  0  0  0  0  0  0  0  0
   37.2620   28.4960   29.5910 Cl  0  0  0  0  0  0  0  0  0  0  0  0
   36.4090   30.5640   31.1810 C   0  0  0  0  0  0  0  0  0  0  0  0
   35.3140   28.2250   34.0070 H   0  0  0  0  0  0  0  0  0  0  0  0
   36.7140   31.2370   30.3900 H   0  0  0  0  0  0  0  0  0  0  0  0
   38.5800   27.0180   33.3830 Cl  0  0  0  0  0  0  0  0  0  0  0  0
   37.3230   26.1130   32.5220 C   0  0  0  0  0  0  0  0  0  0  0  0
   36.3120   26.8750   31.9810 C   0  0  0  0  0  0  0  0  0  0  0  0
   35.2860   26.2370   31.2870 C   0  0  0  0  0  0  0  0  0  0  0  0
   35.2670   24.8580   31.1370 C   0  0  0  0  0  0  0  0  0  0  0  0
   36.3060   24.1360   31.6990 C   0  0  0  0  0  0  0  0  0  0  0  0
   37.3470   24.7520   32.3990 C   0  0  0  0  0  0  0  0  0  0  0  0
   34.4660   26.7670   30.8390 H   0  0  0  0  0  0  0  0  0  0  0  0
   34.4790   24.3440   30.6020 H   0  0  0  0  0  0  0  0  0  0  0  0
   36.3210   23.0600   31.5980 H   0  0  0  0  0  0  0  0  0  0  0  0
   38.4410   23.9920   32.9910 C   0  0  0  0  0  0  0  0  0  0  0  0
   39.6510   23.7150   32.3910 C   0  0  0  0  0  0  0  0  0  0  0  0
   39.8000   24.0890   31.4040 H   0  0  0  0  0  0  0  0  0  0  0  0
   40.6340   22.9860   33.0270 C   0  0  0  0  0  3  0  0  0  0  0  0
   40.4310   22.4980   34.3200 C   0  0  0  0  0  0  0  0  0  0  0  0
   41.1760   21.9230   34.8520 H   0  0  0  0  0  0  0  0  0  0  0  0
   39.2090   22.7970   34.8850 C   0  0  0  0  0  0  0  0  0  0  0  0
   39.0600   22.4090   35.9030 H   0  0  0  0  0  0  0  0  0  0  0  0
   38.2000   23.5250   34.2790 C   0  0  0  0  0  3  0  0  0  0  0  0
   35.1260   31.8910   36.7410 C   0  0  0  0  0  0  0  0  0  0  0  0
   35.6830   31.3020   35.6070 C   0  0  0  0  0  0  0  0  0  0  0  0
   34.8800   30.8170   34.5710 C   0  0  0  0  0  0  0  0  0  0  0  0
   33.5250   30.9450   34.7260 N   0  0  0  0  0  0  0  0  0  0  0  0
   33.0220   31.5180   35.8350 C   0  0  0  0  0  0  0  0  0  0  0  0
   33.7850   31.9820   36.8230 N   0  0  0  0  0  0  0  0  0  0  0  0
   35.7550   32.2600   37.5300 H   0  0  0  0  0  0  0  0  0  0  0  0
   36.7500   31.1970   35.4760 H   0  0  0  0  0  0  0  0  0  0  0  0
   31.9570   31.6400   35.9990 H   0  0  0  0  0  0  0  0  0  0  0  0
  2  1  1  0  0  0  0
  2  3  1  0  0  0  0
  3 32  1  0  0  0  0
  4  3  2  0  0  0  0
  4  9  1  0  0  0  0
  5  4  1  0  0  0  0
  6  8  1  0  0  0  0
  6  5  2  0  0  0  0
  7  6  1  0  0  0  0
  8  2  2  0  0  0  0
 10  8  1  0  0  0  0
 12 11  1  0  0  0  0
 13  5  1  0  0  0  0
 13 12  2  0  0  0  0
 14 13  1  0  0  0  0
 15 14  2  0  0  0  0
 15 16  1  0  0  0  0
 16 17  2  0  0  0  0
 17 12  1  0  0  0  0
 17 21  1  0  0  0  0
 18 14  1  0  0  0  0
 19 15  1  0  0  0  0
 20 16  1  0  0  0  0
 21 29  1  0  0  0  0
 22 21  2  0  0  0  0
 22 24  1  0  0  0  0
 23 22  1  0  0  0  0
 24 25  2  0  0  0  0
 25 26  1  0  0  0  0
 25 27  1  0  0  0  0
 27 28  1  0  0  0  0
 29 27  2  0  0  0  0
 30 35  1  0  0  0  0
 30 36  1  0  0  0  0
 31 30  2  0  0  0  0
 32 33  2  0  0  0  0
 32 31  1  0  0  0  0
 33 34  1  0  0  0  0
 34 38  1  0  0  0  0
 34 35  2  0  0  0  0
 37 31  1  0  0  0  0
M  END
>  <minimizedAffinity>
-5.97012281

$$$$

 OpenBabel03262523493D

 38 41  0  0  0  0  0  0  0  0999 V2000
   39.9750   23.1990   32.1510 Cl  0  0  0  0  0  0  0  0  0  0  0  0
   39.0700   24.6950   32.1890 C   0  0  0  0  0  0  0  0  0  0  0  0
   39.6490   25.8570   32.6640 C   0  0  0  0  0  0  0  0  0  0  0  0
   38.8690   26.9820   32.6580 C   0  0  0  0  0  0  0  0  0  0  0  0
   37.5810   27.0140   32.2170 C   0  0  0  0  0  0  0  0  0  0  0  0
   37.0270   25.8130   31.7410 C   0  0  0  0  0  0  0  0  0  0  0  0
   35.3730   25.8810   31.1810 Cl  0  0  0  0  0  0  0  0  0  0  0  0
   37.7680   24.6560   31.7260 C   0  0  0  0  0  0  0  0  0  0  0  0
   39.3620   27.8780   33.0410 H   0  0  0  0  0  0  0  0  0  0  0  0
   37.3300   23.7370   31.3570 H   0  0  0  0  0  0  0  0  0  0  0  0
   36.3750   27.8910   34.8660 Cl  0  0  0  0  0  0  0  0  0  0  0  0
   36.2720   28.8440   33.3750 C   0  0  0  0  0  0  0  0  0  0  0  0
   36.8790   28.2850   32.2730 C   0  0  0  0  0  0  0  0  0  0  0  0
   36.8410   28.9730   31.0630 C   0  0  0  0  0  0  0  0  0  0  0  0
   36.2090   30.2030   30.9520 C   0  0  0  0  0  0  0  0  0  0  0  0
   35.6130   30.7230   32.0890 C   0  0  0  0  0  0  0  0  0  0  0  0
   35.6360   30.0520   33.3150 C   0  0  0  0  0  0  0  0  0  0  0  0
   37.2930   28.5970   30.1630 H   0  0  0  0  0  0  0  0  0  0  0  0
   36.1690   30.7520   30.0220 H   0  0  0  0  0  0  0  0  0  0  0  0
   35.1120   31.6790   32.0360 H   0  0  0  0  0  0  0  0  0  0  0  0
   35.0100   30.6000   34.5110 C   0  0  0  0  0  0  0  0  0  0  0  0
   33.7120   30.3770   34.9190 C   0  0  0  0  0  0  0  0  0  0  0  0
   33.1110   29.7490   34.3030 H   0  0  0  0  0  0  0  0  0  0  0  0
   33.1990   30.9380   36.0700 C   0  0  0  0  0  3  0  0  0  0  0  0
   33.9920   31.7620   36.8730 C   0  0  0  0  0  0  0  0  0  0  0  0
   33.6270   32.2200   37.7820 H   0  0  0  0  0  0  0  0  0  0  0  0
   35.2840   31.9590   36.4320 C   0  0  0  0  0  0  0  0  0  0  0  0
   35.8990   32.6080   37.0700 H   0  0  0  0  0  0  0  0  0  0  0  0
   35.8330   31.4150   35.2840 C   0  0  0  0  0  3  0  0  0  0  0  0
   42.6720   25.4800   34.9040 C   0  0  0  0  0  0  0  0  0  0  0  0
   41.3490   25.5570   34.4720 C   0  0  0  0  0  0  0  0  0  0  0  0
   41.0360   25.7760   33.1270 C   0  0  0  0  0  0  0  0  0  0  0  0
   42.0870   25.9130   32.2600 N   0  0  0  0  0  0  0  0  0  0  0  0
   43.3520   25.8350   32.7130 C   0  0  0  0  0  0  0  0  0  0  0  0
   43.6540   25.6260   33.9930 N   0  0  0  0  0  0  0  0  0  0  0  0
   42.9000   25.3120   35.9400 H   0  0  0  0  0  0  0  0  0  0  0  0
   40.5140   25.4490   35.1480 H   0  0  0  0  0  0  0  0  0  0  0  0
   44.2140   25.9380   32.0630 H   0  0  0  0  0  0  0  0  0  0  0  0
  1  2  1  0  0  0  0
  2  3  1  0  0  0  0
  3 32  1  0  0  0  0
  4  3  2  0  0  0  0
  4  9  1  0  0  0  0
  5 13  1  0  0  0  0
  5  4  1  0  0  0  0
  6  5  2  0  0  0  0
  7  6  1  0  0  0  0
  8  6  1  0  0  0  0
  8  2  2  0  0  0  0
 10  8  1  0  0  0  0
 12 11  1  0  0  0  0
 13 12  2  0  0  0  0
 14 13  1  0  0  0  0
 15 14  2  0  0  0  0
 15 16  1  0  0  0  0
 16 17  2  0  0  0  0
 17 12  1  0  0  0  0
 17 21  1  0  0  0  0
 18 14  1  0  0  0  0
 19 15  1  0  0  0  0
 20 16  1  0  0  0  0
 21 22  2  0  0  0  0
 21 29  1  0  0  0  0
 22 24  1  0  0  0  0
 23 22  1  0  0  0  0
 24 25  2  0  0  0  0
 25 26  1  0  0  0  0
 27 25  1  0  0  0  0
 27 28  1  0  0  0  0
 29 27  2  0  0  0  0
 30 36  1  0  0  0  0
 31 30  1  0  0  0  0
 31 37  1  0  0  0  0
 32 31  2  0  0  0  0
 33 34  2  0  0  0  0
 33 32  1  0  0  0  0
 34 35  1  0  0  0  0
 35 30  2  0  0  0  0
 38 34  1  0  0  0  0
M  END
>  <minimizedAffinity>
-5.94119453

$$$$

 OpenBabel03262523493D

 38 41  0  0  0  0  0  0  0  0999 V2000
   38.3660   27.2940   31.0920 Cl  0  0  0  0  0  0  0  0  0  0  0  0
   37.1720   28.1210   32.0660 C   0  0  0  0  0  0  0  0  0  0  0  0
   37.0490   27.8440   33.4140 C   0  0  0  0  0  0  0  0  0  0  0  0
   36.0880   28.5360   34.1020 C   0  0  0  0  0  0  0  0  0  0  0  0
   35.2660   29.4640   33.5360 C   0  0  0  0  0  0  0  0  0  0  0  0
   35.4220   29.7180   32.1630 C   0  0  0  0  0  0  0  0  0  0  0  0
   34.3560   30.9130   31.4610 Cl  0  0  0  0  0  0  0  0  0  0  0  0
   36.3710   29.0500   31.4280 C   0  0  0  0  0  0  0  0  0  0  0  0
   36.0230   28.2890   35.1640 H   0  0  0  0  0  0  0  0  0  0  0  0
   36.4810   29.2550   30.3710 H   0  0  0  0  0  0  0  0  0  0  0  0
   35.8510   32.2840   34.5080 Cl  0  0  0  0  0  0  0  0  0  0  0  0
   34.3840   31.3830   34.9290 C   0  0  0  0  0  0  0  0  0  0  0  0
   34.2940   30.1170   34.3950 C   0  0  0  0  0  0  0  0  0  0  0  0
   33.1700   29.3450   34.6800 C   0  0  0  0  0  0  0  0  0  0  0  0
   32.1490   29.8280   35.4860 C   0  0  0  0  0  0  0  0  0  0  0  0
   32.2870   31.1070   35.9990 C   0  0  0  0  0  0  0  0  0  0  0  0
   33.4050   31.9010   35.7290 C   0  0  0  0  0  0  0  0  0  0  0  0
   33.0330   28.3500   34.2980 H   0  0  0  0  0  0  0  0  0  0  0  0
   31.2690   29.2440   35.7190 H   0  0  0  0  0  0  0  0  0  0  0  0
   31.5090   31.5120   36.6310 H   0  0  0  0  0  0  0  0  0  0  0  0
   33.5500   33.2470   36.2690 C   0  0  0  0  0  0  0  0  0  0  0  0
   33.2540   34.4200   35.6080 C   0  0  0  0  0  0  0  0  0  0  0  0
   32.8880   34.3360   34.6110 H   0  0  0  0  0  0  0  0  0  0  0  0
   33.4220   35.6550   36.1970 C   0  0  0  0  0  3  0  0  0  0  0  0
   33.9040   35.7590   37.5040 C   0  0  0  0  0  0  0  0  0  0  0  0
   34.0500   36.7080   38.0010 H   0  0  0  0  0  0  0  0  0  0  0  0
   34.1870   34.5640   38.1310 C   0  0  0  0  0  0  0  0  0  0  0  0
   34.5650   34.6560   39.1600 H   0  0  0  0  0  0  0  0  0  0  0  0
   34.0320   33.3060   37.5730 C   0  0  0  0  0  3  0  0  0  0  0  0
   40.0390   26.2320   35.0760 C   0  0  0  0  0  0  0  0  0  0  0  0
   39.1840   27.1930   34.5390 C   0  0  0  0  0  0  0  0  0  0  0  0
   37.9530   26.8400   33.9800 C   0  0  0  0  0  0  0  0  0  0  0  0
   37.6310   25.5090   33.9820 N   0  0  0  0  0  0  0  0  0  0  0  0
   38.4810   24.6080   34.5080 C   0  0  0  0  0  0  0  0  0  0  0  0
   39.6550   24.9410   35.0420 N   0  0  0  0  0  0  0  0  0  0  0  0
   40.9830   26.5170   35.5030 H   0  0  0  0  0  0  0  0  0  0  0  0
   39.4300   28.2450   34.5330 H   0  0  0  0  0  0  0  0  0  0  0  0
   38.2670   23.5450   34.5310 H   0  0  0  0  0  0  0  0  0  0  0  0
  1  2  1  0  0  0  0
  2  3  1  0  0  0  0
  3 32  1  0  0  0  0
  3  4  2  0  0  0  0
  4  9  1  0  0  0  0
  5  4  1  0  0  0  0
  5 13  1  0  0  0  0
  6  5  2  0  0  0  0
  7  6  1  0  0  0  0
  8  2  2  0  0  0  0
  8  6  1  0  0  0  0
 10  8  1  0  0  0  0
 11 12  1  0  0  0  0
 12 17  1  0  0  0  0
 13 14  1  0  0  0  0
 13 12  2  0  0  0  0
 14 15  2  0  0  0  0
 15 19  1  0  0  0  0
 15 16  1  0  0  0  0
 16 20  1  0  0  0  0
 17 16  2  0  0  0  0
 17 21  1  0  0  0  0
 18 14  1  0  0  0  0
 21 29  1  0  0  0  0
 22 24  1  0  0  0  0
 22 21  2  0  0  0  0
 23 22  1  0  0  0  0
 24 25  2  0  0  0  0
 25 26  1  0  0  0  0
 25 27  1  0  0  0  0
 27 28  1  0  0  0  0
 29 27  2  0  0  0  0
 30 36  1  0  0  0  0
 31 30  2  0  0  0  0
 32 33  2  0  0  0  0
 32 31  1  0  0  0  0
 33 34  1  0  0  0  0
 34 38  1  0  0  0  0
 34 35  2  0  0  0  0
 35 30  1  0  0  0  0
 37 31  1  0  0  0  0
M  END
>  <minimizedAffinity>
-5.87768221

$$$$

 OpenBabel03262523493D

 38 41  0  0  0  0  0  0  0  0999 V2000
   39.5090   23.6340   30.3890 Cl  0  0  0  0  0  0  0  0  0  0  0  0
   38.6810   25.1410   30.7080 C   0  0  0  0  0  0  0  0  0  0  0  0
   37.4820   25.1540   31.3970 C   0  0  0  0  0  0  0  0  0  0  0  0
   36.9020   26.3770   31.6020 C   0  0  0  0  0  0  0  0  0  0  0  0
   37.4340   27.5550   31.1720 C   0  0  0  0  0  0  0  0  0  0  0  0
   38.6530   27.5010   30.4760 C   0  0  0  0  0  0  0  0  0  0  0  0
   39.3150   29.0260   29.9350 Cl  0  0  0  0  0  0  0  0  0  0  0  0
   39.2760   26.2990   30.2430 C   0  0  0  0  0  0  0  0  0  0  0  0
   35.9570   26.3450   32.1500 H   0  0  0  0  0  0  0  0  0  0  0  0
   40.2160   26.2700   29.7060 H   0  0  0  0  0  0  0  0  0  0  0  0
   36.6930   28.1440   34.0600 Cl  0  0  0  0  0  0  0  0  0  0  0  0
   36.2810   29.2060   32.7030 C   0  0  0  0  0  0  0  0  0  0  0  0
   36.7010   28.7740   31.4650 C   0  0  0  0  0  0  0  0  0  0  0  0
   36.4150   29.5540   30.3470 C   0  0  0  0  0  0  0  0  0  0  0  0
   35.7210   30.7500   30.4620 C   0  0  0  0  0  0  0  0  0  0  0  0
   35.3210   31.1420   31.7280 C   0  0  0  0  0  0  0  0  0  0  0  0
   35.5950   30.3770   32.8650 C   0  0  0  0  0  0  0  0  0  0  0  0
   36.7100   29.2790   29.3510 H   0  0  0  0  0  0  0  0  0  0  0  0
   35.4890   31.3700   29.6060 H   0  0  0  0  0  0  0  0  0  0  0  0
   34.7780   32.0690   31.8510 H   0  0  0  0  0  0  0  0  0  0  0  0
   35.1740   30.7890   34.1980 C   0  0  0  0  0  0  0  0  0  0  0  0
   35.9390   31.4840   35.1100 C   0  0  0  0  0  0  0  0  0  0  0  0
   36.9300   31.7420   34.8140 H   0  0  0  0  0  0  0  0  0  0  0  0
   35.4590   31.8340   36.3540 C   0  0  0  0  0  3  0  0  0  0  0  0
   34.1590   31.4920   36.7360 C   0  0  0  0  0  0  0  0  0  0  0  0
   33.7460   31.7480   37.7020 H   0  0  0  0  0  0  0  0  0  0  0  0
   33.4260   30.7980   35.7960 C   0  0  0  0  0  0  0  0  0  0  0  0
   32.4050   30.5340   36.1060 H   0  0  0  0  0  0  0  0  0  0  0  0
   33.8730   30.4290   34.5390 C   0  0  0  0  0  3  0  0  0  0  0  0
   35.4090   21.9970   31.5850 C   0  0  0  0  0  0  0  0  0  0  0  0
   35.9120   23.2240   31.1560 C   0  0  0  0  0  0  0  0  0  0  0  0
   36.9480   23.8650   31.8410 C   0  0  0  0  0  0  0  0  0  0  0  0
   37.4420   23.2310   32.9500 N   0  0  0  0  0  0  0  0  0  0  0  0
   36.9320   22.0470   33.3360 C   0  0  0  0  0  0  0  0  0  0  0  0
   35.9450   21.4340   32.6860 N   0  0  0  0  0  0  0  0  0  0  0  0
   34.6130   21.5150   31.0500 H   0  0  0  0  0  0  0  0  0  0  0  0
   35.5290   23.7310   30.2820 H   0  0  0  0  0  0  0  0  0  0  0  0
   37.2920   21.5110   34.2080 H   0  0  0  0  0  0  0  0  0  0  0  0
  1  2  1  0  0  0  0
  2  3  1  0  0  0  0
  3  4  2  0  0  0  0
  3 32  1  0  0  0  0
  4  9  1  0  0  0  0
  5 13  1  0  0  0  0
  5  4  1  0  0  0  0
  6  5  2  0  0  0  0
  7  6  1  0  0  0  0
  8  6  1  0  0  0  0
  8  2  2  0  0  0  0
 10  8  1  0  0  0  0
 12 17  1  0  0  0  0
 12 11  1  0  0  0  0
 13 12  2  0  0  0  0
 14 15  2  0  0  0  0
 14 13  1  0  0  0  0
 15 16  1  0  0  0  0
 16 20  1  0  0  0  0
 16 17  2  0  0  0  0
 17 21  1  0  0  0  0
 18 14  1  0  0  0  0
 19 15  1  0  0  0  0
 21 29  2  0  0  0  0
 21 22  1  0  0  0  0
 22 24  2  0  0  0  0
 23 22  1  0  0  0  0
 24 25  1  0  0  0  0
 25 26  1  0  0  0  0
 27 28  1  0  0  0  0
 27 25  2  0  0  0  0
 29 27  1  0  0  0  0
 30 35  1  0  0  0  0
 31 30  2  0  0  0  0
 31 32  1  0  0  0  0
 32 33  2  0  0  0  0
 33 34  1  0  0  0  0
 34 38  1  0  0  0  0
 35 34  2  0  0  0  0
 36 30  1  0  0  0  0
 37 31  1  0  0  0  0
M  END
>  <minimizedAffinity>
-5.84632826

$$$$

 OpenBabel03262523493D

 38 41  0  0  0  0  0  0  0  0999 V2000
   35.7680   31.3180   31.7990 Cl  0  0  0  0  0  0  0  0  0  0  0  0
   36.3520   29.7020   32.1270 C   0  0  0  0  0  0  0  0  0  0  0  0
   36.0420   29.0680   33.3150 C   0  0  0  0  0  0  0  0  0  0  0  0
   36.5410   27.8060   33.4900 C   0  0  0  0  0  0  0  0  0  0  0  0
   37.3100   27.1560   32.5720 C   0  0  0  0  0  0  0  0  0  0  0  0
   37.6040   27.8330   31.3760 C   0  0  0  0  0  0  0  0  0  0  0  0
   38.5920   26.9790   30.2150 Cl  0  0  0  0  0  0  0  0  0  0  0  0
   37.1280   29.1020   31.1520 C   0  0  0  0  0  0  0  0  0  0  0  0
   36.2740   27.3390   34.4410 H   0  0  0  0  0  0  0  0  0  0  0  0
   37.3610   29.6130   30.2260 H   0  0  0  0  0  0  0  0  0  0  0  0
   39.8220   26.8510   34.2560 Cl  0  0  0  0  0  0  0  0  0  0  0  0
   38.8760   25.4830   33.6460 C   0  0  0  0  0  0  0  0  0  0  0  0
   37.7670   25.8170   32.9000 C   0  0  0  0  0  0  0  0  0  0  0  0
   36.9710   24.7970   32.3840 C   0  0  0  0  0  0  0  0  0  0  0  0
   37.2740   23.4620   32.6100 C   0  0  0  0  0  0  0  0  0  0  0  0
   38.3990   23.1780   33.3660 C   0  0  0  0  0  0  0  0  0  0  0  0
   39.2140   24.1830   33.8940 C   0  0  0  0  0  0  0  0  0  0  0  0
   36.0930   24.9840   31.7930 H   0  0  0  0  0  0  0  0  0  0  0  0
   36.6690   22.6560   32.2180 H   0  0  0  0  0  0  0  0  0  0  0  0
   38.6620   22.1470   33.5590 H   0  0  0  0  0  0  0  0  0  0  0  0
   40.3980   23.8840   34.6910 C   0  0  0  0  0  0  0  0  0  0  0  0
   40.4030   23.4220   35.9900 C   0  0  0  0  0  0  0  0  0  0  0  0
   39.4570   23.2710   36.4550 H   0  0  0  0  0  0  0  0  0  0  0  0
   41.5750   23.1640   36.6700 C   0  0  0  0  0  3  0  0  0  0  0  0
   42.8130   23.3650   36.0550 C   0  0  0  0  0  0  0  0  0  0  0  0
   43.7530   23.1750   36.5540 H   0  0  0  0  0  0  0  0  0  0  0  0
   42.7640   23.8260   34.7560 C   0  0  0  0  0  0  0  0  0  0  0  0
   43.7440   23.9810   34.2800 H   0  0  0  0  0  0  0  0  0  0  0  0
   41.6100   24.0960   34.0410 C   0  0  0  0  0  3  0  0  0  0  0  0
   34.9650   31.4370   36.0590 C   0  0  0  0  0  0  0  0  0  0  0  0
   35.7610   30.7410   35.1520 C   0  0  0  0  0  0  0  0  0  0  0  0
   35.2130   29.8040   34.2720 C   0  0  0  0  0  0  0  0  0  0  0  0
   33.8600   29.6010   34.3470 N   0  0  0  0  0  0  0  0  0  0  0  0
   33.1210   30.2910   35.2370 C   0  0  0  0  0  0  0  0  0  0  0  0
   33.6410   31.1840   36.0760 N   0  0  0  0  0  0  0  0  0  0  0  0
   35.3980   32.1550   36.7300 H   0  0  0  0  0  0  0  0  0  0  0  0
   36.8290   30.8940   35.0850 H   0  0  0  0  0  0  0  0  0  0  0  0
   32.0480   30.1620   35.3310 H   0  0  0  0  0  0  0  0  0  0  0  0
  1  2  1  0  0  0  0
  2  3  1  0  0  0  0
  3  4  2  0  0  0  0
  3 32  1  0  0  0  0
  4  9  1  0  0  0  0
  5 13  1  0  0  0  0
  5  4  1  0  0  0  0
  6  5  2  0  0  0  0
  7  6  1  0  0  0  0
  8  6  1  0  0  0  0
  8  2  2  0  0  0  0
 10  8  1  0  0  0  0
 12 17  1  0  0  0  0
 12 11  1  0  0  0  0
 13 12  2  0  0  0  0
 14 15  2  0  0  0  0
 14 13  1  0  0  0  0
 15 16  1  0  0  0  0
 16 20  1  0  0  0  0
 16 17  2  0  0  0  0
 17 21  1  0  0  0  0
 18 14  1  0  0  0  0
 19 15  1  0  0  0  0
 21 22  1  0  0  0  0
 22 23  1  0  0  0  0
 22 24  2  0  0  0  0
 25 26  1  0  0  0  0
 25 24  1  0  0  0  0
 27 25  2  0  0  0  0
 28 27  1  0  0  0  0
 29 21  2  0  0  0  0
 29 27  1  0  0  0  0
 30 35  1  0  0  0  0
 30 36  1  0  0  0  0
 31 30  2  0  0  0  0
 32 33  2  0  0  0  0
 32 31  1  0  0  0  0
 33 34  1  0  0  0  0
 34 38  1  0  0  0  0
 34 35  2  0  0  0  0
 37 31  1  0  0  0  0
M  END
>  <minimizedAffinity>
-5.82320356

$$$$
