
 OpenBabel03272503543D

 44 47  0  0  1  0  0  0  0  0999 V2000
   40.7520   24.6830   33.9640 C   0  0  1  0  0  0  0  0  0  0  0  0
   42.0860   24.2630   33.2940 C   0  0  0  0  0  0  0  0  0  0  0  0
   43.1610   24.9630   34.1340 C   0  0  0  0  0  0  0  0  0  0  0  0
   43.0640   26.4220   33.8730 C   0  0  0  0  0  0  0  0  0  0  0  0
   41.6900   26.9340   34.2240 C   0  0  0  0  0  0  0  0  0  0  0  0
   40.5950   26.1230   33.5770 C   0  0  2  0  0  0  0  0  0  0  0  0
   40.9750   24.5230   35.0390 H   0  0  0  0  0  0  0  0  0  0  0  0
   42.2400   23.1840   33.3280 H   0  0  0  0  0  0  0  0  0  0  0  0
   42.0840   24.7120   32.3030 H   0  0  0  0  0  0  0  0  0  0  0  0
   43.0390   24.7550   35.2030 H   0  0  0  0  0  0  0  0  0  0  0  0
   44.1260   24.5880   33.7180 H   0  0  0  0  0  0  0  0  0  0  0  0
   43.3520   26.7190   32.8570 H   0  0  0  0  0  0  0  0  0  0  0  0
   43.7790   26.9380   34.5600 H   0  0  0  0  0  0  0  0  0  0  0  0
   41.5930   27.9840   33.8850 H   0  0  0  0  0  0  0  0  0  0  0  0
   41.5370   26.9520   35.3200 H   0  0  0  0  0  0  0  0  0  0  0  0
   40.7090   26.2030   32.4670 H   0  0  0  0  0  0  0  0  0  0  0  0
   38.7250   23.2620   34.3740 C   0  0  0  0  0  0  0  0  0  0  0  0
   37.6660   22.5180   33.8700 C   0  0  0  0  0  0  0  0  0  0  0  0
   37.5270   22.3360   32.4870 C   0  0  0  0  0  0  0  0  0  0  0  0
   38.4690   22.9180   31.6670 C   0  0  0  0  0  0  0  0  0  0  0  0
   39.5170   23.6540   32.1540 C   0  0  0  0  0  0  0  0  0  0  0  0
   39.6400   23.8260   33.5430 C   0  0  0  0  0  0  0  0  0  0  0  0
   36.9220   22.0580   34.5220 H   0  0  0  0  0  0  0  0  0  0  0  0
   36.6860   21.7480   32.1480 H   0  0  0  0  0  0  0  0  0  0  0  0
   38.3160   22.7460   30.5900 H   0  0  0  0  0  0  0  0  0  0  0  0
   40.1730   24.0440   31.3970 H   0  0  0  0  0  0  0  0  0  0  0  0
   38.0050   24.0990   37.9870 C   0  0  0  0  0  0  0  0  0  0  0  0
   37.8600   24.0840   36.5860 C   0  0  0  0  0  0  0  0  0  0  0  0
   38.7730   23.3620   35.8180 C   0  0  0  0  0  0  0  0  0  0  0  0
   39.7470   22.7220   36.4920 N   0  0  0  0  0  0  0  0  0  0  0  0
   39.8820   22.7380   37.8310 C   0  0  0  0  0  0  0  0  0  0  0  0
   39.0150   23.4230   38.5610 N   0  0  0  0  0  0  0  0  0  0  0  0
   37.2440   24.6880   38.4810 H   0  0  0  0  0  0  0  0  0  0  0  0
   37.0650   24.6110   36.0690 H   0  0  0  0  0  0  0  0  0  0  0  0
   40.6770   22.2090   38.3270 H   0  0  0  0  0  0  0  0  0  0  0  0
   39.3120   26.7390   33.9390 C   0  0  0  0  0  0  0  0  0  0  0  0
   38.2980   26.9930   33.0310 C   0  0  0  0  0  0  0  0  0  0  0  0
   38.4900   26.7090   31.9970 H   0  0  0  0  0  0  0  0  0  0  0  0
   37.0820   27.5610   33.2940 C   0  0  0  0  0  3  0  0  0  0  0  0
   36.8280   27.9240   34.5990 C   0  0  0  0  0  0  0  0  0  0  0  0
   35.8840   28.3730   34.8440 H   0  0  0  0  0  0  0  0  0  0  0  0
   37.7850   27.7060   35.5700 C   0  0  0  0  0  0  0  0  0  0  0  0
   37.6260   27.9800   36.6230 H   0  0  0  0  0  0  0  0  0  0  0  0
   38.9860   27.1330   35.2440 C   0  0  0  0  0  3  0  0  0  0  0  0
  1  7  1  1  0  0  0
  2  8  1  0  0  0  0
  2  1  1  0  0  0  0
  2  3  1  0  0  0  0
  3 10  1  0  0  0  0
  4  3  1  0  0  0  0
  4  5  1  0  0  0  0
  4 13  1  0  0  0  0
  5 15  1  0  0  0  0
  6 16  1  6  0  0  0
  6 36  1  0  0  0  0
  6  1  1  0  0  0  0
  6  5  1  0  0  0  0
  9  2  1  0  0  0  0
 11  3  1  0  0  0  0
 12  4  1  0  0  0  0
 14  5  1  0  0  0  0
 17 29  1  0  0  0  0
 18 17  1  0  0  0  0
 18 23  1  0  0  0  0
 19 18  2  0  0  0  0
 20 21  2  0  0  0  0
 20 19  1  0  0  0  0
 21 22  1  0  0  0  0
 22  1  1  0  0  0  0
 22 17  2  0  0  0  0
 24 19  1  0  0  0  0
 25 20  1  0  0  0  0
 26 21  1  0  0  0  0
 27 33  1  0  0  0  0
 27 32  1  0  0  0  0
 28 27  2  0  0  0  0
 29 30  2  0  0  0  0
 29 28  1  0  0  0  0
 30 31  1  0  0  0  0
 31 35  1  0  0  0  0
 31 32  2  0  0  0  0
 34 28  1  0  0  0  0
 36 44  1  0  0  0  0
 37 39  1  0  0  0  0
 37 36  2  0  0  0  0
 38 37  1  0  0  0  0
 39 40  2  0  0  0  0
 40 41  1  0  0  0  0
 40 42  1  0  0  0  0
 42 43  1  0  0  0  0
 44 42  2  0  0  0  0
M  END
>  <minimizedAffinity>
-5.8216114

$$$$

 OpenBabel03272503543D

 44 47  0  0  1  0  0  0  0  0999 V2000
   38.8520   23.7750   33.5210 C   0  0  1  0  0  0  0  0  0  0  0  0
   38.9730   23.1110   32.1250 C   0  0  0  0  0  0  0  0  0  0  0  0
   37.5600   22.5880   31.8380 C   0  0  0  0  0  0  0  0  0  0  0  0
   37.2990   21.4540   32.7620 C   0  0  0  0  0  0  0  0  0  0  0  0
   37.4260   21.8980   34.1970 C   0  0  0  0  0  0  0  0  0  0  0  0
   38.7280   22.6130   34.4610 C   0  0  2  0  0  0  0  0  0  0  0  0
   37.9240   24.3730   33.4110 H   0  0  0  0  0  0  0  0  0  0  0  0
   39.2620   23.8260   31.3540 H   0  0  0  0  0  0  0  0  0  0  0  0
   39.6330   22.2540   32.2510 H   0  0  0  0  0  0  0  0  0  0  0  0
   36.8050   23.3700   31.9670 H   0  0  0  0  0  0  0  0  0  0  0  0
   37.6160   22.1950   30.7950 H   0  0  0  0  0  0  0  0  0  0  0  0
   37.9070   20.5620   32.5650 H   0  0  0  0  0  0  0  0  0  0  0  0
   36.2360   21.1400   32.6210 H   0  0  0  0  0  0  0  0  0  0  0  0
   37.3750   21.0120   34.8600 H   0  0  0  0  0  0  0  0  0  0  0  0
   36.5810   22.5490   34.4910 H   0  0  0  0  0  0  0  0  0  0  0  0
   39.5670   21.9030   34.2540 H   0  0  0  0  0  0  0  0  0  0  0  0
   39.9140   25.9930   34.0220 C   0  0  0  0  0  0  0  0  0  0  0  0
   41.0460   26.7290   34.3500 C   0  0  0  0  0  0  0  0  0  0  0  0
   42.2920   26.0950   34.4580 C   0  0  0  0  0  0  0  0  0  0  0  0
   42.3420   24.7370   34.2320 C   0  0  0  0  0  0  0  0  0  0  0  0
   41.2310   24.0020   33.9080 C   0  0  0  0  0  0  0  0  0  0  0  0
   39.9910   24.6540   33.8040 C   0  0  0  0  0  0  0  0  0  0  0  0
   41.0030   27.8040   34.5280 H   0  0  0  0  0  0  0  0  0  0  0  0
   43.1400   26.7130   34.7150 H   0  0  0  0  0  0  0  0  0  0  0  0
   43.3420   24.2870   34.3290 H   0  0  0  0  0  0  0  0  0  0  0  0
   41.4220   22.9550   33.7580 H   0  0  0  0  0  0  0  0  0  0  0  0
   36.7430   27.8990   34.7830 C   0  0  0  0  0  0  0  0  0  0  0  0
   37.9100   27.1430   35.0090 C   0  0  0  0  0  0  0  0  0  0  0  0
   38.6910   26.7610   33.9190 C   0  0  0  0  0  0  0  0  0  0  0  0
   38.2570   27.1520   32.7060 N   0  0  0  0  0  0  0  0  0  0  0  0
   37.1410   27.8740   32.4950 C   0  0  0  0  0  0  0  0  0  0  0  0
   36.4000   28.2380   33.5290 N   0  0  0  0  0  0  0  0  0  0  0  0
   36.2160   28.1390   35.6970 H   0  0  0  0  0  0  0  0  0  0  0  0
   38.2350   26.8400   35.9990 H   0  0  0  0  0  0  0  0  0  0  0  0
   36.8340   28.1660   31.5050 H   0  0  0  0  0  0  0  0  0  0  0  0
   38.7700   22.9490   35.8900 C   0  0  0  0  0  0  0  0  0  0  0  0
   37.8140   23.7240   36.5250 C   0  0  0  0  0  0  0  0  0  0  0  0
   36.9970   24.0920   35.9060 H   0  0  0  0  0  0  0  0  0  0  0  0
   37.7870   24.0770   37.8460 C   0  0  0  0  0  3  0  0  0  0  0  0
   38.8160   23.6170   38.6400 C   0  0  0  0  0  0  0  0  0  0  0  0
   38.8290   23.8740   39.6820 H   0  0  0  0  0  0  0  0  0  0  0  0
   39.8120   22.8370   38.0870 C   0  0  0  0  0  0  0  0  0  0  0  0
   40.6520   22.4490   38.6820 H   0  0  0  0  0  0  0  0  0  0  0  0
   39.7840   22.5170   36.7550 C   0  0  0  0  0  3  0  0  0  0  0  0
  1  7  1  1  0  0  0
  1 22  1  0  0  0  0
  1  6  1  0  0  0  0
  2  9  1  0  0  0  0
  2  1  1  0  0  0  0
  3 10  1  0  0  0  0
  3  2  1  0  0  0  0
  3  4  1  0  0  0  0
  4  5  1  0  0  0  0
  5  6  1  0  0  0  0
  5 15  1  0  0  0  0
  5 14  1  0  0  0  0
  6 16  1  6  0  0  0
  6 36  1  0  0  0  0
  8  2  1  0  0  0  0
 11  3  1  0  0  0  0
 12  4  1  0  0  0  0
 13  4  1  0  0  0  0
 17 18  1  0  0  0  0
 18 19  2  0  0  0  0
 18 23  1  0  0  0  0
 19 24  1  0  0  0  0
 20 25  1  0  0  0  0
 20 19  1  0  0  0  0
 21 20  2  0  0  0  0
 22 21  1  0  0  0  0
 22 17  2  0  0  0  0
 26 21  1  0  0  0  0
 27 28  1  0  0  0  0
 27 33  1  0  0  0  0
 28 34  1  0  0  0  0
 29 17  1  0  0  0  0
 29 28  2  0  0  0  0
 30 29  1  0  0  0  0
 31 30  2  0  0  0  0
 31 32  1  0  0  0  0
 32 27  2  0  0  0  0
 35 31  1  0  0  0  0
 36 37  2  0  0  0  0
 36 44  1  0  0  0  0
 37 39  1  0  0  0  0
 38 37  1  0  0  0  0
 39 40  2  0  0  0  0
 40 41  1  0  0  0  0
 42 40  1  0  0  0  0
 42 43  1  0  0  0  0
 44 42  2  0  0  0  0
M  END
>  <minimizedAffinity>
-5.79413843

$$$$

 OpenBabel03272503543D

 44 47  0  0  1  0  0  0  0  0999 V2000
   37.3340   23.8460   32.0890 C   0  0  1  0  0  0  0  0  0  0  0  0
   37.5360   25.1750   31.3160 C   0  0  0  0  0  0  0  0  0  0  0  0
   36.2430   25.9570   31.5780 C   0  0  0  0  0  0  0  0  0  0  0  0
   35.1430   25.2730   30.8490 C   0  0  0  0  0  0  0  0  0  0  0  0
   35.0090   23.8440   31.3100 C   0  0  0  0  0  0  0  0  0  0  0  0
   36.3230   23.1040   31.2670 C   0  0  2  0  0  0  0  0  0  0  0  0
   36.9520   24.2050   33.0660 H   0  0  0  0  0  0  0  0  0  0  0  0
   38.3880   25.7430   31.6910 H   0  0  0  0  0  0  0  0  0  0  0  0
   37.5660   24.9130   30.2600 H   0  0  0  0  0  0  0  0  0  0  0  0
   36.0150   26.0180   32.6470 H   0  0  0  0  0  0  0  0  0  0  0  0
   36.4200   26.9530   31.1060 H   0  0  0  0  0  0  0  0  0  0  0  0
   35.2190   25.3340   29.7560 H   0  0  0  0  0  0  0  0  0  0  0  0
   34.1870   25.7840   31.1210 H   0  0  0  0  0  0  0  0  0  0  0  0
   34.2890   23.3140   30.6550 H   0  0  0  0  0  0  0  0  0  0  0  0
   34.5880   23.7910   32.3320 H   0  0  0  0  0  0  0  0  0  0  0  0
   36.6790   23.0820   30.2070 H   0  0  0  0  0  0  0  0  0  0  0  0
   39.1450   22.7910   33.4690 C   0  0  0  0  0  0  0  0  0  0  0  0
   40.3180   22.0490   33.5360 C   0  0  0  0  0  0  0  0  0  0  0  0
   40.9590   21.6370   32.3600 C   0  0  0  0  0  0  0  0  0  0  0  0
   40.3850   21.9930   31.1590 C   0  0  0  0  0  0  0  0  0  0  0  0
   39.2290   22.7240   31.0820 C   0  0  0  0  0  0  0  0  0  0  0  0
   38.5990   23.1280   32.2710 C   0  0  0  0  0  0  0  0  0  0  0  0
   40.7700   21.7690   34.4880 H   0  0  0  0  0  0  0  0  0  0  0  0
   41.8680   21.0630   32.4670 H   0  0  0  0  0  0  0  0  0  0  0  0
   40.9270   21.6460   30.2650 H   0  0  0  0  0  0  0  0  0  0  0  0
   38.9000   22.9280   30.0790 H   0  0  0  0  0  0  0  0  0  0  0  0
   37.3960   22.8000   36.8170 C   0  0  0  0  0  0  0  0  0  0  0  0
   37.8830   22.3120   35.5900 C   0  0  0  0  0  0  0  0  0  0  0  0
   38.5870   23.1740   34.7490 C   0  0  0  0  0  0  0  0  0  0  0  0
   38.7480   24.4370   35.1870 N   0  0  0  0  0  0  0  0  0  0  0  0
   38.2810   24.9000   36.3620 C   0  0  0  0  0  0  0  0  0  0  0  0
   37.6130   24.0810   37.1610 N   0  0  0  0  0  0  0  0  0  0  0  0
   36.8670   22.0480   37.3870 H   0  0  0  0  0  0  0  0  0  0  0  0
   37.7380   21.2890   35.2610 H   0  0  0  0  0  0  0  0  0  0  0  0
   38.4340   25.9190   36.6720 H   0  0  0  0  0  0  0  0  0  0  0  0
   36.0670   21.7180   31.6800 C   0  0  0  0  0  0  0  0  0  0  0  0
   36.2540   20.6240   30.8540 C   0  0  0  0  0  0  0  0  0  0  0  0
   36.6130   20.8310   29.8460 H   0  0  0  0  0  0  0  0  0  0  0  0
   36.0370   19.3090   31.1670 C   0  0  0  0  0  3  0  0  0  0  0  0
   35.5830   19.0350   32.4390 C   0  0  0  0  0  0  0  0  0  0  0  0
   35.4010   18.0160   32.7230 H   0  0  0  0  0  0  0  0  0  0  0  0
   35.3690   20.0690   33.3290 C   0  0  0  0  0  0  0  0  0  0  0  0
   35.0080   19.8960   34.3530 H   0  0  0  0  0  0  0  0  0  0  0  0
   35.6040   21.3660   32.9550 C   0  0  0  0  0  3  0  0  0  0  0  0
  1 22  1  0  0  0  0
  1  7  1  1  0  0  0
  2  3  1  0  0  0  0
  2  8  1  0  0  0  0
  2  1  1  0  0  0  0
  3 10  1  0  0  0  0
  4 13  1  0  0  0  0
  4  5  1  0  0  0  0
  4  3  1  0  0  0  0
  5 15  1  0  0  0  0
  6 16  1  6  0  0  0
  6  5  1  0  0  0  0
  6 36  1  0  0  0  0
  6  1  1  0  0  0  0
  9  2  1  0  0  0  0
 11  3  1  0  0  0  0
 12  4  1  0  0  0  0
 14  5  1  0  0  0  0
 17 18  1  0  0  0  0
 17 29  1  0  0  0  0
 18 23  1  0  0  0  0
 19 24  1  0  0  0  0
 19 18  2  0  0  0  0
 20 19  1  0  0  0  0
 21 20  2  0  0  0  0
 21 22  1  0  0  0  0
 22 17  2  0  0  0  0
 25 20  1  0  0  0  0
 26 21  1  0  0  0  0
 27 32  1  0  0  0  0
 27 33  1  0  0  0  0
 28 27  2  0  0  0  0
 29 30  2  0  0  0  0
 29 28  1  0  0  0  0
 30 31  1  0  0  0  0
 31 35  1  0  0  0  0
 31 32  2  0  0  0  0
 34 28  1  0  0  0  0
 36 44  1  0  0  0  0
 37 39  1  0  0  0  0
 37 36  2  0  0  0  0
 38 37  1  0  0  0  0
 39 40  2  0  0  0  0
 40 41  1  0  0  0  0
 40 42  1  0  0  0  0
 42 43  1  0  0  0  0
 44 42  2  0  0  0  0
M  END
>  <minimizedAffinity>
-5.64352036

$$$$

 OpenBabel03272503543D

 44 47  0  0  1  0  0  0  0  0999 V2000
   38.0660   26.4180   33.1960 C   0  0  1  0  0  0  0  0  0  0  0  0
   38.1230   25.9280   34.6670 C   0  0  0  0  0  0  0  0  0  0  0  0
   38.9320   27.0120   35.3880 C   0  0  0  0  0  0  0  0  0  0  0  0
   40.3380   26.9190   34.9160 C   0  0  0  0  0  0  0  0  0  0  0  0
   40.4100   27.1010   33.4210 C   0  0  0  0  0  0  0  0  0  0  0  0
   39.4580   26.1890   32.6890 C   0  0  2  0  0  0  0  0  0  0  0  0
   37.7960   27.4860   33.3200 H   0  0  0  0  0  0  0  0  0  0  0  0
   37.1310   25.8550   35.1130 H   0  0  0  0  0  0  0  0  0  0  0  0
   38.7110   25.0130   34.6610 H   0  0  0  0  0  0  0  0  0  0  0  0
   38.5290   28.0120   35.1980 H   0  0  0  0  0  0  0  0  0  0  0  0
   38.8950   26.7170   36.4640 H   0  0  0  0  0  0  0  0  0  0  0  0
   40.8610   26.0080   35.2320 H   0  0  0  0  0  0  0  0  0  0  0  0
   40.9040   27.7720   35.3660 H   0  0  0  0  0  0  0  0  0  0  0  0
   41.4390   26.8820   33.0750 H   0  0  0  0  0  0  0  0  0  0  0  0
   40.2090   28.1510   33.1350 H   0  0  0  0  0  0  0  0  0  0  0  0
   39.7440   25.1310   32.9110 H   0  0  0  0  0  0  0  0  0  0  0  0
   36.1070   26.3140   31.6310 C   0  0  0  0  0  0  0  0  0  0  0  0
   35.2050   25.5570   30.8930 C   0  0  0  0  0  0  0  0  0  0  0  0
   35.2320   24.1580   30.9680 C   0  0  0  0  0  0  0  0  0  0  0  0
   36.1760   23.5790   31.7890 C   0  0  0  0  0  0  0  0  0  0  0  0
   37.0700   24.3160   32.5190 C   0  0  0  0  0  0  0  0  0  0  0  0
   37.0280   25.7180   32.4320 C   0  0  0  0  0  0  0  0  0  0  0  0
   34.4590   26.0180   30.2450 H   0  0  0  0  0  0  0  0  0  0  0  0
   34.5100   23.6160   30.3760 H   0  0  0  0  0  0  0  0  0  0  0  0
   36.1570   22.4780   31.8130 H   0  0  0  0  0  0  0  0  0  0  0  0
   37.7460   23.7290   33.1150 H   0  0  0  0  0  0  0  0  0  0  0  0
   36.3520   29.8890   30.4360 C   0  0  0  0  0  0  0  0  0  0  0  0
   36.5710   28.4990   30.4780 C   0  0  0  0  0  0  0  0  0  0  0  0
   35.9670   27.7480   31.4870 C   0  0  0  0  0  0  0  0  0  0  0  0
   35.2040   28.4280   32.3630 N   0  0  0  0  0  0  0  0  0  0  0  0
   34.9980   29.7580   32.3190 C   0  0  0  0  0  0  0  0  0  0  0  0
   35.5700   30.4710   31.3620 N   0  0  0  0  0  0  0  0  0  0  0  0
   36.8680   30.3700   29.6150 H   0  0  0  0  0  0  0  0  0  0  0  0
   37.1920   27.9770   29.7590 H   0  0  0  0  0  0  0  0  0  0  0  0
   34.3780   30.2590   33.0430 H   0  0  0  0  0  0  0  0  0  0  0  0
   39.6500   26.4090   31.2490 C   0  0  0  0  0  0  0  0  0  0  0  0
   39.9030   27.6490   30.6890 C   0  0  0  0  0  0  0  0  0  0  0  0
   39.9580   28.4920   31.3780 H   0  0  0  0  0  0  0  0  0  0  0  0
   40.0910   27.9300   29.3630 C   0  0  0  0  0  3  0  0  0  0  0  0
   40.0240   26.8730   28.4820 C   0  0  0  0  0  0  0  0  0  0  0  0
   40.1670   27.0530   27.4340 H   0  0  0  0  0  0  0  0  0  0  0  0
   39.7760   25.5990   28.9560 C   0  0  0  0  0  0  0  0  0  0  0  0
   39.7130   24.7270   28.2900 H   0  0  0  0  0  0  0  0  0  0  0  0
   39.5950   25.3820   30.2970 C   0  0  0  0  0  3  0  0  0  0  0  0
  1  7  1  6  0  0  0
  1  2  1  0  0  0  0
  2  8  1  0  0  0  0
  2  3  1  0  0  0  0
  3 11  1  0  0  0  0
  4 12  1  0  0  0  0
  4 13  1  0  0  0  0
  4  3  1  0  0  0  0
  5  4  1  0  0  0  0
  6 16  1  1  0  0  0
  6  1  1  0  0  0  0
  6  5  1  0  0  0  0
  9  2  1  0  0  0  0
 10  3  1  0  0  0  0
 14  5  1  0  0  0  0
 15  5  1  0  0  0  0
 17 22  1  0  0  0  0
 18 19  1  0  0  0  0
 18 17  2  0  0  0  0
 19 20  2  0  0  0  0
 20 25  1  0  0  0  0
 20 21  1  0  0  0  0
 21 26  1  0  0  0  0
 22 21  2  0  0  0  0
 22  1  1  0  0  0  0
 23 18  1  0  0  0  0
 24 19  1  0  0  0  0
 27 28  2  0  0  0  0
 27 32  1  0  0  0  0
 28 29  1  0  0  0  0
 29 17  1  0  0  0  0
 29 30  2  0  0  0  0
 31 30  1  0  0  0  0
 31 35  1  0  0  0  0
 32 31  2  0  0  0  0
 33 27  1  0  0  0  0
 34 28  1  0  0  0  0
 36  6  1  0  0  0  0
 37 36  1  0  0  0  0
 37 38  1  0  0  0  0
 39 37  2  0  0  0  0
 40 42  2  0  0  0  0
 40 39  1  0  0  0  0
 41 40  1  0  0  0  0
 42 44  1  0  0  0  0
 43 42  1  0  0  0  0
 44 36  2  0  0  0  0
M  END
>  <minimizedAffinity>
-5.61740351

$$$$

 OpenBabel03272503543D

 44 47  0  0  1  0  0  0  0  0999 V2000
   33.0750   31.4270   35.7130 C   0  0  1  0  0  0  0  0  0  0  0  0
   32.7640   31.8500   37.1720 C   0  0  0  0  0  0  0  0  0  0  0  0
   33.3660   33.2560   37.2870 C   0  0  0  0  0  0  0  0  0  0  0  0
   34.8450   33.1210   37.2510 C   0  0  0  0  0  0  0  0  0  0  0  0
   35.2870   32.4510   35.9750 C   0  0  0  0  0  0  0  0  0  0  0  0
   34.5510   31.1590   35.7240 C   0  0  2  0  0  0  0  0  0  0  0  0
   32.7800   32.3320   35.1430 H   0  0  0  0  0  0  0  0  0  0  0  0
   31.6920   31.8940   37.3670 H   0  0  0  0  0  0  0  0  0  0  0  0
   33.3380   31.1830   37.8120 H   0  0  0  0  0  0  0  0  0  0  0  0
   33.0210   33.9120   36.4800 H   0  0  0  0  0  0  0  0  0  0  0  0
   33.0620   33.6060   38.3020 H   0  0  0  0  0  0  0  0  0  0  0  0
   35.2750   32.6270   38.1310 H   0  0  0  0  0  0  0  0  0  0  0  0
   35.2790   34.1520   37.2340 H   0  0  0  0  0  0  0  0  0  0  0  0
   36.3710   32.2280   36.0350 H   0  0  0  0  0  0  0  0  0  0  0  0
   35.1620   33.1230   35.1050 H   0  0  0  0  0  0  0  0  0  0  0  0
   34.7740   30.4580   36.5660 H   0  0  0  0  0  0  0  0  0  0  0  0
   31.6960   30.1210   34.0720 C   0  0  0  0  0  0  0  0  0  0  0  0
   30.9980   28.9630   33.7520 C   0  0  0  0  0  0  0  0  0  0  0  0
   30.8660   27.9360   34.6970 C   0  0  0  0  0  0  0  0  0  0  0  0
   31.4500   28.1220   35.9310 C   0  0  0  0  0  0  0  0  0  0  0  0
   32.1410   29.2600   36.2560 C   0  0  0  0  0  0  0  0  0  0  0  0
   32.2630   30.2790   35.2970 C   0  0  0  0  0  0  0  0  0  0  0  0
   30.5370   28.8190   32.7750 H   0  0  0  0  0  0  0  0  0  0  0  0
   30.3140   27.0570   34.3980 H   0  0  0  0  0  0  0  0  0  0  0  0
   31.3190   27.2870   36.6370 H   0  0  0  0  0  0  0  0  0  0  0  0
   32.5390   29.2660   37.2550 H   0  0  0  0  0  0  0  0  0  0  0  0
   31.3400   33.2900   32.0480 C   0  0  0  0  0  0  0  0  0  0  0  0
   31.2220   32.4050   33.1370 C   0  0  0  0  0  0  0  0  0  0  0  0
   31.7450   31.1170   33.0230 C   0  0  0  0  0  0  0  0  0  0  0  0
   32.3350   30.8130   31.8510 N   0  0  0  0  0  0  0  0  0  0  0  0
   32.4460   31.6620   30.8130 C   0  0  0  0  0  0  0  0  0  0  0  0
   31.9500   32.8850   30.9210 N   0  0  0  0  0  0  0  0  0  0  0  0
   30.9000   34.2590   32.2450 H   0  0  0  0  0  0  0  0  0  0  0  0
   30.7400   32.6770   34.0690 H   0  0  0  0  0  0  0  0  0  0  0  0
   32.9270   31.3750   29.8940 H   0  0  0  0  0  0  0  0  0  0  0  0
   35.0950   30.5680   34.4950 C   0  0  0  0  0  0  0  0  0  0  0  0
   35.4330   31.3050   33.3730 C   0  0  0  0  0  0  0  0  0  0  0  0
   35.2760   32.3820   33.4330 H   0  0  0  0  0  0  0  0  0  0  0  0
   35.9420   30.8260   32.1970 C   0  0  0  0  0  3  0  0  0  0  0  0
   36.1450   29.4660   32.1090 C   0  0  0  0  0  0  0  0  0  0  0  0
   36.5430   29.0530   31.2020 H   0  0  0  0  0  0  0  0  0  0  0  0
   35.8350   28.6550   33.1830 C   0  0  0  0  0  0  0  0  0  0  0  0
   35.9800   27.5660   33.1570 H   0  0  0  0  0  0  0  0  0  0  0  0
   35.3260   29.1950   34.3350 C   0  0  0  0  0  3  0  0  0  0  0  0
  1  7  1  6  0  0  0
  1  6  1  0  0  0  0
  1  2  1  0  0  0  0
  2  3  1  0  0  0  0
  2  8  1  0  0  0  0
  2  9  1  0  0  0  0
  3 11  1  0  0  0  0
  4  3  1  0  0  0  0
  4 12  1  0  0  0  0
  5 14  1  0  0  0  0
  5  4  1  0  0  0  0
  6  5  1  0  0  0  0
  6 16  1  1  0  0  0
 10  3  1  0  0  0  0
 13  4  1  0  0  0  0
 15  5  1  0  0  0  0
 17 22  1  0  0  0  0
 18 17  2  0  0  0  0
 18 19  1  0  0  0  0
 19 20  2  0  0  0  0
 20 21  1  0  0  0  0
 20 25  1  0  0  0  0
 21 26  1  0  0  0  0
 22  1  1  0  0  0  0
 22 21  2  0  0  0  0
 23 18  1  0  0  0  0
 24 19  1  0  0  0  0
 27 33  1  0  0  0  0
 27 28  1  0  0  0  0
 28 34  1  0  0  0  0
 29 28  2  0  0  0  0
 29 17  1  0  0  0  0
 30 29  1  0  0  0  0
 31 32  1  0  0  0  0
 31 30  2  0  0  0  0
 32 27  2  0  0  0  0
 35 31  1  0  0  0  0
 36  6  1  0  0  0  0
 37 38  1  0  0  0  0
 37 36  2  0  0  0  0
 39 37  1  0  0  0  0
 40 39  2  0  0  0  0
 40 42  1  0  0  0  0
 41 40  1  0  0  0  0
 42 44  2  0  0  0  0
 43 42  1  0  0  0  0
 44 36  1  0  0  0  0
M  END
>  <minimizedAffinity>
-5.40820503

$$$$

 OpenBabel03272503543D

 44 47  0  0  1  0  0  0  0  0999 V2000
   37.4450   24.3490   31.8140 C   0  0  1  0  0  0  0  0  0  0  0  0
   37.5510   25.7370   31.1290 C   0  0  0  0  0  0  0  0  0  0  0  0
   36.2580   26.4520   31.5370 C   0  0  0  0  0  0  0  0  0  0  0  0
   35.1300   25.7840   30.8390 C   0  0  0  0  0  0  0  0  0  0  0  0
   35.0710   24.3220   31.2010 C   0  0  0  0  0  0  0  0  0  0  0  0
   36.4000   23.6340   31.0120 C   0  0  2  0  0  0  0  0  0  0  0  0
   37.1240   24.6240   32.8400 H   0  0  0  0  0  0  0  0  0  0  0  0
   38.4110   26.3050   31.4850 H   0  0  0  0  0  0  0  0  0  0  0  0
   37.5130   25.5520   30.0580 H   0  0  0  0  0  0  0  0  0  0  0  0
   36.1070   26.4290   32.6210 H   0  0  0  0  0  0  0  0  0  0  0  0
   36.3720   27.4850   31.1290 H   0  0  0  0  0  0  0  0  0  0  0  0
   35.1250   25.9260   29.7510 H   0  0  0  0  0  0  0  0  0  0  0  0
   34.1810   26.2410   31.2140 H   0  0  0  0  0  0  0  0  0  0  0  0
   34.3220   23.8160   30.5610 H   0  0  0  0  0  0  0  0  0  0  0  0
   34.7270   24.1810   32.2440 H   0  0  0  0  0  0  0  0  0  0  0  0
   36.6790   23.7000   29.9320 H   0  0  0  0  0  0  0  0  0  0  0  0
   39.2640   23.0360   32.9400 C   0  0  0  0  0  0  0  0  0  0  0  0
   40.4730   22.3560   32.8590 C   0  0  0  0  0  0  0  0  0  0  0  0
   41.1750   22.3100   31.6470 C   0  0  0  0  0  0  0  0  0  0  0  0
   40.6230   22.9560   30.5620 C   0  0  0  0  0  0  0  0  0  0  0  0
   39.4320   23.6290   30.6320 C   0  0  0  0  0  0  0  0  0  0  0  0
   38.7410   23.6640   31.8550 C   0  0  0  0  0  0  0  0  0  0  0  0
   40.9070   21.8470   33.7190 H   0  0  0  0  0  0  0  0  0  0  0  0
   42.1100   21.7690   31.6370 H   0  0  0  0  0  0  0  0  0  0  0  0
   41.2130   22.8900   29.6340 H   0  0  0  0  0  0  0  0  0  0  0  0
   39.1270   24.0850   29.7070 H   0  0  0  0  0  0  0  0  0  0  0  0
   37.3310   22.0860   36.0430 C   0  0  0  0  0  0  0  0  0  0  0  0
   37.8760   21.9790   34.7500 C   0  0  0  0  0  0  0  0  0  0  0  0
   38.6430   23.0310   34.2490 C   0  0  0  0  0  0  0  0  0  0  0  0
   38.8050   24.0920   35.0600 N   0  0  0  0  0  0  0  0  0  0  0  0
   38.2820   24.1910   36.2970 C   0  0  0  0  0  0  0  0  0  0  0  0
   37.5540   23.1920   36.7730 N   0  0  0  0  0  0  0  0  0  0  0  0
   36.7550   21.2150   36.3290 H   0  0  0  0  0  0  0  0  0  0  0  0
   37.7280   21.1110   34.1160 H   0  0  0  0  0  0  0  0  0  0  0  0
   38.4380   25.0600   36.9110 H   0  0  0  0  0  0  0  0  0  0  0  0
   36.2150   22.2130   31.3390 C   0  0  0  0  0  0  0  0  0  0  0  0
   35.3180   21.7540   32.2880 C   0  0  0  0  0  0  0  0  0  0  0  0
   34.7280   22.5100   32.8050 H   0  0  0  0  0  0  0  0  0  0  0  0
   35.0920   20.4530   32.6450 C   0  0  0  0  0  3  0  0  0  0  0  0
   35.8320   19.4880   31.9970 C   0  0  0  0  0  0  0  0  0  0  0  0
   35.6840   18.4550   32.2500 H   0  0  0  0  0  0  0  0  0  0  0  0
   36.7520   19.8580   31.0350 C   0  0  0  0  0  0  0  0  0  0  0  0
   37.3640   19.1230   30.4940 H   0  0  0  0  0  0  0  0  0  0  0  0
   36.9330   21.1800   30.7220 C   0  0  0  0  0  3  0  0  0  0  0  0
  1 22  1  0  0  0  0
  1  7  1  1  0  0  0
  2  8  1  0  0  0  0
  2  3  1  0  0  0  0
  2  1  1  0  0  0  0
  3 10  1  0  0  0  0
  4  5  1  0  0  0  0
  4 13  1  0  0  0  0
  4  3  1  0  0  0  0
  5 15  1  0  0  0  0
  6 16  1  6  0  0  0
  6  5  1  0  0  0  0
  6 36  1  0  0  0  0
  6  1  1  0  0  0  0
  9  2  1  0  0  0  0
 11  3  1  0  0  0  0
 12  4  1  0  0  0  0
 14  5  1  0  0  0  0
 17 29  1  0  0  0  0
 18 17  1  0  0  0  0
 18 23  1  0  0  0  0
 19 18  2  0  0  0  0
 20 21  2  0  0  0  0
 20 19  1  0  0  0  0
 21 22  1  0  0  0  0
 22 17  2  0  0  0  0
 24 19  1  0  0  0  0
 25 20  1  0  0  0  0
 26 21  1  0  0  0  0
 27 33  1  0  0  0  0
 27 32  1  0  0  0  0
 28 27  2  0  0  0  0
 29 28  1  0  0  0  0
 29 30  2  0  0  0  0
 30 31  1  0  0  0  0
 31 32  2  0  0  0  0
 31 35  1  0  0  0  0
 34 28  1  0  0  0  0
 36 37  1  0  0  0  0
 37 39  2  0  0  0  0
 37 38  1  0  0  0  0
 40 41  1  0  0  0  0
 40 39  1  0  0  0  0
 42 40  2  0  0  0  0
 43 42  1  0  0  0  0
 44 42  1  0  0  0  0
 44 36  2  0  0  0  0
M  END
>  <minimizedAffinity>
-5.31303549

$$$$

 OpenBabel03272503543D

 44 47  0  0  1  0  0  0  0  0999 V2000
   37.5950   25.2990   32.0030 C   0  0  1  0  0  0  0  0  0  0  0  0
   37.3000   23.8260   32.3880 C   0  0  0  0  0  0  0  0  0  0  0  0
   36.5970   23.2520   31.1510 C   0  0  0  0  0  0  0  0  0  0  0  0
   35.2550   23.8830   31.0590 C   0  0  0  0  0  0  0  0  0  0  0  0
   35.3780   25.3820   30.9590 C   0  0  0  0  0  0  0  0  0  0  0  0
   36.2480   25.9570   32.0480 C   0  0  2  0  0  0  0  0  0  0  0  0
   38.0140   25.1900   30.9820 H   0  0  0  0  0  0  0  0  0  0  0  0
   38.2130   23.2630   32.5840 H   0  0  0  0  0  0  0  0  0  0  0  0
   36.5780   23.8620   33.2020 H   0  0  0  0  0  0  0  0  0  0  0  0
   37.1720   23.4360   30.2370 H   0  0  0  0  0  0  0  0  0  0  0  0
   36.4690   22.1680   31.3830 H   0  0  0  0  0  0  0  0  0  0  0  0
   34.5630   23.5910   31.8590 H   0  0  0  0  0  0  0  0  0  0  0  0
   34.7850   23.5400   30.1040 H   0  0  0  0  0  0  0  0  0  0  0  0
   34.3710   25.8380   31.0400 H   0  0  0  0  0  0  0  0  0  0  0  0
   35.7720   25.6870   29.9710 H   0  0  0  0  0  0  0  0  0  0  0  0
   35.7760   25.7240   33.0350 H   0  0  0  0  0  0  0  0  0  0  0  0
   39.6970   26.5780   32.4980 C   0  0  0  0  0  0  0  0  0  0  0  0
   40.5430   27.1750   33.4240 C   0  0  0  0  0  0  0  0  0  0  0  0
   40.2600   27.0880   34.7940 C   0  0  0  0  0  0  0  0  0  0  0  0
   39.1290   26.3990   35.1730 C   0  0  0  0  0  0  0  0  0  0  0  0
   38.2880   25.8070   34.2670 C   0  0  0  0  0  0  0  0  0  0  0  0
   38.5860   25.9050   32.8970 C   0  0  0  0  0  0  0  0  0  0  0  0
   41.4370   27.7190   33.1220 H   0  0  0  0  0  0  0  0  0  0  0  0
   40.9500   27.5690   35.4730 H   0  0  0  0  0  0  0  0  0  0  0  0
   38.9510   26.3600   36.2590 H   0  0  0  0  0  0  0  0  0  0  0  0
   37.4470   25.3030   34.7080 H   0  0  0  0  0  0  0  0  0  0  0  0
   40.3500   27.8860   29.0150 C   0  0  0  0  0  0  0  0  0  0  0  0
   39.9000   27.8660   30.3490 C   0  0  0  0  0  0  0  0  0  0  0  0
   40.1040   26.7180   31.1150 C   0  0  0  0  0  0  0  0  0  0  0  0
   40.7280   25.6940   30.5040 N   0  0  0  0  0  0  0  0  0  0  0  0
   41.1570   25.7180   29.2280 C   0  0  0  0  0  0  0  0  0  0  0  0
   40.9650   26.8080   28.5000 N   0  0  0  0  0  0  0  0  0  0  0  0
   40.1400   28.8230   28.5160 H   0  0  0  0  0  0  0  0  0  0  0  0
   39.3980   28.7060   30.8160 H   0  0  0  0  0  0  0  0  0  0  0  0
   41.6540   24.8740   28.7810 H   0  0  0  0  0  0  0  0  0  0  0  0
   36.2520   27.4170   31.8900 C   0  0  0  0  0  0  0  0  0  0  0  0
   36.0320   28.3030   32.9300 C   0  0  0  0  0  0  0  0  0  0  0  0
   35.8490   27.8660   33.9110 H   0  0  0  0  0  0  0  0  0  0  0  0
   36.0210   29.6700   32.8580 C   0  0  0  0  0  3  0  0  0  0  0  0
   36.2520   30.2350   31.6230 C   0  0  0  0  0  0  0  0  0  0  0  0
   36.2510   31.3040   31.5270 H   0  0  0  0  0  0  0  0  0  0  0  0
   36.4820   29.4230   30.5290 C   0  0  0  0  0  0  0  0  0  0  0  0
   36.6700   29.8300   29.5250 H   0  0  0  0  0  0  0  0  0  0  0  0
   36.4790   28.0600   30.6650 C   0  0  0  0  0  3  0  0  0  0  0  0
  1  7  1  6  0  0  0
  1  6  1  0  0  0  0
  1  2  1  0  0  0  0
  1 22  1  0  0  0  0
  2  8  1  0  0  0  0
  2  9  1  0  0  0  0
  3 11  1  0  0  0  0
  3  2  1  0  0  0  0
  4  3  1  0  0  0  0
  4 12  1  0  0  0  0
  5 14  1  0  0  0  0
  5  4  1  0  0  0  0
  5  6  1  0  0  0  0
  6 16  1  1  0  0  0
 10  3  1  0  0  0  0
 13  4  1  0  0  0  0
 15  5  1  0  0  0  0
 17 22  2  0  0  0  0
 17 18  1  0  0  0  0
 18 19  2  0  0  0  0
 19 20  1  0  0  0  0
 19 24  1  0  0  0  0
 20 25  1  0  0  0  0
 21 26  1  0  0  0  0
 21 20  2  0  0  0  0
 22 21  1  0  0  0  0
 23 18  1  0  0  0  0
 27 28  1  0  0  0  0
 28 34  1  0  0  0  0
 28 29  2  0  0  0  0
 29 17  1  0  0  0  0
 30 29  1  0  0  0  0
 31 30  2  0  0  0  0
 32 27  2  0  0  0  0
 32 31  1  0  0  0  0
 33 27  1  0  0  0  0
 35 31  1  0  0  0  0
 36  6  1  0  0  0  0
 36 37  1  0  0  0  0
 37 38  1  0  0  0  0
 39 37  2  0  0  0  0
 40 39  1  0  0  0  0
 41 40  1  0  0  0  0
 42 44  1  0  0  0  0
 42 40  2  0  0  0  0
 43 42  1  0  0  0  0
 44 36  2  0  0  0  0
M  END
>  <minimizedAffinity>
-5.28947926

$$$$

 OpenBabel03272503543D

 44 47  0  0  1  0  0  0  0  0999 V2000
   38.4910   26.5760   34.0850 C   0  0  1  0  0  0  0  0  0  0  0  0
   38.1680   27.7920   34.9930 C   0  0  0  0  0  0  0  0  0  0  0  0
   36.6430   27.9230   34.9090 C   0  0  0  0  0  0  0  0  0  0  0  0
   36.3010   28.3870   33.5390 C   0  0  0  0  0  0  0  0  0  0  0  0
   36.8140   27.4160   32.5060 C   0  0  0  0  0  0  0  0  0  0  0  0
   38.2760   27.0990   32.6970 C   0  0  2  0  0  0  0  0  0  0  0  0
   37.7340   25.8360   34.4160 H   0  0  0  0  0  0  0  0  0  0  0  0
   38.4640   27.6210   36.0280 H   0  0  0  0  0  0  0  0  0  0  0  0
   38.6100   28.6600   34.5090 H   0  0  0  0  0  0  0  0  0  0  0  0
   36.1420   26.9750   35.1290 H   0  0  0  0  0  0  0  0  0  0  0  0
   36.3940   28.7340   35.6340 H   0  0  0  0  0  0  0  0  0  0  0  0
   36.6220   29.4130   33.3170 H   0  0  0  0  0  0  0  0  0  0  0  0
   35.1870   28.3860   33.4480 H   0  0  0  0  0  0  0  0  0  0  0  0
   36.6810   27.8520   31.4960 H   0  0  0  0  0  0  0  0  0  0  0  0
   36.2290   26.4780   32.5130 H   0  0  0  0  0  0  0  0  0  0  0  0
   38.8590   28.0470   32.5840 H   0  0  0  0  0  0  0  0  0  0  0  0
   40.1490   24.7780   34.6510 C   0  0  0  0  0  0  0  0  0  0  0  0
   41.4700   24.3730   34.7960 C   0  0  0  0  0  0  0  0  0  0  0  0
   42.5120   25.2920   34.6120 C   0  0  0  0  0  0  0  0  0  0  0  0
   42.1750   26.5880   34.2870 C   0  0  0  0  0  0  0  0  0  0  0  0
   40.8750   26.9970   34.1410 C   0  0  0  0  0  0  0  0  0  0  0  0
   39.8430   26.0630   34.3290 C   0  0  0  0  0  0  0  0  0  0  0  0
   41.7340   23.3470   35.0530 H   0  0  0  0  0  0  0  0  0  0  0  0
   43.5210   24.9260   34.7370 H   0  0  0  0  0  0  0  0  0  0  0  0
   43.0290   27.2700   34.1540 H   0  0  0  0  0  0  0  0  0  0  0  0
   40.7640   28.0360   33.8890 H   0  0  0  0  0  0  0  0  0  0  0  0
   37.7800   21.8600   34.2730 C   0  0  0  0  0  0  0  0  0  0  0  0
   38.7430   22.8260   33.9230 C   0  0  0  0  0  0  0  0  0  0  0  0
   39.1610   23.7460   34.8850 C   0  0  0  0  0  0  0  0  0  0  0  0
   38.5960   23.6360   36.1020 N   0  0  0  0  0  0  0  0  0  0  0  0
   37.6760   22.7110   36.4330 C   0  0  0  0  0  0  0  0  0  0  0  0
   37.2800   21.8370   35.5200 N   0  0  0  0  0  0  0  0  0  0  0  0
   37.5310   21.2000   33.4530 H   0  0  0  0  0  0  0  0  0  0  0  0
   39.1800   22.8920   32.9330 H   0  0  0  0  0  0  0  0  0  0  0  0
   37.2520   22.6610   37.4200 H   0  0  0  0  0  0  0  0  0  0  0  0
   38.6810   26.1960   31.6110 C   0  0  0  0  0  0  0  0  0  0  0  0
   37.9780   25.0560   31.2590 C   0  0  0  0  0  0  0  0  0  0  0  0
   37.0790   24.8420   31.8350 H   0  0  0  0  0  0  0  0  0  0  0  0
   38.2930   24.1700   30.2650 C   0  0  0  0  0  3  0  0  0  0  0  0
   39.4280   24.4310   29.5290 C   0  0  0  0  0  0  0  0  0  0  0  0
   39.7080   23.7590   28.7400 H   0  0  0  0  0  0  0  0  0  0  0  0
   40.1890   25.5480   29.8140 C   0  0  0  0  0  0  0  0  0  0  0  0
   41.1020   25.7940   29.2530 H   0  0  0  0  0  0  0  0  0  0  0  0
   39.8220   26.3980   30.8240 C   0  0  0  0  0  3  0  0  0  0  0  0
  1 22  1  0  0  0  0
  1  7  1  1  0  0  0
  1  2  1  0  0  0  0
  2  8  1  0  0  0  0
  3  2  1  0  0  0  0
  3 10  1  0  0  0  0
  3 11  1  0  0  0  0
  4  3  1  0  0  0  0
  5 15  1  0  0  0  0
  5  6  1  0  0  0  0
  5  4  1  0  0  0  0
  6 16  1  6  0  0  0
  6  1  1  0  0  0  0
  9  2  1  0  0  0  0
 12  4  1  0  0  0  0
 13  4  1  0  0  0  0
 14  5  1  0  0  0  0
 17 18  1  0  0  0  0
 17 29  1  0  0  0  0
 18 23  1  0  0  0  0
 19 24  1  0  0  0  0
 19 18  2  0  0  0  0
 20 19  1  0  0  0  0
 21 20  2  0  0  0  0
 21 22  1  0  0  0  0
 22 17  2  0  0  0  0
 25 20  1  0  0  0  0
 26 21  1  0  0  0  0
 27 32  1  0  0  0  0
 28 27  2  0  0  0  0
 28 29  1  0  0  0  0
 29 30  2  0  0  0  0
 30 31  1  0  0  0  0
 31 35  1  0  0  0  0
 32 31  2  0  0  0  0
 33 27  1  0  0  0  0
 34 28  1  0  0  0  0
 36  6  1  0  0  0  0
 37 36  1  0  0  0  0
 37 38  1  0  0  0  0
 39 37  2  0  0  0  0
 40 42  2  0  0  0  0
 40 39  1  0  0  0  0
 41 40  1  0  0  0  0
 42 44  1  0  0  0  0
 43 42  1  0  0  0  0
 44 36  2  0  0  0  0
M  END
>  <minimizedAffinity>
-5.26382065

$$$$

 OpenBabel03272503543D

 44 47  0  0  1  0  0  0  0  0999 V2000
   38.9090   23.1730   32.2060 C   0  0  1  0  0  0  0  0  0  0  0  0
   39.7290   22.6560   30.9960 C   0  0  0  0  0  0  0  0  0  0  0  0
   40.6830   21.6230   31.6080 C   0  0  0  0  0  0  0  0  0  0  0  0
   41.6740   22.3560   32.4370 C   0  0  0  0  0  0  0  0  0  0  0  0
   40.9820   23.1510   33.5150 C   0  0  0  0  0  0  0  0  0  0  0  0
   39.8840   24.0250   32.9620 C   0  0  2  0  0  0  0  0  0  0  0  0
   38.6360   22.2280   32.7190 H   0  0  0  0  0  0  0  0  0  0  0  0
   39.0980   22.1740   30.2490 H   0  0  0  0  0  0  0  0  0  0  0  0
   40.3220   23.5000   30.6470 H   0  0  0  0  0  0  0  0  0  0  0  0
   40.1460   20.8850   32.2140 H   0  0  0  0  0  0  0  0  0  0  0  0
   41.2090   21.1770   30.7310 H   0  0  0  0  0  0  0  0  0  0  0  0
   42.3690   22.9810   31.8630 H   0  0  0  0  0  0  0  0  0  0  0  0
   42.3050   21.5960   32.9620 H   0  0  0  0  0  0  0  0  0  0  0  0
   41.7220   23.8000   34.0230 H   0  0  0  0  0  0  0  0  0  0  0  0
   40.5680   22.4890   34.2980 H   0  0  0  0  0  0  0  0  0  0  0  0
   40.3410   24.7540   32.2490 H   0  0  0  0  0  0  0  0  0  0  0  0
   36.4470   23.3610   31.7540 C   0  0  0  0  0  0  0  0  0  0  0  0
   35.3540   24.1390   31.3940 C   0  0  0  0  0  0  0  0  0  0  0  0
   35.5310   25.4850   31.0460 C   0  0  0  0  0  0  0  0  0  0  0  0
   36.8120   25.9910   31.0770 C   0  0  0  0  0  0  0  0  0  0  0  0
   37.8970   25.2320   31.4310 C   0  0  0  0  0  0  0  0  0  0  0  0
   37.7010   23.8850   31.7780 C   0  0  0  0  0  0  0  0  0  0  0  0
   34.3410   23.7350   31.3710 H   0  0  0  0  0  0  0  0  0  0  0  0
   34.6490   26.0450   30.7730 H   0  0  0  0  0  0  0  0  0  0  0  0
   36.8990   27.0520   30.7950 H   0  0  0  0  0  0  0  0  0  0  0  0
   38.8330   25.7600   31.4070 H   0  0  0  0  0  0  0  0  0  0  0  0
   35.7900   19.6450   31.5700 C   0  0  0  0  0  0  0  0  0  0  0  0
   36.0900   20.9510   31.1360 C   0  0  0  0  0  0  0  0  0  0  0  0
   36.1410   21.9820   32.0740 C   0  0  0  0  0  0  0  0  0  0  0  0
   35.8900   21.6400   33.3510 N   0  0  0  0  0  0  0  0  0  0  0  0
   35.6040   20.3900   33.7620 C   0  0  0  0  0  0  0  0  0  0  0  0
   35.5570   19.4110   32.8720 N   0  0  0  0  0  0  0  0  0  0  0  0
   35.7770   18.9270   30.7600 H   0  0  0  0  0  0  0  0  0  0  0  0
   36.2860   21.1980   30.0980 H   0  0  0  0  0  0  0  0  0  0  0  0
   35.4110   20.1640   34.7960 H   0  0  0  0  0  0  0  0  0  0  0  0
   39.3190   24.7910   34.0820 C   0  0  0  0  0  0  0  0  0  0  0  0
   38.5120   24.2370   35.0600 C   0  0  0  0  0  0  0  0  0  0  0  0
   38.3000   23.1720   34.9710 H   0  0  0  0  0  0  0  0  0  0  0  0
   37.9510   24.8840   36.1280 C   0  0  0  0  0  3  0  0  0  0  0  0
   38.2130   26.2320   36.2510 C   0  0  0  0  0  0  0  0  0  0  0  0
   37.7910   26.7740   37.0760 H   0  0  0  0  0  0  0  0  0  0  0  0
   39.0100   26.8650   35.3180 C   0  0  0  0  0  0  0  0  0  0  0  0
   39.2440   27.9380   35.3770 H   0  0  0  0  0  0  0  0  0  0  0  0
   39.5420   26.1610   34.2690 C   0  0  0  0  0  3  0  0  0  0  0  0
  1  7  1  1  0  0  0
  1  6  1  0  0  0  0
  2  3  1  0  0  0  0
  2  1  1  0  0  0  0
  3 10  1  0  0  0  0
  3  4  1  0  0  0  0
  4 13  1  0  0  0  0
  4  5  1  0  0  0  0
  5 14  1  0  0  0  0
  5 15  1  0  0  0  0
  6 16  1  6  0  0  0
  6  5  1  0  0  0  0
  6 36  1  0  0  0  0
  8  2  1  0  0  0  0
  9  2  1  0  0  0  0
 11  3  1  0  0  0  0
 12  4  1  0  0  0  0
 17 22  1  0  0  0  0
 17 29  1  0  0  0  0
 18 17  2  0  0  0  0
 19 20  2  0  0  0  0
 19 18  1  0  0  0  0
 20 21  1  0  0  0  0
 21 22  2  0  0  0  0
 22  1  1  0  0  0  0
 23 18  1  0  0  0  0
 24 19  1  0  0  0  0
 25 20  1  0  0  0  0
 26 21  1  0  0  0  0
 27 32  1  0  0  0  0
 28 27  2  0  0  0  0
 28 29  1  0  0  0  0
 29 30  2  0  0  0  0
 30 31  1  0  0  0  0
 31 35  1  0  0  0  0
 32 31  2  0  0  0  0
 33 27  1  0  0  0  0
 34 28  1  0  0  0  0
 36 44  2  0  0  0  0
 36 37  1  0  0  0  0
 37 39  2  0  0  0  0
 38 37  1  0  0  0  0
 39 40  1  0  0  0  0
 40 41  1  0  0  0  0
 42 43  1  0  0  0  0
 42 40  2  0  0  0  0
 44 42  1  0  0  0  0
M  END
>  <minimizedAffinity>
-5.25607395

$$$$
