
 OpenBabel03272509273D

 41 43  0  0  1  0  0  0  0  0999 V2000
   38.6220   31.7640   46.8860 C   0  0  2  0  0  0  0  0  0  0  0  0
   39.4610   32.8050   47.6090 C   0  0  0  0  0  0  0  0  0  0  0  0
   40.0940   33.7490   46.6380 C   0  0  0  0  0  0  0  0  0  0  0  0
   40.4130   33.0150   45.3450 C   0  0  0  0  0  0  0  0  0  0  0  0
   39.0690   32.9590   44.6770 C   0  0  0  0  0  0  0  0  0  0  0  0
   38.1580   32.1490   45.5680 C   0  0  1  0  0  0  0  0  0  0  0  0
   39.2450   30.8300   46.9680 H   0  0  0  0  0  0  0  0  0  0  0  0
   40.2040   32.3840   48.2880 H   0  0  0  0  0  0  0  0  0  0  0  0
   38.7910   33.4400   48.2600 H   0  0  0  0  0  0  0  0  0  0  0  0
   41.0330   34.1590   47.0250 H   0  0  0  0  0  0  0  0  0  0  0  0
   39.4300   34.6050   46.3940 H   0  0  0  0  0  0  0  0  0  0  0  0
   41.0500   33.7000   44.7550 H   0  0  0  0  0  0  0  0  0  0  0  0
   40.8590   32.0340   45.5280 H   0  0  0  0  0  0  0  0  0  0  0  0
   38.7330   34.0380   44.6330 H   0  0  0  0  0  0  0  0  0  0  0  0
   39.1970   32.6540   43.6550 H   0  0  0  0  0  0  0  0  0  0  0  0
   37.2110   32.6870   45.5860 H   0  0  0  0  0  0  0  0  0  0  0  0
   38.0490   30.9160   44.6650 C   0  0  0  0  0  0  0  0  0  0  0  0
   37.0070   30.7500   43.7700 C   0  0  0  0  0  0  0  0  0  0  0  0
   36.2510   31.5270   43.7170 H   0  0  0  0  0  0  0  0  0  0  0  0
   36.8280   29.6860   42.9190 C   0  0  0  0  0  3  0  0  0  0  0  0
   37.7820   28.6950   42.9670 C   0  0  0  0  0  0  0  0  0  0  0  0
   37.6730   27.8530   42.3170 H   0  0  0  0  0  0  0  0  0  0  0  0
   38.8450   28.7930   43.8310 C   0  0  0  0  0  0  0  0  0  0  0  0
   39.5580   27.9970   43.8280 H   0  0  0  0  0  0  0  0  0  0  0  0
   38.9640   29.8880   44.6580 C   0  0  0  0  0  3  0  0  0  0  0  0
   37.2020   31.4370   47.9740 S   0  0  0  0  0  0  0  0  0  0  0  0
   36.4060   29.8560   47.6220 C   0  0  0  0  0  0  0  0  0  0  0  0
   37.1790   29.2730   47.0250 H   0  0  0  0  0  0  0  0  0  0  0  0
   36.3480   29.2820   48.5420 H   0  0  0  0  0  0  0  0  0  0  0  0
   35.1670   30.0590   46.8230 C   0  0  0  0  0  0  0  0  0  0  0  0
   35.3160   29.6120   45.8110 H   0  0  0  0  0  0  0  0  0  0  0  0
   34.8510   31.1240   46.7560 H   0  0  0  0  0  0  0  0  0  0  0  0
   32.9010   27.9640   48.9220 C   0  0  0  0  0  0  0  0  0  0  0  0
   34.0120   28.7000   48.5320 C   0  0  0  0  0  0  0  0  0  0  0  0
   34.0320   29.3060   47.3100 C   0  0  0  0  0  0  0  0  0  0  0  0
   32.9130   29.1430   46.5270 N   0  0  0  0  0  0  0  0  0  0  0  0
   31.8640   28.4330   46.9280 C   0  0  0  0  0  0  0  0  0  0  0  0
   31.8310   27.8340   48.1200 N   0  0  0  0  0  0  0  0  0  0  0  0
   32.8240   27.4600   49.8720 H   0  0  0  0  0  0  0  0  0  0  0  0
   34.7690   28.7070   49.2970 H   0  0  0  0  0  0  0  0  0  0  0  0
   31.0060   28.3390   46.2650 H   0  0  0  0  0  0  0  0  0  0  0  0
  1  7  1  6  0  0  0
  1  2  1  0  0  0  0
  1 26  1  0  0  0  0
  2  9  1  0  0  0  0
  2  8  1  0  0  0  0
  3 10  1  0  0  0  0
  3  2  1  0  0  0  0
  4 13  1  0  0  0  0
  4  3  1  0  0  0  0
  5  4  1  0  0  0  0
  5  6  1  0  0  0  0
  6 16  1  1  0  0  0
  6  1  1  0  0  0  0
 11  3  1  0  0  0  0
 12  4  1  0  0  0  0
 14  5  1  0  0  0  0
 15  5  1  0  0  0  0
 17  6  1  0  0  0  0
 18 17  2  0  0  0  0
 19 18  1  0  0  0  0
 20 21  2  0  0  0  0
 20 18  1  0  0  0  0
 21 23  1  0  0  0  0
 22 21  1  0  0  0  0
 23 25  2  0  0  0  0
 24 23  1  0  0  0  0
 25 17  1  0  0  0  0
 27 26  1  0  0  0  0
 27 29  1  0  0  0  0
 28 27  1  0  0  0  0
 30 35  1  0  0  0  0
 30 27  1  0  0  0  0
 31 30  1  0  0  0  0
 32 30  1  0  0  0  0
 33 39  1  0  0  0  0
 34 33  1  0  0  0  0
 34 40  1  0  0  0  0
 35 34  2  0  0  0  0
 36 37  2  0  0  0  0
 36 35  1  0  0  0  0
 37 38  1  0  0  0  0
 38 33  2  0  0  0  0
 41 37  1  0  0  0  0
M  END
>  <minimizedAffinity>
-4.33649158

>  <minimizedRMSD>
1.99755609

$$$$
