
 OpenBabel03272504483D

 27 29  0  0  0  0  0  0  0  0999 V2000
   34.1660   28.4840   49.3650 C   0  0  0  0  0  0  0  0  0  0  0  0
   34.8580   29.4650   48.6410 C   0  0  0  0  0  0  0  0  0  0  0  0
   34.3330   29.8430   47.4140 C   0  0  0  0  0  0  0  0  0  0  0  0
   33.1830   29.2430   46.9900 N   0  0  0  0  0  0  0  0  0  0  0  0
   32.5440   28.2990   47.7170 C   0  0  0  0  0  0  0  0  0  0  0  0
   33.0410   27.9280   48.9000 N   0  0  0  0  0  0  0  0  0  0  0  0
   34.5260   28.1520   50.3210 H   0  0  0  0  0  0  0  0  0  0  0  0
   34.8400   30.5960   46.8300 H   0  0  0  0  0  0  0  0  0  0  0  0
   31.3250   27.7040   47.2070 C   0  0  0  0  0  0  0  0  0  0  0  0
   31.2570   26.3560   46.9750 C   0  0  0  0  0  0  0  0  0  0  0  0
   30.1320   25.7280   46.4940 C   0  0  0  0  0  0  0  0  0  0  0  0
   29.0620   26.5540   46.2550 C   0  0  0  0  0  0  0  0  0  0  0  0
   29.0830   27.9250   46.4740 C   0  0  0  0  0  0  0  0  0  0  0  0
   30.2460   28.4690   46.9560 N   0  0  0  0  0  0  0  0  0  0  0  0
   32.1570   25.7720   47.1940 H   0  0  0  0  0  0  0  0  0  0  0  0
   30.1360   24.6590   46.3310 H   0  0  0  0  0  0  0  0  0  0  0  0
   28.1420   26.1120   45.8730 H   0  0  0  0  0  0  0  0  0  0  0  0
   28.2060   28.5080   46.2650 H   0  0  0  0  0  0  0  0  0  0  0  0
   36.0760   30.0510   49.1820 C   0  0  0  0  0  0  0  0  0  0  0  0
   36.9700   30.8040   48.4610 C   0  0  0  0  0  0  0  0  0  0  0  0
   36.7090   30.9500   47.4180 H   0  0  0  0  0  0  0  0  0  0  0  0
   38.1170   31.3530   48.9750 C   0  0  0  0  0  0  0  0  0  0  0  0
   38.3730   31.1190   50.3070 C   0  0  0  0  0  0  0  0  0  0  0  0
   39.2430   31.4970   50.8290 H   0  0  0  0  0  0  0  0  0  0  0  0
   37.4970   30.3640   51.0700 C   0  0  0  0  0  0  0  0  0  0  0  0
   37.6950   30.1780   52.1330 H   0  0  0  0  0  0  0  0  0  0  0  0
   36.3440   29.8260   50.5160 C   0  0  0  0  0  0  0  0  0  0  0  0
  1  7  1  0  0  0  0
  2 19  1  0  0  0  0
  2  1  2  0  0  0  0
  3  2  1  0  0  0  0
  4  3  2  0  0  0  0
  4  5  1  0  0  0  0
  5  6  2  0  0  0  0
  6  1  1  0  0  0  0
  8  3  1  0  0  0  0
  9  5  1  0  0  0  0
 10 15  1  0  0  0  0
 10  9  1  0  0  0  0
 11 10  2  0  0  0  0
 12 13  2  0  0  0  0
 12 11  1  0  0  0  0
 13 14  1  0  0  0  0
 14  9  2  0  0  0  0
 16 11  1  0  0  0  0
 17 12  1  0  0  0  0
 18 13  1  0  0  0  0
 19 27  1  0  0  0  0
 20 22  1  0  0  0  0
 20 19  2  0  0  0  0
 21 20  1  0  0  0  0
 22 23  2  0  0  0  0
 23 24  1  0  0  0  0
 23 25  1  0  0  0  0
 25 26  1  0  0  0  0
 27 25  2  0  0  0  0
M  END
>  <minimizedAffinity>
-5.49479771

>  <minimizedRMSD>
5.82907581

$$$$
