
 OpenBabel03272502533D

 27 29  0  0  0  0  0  0  0  0999 V2000
   35.9600   30.2960   48.5600 C   0  0  0  0  0  0  0  0  0  0  0  0
   36.0350   29.2950   49.5230 C   0  0  0  0  0  0  0  0  0  0  0  0
   35.0520   28.3170   49.5810 C   0  0  0  0  0  0  0  0  0  0  0  0
   34.0310   28.4110   48.6380 C   0  0  0  0  0  0  0  0  0  0  0  0
   33.9570   29.4060   47.6790 C   0  0  0  0  0  0  0  0  0  0  0  0
   34.9520   30.3250   47.6870 N   0  0  0  0  0  0  0  0  0  0  0  0
   36.8630   29.3020   50.2140 H   0  0  0  0  0  0  0  0  0  0  0  0
   35.0780   27.5250   50.3170 H   0  0  0  0  0  0  0  0  0  0  0  0
   33.2700   27.6450   48.6890 H   0  0  0  0  0  0  0  0  0  0  0  0
   38.1150   33.0980   49.5080 C   0  0  0  0  0  0  0  0  0  0  0  0
   39.0030   33.2080   48.4350 C   0  0  0  0  0  0  0  0  0  0  0  0
   38.8480   32.3000   47.3690 C   0  0  0  0  0  0  0  0  0  0  0  0
   37.8420   31.3710   47.4550 N   0  0  0  0  0  0  0  0  0  0  0  0
   37.0090   31.3060   48.5190 C   0  0  0  0  0  0  0  0  0  0  0  0
   37.1640   32.1690   49.5180 N   0  0  0  0  0  0  0  0  0  0  0  0
   38.2940   33.8270   50.2880 H   0  0  0  0  0  0  0  0  0  0  0  0
   39.7880   33.9570   48.4020 H   0  0  0  0  0  0  0  0  0  0  0  0
   39.4990   32.3260   46.5020 H   0  0  0  0  0  0  0  0  0  0  0  0
   32.8920   29.4950   46.7060 C   0  0  0  0  0  0  0  0  0  0  0  0
   32.0500   28.4530   46.3840 C   0  0  0  0  0  0  0  0  0  0  0  0
   32.1650   27.5030   46.8680 H   0  0  0  0  0  0  0  0  0  0  0  0
   31.0260   28.5060   45.4610 C   0  0  0  0  0  0  0  0  0  0  0  0
   30.8410   29.7280   44.8070 C   0  0  0  0  0  0  0  0  0  0  0  0
   30.0370   29.7890   44.0750 H   0  0  0  0  0  0  0  0  0  0  0  0
   31.6610   30.8250   45.0860 C   0  0  0  0  0  0  0  0  0  0  0  0
   31.4580   31.7190   44.5480 H   0  0  0  0  0  0  0  0  0  0  0  0
   32.6730   30.6790   46.0360 C   0  0  0  0  0  0  0  0  0  0  0  0
  1  2  1  0  0  0  0
  2  3  2  0  0  0  0
  2  7  1  0  0  0  0
  3  8  1  0  0  0  0
  4  9  1  0  0  0  0
  4  3  1  0  0  0  0
  5  6  1  0  0  0  0
  5  4  2  0  0  0  0
  6  1  2  0  0  0  0
 10 15  1  0  0  0  0
 10 16  1  0  0  0  0
 11 10  2  0  0  0  0
 12 13  2  0  0  0  0
 12 11  1  0  0  0  0
 13 14  1  0  0  0  0
 14  1  1  0  0  0  0
 14 15  2  0  0  0  0
 17 11  1  0  0  0  0
 18 12  1  0  0  0  0
 19  5  1  0  0  0  0
 20 19  1  0  0  0  0
 20 21  1  0  0  0  0
 22 20  2  0  0  0  0
 23 25  2  0  0  0  0
 23 22  1  0  0  0  0
 24 23  1  0  0  0  0
 25 27  1  0  0  0  0
 26 25  1  0  0  0  0
 27 19  2  0  0  0  0
M  END
>  <minimizedAffinity>
-5.31508207

>  <minimizedRMSD>
0.410810769

$$$$
