
 OpenBabel03262522333D

 27 29  0  0  0  0  0  0  0  0999 V2000
   38.0260   31.9930   49.1510 C   0  0  0  0  0  0  0  0  0  0  0  0
   38.5210   33.1360   49.7120 C   0  0  0  0  0  0  0  0  0  0  0  0
   39.3580   34.0250   49.0670 C   0  0  0  0  0  0  0  0  0  0  0  0
   39.7340   33.7720   47.7760 C   0  0  0  0  0  0  0  0  0  0  0  0
   39.2330   32.6240   47.2220 C   0  0  0  0  0  0  0  0  0  0  0  0
   38.4130   31.7610   47.8670 N   0  0  0  0  0  0  0  0  0  0  0  0
   38.2330   33.3520   50.7360 H   0  0  0  0  0  0  0  0  0  0  0  0
   39.6930   34.8990   49.6030 H   0  0  0  0  0  0  0  0  0  0  0  0
   40.3800   34.4720   47.3030 H   0  0  0  0  0  0  0  0  0  0  0  0
   37.5040   30.3970   51.0360 C   0  0  0  0  0  0  0  0  0  0  0  0
   37.1500   31.0620   49.8420 C   0  0  0  0  0  0  0  0  0  0  0  0
   35.8900   30.8160   49.2800 C   0  0  0  0  0  0  0  0  0  0  0  0
   35.0630   29.9370   49.9210 N   0  0  0  0  0  0  0  0  0  0  0  0
   35.4280   29.3210   51.0520 C   0  0  0  0  0  0  0  0  0  0  0  0
   36.6390   29.5400   51.6180 N   0  0  0  0  0  0  0  0  0  0  0  0
   38.4980   30.6790   51.3570 H   0  0  0  0  0  0  0  0  0  0  0  0
   35.5520   31.2930   48.3640 H   0  0  0  0  0  0  0  0  0  0  0  0
   34.7420   28.6300   51.5290 H   0  0  0  0  0  0  0  0  0  0  0  0
   39.5850   32.2800   45.8500 C   0  0  0  0  0  0  0  0  0  0  0  0
   40.3080   31.1690   45.4720 C   0  0  0  0  0  0  0  0  0  0  0  0
   40.6510   30.4860   46.2360 H   0  0  0  0  0  0  0  0  0  0  0  0
   40.6290   30.8630   44.1700 C   0  0  0  0  0  0  0  0  0  0  0  0
   40.2270   31.6830   43.1590 C   0  0  0  0  0  0  0  0  0  0  0  0
   40.4890   31.4260   42.1420 H   0  0  0  0  0  0  0  0  0  0  0  0
   39.4980   32.8190   43.4450 C   0  0  0  0  0  0  0  0  0  0  0  0
   39.1580   33.5000   42.6750 H   0  0  0  0  0  0  0  0  0  0  0  0
   39.2130   33.0620   44.7700 C   0  0  0  0  0  0  0  0  0  0  0  0
  1  2  1  0  0  0  0
  1 11  1  0  0  0  0
  2  7  1  0  0  0  0
  3  8  1  0  0  0  0
  3  2  2  0  0  0  0
  4  3  1  0  0  0  0
  5  4  2  0  0  0  0
  5  6  1  0  0  0  0
  6  1  2  0  0  0  0
  9  4  1  0  0  0  0
 10 16  1  0  0  0  0
 10 15  1  0  0  0  0
 11 10  2  0  0  0  0
 12 11  1  0  0  0  0
 12 13  2  0  0  0  0
 13 14  1  0  0  0  0
 14 18  1  0  0  0  0
 14 15  2  0  0  0  0
 17 12  1  0  0  0  0
 19  5  1  0  0  0  0
 20 19  1  0  0  0  0
 20 21  1  0  0  0  0
 22 20  2  0  0  0  0
 23 25  2  0  0  0  0
 23 22  1  0  0  0  0
 24 23  1  0  0  0  0
 25 27  1  0  0  0  0
 26 25  1  0  0  0  0
 27 19  2  0  0  0  0
M  END
>  <minimizedAffinity>
-6.43945694

>  <minimizedRMSD>
0.55164516

$$$$
