
 OpenBabel03272500033D

 28 30  0  0  0  0  0  0  0  0999 V2000
   37.8910   25.1960   34.2420 C   0  0  0  0  0  0  0  0  0  0  0  0
   38.5890   25.4340   35.4520 C   0  0  0  0  0  0  0  0  0  0  0  0
   38.4850   26.7070   35.9940 C   0  0  0  0  0  0  0  0  0  0  0  0
   37.7310   27.6410   35.3490 N   0  0  0  0  0  0  0  0  0  0  0  0
   37.0840   27.3860   34.2090 C   0  0  0  0  0  0  0  0  0  0  0  0
   37.1610   26.1640   33.6510 N   0  0  0  0  0  0  0  0  0  0  0  0
   37.9460   24.2110   33.7830 H   0  0  0  0  0  0  0  0  0  0  0  0
   39.0160   26.8900   36.9170 H   0  0  0  0  0  0  0  0  0  0  0  0
   39.3370   24.3610   36.0120 N   0  0  0  0  0  0  0  0  0  0  0  0
   40.5630   24.0510   35.5730 C   0  0  0  0  0  0  0  0  0  0  0  0
   41.2720   22.9930   36.1420 C   0  0  0  0  0  0  0  0  0  0  0  0
   40.5740   22.3530   37.1560 C   0  0  0  0  0  0  0  0  0  0  0  0
   41.2020   21.3750   37.6970 O   0  0  0  0  0  0  0  0  0  0  0  0
   39.3510   22.6380   37.6140 N   0  0  0  0  0  0  0  0  0  0  0  0
   38.7280   23.6780   37.0130 C   0  0  0  0  0  0  0  0  0  0  0  0
   37.5720   23.9600   37.4340 O   0  0  0  0  0  0  0  0  0  0  0  0
   41.0280   24.6120   34.7740 H   0  0  0  0  0  0  0  0  0  0  0  0
   42.2490   22.6860   35.8490 H   0  0  0  0  0  0  0  0  0  0  0  0
   38.9300   22.0840   38.3820 H   0  0  0  0  0  0  0  0  0  0  0  0
   36.2920   28.4280   33.5620 C   0  0  0  0  0  0  0  0  0  0  0  0
   36.3290   28.5760   32.1870 C   0  0  0  0  0  0  0  0  0  0  0  0
   36.9730   27.8820   31.6420 H   0  0  0  0  0  0  0  0  0  0  0  0
   35.5940   29.5480   31.5560 C   0  0  0  0  0  3  0  0  0  0  0  0
   34.7870   30.4140   32.2700 C   0  0  0  0  0  0  0  0  0  0  0  0
   34.2240   31.1630   31.7470 H   0  0  0  0  0  0  0  0  0  0  0  0
   34.7410   30.2760   33.6380 C   0  0  0  0  0  0  0  0  0  0  0  0
   34.0960   30.9740   34.1670 H   0  0  0  0  0  0  0  0  0  0  0  0
   35.4980   29.2800   34.2640 C   0  0  0  0  0  3  0  0  0  0  0  0
  1  2  1  0  0  0  0
  2  3  2  0  0  0  0
  2  9  1  0  0  0  0
  3  8  1  0  0  0  0
  4  3  1  0  0  0  0
  5  4  2  0  0  0  0
  6  5  1  0  0  0  0
  6  1  2  0  0  0  0
  7  1  1  0  0  0  0
  9 15  1  0  0  0  0
 10  9  1  0  0  0  0
 10 11  2  0  0  0  0
 11 12  1  0  0  0  0
 12 14  1  0  0  0  0
 12 13  2  0  0  0  0
 14 19  1  0  0  0  0
 15 16  2  0  0  0  0
 15 14  1  0  0  0  0
 17 10  1  0  0  0  0
 18 11  1  0  0  0  0
 20  5  1  0  0  0  0
 20 28  1  0  0  0  0
 21 20  2  0  0  0  0
 22 21  1  0  0  0  0
 23 21  1  0  0  0  0
 23 24  2  0  0  0  0
 24 26  1  0  0  0  0
 25 24  1  0  0  0  0
 26 27  1  0  0  0  0
 26 28  2  0  0  0  0
M  END
>  <minimizedAffinity>
-5.77220106

$$$$

 OpenBabel03272500033D

 28 30  0  0  0  0  0  0  0  0999 V2000
   38.5170   26.5790   35.8890 C   0  0  0  0  0  0  0  0  0  0  0  0
   38.5670   25.3100   35.2610 C   0  0  0  0  0  0  0  0  0  0  0  0
   37.8570   25.1700   34.0770 C   0  0  0  0  0  0  0  0  0  0  0  0
   37.1650   26.2370   33.5900 N   0  0  0  0  0  0  0  0  0  0  0  0
   37.1370   27.4220   34.2060 C   0  0  0  0  0  0  0  0  0  0  0  0
   37.8110   27.5990   35.3570 N   0  0  0  0  0  0  0  0  0  0  0  0
   39.0590   26.7320   36.8200 H   0  0  0  0  0  0  0  0  0  0  0  0
   37.8950   24.2030   33.5970 H   0  0  0  0  0  0  0  0  0  0  0  0
   39.3320   24.2860   35.8870 N   0  0  0  0  0  0  0  0  0  0  0  0
   40.5950   24.0300   35.5270 C   0  0  0  0  0  0  0  0  0  0  0  0
   41.3190   23.0190   36.1590 C   0  0  0  0  0  0  0  0  0  0  0  0
   40.5940   22.3640   37.1430 C   0  0  0  0  0  0  0  0  0  0  0  0
   41.2370   21.4290   37.7410 O   0  0  0  0  0  0  0  0  0  0  0  0
   39.3340   22.5960   37.5240 N   0  0  0  0  0  0  0  0  0  0  0  0
   38.6980   23.5920   36.8650 C   0  0  0  0  0  0  0  0  0  0  0  0
   37.5080   23.8250   37.2120 O   0  0  0  0  0  0  0  0  0  0  0  0
   41.0780   24.5980   34.7440 H   0  0  0  0  0  0  0  0  0  0  0  0
   42.3260   22.7550   35.9300 H   0  0  0  0  0  0  0  0  0  0  0  0
   38.8960   22.0370   38.2780 H   0  0  0  0  0  0  0  0  0  0  0  0
   36.3760   28.5310   33.6370 C   0  0  0  0  0  0  0  0  0  0  0  0
   36.3630   28.7340   32.2690 C   0  0  0  0  0  0  0  0  0  0  0  0
   36.9430   28.0300   31.6680 H   0  0  0  0  0  0  0  0  0  0  0  0
   35.6560   29.7690   31.7100 C   0  0  0  0  0  3  0  0  0  0  0  0
   34.9300   30.6470   32.4930 C   0  0  0  0  0  0  0  0  0  0  0  0
   34.3880   31.4460   32.0250 H   0  0  0  0  0  0  0  0  0  0  0  0
   34.9350   30.4550   33.8550 C   0  0  0  0  0  0  0  0  0  0  0  0
   34.3530   31.1640   34.4400 H   0  0  0  0  0  0  0  0  0  0  0  0
   35.6620   29.3950   34.4070 C   0  0  0  0  0  3  0  0  0  0  0  0
  1  7  1  0  0  0  0
  2  9  1  0  0  0  0
  2  1  2  0  0  0  0
  3  2  1  0  0  0  0
  4  3  2  0  0  0  0
  4  5  1  0  0  0  0
  5  6  2  0  0  0  0
  6  1  1  0  0  0  0
  8  3  1  0  0  0  0
  9 15  1  0  0  0  0
 10  9  1  0  0  0  0
 10 11  2  0  0  0  0
 11 12  1  0  0  0  0
 12 14  1  0  0  0  0
 12 13  2  0  0  0  0
 14 19  1  0  0  0  0
 15 16  2  0  0  0  0
 15 14  1  0  0  0  0
 17 10  1  0  0  0  0
 18 11  1  0  0  0  0
 20  5  1  0  0  0  0
 20 28  1  0  0  0  0
 21 20  2  0  0  0  0
 22 21  1  0  0  0  0
 23 21  1  0  0  0  0
 23 24  2  0  0  0  0
 24 26  1  0  0  0  0
 25 24  1  0  0  0  0
 26 28  2  0  0  0  0
 26 27  1  0  0  0  0
M  END
>  <minimizedAffinity>
-5.75137949

$$$$

 OpenBabel03272500033D

 28 30  0  0  0  0  0  0  0  0999 V2000
   38.2920   27.1890   33.6980 C   0  0  0  0  0  0  0  0  0  0  0  0
   38.3810   26.5080   32.4590 C   0  0  0  0  0  0  0  0  0  0  0  0
   38.5880   25.1370   32.5130 C   0  0  0  0  0  0  0  0  0  0  0  0
   38.6910   24.5300   33.7290 N   0  0  0  0  0  0  0  0  0  0  0  0
   38.6020   25.2010   34.8810 C   0  0  0  0  0  0  0  0  0  0  0  0
   38.4020   26.5310   34.8710 N   0  0  0  0  0  0  0  0  0  0  0  0
   38.1300   28.2650   33.7010 H   0  0  0  0  0  0  0  0  0  0  0  0
   38.6560   24.6160   31.5690 H   0  0  0  0  0  0  0  0  0  0  0  0
   38.2550   27.2730   31.2670 N   0  0  0  0  0  0  0  0  0  0  0  0
   39.3150   27.8400   30.6760 C   0  0  0  0  0  0  0  0  0  0  0  0
   39.1580   28.5860   29.5080 C   0  0  0  0  0  0  0  0  0  0  0  0
   37.8420   28.6520   29.0760 C   0  0  0  0  0  0  0  0  0  0  0  0
   37.6700   29.3320   28.0030 O   0  0  0  0  0  0  0  0  0  0  0  0
   36.7650   28.0990   29.6430 N   0  0  0  0  0  0  0  0  0  0  0  0
   36.9970   27.3910   30.7720 C   0  0  0  0  0  0  0  0  0  0  0  0
   35.9910   26.8620   31.3210 O   0  0  0  0  0  0  0  0  0  0  0  0
   40.3070   27.7320   31.0900 H   0  0  0  0  0  0  0  0  0  0  0  0
   39.9500   29.0660   28.9810 H   0  0  0  0  0  0  0  0  0  0  0  0
   35.8250   28.2190   29.2250 H   0  0  0  0  0  0  0  0  0  0  0  0
   38.7210   24.4960   36.1540 C   0  0  0  0  0  0  0  0  0  0  0  0
   37.8970   24.8330   37.2130 C   0  0  0  0  0  0  0  0  0  0  0  0
   37.1780   25.6350   37.0330 H   0  0  0  0  0  0  0  0  0  0  0  0
   37.9890   24.1860   38.4200 C   0  0  0  0  0  3  0  0  0  0  0  0
   38.9090   23.1730   38.6220 C   0  0  0  0  0  0  0  0  0  0  0  0
   38.9560   22.6870   39.5770 H   0  0  0  0  0  0  0  0  0  0  0  0
   39.7340   22.8290   37.5760 C   0  0  0  0  0  0  0  0  0  0  0  0
   40.4440   22.0290   37.7710 H   0  0  0  0  0  0  0  0  0  0  0  0
   39.6250   23.5010   36.3540 C   0  0  0  0  0  3  0  0  0  0  0  0
  1  7  1  0  0  0  0
  1  6  1  0  0  0  0
  2  3  1  0  0  0  0
  2  1  2  0  0  0  0
  3  4  2  0  0  0  0
  4  5  1  0  0  0  0
  5 20  1  0  0  0  0
  6  5  2  0  0  0  0
  8  3  1  0  0  0  0
  9  2  1  0  0  0  0
 10 17  1  0  0  0  0
 10  9  1  0  0  0  0
 11 10  2  0  0  0  0
 12 11  1  0  0  0  0
 12 14  1  0  0  0  0
 13 12  2  0  0  0  0
 14 15  1  0  0  0  0
 15  9  1  0  0  0  0
 15 16  2  0  0  0  0
 18 11  1  0  0  0  0
 19 14  1  0  0  0  0
 20 28  2  0  0  0  0
 20 21  1  0  0  0  0
 21 23  2  0  0  0  0
 22 21  1  0  0  0  0
 23 24  1  0  0  0  0
 24 25  1  0  0  0  0
 26 27  1  0  0  0  0
 26 24  2  0  0  0  0
 28 26  1  0  0  0  0
M  END
>  <minimizedAffinity>
-5.4776454

$$$$

 OpenBabel03272500033D

 28 30  0  0  0  0  0  0  0  0999 V2000
   38.5250   24.2100   34.4720 C   0  0  0  0  0  0  0  0  0  0  0  0
   39.5160   24.5620   35.4220 C   0  0  0  0  0  0  0  0  0  0  0  0
   39.6820   25.9150   35.6800 C   0  0  0  0  0  0  0  0  0  0  0  0
   38.8990   26.8160   35.0220 N   0  0  0  0  0  0  0  0  0  0  0  0
   37.9730   26.4520   34.1310 C   0  0  0  0  0  0  0  0  0  0  0  0
   37.7820   25.1500   33.8520 N   0  0  0  0  0  0  0  0  0  0  0  0
   38.3630   23.1600   34.2400 H   0  0  0  0  0  0  0  0  0  0  0  0
   40.4360   26.1850   36.4050 H   0  0  0  0  0  0  0  0  0  0  0  0
   40.2580   23.5120   36.0310 N   0  0  0  0  0  0  0  0  0  0  0  0
   41.4240   23.0880   35.5280 C   0  0  0  0  0  0  0  0  0  0  0  0
   42.1280   22.0560   36.1480 C   0  0  0  0  0  0  0  0  0  0  0  0
   41.4930   21.5660   37.2790 C   0  0  0  0  0  0  0  0  0  0  0  0
   42.1190   20.6160   37.8690 O   0  0  0  0  0  0  0  0  0  0  0  0
   40.3310   21.9670   37.8050 N   0  0  0  0  0  0  0  0  0  0  0  0
   39.7080   22.9730   37.1480 C   0  0  0  0  0  0  0  0  0  0  0  0
   38.6100   23.3640   37.6310 O   0  0  0  0  0  0  0  0  0  0  0  0
   41.8420   23.5340   34.6360 H   0  0  0  0  0  0  0  0  0  0  0  0
   43.0590   21.6640   35.8090 H   0  0  0  0  0  0  0  0  0  0  0  0
   39.9540   21.5220   38.6610 H   0  0  0  0  0  0  0  0  0  0  0  0
   37.1640   27.4630   33.4550 C   0  0  0  0  0  0  0  0  0  0  0  0
   37.2350   27.6040   32.0810 C   0  0  0  0  0  0  0  0  0  0  0  0
   37.9160   26.9290   31.5580 H   0  0  0  0  0  0  0  0  0  0  0  0
   36.4840   28.5460   31.4230 C   0  0  0  0  0  3  0  0  0  0  0  0
   35.6290   29.3890   32.1090 C   0  0  0  0  0  0  0  0  0  0  0  0
   35.0560   30.1150   31.5650 H   0  0  0  0  0  0  0  0  0  0  0  0
   35.5490   29.2570   33.4760 C   0  0  0  0  0  0  0  0  0  0  0  0
   34.8670   29.9360   33.9820 H   0  0  0  0  0  0  0  0  0  0  0  0
   36.3230   28.2910   34.1290 C   0  0  0  0  0  3  0  0  0  0  0  0
  1  2  1  0  0  0  0
  2  3  2  0  0  0  0
  2  9  1  0  0  0  0
  3  8  1  0  0  0  0
  4  3  1  0  0  0  0
  5  4  2  0  0  0  0
  6  5  1  0  0  0  0
  6  1  2  0  0  0  0
  7  1  1  0  0  0  0
  9 15  1  0  0  0  0
 10  9  1  0  0  0  0
 10 11  2  0  0  0  0
 11 12  1  0  0  0  0
 12 14  1  0  0  0  0
 12 13  2  0  0  0  0
 14 19  1  0  0  0  0
 15 16  2  0  0  0  0
 15 14  1  0  0  0  0
 17 10  1  0  0  0  0
 18 11  1  0  0  0  0
 20 28  1  0  0  0  0
 20  5  1  0  0  0  0
 21 20  2  0  0  0  0
 22 21  1  0  0  0  0
 23 21  1  0  0  0  0
 23 24  2  0  0  0  0
 24 26  1  0  0  0  0
 25 24  1  0  0  0  0
 26 27  1  0  0  0  0
 26 28  2  0  0  0  0
M  END
>  <minimizedAffinity>
-5.43125153

$$$$

 OpenBabel03272500033D

 28 30  0  0  0  0  0  0  0  0999 V2000
   38.4150   26.6640   35.9650 C   0  0  0  0  0  0  0  0  0  0  0  0
   38.4400   25.3730   35.3810 C   0  0  0  0  0  0  0  0  0  0  0  0
   37.7440   25.2110   34.1920 C   0  0  0  0  0  0  0  0  0  0  0  0
   37.0890   26.2800   33.6570 N   0  0  0  0  0  0  0  0  0  0  0  0
   37.0840   27.4860   34.2320 C   0  0  0  0  0  0  0  0  0  0  0  0
   37.7460   27.6840   35.3870 N   0  0  0  0  0  0  0  0  0  0  0  0
   38.9480   26.8340   36.8980 H   0  0  0  0  0  0  0  0  0  0  0  0
   37.7630   24.2280   33.7450 H   0  0  0  0  0  0  0  0  0  0  0  0
   39.1670   24.3520   36.0530 N   0  0  0  0  0  0  0  0  0  0  0  0
   38.6950   23.7590   37.1570 C   0  0  0  0  0  0  0  0  0  0  0  0
   39.4320   22.7610   37.7940 C   0  0  0  0  0  0  0  0  0  0  0  0
   40.6390   22.4900   37.1650 C   0  0  0  0  0  0  0  0  0  0  0  0
   41.3370   21.5750   37.7310 O   0  0  0  0  0  0  0  0  0  0  0  0
   41.1360   23.0640   36.0660 N   0  0  0  0  0  0  0  0  0  0  0  0
   40.3630   24.0220   35.5050 C   0  0  0  0  0  0  0  0  0  0  0  0
   40.8180   24.5740   34.4650 O   0  0  0  0  0  0  0  0  0  0  0  0
   37.7390   24.0400   37.5750 H   0  0  0  0  0  0  0  0  0  0  0  0
   39.1260   22.2440   38.6730 H   0  0  0  0  0  0  0  0  0  0  0  0
   42.0560   22.7750   35.6860 H   0  0  0  0  0  0  0  0  0  0  0  0
   36.3630   28.5940   33.6130 C   0  0  0  0  0  0  0  0  0  0  0  0
   36.3800   28.7530   32.2400 C   0  0  0  0  0  0  0  0  0  0  0  0
   36.9520   28.0160   31.6730 H   0  0  0  0  0  0  0  0  0  0  0  0
   35.7100   29.7870   31.6350 C   0  0  0  0  0  3  0  0  0  0  0  0
   34.9920   30.7080   32.3760 C   0  0  0  0  0  0  0  0  0  0  0  0
   34.4790   31.5050   31.8730 H   0  0  0  0  0  0  0  0  0  0  0  0
   34.9680   30.5590   33.7430 C   0  0  0  0  0  0  0  0  0  0  0  0
   34.3940   31.3020   34.2940 H   0  0  0  0  0  0  0  0  0  0  0  0
   35.6570   29.5000   34.3420 C   0  0  0  0  0  3  0  0  0  0  0  0
  1  7  1  0  0  0  0
  2  1  2  0  0  0  0
  2  9  1  0  0  0  0
  3  2  1  0  0  0  0
  4  3  2  0  0  0  0
  4  5  1  0  0  0  0
  5  6  2  0  0  0  0
  6  1  1  0  0  0  0
  8  3  1  0  0  0  0
  9 10  1  0  0  0  0
 10 17  1  0  0  0  0
 10 11  2  0  0  0  0
 11 18  1  0  0  0  0
 12 13  2  0  0  0  0
 12 11  1  0  0  0  0
 14 12  1  0  0  0  0
 15  9  1  0  0  0  0
 15 14  1  0  0  0  0
 16 15  2  0  0  0  0
 19 14  1  0  0  0  0
 20  5  1  0  0  0  0
 20 28  1  0  0  0  0
 21 20  2  0  0  0  0
 22 21  1  0  0  0  0
 23 21  1  0  0  0  0
 23 24  2  0  0  0  0
 24 26  1  0  0  0  0
 25 24  1  0  0  0  0
 26 27  1  0  0  0  0
 26 28  2  0  0  0  0
M  END
>  <minimizedAffinity>
-5.35268784

$$$$

 OpenBabel03272500033D

 28 30  0  0  0  0  0  0  0  0999 V2000
   37.0150   27.3220   33.7150 C   0  0  0  0  0  0  0  0  0  0  0  0
   36.9000   27.4230   32.3060 C   0  0  0  0  0  0  0  0  0  0  0  0
   36.1740   28.4970   31.8130 C   0  0  0  0  0  0  0  0  0  0  0  0
   35.6220   29.3820   32.6900 N   0  0  0  0  0  0  0  0  0  0  0  0
   35.7490   29.2600   34.0150 C   0  0  0  0  0  0  0  0  0  0  0  0
   36.4440   28.2320   34.5330 N   0  0  0  0  0  0  0  0  0  0  0  0
   37.5760   26.4940   34.1440 H   0  0  0  0  0  0  0  0  0  0  0  0
   36.0860   28.5750   30.7390 H   0  0  0  0  0  0  0  0  0  0  0  0
   37.5300   26.4230   31.5130 N   0  0  0  0  0  0  0  0  0  0  0  0
   38.8120   26.5210   31.1420 C   0  0  0  0  0  0  0  0  0  0  0  0
   39.4010   25.5250   30.3640 C   0  0  0  0  0  0  0  0  0  0  0  0
   38.5300   24.4920   30.0510 C   0  0  0  0  0  0  0  0  0  0  0  0
   39.0460   23.5620   29.3360 O   0  0  0  0  0  0  0  0  0  0  0  0
   37.2470   24.3670   30.4050 N   0  0  0  0  0  0  0  0  0  0  0  0
   36.7480   25.3720   31.1610 C   0  0  0  0  0  0  0  0  0  0  0  0
   35.5380   25.2700   31.5040 O   0  0  0  0  0  0  0  0  0  0  0  0
   39.4150   27.3690   31.4370 H   0  0  0  0  0  0  0  0  0  0  0  0
   40.4130   25.5310   30.0290 H   0  0  0  0  0  0  0  0  0  0  0  0
   36.6940   23.5430   30.1090 H   0  0  0  0  0  0  0  0  0  0  0  0
   35.1340   30.2400   34.9070 C   0  0  0  0  0  0  0  0  0  0  0  0
   35.9250   31.1260   35.6150 C   0  0  0  0  0  0  0  0  0  0  0  0
   37.0040   31.0410   35.4640 H   0  0  0  0  0  0  0  0  0  0  0  0
   35.3720   32.0550   36.4600 C   0  0  0  0  0  3  0  0  0  0  0  0
   34.0030   32.1410   36.6330 C   0  0  0  0  0  0  0  0  0  0  0  0
   33.6010   32.8790   37.3010 H   0  0  0  0  0  0  0  0  0  0  0  0
   33.2060   31.2650   35.9330 C   0  0  0  0  0  0  0  0  0  0  0  0
   32.1340   31.3620   36.0940 H   0  0  0  0  0  0  0  0  0  0  0  0
   33.7880   30.3250   35.0780 C   0  0  0  0  0  3  0  0  0  0  0  0
  1  7  1  0  0  0  0
  1  6  1  0  0  0  0
  2  1  2  0  0  0  0
  3  2  1  0  0  0  0
  3  4  2  0  0  0  0
  4  5  1  0  0  0  0
  5  6  2  0  0  0  0
  5 20  1  0  0  0  0
  8  3  1  0  0  0  0
  9  2  1  0  0  0  0
 10 17  1  0  0  0  0
 10  9  1  0  0  0  0
 11 10  2  0  0  0  0
 12 11  1  0  0  0  0
 12 14  1  0  0  0  0
 13 12  2  0  0  0  0
 14 15  1  0  0  0  0
 15 16  2  0  0  0  0
 15  9  1  0  0  0  0
 18 11  1  0  0  0  0
 19 14  1  0  0  0  0
 20 28  2  0  0  0  0
 20 21  1  0  0  0  0
 21 23  2  0  0  0  0
 22 21  1  0  0  0  0
 23 24  1  0  0  0  0
 24 25  1  0  0  0  0
 26 27  1  0  0  0  0
 26 24  2  0  0  0  0
 28 26  1  0  0  0  0
M  END
>  <minimizedAffinity>
-5.26611185

$$$$

 OpenBabel03272500033D

 28 30  0  0  0  0  0  0  0  0999 V2000
   35.4070   25.2180   30.9760 C   0  0  0  0  0  0  0  0  0  0  0  0
   36.4000   25.9190   31.7050 C   0  0  0  0  0  0  0  0  0  0  0  0
   37.2310   25.1620   32.5170 C   0  0  0  0  0  0  0  0  0  0  0  0
   37.0540   23.8110   32.5690 N   0  0  0  0  0  0  0  0  0  0  0  0
   36.1080   23.1790   31.8700 C   0  0  0  0  0  0  0  0  0  0  0  0
   35.2820   23.8780   31.0710 N   0  0  0  0  0  0  0  0  0  0  0  0
   34.7340   25.7740   30.3270 H   0  0  0  0  0  0  0  0  0  0  0  0
   37.9890   25.6950   33.0720 H   0  0  0  0  0  0  0  0  0  0  0  0
   36.4660   27.3320   31.5510 N   0  0  0  0  0  0  0  0  0  0  0  0
   35.6210   28.1520   32.1870 C   0  0  0  0  0  0  0  0  0  0  0  0
   35.7110   29.5330   32.0150 C   0  0  0  0  0  0  0  0  0  0  0  0
   36.7290   29.9090   31.1510 C   0  0  0  0  0  0  0  0  0  0  0  0
   36.8350   31.1740   30.9750 O   0  0  0  0  0  0  0  0  0  0  0  0
   37.5870   29.1160   30.5020 N   0  0  0  0  0  0  0  0  0  0  0  0
   37.4370   27.7890   30.7210 C   0  0  0  0  0  0  0  0  0  0  0  0
   38.2390   27.0250   30.1150 O   0  0  0  0  0  0  0  0  0  0  0  0
   34.8560   27.7630   32.8440 H   0  0  0  0  0  0  0  0  0  0  0  0
   35.0770   30.2490   32.4850 H   0  0  0  0  0  0  0  0  0  0  0  0
   38.3110   29.5150   29.8790 H   0  0  0  0  0  0  0  0  0  0  0  0
   35.9650   21.7290   31.9670 C   0  0  0  0  0  0  0  0  0  0  0  0
   36.1840   20.9340   30.8570 C   0  0  0  0  0  0  0  0  0  0  0  0
   36.4610   21.4520   29.9350 H   0  0  0  0  0  0  0  0  0  0  0  0
   36.0560   19.5690   30.9220 C   0  0  0  0  0  3  0  0  0  0  0  0
   35.7040   18.9380   32.1010 C   0  0  0  0  0  0  0  0  0  0  0  0
   35.6130   17.8690   32.1200 H   0  0  0  0  0  0  0  0  0  0  0  0
   35.4850   19.7190   33.2130 C   0  0  0  0  0  0  0  0  0  0  0  0
   35.2100   19.1880   34.1220 H   0  0  0  0  0  0  0  0  0  0  0  0
   35.6200   21.1080   33.1260 C   0  0  0  0  0  3  0  0  0  0  0  0
  1  6  2  0  0  0  0
  1  2  1  0  0  0  0
  2  3  2  0  0  0  0
  3  4  1  0  0  0  0
  3  8  1  0  0  0  0
  5 20  1  0  0  0  0
  5  4  2  0  0  0  0
  6  5  1  0  0  0  0
  7  1  1  0  0  0  0
  9  2  1  0  0  0  0
  9 10  1  0  0  0  0
 10 17  1  0  0  0  0
 11 10  2  0  0  0  0
 11 18  1  0  0  0  0
 12 11  1  0  0  0  0
 13 12  2  0  0  0  0
 14 15  1  0  0  0  0
 14 12  1  0  0  0  0
 15  9  1  0  0  0  0
 16 15  2  0  0  0  0
 19 14  1  0  0  0  0
 20 28  1  0  0  0  0
 21 23  1  0  0  0  0
 21 20  2  0  0  0  0
 22 21  1  0  0  0  0
 23 24  2  0  0  0  0
 24 25  1  0  0  0  0
 24 26  1  0  0  0  0
 26 27  1  0  0  0  0
 28 26  2  0  0  0  0
M  END
>  <minimizedAffinity>
-5.26300049

$$$$

 OpenBabel03272500033D

 28 30  0  0  0  0  0  0  0  0999 V2000
   37.0010   27.3090   33.7300 C   0  0  0  0  0  0  0  0  0  0  0  0
   36.5340   27.1420   32.4020 C   0  0  0  0  0  0  0  0  0  0  0  0
   35.5680   28.0360   31.9630 C   0  0  0  0  0  0  0  0  0  0  0  0
   35.1300   29.0080   32.8120 N   0  0  0  0  0  0  0  0  0  0  0  0
   35.5900   29.1390   34.0590 C   0  0  0  0  0  0  0  0  0  0  0  0
   36.5270   28.2920   34.5230 N   0  0  0  0  0  0  0  0  0  0  0  0
   37.7590   26.6290   34.1140 H   0  0  0  0  0  0  0  0  0  0  0  0
   35.2110   27.9100   30.9510 H   0  0  0  0  0  0  0  0  0  0  0  0
   37.0830   26.0810   31.6300 N   0  0  0  0  0  0  0  0  0  0  0  0
   36.6140   24.8300   31.7150 C   0  0  0  0  0  0  0  0  0  0  0  0
   37.1740   23.8110   30.9450 C   0  0  0  0  0  0  0  0  0  0  0  0
   38.2140   24.2480   30.1370 C   0  0  0  0  0  0  0  0  0  0  0  0
   38.7480   23.3300   29.4180 O   0  0  0  0  0  0  0  0  0  0  0  0
   38.7050   25.4870   30.0320 N   0  0  0  0  0  0  0  0  0  0  0  0
   38.1080   26.4200   30.8090 C   0  0  0  0  0  0  0  0  0  0  0  0
   38.5590   27.5950   30.7220 O   0  0  0  0  0  0  0  0  0  0  0  0
   35.7950   24.5860   32.3770 H   0  0  0  0  0  0  0  0  0  0  0  0
   36.8580   22.7940   30.9560 H   0  0  0  0  0  0  0  0  0  0  0  0
   39.4900   25.6930   29.3890 H   0  0  0  0  0  0  0  0  0  0  0  0
   35.0830   30.2000   34.9240 C   0  0  0  0  0  0  0  0  0  0  0  0
   33.7210   30.3540   35.1080 C   0  0  0  0  0  0  0  0  0  0  0  0
   33.0760   29.6500   34.5760 H   0  0  0  0  0  0  0  0  0  0  0  0
   33.2190   31.3430   35.9160 C   0  0  0  0  0  3  0  0  0  0  0  0
   34.0570   32.2230   36.5780 C   0  0  0  0  0  0  0  0  0  0  0  0
   33.6330   32.9850   37.2020 H   0  0  0  0  0  0  0  0  0  0  0  0
   35.4140   32.0780   36.4030 C   0  0  0  0  0  0  0  0  0  0  0  0
   36.0420   32.7870   36.9380 H   0  0  0  0  0  0  0  0  0  0  0  0
   35.9060   31.0650   35.5750 C   0  0  0  0  0  3  0  0  0  0  0  0
  1  7  1  0  0  0  0
  1  6  1  0  0  0  0
  2  1  2  0  0  0  0
  3  2  1  0  0  0  0
  3  4  2  0  0  0  0
  4  5  1  0  0  0  0
  5  6  2  0  0  0  0
  5 20  1  0  0  0  0
  8  3  1  0  0  0  0
  9 10  1  0  0  0  0
  9  2  1  0  0  0  0
 10 17  1  0  0  0  0
 11 18  1  0  0  0  0
 11 10  2  0  0  0  0
 12 11  1  0  0  0  0
 13 12  2  0  0  0  0
 14 12  1  0  0  0  0
 14 15  1  0  0  0  0
 15  9  1  0  0  0  0
 16 15  2  0  0  0  0
 19 14  1  0  0  0  0
 20 21  2  0  0  0  0
 20 28  1  0  0  0  0
 21 23  1  0  0  0  0
 22 21  1  0  0  0  0
 23 24  2  0  0  0  0
 24 25  1  0  0  0  0
 26 24  1  0  0  0  0
 26 27  1  0  0  0  0
 28 26  2  0  0  0  0
M  END
>  <minimizedAffinity>
-5.26162004

$$$$

 OpenBabel03272500033D

 28 30  0  0  0  0  0  0  0  0999 V2000
   39.0810   27.0680   33.4540 C   0  0  0  0  0  0  0  0  0  0  0  0
   38.1330   26.6580   32.4830 C   0  0  0  0  0  0  0  0  0  0  0  0
   37.3930   25.5200   32.7720 C   0  0  0  0  0  0  0  0  0  0  0  0
   37.6110   24.8710   33.9510 N   0  0  0  0  0  0  0  0  0  0  0  0
   38.5120   25.2830   34.8460 C   0  0  0  0  0  0  0  0  0  0  0  0
   39.2500   26.3810   34.6030 N   0  0  0  0  0  0  0  0  0  0  0  0
   39.6820   27.9540   33.2660 H   0  0  0  0  0  0  0  0  0  0  0  0
   36.6700   25.2070   32.0330 H   0  0  0  0  0  0  0  0  0  0  0  0
   38.0150   27.4350   31.2970 N   0  0  0  0  0  0  0  0  0  0  0  0
   37.3020   28.5680   31.2640 C   0  0  0  0  0  0  0  0  0  0  0  0
   37.2040   29.3080   30.0850 C   0  0  0  0  0  0  0  0  0  0  0  0
   37.9020   28.7420   29.0280 C   0  0  0  0  0  0  0  0  0  0  0  0
   37.8290   29.4030   27.9320 O   0  0  0  0  0  0  0  0  0  0  0  0
   38.6200   27.6150   29.0300 N   0  0  0  0  0  0  0  0  0  0  0  0
   38.6680   26.9540   30.2100 C   0  0  0  0  0  0  0  0  0  0  0  0
   39.3420   25.8870   30.2300 O   0  0  0  0  0  0  0  0  0  0  0  0
   36.7900   28.9310   32.1440 H   0  0  0  0  0  0  0  0  0  0  0  0
   36.6580   30.2160   29.9790 H   0  0  0  0  0  0  0  0  0  0  0  0
   39.1000   27.2910   28.1720 H   0  0  0  0  0  0  0  0  0  0  0  0
   38.7030   24.5460   36.0920 C   0  0  0  0  0  0  0  0  0  0  0  0
   39.6640   23.5540   36.1730 C   0  0  0  0  0  0  0  0  0  0  0  0
   40.2480   23.3700   35.2680 H   0  0  0  0  0  0  0  0  0  0  0  0
   39.8610   22.8480   37.3330 C   0  0  0  0  0  3  0  0  0  0  0  0
   39.1080   23.1010   38.4640 C   0  0  0  0  0  0  0  0  0  0  0  0
   39.2870   22.5310   39.3550 H   0  0  0  0  0  0  0  0  0  0  0  0
   38.1490   24.0860   38.3960 C   0  0  0  0  0  0  0  0  0  0  0  0
   37.5760   24.2570   39.3050 H   0  0  0  0  0  0  0  0  0  0  0  0
   37.9620   24.7940   37.2050 C   0  0  0  0  0  3  0  0  0  0  0  0
  1  6  1  0  0  0  0
  2  3  1  0  0  0  0
  2  1  2  0  0  0  0
  3  4  2  0  0  0  0
  4  5  1  0  0  0  0
  5 20  1  0  0  0  0
  6  5  2  0  0  0  0
  7  1  1  0  0  0  0
  8  3  1  0  0  0  0
  9  2  1  0  0  0  0
 10  9  1  0  0  0  0
 10 17  1  0  0  0  0
 11 10  2  0  0  0  0
 12 14  1  0  0  0  0
 12 11  1  0  0  0  0
 13 12  2  0  0  0  0
 14 15  1  0  0  0  0
 15 16  2  0  0  0  0
 15  9  1  0  0  0  0
 18 11  1  0  0  0  0
 19 14  1  0  0  0  0
 20 21  2  0  0  0  0
 20 28  1  0  0  0  0
 21 23  1  0  0  0  0
 22 21  1  0  0  0  0
 23 24  2  0  0  0  0
 24 25  1  0  0  0  0
 26 24  1  0  0  0  0
 26 27  1  0  0  0  0
 28 26  2  0  0  0  0
M  END
>  <minimizedAffinity>
-5.25255728

$$$$
