
 OpenBabel03272504493D

 27 29  0  0  0  0  0  0  0  0999 V2000
   37.3600   27.7490   34.9490 C   0  0  0  0  0  0  0  0  0  0  0  0
   37.0290   27.4290   33.6250 C   0  0  0  0  0  0  0  0  0  0  0  0
   37.2570   26.1260   33.2070 C   0  0  0  0  0  0  0  0  0  0  0  0
   37.7830   25.2420   34.1030 N   0  0  0  0  0  0  0  0  0  0  0  0
   38.0900   25.5890   35.3730 C   0  0  0  0  0  0  0  0  0  0  0  0
   37.8750   26.8410   35.7860 N   0  0  0  0  0  0  0  0  0  0  0  0
   37.2050   28.7430   35.3290 H   0  0  0  0  0  0  0  0  0  0  0  0
   37.0130   25.8440   32.1940 H   0  0  0  0  0  0  0  0  0  0  0  0
   38.6460   24.5970   36.2730 C   0  0  0  0  0  0  0  0  0  0  0  0
   38.0780   24.3810   37.5000 C   0  0  0  0  0  0  0  0  0  0  0  0
   38.5530   23.4560   38.3990 C   0  0  0  0  0  0  0  0  0  0  0  0
   39.6540   22.7500   37.9820 C   0  0  0  0  0  0  0  0  0  0  0  0
   40.2640   22.9340   36.7480 C   0  0  0  0  0  0  0  0  0  0  0  0
   39.7250   23.8780   35.9120 N   0  0  0  0  0  0  0  0  0  0  0  0
   37.2020   24.9880   37.7520 H   0  0  0  0  0  0  0  0  0  0  0  0
   38.0630   23.3280   39.3550 H   0  0  0  0  0  0  0  0  0  0  0  0
   40.0750   22.0020   38.6540 H   0  0  0  0  0  0  0  0  0  0  0  0
   41.1230   22.3440   36.4890 H   0  0  0  0  0  0  0  0  0  0  0  0
   36.4650   28.4430   32.7460 C   0  0  0  0  0  0  0  0  0  0  0  0
   36.8140   28.6200   31.4300 C   0  0  0  0  0  0  0  0  0  0  0  0
   37.5650   27.9310   31.0590 H   0  0  0  0  0  0  0  0  0  0  0  0
   36.2810   29.5780   30.6060 C   0  0  0  0  0  3  0  0  0  0  0  0
   35.3330   30.4120   31.1560 C   0  0  0  0  0  0  0  0  0  0  0  0
   34.8390   31.2050   30.6100 H   0  0  0  0  0  0  0  0  0  0  0  0
   34.9530   30.2670   32.4810 C   0  0  0  0  0  0  0  0  0  0  0  0
   34.1960   30.9260   32.9230 H   0  0  0  0  0  0  0  0  0  0  0  0
   35.5130   29.2840   33.2850 C   0  0  0  0  0  3  0  0  0  0  0  0
  1  7  1  0  0  0  0
  1  6  1  0  0  0  0
  2  1  2  0  0  0  0
  3  2  1  0  0  0  0
  3  4  2  0  0  0  0
  4  5  1  0  0  0  0
  5  6  2  0  0  0  0
  5  9  1  0  0  0  0
  8  3  1  0  0  0  0
  9 10  1  0  0  0  0
 10 15  1  0  0  0  0
 10 11  2  0  0  0  0
 11 16  1  0  0  0  0
 12 11  1  0  0  0  0
 12 17  1  0  0  0  0
 13 12  2  0  0  0  0
 14  9  2  0  0  0  0
 14 13  1  0  0  0  0
 18 13  1  0  0  0  0
 19 27  1  0  0  0  0
 19  2  1  0  0  0  0
 20 19  2  0  0  0  0
 21 20  1  0  0  0  0
 22 23  2  0  0  0  0
 22 20  1  0  0  0  0
 23 25  1  0  0  0  0
 24 23  1  0  0  0  0
 25 26  1  0  0  0  0
 25 27  2  0  0  0  0
M  END
>  <minimizedAffinity>
-5.34117317

$$$$

 OpenBabel03272504493D

 27 29  0  0  0  0  0  0  0  0999 V2000
   37.8580   26.8490   35.6980 C   0  0  0  0  0  0  0  0  0  0  0  0
   38.1250   25.5570   35.2240 C   0  0  0  0  0  0  0  0  0  0  0  0
   37.7710   25.2720   33.9130 C   0  0  0  0  0  0  0  0  0  0  0  0
   37.1900   26.2600   33.1710 N   0  0  0  0  0  0  0  0  0  0  0  0
   36.9470   27.4950   33.6650 C   0  0  0  0  0  0  0  0  0  0  0  0
   37.2850   27.7790   34.9260 N   0  0  0  0  0  0  0  0  0  0  0  0
   38.1110   27.1270   36.7050 H   0  0  0  0  0  0  0  0  0  0  0  0
   37.9620   24.2880   33.5140 H   0  0  0  0  0  0  0  0  0  0  0  0
   36.3280   28.4970   32.8200 C   0  0  0  0  0  0  0  0  0  0  0  0
   36.8710   28.8060   31.6010 C   0  0  0  0  0  0  0  0  0  0  0  0
   36.3340   29.7430   30.7510 C   0  0  0  0  0  0  0  0  0  0  0  0
   35.1980   30.3620   31.2100 C   0  0  0  0  0  0  0  0  0  0  0  0
   34.6110   30.0820   32.4370 C   0  0  0  0  0  0  0  0  0  0  0  0
   35.2130   29.1330   33.2220 N   0  0  0  0  0  0  0  0  0  0  0  0
   37.7780   28.2630   31.3140 H   0  0  0  0  0  0  0  0  0  0  0  0
   36.8070   29.9450   29.7990 H   0  0  0  0  0  0  0  0  0  0  0  0
   34.7270   31.1150   30.5780 H   0  0  0  0  0  0  0  0  0  0  0  0
   33.7200   30.6070   32.7290 H   0  0  0  0  0  0  0  0  0  0  0  0
   38.7560   24.5730   36.0920 C   0  0  0  0  0  0  0  0  0  0  0  0
   39.8820   23.8560   35.7740 C   0  0  0  0  0  0  0  0  0  0  0  0
   40.3020   24.0720   34.7980 H   0  0  0  0  0  0  0  0  0  0  0  0
   40.4710   22.9280   36.5960 C   0  0  0  0  0  3  0  0  0  0  0  0
   39.8740   22.7150   37.8180 C   0  0  0  0  0  0  0  0  0  0  0  0
   40.2420   22.0110   38.5530 H   0  0  0  0  0  0  0  0  0  0  0  0
   38.7350   23.4180   38.1770 C   0  0  0  0  0  0  0  0  0  0  0  0
   38.2580   23.2540   39.1510 H   0  0  0  0  0  0  0  0  0  0  0  0
   38.1680   24.3510   37.3200 C   0  0  0  0  0  3  0  0  0  0  0  0
  1  7  1  0  0  0  0
  2  1  1  0  0  0  0
  2 19  1  0  0  0  0
  3  2  2  0  0  0  0
  4  5  2  0  0  0  0
  4  3  1  0  0  0  0
  5  6  1  0  0  0  0
  6  1  2  0  0  0  0
  8  3  1  0  0  0  0
  9 14  1  0  0  0  0
  9  5  1  0  0  0  0
 10  9  2  0  0  0  0
 11 12  2  0  0  0  0
 11 10  1  0  0  0  0
 12 13  1  0  0  0  0
 13 18  1  0  0  0  0
 13 14  2  0  0  0  0
 15 10  1  0  0  0  0
 16 11  1  0  0  0  0
 17 12  1  0  0  0  0
 19 27  1  0  0  0  0
 20 19  2  0  0  0  0
 20 22  1  0  0  0  0
 21 20  1  0  0  0  0
 22 23  2  0  0  0  0
 23 25  1  0  0  0  0
 23 24  1  0  0  0  0
 25 26  1  0  0  0  0
 27 25  2  0  0  0  0
M  END
>  <minimizedAffinity>
-5.24581146

$$$$

 OpenBabel03272504493D

 27 29  0  0  0  0  0  0  0  0999 V2000
   37.7130   25.3280   34.0990 C   0  0  0  0  0  0  0  0  0  0  0  0
   38.1100   25.6580   35.4020 C   0  0  0  0  0  0  0  0  0  0  0  0
   37.9360   26.9730   35.8100 C   0  0  0  0  0  0  0  0  0  0  0  0
   37.3920   27.8570   34.9240 N   0  0  0  0  0  0  0  0  0  0  0  0
   37.0220   27.5010   33.6740 C   0  0  0  0  0  0  0  0  0  0  0  0
   37.1850   26.2380   33.2710 N   0  0  0  0  0  0  0  0  0  0  0  0
   37.8240   24.3250   33.7280 H   0  0  0  0  0  0  0  0  0  0  0  0
   38.2310   27.2620   36.8070 H   0  0  0  0  0  0  0  0  0  0  0  0
   36.4480   28.4930   32.7860 C   0  0  0  0  0  0  0  0  0  0  0  0
   35.5810   29.4360   33.2690 C   0  0  0  0  0  0  0  0  0  0  0  0
   35.0040   30.4050   32.4830 C   0  0  0  0  0  0  0  0  0  0  0  0
   35.3580   30.3660   31.1570 C   0  0  0  0  0  0  0  0  0  0  0  0
   36.2320   29.4300   30.6210 C   0  0  0  0  0  0  0  0  0  0  0  0
   36.7630   28.5000   31.4770 N   0  0  0  0  0  0  0  0  0  0  0  0
   35.3550   29.3940   34.3400 H   0  0  0  0  0  0  0  0  0  0  0  0
   34.3260   31.1250   32.9210 H   0  0  0  0  0  0  0  0  0  0  0  0
   34.9310   31.1110   30.4850 H   0  0  0  0  0  0  0  0  0  0  0  0
   36.4640   29.4620   29.5720 H   0  0  0  0  0  0  0  0  0  0  0  0
   38.6760   24.6390   36.2750 C   0  0  0  0  0  0  0  0  0  0  0  0
   38.2080   24.3360   37.5300 C   0  0  0  0  0  0  0  0  0  0  0  0
   37.3530   24.9200   37.8530 H   0  0  0  0  0  0  0  0  0  0  0  0
   38.7460   23.3770   38.3490 C   0  0  0  0  0  3  0  0  0  0  0  0
   39.8310   22.6820   37.8630 C   0  0  0  0  0  0  0  0  0  0  0  0
   40.3430   21.9020   38.4120 H   0  0  0  0  0  0  0  0  0  0  0  0
   40.3330   22.9580   36.6010 C   0  0  0  0  0  0  0  0  0  0  0  0
   41.1960   22.4050   36.2070 H   0  0  0  0  0  0  0  0  0  0  0  0
   39.7620   23.9360   35.7980 C   0  0  0  0  0  3  0  0  0  0  0  0
  1  2  1  0  0  0  0
  2  3  2  0  0  0  0
  2 19  1  0  0  0  0
  3  8  1  0  0  0  0
  4  3  1  0  0  0  0
  5  4  2  0  0  0  0
  6  5  1  0  0  0  0
  6  1  2  0  0  0  0
  7  1  1  0  0  0  0
  9 10  1  0  0  0  0
  9  5  1  0  0  0  0
 10 15  1  0  0  0  0
 11 16  1  0  0  0  0
 11 10  2  0  0  0  0
 12 11  1  0  0  0  0
 13 12  2  0  0  0  0
 13 14  1  0  0  0  0
 14  9  2  0  0  0  0
 17 12  1  0  0  0  0
 18 13  1  0  0  0  0
 19 20  1  0  0  0  0
 20 21  1  0  0  0  0
 20 22  2  0  0  0  0
 23 22  1  0  0  0  0
 23 24  1  0  0  0  0
 25 23  2  0  0  0  0
 26 25  1  0  0  0  0
 27 19  2  0  0  0  0
 27 25  1  0  0  0  0
M  END
>  <minimizedAffinity>
-5.24069023

$$$$

 OpenBabel03272504493D

 27 29  0  0  0  0  0  0  0  0999 V2000
   37.3810   27.7190   35.0020 C   0  0  0  0  0  0  0  0  0  0  0  0
   37.0150   27.4210   33.6830 C   0  0  0  0  0  0  0  0  0  0  0  0
   37.2440   26.1290   33.2320 C   0  0  0  0  0  0  0  0  0  0  0  0
   37.8060   25.2330   34.0960 N   0  0  0  0  0  0  0  0  0  0  0  0
   38.1460   25.5590   35.3630 C   0  0  0  0  0  0  0  0  0  0  0  0
   37.9300   26.8000   35.8060 N   0  0  0  0  0  0  0  0  0  0  0  0
   37.2270   28.7030   35.4060 H   0  0  0  0  0  0  0  0  0  0  0  0
   36.9740   25.8640   32.2220 H   0  0  0  0  0  0  0  0  0  0  0  0
   38.7380   24.5560   36.2270 C   0  0  0  0  0  0  0  0  0  0  0  0
   39.8460   23.8610   35.8220 C   0  0  0  0  0  0  0  0  0  0  0  0
   40.4570   22.9000   36.5930 C   0  0  0  0  0  0  0  0  0  0  0  0
   39.8740   22.6770   37.8150 C   0  0  0  0  0  0  0  0  0  0  0  0
   38.7510   23.3560   38.2690 C   0  0  0  0  0  0  0  0  0  0  0  0
   38.2060   24.2990   37.4360 N   0  0  0  0  0  0  0  0  0  0  0  0
   40.2460   24.1040   34.8320 H   0  0  0  0  0  0  0  0  0  0  0  0
   41.3320   22.3830   36.2210 H   0  0  0  0  0  0  0  0  0  0  0  0
   40.3160   21.9250   38.4700 H   0  0  0  0  0  0  0  0  0  0  0  0
   38.3510   23.1270   39.2390 H   0  0  0  0  0  0  0  0  0  0  0  0
   36.4140   28.4450   32.8400 C   0  0  0  0  0  0  0  0  0  0  0  0
   35.3880   29.2720   33.2240 C   0  0  0  0  0  0  0  0  0  0  0  0
   35.0310   29.1190   34.2360 H   0  0  0  0  0  0  0  0  0  0  0  0
   34.8250   30.2350   32.4240 C   0  0  0  0  0  3  0  0  0  0  0  0
   35.3370   30.3630   31.1530 C   0  0  0  0  0  0  0  0  0  0  0  0
   34.9790   31.0830   30.4290 H   0  0  0  0  0  0  0  0  0  0  0  0
   36.3730   29.5470   30.7270 C   0  0  0  0  0  0  0  0  0  0  0  0
   36.7860   29.6470   29.7160 H   0  0  0  0  0  0  0  0  0  0  0  0
   36.9190   28.5840   31.5640 C   0  0  0  0  0  3  0  0  0  0  0  0
  1  7  1  0  0  0  0
  1  6  1  0  0  0  0
  2  1  2  0  0  0  0
  3  2  1  0  0  0  0
  3  4  2  0  0  0  0
  4  5  1  0  0  0  0
  5  6  2  0  0  0  0
  5  9  1  0  0  0  0
  8  3  1  0  0  0  0
  9 14  1  0  0  0  0
 10  9  2  0  0  0  0
 10 11  1  0  0  0  0
 11 12  2  0  0  0  0
 12 13  1  0  0  0  0
 12 17  1  0  0  0  0
 13 18  1  0  0  0  0
 14 13  2  0  0  0  0
 15 10  1  0  0  0  0
 16 11  1  0  0  0  0
 19 20  1  0  0  0  0
 19  2  1  0  0  0  0
 20 21  1  0  0  0  0
 22 20  2  0  0  0  0
 23 22  1  0  0  0  0
 24 23  1  0  0  0  0
 25 23  2  0  0  0  0
 25 27  1  0  0  0  0
 26 25  1  0  0  0  0
 27 19  2  0  0  0  0
M  END
>  <minimizedAffinity>
-5.2035265

$$$$

 OpenBabel03272504493D

 27 29  0  0  0  0  0  0  0  0999 V2000
   38.0020   26.7830   35.6760 C   0  0  0  0  0  0  0  0  0  0  0  0
   38.1810   25.4580   35.2560 C   0  0  0  0  0  0  0  0  0  0  0  0
   37.7630   25.1320   33.9740 C   0  0  0  0  0  0  0  0  0  0  0  0
   37.2090   26.1140   33.2050 N   0  0  0  0  0  0  0  0  0  0  0  0
   37.0520   27.3830   33.6470 C   0  0  0  0  0  0  0  0  0  0  0  0
   37.4520   27.7070   34.8790 N   0  0  0  0  0  0  0  0  0  0  0  0
   38.3070   27.0930   36.6590 H   0  0  0  0  0  0  0  0  0  0  0  0
   37.8850   24.1210   33.6170 H   0  0  0  0  0  0  0  0  0  0  0  0
   36.4570   28.3770   32.7750 C   0  0  0  0  0  0  0  0  0  0  0  0
   35.3220   29.0410   33.1570 C   0  0  0  0  0  0  0  0  0  0  0  0
   34.7090   29.9950   32.3800 C   0  0  0  0  0  0  0  0  0  0  0  0
   35.3170   30.2440   31.1750 C   0  0  0  0  0  0  0  0  0  0  0  0
   36.4690   29.5980   30.7450 C   0  0  0  0  0  0  0  0  0  0  0  0
   37.0150   28.6600   31.5830 N   0  0  0  0  0  0  0  0  0  0  0  0
   34.9030   28.7790   34.1340 H   0  0  0  0  0  0  0  0  0  0  0  0
   33.8130   30.4880   32.7330 H   0  0  0  0  0  0  0  0  0  0  0  0
   34.8760   30.9930   30.5170 H   0  0  0  0  0  0  0  0  0  0  0  0
   36.8900   29.8460   29.7890 H   0  0  0  0  0  0  0  0  0  0  0  0
   38.7890   24.4810   36.1490 C   0  0  0  0  0  0  0  0  0  0  0  0
   39.9050   23.7380   35.8540 C   0  0  0  0  0  0  0  0  0  0  0  0
   40.3340   23.9260   34.8760 H   0  0  0  0  0  0  0  0  0  0  0  0
   40.4720   22.8180   36.6980 C   0  0  0  0  0  3  0  0  0  0  0  0
   39.8650   22.6410   37.9210 C   0  0  0  0  0  0  0  0  0  0  0  0
   40.2160   21.9470   38.6730 H   0  0  0  0  0  0  0  0  0  0  0  0
   38.7360   23.3710   38.2570 C   0  0  0  0  0  0  0  0  0  0  0  0
   38.2500   23.2360   39.2320 H   0  0  0  0  0  0  0  0  0  0  0  0
   38.1900   24.2950   37.3780 C   0  0  0  0  0  3  0  0  0  0  0  0
  1  7  1  0  0  0  0
  2  1  1  0  0  0  0
  2 19  1  0  0  0  0
  3  2  2  0  0  0  0
  4  5  2  0  0  0  0
  4  3  1  0  0  0  0
  5  6  1  0  0  0  0
  6  1  2  0  0  0  0
  8  3  1  0  0  0  0
  9 10  1  0  0  0  0
  9  5  1  0  0  0  0
 10 15  1  0  0  0  0
 11 16  1  0  0  0  0
 11 10  2  0  0  0  0
 12 11  1  0  0  0  0
 13 12  2  0  0  0  0
 13 14  1  0  0  0  0
 14  9  2  0  0  0  0
 17 12  1  0  0  0  0
 18 13  1  0  0  0  0
 19 27  1  0  0  0  0
 20 19  2  0  0  0  0
 20 22  1  0  0  0  0
 21 20  1  0  0  0  0
 22 23  2  0  0  0  0
 23 25  1  0  0  0  0
 23 24  1  0  0  0  0
 25 26  1  0  0  0  0
 27 25  2  0  0  0  0
M  END
>  <minimizedAffinity>
-5.17797995

$$$$

 OpenBabel03272504493D

 27 29  0  0  0  0  0  0  0  0999 V2000
   35.0960   23.9780   31.1360 C   0  0  0  0  0  0  0  0  0  0  0  0
   36.0670   23.2500   31.8380 C   0  0  0  0  0  0  0  0  0  0  0  0
   37.1250   23.9610   32.3860 C   0  0  0  0  0  0  0  0  0  0  0  0
   37.1550   25.3140   32.2110 N   0  0  0  0  0  0  0  0  0  0  0  0
   36.1980   25.9810   31.5260 C   0  0  0  0  0  0  0  0  0  0  0  0
   35.1760   25.3060   30.9940 N   0  0  0  0  0  0  0  0  0  0  0  0
   34.2540   23.4800   30.6900 H   0  0  0  0  0  0  0  0  0  0  0  0
   37.8910   23.4340   32.9330 H   0  0  0  0  0  0  0  0  0  0  0  0
   36.2920   27.4200   31.3800 C   0  0  0  0  0  0  0  0  0  0  0  0
   35.9480   28.2450   32.4180 C   0  0  0  0  0  0  0  0  0  0  0  0
   36.0150   29.6160   32.3460 C   0  0  0  0  0  0  0  0  0  0  0  0
   36.4560   30.1160   31.1470 C   0  0  0  0  0  0  0  0  0  0  0  0
   36.8160   29.3200   30.0670 C   0  0  0  0  0  0  0  0  0  0  0  0
   36.7190   27.9620   30.2240 N   0  0  0  0  0  0  0  0  0  0  0  0
   35.6070   27.7610   33.3390 H   0  0  0  0  0  0  0  0  0  0  0  0
   35.7310   30.2180   33.2000 H   0  0  0  0  0  0  0  0  0  0  0  0
   36.5310   31.1970   31.0320 H   0  0  0  0  0  0  0  0  0  0  0  0
   37.1530   29.7830   29.1580 H   0  0  0  0  0  0  0  0  0  0  0  0
   35.9440   21.8060   31.9760 C   0  0  0  0  0  0  0  0  0  0  0  0
   35.6040   21.1570   33.1370 C   0  0  0  0  0  0  0  0  0  0  0  0
   35.4210   21.8050   33.9870 H   0  0  0  0  0  0  0  0  0  0  0  0
   35.4920   19.7950   33.2620 C   0  0  0  0  0  3  0  0  0  0  0  0
   35.7420   19.0460   32.1340 C   0  0  0  0  0  0  0  0  0  0  0  0
   35.6860   17.9660   32.1040 H   0  0  0  0  0  0  0  0  0  0  0  0
   36.0880   19.6630   30.9430 C   0  0  0  0  0  0  0  0  0  0  0  0
   36.2850   19.0710   30.0400 H   0  0  0  0  0  0  0  0  0  0  0  0
   36.1910   21.0440   30.8530 C   0  0  0  0  0  3  0  0  0  0  0  0
  1  2  1  0  0  0  0
  2 19  1  0  0  0  0
  2  3  2  0  0  0  0
  3  8  1  0  0  0  0
  4  3  1  0  0  0  0
  5  4  2  0  0  0  0
  6  1  2  0  0  0  0
  6  5  1  0  0  0  0
  7  1  1  0  0  0  0
  9  5  1  0  0  0  0
  9 10  1  0  0  0  0
 10 15  1  0  0  0  0
 11 10  2  0  0  0  0
 11 16  1  0  0  0  0
 12 11  1  0  0  0  0
 13 14  1  0  0  0  0
 13 12  2  0  0  0  0
 14  9  2  0  0  0  0
 17 12  1  0  0  0  0
 18 13  1  0  0  0  0
 19 20  1  0  0  0  0
 20 22  2  0  0  0  0
 20 21  1  0  0  0  0
 23 22  1  0  0  0  0
 24 23  1  0  0  0  0
 25 23  2  0  0  0  0
 26 25  1  0  0  0  0
 27 25  1  0  0  0  0
 27 19  2  0  0  0  0
M  END
>  <minimizedAffinity>
-5.15307522

$$$$

 OpenBabel03272504493D

 27 29  0  0  0  0  0  0  0  0999 V2000
   38.9060   26.3220   32.9310 C   0  0  0  0  0  0  0  0  0  0  0  0
   37.8120   27.1970   32.8980 C   0  0  0  0  0  0  0  0  0  0  0  0
   36.9720   27.2120   34.0030 C   0  0  0  0  0  0  0  0  0  0  0  0
   37.2620   26.3810   35.0460 N   0  0  0  0  0  0  0  0  0  0  0  0
   38.3290   25.5500   35.0410 C   0  0  0  0  0  0  0  0  0  0  0  0
   39.1430   25.5280   33.9820 N   0  0  0  0  0  0  0  0  0  0  0  0
   39.5900   26.2670   32.1040 H   0  0  0  0  0  0  0  0  0  0  0  0
   36.1190   27.8730   34.0120 H   0  0  0  0  0  0  0  0  0  0  0  0
   38.5780   24.6960   36.1850 C   0  0  0  0  0  0  0  0  0  0  0  0
   37.8810   24.8780   37.3490 C   0  0  0  0  0  0  0  0  0  0  0  0
   38.0670   24.1020   38.4700 C   0  0  0  0  0  0  0  0  0  0  0  0
   39.0150   23.1180   38.3450 C   0  0  0  0  0  0  0  0  0  0  0  0
   39.7470   22.8950   37.1860 C   0  0  0  0  0  0  0  0  0  0  0  0
   39.4970   23.7150   36.1160 N   0  0  0  0  0  0  0  0  0  0  0  0
   37.1430   25.6870   37.3610 H   0  0  0  0  0  0  0  0  0  0  0  0
   37.4850   24.2910   39.3620 H   0  0  0  0  0  0  0  0  0  0  0  0
   39.2050   22.4710   39.2020 H   0  0  0  0  0  0  0  0  0  0  0  0
   40.4730   22.1040   37.1630 H   0  0  0  0  0  0  0  0  0  0  0  0
   37.5900   28.0500   31.7390 C   0  0  0  0  0  0  0  0  0  0  0  0
   38.2820   27.9600   30.5570 C   0  0  0  0  0  0  0  0  0  0  0  0
   39.0370   27.1820   30.5270 H   0  0  0  0  0  0  0  0  0  0  0  0
   38.0710   28.7670   29.4680 C   0  0  0  0  0  3  0  0  0  0  0  0
   37.0940   29.7290   29.5900 C   0  0  0  0  0  0  0  0  0  0  0  0
   36.8320   30.4260   28.8040 H   0  0  0  0  0  0  0  0  0  0  0  0
   36.3720   29.8530   30.7670 C   0  0  0  0  0  0  0  0  0  0  0  0
   35.5900   30.6160   30.8680 H   0  0  0  0  0  0  0  0  0  0  0  0
   36.6130   29.0170   31.8480 C   0  0  0  0  0  3  0  0  0  0  0  0
  1  6  1  0  0  0  0
  2  1  2  0  0  0  0
  2  3  1  0  0  0  0
  3  8  1  0  0  0  0
  3  4  2  0  0  0  0
  5  4  1  0  0  0  0
  5  9  1  0  0  0  0
  6  5  2  0  0  0  0
  7  1  1  0  0  0  0
  9 10  1  0  0  0  0
 10 15  1  0  0  0  0
 10 11  2  0  0  0  0
 11 16  1  0  0  0  0
 12 11  1  0  0  0  0
 12 17  1  0  0  0  0
 13 12  2  0  0  0  0
 14  9  2  0  0  0  0
 14 13  1  0  0  0  0
 18 13  1  0  0  0  0
 19 27  1  0  0  0  0
 19  2  1  0  0  0  0
 20 19  2  0  0  0  0
 21 20  1  0  0  0  0
 22 23  2  0  0  0  0
 22 20  1  0  0  0  0
 23 25  1  0  0  0  0
 24 23  1  0  0  0  0
 25 26  1  0  0  0  0
 25 27  2  0  0  0  0
M  END
>  <minimizedAffinity>
-5.13809013

$$$$

 OpenBabel03272504493D

 27 29  0  0  0  0  0  0  0  0999 V2000
   35.1150   24.3860   30.9580 C   0  0  0  0  0  0  0  0  0  0  0  0
   36.0570   23.6250   31.6640 C   0  0  0  0  0  0  0  0  0  0  0  0
   37.0350   24.3120   32.3680 C   0  0  0  0  0  0  0  0  0  0  0  0
   37.0200   25.6760   32.3320 N   0  0  0  0  0  0  0  0  0  0  0  0
   36.0940   26.3760   31.6380 C   0  0  0  0  0  0  0  0  0  0  0  0
   35.1480   25.7240   30.9570 N   0  0  0  0  0  0  0  0  0  0  0  0
   34.3350   23.9080   30.3940 H   0  0  0  0  0  0  0  0  0  0  0  0
   37.7760   23.7580   32.9230 H   0  0  0  0  0  0  0  0  0  0  0  0
   36.1370   27.8250   31.6450 C   0  0  0  0  0  0  0  0  0  0  0  0
   36.5720   28.5100   30.5420 C   0  0  0  0  0  0  0  0  0  0  0  0
   36.6350   29.8820   30.4820 C   0  0  0  0  0  0  0  0  0  0  0  0
   36.2280   30.5340   31.6190 C   0  0  0  0  0  0  0  0  0  0  0  0
   35.7790   29.8830   32.7610 C   0  0  0  0  0  0  0  0  0  0  0  0
   35.7480   28.5130   32.7340 N   0  0  0  0  0  0  0  0  0  0  0  0
   36.8770   27.9100   29.6780 H   0  0  0  0  0  0  0  0  0  0  0  0
   36.9870   30.3690   29.5820 H   0  0  0  0  0  0  0  0  0  0  0  0
   36.2560   31.6240   31.6290 H   0  0  0  0  0  0  0  0  0  0  0  0
   35.4750   30.4610   33.6140 H   0  0  0  0  0  0  0  0  0  0  0  0
   35.9850   22.1710   31.6460 C   0  0  0  0  0  0  0  0  0  0  0  0
   35.0220   21.4260   32.2810 C   0  0  0  0  0  0  0  0  0  0  0  0
   34.2790   22.0040   32.8200 H   0  0  0  0  0  0  0  0  0  0  0  0
   34.9600   20.0560   32.2620 C   0  0  0  0  0  3  0  0  0  0  0  0
   35.9420   19.4010   31.5550 C   0  0  0  0  0  0  0  0  0  0  0  0
   36.0030   18.3240   31.4640 H   0  0  0  0  0  0  0  0  0  0  0  0
   36.9330   20.1150   30.9000 C   0  0  0  0  0  0  0  0  0  0  0  0
   37.7160   19.5970   30.3320 H   0  0  0  0  0  0  0  0  0  0  0  0
   36.9630   21.5020   30.9390 C   0  0  0  0  0  3  0  0  0  0  0  0
  1  2  1  0  0  0  0
  2  3  2  0  0  0  0
  3  8  1  0  0  0  0
  4  3  1  0  0  0  0
  5  9  1  0  0  0  0
  5  4  2  0  0  0  0
  6  1  2  0  0  0  0
  6  5  1  0  0  0  0
  7  1  1  0  0  0  0
  9 14  1  0  0  0  0
 10  9  2  0  0  0  0
 11 10  1  0  0  0  0
 11 12  2  0  0  0  0
 12 17  1  0  0  0  0
 12 13  1  0  0  0  0
 13 18  1  0  0  0  0
 14 13  2  0  0  0  0
 15 10  1  0  0  0  0
 16 11  1  0  0  0  0
 19  2  1  0  0  0  0
 19 20  1  0  0  0  0
 20 21  1  0  0  0  0
 22 20  2  0  0  0  0
 23 22  1  0  0  0  0
 24 23  1  0  0  0  0
 25 27  1  0  0  0  0
 25 23  2  0  0  0  0
 26 25  1  0  0  0  0
 27 19  2  0  0  0  0
M  END
>  <minimizedAffinity>
-5.09493828

$$$$

 OpenBabel03272504493D

 27 29  0  0  0  0  0  0  0  0999 V2000
   37.0490   25.4770   32.2560 C   0  0  0  0  0  0  0  0  0  0  0  0
   36.0770   26.2430   31.5970 C   0  0  0  0  0  0  0  0  0  0  0  0
   35.0750   25.5600   30.9240 C   0  0  0  0  0  0  0  0  0  0  0  0
   35.0950   24.1960   30.9450 N   0  0  0  0  0  0  0  0  0  0  0  0
   36.0500   23.4920   31.5920 C   0  0  0  0  0  0  0  0  0  0  0  0
   37.0200   24.1390   32.2440 N   0  0  0  0  0  0  0  0  0  0  0  0
   37.8500   25.9510   32.7940 H   0  0  0  0  0  0  0  0  0  0  0  0
   34.3100   26.1180   30.4050 H   0  0  0  0  0  0  0  0  0  0  0  0
   36.0090   22.0430   31.5750 C   0  0  0  0  0  0  0  0  0  0  0  0
   35.0410   21.3700   32.2730 C   0  0  0  0  0  0  0  0  0  0  0  0
   34.9440   19.9980   32.2970 C   0  0  0  0  0  0  0  0  0  0  0  0
   35.8970   19.3340   31.5650 C   0  0  0  0  0  0  0  0  0  0  0  0
   36.8960   19.9720   30.8420 C   0  0  0  0  0  0  0  0  0  0  0  0
   36.9190   21.3430   30.8730 N   0  0  0  0  0  0  0  0  0  0  0  0
   34.3210   21.9790   32.8290 H   0  0  0  0  0  0  0  0  0  0  0  0
   34.1580   19.5210   32.8650 H   0  0  0  0  0  0  0  0  0  0  0  0
   35.8690   18.2450   31.5470 H   0  0  0  0  0  0  0  0  0  0  0  0
   37.6080   19.3860   30.2910 H   0  0  0  0  0  0  0  0  0  0  0  0
   36.1390   27.6970   31.6380 C   0  0  0  0  0  0  0  0  0  0  0  0
   35.7600   28.4670   32.7090 C   0  0  0  0  0  0  0  0  0  0  0  0
   35.3970   27.9110   33.5670 H   0  0  0  0  0  0  0  0  0  0  0  0
   35.8180   29.8370   32.7420 C   0  0  0  0  0  3  0  0  0  0  0  0
   36.2900   30.4650   31.6110 C   0  0  0  0  0  0  0  0  0  0  0  0
   36.3840   31.5380   31.5130 H   0  0  0  0  0  0  0  0  0  0  0  0
   36.6830   29.7240   30.5080 C   0  0  0  0  0  0  0  0  0  0  0  0
   37.0630   30.2190   29.6060 H   0  0  0  0  0  0  0  0  0  0  0  0
   36.6120   28.3380   30.5110 C   0  0  0  0  0  3  0  0  0  0  0  0
  1  7  1  0  0  0  0
  2 19  1  0  0  0  0
  2  1  2  0  0  0  0
  3  4  2  0  0  0  0
  3  2  1  0  0  0  0
  4  5  1  0  0  0  0
  5  6  2  0  0  0  0
  6  1  1  0  0  0  0
  8  3  1  0  0  0  0
  9  5  1  0  0  0  0
  9 10  1  0  0  0  0
 10 11  2  0  0  0  0
 10 15  1  0  0  0  0
 11 16  1  0  0  0  0
 12 11  1  0  0  0  0
 13 14  1  0  0  0  0
 13 12  2  0  0  0  0
 14  9  2  0  0  0  0
 17 12  1  0  0  0  0
 18 13  1  0  0  0  0
 19 20  1  0  0  0  0
 20 22  2  0  0  0  0
 20 21  1  0  0  0  0
 23 22  1  0  0  0  0
 24 23  1  0  0  0  0
 25 27  1  0  0  0  0
 25 23  2  0  0  0  0
 26 25  1  0  0  0  0
 27 19  2  0  0  0  0
M  END
>  <minimizedAffinity>
-5.05529881

$$$$
