
 OpenBabel03272500483D

 39 43  0  0  1  0  0  0  0  0999 V2000
   32.1090   27.5410   47.7640 C   0  0  1  0  0  0  0  0  0  0  0  0
   32.9570   26.6140   46.8270 C   0  0  0  0  0  0  0  0  0  0  0  0
   32.7720   28.0620   46.5540 C   0  0  2  0  0  0  0  0  0  0  0  0
   32.5880   27.7470   48.7430 H   0  0  0  0  0  0  0  0  0  0  0  0
   32.3430   25.8640   46.2930 H   0  0  0  0  0  0  0  0  0  0  0  0
   33.9530   26.3290   47.2230 H   0  0  0  0  0  0  0  0  0  0  0  0
   32.1270   28.3210   45.7160 H   0  0  0  0  0  0  0  0  0  0  0  0
   28.5340   27.5870   48.2320 C   0  0  0  0  0  0  0  0  0  0  0  0
   28.6510   26.5530   47.3290 C   0  0  0  0  0  0  0  0  0  0  0  0
   30.0150   26.3960   47.0290 C   0  0  0  0  0  0  0  0  0  0  0  0
   30.6740   27.3240   47.7490 N   0  0  0  0  0  0  0  0  0  0  0  0
   29.7820   27.9870   48.4260 N   0  0  0  0  0  0  0  0  0  0  0  0
   27.8420   25.9440   46.9020 H   0  0  0  0  0  0  0  0  0  0  0  0
   30.4370   25.6490   46.3380 H   0  0  0  0  0  0  0  0  0  0  0  0
   26.9480   27.9410   50.1540 C   0  0  0  0  0  0  0  0  0  0  0  0
   27.2810   28.0480   48.7800 C   0  0  0  0  0  0  0  0  0  0  0  0
   26.3400   28.6310   47.9360 C   0  0  0  0  0  0  0  0  0  0  0  0
   25.1610   29.0610   48.4750 N   0  0  0  0  0  0  0  0  0  0  0  0
   24.8970   28.9320   49.7940 C   0  0  0  0  0  0  0  0  0  0  0  0
   25.7910   28.3700   50.6450 N   0  0  0  0  0  0  0  0  0  0  0  0
   27.7370   27.4770   50.7320 H   0  0  0  0  0  0  0  0  0  0  0  0
   26.5900   28.7140   46.8880 H   0  0  0  0  0  0  0  0  0  0  0  0
   23.9650   29.2730   50.2220 H   0  0  0  0  0  0  0  0  0  0  0  0
   33.9390   28.9850   46.7170 C   0  0  0  0  0  0  0  0  0  0  0  0
   34.4490   29.7970   45.6870 C   0  0  0  0  0  0  0  0  0  0  0  0
   35.5010   30.4920   46.1960 N   0  0  0  0  0  0  0  0  0  0  0  0
   35.6470   30.1320   47.4940 C   0  0  0  0  0  0  0  0  0  0  0  0
   34.7100   29.2250   47.8110 N   0  0  0  0  0  0  0  0  0  0  0  0
   34.1060   29.8970   44.6470 H   0  0  0  0  0  0  0  0  0  0  0  0
   36.0820   31.1760   45.6700 H   0  0  0  0  0  0  0  0  0  0  0  0
   36.6730   30.6600   48.3870 C   0  0  0  0  0  0  0  0  0  0  0  0
   37.5950   31.5730   47.9200 C   0  0  0  0  0  0  0  0  0  0  0  0
   37.5790   31.9130   46.9010 H   0  0  0  0  0  0  0  0  0  0  0  0
   38.5420   32.0310   48.8280 C   0  0  0  0  0  0  0  0  0  0  0  0
   38.5940   31.6190   50.1450 C   0  0  0  0  0  0  0  0  0  0  0  0
   39.3340   31.9860   50.8280 H   0  0  0  0  0  0  0  0  0  0  0  0
   37.6530   30.6910   50.6090 C   0  0  0  0  0  0  0  0  0  0  0  0
   37.6290   30.3200   51.6230 H   0  0  0  0  0  0  0  0  0  0  0  0
   36.7200   30.2430   49.7020 C   0  0  0  0  0  0  0  0  0  0  0  0
  1  4  1  1  0  0  0
  2  6  1  0  0  0  0
  2  1  1  0  0  0  0
  3  7  1  6  0  0  0
  3 24  1  0  0  0  0
  3  2  1  0  0  0  0
  3  1  1  0  0  0  0
  5  2  1  0  0  0  0
  8 12  2  0  0  0  0
  8 16  1  0  0  0  0
  9  8  1  0  0  0  0
 10  9  2  0  0  0  0
 10 11  1  0  0  0  0
 11  1  1  0  0  0  0
 11 12  1  0  0  0  0
 13  9  1  0  0  0  0
 14 10  1  0  0  0  0
 15 20  1  0  0  0  0
 15 21  1  0  0  0  0
 16 15  2  0  0  0  0
 17 18  2  0  0  0  0
 17 16  1  0  0  0  0
 18 19  1  0  0  0  0
 19 23  1  0  0  0  0
 19 20  2  0  0  0  0
 22 17  1  0  0  0  0
 24 28  1  0  0  0  0
 25 26  1  0  0  0  0
 25 24  2  0  0  0  0
 26 27  1  0  0  0  0
 27 28  2  0  0  0  0
 27 31  1  0  0  0  0
 29 25  1  0  0  0  0
 30 26  1  0  0  0  0
 31 39  1  0  0  0  0
 32 31  2  0  0  0  0
 32 34  1  0  0  0  0
 33 32  1  0  0  0  0
 34 35  2  0  0  0  0
 35 37  1  0  0  0  0
 35 36  1  0  0  0  0
 37 38  1  0  0  0  0
 39 37  2  0  0  0  0
M  END
>  <minimizedAffinity>
-6.62041235

>  <minimizedRMSD>
5.72294378

$$$$
