
 OpenBabel03272505013D

 28 30  0  0  0  0  0  0  0  0999 V2000
   37.5580   30.2410   46.9450 Cl  0  0  0  0  0  0  0  0  0  0  0  0
   38.2020   31.6350   47.7810 C   0  0  0  0  0  0  0  0  0  0  0  0
   37.8540   31.8300   49.0730 C   0  0  0  0  0  0  0  0  0  0  0  0
   38.3990   32.9630   49.6950 C   0  0  0  0  0  0  0  0  0  0  0  0
   39.2500   33.8140   48.9830 C   0  0  0  0  0  0  0  0  0  0  0  0
   39.5720   33.5730   47.6740 C   0  0  0  0  0  0  0  0  0  0  0  0
   39.0320   32.4550   47.0670 C   0  0  0  0  0  0  0  0  0  0  0  0
   38.1390   33.1520   50.7400 H   0  0  0  0  0  0  0  0  0  0  0  0
   39.6260   34.6640   49.5380 H   0  0  0  0  0  0  0  0  0  0  0  0
   40.2280   34.2430   47.1480 H   0  0  0  0  0  0  0  0  0  0  0  0
   37.4100   30.2800   50.9760 C   0  0  0  0  0  0  0  0  0  0  0  0
   36.9760   30.9670   49.8390 C   0  0  0  0  0  0  0  0  0  0  0  0
   35.6350   30.7920   49.4530 C   0  0  0  0  0  0  0  0  0  0  0  0
   34.8430   29.9720   50.2000 N   0  0  0  0  0  0  0  0  0  0  0  0
   35.2920   29.3290   51.2830 C   0  0  0  0  0  0  0  0  0  0  0  0
   36.5830   29.4800   51.6770 N   0  0  0  0  0  0  0  0  0  0  0  0
   38.4610   30.4410   51.2460 H   0  0  0  0  0  0  0  0  0  0  0  0
   35.2370   31.3050   48.5710 H   0  0  0  0  0  0  0  0  0  0  0  0
   34.6500   28.6840   51.8610 H   0  0  0  0  0  0  0  0  0  0  0  0
   39.4110   32.2510   45.6720 C   0  0  0  0  0  0  0  0  0  0  0  0
   40.3520   31.2720   45.4250 C   0  0  0  0  0  0  0  0  0  0  0  0
   40.7880   30.6830   46.2280 H   0  0  0  0  0  0  0  0  0  0  0  0
   40.8090   30.9650   44.1580 C   0  0  0  0  0  0  0  0  0  0  0  0
   40.2700   31.6990   43.1210 C   0  0  0  0  0  0  0  0  0  0  0  0
   40.5740   31.5250   42.0770 H   0  0  0  0  0  0  0  0  0  0  0  0
   39.3240   32.6900   43.3190 C   0  0  0  0  0  0  0  0  0  0  0  0
   38.9140   33.2570   42.4840 H   0  0  0  0  0  0  0  0  0  0  0  0
   38.8930   32.9660   44.6110 C   0  0  0  0  0  0  0  0  0  0  0  0
  1  2  1  0  0  0  0
  2  3  1  0  0  0  0
  3  4  2  0  0  0  0
  3 12  1  0  0  0  0
  4  8  1  0  0  0  0
  5  9  1  0  0  0  0
  5  4  1  0  0  0  0
  6  5  2  0  0  0  0
  7  6  1  0  0  0  0
  7  2  2  0  0  0  0
 10  6  1  0  0  0  0
 11 17  1  0  0  0  0
 11 16  1  0  0  0  0
 12 11  2  0  0  0  0
 13 12  1  0  0  0  0
 13 14  2  0  0  0  0
 14 15  1  0  0  0  0
 15 16  2  0  0  0  0
 15 19  1  0  0  0  0
 18 13  1  0  0  0  0
 20  7  1  0  0  0  0
 21 20  1  0  0  0  0
 21 22  1  0  0  0  0
 23 21  2  0  0  0  0
 24 26  2  0  0  0  0
 24 23  1  0  0  0  0
 25 24  1  0  0  0  0
 26 28  1  0  0  0  0
 27 26  1  0  0  0  0
 28 20  2  0  0  0  0
M  END
>  <minimizedAffinity>
-6.45060873

>  <minimizedRMSD>
1.03180051

$$$$
