
 OpenBabel03272509103D

 40 43  0  0  0  0  0  0  0  0999 V2000
   34.8490   29.8550   33.4780 C   0  0  0  0  0  0  0  0  0  0  0  0
   33.9110   29.4160   33.1520 H   0  0  0  0  0  0  0  0  0  0  0  0
   35.1570   30.5340   32.6260 H   0  0  0  0  0  0  0  0  0  0  0  0
   34.7960   30.7170   34.6730 C   0  0  0  0  0  0  0  0  0  0  0  0
   35.8570   31.5400   35.0470 C   0  0  0  0  0  0  0  0  0  0  0  0
   35.8000   32.3260   36.1840 C   0  0  0  0  0  0  0  0  0  0  0  0
   34.6800   32.3190   36.9870 C   0  0  0  0  0  0  0  0  0  0  0  0
   33.6400   31.5120   36.6170 C   0  0  0  0  0  0  0  0  0  0  0  0
   33.6820   30.7180   35.4810 C   0  0  0  0  0  0  0  0  0  0  0  0
   36.7010   31.4920   34.3690 H   0  0  0  0  0  0  0  0  0  0  0  0
   36.7030   32.8940   36.3190 H   0  0  0  0  0  0  0  0  0  0  0  0
   34.7160   32.9610   37.8550 H   0  0  0  0  0  0  0  0  0  0  0  0
   32.7930   31.5620   37.3000 H   0  0  0  0  0  0  0  0  0  0  0  0
   32.4500   29.9720   35.2780 C   0  0  0  0  0  0  0  0  0  0  0  0
   32.3530   28.8110   36.0560 C   0  0  0  0  0  0  0  0  0  0  0  0
   33.1480   28.5000   36.7400 H   0  0  0  0  0  0  0  0  0  0  0  0
   31.2670   27.9610   36.0400 C   0  0  0  0  0  3  0  0  0  0  0  0
   30.2000   28.2330   35.2280 C   0  0  0  0  0  0  0  0  0  0  0  0
   29.3020   27.6480   35.1300 H   0  0  0  0  0  0  0  0  0  0  0  0
   30.2820   29.3720   34.4570 C   0  0  0  0  0  0  0  0  0  0  0  0
   29.4660   29.6370   33.7960 H   0  0  0  0  0  0  0  0  0  0  0  0
   31.3630   30.2220   34.4710 C   0  0  0  0  0  3  0  0  0  0  0  0
   36.2350   28.1100   34.5840 C   0  0  0  0  0  3  0  0  0  0  0  0
   35.9160   28.8260   33.5360 C   0  0  0  0  0  3  0  0  0  0  0  0
   39.0890   26.2920   33.2110 C   0  0  0  0  0  0  0  0  0  0  0  0
   39.3290   25.3170   34.2060 C   0  0  0  0  0  0  0  0  0  0  0  0
   38.4880   25.3160   35.3340 C   0  0  0  0  0  0  0  0  0  0  0  0
   37.4810   26.2540   35.4210 N   0  0  0  0  0  0  0  0  0  0  0  0
   37.3210   27.1540   34.4200 C   0  0  0  0  0  0  0  0  0  0  0  0
   38.1140   27.1710   33.3330 N   0  0  0  0  0  0  0  0  0  0  0  0
   39.7410   26.2760   32.3570 H   0  0  0  0  0  0  0  0  0  0  0  0
   40.1010   24.5720   34.1750 H   0  0  0  0  0  0  0  0  0  0  0  0
   38.6290   24.3540   36.4350 C   0  0  0  0  0  0  0  0  0  0  0  0
   37.9420   24.4750   37.6140 C   0  0  0  0  0  0  0  0  0  0  0  0
   38.3160   23.3900   38.4200 C   0  0  0  0  0  0  0  0  0  0  0  0
   39.2080   22.6680   37.6900 N   0  0  0  0  0  0  0  0  0  0  0  0
   39.3930   23.2420   36.5090 N   0  0  0  0  0  0  0  0  0  0  0  0
   37.2260   25.2390   37.9400 H   0  0  0  0  0  0  0  0  0  0  0  0
   37.9830   23.1490   39.4180 H   0  0  0  0  0  0  0  0  0  0  0  0
   39.7100   21.7850   37.9570 H   0  0  0  0  0  0  0  0  0  0  0  0
  1 24  1  0  0  0  0
  1  4  1  0  0  0  0
  2  1  1  0  0  0  0
  3  1  1  0  0  0  0
  4  5  2  0  0  0  0
  4  9  1  0  0  0  0
  5  6  1  0  0  0  0
  6 11  1  0  0  0  0
  6  7  2  0  0  0  0
  7 12  1  0  0  0  0
  8  7  1  0  0  0  0
  8 13  1  0  0  0  0
  9  8  2  0  0  0  0
 10  5  1  0  0  0  0
 14  9  1  0  0  0  0
 14 15  1  0  0  0  0
 15 16  1  0  0  0  0
 17 15  2  0  0  0  0
 18 17  1  0  0  0  0
 19 18  1  0  0  0  0
 20 22  1  0  0  0  0
 20 18  2  0  0  0  0
 21 20  1  0  0  0  0
 22 14  2  0  0  0  0
 24 23  2  0  0  0  0
 25 30  2  0  0  0  0
 25 26  1  0  0  0  0
 26 27  2  0  0  0  0
 27 28  1  0  0  0  0
 27 33  1  0  0  0  0
 29 23  1  0  0  0  0
 29 28  2  0  0  0  0
 30 29  1  0  0  0  0
 31 25  1  0  0  0  0
 32 26  1  0  0  0  0
 33 37  2  0  0  0  0
 33 34  1  0  0  0  0
 34 38  1  0  0  0  0
 34 35  2  0  0  0  0
 35 39  1  0  0  0  0
 36 40  1  0  0  0  0
 36 35  1  0  0  0  0
 37 36  1  0  0  0  0
M  END
>  <minimizedAffinity>
-6.52678251

$$$$

 OpenBabel03272509103D

 40 43  0  0  0  0  0  0  0  0999 V2000
   36.2340   28.3280   34.4730 C   0  0  0  0  0  0  0  0  0  0  0  0
   36.3080   28.7750   35.4600 H   0  0  0  0  0  0  0  0  0  0  0  0
   35.3070   27.6800   34.5230 H   0  0  0  0  0  0  0  0  0  0  0  0
   36.0120   29.2510   33.3450 C   0  0  0  0  0  0  0  0  0  0  0  0
   36.3730   28.9310   32.0370 C   0  0  0  0  0  0  0  0  0  0  0  0
   36.1790   29.8170   30.9930 C   0  0  0  0  0  0  0  0  0  0  0  0
   35.6160   31.0560   31.2200 C   0  0  0  0  0  0  0  0  0  0  0  0
   35.2630   31.3670   32.5030 C   0  0  0  0  0  0  0  0  0  0  0  0
   35.4520   30.4890   33.5600 C   0  0  0  0  0  0  0  0  0  0  0  0
   36.8070   27.9440   31.9380 H   0  0  0  0  0  0  0  0  0  0  0  0
   36.5130   29.4080   30.0570 H   0  0  0  0  0  0  0  0  0  0  0  0
   35.4990   31.6880   30.3500 H   0  0  0  0  0  0  0  0  0  0  0  0
   34.8270   32.3600   32.6000 H   0  0  0  0  0  0  0  0  0  0  0  0
   34.9720   31.0290   34.8230 C   0  0  0  0  0  0  0  0  0  0  0  0
   33.6250   30.7530   35.0850 C   0  0  0  0  0  0  0  0  0  0  0  0
   32.9980   30.1920   34.3840 H   0  0  0  0  0  0  0  0  0  0  0  0
   32.9640   31.1500   36.2280 C   0  0  0  0  0  3  0  0  0  0  0  0
   33.6310   31.8600   37.1890 C   0  0  0  0  0  0  0  0  0  0  0  0
   33.2260   32.2220   38.1180 H   0  0  0  0  0  0  0  0  0  0  0  0
   34.9580   32.1390   36.9450 C   0  0  0  0  0  0  0  0  0  0  0  0
   35.5360   32.6980   37.6710 H   0  0  0  0  0  0  0  0  0  0  0  0
   35.6200   31.7440   35.8060 C   0  0  0  0  0  3  0  0  0  0  0  0
   37.8920   26.6020   35.1550 C   0  0  0  0  0  3  0  0  0  0  0  0
   37.3440   27.3710   34.2470 C   0  0  0  0  0  3  0  0  0  0  0  0
   40.5260   25.0830   33.1330 C   0  0  0  0  0  0  0  0  0  0  0  0
   40.9990   24.0560   33.9800 C   0  0  0  0  0  0  0  0  0  0  0  0
   40.3860   23.9170   35.2390 C   0  0  0  0  0  0  0  0  0  0  0  0
   39.3670   24.7770   35.5880 N   0  0  0  0  0  0  0  0  0  0  0  0
   38.9750   25.7350   34.7140 C   0  0  0  0  0  0  0  0  0  0  0  0
   39.5480   25.8850   33.5050 N   0  0  0  0  0  0  0  0  0  0  0  0
   41.0060   25.1730   32.1750 H   0  0  0  0  0  0  0  0  0  0  0  0
   41.7880   23.3680   33.7460 H   0  0  0  0  0  0  0  0  0  0  0  0
   40.7810   22.8870   36.2110 C   0  0  0  0  0  0  0  0  0  0  0  0
   41.9960   22.2560   36.1640 C   0  0  0  0  0  0  0  0  0  0  0  0
   42.0280   21.3510   37.2350 C   0  0  0  0  0  0  0  0  0  0  0  0
   40.8340   21.4790   37.8740 N   0  0  0  0  0  0  0  0  0  0  0  0
   40.0930   22.3950   37.2650 N   0  0  0  0  0  0  0  0  0  0  0  0
   42.8290   22.3760   35.4620 H   0  0  0  0  0  0  0  0  0  0  0  0
   42.8220   20.6760   37.5190 H   0  0  0  0  0  0  0  0  0  0  0  0
   40.4880   20.9670   38.7230 H   0  0  0  0  0  0  0  0  0  0  0  0
  1  3  1  0  0  0  0
  1  2  1  0  0  0  0
  4  9  1  0  0  0  0
  4  1  1  0  0  0  0
  5  4  2  0  0  0  0
  6  7  2  0  0  0  0
  6  5  1  0  0  0  0
  7  8  1  0  0  0  0
  8 13  1  0  0  0  0
  8  9  2  0  0  0  0
  9 14  1  0  0  0  0
 10  5  1  0  0  0  0
 11  6  1  0  0  0  0
 12  7  1  0  0  0  0
 14 15  2  0  0  0  0
 14 22  1  0  0  0  0
 15 17  1  0  0  0  0
 16 15  1  0  0  0  0
 17 18  2  0  0  0  0
 18 19  1  0  0  0  0
 20 18  1  0  0  0  0
 20 21  1  0  0  0  0
 22 20  2  0  0  0  0
 24  1  1  0  0  0  0
 24 23  2  0  0  0  0
 25 30  2  0  0  0  0
 25 26  1  0  0  0  0
 26 27  2  0  0  0  0
 27 28  1  0  0  0  0
 27 33  1  0  0  0  0
 29 23  1  0  0  0  0
 29 28  2  0  0  0  0
 30 29  1  0  0  0  0
 31 25  1  0  0  0  0
 32 26  1  0  0  0  0
 33 37  2  0  0  0  0
 34 33  1  0  0  0  0
 34 35  2  0  0  0  0
 35 39  1  0  0  0  0
 35 36  1  0  0  0  0
 36 40  1  0  0  0  0
 37 36  1  0  0  0  0
 38 34  1  0  0  0  0
M  END
>  <minimizedAffinity>
-6.50363111

$$$$

 OpenBabel03272509103D

 40 43  0  0  0  0  0  0  0  0999 V2000
   35.2790   29.1970   32.9390 C   0  0  0  0  0  0  0  0  0  0  0  0
   34.6450   29.3030   33.8150 H   0  0  0  0  0  0  0  0  0  0  0  0
   34.5870   28.8010   32.1340 H   0  0  0  0  0  0  0  0  0  0  0  0
   35.8590   30.4360   32.3890 C   0  0  0  0  0  0  0  0  0  0  0  0
   36.4450   30.4880   31.1250 C   0  0  0  0  0  0  0  0  0  0  0  0
   37.0050   31.6520   30.6320 C   0  0  0  0  0  0  0  0  0  0  0  0
   36.9990   32.8070   31.3850 C   0  0  0  0  0  0  0  0  0  0  0  0
   36.4230   32.7530   32.6230 C   0  0  0  0  0  0  0  0  0  0  0  0
   35.8570   31.5940   33.1320 C   0  0  0  0  0  0  0  0  0  0  0  0
   36.4130   29.5430   30.5940 H   0  0  0  0  0  0  0  0  0  0  0  0
   37.4110   31.5110   29.6460 H   0  0  0  0  0  0  0  0  0  0  0  0
   37.4570   33.6720   30.9270 H   0  0  0  0  0  0  0  0  0  0  0  0
   36.4570   33.7040   33.1550 H   0  0  0  0  0  0  0  0  0  0  0  0
   35.2810   31.7890   34.4520 C   0  0  0  0  0  0  0  0  0  0  0  0
   33.9110   32.0780   34.4390 C   0  0  0  0  0  0  0  0  0  0  0  0
   33.3420   32.1600   33.5080 H   0  0  0  0  0  0  0  0  0  0  0  0
   33.1540   32.2830   35.5740 C   0  0  0  0  0  3  0  0  0  0  0  0
   33.7420   32.2080   36.8080 C   0  0  0  0  0  0  0  0  0  0  0  0
   33.2590   32.3480   37.7590 H   0  0  0  0  0  0  0  0  0  0  0  0
   35.0900   31.9240   36.8360 C   0  0  0  0  0  0  0  0  0  0  0  0
   35.6080   31.8530   37.7850 H   0  0  0  0  0  0  0  0  0  0  0  0
   35.8470   31.7190   35.7060 C   0  0  0  0  0  3  0  0  0  0  0  0
   36.8120   27.7700   34.2830 C   0  0  0  0  0  3  0  0  0  0  0  0
   36.2720   28.1140   33.1400 C   0  0  0  0  0  3  0  0  0  0  0  0
   39.3790   25.4270   33.1620 C   0  0  0  0  0  0  0  0  0  0  0  0
   39.5410   24.5980   34.2940 C   0  0  0  0  0  0  0  0  0  0  0  0
   38.7500   24.8760   35.4240 C   0  0  0  0  0  0  0  0  0  0  0  0
   37.8640   25.9310   35.3800 N   0  0  0  0  0  0  0  0  0  0  0  0
   37.7720   26.6760   34.2520 C   0  0  0  0  0  0  0  0  0  0  0  0
   38.5190   26.4260   33.1610 N   0  0  0  0  0  0  0  0  0  0  0  0
   39.9910   25.1990   32.3080 H   0  0  0  0  0  0  0  0  0  0  0  0
   40.2190   23.7690   34.3680 H   0  0  0  0  0  0  0  0  0  0  0  0
   38.8200   24.0870   36.6620 C   0  0  0  0  0  0  0  0  0  0  0  0
   37.9890   24.3110   37.7280 C   0  0  0  0  0  0  0  0  0  0  0  0
   38.3340   23.3800   38.7190 C   0  0  0  0  0  0  0  0  0  0  0  0
   39.3530   22.6410   38.2040 N   0  0  0  0  0  0  0  0  0  0  0  0
   39.6410   23.0620   36.9800 N   0  0  0  0  0  0  0  0  0  0  0  0
   37.1900   25.0510   37.8590 H   0  0  0  0  0  0  0  0  0  0  0  0
   37.8990   23.2520   39.6990 H   0  0  0  0  0  0  0  0  0  0  0  0
   39.8750   21.8470   38.6500 H   0  0  0  0  0  0  0  0  0  0  0  0
  1 24  1  0  0  0  0
  1  2  1  0  0  0  0
  3  1  1  0  0  0  0
  4  1  1  0  0  0  0
  4  9  1  0  0  0  0
  5  4  2  0  0  0  0
  6  5  1  0  0  0  0
  6  7  2  0  0  0  0
  7  8  1  0  0  0  0
  8  9  2  0  0  0  0
  8 13  1  0  0  0  0
  9 14  1  0  0  0  0
 10  5  1  0  0  0  0
 11  6  1  0  0  0  0
 12  7  1  0  0  0  0
 14 22  1  0  0  0  0
 15 14  2  0  0  0  0
 15 17  1  0  0  0  0
 16 15  1  0  0  0  0
 17 18  2  0  0  0  0
 18 20  1  0  0  0  0
 18 19  1  0  0  0  0
 20 21  1  0  0  0  0
 22 20  2  0  0  0  0
 24 23  2  0  0  0  0
 25 26  1  0  0  0  0
 26 32  1  0  0  0  0
 26 27  2  0  0  0  0
 27 33  1  0  0  0  0
 28 27  1  0  0  0  0
 29 23  1  0  0  0  0
 29 28  2  0  0  0  0
 30 25  2  0  0  0  0
 30 29  1  0  0  0  0
 31 25  1  0  0  0  0
 33 37  2  0  0  0  0
 33 34  1  0  0  0  0
 34 38  1  0  0  0  0
 34 35  2  0  0  0  0
 35 39  1  0  0  0  0
 36 40  1  0  0  0  0
 36 35  1  0  0  0  0
 37 36  1  0  0  0  0
M  END
>  <minimizedAffinity>
-6.48868704

$$$$

 OpenBabel03272509103D

 40 43  0  0  0  0  0  0  0  0999 V2000
   38.5030   26.7410   31.7890 C   0  0  0  0  0  0  0  0  0  0  0  0
   38.3280   26.2650   30.8280 H   0  0  0  0  0  0  0  0  0  0  0  0
   38.1740   25.9710   32.5520 H   0  0  0  0  0  0  0  0  0  0  0  0
   39.9030   27.0580   32.1250 C   0  0  0  0  0  0  0  0  0  0  0  0
   40.8190   27.4940   31.1690 C   0  0  0  0  0  0  0  0  0  0  0  0
   42.1350   27.7650   31.4960 C   0  0  0  0  0  0  0  0  0  0  0  0
   42.5830   27.6100   32.7910 C   0  0  0  0  0  0  0  0  0  0  0  0
   41.6820   27.1830   33.7260 C   0  0  0  0  0  0  0  0  0  0  0  0
   40.3590   26.9070   33.4140 C   0  0  0  0  0  0  0  0  0  0  0  0
   40.3960   27.5910   30.1770 H   0  0  0  0  0  0  0  0  0  0  0  0
   42.6990   28.0890   30.6390 H   0  0  0  0  0  0  0  0  0  0  0  0
   43.6240   27.8430   32.9620 H   0  0  0  0  0  0  0  0  0  0  0  0
   42.1100   27.0860   34.7230 H   0  0  0  0  0  0  0  0  0  0  0  0
   39.5880   26.4980   34.5770 C   0  0  0  0  0  0  0  0  0  0  0  0
   39.5800   25.1150   34.7980 C   0  0  0  0  0  0  0  0  0  0  0  0
   40.1020   24.4170   34.1360 H   0  0  0  0  0  0  0  0  0  0  0  0
   38.9290   24.5050   35.8490 C   0  0  0  0  0  3  0  0  0  0  0  0
   38.2360   25.2630   36.7540 C   0  0  0  0  0  0  0  0  0  0  0  0
   37.6920   24.9040   37.6100 H   0  0  0  0  0  0  0  0  0  0  0  0
   38.2350   26.6250   36.5490 C   0  0  0  0  0  0  0  0  0  0  0  0
   37.7030   27.2750   37.2340 H   0  0  0  0  0  0  0  0  0  0  0  0
   38.8830   27.2370   35.5010 C   0  0  0  0  0  3  0  0  0  0  0  0
   36.4930   27.8690   32.7270 C   0  0  0  0  0  3  0  0  0  0  0  0
   37.5730   27.8790   31.9860 C   0  0  0  0  0  3  0  0  0  0  0  0
   34.5660   30.8080   31.7350 C   0  0  0  0  0  0  0  0  0  0  0  0
   34.2810   31.4120   32.9800 C   0  0  0  0  0  0  0  0  0  0  0  0
   34.7690   30.7800   34.1380 C   0  0  0  0  0  0  0  0  0  0  0  0
   35.4920   29.6130   34.0120 N   0  0  0  0  0  0  0  0  0  0  0  0
   35.7200   29.1020   32.7780 C   0  0  0  0  0  0  0  0  0  0  0  0
   35.2630   29.6910   31.6580 N   0  0  0  0  0  0  0  0  0  0  0  0
   34.1860   31.3060   30.8620 H   0  0  0  0  0  0  0  0  0  0  0  0
   33.7220   32.3180   33.1200 H   0  0  0  0  0  0  0  0  0  0  0  0
   34.5450   31.3080   35.4910 C   0  0  0  0  0  0  0  0  0  0  0  0
   33.3060   31.3480   36.0730 C   0  0  0  0  0  0  0  0  0  0  0  0
   33.4700   31.9030   37.3500 C   0  0  0  0  0  0  0  0  0  0  0  0
   34.7980   32.1700   37.4780 N   0  0  0  0  0  0  0  0  0  0  0  0
   35.4370   31.8150   36.3710 N   0  0  0  0  0  0  0  0  0  0  0  0
   32.3310   31.0310   35.6830 H   0  0  0  0  0  0  0  0  0  0  0  0
   32.7180   32.0920   38.1010 H   0  0  0  0  0  0  0  0  0  0  0  0
   35.3050   32.5900   38.2950 H   0  0  0  0  0  0  0  0  0  0  0  0
  1 24  1  0  0  0  0
  1  4  1  0  0  0  0
  1  3  1  0  0  0  0
  2  1  1  0  0  0  0
  4  9  1  0  0  0  0
  5  6  1  0  0  0  0
  5  4  2  0  0  0  0
  6  7  2  0  0  0  0
  7 12  1  0  0  0  0
  7  8  1  0  0  0  0
  8 13  1  0  0  0  0
  9  8  2  0  0  0  0
  9 14  1  0  0  0  0
 10  5  1  0  0  0  0
 11  6  1  0  0  0  0
 14 15  2  0  0  0  0
 14 22  1  0  0  0  0
 15 17  1  0  0  0  0
 16 15  1  0  0  0  0
 17 18  2  0  0  0  0
 18 19  1  0  0  0  0
 20 18  1  0  0  0  0
 20 21  1  0  0  0  0
 22 20  2  0  0  0  0
 23 29  1  0  0  0  0
 24 23  2  0  0  0  0
 25 26  1  0  0  0  0
 26 32  1  0  0  0  0
 26 27  2  0  0  0  0
 27 33  1  0  0  0  0
 28 27  1  0  0  0  0
 29 28  2  0  0  0  0
 30 25  2  0  0  0  0
 30 29  1  0  0  0  0
 31 25  1  0  0  0  0
 33 34  1  0  0  0  0
 33 37  2  0  0  0  0
 34 35  2  0  0  0  0
 35 36  1  0  0  0  0
 35 39  1  0  0  0  0
 36 40  1  0  0  0  0
 37 36  1  0  0  0  0
 38 34  1  0  0  0  0
M  END
>  <minimizedAffinity>
-6.35020542

$$$$

 OpenBabel03272509103D

 40 43  0  0  0  0  0  0  0  0999 V2000
   38.7670   24.5190   33.4790 C   0  0  0  0  0  0  0  0  0  0  0  0
   39.4170   24.6360   34.3410 H   0  0  0  0  0  0  0  0  0  0  0  0
   39.4750   24.4170   32.6010 H   0  0  0  0  0  0  0  0  0  0  0  0
   37.9220   23.3110   33.4490 C   0  0  0  0  0  0  0  0  0  0  0  0
   37.2490   22.9000   32.2990 C   0  0  0  0  0  0  0  0  0  0  0  0
   36.4410   21.7780   32.2930 C   0  0  0  0  0  0  0  0  0  0  0  0
   36.2790   21.0240   33.4360 C   0  0  0  0  0  0  0  0  0  0  0  0
   36.9410   21.4290   34.5620 C   0  0  0  0  0  0  0  0  0  0  0  0
   37.7530   22.5520   34.5840 C   0  0  0  0  0  0  0  0  0  0  0  0
   37.4250   23.5400   31.4430 H   0  0  0  0  0  0  0  0  0  0  0  0
   36.0020   21.6090   31.3260 H   0  0  0  0  0  0  0  0  0  0  0  0
   35.6320   20.1630   33.3470 H   0  0  0  0  0  0  0  0  0  0  0  0
   36.7620   20.7830   35.4210 H   0  0  0  0  0  0  0  0  0  0  0  0
   38.3730   22.7640   35.8820 C   0  0  0  0  0  0  0  0  0  0  0  0
   37.5510   23.4210   36.8050 C   0  0  0  0  0  0  0  0  0  0  0  0
   36.5390   23.7520   36.5520 H   0  0  0  0  0  0  0  0  0  0  0  0
   37.9240   23.7120   38.1010 C   0  0  0  0  0  3  0  0  0  0  0  0
   39.1660   23.3520   38.5500 C   0  0  0  0  0  0  0  0  0  0  0  0
   39.5680   23.5230   39.5330 H   0  0  0  0  0  0  0  0  0  0  0  0
   39.9860   22.7050   37.6520 C   0  0  0  0  0  0  0  0  0  0  0  0
   40.9800   22.3970   37.9520 H   0  0  0  0  0  0  0  0  0  0  0  0
   39.6170   22.4140   36.3590 C   0  0  0  0  0  3  0  0  0  0  0  0
   37.3890   26.4940   34.1020 C   0  0  0  0  0  3  0  0  0  0  0  0
   38.0210   25.7720   33.2110 C   0  0  0  0  0  3  0  0  0  0  0  0
   35.8880   28.9900   31.8970 C   0  0  0  0  0  0  0  0  0  0  0  0
   35.4500   29.9720   32.8130 C   0  0  0  0  0  0  0  0  0  0  0  0
   35.6890   29.7410   34.1800 C   0  0  0  0  0  0  0  0  0  0  0  0
   36.3300   28.5820   34.5630 N   0  0  0  0  0  0  0  0  0  0  0  0
   36.7170   27.6920   33.6180 C   0  0  0  0  0  0  0  0  0  0  0  0
   36.4980   27.8940   32.3050 N   0  0  0  0  0  0  0  0  0  0  0  0
   35.6980   29.1840   30.8570 H   0  0  0  0  0  0  0  0  0  0  0  0
   34.9490   30.8850   32.5550 H   0  0  0  0  0  0  0  0  0  0  0  0
   35.2880   30.6860   35.2320 C   0  0  0  0  0  0  0  0  0  0  0  0
   33.9760   30.9590   35.5180 C   0  0  0  0  0  0  0  0  0  0  0  0
   33.9710   31.8900   36.5670 C   0  0  0  0  0  0  0  0  0  0  0  0
   35.2760   32.1320   36.8640 N   0  0  0  0  0  0  0  0  0  0  0  0
   36.0590   31.4140   36.0690 N   0  0  0  0  0  0  0  0  0  0  0  0
   33.0580   30.5710   35.0620 H   0  0  0  0  0  0  0  0  0  0  0  0
   33.1220   32.3400   37.0600 H   0  0  0  0  0  0  0  0  0  0  0  0
   35.6730   32.7730   37.5940 H   0  0  0  0  0  0  0  0  0  0  0  0
  1  2  1  0  0  0  0
  3  1  1  0  0  0  0
  4  1  1  0  0  0  0
  4  9  1  0  0  0  0
  5  4  2  0  0  0  0
  6  5  1  0  0  0  0
  6  7  2  0  0  0  0
  7  8  1  0  0  0  0
  8  9  2  0  0  0  0
  8 13  1  0  0  0  0
  9 14  1  0  0  0  0
 10  5  1  0  0  0  0
 11  6  1  0  0  0  0
 12  7  1  0  0  0  0
 14 22  2  0  0  0  0
 14 15  1  0  0  0  0
 15 17  2  0  0  0  0
 16 15  1  0  0  0  0
 17 18  1  0  0  0  0
 18 19  1  0  0  0  0
 20 21  1  0  0  0  0
 20 18  2  0  0  0  0
 22 20  1  0  0  0  0
 24  1  1  0  0  0  0
 24 23  2  0  0  0  0
 25 30  2  0  0  0  0
 25 26  1  0  0  0  0
 26 27  2  0  0  0  0
 27 28  1  0  0  0  0
 27 33  1  0  0  0  0
 29 23  1  0  0  0  0
 29 28  2  0  0  0  0
 30 29  1  0  0  0  0
 31 25  1  0  0  0  0
 32 26  1  0  0  0  0
 33 34  1  0  0  0  0
 33 37  2  0  0  0  0
 34 35  2  0  0  0  0
 35 36  1  0  0  0  0
 35 39  1  0  0  0  0
 36 40  1  0  0  0  0
 37 36  1  0  0  0  0
 38 34  1  0  0  0  0
M  END
>  <minimizedAffinity>
-6.34493113

$$$$

 OpenBabel03272509103D

 40 43  0  0  0  0  0  0  0  0999 V2000
   34.4230   30.1820   33.5240 C   0  0  0  0  0  0  0  0  0  0  0  0
   33.8250   30.2300   32.6190 H   0  0  0  0  0  0  0  0  0  0  0  0
   35.0750   31.1080   33.4850 H   0  0  0  0  0  0  0  0  0  0  0  0
   33.6930   30.2670   34.8030 C   0  0  0  0  0  0  0  0  0  0  0  0
   32.7170   29.3400   35.1680 C   0  0  0  0  0  0  0  0  0  0  0  0
   32.0260   29.4470   36.3600 C   0  0  0  0  0  0  0  0  0  0  0  0
   32.2850   30.4830   37.2320 C   0  0  0  0  0  0  0  0  0  0  0  0
   33.2430   31.3890   36.8720 C   0  0  0  0  0  0  0  0  0  0  0  0
   33.9450   31.2970   35.6800 C   0  0  0  0  0  0  0  0  0  0  0  0
   32.5690   28.5570   34.4340 H   0  0  0  0  0  0  0  0  0  0  0  0
   31.3130   28.6500   36.4790 H   0  0  0  0  0  0  0  0  0  0  0  0
   31.7020   30.4930   38.1420 H   0  0  0  0  0  0  0  0  0  0  0  0
   33.3900   32.1760   37.6120 H   0  0  0  0  0  0  0  0  0  0  0  0
   34.9310   32.3550   35.5310 C   0  0  0  0  0  0  0  0  0  0  0  0
   34.3770   33.6270   35.3400 C   0  0  0  0  0  0  0  0  0  0  0  0
   33.2950   33.7900   35.2940 H   0  0  0  0  0  0  0  0  0  0  0  0
   35.1200   34.7790   35.1940 C   0  0  0  0  0  3  0  0  0  0  0  0
   36.4870   34.7170   35.2310 C   0  0  0  0  0  0  0  0  0  0  0  0
   37.1700   35.5420   35.1300 H   0  0  0  0  0  0  0  0  0  0  0  0
   37.0460   33.4720   35.4190 C   0  0  0  0  0  0  0  0  0  0  0  0
   38.1230   33.3630   35.4570 H   0  0  0  0  0  0  0  0  0  0  0  0
   36.3070   32.3210   35.5650 C   0  0  0  0  0  3  0  0  0  0  0  0
   36.1830   28.6700   34.4220 C   0  0  0  0  0  3  0  0  0  0  0  0
   35.3800   29.0510   33.4610 C   0  0  0  0  0  3  0  0  0  0  0  0
   38.5020   26.3880   32.7630 C   0  0  0  0  0  0  0  0  0  0  0  0
   38.6360   25.3530   33.7160 C   0  0  0  0  0  0  0  0  0  0  0  0
   37.9120   25.4760   34.9170 C   0  0  0  0  0  0  0  0  0  0  0  0
   37.1170   26.5840   35.1110 N   0  0  0  0  0  0  0  0  0  0  0  0
   37.0450   27.5300   34.1440 C   0  0  0  0  0  0  0  0  0  0  0  0
   37.7290   27.4320   32.9880 N   0  0  0  0  0  0  0  0  0  0  0  0
   39.0610   26.2760   31.8520 H   0  0  0  0  0  0  0  0  0  0  0  0
   39.2440   24.4760   33.6030 H   0  0  0  0  0  0  0  0  0  0  0  0
   37.9610   24.4680   35.9860 C   0  0  0  0  0  0  0  0  0  0  0  0
   37.9850   24.8020   37.3140 C   0  0  0  0  0  0  0  0  0  0  0  0
   38.0260   23.6010   38.0370 C   0  0  0  0  0  0  0  0  0  0  0  0
   38.0240   22.6030   37.1130 N   0  0  0  0  0  0  0  0  0  0  0  0
   37.9850   23.1200   35.8930 N   0  0  0  0  0  0  0  0  0  0  0  0
   37.9770   25.7860   37.7970 H   0  0  0  0  0  0  0  0  0  0  0  0
   38.0530   23.4630   39.1080 H   0  0  0  0  0  0  0  0  0  0  0  0
   38.0490   21.5660   37.2700 H   0  0  0  0  0  0  0  0  0  0  0  0
  1  4  1  0  0  0  0
  2  1  1  0  0  0  0
  3  1  1  0  0  0  0
  4  5  2  0  0  0  0
  4  9  1  0  0  0  0
  5  6  1  0  0  0  0
  6 11  1  0  0  0  0
  6  7  2  0  0  0  0
  7 12  1  0  0  0  0
  8  7  1  0  0  0  0
  8 13  1  0  0  0  0
  9  8  2  0  0  0  0
 10  5  1  0  0  0  0
 14 22  1  0  0  0  0
 14  9  1  0  0  0  0
 15 14  2  0  0  0  0
 16 15  1  0  0  0  0
 17 18  2  0  0  0  0
 17 15  1  0  0  0  0
 18 20  1  0  0  0  0
 19 18  1  0  0  0  0
 20 21  1  0  0  0  0
 20 22  2  0  0  0  0
 24  1  1  0  0  0  0
 24 23  2  0  0  0  0
 25 30  2  0  0  0  0
 25 26  1  0  0  0  0
 26 27  2  0  0  0  0
 27 28  1  0  0  0  0
 27 33  1  0  0  0  0
 29 23  1  0  0  0  0
 29 28  2  0  0  0  0
 30 29  1  0  0  0  0
 31 25  1  0  0  0  0
 32 26  1  0  0  0  0
 33 34  1  0  0  0  0
 34 38  1  0  0  0  0
 34 35  2  0  0  0  0
 35 39  1  0  0  0  0
 36 40  1  0  0  0  0
 36 35  1  0  0  0  0
 37 33  2  0  0  0  0
 37 36  1  0  0  0  0
M  END
>  <minimizedAffinity>
-6.29575014

$$$$

 OpenBabel03272509103D

 40 43  0  0  0  0  0  0  0  0999 V2000
   36.0540   29.3550   34.5350 C   0  0  0  0  0  0  0  0  0  0  0  0
   36.8500   29.9860   34.1510 H   0  0  0  0  0  0  0  0  0  0  0  0
   36.0140   29.5880   35.6430 H   0  0  0  0  0  0  0  0  0  0  0  0
   34.6970   29.6210   34.0250 C   0  0  0  0  0  0  0  0  0  0  0  0
   33.5590   29.4650   34.8160 C   0  0  0  0  0  0  0  0  0  0  0  0
   32.2910   29.6960   34.3160 C   0  0  0  0  0  0  0  0  0  0  0  0
   32.1130   30.0930   33.0070 C   0  0  0  0  0  0  0  0  0  0  0  0
   33.2310   30.2460   32.2350 C   0  0  0  0  0  0  0  0  0  0  0  0
   34.5090   30.0170   32.7210 C   0  0  0  0  0  0  0  0  0  0  0  0
   33.7770   29.1520   35.8300 H   0  0  0  0  0  0  0  0  0  0  0  0
   31.5330   29.5280   35.0610 H   0  0  0  0  0  0  0  0  0  0  0  0
   31.0910   30.2530   32.6960 H   0  0  0  0  0  0  0  0  0  0  0  0
   33.0090   30.5610   31.2160 H   0  0  0  0  0  0  0  0  0  0  0  0
   35.5370   30.2740   31.7250 C   0  0  0  0  0  0  0  0  0  0  0  0
   35.9890   31.5990   31.7010 C   0  0  0  0  0  0  0  0  0  0  0  0
   35.5830   32.3650   32.3690 H   0  0  0  0  0  0  0  0  0  0  0  0
   36.9710   32.0640   30.8510 C   0  0  0  0  0  3  0  0  0  0  0  0
   37.5630   31.2100   29.9620 C   0  0  0  0  0  0  0  0  0  0  0  0
   38.3360   31.4540   29.2530 H   0  0  0  0  0  0  0  0  0  0  0  0
   37.1290   29.9030   29.9740 C   0  0  0  0  0  0  0  0  0  0  0  0
   37.5630   29.1820   29.2920 H   0  0  0  0  0  0  0  0  0  0  0  0
   36.1500   29.4350   30.8210 C   0  0  0  0  0  3  0  0  0  0  0  0
   37.3740   27.4170   33.7040 C   0  0  0  0  0  3  0  0  0  0  0  0
   36.4430   27.9250   34.4710 C   0  0  0  0  0  3  0  0  0  0  0  0
   37.6280   23.8750   32.8520 C   0  0  0  0  0  0  0  0  0  0  0  0
   38.0210   23.2990   34.0810 C   0  0  0  0  0  0  0  0  0  0  0  0
   38.1880   24.1610   35.1800 C   0  0  0  0  0  0  0  0  0  0  0  0
   37.9660   25.5120   35.0140 N   0  0  0  0  0  0  0  0  0  0  0  0
   37.5910   25.9800   33.7990 C   0  0  0  0  0  0  0  0  0  0  0  0
   37.4250   25.1720   32.7350 N   0  0  0  0  0  0  0  0  0  0  0  0
   37.5050   23.2000   32.0240 H   0  0  0  0  0  0  0  0  0  0  0  0
   38.2030   22.2550   34.2510 H   0  0  0  0  0  0  0  0  0  0  0  0
   38.5890   23.6890   36.5130 C   0  0  0  0  0  0  0  0  0  0  0  0
   38.0050   24.1460   37.6650 C   0  0  0  0  0  0  0  0  0  0  0  0
   38.6280   23.4810   38.7310 C   0  0  0  0  0  0  0  0  0  0  0  0
   39.5550   22.6570   38.1730 N   0  0  0  0  0  0  0  0  0  0  0  0
   39.5310   22.7810   36.8530 N   0  0  0  0  0  0  0  0  0  0  0  0
   37.2070   24.8830   37.8090 H   0  0  0  0  0  0  0  0  0  0  0  0
   38.4340   23.5810   39.7890 H   0  0  0  0  0  0  0  0  0  0  0  0
   40.2190   21.9990   38.6510 H   0  0  0  0  0  0  0  0  0  0  0  0
  1  3  1  0  0  0  0
  2  1  1  0  0  0  0
  4  1  1  0  0  0  0
  4  5  1  0  0  0  0
  5 10  1  0  0  0  0
  6  5  2  0  0  0  0
  6 11  1  0  0  0  0
  7  6  1  0  0  0  0
  8  9  1  0  0  0  0
  8  7  2  0  0  0  0
  9  4  2  0  0  0  0
 12  7  1  0  0  0  0
 13  8  1  0  0  0  0
 14  9  1  0  0  0  0
 15 14  1  0  0  0  0
 15 16  1  0  0  0  0
 17 15  2  0  0  0  0
 18 20  2  0  0  0  0
 18 17  1  0  0  0  0
 19 18  1  0  0  0  0
 20 22  1  0  0  0  0
 21 20  1  0  0  0  0
 22 14  2  0  0  0  0
 23 29  1  0  0  0  0
 23 24  2  0  0  0  0
 24  1  1  0  0  0  0
 25 26  1  0  0  0  0
 26 32  1  0  0  0  0
 26 27  2  0  0  0  0
 27 33  1  0  0  0  0
 28 27  1  0  0  0  0
 29 28  2  0  0  0  0
 30 25  2  0  0  0  0
 30 29  1  0  0  0  0
 31 25  1  0  0  0  0
 33 37  2  0  0  0  0
 33 34  1  0  0  0  0
 34 38  1  0  0  0  0
 34 35  2  0  0  0  0
 35 39  1  0  0  0  0
 36 40  1  0  0  0  0
 36 35  1  0  0  0  0
 37 36  1  0  0  0  0
M  END
>  <minimizedAffinity>
-6.26941776

$$$$

 OpenBabel03272509103D

 40 43  0  0  0  0  0  0  0  0999 V2000
   36.7970   28.0000   34.9710 C   0  0  0  0  0  0  0  0  0  0  0  0
   37.4660   28.5900   35.5910 H   0  0  0  0  0  0  0  0  0  0  0  0
   35.8290   27.9570   35.5580 H   0  0  0  0  0  0  0  0  0  0  0  0
   36.4400   28.5690   33.6590 C   0  0  0  0  0  0  0  0  0  0  0  0
   36.9290   28.0480   32.4620 C   0  0  0  0  0  0  0  0  0  0  0  0
   36.6030   28.6080   31.2400 C   0  0  0  0  0  0  0  0  0  0  0  0
   35.7730   29.7070   31.1700 C   0  0  0  0  0  0  0  0  0  0  0  0
   35.2940   30.2150   32.3460 C   0  0  0  0  0  0  0  0  0  0  0  0
   35.6130   29.6660   33.5790 C   0  0  0  0  0  0  0  0  0  0  0  0
   37.5730   27.1870   32.5960 H   0  0  0  0  0  0  0  0  0  0  0  0
   37.0670   28.0810   30.4250 H   0  0  0  0  0  0  0  0  0  0  0  0
   35.5680   30.0820   30.1780 H   0  0  0  0  0  0  0  0  0  0  0  0
   34.6470   31.0800   32.2080 H   0  0  0  0  0  0  0  0  0  0  0  0
   34.9620   30.3570   34.6800 C   0  0  0  0  0  0  0  0  0  0  0  0
   35.7940   31.2540   35.3610 C   0  0  0  0  0  0  0  0  0  0  0  0
   36.8430   31.4000   35.0850 H   0  0  0  0  0  0  0  0  0  0  0  0
   35.3850   32.0300   36.4250 C   0  0  0  0  0  3  0  0  0  0  0  0
   34.0940   31.9460   36.8740 C   0  0  0  0  0  0  0  0  0  0  0  0
   33.6610   32.4970   37.6900 H   0  0  0  0  0  0  0  0  0  0  0  0
   33.2650   31.0670   36.2130 C   0  0  0  0  0  0  0  0  0  0  0  0
   32.2330   30.9590   36.5250 H   0  0  0  0  0  0  0  0  0  0  0  0
   33.6690   30.2920   35.1510 C   0  0  0  0  0  3  0  0  0  0  0  0
   38.1400   26.0320   35.6880 C   0  0  0  0  0  3  0  0  0  0  0  0
   37.2540   26.5910   34.9030 C   0  0  0  0  0  3  0  0  0  0  0  0
   39.4150   22.6320   36.0730 C   0  0  0  0  0  0  0  0  0  0  0  0
   38.9600   22.0070   34.8900 C   0  0  0  0  0  0  0  0  0  0  0  0
   38.2180   22.7870   33.9840 C   0  0  0  0  0  0  0  0  0  0  0  0
   37.9690   24.1090   34.2850 N   0  0  0  0  0  0  0  0  0  0  0  0
   38.4430   24.6290   35.4430 C   0  0  0  0  0  0  0  0  0  0  0  0
   39.1550   23.9000   36.3220 N   0  0  0  0  0  0  0  0  0  0  0  0
   39.9810   22.0200   36.7520 H   0  0  0  0  0  0  0  0  0  0  0  0
   39.1330   20.9830   34.6200 H   0  0  0  0  0  0  0  0  0  0  0  0
   37.6920   22.2590   32.7180 C   0  0  0  0  0  0  0  0  0  0  0  0
   36.3560   22.2560   32.4180 C   0  0  0  0  0  0  0  0  0  0  0  0
   36.2240   21.6890   31.1420 C   0  0  0  0  0  0  0  0  0  0  0  0
   37.4830   21.3770   30.7350 N   0  0  0  0  0  0  0  0  0  0  0  0
   38.3570   21.7170   31.6740 N   0  0  0  0  0  0  0  0  0  0  0  0
   35.4980   22.6080   33.0040 H   0  0  0  0  0  0  0  0  0  0  0  0
   35.3210   21.5200   30.5730 H   0  0  0  0  0  0  0  0  0  0  0  0
   37.7890   20.9360   29.8330 H   0  0  0  0  0  0  0  0  0  0  0  0
  1  3  1  0  0  0  0
  1  2  1  0  0  0  0
  4  1  1  0  0  0  0
  5 10  1  0  0  0  0
  5  4  2  0  0  0  0
  6  5  1  0  0  0  0
  7  6  2  0  0  0  0
  7  8  1  0  0  0  0
  8  9  2  0  0  0  0
  9  4  1  0  0  0  0
  9 14  1  0  0  0  0
 11  6  1  0  0  0  0
 12  7  1  0  0  0  0
 13  8  1  0  0  0  0
 14 22  2  0  0  0  0
 14 15  1  0  0  0  0
 15 17  2  0  0  0  0
 16 15  1  0  0  0  0
 17 18  1  0  0  0  0
 18 19  1  0  0  0  0
 20 21  1  0  0  0  0
 20 18  2  0  0  0  0
 22 20  1  0  0  0  0
 24  1  1  0  0  0  0
 24 23  2  0  0  0  0
 25 30  1  0  0  0  0
 25 31  1  0  0  0  0
 26 25  2  0  0  0  0
 27 28  2  0  0  0  0
 27 26  1  0  0  0  0
 28 29  1  0  0  0  0
 29 23  1  0  0  0  0
 29 30  2  0  0  0  0
 32 26  1  0  0  0  0
 33 27  1  0  0  0  0
 34 33  1  0  0  0  0
 34 38  1  0  0  0  0
 35 34  2  0  0  0  0
 36 35  1  0  0  0  0
 36 37  1  0  0  0  0
 37 33  2  0  0  0  0
 39 35  1  0  0  0  0
 40 36  1  0  0  0  0
M  END
>  <minimizedAffinity>
-6.17500496

$$$$

 OpenBabel03272509103D

 40 43  0  0  0  0  0  0  0  0999 V2000
   38.4410   23.7380   33.1830 C   0  0  0  0  0  0  0  0  0  0  0  0
   39.3130   23.7920   33.8280 H   0  0  0  0  0  0  0  0  0  0  0  0
   38.8620   23.5250   32.1530 H   0  0  0  0  0  0  0  0  0  0  0  0
   37.4850   22.6490   33.4530 C   0  0  0  0  0  0  0  0  0  0  0  0
   36.6260   22.1500   32.4750 C   0  0  0  0  0  0  0  0  0  0  0  0
   35.7190   21.1440   32.7510 C   0  0  0  0  0  0  0  0  0  0  0  0
   35.6380   20.5990   34.0150 C   0  0  0  0  0  0  0  0  0  0  0  0
   36.4820   21.0900   34.9720 C   0  0  0  0  0  0  0  0  0  0  0  0
   37.3960   22.0990   34.7110 C   0  0  0  0  0  0  0  0  0  0  0  0
   36.7470   22.6260   31.5090 H   0  0  0  0  0  0  0  0  0  0  0  0
   35.1390   20.8830   31.8830 H   0  0  0  0  0  0  0  0  0  0  0  0
   34.9030   19.8170   34.1460 H   0  0  0  0  0  0  0  0  0  0  0  0
   36.3570   20.6090   35.9410 H   0  0  0  0  0  0  0  0  0  0  0  0
   38.2030   22.4320   35.8740 C   0  0  0  0  0  0  0  0  0  0  0  0
   37.5150   23.1540   36.8570 C   0  0  0  0  0  0  0  0  0  0  0  0
   36.4670   23.4460   36.7380 H   0  0  0  0  0  0  0  0  0  0  0  0
   38.0740   23.5610   38.0500 C   0  0  0  0  0  3  0  0  0  0  0  0
   39.3810   23.2610   38.3270 C   0  0  0  0  0  0  0  0  0  0  0  0
   39.9250   23.5220   39.2180 H   0  0  0  0  0  0  0  0  0  0  0  0
   40.0700   22.5510   37.3690 C   0  0  0  0  0  0  0  0  0  0  0  0
   41.1080   22.2850   37.5350 H   0  0  0  0  0  0  0  0  0  0  0  0
   39.5150   22.1430   36.1790 C   0  0  0  0  0  3  0  0  0  0  0  0
   37.8440   26.0310   33.9420 C   0  0  0  0  0  3  0  0  0  0  0  0
   37.8020   25.0710   33.0540 C   0  0  0  0  0  3  0  0  0  0  0  0
   35.7110   28.9870   34.1700 C   0  0  0  0  0  0  0  0  0  0  0  0
   35.8700   29.5690   32.8920 C   0  0  0  0  0  0  0  0  0  0  0  0
   36.7180   28.9150   31.9790 C   0  0  0  0  0  0  0  0  0  0  0  0
   37.3510   27.7530   32.3650 N   0  0  0  0  0  0  0  0  0  0  0  0
   37.1420   27.2630   33.6110 C   0  0  0  0  0  0  0  0  0  0  0  0
   36.3340   27.8730   34.4990 N   0  0  0  0  0  0  0  0  0  0  0  0
   35.0580   29.5000   34.8530 H   0  0  0  0  0  0  0  0  0  0  0  0
   35.3960   30.4700   32.5550 H   0  0  0  0  0  0  0  0  0  0  0  0
   36.9640   29.4140   30.6190 C   0  0  0  0  0  0  0  0  0  0  0  0
   37.6590   28.6950   29.6830 C   0  0  0  0  0  0  0  0  0  0  0  0
   37.6940   29.4690   28.5150 C   0  0  0  0  0  0  0  0  0  0  0  0
   37.0210   30.6150   28.8010 N   0  0  0  0  0  0  0  0  0  0  0  0
   36.5860   30.5810   30.0530 N   0  0  0  0  0  0  0  0  0  0  0  0
   38.1260   27.7050   29.7560 H   0  0  0  0  0  0  0  0  0  0  0  0
   38.1540   29.2320   27.5670 H   0  0  0  0  0  0  0  0  0  0  0  0
   36.8360   31.4390   28.1760 H   0  0  0  0  0  0  0  0  0  0  0  0
  1  4  1  0  0  0  0
  1  2  1  0  0  0  0
  3  1  1  0  0  0  0
  4  9  1  0  0  0  0
  5  6  1  0  0  0  0
  5  4  2  0  0  0  0
  6  7  2  0  0  0  0
  7 12  1  0  0  0  0
  7  8  1  0  0  0  0
  8 13  1  0  0  0  0
  9  8  2  0  0  0  0
  9 14  1  0  0  0  0
 10  5  1  0  0  0  0
 11  6  1  0  0  0  0
 14 22  2  0  0  0  0
 14 15  1  0  0  0  0
 15 17  2  0  0  0  0
 16 15  1  0  0  0  0
 17 18  1  0  0  0  0
 18 19  1  0  0  0  0
 20 21  1  0  0  0  0
 20 18  2  0  0  0  0
 22 20  1  0  0  0  0
 24  1  1  0  0  0  0
 24 23  2  0  0  0  0
 25 30  1  0  0  0  0
 25 31  1  0  0  0  0
 26 25  2  0  0  0  0
 27 28  2  0  0  0  0
 27 26  1  0  0  0  0
 28 29  1  0  0  0  0
 29 23  1  0  0  0  0
 29 30  2  0  0  0  0
 32 26  1  0  0  0  0
 33 27  1  0  0  0  0
 34 38  1  0  0  0  0
 34 33  1  0  0  0  0
 35 36  1  0  0  0  0
 35 34  2  0  0  0  0
 36 37  1  0  0  0  0
 37 33  2  0  0  0  0
 39 35  1  0  0  0  0
 40 36  1  0  0  0  0
M  END
>  <minimizedAffinity>
-6.13086319

$$$$
