
 OpenBabel03272502353D

 36 38  0  0  1  0  0  0  0  0999 V2000
   35.6480   29.7090   48.1410 C   0  0  0  0  0  0  0  0  0  0  0  0
   36.6320   30.4610   47.7640 C   0  0  0  0  0  0  0  0  0  0  0  0
   33.5220   29.5080   45.0870 C   0  0  0  0  0  0  0  0  0  0  0  0
   34.5740   29.7320   45.9530 C   0  0  0  0  0  0  0  0  0  0  0  0
   34.5180   29.4430   47.2900 C   0  0  0  0  0  0  0  0  0  0  0  0
   33.3550   28.9120   47.7390 N   0  0  0  0  0  0  0  0  0  0  0  0
   32.3300   28.6880   46.9230 C   0  0  0  0  0  0  0  0  0  0  0  0
   32.3960   28.9770   45.6070 N   0  0  0  0  0  0  0  0  0  0  0  0
   33.5320   29.7230   44.0350 H   0  0  0  0  0  0  0  0  0  0  0  0
   35.4240   30.1570   45.4370 H   0  0  0  0  0  0  0  0  0  0  0  0
   31.0960   28.1150   47.4530 C   0  0  0  0  0  0  0  0  0  0  0  0
   29.9680   28.0210   46.6630 C   0  0  0  0  0  0  0  0  0  0  0  0
   29.9640   28.3650   45.6430 H   0  0  0  0  0  0  0  0  0  0  0  0
   28.8170   27.4740   47.1920 C   0  0  0  0  0  0  0  0  0  0  0  0
   28.7770   27.0210   48.4950 C   0  0  0  0  0  0  0  0  0  0  0  0
   27.8750   26.5800   48.9440 H   0  0  0  0  0  0  0  0  0  0  0  0
   29.8910   27.0930   49.3350 C   0  0  0  0  0  0  0  0  0  0  0  0
   29.9020   26.7510   50.3580 H   0  0  0  0  0  0  0  0  0  0  0  0
   31.0010   27.6470   48.7470 C   0  0  0  0  0  0  0  0  0  0  0  0
   37.7580   30.6820   48.7330 C   0  0  1  0  0  0  0  0  0  0  0  0
   38.3510   29.7520   48.8480 H   0  0  0  0  0  0  0  0  0  0  0  0
   38.5370   31.8570   48.3210 C   0  0  0  0  0  0  0  0  0  0  0  0
   38.6370   32.8410   49.3390 C   0  0  0  0  0  0  0  0  0  0  0  0
   39.3190   34.0300   49.1830 C   0  0  0  0  0  0  0  0  0  0  0  0
   39.9630   34.3250   47.9710 C   0  0  0  0  0  0  0  0  0  0  0  0
   39.8170   33.3130   47.0330 C   0  0  0  0  0  0  0  0  0  0  0  0
   39.1630   32.1540   47.1610 N   0  0  0  0  0  0  0  0  0  0  0  0
   38.2280   32.8450   50.3590 H   0  0  0  0  0  0  0  0  0  0  0  0
   39.4320   34.8170   49.9100 H   0  0  0  0  0  0  0  0  0  0  0  0
   40.5210   35.1750   47.6850 H   0  0  0  0  0  0  0  0  0  0  0  0
   40.2630   33.3970   46.0390 H   0  0  0  0  0  0  0  0  0  0  0  0
   37.0040   31.1090   50.3400 S   0  0  0  0  0  0  0  0  0  0  0  0
   36.9810   29.7010   51.4330 C   0  0  0  0  0  0  0  0  0  0  0  0
   37.6360   29.9290   52.6340 F   0  0  0  0  0  0  0  0  0  0  0  0
   35.6930   29.2330   51.6340 F   0  0  0  0  0  0  0  0  0  0  0  0
   37.6650   28.6650   50.7650 F   0  0  0  0  0  0  0  0  0  0  0  0
  2  1  2  0  0  0  0
  2 20  1  0  0  0  0
  3  8  2  0  0  0  0
  3  4  1  0  0  0  0
  4  5  2  0  0  0  0
  5  6  1  0  0  0  0
  5  1  1  0  0  0  0
  7 11  1  0  0  0  0
  7  6  2  0  0  0  0
  8  7  1  0  0  0  0
  9  3  1  0  0  0  0
 10  4  1  0  0  0  0
 11 19  1  0  0  0  0
 12 14  1  0  0  0  0
 12 11  2  0  0  0  0
 13 12  1  0  0  0  0
 14 15  2  0  0  0  0
 15 16  1  0  0  0  0
 15 17  1  0  0  0  0
 17 18  1  0  0  0  0
 19 17  2  0  0  0  0
 20 21  1  1  0  0  0
 20 32  1  0  0  0  0
 22 20  1  0  0  0  0
 22 23  1  0  0  0  0
 23 28  1  0  0  0  0
 24 23  2  0  0  0  0
 24 29  1  0  0  0  0
 25 24  1  0  0  0  0
 26 27  1  0  0  0  0
 26 25  2  0  0  0  0
 27 22  2  0  0  0  0
 30 25  1  0  0  0  0
 31 26  1  0  0  0  0
 32 33  1  0  0  0  0
 33 35  1  0  0  0  0
 33 34  1  0  0  0  0
 36 33  1  0  0  0  0
M  END
>  <minimizedAffinity>
-6.69771814

>  <minimizedRMSD>
0.582787931

$$$$
