
 OpenBabel03272506193D

 34 36  0  0  0  0  0  0  0  0999 V2000
   34.7550   29.5150   48.9660 C   0  0  0  0  0  0  0  0  0  0  0  0
   34.2020   30.1820   47.8590 C   0  0  0  0  0  0  0  0  0  0  0  0
   33.4320   29.4310   46.9810 C   0  0  0  0  0  0  0  0  0  0  0  0
   33.2430   28.1030   47.2200 N   0  0  0  0  0  0  0  0  0  0  0  0
   33.7920   27.4820   48.3060 C   0  0  0  0  0  0  0  0  0  0  0  0
   34.5380   28.1930   49.1600 N   0  0  0  0  0  0  0  0  0  0  0  0
   34.3290   31.2300   47.6390 H   0  0  0  0  0  0  0  0  0  0  0  0
   33.6030   26.4390   48.4310 H   0  0  0  0  0  0  0  0  0  0  0  0
   35.5730   30.3310   49.9090 C   0  0  0  0  0  0  0  0  0  0  0  0
   36.4700   31.2650   49.1240 C   0  0  0  0  0  0  0  0  0  0  0  0
   37.9190   30.8970   49.2380 C   0  0  0  0  0  0  0  0  0  0  0  0
   38.3980   30.7740   50.6560 C   0  0  0  0  0  0  0  0  0  0  0  0
   37.4020   30.1240   51.5690 C   0  0  0  0  0  0  0  0  0  0  0  0
   36.3150   29.3980   50.8010 C   0  0  0  0  0  0  0  0  0  0  0  0
   34.8320   30.9020   50.5090 H   0  0  0  0  0  0  0  0  0  0  0  0
   36.2240   31.3370   48.0530 H   0  0  0  0  0  0  0  0  0  0  0  0
   36.3630   32.2700   49.5820 H   0  0  0  0  0  0  0  0  0  0  0  0
   38.5040   31.6920   48.7310 H   0  0  0  0  0  0  0  0  0  0  0  0
   38.1130   29.9640   48.6460 H   0  0  0  0  0  0  0  0  0  0  0  0
   38.8250   31.7180   51.0260 H   0  0  0  0  0  0  0  0  0  0  0  0
   39.2750   30.0630   50.6170 H   0  0  0  0  0  0  0  0  0  0  0  0
   37.8440   29.4650   52.3310 H   0  0  0  0  0  0  0  0  0  0  0  0
   36.8960   30.9530   52.1320 H   0  0  0  0  0  0  0  0  0  0  0  0
   35.6130   28.9920   51.5590 H   0  0  0  0  0  0  0  0  0  0  0  0
   36.7300   28.5030   50.2840 H   0  0  0  0  0  0  0  0  0  0  0  0
   32.7920   29.9670   45.7910 C   0  0  0  0  0  0  0  0  0  0  0  0
   31.4200   30.0930   45.7730 C   0  0  0  0  0  0  0  0  0  0  0  0
   30.7830   29.8110   46.6080 H   0  0  0  0  0  0  0  0  0  0  0  0
   30.7460   30.5980   44.6670 C   0  0  0  0  0  3  0  0  0  0  0  0
   31.4230   30.9960   43.5320 C   0  0  0  0  0  0  0  0  0  0  0  0
   30.9800   31.3970   42.6340 H   0  0  0  0  0  0  0  0  0  0  0  0
   32.7960   30.8660   43.5620 C   0  0  0  0  0  0  0  0  0  0  0  0
   33.3770   31.1650   42.6940 H   0  0  0  0  0  0  0  0  0  0  0  0
   33.4650   30.3660   44.6570 C   0  0  0  0  0  3  0  0  0  0  0  0
  1  6  1  0  0  0  0
  1  9  1  0  0  0  0
  2  1  2  0  0  0  0
  3  4  2  0  0  0  0
  3  2  1  0  0  0  0
  4  5  1  0  0  0  0
  5  8  1  0  0  0  0
  5  6  2  0  0  0  0
  7  2  1  0  0  0  0
  9 15  1  0  0  0  0
  9 14  1  0  0  0  0
 10 11  1  0  0  0  0
 10 17  1  0  0  0  0
 10  9  1  0  0  0  0
 11 12  1  0  0  0  0
 12 20  1  0  0  0  0
 12 13  1  0  0  0  0
 13 23  1  0  0  0  0
 13 22  1  0  0  0  0
 14 24  1  0  0  0  0
 14 13  1  0  0  0  0
 16 10  1  0  0  0  0
 18 11  1  0  0  0  0
 19 11  1  0  0  0  0
 21 12  1  0  0  0  0
 25 14  1  0  0  0  0
 26  3  1  0  0  0  0
 27 26  1  0  0  0  0
 27 28  1  0  0  0  0
 29 27  2  0  0  0  0
 30 32  2  0  0  0  0
 30 29  1  0  0  0  0
 31 30  1  0  0  0  0
 32 34  1  0  0  0  0
 33 32  1  0  0  0  0
 34 26  2  0  0  0  0
M  END
>  <minimizedAffinity>
-5.27410841

>  <minimizedRMSD>
0.384997129

$$$$
