
 OpenBabel03272506183D

 34 36  0  0  0  0  0  0  0  0999 V2000
   34.7500   29.4820   48.8650 C   0  0  0  0  0  0  0  0  0  0  0  0
   34.1500   30.1620   47.7910 C   0  0  0  0  0  0  0  0  0  0  0  0
   33.4030   29.4090   46.8960 C   0  0  0  0  0  0  0  0  0  0  0  0
   33.2780   28.0660   47.0880 N   0  0  0  0  0  0  0  0  0  0  0  0
   33.8720   27.4310   48.1430 C   0  0  0  0  0  0  0  0  0  0  0  0
   34.5960   28.1450   49.0130 N   0  0  0  0  0  0  0  0  0  0  0  0
   34.2250   31.2220   47.6090 H   0  0  0  0  0  0  0  0  0  0  0  0
   33.7320   26.3770   48.2320 H   0  0  0  0  0  0  0  0  0  0  0  0
   35.5420   30.3000   49.8260 C   0  0  0  0  0  0  0  0  0  0  0  0
   36.4600   31.2330   49.0630 C   0  0  0  0  0  0  0  0  0  0  0  0
   37.9050   30.8650   49.2150 C   0  0  0  0  0  0  0  0  0  0  0  0
   38.3470   30.7450   50.6460 C   0  0  0  0  0  0  0  0  0  0  0  0
   37.3280   30.0980   51.5340 C   0  0  0  0  0  0  0  0  0  0  0  0
   36.2610   29.3690   50.7400 C   0  0  0  0  0  0  0  0  0  0  0  0
   34.7870   30.8730   50.4050 H   0  0  0  0  0  0  0  0  0  0  0  0
   36.2420   31.3020   47.9860 H   0  0  0  0  0  0  0  0  0  0  0  0
   36.3410   32.2390   49.5150 H   0  0  0  0  0  0  0  0  0  0  0  0
   38.5040   31.6580   48.7220 H   0  0  0  0  0  0  0  0  0  0  0  0
   38.1150   29.9300   48.6300 H   0  0  0  0  0  0  0  0  0  0  0  0
   38.7650   31.6900   51.0240 H   0  0  0  0  0  0  0  0  0  0  0  0
   39.2250   30.0340   50.6310 H   0  0  0  0  0  0  0  0  0  0  0  0
   37.7500   29.4410   52.3080 H   0  0  0  0  0  0  0  0  0  0  0  0
   36.8080   30.9280   52.0820 H   0  0  0  0  0  0  0  0  0  0  0  0
   35.5400   28.9650   51.4800 H   0  0  0  0  0  0  0  0  0  0  0  0
   36.6890   28.4730   50.2360 H   0  0  0  0  0  0  0  0  0  0  0  0
   32.7200   29.9570   45.7350 C   0  0  0  0  0  0  0  0  0  0  0  0
   33.4740   30.3940   44.6660 C   0  0  0  0  0  0  0  0  0  0  0  0
   34.5610   30.3500   44.6430 H   0  0  0  0  0  0  0  0  0  0  0  0
   32.8840   30.9280   43.5260 C   0  0  0  0  0  3  0  0  0  0  0  0
   31.5130   31.0460   43.4130 C   0  0  0  0  0  0  0  0  0  0  0  0
   30.9770   31.4470   42.5670 H   0  0  0  0  0  0  0  0  0  0  0  0
   30.7700   30.6060   44.4890 C   0  0  0  0  0  0  0  0  0  0  0  0
   29.6880   30.6770   44.4510 H   0  0  0  0  0  0  0  0  0  0  0  0
   31.3530   30.0760   45.6190 C   0  0  0  0  0  3  0  0  0  0  0  0
  1  6  1  0  0  0  0
  1  9  1  0  0  0  0
  2  1  2  0  0  0  0
  3  4  2  0  0  0  0
  3  2  1  0  0  0  0
  4  5  1  0  0  0  0
  5  8  1  0  0  0  0
  5  6  2  0  0  0  0
  7  2  1  0  0  0  0
  9 15  1  0  0  0  0
  9 14  1  0  0  0  0
 10 11  1  0  0  0  0
 10 17  1  0  0  0  0
 10  9  1  0  0  0  0
 11 12  1  0  0  0  0
 12 20  1  0  0  0  0
 12 13  1  0  0  0  0
 13 23  1  0  0  0  0
 13 22  1  0  0  0  0
 14 24  1  0  0  0  0
 14 13  1  0  0  0  0
 16 10  1  0  0  0  0
 18 11  1  0  0  0  0
 19 11  1  0  0  0  0
 21 12  1  0  0  0  0
 25 14  1  0  0  0  0
 26  3  1  0  0  0  0
 27 26  2  0  0  0  0
 28 27  1  0  0  0  0
 29 27  1  0  0  0  0
 30 29  2  0  0  0  0
 30 32  1  0  0  0  0
 31 30  1  0  0  0  0
 32 34  2  0  0  0  0
 33 32  1  0  0  0  0
 34 26  1  0  0  0  0
M  END
>  <minimizedAffinity>
-5.24700165

>  <minimizedRMSD>
0.27045697

$$$$
