
 OpenBabel03272506193D

 34 36  0  0  0  0  0  0  0  0999 V2000
   34.7510   29.4100   48.9030 C   0  0  0  0  0  0  0  0  0  0  0  0
   34.1280   30.0420   47.8120 C   0  0  0  0  0  0  0  0  0  0  0  0
   33.3810   29.2450   46.9560 C   0  0  0  0  0  0  0  0  0  0  0  0
   33.2780   27.9080   47.1990 N   0  0  0  0  0  0  0  0  0  0  0  0
   33.8940   27.3220   48.2690 C   0  0  0  0  0  0  0  0  0  0  0  0
   34.6190   28.0780   49.1020 N   0  0  0  0  0  0  0  0  0  0  0  0
   34.1850   31.0950   47.5900 H   0  0  0  0  0  0  0  0  0  0  0  0
   33.7710   26.2700   48.3980 H   0  0  0  0  0  0  0  0  0  0  0  0
   35.5440   30.2750   49.8230 C   0  0  0  0  0  0  0  0  0  0  0  0
   36.4400   31.1890   49.0140 C   0  0  0  0  0  0  0  0  0  0  0  0
   37.8910   30.8470   49.1630 C   0  0  0  0  0  0  0  0  0  0  0  0
   38.3510   30.7870   50.5910 C   0  0  0  0  0  0  0  0  0  0  0  0
   37.3510   30.1610   51.5160 C   0  0  0  0  0  0  0  0  0  0  0  0
   36.2850   29.3890   50.7630 C   0  0  0  0  0  0  0  0  0  0  0  0
   34.7870   30.8600   50.3890 H   0  0  0  0  0  0  0  0  0  0  0  0
   36.2080   31.2140   47.9370 H   0  0  0  0  0  0  0  0  0  0  0  0
   36.3130   32.2100   49.4290 H   0  0  0  0  0  0  0  0  0  0  0  0
   38.4730   31.6280   48.6320 H   0  0  0  0  0  0  0  0  0  0  0  0
   38.1070   29.8920   48.6120 H   0  0  0  0  0  0  0  0  0  0  0  0
   38.7610   31.7510   50.9290 H   0  0  0  0  0  0  0  0  0  0  0  0
   39.2390   30.0880   50.5930 H   0  0  0  0  0  0  0  0  0  0  0  0
   37.7900   29.5400   52.3100 H   0  0  0  0  0  0  0  0  0  0  0  0
   36.8260   31.0050   52.0380 H   0  0  0  0  0  0  0  0  0  0  0  0
   35.5780   29.0050   51.5270 H   0  0  0  0  0  0  0  0  0  0  0  0
   36.7200   28.4800   50.2880 H   0  0  0  0  0  0  0  0  0  0  0  0
   32.6760   29.7400   45.7840 C   0  0  0  0  0  0  0  0  0  0  0  0
   32.2440   31.0490   45.7720 C   0  0  0  0  0  0  0  0  0  0  0  0
   32.4030   31.7380   46.5980 H   0  0  0  0  0  0  0  0  0  0  0  0
   31.5650   31.5840   44.6830 C   0  0  0  0  0  3  0  0  0  0  0  0
   31.2920   30.8270   43.5620 C   0  0  0  0  0  0  0  0  0  0  0  0
   30.7730   31.1620   42.6780 H   0  0  0  0  0  0  0  0  0  0  0  0
   31.7290   29.5190   43.5860 C   0  0  0  0  0  0  0  0  0  0  0  0
   31.5400   28.8800   42.7290 H   0  0  0  0  0  0  0  0  0  0  0  0
   32.4020   28.9870   44.6640 C   0  0  0  0  0  3  0  0  0  0  0  0
  1  6  1  0  0  0  0
  1  9  1  0  0  0  0
  2  1  2  0  0  0  0
  3  4  2  0  0  0  0
  3  2  1  0  0  0  0
  4  5  1  0  0  0  0
  5  8  1  0  0  0  0
  5  6  2  0  0  0  0
  7  2  1  0  0  0  0
  9 15  1  0  0  0  0
  9 14  1  0  0  0  0
 10 11  1  0  0  0  0
 10 17  1  0  0  0  0
 10  9  1  0  0  0  0
 11 12  1  0  0  0  0
 12 21  1  0  0  0  0
 12 20  1  0  0  0  0
 12 13  1  0  0  0  0
 13 23  1  0  0  0  0
 13 22  1  0  0  0  0
 14 13  1  0  0  0  0
 14 24  1  0  0  0  0
 16 10  1  0  0  0  0
 18 11  1  0  0  0  0
 19 11  1  0  0  0  0
 25 14  1  0  0  0  0
 26  3  1  0  0  0  0
 27 26  1  0  0  0  0
 27 28  1  0  0  0  0
 29 27  2  0  0  0  0
 30 32  2  0  0  0  0
 30 29  1  0  0  0  0
 31 30  1  0  0  0  0
 32 34  1  0  0  0  0
 33 32  1  0  0  0  0
 34 26  2  0  0  0  0
M  END
>  <minimizedAffinity>
-5.27620316

>  <minimizedRMSD>
0.491195083

$$$$
