
 OpenBabel03262520083D

 18 19  0  0  0  0  0  0  0  0999 V2000
   38.0120   33.1050   49.4820 C   0  0  0  0  0  0  0  0  0  0  0  0
   38.9760   33.2100   48.4690 C   0  0  0  0  0  0  0  0  0  0  0  0
   38.9500   32.2210   47.4580 C   0  0  0  0  0  0  0  0  0  0  0  0
   38.0130   31.2440   47.5260 N   0  0  0  0  0  0  0  0  0  0  0  0
   37.1050   31.1840   48.5210 C   0  0  0  0  0  0  0  0  0  0  0  0
   37.1090   32.1190   49.4990 N   0  0  0  0  0  0  0  0  0  0  0  0
   38.0470   33.8690   50.2440 H   0  0  0  0  0  0  0  0  0  0  0  0
   39.7280   33.9870   48.4070 H   0  0  0  0  0  0  0  0  0  0  0  0
   39.6550   32.2290   46.6450 H   0  0  0  0  0  0  0  0  0  0  0  0
   36.0920   30.1340   48.6010 C   0  0  0  0  0  0  0  0  0  0  0  0
   35.2820   29.9530   47.5050 C   0  0  0  0  0  0  0  0  0  0  0  0
   35.3660   30.5540   46.5970 H   0  0  0  0  0  0  0  0  0  0  0  0
   34.2980   28.9790   47.5040 C   0  0  0  0  0  0  0  0  0  0  0  0
   34.1500   28.1920   48.6280 C   0  0  0  0  0  0  0  0  0  0  0  0
   33.3710   27.4160   48.6360 H   0  0  0  0  0  0  0  0  0  0  0  0
   34.9560   28.3570   49.7440 C   0  0  0  0  0  0  0  0  0  0  0  0
   34.8310   27.7270   50.6340 H   0  0  0  0  0  0  0  0  0  0  0  0
   35.9420   29.3380   49.7370 C   0  0  0  0  0  0  0  0  0  0  0  0
  1  6  1  0  0  0  0
  1  7  1  0  0  0  0
  2  1  2  0  0  0  0
  3  4  2  0  0  0  0
  3  2  1  0  0  0  0
  4  5  1  0  0  0  0
  5 10  1  0  0  0  0
  5  6  2  0  0  0  0
  8  2  1  0  0  0  0
  9  3  1  0  0  0  0
 10 18  1  0  0  0  0
 11 10  2  0  0  0  0
 12 11  1  0  0  0  0
 13 11  1  0  0  0  0
 13 14  2  0  0  0  0
 14 15  1  0  0  0  0
 14 16  1  0  0  0  0
 16 17  1  0  0  0  0
 18 16  2  0  0  0  0
M  END
>  <minimizedAffinity>
-4.97639799

>  <minimizedRMSD>
2.96565628

$$$$
