
 OpenBabel03262520083D

 18 19  0  0  0  0  0  0  0  0999 V2000
   36.9950   27.4630   34.5750 C   0  0  0  0  0  0  0  0  0  0  0  0
   36.8150   27.1220   33.2260 C   0  0  0  0  0  0  0  0  0  0  0  0
   37.2430   25.8320   32.8320 C   0  0  0  0  0  0  0  0  0  0  0  0
   37.7940   25.0140   33.7630 N   0  0  0  0  0  0  0  0  0  0  0  0
   37.9460   25.3880   35.0500 C   0  0  0  0  0  0  0  0  0  0  0  0
   37.5440   26.6160   35.4520 N   0  0  0  0  0  0  0  0  0  0  0  0
   36.6620   28.4510   34.8570 H   0  0  0  0  0  0  0  0  0  0  0  0
   36.3770   27.7680   32.4770 H   0  0  0  0  0  0  0  0  0  0  0  0
   37.1410   25.4920   31.8170 H   0  0  0  0  0  0  0  0  0  0  0  0
   38.5380   24.5130   36.0580 C   0  0  0  0  0  0  0  0  0  0  0  0
   37.9230   24.4560   37.2860 C   0  0  0  0  0  0  0  0  0  0  0  0
   37.0250   25.0290   37.5290 H   0  0  0  0  0  0  0  0  0  0  0  0
   38.4230   23.6500   38.2940 C   0  0  0  0  0  3  0  0  0  0  0  0
   39.5570   22.9030   38.0380 C   0  0  0  0  0  0  0  0  0  0  0  0
   39.9610   22.2610   38.8330 H   0  0  0  0  0  0  0  0  0  0  0  0
   40.1940   22.9460   36.8080 C   0  0  0  0  0  0  0  0  0  0  0  0
   41.0940   22.3500   36.6130 H   0  0  0  0  0  0  0  0  0  0  0  0
   39.6840   23.7570   35.8010 C   0  0  0  0  0  3  0  0  0  0  0  0
  1  7  1  0  0  0  0
  1  6  1  0  0  0  0
  2  1  2  0  0  0  0
  3  2  1  0  0  0  0
  3  4  2  0  0  0  0
  4  5  1  0  0  0  0
  5  6  2  0  0  0  0
  5 10  1  0  0  0  0
  8  2  1  0  0  0  0
  9  3  1  0  0  0  0
 10 11  1  0  0  0  0
 11 12  1  0  0  0  0
 11 13  2  0  0  0  0
 14 13  1  0  0  0  0
 14 15  1  0  0  0  0
 16 14  2  0  0  0  0
 17 16  1  0  0  0  0
 18 10  2  0  0  0  0
 18 16  1  0  0  0  0
M  END
>  <minimizedAffinity>
-4.06193686

$$$$

 OpenBabel03262520083D

 18 19  0  0  0  0  0  0  0  0999 V2000
   37.3500   25.7170   32.8080 C   0  0  0  0  0  0  0  0  0  0  0  0
   36.8520   27.0010   33.0740 C   0  0  0  0  0  0  0  0  0  0  0  0
   36.9440   27.4570   34.4100 C   0  0  0  0  0  0  0  0  0  0  0  0
   37.4970   26.6410   35.3420 N   0  0  0  0  0  0  0  0  0  0  0  0
   37.9620   25.4130   35.0380 C   0  0  0  0  0  0  0  0  0  0  0  0
   37.8860   24.9540   33.7670 N   0  0  0  0  0  0  0  0  0  0  0  0
   37.2720   25.3860   31.7840 H   0  0  0  0  0  0  0  0  0  0  0  0
   36.4100   27.6590   32.3370 H   0  0  0  0  0  0  0  0  0  0  0  0
   36.5860   28.4290   34.6980 H   0  0  0  0  0  0  0  0  0  0  0  0
   38.5580   24.5280   36.0350 C   0  0  0  0  0  0  0  0  0  0  0  0
   37.9510   24.4640   37.2670 C   0  0  0  0  0  0  0  0  0  0  0  0
   37.0580   25.0390   37.5210 H   0  0  0  0  0  0  0  0  0  0  0  0
   38.4560   23.6490   38.2660 C   0  0  0  0  0  3  0  0  0  0  0  0
   39.5850   22.9000   37.9960 C   0  0  0  0  0  0  0  0  0  0  0  0
   39.9930   22.2500   38.7820 H   0  0  0  0  0  0  0  0  0  0  0  0
   40.2130   22.9490   36.7610 C   0  0  0  0  0  0  0  0  0  0  0  0
   41.1100   22.3510   36.5540 H   0  0  0  0  0  0  0  0  0  0  0  0
   39.6990   23.7700   35.7640 C   0  0  0  0  0  3  0  0  0  0  0  0
  1  2  2  0  0  0  0
  1  6  1  0  0  0  0
  2  3  1  0  0  0  0
  3  9  1  0  0  0  0
  3  4  2  0  0  0  0
  5  4  1  0  0  0  0
  5 10  1  0  0  0  0
  6  5  2  0  0  0  0
  7  1  1  0  0  0  0
  8  2  1  0  0  0  0
 10 11  1  0  0  0  0
 11 12  1  0  0  0  0
 11 13  2  0  0  0  0
 14 13  1  0  0  0  0
 14 15  1  0  0  0  0
 16 14  2  0  0  0  0
 17 16  1  0  0  0  0
 18 10  2  0  0  0  0
 18 16  1  0  0  0  0
M  END
>  <minimizedAffinity>
-4.03715086

$$$$

 OpenBabel03262520083D

 18 19  0  0  0  0  0  0  0  0999 V2000
   40.5200   23.0050   36.4440 C   0  0  0  0  0  0  0  0  0  0  0  0
   40.0460   22.6140   37.7050 C   0  0  0  0  0  0  0  0  0  0  0  0
   38.8870   23.2700   38.1820 C   0  0  0  0  0  0  0  0  0  0  0  0
   38.3100   24.2220   37.4080 N   0  0  0  0  0  0  0  0  0  0  0  0
   38.8030   24.5640   36.2000 C   0  0  0  0  0  0  0  0  0  0  0  0
   39.9110   23.9510   35.7220 N   0  0  0  0  0  0  0  0  0  0  0  0
   41.4050   22.4940   36.0960 H   0  0  0  0  0  0  0  0  0  0  0  0
   40.5000   21.8550   38.3290 H   0  0  0  0  0  0  0  0  0  0  0  0
   38.4590   23.0290   39.1390 H   0  0  0  0  0  0  0  0  0  0  0  0
   38.1880   25.5880   35.3610 C   0  0  0  0  0  0  0  0  0  0  0  0
   38.0690   26.8520   35.8900 C   0  0  0  0  0  0  0  0  0  0  0  0
   38.4100   27.1110   36.8940 H   0  0  0  0  0  0  0  0  0  0  0  0
   37.4970   27.8770   35.1560 C   0  0  0  0  0  3  0  0  0  0  0  0
   37.0490   27.6020   33.8790 C   0  0  0  0  0  0  0  0  0  0  0  0
   36.5930   28.4100   33.2900 H   0  0  0  0  0  0  0  0  0  0  0  0
   37.1590   26.3360   33.3260 C   0  0  0  0  0  0  0  0  0  0  0  0
   36.8000   26.1250   32.3110 H   0  0  0  0  0  0  0  0  0  0  0  0
   37.7350   25.3120   34.0690 C   0  0  0  0  0  3  0  0  0  0  0  0
  1  2  1  0  0  0  0
  2  3  2  0  0  0  0
  2  8  1  0  0  0  0
  3  9  1  0  0  0  0
  4  3  1  0  0  0  0
  5  4  2  0  0  0  0
  6  5  1  0  0  0  0
  6  1  2  0  0  0  0
  7  1  1  0  0  0  0
 10 11  1  0  0  0  0
 10  5  1  0  0  0  0
 11 12  1  0  0  0  0
 13 11  2  0  0  0  0
 14 13  1  0  0  0  0
 15 14  1  0  0  0  0
 16 14  2  0  0  0  0
 16 18  1  0  0  0  0
 17 16  1  0  0  0  0
 18 10  2  0  0  0  0
M  END
>  <minimizedAffinity>
-3.99126697

$$$$

 OpenBabel03262520083D

 18 19  0  0  0  0  0  0  0  0999 V2000
   35.6740   20.6710   33.9370 C   0  0  0  0  0  0  0  0  0  0  0  0
   35.9730   21.0860   32.6300 C   0  0  0  0  0  0  0  0  0  0  0  0
   37.0510   21.9900   32.4790 C   0  0  0  0  0  0  0  0  0  0  0  0
   37.7210   22.3970   33.5850 N   0  0  0  0  0  0  0  0  0  0  0  0
   37.3970   21.9700   34.8220 C   0  0  0  0  0  0  0  0  0  0  0  0
   36.3700   21.1060   34.9930 N   0  0  0  0  0  0  0  0  0  0  0  0
   34.8490   19.9820   34.0320 H   0  0  0  0  0  0  0  0  0  0  0  0
   35.4440   20.7660   31.7420 H   0  0  0  0  0  0  0  0  0  0  0  0
   37.3460   22.3560   31.5110 H   0  0  0  0  0  0  0  0  0  0  0  0
   38.1130   22.4040   36.0180 C   0  0  0  0  0  0  0  0  0  0  0  0
   37.3820   23.0250   37.0030 C   0  0  0  0  0  0  0  0  0  0  0  0
   36.3070   23.2010   36.9240 H   0  0  0  0  0  0  0  0  0  0  0  0
   37.9890   23.4650   38.1670 C   0  0  0  0  0  3  0  0  0  0  0  0
   39.3480   23.2660   38.3160 C   0  0  0  0  0  0  0  0  0  0  0  0
   39.8380   23.6130   39.2370 H   0  0  0  0  0  0  0  0  0  0  0  0
   40.1040   22.6430   37.3360 C   0  0  0  0  0  0  0  0  0  0  0  0
   41.1830   22.4890   37.4620 H   0  0  0  0  0  0  0  0  0  0  0  0
   39.4870   22.2040   36.1710 C   0  0  0  0  0  3  0  0  0  0  0  0
  1  7  1  0  0  0  0
  1  6  1  0  0  0  0
  2  1  2  0  0  0  0
  3  2  1  0  0  0  0
  3  4  2  0  0  0  0
  4  5  1  0  0  0  0
  5  6  2  0  0  0  0
  5 10  1  0  0  0  0
  8  2  1  0  0  0  0
  9  3  1  0  0  0  0
 10 18  2  0  0  0  0
 10 11  1  0  0  0  0
 11 13  2  0  0  0  0
 12 11  1  0  0  0  0
 13 14  1  0  0  0  0
 14 15  1  0  0  0  0
 16 17  1  0  0  0  0
 16 14  2  0  0  0  0
 18 16  1  0  0  0  0
M  END
>  <minimizedAffinity>
-3.89480948

$$$$

 OpenBabel03262520083D

 18 19  0  0  0  0  0  0  0  0999 V2000
   37.3440   24.8860   32.5610 C   0  0  0  0  0  0  0  0  0  0  0  0
   36.5320   25.7390   31.7990 C   0  0  0  0  0  0  0  0  0  0  0  0
   35.4840   25.1340   31.0650 C   0  0  0  0  0  0  0  0  0  0  0  0
   35.3280   23.7890   31.1380 N   0  0  0  0  0  0  0  0  0  0  0  0
   36.1350   23.0100   31.8860 C   0  0  0  0  0  0  0  0  0  0  0  0
   37.1440   23.5650   32.5970 N   0  0  0  0  0  0  0  0  0  0  0  0
   38.1380   25.3660   33.1140 H   0  0  0  0  0  0  0  0  0  0  0  0
   36.6490   26.8130   31.7350 H   0  0  0  0  0  0  0  0  0  0  0  0
   34.8160   25.7170   30.4560 H   0  0  0  0  0  0  0  0  0  0  0  0
   35.9740   21.5610   31.9690 C   0  0  0  0  0  0  0  0  0  0  0  0
   36.2400   20.8290   30.8370 C   0  0  0  0  0  0  0  0  0  0  0  0
   36.5610   21.2830   29.8960 H   0  0  0  0  0  0  0  0  0  0  0  0
   36.1100   19.4510   30.8360 C   0  0  0  0  0  3  0  0  0  0  0  0
   35.7070   18.8270   32.0000 C   0  0  0  0  0  0  0  0  0  0  0  0
   35.6010   17.7330   32.0090 H   0  0  0  0  0  0  0  0  0  0  0  0
   35.4330   19.5450   33.1530 C   0  0  0  0  0  0  0  0  0  0  0  0
   35.1130   19.0420   34.0750 H   0  0  0  0  0  0  0  0  0  0  0  0
   35.5670   20.9290   33.1460 C   0  0  0  0  0  3  0  0  0  0  0  0
  1  6  1  0  0  0  0
  1  7  1  0  0  0  0
  2  1  2  0  0  0  0
  3  4  2  0  0  0  0
  3  2  1  0  0  0  0
  4  5  1  0  0  0  0
  5 10  1  0  0  0  0
  5  6  2  0  0  0  0
  8  2  1  0  0  0  0
  9  3  1  0  0  0  0
 10 18  1  0  0  0  0
 11 10  2  0  0  0  0
 12 11  1  0  0  0  0
 13 11  1  0  0  0  0
 13 14  2  0  0  0  0
 14 15  1  0  0  0  0
 14 16  1  0  0  0  0
 16 17  1  0  0  0  0
 18 16  2  0  0  0  0
M  END
>  <minimizedAffinity>
-3.86578679

$$$$

 OpenBabel03262520083D

 18 19  0  0  0  0  0  0  0  0999 V2000
   36.7770   27.9280   33.2470 C   0  0  0  0  0  0  0  0  0  0  0  0
   36.8710   28.4040   31.9300 C   0  0  0  0  0  0  0  0  0  0  0  0
   36.2590   29.6490   31.6570 C   0  0  0  0  0  0  0  0  0  0  0  0
   35.6280   30.3020   32.6640 N   0  0  0  0  0  0  0  0  0  0  0  0
   35.5630   29.8040   33.9150 C   0  0  0  0  0  0  0  0  0  0  0  0
   36.1410   28.6140   34.2020 N   0  0  0  0  0  0  0  0  0  0  0  0
   37.2500   26.9770   33.4370 H   0  0  0  0  0  0  0  0  0  0  0  0
   37.3730   27.8900   31.1210 H   0  0  0  0  0  0  0  0  0  0  0  0
   36.2860   30.0850   30.6730 H   0  0  0  0  0  0  0  0  0  0  0  0
   34.8850   30.5000   35.0050 C   0  0  0  0  0  0  0  0  0  0  0  0
   35.6360   31.3590   35.7720 C   0  0  0  0  0  0  0  0  0  0  0  0
   36.7000   31.5350   35.5990 H   0  0  0  0  0  0  0  0  0  0  0  0
   35.0650   32.0560   36.8230 C   0  0  0  0  0  3  0  0  0  0  0  0
   33.7220   31.8690   37.0840 C   0  0  0  0  0  0  0  0  0  0  0  0
   33.2600   32.4180   37.9160 H   0  0  0  0  0  0  0  0  0  0  0  0
   32.9460   31.0090   36.3230 C   0  0  0  0  0  0  0  0  0  0  0  0
   31.8790   30.8660   36.5370 H   0  0  0  0  0  0  0  0  0  0  0  0
   33.5270   30.3130   35.2690 C   0  0  0  0  0  3  0  0  0  0  0  0
  1  7  1  0  0  0  0
  1  6  1  0  0  0  0
  2  1  2  0  0  0  0
  3  2  1  0  0  0  0
  3  4  2  0  0  0  0
  4  5  1  0  0  0  0
  5  6  2  0  0  0  0
  5 10  1  0  0  0  0
  8  2  1  0  0  0  0
  9  3  1  0  0  0  0
 10 18  2  0  0  0  0
 10 11  1  0  0  0  0
 11 13  2  0  0  0  0
 12 11  1  0  0  0  0
 13 14  1  0  0  0  0
 14 15  1  0  0  0  0
 16 17  1  0  0  0  0
 16 14  2  0  0  0  0
 18 16  1  0  0  0  0
M  END
>  <minimizedAffinity>
-3.84287024

$$$$

 OpenBabel03262520083D

 18 19  0  0  0  0  0  0  0  0999 V2000
   39.8990   22.5560   36.6210 C   0  0  0  0  0  0  0  0  0  0  0  0
   39.2870   23.1350   37.7430 C   0  0  0  0  0  0  0  0  0  0  0  0
   37.8750   23.2210   37.7260 C   0  0  0  0  0  0  0  0  0  0  0  0
   37.2060   22.7480   36.6460 N   0  0  0  0  0  0  0  0  0  0  0  0
   37.8380   22.2000   35.5890 C   0  0  0  0  0  0  0  0  0  0  0  0
   39.1880   22.1060   35.5820 N   0  0  0  0  0  0  0  0  0  0  0  0
   40.9770   22.4990   36.6520 H   0  0  0  0  0  0  0  0  0  0  0  0
   39.8140   23.5140   38.6090 H   0  0  0  0  0  0  0  0  0  0  0  0
   37.3290   23.6500   38.5470 H   0  0  0  0  0  0  0  0  0  0  0  0
   37.1240   21.6890   34.4220 C   0  0  0  0  0  0  0  0  0  0  0  0
   37.5950   22.0540   33.1830 C   0  0  0  0  0  0  0  0  0  0  0  0
   38.4650   22.6990   33.0440 H   0  0  0  0  0  0  0  0  0  0  0  0
   36.9720   21.6110   32.0290 C   0  0  0  0  0  3  0  0  0  0  0  0
   35.8670   20.7920   32.1500 C   0  0  0  0  0  0  0  0  0  0  0  0
   35.3660   20.4360   31.2390 H   0  0  0  0  0  0  0  0  0  0  0  0
   35.3750   20.4120   33.3890 C   0  0  0  0  0  0  0  0  0  0  0  0
   34.4960   19.7620   33.4770 H   0  0  0  0  0  0  0  0  0  0  0  0
   36.0060   20.8610   34.5430 C   0  0  0  0  0  3  0  0  0  0  0  0
  1  7  1  0  0  0  0
  1  2  1  0  0  0  0
  2  8  1  0  0  0  0
  3  2  2  0  0  0  0
  3  9  1  0  0  0  0
  4  3  1  0  0  0  0
  5  4  2  0  0  0  0
  6  5  1  0  0  0  0
  6  1  2  0  0  0  0
 10 18  1  0  0  0  0
 10  5  1  0  0  0  0
 11 10  2  0  0  0  0
 12 11  1  0  0  0  0
 13 14  2  0  0  0  0
 13 11  1  0  0  0  0
 14 16  1  0  0  0  0
 15 14  1  0  0  0  0
 16 17  1  0  0  0  0
 16 18  2  0  0  0  0
M  END
>  <minimizedAffinity>
-3.7790153

$$$$

 OpenBabel03262520083D

 18 19  0  0  0  0  0  0  0  0999 V2000
   31.2100   28.5180   33.9470 C   0  0  0  0  0  0  0  0  0  0  0  0
   30.5780   27.7350   34.9250 C   0  0  0  0  0  0  0  0  0  0  0  0
   30.9830   27.9390   36.2650 C   0  0  0  0  0  0  0  0  0  0  0  0
   31.9420   28.8620   36.5240 N   0  0  0  0  0  0  0  0  0  0  0  0
   32.5210   29.5910   35.5490 C   0  0  0  0  0  0  0  0  0  0  0  0
   32.1510   29.4150   34.2600 N   0  0  0  0  0  0  0  0  0  0  0  0
   30.8880   28.3500   32.9310 H   0  0  0  0  0  0  0  0  0  0  0  0
   29.8120   26.9970   34.7270 H   0  0  0  0  0  0  0  0  0  0  0  0
   30.5480   27.3790   37.0740 H   0  0  0  0  0  0  0  0  0  0  0  0
   33.5550   30.5870   35.8200 C   0  0  0  0  0  0  0  0  0  0  0  0
   34.6700   30.5760   35.0160 C   0  0  0  0  0  0  0  0  0  0  0  0
   34.8070   29.8640   34.1990 H   0  0  0  0  0  0  0  0  0  0  0  0
   35.6930   31.4870   35.2090 C   0  0  0  0  0  3  0  0  0  0  0  0
   35.5690   32.4100   36.2300 C   0  0  0  0  0  0  0  0  0  0  0  0
   36.3770   33.1370   36.3900 H   0  0  0  0  0  0  0  0  0  0  0  0
   34.4540   32.4390   37.0520 C   0  0  0  0  0  0  0  0  0  0  0  0
   34.3630   33.1750   37.8610 H   0  0  0  0  0  0  0  0  0  0  0  0
   33.4300   31.5200   36.8510 C   0  0  0  0  0  3  0  0  0  0  0  0
  1  6  2  0  0  0  0
  1  2  1  0  0  0  0
  2  3  2  0  0  0  0
  3  4  1  0  0  0  0
  3  9  1  0  0  0  0
  5 10  1  0  0  0  0
  5  4  2  0  0  0  0
  6  5  1  0  0  0  0
  7  1  1  0  0  0  0
  8  2  1  0  0  0  0
 10 18  1  0  0  0  0
 11 13  1  0  0  0  0
 11 10  2  0  0  0  0
 12 11  1  0  0  0  0
 13 14  2  0  0  0  0
 14 15  1  0  0  0  0
 14 16  1  0  0  0  0
 16 17  1  0  0  0  0
 18 16  2  0  0  0  0
M  END
>  <minimizedAffinity>
-3.75077629

$$$$

 OpenBabel03262520083D

 18 19  0  0  0  0  0  0  0  0999 V2000
   37.8140   24.3620   30.6870 C   0  0  0  0  0  0  0  0  0  0  0  0
   36.8600   25.3700   30.8940 C   0  0  0  0  0  0  0  0  0  0  0  0
   35.5960   24.9620   31.3810 C   0  0  0  0  0  0  0  0  0  0  0  0
   35.3820   23.6440   31.6150 N   0  0  0  0  0  0  0  0  0  0  0  0
   36.3310   22.7110   31.4010 C   0  0  0  0  0  0  0  0  0  0  0  0
   37.5480   23.0760   30.9360 N   0  0  0  0  0  0  0  0  0  0  0  0
   38.7720   24.6930   30.3150 H   0  0  0  0  0  0  0  0  0  0  0  0
   37.0230   26.4240   30.7090 H   0  0  0  0  0  0  0  0  0  0  0  0
   34.8090   25.6720   31.5660 H   0  0  0  0  0  0  0  0  0  0  0  0
   36.1070   21.2890   31.6510 C   0  0  0  0  0  0  0  0  0  0  0  0
   35.5870   20.9360   32.8740 C   0  0  0  0  0  0  0  0  0  0  0  0
   35.3410   21.6660   33.6490 H   0  0  0  0  0  0  0  0  0  0  0  0
   35.3470   19.6090   33.1860 C   0  0  0  0  0  3  0  0  0  0  0  0
   35.6420   18.6470   32.2410 C   0  0  0  0  0  0  0  0  0  0  0  0
   35.4540   17.5910   32.4800 H   0  0  0  0  0  0  0  0  0  0  0  0
   36.1660   18.9800   31.0020 C   0  0  0  0  0  0  0  0  0  0  0  0
   36.3980   18.2090   30.2560 H   0  0  0  0  0  0  0  0  0  0  0  0
   36.4040   20.3150   30.6960 C   0  0  0  0  0  3  0  0  0  0  0  0
  1  2  2  0  0  0  0
  1  6  1  0  0  0  0
  2  3  1  0  0  0  0
  3  9  1  0  0  0  0
  3  4  2  0  0  0  0
  5  4  1  0  0  0  0
  5 10  1  0  0  0  0
  6  5  2  0  0  0  0
  7  1  1  0  0  0  0
  8  2  1  0  0  0  0
 10 11  1  0  0  0  0
 11 13  2  0  0  0  0
 11 12  1  0  0  0  0
 14 15  1  0  0  0  0
 14 13  1  0  0  0  0
 16 14  2  0  0  0  0
 17 16  1  0  0  0  0
 18 16  1  0  0  0  0
 18 10  2  0  0  0  0
M  END
>  <minimizedAffinity>
-3.71960473

$$$$
