
 OpenBabel03272506193D

 34 36  0  0  0  0  0  0  0  0999 V2000
   36.5070   28.1280   33.3950 C   0  0  0  0  0  0  0  0  0  0  0  0
   36.0740   28.8730   34.5070 C   0  0  0  0  0  0  0  0  0  0  0  0
   35.2030   29.9270   34.2670 C   0  0  0  0  0  0  0  0  0  0  0  0
   34.8070   30.1950   32.9920 N   0  0  0  0  0  0  0  0  0  0  0  0
   35.2430   29.4530   31.9310 C   0  0  0  0  0  0  0  0  0  0  0  0
   36.0840   28.4340   32.1470 N   0  0  0  0  0  0  0  0  0  0  0  0
   36.3650   28.6890   35.5280 H   0  0  0  0  0  0  0  0  0  0  0  0
   34.8920   29.7190   30.9590 H   0  0  0  0  0  0  0  0  0  0  0  0
   37.4350   26.9920   33.6630 C   0  0  0  0  0  0  0  0  0  0  0  0
   37.6110   26.8210   35.1570 C   0  0  0  0  0  0  0  0  0  0  0  0
   38.9920   27.1840   35.6160 C   0  0  0  0  0  0  0  0  0  0  0  0
   40.0800   26.4650   34.8710 C   0  0  0  0  0  0  0  0  0  0  0  0
   39.8070   26.3240   33.4040 C   0  0  0  0  0  0  0  0  0  0  0  0
   38.7070   27.2570   32.9360 C   0  0  0  0  0  0  0  0  0  0  0  0
   36.9350   26.1040   33.2180 H   0  0  0  0  0  0  0  0  0  0  0  0
   36.8930   27.3920   35.7660 H   0  0  0  0  0  0  0  0  0  0  0  0
   37.4810   25.7410   35.3730 H   0  0  0  0  0  0  0  0  0  0  0  0
   39.0630   26.9240   36.6920 H   0  0  0  0  0  0  0  0  0  0  0  0
   39.1170   28.2980   35.5720 H   0  0  0  0  0  0  0  0  0  0  0  0
   40.3810   25.5380   35.3820 H   0  0  0  0  0  0  0  0  0  0  0  0
   40.9870   27.1350   34.9430 H   0  0  0  0  0  0  0  0  0  0  0  0
   40.6960   26.4220   32.7630 H   0  0  0  0  0  0  0  0  0  0  0  0
   39.4290   25.2790   33.2480 H   0  0  0  0  0  0  0  0  0  0  0  0
   38.5550   27.0460   31.8570 H   0  0  0  0  0  0  0  0  0  0  0  0
   39.0470   28.3160   32.9780 H   0  0  0  0  0  0  0  0  0  0  0  0
   34.6640   30.7940   35.3030 C   0  0  0  0  0  0  0  0  0  0  0  0
   33.3200   30.7220   35.5960 C   0  0  0  0  0  0  0  0  0  0  0  0
   32.6330   30.0470   35.0920 H   0  0  0  0  0  0  0  0  0  0  0  0
   32.7410   31.5230   36.5760 C   0  0  0  0  0  3  0  0  0  0  0  0
   33.4910   32.4290   37.2990 C   0  0  0  0  0  0  0  0  0  0  0  0
   33.1240   33.0850   38.0730 H   0  0  0  0  0  0  0  0  0  0  0  0
   34.8350   32.4910   36.9970 C   0  0  0  0  0  0  0  0  0  0  0  0
   35.4700   33.1870   37.5370 H   0  0  0  0  0  0  0  0  0  0  0  0
   35.4090   31.6980   36.0270 C   0  0  0  0  0  3  0  0  0  0  0  0
  1  9  1  0  0  0  0
  1  2  1  0  0  0  0
  2  7  1  0  0  0  0
  3  2  2  0  0  0  0
  3 26  1  0  0  0  0
  4  3  1  0  0  0  0
  5  6  1  0  0  0  0
  5  4  2  0  0  0  0
  6  1  2  0  0  0  0
  8  5  1  0  0  0  0
  9 10  1  0  0  0  0
 10 17  1  0  0  0  0
 10 11  1  0  0  0  0
 10 16  1  0  0  0  0
 11 18  1  0  0  0  0
 12 21  1  0  0  0  0
 12 20  1  0  0  0  0
 12 11  1  0  0  0  0
 13 12  1  0  0  0  0
 14 25  1  0  0  0  0
 14 13  1  0  0  0  0
 14  9  1  0  0  0  0
 15  9  1  0  0  0  0
 19 11  1  0  0  0  0
 22 13  1  0  0  0  0
 23 13  1  0  0  0  0
 24 14  1  0  0  0  0
 26 27  2  0  0  0  0
 26 34  1  0  0  0  0
 27 29  1  0  0  0  0
 28 27  1  0  0  0  0
 29 30  2  0  0  0  0
 30 31  1  0  0  0  0
 32 30  1  0  0  0  0
 32 33  1  0  0  0  0
 34 32  2  0  0  0  0
M  END
>  <minimizedAffinity>
-5.61053085

$$$$

 OpenBabel03272506193D

 34 36  0  0  0  0  0  0  0  0999 V2000
   36.7530   26.1160   32.4460 C   0  0  0  0  0  0  0  0  0  0  0  0
   36.9770   24.7340   32.5810 C   0  0  0  0  0  0  0  0  0  0  0  0
   36.2080   23.8840   31.7980 C   0  0  0  0  0  0  0  0  0  0  0  0
   35.2850   24.4070   30.9440 N   0  0  0  0  0  0  0  0  0  0  0  0
   35.0900   25.7550   30.8330 C   0  0  0  0  0  0  0  0  0  0  0  0
   35.8240   26.5870   31.5820 N   0  0  0  0  0  0  0  0  0  0  0  0
   37.6990   24.2850   33.2440 H   0  0  0  0  0  0  0  0  0  0  0  0
   34.3500   26.0960   30.1430 H   0  0  0  0  0  0  0  0  0  0  0  0
   37.5900   27.0220   33.2830 C   0  0  0  0  0  0  0  0  0  0  0  0
   39.0010   27.0600   32.7350 C   0  0  0  0  0  0  0  0  0  0  0  0
   39.9880   26.3980   33.6490 C   0  0  0  0  0  0  0  0  0  0  0  0
   39.9540   26.9260   35.0540 C   0  0  0  0  0  0  0  0  0  0  0  0
   38.5690   27.2100   35.5530 C   0  0  0  0  0  0  0  0  0  0  0  0
   37.5080   26.5500   34.6930 C   0  0  0  0  0  0  0  0  0  0  0  0
   37.1040   28.0180   33.2000 H   0  0  0  0  0  0  0  0  0  0  0  0
   39.1120   26.6100   31.7360 H   0  0  0  0  0  0  0  0  0  0  0  0
   39.2920   28.1290   32.6780 H   0  0  0  0  0  0  0  0  0  0  0  0
   41.0000   26.5710   33.2270 H   0  0  0  0  0  0  0  0  0  0  0  0
   39.8400   25.2860   33.6130 H   0  0  0  0  0  0  0  0  0  0  0  0
   40.6810   27.7390   35.2030 H   0  0  0  0  0  0  0  0  0  0  0  0
   40.3380   26.0830   35.7020 H   0  0  0  0  0  0  0  0  0  0  0  0
   38.4090   26.9730   36.6150 H   0  0  0  0  0  0  0  0  0  0  0  0
   38.4150   28.3170   35.4560 H   0  0  0  0  0  0  0  0  0  0  0  0
   36.5290   26.8530   35.1170 H   0  0  0  0  0  0  0  0  0  0  0  0
   37.5420   25.4430   34.8090 H   0  0  0  0  0  0  0  0  0  0  0  0
   36.3150   22.4340   31.8180 C   0  0  0  0  0  0  0  0  0  0  0  0
   35.2190   21.6920   32.2030 C   0  0  0  0  0  0  0  0  0  0  0  0
   34.2700   22.1340   32.4950 H   0  0  0  0  0  0  0  0  0  0  0  0
   35.2540   20.3020   32.2430 C   0  0  0  0  0  3  0  0  0  0  0  0
   36.3930   19.6020   31.8990 C   0  0  0  0  0  0  0  0  0  0  0  0
   36.5060   18.5290   31.9030 H   0  0  0  0  0  0  0  0  0  0  0  0
   37.4830   20.3550   31.5150 C   0  0  0  0  0  0  0  0  0  0  0  0
   38.4040   19.8530   31.2340 H   0  0  0  0  0  0  0  0  0  0  0  0
   37.4480   21.7320   31.4750 C   0  0  0  0  0  3  0  0  0  0  0  0
  1  2  1  0  0  0  0
  1  9  1  0  0  0  0
  2  7  1  0  0  0  0
  3 26  1  0  0  0  0
  3  2  2  0  0  0  0
  4  3  1  0  0  0  0
  5  4  2  0  0  0  0
  5  6  1  0  0  0  0
  6  1  2  0  0  0  0
  8  5  1  0  0  0  0
  9 14  1  0  0  0  0
 10  9  1  0  0  0  0
 10 11  1  0  0  0  0
 11 12  1  0  0  0  0
 12 20  1  0  0  0  0
 12 13  1  0  0  0  0
 12 21  1  0  0  0  0
 13 22  1  0  0  0  0
 14 25  1  0  0  0  0
 14 24  1  0  0  0  0
 14 13  1  0  0  0  0
 15  9  1  0  0  0  0
 16 10  1  0  0  0  0
 17 10  1  0  0  0  0
 18 11  1  0  0  0  0
 19 11  1  0  0  0  0
 23 13  1  0  0  0  0
 26 27  1  0  0  0  0
 27 29  2  0  0  0  0
 27 28  1  0  0  0  0
 30 31  1  0  0  0  0
 30 29  1  0  0  0  0
 32 30  2  0  0  0  0
 33 32  1  0  0  0  0
 34 32  1  0  0  0  0
 34 26  2  0  0  0  0
M  END
>  <minimizedAffinity>
-5.40606308

$$$$

 OpenBabel03272506193D

 34 36  0  0  0  0  0  0  0  0999 V2000
   37.3110   22.5320   32.5710 C   0  0  0  0  0  0  0  0  0  0  0  0
   37.6260   22.3610   33.9310 C   0  0  0  0  0  0  0  0  0  0  0  0
   38.0780   23.4750   34.6260 C   0  0  0  0  0  0  0  0  0  0  0  0
   38.1960   24.6680   33.9800 N   0  0  0  0  0  0  0  0  0  0  0  0
   37.8810   24.8040   32.6570 C   0  0  0  0  0  0  0  0  0  0  0  0
   37.4450   23.7390   31.9740 N   0  0  0  0  0  0  0  0  0  0  0  0
   37.5420   21.4340   34.4750 H   0  0  0  0  0  0  0  0  0  0  0  0
   37.9980   25.7690   32.2150 H   0  0  0  0  0  0  0  0  0  0  0  0
   36.8170   21.3330   31.8350 C   0  0  0  0  0  0  0  0  0  0  0  0
   35.3960   21.0260   32.2610 C   0  0  0  0  0  0  0  0  0  0  0  0
   35.2970   19.7550   33.0500 C   0  0  0  0  0  0  0  0  0  0  0  0
   35.9090   18.5700   32.3600 C   0  0  0  0  0  0  0  0  0  0  0  0
   37.1850   18.8900   31.6410 C   0  0  0  0  0  0  0  0  0  0  0  0
   37.7710   20.2170   32.0830 C   0  0  0  0  0  0  0  0  0  0  0  0
   36.8560   21.6200   30.7630 H   0  0  0  0  0  0  0  0  0  0  0  0
   34.9160   21.8250   32.8470 H   0  0  0  0  0  0  0  0  0  0  0  0
   34.8120   20.8660   31.3320 H   0  0  0  0  0  0  0  0  0  0  0  0
   34.2200   19.5530   33.2210 H   0  0  0  0  0  0  0  0  0  0  0  0
   35.7330   19.9170   34.0720 H   0  0  0  0  0  0  0  0  0  0  0  0
   35.1660   18.0130   31.7690 H   0  0  0  0  0  0  0  0  0  0  0  0
   36.2020   17.8580   33.1870 H   0  0  0  0  0  0  0  0  0  0  0  0
   37.9450   18.0970   31.6870 H   0  0  0  0  0  0  0  0  0  0  0  0
   36.9210   19.0020   30.5560 H   0  0  0  0  0  0  0  0  0  0  0  0
   38.6800   20.3780   31.4680 H   0  0  0  0  0  0  0  0  0  0  0  0
   38.1390   20.1530   33.1320 H   0  0  0  0  0  0  0  0  0  0  0  0
   38.4450   23.4670   36.0330 C   0  0  0  0  0  0  0  0  0  0  0  0
   37.6700   24.1750   36.9260 C   0  0  0  0  0  0  0  0  0  0  0  0
   36.7910   24.7440   36.6350 H   0  0  0  0  0  0  0  0  0  0  0  0
   37.9670   24.2090   38.2850 C   0  0  0  0  0  3  0  0  0  0  0  0
   39.0550   23.5320   38.8000 C   0  0  0  0  0  0  0  0  0  0  0  0
   39.3550   23.5060   39.8360 H   0  0  0  0  0  0  0  0  0  0  0  0
   39.8220   22.8280   37.8970 C   0  0  0  0  0  0  0  0  0  0  0  0
   40.6890   22.2790   38.2500 H   0  0  0  0  0  0  0  0  0  0  0  0
   39.5290   22.7940   36.5500 C   0  0  0  0  0  3  0  0  0  0  0  0
  1  2  1  0  0  0  0
  2  7  1  0  0  0  0
  2  3  2  0  0  0  0
  3 26  1  0  0  0  0
  4  3  1  0  0  0  0
  5  4  2  0  0  0  0
  6  1  2  0  0  0  0
  6  5  1  0  0  0  0
  8  5  1  0  0  0  0
  9 14  1  0  0  0  0
  9 10  1  0  0  0  0
  9  1  1  0  0  0  0
 10 16  1  0  0  0  0
 10 11  1  0  0  0  0
 11 18  1  0  0  0  0
 11 19  1  0  0  0  0
 12 11  1  0  0  0  0
 12 21  1  0  0  0  0
 13 22  1  0  0  0  0
 13 14  1  0  0  0  0
 13 12  1  0  0  0  0
 14 25  1  0  0  0  0
 15  9  1  0  0  0  0
 17 10  1  0  0  0  0
 20 12  1  0  0  0  0
 23 13  1  0  0  0  0
 24 14  1  0  0  0  0
 26 34  2  0  0  0  0
 26 27  1  0  0  0  0
 27 29  2  0  0  0  0
 28 27  1  0  0  0  0
 29 30  1  0  0  0  0
 30 31  1  0  0  0  0
 32 33  1  0  0  0  0
 32 30  2  0  0  0  0
 34 32  1  0  0  0  0
M  END
>  <minimizedAffinity>
-5.36045122

$$$$

 OpenBabel03272506193D

 34 36  0  0  0  0  0  0  0  0999 V2000
   37.8530   26.1440   32.9550 C   0  0  0  0  0  0  0  0  0  0  0  0
   38.1500   25.8810   34.3040 C   0  0  0  0  0  0  0  0  0  0  0  0
   38.2290   24.5500   34.6920 C   0  0  0  0  0  0  0  0  0  0  0  0
   38.0210   23.5680   33.7710 N   0  0  0  0  0  0  0  0  0  0  0  0
   37.7340   23.8540   32.4660 C   0  0  0  0  0  0  0  0  0  0  0  0
   37.6540   25.1330   32.0780 N   0  0  0  0  0  0  0  0  0  0  0  0
   38.3230   26.6300   35.0590 H   0  0  0  0  0  0  0  0  0  0  0  0
   37.5820   23.0350   31.7990 H   0  0  0  0  0  0  0  0  0  0  0  0
   37.7800   27.5760   32.5460 C   0  0  0  0  0  0  0  0  0  0  0  0
   36.5790   28.2300   33.1970 C   0  0  0  0  0  0  0  0  0  0  0  0
   35.5130   28.5840   32.2050 C   0  0  0  0  0  0  0  0  0  0  0  0
   36.0100   29.4180   31.0600 C   0  0  0  0  0  0  0  0  0  0  0  0
   37.3640   29.0070   30.5650 C   0  0  0  0  0  0  0  0  0  0  0  0
   37.7560   27.6270   31.0580 C   0  0  0  0  0  0  0  0  0  0  0  0
   38.7270   28.0270   32.9140 H   0  0  0  0  0  0  0  0  0  0  0  0
   36.1130   27.6290   33.9940 H   0  0  0  0  0  0  0  0  0  0  0  0
   36.9350   29.1860   33.6340 H   0  0  0  0  0  0  0  0  0  0  0  0
   34.7310   29.1530   32.7480 H   0  0  0  0  0  0  0  0  0  0  0  0
   35.0050   27.6460   31.8540 H   0  0  0  0  0  0  0  0  0  0  0  0
   35.8910   30.4940   31.2560 H   0  0  0  0  0  0  0  0  0  0  0  0
   35.3030   29.2070   30.2040 H   0  0  0  0  0  0  0  0  0  0  0  0
   37.4930   29.0800   29.4750 H   0  0  0  0  0  0  0  0  0  0  0  0
   38.1000   29.7270   31.0120 H   0  0  0  0  0  0  0  0  0  0  0  0
   38.7800   27.4370   30.6750 H   0  0  0  0  0  0  0  0  0  0  0  0
   37.1200   26.8460   30.5830 H   0  0  0  0  0  0  0  0  0  0  0  0
   38.5260   24.1080   36.0450 C   0  0  0  0  0  0  0  0  0  0  0  0
   37.7390   24.5640   37.0810 C   0  0  0  0  0  0  0  0  0  0  0  0
   36.9000   25.2410   36.9410 H   0  0  0  0  0  0  0  0  0  0  0  0
   37.9690   24.1800   38.3980 C   0  0  0  0  0  3  0  0  0  0  0  0
   39.0000   23.3220   38.7270 C   0  0  0  0  0  0  0  0  0  0  0  0
   39.2470   22.9760   39.7180 H   0  0  0  0  0  0  0  0  0  0  0  0
   39.7800   22.8730   37.6820 C   0  0  0  0  0  0  0  0  0  0  0  0
   40.6040   22.1970   37.8870 H   0  0  0  0  0  0  0  0  0  0  0  0
   39.5530   23.2530   36.3770 C   0  0  0  0  0  3  0  0  0  0  0  0
  1  2  1  0  0  0  0
  2  3  2  0  0  0  0
  2  7  1  0  0  0  0
  3 26  1  0  0  0  0
  4  3  1  0  0  0  0
  5  4  2  0  0  0  0
  6  5  1  0  0  0  0
  6  1  2  0  0  0  0
  8  5  1  0  0  0  0
  9 15  1  0  0  0  0
  9  1  1  0  0  0  0
  9 10  1  0  0  0  0
 10 17  1  0  0  0  0
 10 16  1  0  0  0  0
 11 18  1  0  0  0  0
 11 10  1  0  0  0  0
 12 20  1  0  0  0  0
 12 11  1  0  0  0  0
 13 23  1  0  0  0  0
 13 14  1  0  0  0  0
 13 12  1  0  0  0  0
 14  9  1  0  0  0  0
 19 11  1  0  0  0  0
 21 12  1  0  0  0  0
 22 13  1  0  0  0  0
 24 14  1  0  0  0  0
 25 14  1  0  0  0  0
 26 34  2  0  0  0  0
 26 27  1  0  0  0  0
 27 29  2  0  0  0  0
 28 27  1  0  0  0  0
 29 30  1  0  0  0  0
 30 31  1  0  0  0  0
 32 33  1  0  0  0  0
 32 30  2  0  0  0  0
 34 32  1  0  0  0  0
M  END
>  <minimizedAffinity>
-5.32314491

$$$$

 OpenBabel03272506193D

 34 36  0  0  0  0  0  0  0  0999 V2000
   34.8880   30.2320   33.6770 C   0  0  0  0  0  0  0  0  0  0  0  0
   35.6320   29.2860   34.4030 C   0  0  0  0  0  0  0  0  0  0  0  0
   36.3650   28.3570   33.6770 C   0  0  0  0  0  0  0  0  0  0  0  0
   36.3380   28.3960   32.3150 N   0  0  0  0  0  0  0  0  0  0  0  0
   35.6060   29.3280   31.6360 C   0  0  0  0  0  0  0  0  0  0  0  0
   34.8940   30.2290   32.3230 N   0  0  0  0  0  0  0  0  0  0  0  0
   35.6790   29.2260   35.4780 H   0  0  0  0  0  0  0  0  0  0  0  0
   35.6310   29.2990   30.5690 H   0  0  0  0  0  0  0  0  0  0  0  0
   34.1120   31.2310   34.4650 C   0  0  0  0  0  0  0  0  0  0  0  0
   35.0610   32.2270   35.0970 C   0  0  0  0  0  0  0  0  0  0  0  0
   35.1230   32.0920   36.5880 C   0  0  0  0  0  0  0  0  0  0  0  0
   33.7780   32.1500   37.2540 C   0  0  0  0  0  0  0  0  0  0  0  0
   32.7040   31.4300   36.4960 C   0  0  0  0  0  0  0  0  0  0  0  0
   33.2770   30.4910   35.4510 C   0  0  0  0  0  0  0  0  0  0  0  0
   33.4500   31.7290   33.7230 H   0  0  0  0  0  0  0  0  0  0  0  0
   36.0910   32.1790   34.7110 H   0  0  0  0  0  0  0  0  0  0  0  0
   34.6500   33.2370   34.8890 H   0  0  0  0  0  0  0  0  0  0  0  0
   35.7480   32.9240   36.9720 H   0  0  0  0  0  0  0  0  0  0  0  0
   35.6830   31.1550   36.8530 H   0  0  0  0  0  0  0  0  0  0  0  0
   33.5230   33.1730   37.5680 H   0  0  0  0  0  0  0  0  0  0  0  0
   33.8960   31.5790   38.2210 H   0  0  0  0  0  0  0  0  0  0  0  0
   31.9740   30.9050   37.1280 H   0  0  0  0  0  0  0  0  0  0  0  0
   32.1250   32.2130   35.9390 H   0  0  0  0  0  0  0  0  0  0  0  0
   32.4100   30.0440   34.9230 H   0  0  0  0  0  0  0  0  0  0  0  0
   33.7940   29.6330   35.9360 H   0  0  0  0  0  0  0  0  0  0  0  0
   37.1840   27.3140   34.2730 C   0  0  0  0  0  0  0  0  0  0  0  0
   37.8580   27.5870   35.4450 C   0  0  0  0  0  0  0  0  0  0  0  0
   37.8100   28.5470   35.9530 H   0  0  0  0  0  0  0  0  0  0  0  0
   38.6580   26.6340   36.0670 C   0  0  0  0  0  3  0  0  0  0  0  0
   38.8130   25.3690   35.5360 C   0  0  0  0  0  0  0  0  0  0  0  0
   39.4130   24.5740   35.9520 H   0  0  0  0  0  0  0  0  0  0  0  0
   38.1350   25.1080   34.3650 C   0  0  0  0  0  0  0  0  0  0  0  0
   38.2240   24.1280   33.9050 H   0  0  0  0  0  0  0  0  0  0  0  0
   37.3420   26.0520   33.7470 C   0  0  0  0  0  3  0  0  0  0  0  0
  1  2  1  0  0  0  0
  1  9  1  0  0  0  0
  2  7  1  0  0  0  0
  3 26  1  0  0  0  0
  3  2  2  0  0  0  0
  4  3  1  0  0  0  0
  5  4  2  0  0  0  0
  5  6  1  0  0  0  0
  6  1  2  0  0  0  0
  8  5  1  0  0  0  0
  9 10  1  0  0  0  0
  9 14  1  0  0  0  0
 10 11  1  0  0  0  0
 11 19  1  0  0  0  0
 11 18  1  0  0  0  0
 11 12  1  0  0  0  0
 12 20  1  0  0  0  0
 12 21  1  0  0  0  0
 13 22  1  0  0  0  0
 13 12  1  0  0  0  0
 14 25  1  0  0  0  0
 14 13  1  0  0  0  0
 15  9  1  0  0  0  0
 16 10  1  0  0  0  0
 17 10  1  0  0  0  0
 23 13  1  0  0  0  0
 24 14  1  0  0  0  0
 26 27  1  0  0  0  0
 27 28  1  0  0  0  0
 27 29  2  0  0  0  0
 30 31  1  0  0  0  0
 30 29  1  0  0  0  0
 32 30  2  0  0  0  0
 33 32  1  0  0  0  0
 34 26  2  0  0  0  0
 34 32  1  0  0  0  0
M  END
>  <minimizedAffinity>
-5.25284433

$$$$

 OpenBabel03272506193D

 34 36  0  0  0  0  0  0  0  0999 V2000
   38.2200   25.6090   31.8650 C   0  0  0  0  0  0  0  0  0  0  0  0
   37.4210   24.4880   32.1500 C   0  0  0  0  0  0  0  0  0  0  0  0
   37.4690   23.4270   31.2560 C   0  0  0  0  0  0  0  0  0  0  0  0
   38.2730   23.5080   30.1590 N   0  0  0  0  0  0  0  0  0  0  0  0
   39.0400   24.6110   29.9080 C   0  0  0  0  0  0  0  0  0  0  0  0
   39.0020   25.6410   30.7610 N   0  0  0  0  0  0  0  0  0  0  0  0
   36.7760   24.3880   33.0080 H   0  0  0  0  0  0  0  0  0  0  0  0
   39.6460   24.6060   29.0300 H   0  0  0  0  0  0  0  0  0  0  0  0
   38.1700   26.7400   32.8350 C   0  0  0  0  0  0  0  0  0  0  0  0
   39.5710   27.0630   33.3120 C   0  0  0  0  0  0  0  0  0  0  0  0
   39.7810   26.7110   34.7540 C   0  0  0  0  0  0  0  0  0  0  0  0
   38.7590   27.3150   35.6740 C   0  0  0  0  0  0  0  0  0  0  0  0
   37.3690   27.3070   35.1110 C   0  0  0  0  0  0  0  0  0  0  0  0
   37.2370   26.3620   33.9330 C   0  0  0  0  0  0  0  0  0  0  0  0
   37.7390   27.5890   32.2630 H   0  0  0  0  0  0  0  0  0  0  0  0
   40.3700   26.5810   32.7270 H   0  0  0  0  0  0  0  0  0  0  0  0
   39.6880   28.1640   33.2350 H   0  0  0  0  0  0  0  0  0  0  0  0
   40.7850   27.0820   35.0430 H   0  0  0  0  0  0  0  0  0  0  0  0
   39.8350   25.5950   34.8600 H   0  0  0  0  0  0  0  0  0  0  0  0
   39.0940   28.2820   36.0790 H   0  0  0  0  0  0  0  0  0  0  0  0
   38.7210   26.6310   36.5720 H   0  0  0  0  0  0  0  0  0  0  0  0
   36.5790   27.1150   35.8520 H   0  0  0  0  0  0  0  0  0  0  0  0
   37.1780   28.3400   34.7160 H   0  0  0  0  0  0  0  0  0  0  0  0
   36.1940   26.4610   33.5680 H   0  0  0  0  0  0  0  0  0  0  0  0
   37.3270   25.3040   34.2660 H   0  0  0  0  0  0  0  0  0  0  0  0
   36.7060   22.1980   31.4040 C   0  0  0  0  0  0  0  0  0  0  0  0
   37.1820   21.0450   30.8160 C   0  0  0  0  0  0  0  0  0  0  0  0
   38.1040   21.0030   30.2420 H   0  0  0  0  0  0  0  0  0  0  0  0
   36.5010   19.8370   30.9190 C   0  0  0  0  0  3  0  0  0  0  0  0
   35.3140   19.7380   31.6180 C   0  0  0  0  0  0  0  0  0  0  0  0
   34.7240   18.8440   31.7470 H   0  0  0  0  0  0  0  0  0  0  0  0
   34.8490   20.8970   32.2020 C   0  0  0  0  0  0  0  0  0  0  0  0
   33.9190   20.8740   32.7630 H   0  0  0  0  0  0  0  0  0  0  0  0
   35.5230   22.0950   32.1000 C   0  0  0  0  0  3  0  0  0  0  0  0
  1  2  1  0  0  0  0
  1  9  1  0  0  0  0
  2  7  1  0  0  0  0
  3 26  1  0  0  0  0
  3  2  2  0  0  0  0
  4  3  1  0  0  0  0
  5  4  2  0  0  0  0
  5  6  1  0  0  0  0
  6  1  2  0  0  0  0
  8  5  1  0  0  0  0
  9 10  1  0  0  0  0
  9 14  1  0  0  0  0
 10 11  1  0  0  0  0
 11 19  1  0  0  0  0
 11 18  1  0  0  0  0
 11 12  1  0  0  0  0
 12 20  1  0  0  0  0
 12 21  1  0  0  0  0
 13 12  1  0  0  0  0
 13 22  1  0  0  0  0
 14 25  1  0  0  0  0
 14 13  1  0  0  0  0
 15  9  1  0  0  0  0
 16 10  1  0  0  0  0
 17 10  1  0  0  0  0
 23 13  1  0  0  0  0
 24 14  1  0  0  0  0
 26 34  1  0  0  0  0
 27 29  1  0  0  0  0
 27 26  2  0  0  0  0
 28 27  1  0  0  0  0
 29 30  2  0  0  0  0
 30 31  1  0  0  0  0
 30 32  1  0  0  0  0
 32 33  1  0  0  0  0
 34 32  2  0  0  0  0
M  END
>  <minimizedAffinity>
-5.25126696

$$$$

 OpenBabel03272506193D

 34 36  0  0  0  0  0  0  0  0999 V2000
   36.7800   22.7220   31.1840 C   0  0  0  0  0  0  0  0  0  0  0  0
   36.3180   23.8560   31.8770 C   0  0  0  0  0  0  0  0  0  0  0  0
   37.1310   24.9810   31.8710 C   0  0  0  0  0  0  0  0  0  0  0  0
   38.3210   24.9480   31.2080 N   0  0  0  0  0  0  0  0  0  0  0  0
   38.7430   23.8320   30.5420 C   0  0  0  0  0  0  0  0  0  0  0  0
   37.9700   22.7400   30.5400 N   0  0  0  0  0  0  0  0  0  0  0  0
   35.3840   23.9190   32.4090 H   0  0  0  0  0  0  0  0  0  0  0  0
   39.6860   23.8770   30.0440 H   0  0  0  0  0  0  0  0  0  0  0  0
   35.8960   21.5220   31.1860 C   0  0  0  0  0  0  0  0  0  0  0  0
   35.1090   21.4740   32.4790 C   0  0  0  0  0  0  0  0  0  0  0  0
   35.5310   20.3400   33.3640 C   0  0  0  0  0  0  0  0  0  0  0  0
   35.5050   19.0020   32.6810 C   0  0  0  0  0  0  0  0  0  0  0  0
   35.9890   19.0460   31.2630 C   0  0  0  0  0  0  0  0  0  0  0  0
   36.7500   20.3230   30.9600 C   0  0  0  0  0  0  0  0  0  0  0  0
   35.2210   21.6620   30.3150 H   0  0  0  0  0  0  0  0  0  0  0  0
   35.1560   22.4000   33.0730 H   0  0  0  0  0  0  0  0  0  0  0  0
   34.0520   21.2810   32.2020 H   0  0  0  0  0  0  0  0  0  0  0  0
   34.8330   20.3140   34.2260 H   0  0  0  0  0  0  0  0  0  0  0  0
   36.5380   20.5670   33.8050 H   0  0  0  0  0  0  0  0  0  0  0  0
   34.5450   18.4860   32.8320 H   0  0  0  0  0  0  0  0  0  0  0  0
   36.2570   18.3670   33.2350 H   0  0  0  0  0  0  0  0  0  0  0  0
   36.5720   18.1660   30.9530 H   0  0  0  0  0  0  0  0  0  0  0  0
   35.0750   19.0560   30.6130 H   0  0  0  0  0  0  0  0  0  0  0  0
   37.0260   20.2750   29.8870 H   0  0  0  0  0  0  0  0  0  0  0  0
   37.7200   20.3410   31.5070 H   0  0  0  0  0  0  0  0  0  0  0  0
   36.8020   26.2310   32.5380 C   0  0  0  0  0  0  0  0  0  0  0  0
   36.1070   27.1940   31.8400 C   0  0  0  0  0  0  0  0  0  0  0  0
   35.7870   27.0710   30.8080 H   0  0  0  0  0  0  0  0  0  0  0  0
   35.7610   28.4100   32.4190 C   0  0  0  0  0  3  0  0  0  0  0  0
   36.1000   28.7080   33.7240 C   0  0  0  0  0  0  0  0  0  0  0  0
   35.8720   29.6230   34.2480 H   0  0  0  0  0  0  0  0  0  0  0  0
   36.7950   27.7360   34.4120 C   0  0  0  0  0  0  0  0  0  0  0  0
   37.0860   27.9200   35.4420 H   0  0  0  0  0  0  0  0  0  0  0  0
   37.1390   26.5300   33.8390 C   0  0  0  0  0  3  0  0  0  0  0  0
  1  9  1  0  0  0  0
  1  2  1  0  0  0  0
  2  7  1  0  0  0  0
  3  2  2  0  0  0  0
  3 26  1  0  0  0  0
  4  3  1  0  0  0  0
  5  4  2  0  0  0  0
  6  5  1  0  0  0  0
  6  1  2  0  0  0  0
  8  5  1  0  0  0  0
  9 10  1  0  0  0  0
 10 16  1  0  0  0  0
 10 11  1  0  0  0  0
 11 19  1  0  0  0  0
 11 18  1  0  0  0  0
 12 20  1  0  0  0  0
 12 21  1  0  0  0  0
 12 11  1  0  0  0  0
 13 12  1  0  0  0  0
 14  9  1  0  0  0  0
 14 13  1  0  0  0  0
 14 25  1  0  0  0  0
 15  9  1  0  0  0  0
 17 10  1  0  0  0  0
 22 13  1  0  0  0  0
 23 13  1  0  0  0  0
 24 14  1  0  0  0  0
 26 34  1  0  0  0  0
 27 29  1  0  0  0  0
 27 26  2  0  0  0  0
 28 27  1  0  0  0  0
 29 30  2  0  0  0  0
 30 31  1  0  0  0  0
 30 32  1  0  0  0  0
 32 33  1  0  0  0  0
 34 32  2  0  0  0  0
M  END
>  <minimizedAffinity>
-5.25018358

$$$$

 OpenBabel03272506193D

 34 36  0  0  0  0  0  0  0  0999 V2000
   35.9160   23.4970   31.4470 C   0  0  0  0  0  0  0  0  0  0  0  0
   36.9940   23.8560   32.2750 C   0  0  0  0  0  0  0  0  0  0  0  0
   37.1810   25.2080   32.5290 C   0  0  0  0  0  0  0  0  0  0  0  0
   36.3300   26.1180   31.9790 N   0  0  0  0  0  0  0  0  0  0  0  0
   35.2900   25.7400   31.1780 C   0  0  0  0  0  0  0  0  0  0  0  0
   35.0980   24.4400   30.9240 N   0  0  0  0  0  0  0  0  0  0  0  0
   37.6850   23.1640   32.7290 H   0  0  0  0  0  0  0  0  0  0  0  0
   34.6630   26.5070   30.7810 H   0  0  0  0  0  0  0  0  0  0  0  0
   35.7170   22.0420   31.1880 C   0  0  0  0  0  0  0  0  0  0  0  0
   34.8600   21.4440   32.2830 C   0  0  0  0  0  0  0  0  0  0  0  0
   35.6270   20.5010   33.1600 C   0  0  0  0  0  0  0  0  0  0  0  0
   36.3420   19.4200   32.4010 C   0  0  0  0  0  0  0  0  0  0  0  0
   36.9580   19.8970   31.1200 C   0  0  0  0  0  0  0  0  0  0  0  0
   37.0600   21.4090   31.0660 C   0  0  0  0  0  0  0  0  0  0  0  0
   35.1980   21.9950   30.2060 H   0  0  0  0  0  0  0  0  0  0  0  0
   34.3710   22.1860   32.9330 H   0  0  0  0  0  0  0  0  0  0  0  0
   34.0760   20.8400   31.7810 H   0  0  0  0  0  0  0  0  0  0  0  0
   34.9030   20.0300   33.8560 H   0  0  0  0  0  0  0  0  0  0  0  0
   36.3260   21.0880   33.8150 H   0  0  0  0  0  0  0  0  0  0  0  0
   35.7310   18.5090   32.3150 H   0  0  0  0  0  0  0  0  0  0  0  0
   37.2110   19.1160   33.0560 H   0  0  0  0  0  0  0  0  0  0  0  0
   37.9270   19.4350   30.8810 H   0  0  0  0  0  0  0  0  0  0  0  0
   36.2590   19.5940   30.2970 H   0  0  0  0  0  0  0  0  0  0  0  0
   37.4860   21.6590   30.0720 H   0  0  0  0  0  0  0  0  0  0  0  0
   37.8090   21.7790   31.8020 H   0  0  0  0  0  0  0  0  0  0  0  0
   38.2450   25.7440   33.3620 C   0  0  0  0  0  0  0  0  0  0  0  0
   39.5470   25.3790   33.0940 C   0  0  0  0  0  0  0  0  0  0  0  0
   39.8250   24.7060   32.2880 H   0  0  0  0  0  0  0  0  0  0  0  0
   40.6110   25.8570   33.8520 C   0  0  0  0  0  3  0  0  0  0  0  0
   40.4090   26.7210   34.9100 C   0  0  0  0  0  0  0  0  0  0  0  0
   41.1740   27.1370   35.5470 H   0  0  0  0  0  0  0  0  0  0  0  0
   39.1020   27.0800   35.1670 C   0  0  0  0  0  0  0  0  0  0  0  0
   38.8890   27.7570   35.9890 H   0  0  0  0  0  0  0  0  0  0  0  0
   38.0470   26.6070   34.4170 C   0  0  0  0  0  3  0  0  0  0  0  0
  1  2  1  0  0  0  0
  2  3  2  0  0  0  0
  2  7  1  0  0  0  0
  3 26  1  0  0  0  0
  4  3  1  0  0  0  0
  5  4  2  0  0  0  0
  6  5  1  0  0  0  0
  6  1  2  0  0  0  0
  8  5  1  0  0  0  0
  9  1  1  0  0  0  0
  9 10  1  0  0  0  0
 10 16  1  0  0  0  0
 10 11  1  0  0  0  0
 11 19  1  0  0  0  0
 11 18  1  0  0  0  0
 12 21  1  0  0  0  0
 12 11  1  0  0  0  0
 13 12  1  0  0  0  0
 14 13  1  0  0  0  0
 14  9  1  0  0  0  0
 14 25  1  0  0  0  0
 15  9  1  0  0  0  0
 17 10  1  0  0  0  0
 20 12  1  0  0  0  0
 22 13  1  0  0  0  0
 23 13  1  0  0  0  0
 24 14  1  0  0  0  0
 26 34  1  0  0  0  0
 27 26  2  0  0  0  0
 27 29  1  0  0  0  0
 28 27  1  0  0  0  0
 29 30  2  0  0  0  0
 30 32  1  0  0  0  0
 30 31  1  0  0  0  0
 32 33  1  0  0  0  0
 34 32  2  0  0  0  0
M  END
>  <minimizedAffinity>
-5.16834402

$$$$

 OpenBabel03272506193D

 34 36  0  0  0  0  0  0  0  0999 V2000
   37.2660   22.7320   31.3150 C   0  0  0  0  0  0  0  0  0  0  0  0
   37.2020   23.6190   32.4040 C   0  0  0  0  0  0  0  0  0  0  0  0
   38.1950   24.5860   32.4970 C   0  0  0  0  0  0  0  0  0  0  0  0
   39.1720   24.6390   31.5510 N   0  0  0  0  0  0  0  0  0  0  0  0
   39.2080   23.7630   30.5020 C   0  0  0  0  0  0  0  0  0  0  0  0
   38.2580   22.8260   30.4000 N   0  0  0  0  0  0  0  0  0  0  0  0
   36.4440   23.6080   33.1690 H   0  0  0  0  0  0  0  0  0  0  0  0
   40.0030   23.8630   29.7970 H   0  0  0  0  0  0  0  0  0  0  0  0
   36.1910   21.7030   31.2170 C   0  0  0  0  0  0  0  0  0  0  0  0
   35.3430   21.7350   32.4720 C   0  0  0  0  0  0  0  0  0  0  0  0
   35.5190   20.5060   33.3120 C   0  0  0  0  0  0  0  0  0  0  0  0
   35.2990   19.2250   32.5590 C   0  0  0  0  0  0  0  0  0  0  0  0
   35.8540   19.2480   31.1660 C   0  0  0  0  0  0  0  0  0  0  0  0
   36.8360   20.3860   30.9640 C   0  0  0  0  0  0  0  0  0  0  0  0
   35.5940   21.9980   30.3270 H   0  0  0  0  0  0  0  0  0  0  0  0
   35.5170   22.6110   33.1150 H   0  0  0  0  0  0  0  0  0  0  0  0
   34.2840   21.7410   32.1410 H   0  0  0  0  0  0  0  0  0  0  0  0
   34.7850   20.5630   34.1420 H   0  0  0  0  0  0  0  0  0  0  0  0
   36.5270   20.5350   33.8060 H   0  0  0  0  0  0  0  0  0  0  0  0
   34.2580   18.8770   32.6410 H   0  0  0  0  0  0  0  0  0  0  0  0
   35.9020   18.4450   33.1090 H   0  0  0  0  0  0  0  0  0  0  0  0
   36.2930   18.2950   30.8350 H   0  0  0  0  0  0  0  0  0  0  0  0
   34.9890   19.4460   30.4800 H   0  0  0  0  0  0  0  0  0  0  0  0
   37.1540   20.3400   29.9020 H   0  0  0  0  0  0  0  0  0  0  0  0
   37.7660   20.2110   31.5510 H   0  0  0  0  0  0  0  0  0  0  0  0
   38.2740   25.5760   33.5590 C   0  0  0  0  0  0  0  0  0  0  0  0
   37.1480   26.3050   33.8740 C   0  0  0  0  0  0  0  0  0  0  0  0
   36.1940   26.1800   33.3680 H   0  0  0  0  0  0  0  0  0  0  0  0
   37.1570   27.2670   34.8780 C   0  0  0  0  0  3  0  0  0  0  0  0
   38.2980   27.5350   35.6070 C   0  0  0  0  0  0  0  0  0  0  0  0
   38.3920   28.2620   36.3990 H   0  0  0  0  0  0  0  0  0  0  0  0
   39.4180   26.7990   35.2830 C   0  0  0  0  0  0  0  0  0  0  0  0
   40.3430   26.9710   35.8260 H   0  0  0  0  0  0  0  0  0  0  0  0
   39.4110   25.8450   34.2880 C   0  0  0  0  0  3  0  0  0  0  0  0
  1  2  1  0  0  0  0
  2  3  2  0  0  0  0
  2  7  1  0  0  0  0
  3 26  1  0  0  0  0
  4  3  1  0  0  0  0
  5  4  2  0  0  0  0
  6  5  1  0  0  0  0
  6  1  2  0  0  0  0
  8  5  1  0  0  0  0
  9  1  1  0  0  0  0
  9 10  1  0  0  0  0
 10 16  1  0  0  0  0
 10 11  1  0  0  0  0
 11 19  1  0  0  0  0
 11 18  1  0  0  0  0
 12 20  1  0  0  0  0
 12 21  1  0  0  0  0
 12 11  1  0  0  0  0
 13 12  1  0  0  0  0
 14 13  1  0  0  0  0
 14  9  1  0  0  0  0
 14 25  1  0  0  0  0
 15  9  1  0  0  0  0
 17 10  1  0  0  0  0
 22 13  1  0  0  0  0
 23 13  1  0  0  0  0
 24 14  1  0  0  0  0
 26 27  2  0  0  0  0
 26 34  1  0  0  0  0
 27 29  1  0  0  0  0
 28 27  1  0  0  0  0
 29 30  2  0  0  0  0
 30 31  1  0  0  0  0
 32 30  1  0  0  0  0
 32 33  1  0  0  0  0
 34 32  2  0  0  0  0
M  END
>  <minimizedAffinity>
-5.11247206

$$$$
