
 OpenBabel03272506183D

 34 36  0  0  0  0  0  0  0  0999 V2000
   34.7530   29.4490   48.8610 C   0  0  0  0  0  0  0  0  0  0  0  0
   34.1530   30.1130   47.7770 C   0  0  0  0  0  0  0  0  0  0  0  0
   33.4120   29.3450   46.8900 C   0  0  0  0  0  0  0  0  0  0  0  0
   33.2930   28.0040   47.0980 N   0  0  0  0  0  0  0  0  0  0  0  0
   33.8870   27.3860   48.1620 C   0  0  0  0  0  0  0  0  0  0  0  0
   34.6060   28.1140   49.0250 N   0  0  0  0  0  0  0  0  0  0  0  0
   34.2240   31.1710   47.5820 H   0  0  0  0  0  0  0  0  0  0  0  0
   33.7520   26.3320   48.2630 H   0  0  0  0  0  0  0  0  0  0  0  0
   35.5400   30.2830   49.8140 C   0  0  0  0  0  0  0  0  0  0  0  0
   36.4440   31.2210   49.0410 C   0  0  0  0  0  0  0  0  0  0  0  0
   37.8940   30.8700   49.1910 C   0  0  0  0  0  0  0  0  0  0  0  0
   38.3420   30.7650   50.6210 C   0  0  0  0  0  0  0  0  0  0  0  0
   37.3330   30.1130   51.5170 C   0  0  0  0  0  0  0  0  0  0  0  0
   36.2720   29.3670   50.7310 C   0  0  0  0  0  0  0  0  0  0  0  0
   34.7800   30.8510   50.3910 H   0  0  0  0  0  0  0  0  0  0  0  0
   36.2220   31.2800   47.9640 H   0  0  0  0  0  0  0  0  0  0  0  0
   36.3160   32.2280   49.4870 H   0  0  0  0  0  0  0  0  0  0  0  0
   38.4820   31.6670   48.6900 H   0  0  0  0  0  0  0  0  0  0  0  0
   38.1120   29.9340   48.6120 H   0  0  0  0  0  0  0  0  0  0  0  0
   38.7510   31.7170   50.9910 H   0  0  0  0  0  0  0  0  0  0  0  0
   39.2280   30.0640   50.6070 H   0  0  0  0  0  0  0  0  0  0  0  0
   37.7650   29.4660   52.2940 H   0  0  0  0  0  0  0  0  0  0  0  0
   36.8060   30.9400   52.0610 H   0  0  0  0  0  0  0  0  0  0  0  0
   35.5580   28.9600   51.4770 H   0  0  0  0  0  0  0  0  0  0  0  0
   36.7090   28.4720   50.2320 H   0  0  0  0  0  0  0  0  0  0  0  0
   32.7300   29.8760   45.7200 C   0  0  0  0  0  0  0  0  0  0  0  0
   32.6260   29.0860   44.5950 C   0  0  0  0  0  0  0  0  0  0  0  0
   33.0290   28.0780   44.5340 H   0  0  0  0  0  0  0  0  0  0  0  0
   31.9870   29.5330   43.4450 C   0  0  0  0  0  3  0  0  0  0  0  0
   31.4270   30.7920   43.3760 C   0  0  0  0  0  0  0  0  0  0  0  0
   30.9150   31.2170   42.5260 H   0  0  0  0  0  0  0  0  0  0  0  0
   31.5360   31.5740   44.5070 C   0  0  0  0  0  0  0  0  0  0  0  0
   31.1120   32.5740   44.5060 H   0  0  0  0  0  0  0  0  0  0  0  0
   32.1700   31.1320   45.6480 C   0  0  0  0  0  3  0  0  0  0  0  0
  1  6  1  0  0  0  0
  1  9  1  0  0  0  0
  2  1  2  0  0  0  0
  3  4  2  0  0  0  0
  3  2  1  0  0  0  0
  4  5  1  0  0  0  0
  5  8  1  0  0  0  0
  5  6  2  0  0  0  0
  7  2  1  0  0  0  0
  9 15  1  0  0  0  0
  9 14  1  0  0  0  0
 10 11  1  0  0  0  0
 10 17  1  0  0  0  0
 10  9  1  0  0  0  0
 11 12  1  0  0  0  0
 12 20  1  0  0  0  0
 12 13  1  0  0  0  0
 13 23  1  0  0  0  0
 13 22  1  0  0  0  0
 14 24  1  0  0  0  0
 14 13  1  0  0  0  0
 16 10  1  0  0  0  0
 18 11  1  0  0  0  0
 19 11  1  0  0  0  0
 21 12  1  0  0  0  0
 25 14  1  0  0  0  0
 26  3  1  0  0  0  0
 27 26  2  0  0  0  0
 28 27  1  0  0  0  0
 29 27  1  0  0  0  0
 30 29  2  0  0  0  0
 30 32  1  0  0  0  0
 31 30  1  0  0  0  0
 32 34  2  0  0  0  0
 33 32  1  0  0  0  0
 34 26  1  0  0  0  0
M  END
>  <minimizedAffinity>
-5.24767685

>  <minimizedRMSD>
0.214387819

$$$$
