
 OpenBabel03262521033D

 18 19  0  0  0  0  0  0  0  0999 V2000
   37.6830   30.5930   50.8760 C   0  0  0  0  0  0  0  0  0  0  0  0
   37.2230   31.2080   49.6800 C   0  0  0  0  0  0  0  0  0  0  0  0
   35.9560   30.8430   49.2270 C   0  0  0  0  0  0  0  0  0  0  0  0
   35.2450   29.9360   49.9410 N   0  0  0  0  0  0  0  0  0  0  0  0
   35.7050   29.3660   51.0750 C   0  0  0  0  0  0  0  0  0  0  0  0
   36.9270   29.7020   51.5360 N   0  0  0  0  0  0  0  0  0  0  0  0
   38.6400   30.7750   51.3490 H   0  0  0  0  0  0  0  0  0  0  0  0
   35.6390   31.3210   48.3290 H   0  0  0  0  0  0  0  0  0  0  0  0
   35.1200   28.6460   51.6280 H   0  0  0  0  0  0  0  0  0  0  0  0
   38.1320   32.1610   49.0510 C   0  0  0  0  0  0  0  0  0  0  0  0
   38.5360   31.8620   47.7650 C   0  0  0  0  0  0  0  0  0  0  0  0
   38.2120   30.9780   47.2280 H   0  0  0  0  0  0  0  0  0  0  0  0
   39.3920   32.6430   47.0150 C   0  0  0  0  0  0  0  0  0  0  0  0
   39.8920   33.8200   47.5850 C   0  0  0  0  0  0  0  0  0  0  0  0
   40.5650   34.4520   47.0200 H   0  0  0  0  0  0  0  0  0  0  0  0
   39.4820   34.1110   48.8760 C   0  0  0  0  0  0  0  0  0  0  0  0
   39.8720   35.0360   49.3290 H   0  0  0  0  0  0  0  0  0  0  0  0
   38.6260   33.3240   49.6160 C   0  0  0  0  0  0  0  0  0  0  0  0
  1  7  1  0  0  0  0
  1  6  1  0  0  0  0
  2  1  2  0  0  0  0
  3  2  1  0  0  0  0
  3  4  2  0  0  0  0
  4  5  1  0  0  0  0
  5  6  2  0  0  0  0
  5  9  1  0  0  0  0
  8  3  1  0  0  0  0
 10 18  1  0  0  0  0
 10  2  1  0  0  0  0
 11 10  2  0  0  0  0
 12 11  1  0  0  0  0
 13 14  2  0  0  0  0
 13 11  1  0  0  0  0
 14 16  1  0  0  0  0
 15 14  1  0  0  0  0
 16 17  1  0  0  0  0
 16 18  2  0  0  0  0
M  END
>  <minimizedAffinity>
-5.01719856

>  <minimizedRMSD>
2.70548916

$$$$
