
 OpenBabel03272506193D

 34 36  0  0  0  0  0  0  0  0999 V2000
   34.7360   29.5110   48.8860 C   0  0  0  0  0  0  0  0  0  0  0  0
   34.1780   30.2220   47.8090 C   0  0  0  0  0  0  0  0  0  0  0  0
   33.4290   29.5010   46.8890 C   0  0  0  0  0  0  0  0  0  0  0  0
   33.2650   28.1590   47.0590 N   0  0  0  0  0  0  0  0  0  0  0  0
   33.8190   27.4950   48.1170 C   0  0  0  0  0  0  0  0  0  0  0  0
   34.5440   28.1770   49.0120 N   0  0  0  0  0  0  0  0  0  0  0  0
   34.2850   31.2810   47.6440 H   0  0  0  0  0  0  0  0  0  0  0  0
   33.6490   26.4430   48.1880 H   0  0  0  0  0  0  0  0  0  0  0  0
   35.5310   30.2940   49.8750 C   0  0  0  0  0  0  0  0  0  0  0  0
   36.4590   31.2420   49.1440 C   0  0  0  0  0  0  0  0  0  0  0  0
   37.9000   30.8590   49.2910 C   0  0  0  0  0  0  0  0  0  0  0  0
   38.3350   30.6930   50.7190 C   0  0  0  0  0  0  0  0  0  0  0  0
   37.3070   30.0270   51.5830 C   0  0  0  0  0  0  0  0  0  0  0  0
   36.2380   29.3310   50.7630 C   0  0  0  0  0  0  0  0  0  0  0  0
   34.7770   30.8550   50.4670 H   0  0  0  0  0  0  0  0  0  0  0  0
   36.2460   31.3450   48.0680 H   0  0  0  0  0  0  0  0  0  0  0  0
   36.3450   32.2350   49.6260 H   0  0  0  0  0  0  0  0  0  0  0  0
   38.5070   31.6620   48.8240 H   0  0  0  0  0  0  0  0  0  0  0  0
   38.1060   29.9400   48.6800 H   0  0  0  0  0  0  0  0  0  0  0  0
   38.7580   31.6230   51.1280 H   0  0  0  0  0  0  0  0  0  0  0  0
   39.2080   29.9770   50.6870 H   0  0  0  0  0  0  0  0  0  0  0  0
   37.7200   29.3440   52.3400 H   0  0  0  0  0  0  0  0  0  0  0  0
   36.7910   30.8440   52.1540 H   0  0  0  0  0  0  0  0  0  0  0  0
   35.5110   28.9100   51.4880 H   0  0  0  0  0  0  0  0  0  0  0  0
   36.6620   28.4470   50.2350 H   0  0  0  0  0  0  0  0  0  0  0  0
   32.7860   30.0830   45.7220 C   0  0  0  0  0  0  0  0  0  0  0  0
   33.5580   30.3870   44.6210 C   0  0  0  0  0  0  0  0  0  0  0  0
   34.6300   30.2120   44.5760 H   0  0  0  0  0  0  0  0  0  0  0  0
   33.0060   30.9450   43.4730 C   0  0  0  0  0  3  0  0  0  0  0  0
   31.6560   31.2220   43.3860 C   0  0  0  0  0  0  0  0  0  0  0  0
   31.1490   31.6530   42.5360 H   0  0  0  0  0  0  0  0  0  0  0  0
   30.8950   30.9150   44.4940 C   0  0  0  0  0  0  0  0  0  0  0  0
   29.8270   31.1130   44.4770 H   0  0  0  0  0  0  0  0  0  0  0  0
   31.4400   30.3610   45.6310 C   0  0  0  0  0  3  0  0  0  0  0  0
  1  6  1  0  0  0  0
  1  9  1  0  0  0  0
  2  1  2  0  0  0  0
  3  4  2  0  0  0  0
  3  2  1  0  0  0  0
  4  5  1  0  0  0  0
  5  8  1  0  0  0  0
  5  6  2  0  0  0  0
  7  2  1  0  0  0  0
  9 15  1  0  0  0  0
  9 14  1  0  0  0  0
 10 11  1  0  0  0  0
 10 17  1  0  0  0  0
 10  9  1  0  0  0  0
 11 12  1  0  0  0  0
 12 20  1  0  0  0  0
 12 13  1  0  0  0  0
 13 23  1  0  0  0  0
 13 22  1  0  0  0  0
 14 24  1  0  0  0  0
 14 13  1  0  0  0  0
 16 10  1  0  0  0  0
 18 11  1  0  0  0  0
 19 11  1  0  0  0  0
 21 12  1  0  0  0  0
 25 14  1  0  0  0  0
 26  3  1  0  0  0  0
 27 26  2  0  0  0  0
 28 27  1  0  0  0  0
 29 27  1  0  0  0  0
 30 29  2  0  0  0  0
 30 32  1  0  0  0  0
 31 30  1  0  0  0  0
 32 34  2  0  0  0  0
 33 32  1  0  0  0  0
 34 26  1  0  0  0  0
M  END
>  <minimizedAffinity>
-5.25874853

>  <minimizedRMSD>
0.357496709

$$$$
