
 OpenBabel03272506193D

 34 36  0  0  0  0  0  0  0  0999 V2000
   34.6810   29.5720   48.9230 C   0  0  0  0  0  0  0  0  0  0  0  0
   34.2680   30.2860   47.7840 C   0  0  0  0  0  0  0  0  0  0  0  0
   33.5050   29.6030   46.8460 C   0  0  0  0  0  0  0  0  0  0  0  0
   33.1890   28.2960   47.0590 N   0  0  0  0  0  0  0  0  0  0  0  0
   33.6050   27.6280   48.1770 C   0  0  0  0  0  0  0  0  0  0  0  0
   34.3420   28.2730   49.0890 N   0  0  0  0  0  0  0  0  0  0  0  0
   34.4960   31.3200   47.5830 H   0  0  0  0  0  0  0  0  0  0  0  0
   33.3210   26.6040   48.2790 H   0  0  0  0  0  0  0  0  0  0  0  0
   35.4920   30.3150   49.9290 C   0  0  0  0  0  0  0  0  0  0  0  0
   36.4510   31.2490   49.2190 C   0  0  0  0  0  0  0  0  0  0  0  0
   37.8800   30.8220   49.3670 C   0  0  0  0  0  0  0  0  0  0  0  0
   38.3020   30.6190   50.7950 C   0  0  0  0  0  0  0  0  0  0  0  0
   37.2500   29.9680   51.6410 C   0  0  0  0  0  0  0  0  0  0  0  0
   36.1670   29.3170   50.8040 C   0  0  0  0  0  0  0  0  0  0  0  0
   34.7510   30.8870   50.5280 H   0  0  0  0  0  0  0  0  0  0  0  0
   36.2470   31.3760   48.1450 H   0  0  0  0  0  0  0  0  0  0  0  0
   36.3630   32.2360   49.7180 H   0  0  0  0  0  0  0  0  0  0  0  0
   38.5120   31.6150   48.9180 H   0  0  0  0  0  0  0  0  0  0  0  0
   38.0630   29.9090   48.7410 H   0  0  0  0  0  0  0  0  0  0  0  0
   38.7490   31.5290   51.2220 H   0  0  0  0  0  0  0  0  0  0  0  0
   39.1540   29.8780   50.7540 H   0  0  0  0  0  0  0  0  0  0  0  0
   37.6400   29.2600   52.3880 H   0  0  0  0  0  0  0  0  0  0  0  0
   36.7550   30.7890   52.2230 H   0  0  0  0  0  0  0  0  0  0  0  0
   35.4240   28.9050   51.5180 H   0  0  0  0  0  0  0  0  0  0  0  0
   36.5690   28.4310   50.2620 H   0  0  0  0  0  0  0  0  0  0  0  0
   32.9990   30.1940   45.6170 C   0  0  0  0  0  0  0  0  0  0  0  0
   33.4810   29.7320   44.4110 C   0  0  0  0  0  0  0  0  0  0  0  0
   34.2240   28.9430   44.3280 H   0  0  0  0  0  0  0  0  0  0  0  0
   33.0400   30.2530   43.2000 C   0  0  0  0  0  3  0  0  0  0  0  0
   32.0970   31.2600   43.1510 C   0  0  0  0  0  0  0  0  0  0  0  0
   31.7020   31.7190   42.2580 H   0  0  0  0  0  0  0  0  0  0  0  0
   31.6230   31.7150   44.3640 C   0  0  0  0  0  0  0  0  0  0  0  0
   30.8790   32.5060   44.3820 H   0  0  0  0  0  0  0  0  0  0  0  0
   32.0590   31.1990   45.5650 C   0  0  0  0  0  3  0  0  0  0  0  0
  1  6  1  0  0  0  0
  1  9  1  0  0  0  0
  2  1  2  0  0  0  0
  3  4  2  0  0  0  0
  3  2  1  0  0  0  0
  4  5  1  0  0  0  0
  5  8  1  0  0  0  0
  5  6  2  0  0  0  0
  7  2  1  0  0  0  0
  9 15  1  0  0  0  0
  9 14  1  0  0  0  0
 10 11  1  0  0  0  0
 10 17  1  0  0  0  0
 10  9  1  0  0  0  0
 11 12  1  0  0  0  0
 12 20  1  0  0  0  0
 12 13  1  0  0  0  0
 13 23  1  0  0  0  0
 13 22  1  0  0  0  0
 14 24  1  0  0  0  0
 14 13  1  0  0  0  0
 16 10  1  0  0  0  0
 18 11  1  0  0  0  0
 19 11  1  0  0  0  0
 21 12  1  0  0  0  0
 25 14  1  0  0  0  0
 26  3  1  0  0  0  0
 27 26  2  0  0  0  0
 28 27  1  0  0  0  0
 29 27  1  0  0  0  0
 30 29  2  0  0  0  0
 30 32  1  0  0  0  0
 31 30  1  0  0  0  0
 32 33  1  0  0  0  0
 32 34  2  0  0  0  0
 34 26  1  0  0  0  0
M  END
>  <minimizedAffinity>
-5.29757595

>  <minimizedRMSD>
0.427039593

$$$$
