
 OpenBabel03272506193D

 34 36  0  0  0  0  0  0  0  0999 V2000
   34.6810   29.5720   48.9230 C   0  0  0  0  0  0  0  0  0  0  0  0
   34.2680   30.2860   47.7840 C   0  0  0  0  0  0  0  0  0  0  0  0
   33.5040   29.6030   46.8460 C   0  0  0  0  0  0  0  0  0  0  0  0
   33.1890   28.2960   47.0590 N   0  0  0  0  0  0  0  0  0  0  0  0
   33.6040   27.6280   48.1770 C   0  0  0  0  0  0  0  0  0  0  0  0
   34.3410   28.2730   49.0890 N   0  0  0  0  0  0  0  0  0  0  0  0
   34.4960   31.3200   47.5830 H   0  0  0  0  0  0  0  0  0  0  0  0
   33.3200   26.6040   48.2790 H   0  0  0  0  0  0  0  0  0  0  0  0
   35.4920   30.3150   49.9290 C   0  0  0  0  0  0  0  0  0  0  0  0
   36.4510   31.2480   49.2190 C   0  0  0  0  0  0  0  0  0  0  0  0
   37.8800   30.8210   49.3680 C   0  0  0  0  0  0  0  0  0  0  0  0
   38.3020   30.6180   50.7950 C   0  0  0  0  0  0  0  0  0  0  0  0
   37.2490   29.9680   51.6420 C   0  0  0  0  0  0  0  0  0  0  0  0
   36.1660   29.3170   50.8050 C   0  0  0  0  0  0  0  0  0  0  0  0
   34.7510   30.8880   50.5280 H   0  0  0  0  0  0  0  0  0  0  0  0
   36.2470   31.3760   48.1450 H   0  0  0  0  0  0  0  0  0  0  0  0
   36.3640   32.2350   49.7180 H   0  0  0  0  0  0  0  0  0  0  0  0
   38.5120   31.6140   48.9180 H   0  0  0  0  0  0  0  0  0  0  0  0
   38.0620   29.9070   48.7420 H   0  0  0  0  0  0  0  0  0  0  0  0
   38.7490   31.5280   51.2220 H   0  0  0  0  0  0  0  0  0  0  0  0
   39.1540   29.8770   50.7550 H   0  0  0  0  0  0  0  0  0  0  0  0
   37.6390   29.2600   52.3890 H   0  0  0  0  0  0  0  0  0  0  0  0
   36.7540   30.7890   52.2240 H   0  0  0  0  0  0  0  0  0  0  0  0
   35.4230   28.9050   51.5180 H   0  0  0  0  0  0  0  0  0  0  0  0
   36.5670   28.4300   50.2630 H   0  0  0  0  0  0  0  0  0  0  0  0
   32.9990   30.1940   45.6170 C   0  0  0  0  0  0  0  0  0  0  0  0
   33.4810   29.7320   44.4110 C   0  0  0  0  0  0  0  0  0  0  0  0
   34.2250   28.9440   44.3280 H   0  0  0  0  0  0  0  0  0  0  0  0
   33.0410   30.2540   43.2000 C   0  0  0  0  0  3  0  0  0  0  0  0
   32.0970   31.2600   43.1510 C   0  0  0  0  0  0  0  0  0  0  0  0
   31.7030   31.7190   42.2570 H   0  0  0  0  0  0  0  0  0  0  0  0
   31.6230   31.7140   44.3640 C   0  0  0  0  0  0  0  0  0  0  0  0
   30.8790   32.5050   44.3810 H   0  0  0  0  0  0  0  0  0  0  0  0
   32.0580   31.1980   45.5650 C   0  0  0  0  0  3  0  0  0  0  0  0
  1  6  1  0  0  0  0
  1  9  1  0  0  0  0
  2  1  2  0  0  0  0
  3  4  2  0  0  0  0
  3  2  1  0  0  0  0
  4  5  1  0  0  0  0
  5  8  1  0  0  0  0
  5  6  2  0  0  0  0
  7  2  1  0  0  0  0
  9 15  1  0  0  0  0
  9 14  1  0  0  0  0
 10 11  1  0  0  0  0
 10 17  1  0  0  0  0
 10  9  1  0  0  0  0
 11 12  1  0  0  0  0
 12 20  1  0  0  0  0
 12 13  1  0  0  0  0
 13 23  1  0  0  0  0
 13 22  1  0  0  0  0
 14 24  1  0  0  0  0
 14 13  1  0  0  0  0
 16 10  1  0  0  0  0
 18 11  1  0  0  0  0
 19 11  1  0  0  0  0
 21 12  1  0  0  0  0
 25 14  1  0  0  0  0
 26  3  1  0  0  0  0
 27 26  2  0  0  0  0
 28 27  1  0  0  0  0
 29 27  1  0  0  0  0
 30 29  2  0  0  0  0
 30 32  1  0  0  0  0
 31 30  1  0  0  0  0
 32 33  1  0  0  0  0
 32 34  2  0  0  0  0
 34 26  1  0  0  0  0
M  END
>  <minimizedAffinity>
-5.29747534

>  <minimizedRMSD>
0.434106827

$$$$
