
 OpenBabel03272506183D

 34 36  0  0  0  0  0  0  0  0999 V2000
   34.7580   29.4900   48.8710 C   0  0  0  0  0  0  0  0  0  0  0  0
   34.2210   30.1750   47.7660 C   0  0  0  0  0  0  0  0  0  0  0  0
   33.4800   29.4340   46.8550 C   0  0  0  0  0  0  0  0  0  0  0  0
   33.3010   28.0990   47.0620 N   0  0  0  0  0  0  0  0  0  0  0  0
   33.8340   27.4610   48.1460 C   0  0  0  0  0  0  0  0  0  0  0  0
   34.5520   28.1620   49.0320 N   0  0  0  0  0  0  0  0  0  0  0  0
   34.3400   31.2280   47.5720 H   0  0  0  0  0  0  0  0  0  0  0  0
   33.6550   26.4130   48.2450 H   0  0  0  0  0  0  0  0  0  0  0  0
   35.5440   30.2950   49.8480 C   0  0  0  0  0  0  0  0  0  0  0  0
   36.4630   31.2410   49.1040 C   0  0  0  0  0  0  0  0  0  0  0  0
   37.9080   30.8740   49.2570 C   0  0  0  0  0  0  0  0  0  0  0  0
   38.3440   30.7330   50.6880 C   0  0  0  0  0  0  0  0  0  0  0  0
   37.3220   30.0700   51.5610 C   0  0  0  0  0  0  0  0  0  0  0  0
   36.2600   29.3520   50.7510 C   0  0  0  0  0  0  0  0  0  0  0  0
   34.7850   30.8570   50.4330 H   0  0  0  0  0  0  0  0  0  0  0  0
   36.2500   31.3270   48.0270 H   0  0  0  0  0  0  0  0  0  0  0  0
   36.3400   32.2400   49.5720 H   0  0  0  0  0  0  0  0  0  0  0  0
   38.5070   31.6770   48.7790 H   0  0  0  0  0  0  0  0  0  0  0  0
   38.1230   29.9490   48.6590 H   0  0  0  0  0  0  0  0  0  0  0  0
   38.7580   31.6730   51.0830 H   0  0  0  0  0  0  0  0  0  0  0  0
   39.2240   30.0240   50.6660 H   0  0  0  0  0  0  0  0  0  0  0  0
   37.7420   29.4010   52.3270 H   0  0  0  0  0  0  0  0  0  0  0  0
   36.7980   30.8900   52.1190 H   0  0  0  0  0  0  0  0  0  0  0  0
   35.5370   28.9340   51.4810 H   0  0  0  0  0  0  0  0  0  0  0  0
   36.6930   28.4640   50.2350 H   0  0  0  0  0  0  0  0  0  0  0  0
   32.8590   29.9880   45.6630 C   0  0  0  0  0  0  0  0  0  0  0  0
   31.5250   30.3300   45.7050 C   0  0  0  0  0  0  0  0  0  0  0  0
   30.9040   30.2070   46.5900 H   0  0  0  0  0  0  0  0  0  0  0  0
   30.8720   30.8640   44.6000 C   0  0  0  0  0  3  0  0  0  0  0  0
   31.5330   31.0760   43.4070 C   0  0  0  0  0  0  0  0  0  0  0  0
   31.1040   31.4850   42.5050 H   0  0  0  0  0  0  0  0  0  0  0  0
   32.8680   30.7310   43.3770 C   0  0  0  0  0  0  0  0  0  0  0  0
   33.4350   30.8780   42.4630 H   0  0  0  0  0  0  0  0  0  0  0  0
   33.5160   30.2010   44.4710 C   0  0  0  0  0  3  0  0  0  0  0  0
  1  6  1  0  0  0  0
  1  9  1  0  0  0  0
  2  1  2  0  0  0  0
  3  4  2  0  0  0  0
  3  2  1  0  0  0  0
  4  5  1  0  0  0  0
  5  8  1  0  0  0  0
  5  6  2  0  0  0  0
  7  2  1  0  0  0  0
  9 15  1  0  0  0  0
  9 14  1  0  0  0  0
 10 11  1  0  0  0  0
 10 17  1  0  0  0  0
 10  9  1  0  0  0  0
 11 12  1  0  0  0  0
 12 20  1  0  0  0  0
 12 13  1  0  0  0  0
 13 23  1  0  0  0  0
 13 22  1  0  0  0  0
 14 24  1  0  0  0  0
 14 13  1  0  0  0  0
 16 10  1  0  0  0  0
 18 11  1  0  0  0  0
 19 11  1  0  0  0  0
 21 12  1  0  0  0  0
 25 14  1  0  0  0  0
 26 27  1  0  0  0  0
 26  3  1  0  0  0  0
 27 28  1  0  0  0  0
 29 27  2  0  0  0  0
 30 29  1  0  0  0  0
 31 30  1  0  0  0  0
 32 30  2  0  0  0  0
 32 34  1  0  0  0  0
 33 32  1  0  0  0  0
 34 26  2  0  0  0  0
M  END
>  <minimizedAffinity>
-5.26774406

>  <minimizedRMSD>
0.233516634

$$$$
