
 OpenBabel03272501303D

 18 18  0  0  0  0  0  0  0  0999 V2000
   37.4460   30.2950   51.3260 C   0  0  0  0  0  0  0  0  0  0  0  0
   38.1390   30.9190   50.2880 C   0  0  0  0  0  0  0  0  0  0  0  0
   37.7380   30.5580   49.0090 C   0  0  0  0  0  0  0  0  0  0  0  0
   36.7320   29.6520   48.8170 N   0  0  0  0  0  0  0  0  0  0  0  0
   36.1070   29.0890   49.8670 C   0  0  0  0  0  0  0  0  0  0  0  0
   36.4620   29.4090   51.1110 N   0  0  0  0  0  0  0  0  0  0  0  0
   37.7270   30.5490   52.3400 H   0  0  0  0  0  0  0  0  0  0  0  0
   38.9220   31.6260   50.4700 H   0  0  0  0  0  0  0  0  0  0  0  0
   35.3040   28.3660   49.8170 H   0  0  0  0  0  0  0  0  0  0  0  0
   38.3800   31.1360   47.8460 C   0  0  0  0  0  0  0  0  0  0  0  0
   39.0810   32.1930   47.8650 O   0  0  0  0  0  0  0  0  0  0  0  0
   38.2500   30.5240   46.5950 O   0  0  0  0  0  0  0  0  0  0  0  0
   39.0330   31.8890   44.5510 O   0  0  0  0  0  0  0  0  0  0  0  0
   39.4160   30.6750   45.3610 P   0  0  0  0  0  0  0  0  0  0  0  0
   40.9910   30.7920   45.9480 O   0  0  0  0  0  0  0  0  0  0  0  0
   41.0590   31.2430   46.8240 H   0  0  0  0  0  0  0  0  0  0  0  0
   39.3250   29.2650   44.4100 O   0  0  0  0  0  0  0  0  0  0  0  0
   38.5220   29.3500   43.8390 H   0  0  0  0  0  0  0  0  0  0  0  0
  1  7  1  0  0  0  0
  2  8  1  0  0  0  0
  2  1  2  0  0  0  0
  3  2  1  0  0  0  0
  4  3  2  0  0  0  0
  4  5  1  0  0  0  0
  5  6  2  0  0  0  0
  6  1  1  0  0  0  0
  9  5  1  0  0  0  0
 10 11  2  0  0  0  0
 10  3  1  0  0  0  0
 12 10  1  0  0  0  0
 13 14  2  0  0  0  0
 14 15  1  0  0  0  0
 14 12  1  0  0  0  0
 15 16  1  0  0  0  0
 17 14  1  0  0  0  0
 18 17  1  0  0  0  0
M  END
>  <minimizedAffinity>
-4.79306364

>  <minimizedRMSD>
0.445975661

$$$$
