
 OpenBabel03272507423D

 39 41  0  0  0  0  0  0  0  0999 V2000
   37.0060   31.7700   48.0980 O   0  0  0  0  0  0  0  0  0  0  0  0
   38.3080   31.7820   45.9960 C   0  0  0  0  0  0  0  0  0  0  0  0
   38.0700   32.1660   47.3000 C   0  0  0  0  0  0  0  0  0  0  0  0
   38.9450   33.0330   47.9330 C   0  0  0  0  0  0  0  0  0  0  0  0
   40.0560   33.5100   47.2500 C   0  0  0  0  0  0  0  0  0  0  0  0
   40.2810   33.1190   45.9530 C   0  0  0  0  0  0  0  0  0  0  0  0
   39.3990   32.2580   45.3440 C   0  0  0  0  0  0  0  0  0  0  0  0
   38.8220   33.3750   48.9500 H   0  0  0  0  0  0  0  0  0  0  0  0
   40.7390   34.1910   47.7530 H   0  0  0  0  0  0  0  0  0  0  0  0
   41.1360   33.4780   45.4050 H   0  0  0  0  0  0  0  0  0  0  0  0
   39.6520   31.8450   43.9480 C   0  0  0  0  0  0  0  0  0  0  0  0
   40.3870   30.7830   43.4740 C   0  0  0  0  0  0  0  0  0  0  0  0
   40.3130   30.8350   42.0790 C   0  0  0  0  0  0  0  0  0  0  0  0
   39.5380   31.9270   41.8000 C   0  0  0  0  0  0  0  0  0  0  0  0
   39.1570   32.5130   42.9190 O   0  0  0  0  0  0  0  0  0  0  0  0
   40.8630   30.1310   44.1850 H   0  0  0  0  0  0  0  0  0  0  0  0
   40.8430   30.0610   41.5430 H   0  0  0  0  0  0  0  0  0  0  0  0
   39.3360   32.1760   40.7700 H   0  0  0  0  0  0  0  0  0  0  0  0
   36.5920   30.1650   44.9390 N   0  0  0  0  0  0  0  0  0  0  0  0
   37.3620   30.8840   45.4060 C   0  0  0  0  0  0  0  0  0  0  0  0
   37.1230   30.9840   49.1950 C   0  0  0  0  0  0  0  0  0  0  0  0
   36.3260   29.8390   49.1070 C   0  0  0  0  0  0  0  0  0  0  0  0
   36.3090   28.9100   50.1360 C   0  0  0  0  0  0  0  0  0  0  0  0
   37.0960   29.1620   51.2180 N   0  0  0  0  0  0  0  0  0  0  0  0
   37.8660   30.2830   51.2830 C   0  0  0  0  0  0  0  0  0  0  0  0
   37.8680   31.1560   50.2960 N   0  0  0  0  0  0  0  0  0  0  0  0
   35.7260   28.0130   50.1380 H   0  0  0  0  0  0  0  0  0  0  0  0
   38.4960   30.4840   52.1550 H   0  0  0  0  0  0  0  0  0  0  0  0
   34.1640   29.0580   48.2910 C   0  0  0  0  0  0  0  0  0  0  0  0
   33.5220   28.7460   49.3640 O   0  0  0  0  0  0  0  0  0  0  0  0
   35.4910   29.5030   48.0350 N   0  0  0  0  0  0  0  0  0  0  0  0
   35.7630   29.5530   47.0600 H   0  0  0  0  0  0  0  0  0  0  0  0
   33.2630   28.8790   47.2440 O   0  0  0  0  0  0  0  0  0  0  0  0
   32.2560   26.3990   47.4230 O   0  0  0  0  0  0  0  0  0  0  0  0
   31.8790   27.8750   47.3800 P   0  0  0  0  0  0  0  0  0  0  0  0
   30.9200   28.2290   48.6980 O   0  0  0  0  0  0  0  0  0  0  0  0
   31.0870   27.5720   49.3920 H   0  0  0  0  0  0  0  0  0  0  0  0
   31.0090   28.0700   45.9220 O   0  0  0  0  0  0  0  0  0  0  0  0
   31.6580   27.8160   45.1930 H   0  0  0  0  0  0  0  0  0  0  0  0
  1 21  1  0  0  0  0
  2  3  1  0  0  0  0
  3  4  2  0  0  0  0
  3  1  1  0  0  0  0
  4  8  1  0  0  0  0
  5  9  1  0  0  0  0
  5  4  1  0  0  0  0
  6  5  2  0  0  0  0
  7  6  1  0  0  0  0
  7  2  2  0  0  0  0
 10  6  1  0  0  0  0
 11  7  1  0  0  0  0
 12 11  2  0  0  0  0
 12 16  1  0  0  0  0
 13 12  1  0  0  0  0
 14 13  2  0  0  0  0
 14 15  1  0  0  0  0
 15 11  1  0  0  0  0
 17 13  1  0  0  0  0
 18 14  1  0  0  0  0
 19 20  3  0  0  0  0
 20  2  1  0  0  0  0
 21 26  1  0  0  0  0
 22 21  2  0  0  0  0
 22 23  1  0  0  0  0
 23 27  1  0  0  0  0
 23 24  2  0  0  0  0
 24 25  1  0  0  0  0
 25 28  1  0  0  0  0
 26 25  2  0  0  0  0
 29 30  2  0  0  0  0
 31 29  1  0  0  0  0
 31 22  1  0  0  0  0
 32 31  1  0  0  0  0
 33 35  1  0  0  0  0
 33 29  1  0  0  0  0
 35 34  2  0  0  0  0
 35 36  1  0  0  0  0
 36 37  1  0  0  0  0
 38 35  1  0  0  0  0
 39 38  1  0  0  0  0
M  END
>  <minimizedAffinity>
-5.61399221

>  <minimizedRMSD>
2.22981501

$$$$
