
 OpenBabel03262522083D

 18 18  0  0  0  0  0  0  0  0999 V2000
   36.5090   29.3350   49.1070 C   0  0  0  0  0  0  0  0  0  0  0  0
   36.3380   30.1790   47.9650 C   0  0  0  0  0  0  0  0  0  0  0  0
   35.0520   30.2800   47.4060 C   0  0  0  0  0  0  0  0  0  0  0  0
   34.0470   29.5730   47.9790 N   0  0  0  0  0  0  0  0  0  0  0  0
   34.2510   28.7930   49.0510 C   0  0  0  0  0  0  0  0  0  0  0  0
   35.4500   28.6700   49.6080 N   0  0  0  0  0  0  0  0  0  0  0  0
   37.5110   29.2760   49.5160 H   0  0  0  0  0  0  0  0  0  0  0  0
   34.9450   30.9240   46.5420 H   0  0  0  0  0  0  0  0  0  0  0  0
   33.3940   28.2430   49.4720 H   0  0  0  0  0  0  0  0  0  0  0  0
   37.5210   30.8930   47.4420 C   0  0  0  0  0  0  0  0  0  0  0  0
   38.2240   30.2350   46.6700 O   0  0  0  0  0  0  0  0  0  0  0  0
   37.7860   32.2140   47.8190 O   0  0  0  0  0  0  0  0  0  0  0  0
   39.1510   33.8030   49.3550 O   0  0  0  0  0  0  0  0  0  0  0  0
   38.1930   32.6160   49.4320 P   0  0  0  0  0  0  0  0  0  0  0  0
   38.9200   31.3500   50.2410 O   0  0  0  0  0  0  0  0  0  0  0  0
   39.8780   31.3090   50.0100 H   0  0  0  0  0  0  0  0  0  0  0  0
   36.7710   33.1230   50.1920 O   0  0  0  0  0  0  0  0  0  0  0  0
   36.1460   33.5540   49.5540 H   0  0  0  0  0  0  0  0  0  0  0  0
  1  7  1  0  0  0  0
  1  6  1  0  0  0  0
  2  1  2  0  0  0  0
  3  2  1  0  0  0  0
  3  4  2  0  0  0  0
  4  5  1  0  0  0  0
  5  9  1  0  0  0  0
  5  6  2  0  0  0  0
  8  3  1  0  0  0  0
 10 12  1  0  0  0  0
 10  2  1  0  0  0  0
 11 10  2  0  0  0  0
 12 14  1  0  0  0  0
 13 14  2  0  0  0  0
 14 17  1  0  0  0  0
 14 15  1  0  0  0  0
 16 15  1  0  0  0  0
 18 17  1  0  0  0  0
M  END
>  <minimizedAffinity>
-4.00389957

>  <minimizedRMSD>
2.80135608

$$$$
