
 OpenBabel03272507423D

 39 41  0  0  0  0  0  0  0  0999 V2000
   36.6610   32.0240   48.9450 O   0  0  0  0  0  0  0  0  0  0  0  0
   38.1550   32.0660   46.9760 C   0  0  0  0  0  0  0  0  0  0  0  0
   37.7790   32.4550   48.2450 C   0  0  0  0  0  0  0  0  0  0  0  0
   38.5540   33.3650   48.9450 C   0  0  0  0  0  0  0  0  0  0  0  0
   39.7050   33.8790   48.3630 C   0  0  0  0  0  0  0  0  0  0  0  0
   40.0670   33.4840   47.0990 C   0  0  0  0  0  0  0  0  0  0  0  0
   39.2830   32.5800   46.4230 C   0  0  0  0  0  0  0  0  0  0  0  0
   38.3210   33.7130   49.9410 H   0  0  0  0  0  0  0  0  0  0  0  0
   40.3090   34.5940   48.9180 H   0  0  0  0  0  0  0  0  0  0  0  0
   40.9560   33.8720   46.6290 H   0  0  0  0  0  0  0  0  0  0  0  0
   39.6830   32.1630   45.0630 C   0  0  0  0  0  0  0  0  0  0  0  0
   40.5380   31.1550   44.6780 C   0  0  0  0  0  0  0  0  0  0  0  0
   40.5770   31.1740   43.2810 C   0  0  0  0  0  0  0  0  0  0  0  0
   39.7430   32.1930   42.9110 C   0  0  0  0  0  0  0  0  0  0  0  0
   39.2240   32.7680   43.9800 O   0  0  0  0  0  0  0  0  0  0  0  0
   41.0040   30.5570   45.4420 H   0  0  0  0  0  0  0  0  0  0  0  0
   41.2100   30.4360   42.8100 H   0  0  0  0  0  0  0  0  0  0  0  0
   39.6090   32.4050   41.8620 H   0  0  0  0  0  0  0  0  0  0  0  0
   36.6170   30.3730   45.7740 N   0  0  0  0  0  0  0  0  0  0  0  0
   37.3060   31.1230   46.3130 C   0  0  0  0  0  0  0  0  0  0  0  0
   36.6870   31.0980   49.9340 C   0  0  0  0  0  0  0  0  0  0  0  0
   35.5320   30.3100   49.9440 C   0  0  0  0  0  0  0  0  0  0  0  0
   35.3710   29.3050   50.8850 C   0  0  0  0  0  0  0  0  0  0  0  0
   36.3780   29.1240   51.7830 N   0  0  0  0  0  0  0  0  0  0  0  0
   37.4950   29.9020   51.7560 C   0  0  0  0  0  0  0  0  0  0  0  0
   37.6300   30.8540   50.8550 N   0  0  0  0  0  0  0  0  0  0  0  0
   34.5170   28.6640   50.9530 H   0  0  0  0  0  0  0  0  0  0  0  0
   38.3020   29.7550   52.4800 H   0  0  0  0  0  0  0  0  0  0  0  0
   34.1440   29.3510   48.1820 C   0  0  0  0  0  0  0  0  0  0  0  0
   34.7350   28.2430   47.8900 O   0  0  0  0  0  0  0  0  0  0  0  0
   34.4520   30.4270   49.0590 N   0  0  0  0  0  0  0  0  0  0  0  0
   33.8550   31.2420   48.9910 H   0  0  0  0  0  0  0  0  0  0  0  0
   32.9810   29.3740   47.4170 O   0  0  0  0  0  0  0  0  0  0  0  0
   32.9390   30.7990   45.1440 O   0  0  0  0  0  0  0  0  0  0  0  0
   33.0070   29.3820   45.7010 P   0  0  0  0  0  0  0  0  0  0  0  0
   34.3270   28.6030   45.0450 O   0  0  0  0  0  0  0  0  0  0  0  0
   34.9710   29.2660   44.7530 H   0  0  0  0  0  0  0  0  0  0  0  0
   31.5510   28.6390   45.2040 O   0  0  0  0  0  0  0  0  0  0  0  0
   30.8180   29.1870   45.6290 H   0  0  0  0  0  0  0  0  0  0  0  0
  1 21  1  0  0  0  0
  2  3  1  0  0  0  0
  3  4  2  0  0  0  0
  3  1  1  0  0  0  0
  4  8  1  0  0  0  0
  5  9  1  0  0  0  0
  5  4  1  0  0  0  0
  6  5  2  0  0  0  0
  7  2  2  0  0  0  0
  7  6  1  0  0  0  0
 10  6  1  0  0  0  0
 11  7  1  0  0  0  0
 12 11  2  0  0  0  0
 12 16  1  0  0  0  0
 13 12  1  0  0  0  0
 14 13  2  0  0  0  0
 14 15  1  0  0  0  0
 15 11  1  0  0  0  0
 17 13  1  0  0  0  0
 18 14  1  0  0  0  0
 19 20  3  0  0  0  0
 20  2  1  0  0  0  0
 21 22  2  0  0  0  0
 21 26  1  0  0  0  0
 22 23  1  0  0  0  0
 23 27  1  0  0  0  0
 23 24  2  0  0  0  0
 25 24  1  0  0  0  0
 25 28  1  0  0  0  0
 26 25  2  0  0  0  0
 29 31  1  0  0  0  0
 30 29  2  0  0  0  0
 31 22  1  0  0  0  0
 32 31  1  0  0  0  0
 33 29  1  0  0  0  0
 34 35  2  0  0  0  0
 35 33  1  0  0  0  0
 36 35  1  0  0  0  0
 37 36  1  0  0  0  0
 38 39  1  0  0  0  0
 38 35  1  0  0  0  0
M  END
>  <minimizedAffinity>
-5.45328808

>  <minimizedRMSD>
0.824186146

$$$$
