
 OpenBabel03272507423D

 39 41  0  0  0  0  0  0  0  0999 V2000
   36.7360   32.3000   49.3070 O   0  0  0  0  0  0  0  0  0  0  0  0
   38.2450   32.2810   47.3490 C   0  0  0  0  0  0  0  0  0  0  0  0
   37.8560   32.7140   48.6000 C   0  0  0  0  0  0  0  0  0  0  0  0
   38.6180   33.6550   49.2710 C   0  0  0  0  0  0  0  0  0  0  0  0
   39.7700   34.1570   48.6790 C   0  0  0  0  0  0  0  0  0  0  0  0
   40.1450   33.7180   47.4340 C   0  0  0  0  0  0  0  0  0  0  0  0
   39.3730   32.7830   46.7860 C   0  0  0  0  0  0  0  0  0  0  0  0
   38.3750   34.0380   50.2510 H   0  0  0  0  0  0  0  0  0  0  0  0
   40.3640   34.8960   49.2120 H   0  0  0  0  0  0  0  0  0  0  0  0
   41.0340   34.0950   46.9560 H   0  0  0  0  0  0  0  0  0  0  0  0
   39.7880   32.3190   45.4460 C   0  0  0  0  0  0  0  0  0  0  0  0
   40.6330   31.2870   45.1040 C   0  0  0  0  0  0  0  0  0  0  0  0
   40.6930   31.2640   43.7080 C   0  0  0  0  0  0  0  0  0  0  0  0
   39.8810   32.2840   43.2950 C   0  0  0  0  0  0  0  0  0  0  0  0
   39.3550   32.8980   44.3380 O   0  0  0  0  0  0  0  0  0  0  0  0
   41.0780   30.7070   45.8930 H   0  0  0  0  0  0  0  0  0  0  0  0
   41.3230   30.5020   43.2690 H   0  0  0  0  0  0  0  0  0  0  0  0
   39.7660   32.4660   42.2380 H   0  0  0  0  0  0  0  0  0  0  0  0
   36.7300   30.5320   46.1990 N   0  0  0  0  0  0  0  0  0  0  0  0
   37.4090   31.3080   46.7150 C   0  0  0  0  0  0  0  0  0  0  0  0
   36.6950   31.2060   50.1050 C   0  0  0  0  0  0  0  0  0  0  0  0
   35.5760   30.4090   49.8460 C   0  0  0  0  0  0  0  0  0  0  0  0
   35.3580   29.2430   50.5640 C   0  0  0  0  0  0  0  0  0  0  0  0
   36.2740   28.9160   51.5160 N   0  0  0  0  0  0  0  0  0  0  0  0
   37.3580   29.7060   51.7520 C   0  0  0  0  0  0  0  0  0  0  0  0
   37.5480   30.8110   51.0610 N   0  0  0  0  0  0  0  0  0  0  0  0
   34.5270   28.5860   50.4210 H   0  0  0  0  0  0  0  0  0  0  0  0
   38.0920   29.4410   52.5200 H   0  0  0  0  0  0  0  0  0  0  0  0
   34.1680   29.6310   48.0130 C   0  0  0  0  0  0  0  0  0  0  0  0
   34.5910   28.4340   47.7840 O   0  0  0  0  0  0  0  0  0  0  0  0
   34.5890   30.6700   48.8880 N   0  0  0  0  0  0  0  0  0  0  0  0
   34.1360   31.5670   48.7630 H   0  0  0  0  0  0  0  0  0  0  0  0
   33.0760   29.8150   47.1690 O   0  0  0  0  0  0  0  0  0  0  0  0
   33.0020   30.8920   44.7140 O   0  0  0  0  0  0  0  0  0  0  0  0
   33.1710   29.5810   45.4720 P   0  0  0  0  0  0  0  0  0  0  0  0
   34.5820   28.8440   44.9730 O   0  0  0  0  0  0  0  0  0  0  0  0
   35.1740   29.5170   44.6070 H   0  0  0  0  0  0  0  0  0  0  0  0
   31.8090   28.6420   45.0480 O   0  0  0  0  0  0  0  0  0  0  0  0
   31.0130   29.1740   45.3680 H   0  0  0  0  0  0  0  0  0  0  0  0
  1 21  1  0  0  0  0
  2  3  1  0  0  0  0
  3  4  2  0  0  0  0
  3  1  1  0  0  0  0
  4  8  1  0  0  0  0
  5  9  1  0  0  0  0
  5  4  1  0  0  0  0
  6  5  2  0  0  0  0
  7  2  2  0  0  0  0
  7  6  1  0  0  0  0
 10  6  1  0  0  0  0
 11  7  1  0  0  0  0
 12 11  2  0  0  0  0
 12 16  1  0  0  0  0
 13 12  1  0  0  0  0
 14 13  2  0  0  0  0
 14 15  1  0  0  0  0
 15 11  1  0  0  0  0
 17 13  1  0  0  0  0
 18 14  1  0  0  0  0
 19 20  3  0  0  0  0
 20  2  1  0  0  0  0
 21 26  1  0  0  0  0
 22 21  2  0  0  0  0
 22 23  1  0  0  0  0
 23 24  2  0  0  0  0
 24 25  1  0  0  0  0
 25 28  1  0  0  0  0
 26 25  2  0  0  0  0
 27 23  1  0  0  0  0
 29 31  1  0  0  0  0
 30 29  2  0  0  0  0
 31 22  1  0  0  0  0
 32 31  1  0  0  0  0
 33 29  1  0  0  0  0
 34 35  2  0  0  0  0
 35 33  1  0  0  0  0
 36 35  1  0  0  0  0
 37 36  1  0  0  0  0
 38 39  1  0  0  0  0
 38 35  1  0  0  0  0
M  END
>  <minimizedAffinity>
-5.62787628

>  <minimizedRMSD>
0.40227735

$$$$
