
 OpenBabel03272508423D

 18 18  0  0  0  0  0  0  0  0999 V2000
   37.3620   30.1730   51.3850 C   0  0  0  0  0  0  0  0  0  0  0  0
   38.1760   30.5950   50.3220 C   0  0  0  0  0  0  0  0  0  0  0  0
   37.7060   30.4000   49.0090 C   0  0  0  0  0  0  0  0  0  0  0  0
   36.4920   29.8140   48.8480 N   0  0  0  0  0  0  0  0  0  0  0  0
   35.7520   29.4280   49.8950 C   0  0  0  0  0  0  0  0  0  0  0  0
   36.1640   29.5970   51.1460 N   0  0  0  0  0  0  0  0  0  0  0  0
   37.7290   30.3270   52.3900 H   0  0  0  0  0  0  0  0  0  0  0  0
   39.1440   31.0620   50.4540 H   0  0  0  0  0  0  0  0  0  0  0  0
   38.2620   30.6920   48.1270 H   0  0  0  0  0  0  0  0  0  0  0  0
   34.4390   28.7940   49.7260 C   0  0  0  0  0  0  0  0  0  0  0  0
   33.3980   29.1600   50.3390 O   0  0  0  0  0  0  0  0  0  0  0  0
   34.4690   27.7570   48.8240 O   0  0  0  0  0  0  0  0  0  0  0  0
   32.3170   26.4740   48.1660 O   0  0  0  0  0  0  0  0  0  0  0  0
   33.2090   27.5860   47.6700 P   0  0  0  0  0  0  0  0  0  0  0  0
   32.2950   28.9780   47.5180 O   0  0  0  0  0  0  0  0  0  0  0  0
   32.7650   29.7150   47.0580 H   0  0  0  0  0  0  0  0  0  0  0  0
   33.9240   27.1090   46.2150 O   0  0  0  0  0  0  0  0  0  0  0  0
   34.8650   27.4310   46.1380 H   0  0  0  0  0  0  0  0  0  0  0  0
  1  7  1  0  0  0  0
  2  8  1  0  0  0  0
  2  1  2  0  0  0  0
  3  2  1  0  0  0  0
  4  3  2  0  0  0  0
  4  5  1  0  0  0  0
  5  6  2  0  0  0  0
  6  1  1  0  0  0  0
  9  3  1  0  0  0  0
 10  5  1  0  0  0  0
 10 11  2  0  0  0  0
 12 10  1  0  0  0  0
 14 13  2  0  0  0  0
 14 12  1  0  0  0  0
 15 14  1  0  0  0  0
 16 15  1  0  0  0  0
 17 14  1  0  0  0  0
 18 17  1  0  0  0  0
M  END
>  <minimizedAffinity>
-3.78073764

>  <minimizedRMSD>
1.23460484

$$$$
