
 OpenBabel03262522003D

 18 18  0  0  0  0  0  0  0  0999 V2000
   37.3750   31.3600   49.8290 C   0  0  0  0  0  0  0  0  0  0  0  0
   37.9400   30.5790   50.8510 C   0  0  0  0  0  0  0  0  0  0  0  0
   37.1570   29.5640   51.4050 C   0  0  0  0  0  0  0  0  0  0  0  0
   35.8850   29.3790   50.9290 N   0  0  0  0  0  0  0  0  0  0  0  0
   35.3780   30.1470   49.9490 C   0  0  0  0  0  0  0  0  0  0  0  0
   36.1240   31.1220   49.4140 N   0  0  0  0  0  0  0  0  0  0  0  0
   38.9310   30.7250   51.2210 H   0  0  0  0  0  0  0  0  0  0  0  0
   37.5170   28.9330   52.1810 H   0  0  0  0  0  0  0  0  0  0  0  0
   34.3760   30.0130   49.5610 H   0  0  0  0  0  0  0  0  0  0  0  0
   38.1660   32.4240   49.2320 C   0  0  0  0  0  0  0  0  0  0  0  0
   39.1150   32.9620   49.8480 O   0  0  0  0  0  0  0  0  0  0  0  0
   37.8540   32.8480   47.9540 O   0  0  0  0  0  0  0  0  0  0  0  0
   39.6670   31.5900   46.5930 O   0  0  0  0  0  0  0  0  0  0  0  0
   38.1680   31.8840   46.5760 P   0  0  0  0  0  0  0  0  0  0  0  0
   37.2660   30.4600   46.5610 O   0  0  0  0  0  0  0  0  0  0  0  0
   37.8810   29.6710   46.6700 H   0  0  0  0  0  0  0  0  0  0  0  0
   37.8650   32.8050   45.1690 O   0  0  0  0  0  0  0  0  0  0  0  0
   37.9410   33.7560   45.4280 H   0  0  0  0  0  0  0  0  0  0  0  0
  1  2  1  0  0  0  0
  2  7  1  0  0  0  0
  2  3  2  0  0  0  0
  3  8  1  0  0  0  0
  4  3  1  0  0  0  0
  5  4  2  0  0  0  0
  6  1  2  0  0  0  0
  6  5  1  0  0  0  0
  9  5  1  0  0  0  0
 10  1  1  0  0  0  0
 10 11  2  0  0  0  0
 12 10  1  0  0  0  0
 14 13  2  0  0  0  0
 14 12  1  0  0  0  0
 15 14  1  0  0  0  0
 15 16  1  0  0  0  0
 17 18  1  0  0  0  0
 17 14  1  0  0  0  0
M  END
>  <minimizedAffinity>
-4.24784565

>  <minimizedRMSD>
4.38560867

$$$$
