
 OpenBabel03272500593D

 33 34  0  0  0  0  0  0  0  0999 V2000
   41.0220   26.2550   34.4630 C   0  0  0  0  0  0  0  0  0  0  0  0
   41.9050   27.1410   33.8880 C   0  0  0  0  0  0  0  0  0  0  0  0
   43.2600   26.8080   33.7300 C   0  0  0  0  0  0  0  0  0  0  0  0
   43.7000   25.5040   34.1870 C   0  0  0  0  0  0  0  0  0  0  0  0
   42.7730   24.6910   34.7390 C   0  0  0  0  0  0  0  0  0  0  0  0
   41.4720   25.0070   34.8950 C   0  0  0  0  0  0  0  0  0  0  0  0
   41.6050   28.1260   33.5360 H   0  0  0  0  0  0  0  0  0  0  0  0
   43.9120   27.5400   33.2740 H   0  0  0  0  0  0  0  0  0  0  0  0
   44.7570   25.3920   33.9990 H   0  0  0  0  0  0  0  0  0  0  0  0
   43.3030   23.7820   34.9740 H   0  0  0  0  0  0  0  0  0  0  0  0
   38.9050   26.7520   33.3480 C   0  0  0  0  0  0  0  0  0  0  0  0
   39.6600   26.7220   34.5450 C   0  0  0  0  0  0  0  0  0  0  0  0
   38.9760   27.1480   35.6570 C   0  0  0  0  0  0  0  0  0  0  0  0
   37.7010   27.5520   35.5800 N   0  0  0  0  0  0  0  0  0  0  0  0
   37.0130   27.5740   34.4620 C   0  0  0  0  0  0  0  0  0  0  0  0
   37.6200   27.1730   33.3550 N   0  0  0  0  0  0  0  0  0  0  0  0
   39.3410   26.4350   32.3940 H   0  0  0  0  0  0  0  0  0  0  0  0
   39.5600   27.1240   36.5790 H   0  0  0  0  0  0  0  0  0  0  0  0
   35.9860   27.9160   34.4910 H   0  0  0  0  0  0  0  0  0  0  0  0
   39.9870   23.2120   34.5530 C   0  0  0  0  0  0  0  0  0  0  0  0
   40.2940   23.3210   33.3010 O   0  0  0  0  0  0  0  0  0  0  0  0
   40.5880   24.1420   35.4940 N   0  0  0  0  0  0  0  0  0  0  0  0
   40.3550   24.1330   36.5100 H   0  0  0  0  0  0  0  0  0  0  0  0
   39.1110   22.2370   34.9520 O   0  0  0  0  0  0  0  0  0  0  0  0
   37.9610   22.4770   35.7040 C   0  0  0  0  0  0  0  0  0  0  0  0
   36.9540   21.6330   35.7290 O   0  0  0  0  0  0  0  0  0  0  0  0
   37.6700   23.5510   36.5310 O   0  0  0  0  0  0  0  0  0  0  0  0
   37.8190   24.7640   38.8730 O   0  0  0  0  0  0  0  0  0  0  0  0
   38.0980   23.4330   38.1930 P   0  0  0  0  0  0  0  0  0  0  0  0
   37.0680   22.3110   38.9680 O   0  0  0  0  0  0  0  0  0  0  0  0
   37.1440   22.4310   39.9430 H   0  0  0  0  0  0  0  0  0  0  0  0
   39.7070   23.0560   38.4360 O   0  0  0  0  0  0  0  0  0  0  0  0
   39.9660   22.1440   38.1920 H   0  0  0  0  0  0  0  0  0  0  0  0
  1 12  1  0  0  0  0
  1  6  1  0  0  0  0
  2  1  2  0  0  0  0
  3  2  1  0  0  0  0
  3  4  2  0  0  0  0
  4  5  1  0  0  0  0
  5  6  2  0  0  0  0
  5 10  1  0  0  0  0
  6 22  1  0  0  0  0
  7  2  1  0  0  0  0
  8  3  1  0  0  0  0
  9  4  1  0  0  0  0
 11 16  2  0  0  0  0
 11 12  1  0  0  0  0
 12 13  2  0  0  0  0
 13 18  1  0  0  0  0
 14 13  1  0  0  0  0
 15 19  1  0  0  0  0
 15 14  2  0  0  0  0
 16 15  1  0  0  0  0
 17 11  1  0  0  0  0
 20 24  1  0  0  0  0
 20 22  1  0  0  0  0
 21 20  2  0  0  0  0
 22 23  1  0  0  0  0
 24 25  1  0  0  0  0
 25 26  2  0  0  0  0
 25 27  1  0  0  0  0
 27 29  1  0  0  0  0
 29 32  1  0  0  0  0
 29 28  2  0  0  0  0
 29 30  1  0  0  0  0
 30 31  1  0  0  0  0
 33 32  1  0  0  0  0
M  END
>  <minimizedAffinity>
-5.42445087

$$$$

 OpenBabel03272500593D

 33 34  0  0  0  0  0  0  0  0999 V2000
   36.5020   22.6060   32.1490 C   0  0  0  0  0  0  0  0  0  0  0  0
   35.5500   22.0100   31.3540 C   0  0  0  0  0  0  0  0  0  0  0  0
   34.9700   20.7850   31.7190 C   0  0  0  0  0  0  0  0  0  0  0  0
   35.4010   20.1680   32.9580 C   0  0  0  0  0  0  0  0  0  0  0  0
   36.3390   20.8160   33.6840 C   0  0  0  0  0  0  0  0  0  0  0  0
   36.9000   21.9900   33.3370 C   0  0  0  0  0  0  0  0  0  0  0  0
   35.2060   22.4480   30.4190 H   0  0  0  0  0  0  0  0  0  0  0  0
   34.2280   20.3580   31.0580 H   0  0  0  0  0  0  0  0  0  0  0  0
   34.8700   19.2390   33.1040 H   0  0  0  0  0  0  0  0  0  0  0  0
   36.4840   20.2050   34.5610 H   0  0  0  0  0  0  0  0  0  0  0  0
   38.1040   23.8410   30.7770 C   0  0  0  0  0  0  0  0  0  0  0  0
   36.9980   23.8690   31.6610 C   0  0  0  0  0  0  0  0  0  0  0  0
   36.5280   25.1290   31.9410 C   0  0  0  0  0  0  0  0  0  0  0  0
   37.0920   26.2200   31.4050 N   0  0  0  0  0  0  0  0  0  0  0  0
   38.1180   26.1780   30.5860 C   0  0  0  0  0  0  0  0  0  0  0  0
   38.6150   24.9900   30.2780 N   0  0  0  0  0  0  0  0  0  0  0  0
   38.5670   22.8950   30.4780 H   0  0  0  0  0  0  0  0  0  0  0  0
   35.6760   25.1480   32.6230 H   0  0  0  0  0  0  0  0  0  0  0  0
   38.5110   27.1100   30.1990 H   0  0  0  0  0  0  0  0  0  0  0  0
   39.1960   22.0330   33.8560 C   0  0  0  0  0  0  0  0  0  0  0  0
   39.3080   21.0620   33.0090 O   0  0  0  0  0  0  0  0  0  0  0  0
   37.8730   22.5790   34.1080 N   0  0  0  0  0  0  0  0  0  0  0  0
   37.7080   23.3360   34.8060 H   0  0  0  0  0  0  0  0  0  0  0  0
   40.3140   22.5120   34.4880 O   0  0  0  0  0  0  0  0  0  0  0  0
   40.2980   23.1600   35.7230 C   0  0  0  0  0  0  0  0  0  0  0  0
   41.2880   23.0520   36.5800 O   0  0  0  0  0  0  0  0  0  0  0  0
   39.3310   24.0010   36.2530 O   0  0  0  0  0  0  0  0  0  0  0  0
   37.8590   24.6450   38.3490 O   0  0  0  0  0  0  0  0  0  0  0  0
   38.4330   23.4460   37.6110 P   0  0  0  0  0  0  0  0  0  0  0  0
   37.0740   22.5600   37.0720 O   0  0  0  0  0  0  0  0  0  0  0  0
   36.4410   22.4640   37.8200 H   0  0  0  0  0  0  0  0  0  0  0  0
   39.3480   22.5630   38.6940 O   0  0  0  0  0  0  0  0  0  0  0  0
   39.6300   21.6790   38.3820 H   0  0  0  0  0  0  0  0  0  0  0  0
  1  6  1  0  0  0  0
  2  3  1  0  0  0  0
  2  1  2  0  0  0  0
  3  4  2  0  0  0  0
  4  9  1  0  0  0  0
  4  5  1  0  0  0  0
  5 10  1  0  0  0  0
  6  5  2  0  0  0  0
  6 22  1  0  0  0  0
  7  2  1  0  0  0  0
  8  3  1  0  0  0  0
 11 12  1  0  0  0  0
 12 13  2  0  0  0  0
 12  1  1  0  0  0  0
 13 18  1  0  0  0  0
 14 13  1  0  0  0  0
 15 14  2  0  0  0  0
 16 15  1  0  0  0  0
 16 11  2  0  0  0  0
 17 11  1  0  0  0  0
 19 15  1  0  0  0  0
 20 22  1  0  0  0  0
 20 24  1  0  0  0  0
 21 20  2  0  0  0  0
 22 23  1  0  0  0  0
 24 25  1  0  0  0  0
 25 27  1  0  0  0  0
 25 26  2  0  0  0  0
 27 29  1  0  0  0  0
 29 28  2  0  0  0  0
 29 32  1  0  0  0  0
 30 29  1  0  0  0  0
 30 31  1  0  0  0  0
 33 32  1  0  0  0  0
M  END
>  <minimizedAffinity>
-5.23245668

$$$$

 OpenBabel03272500593D

 33 34  0  0  0  0  0  0  0  0999 V2000
   38.0910   25.5270   34.6890 C   0  0  0  0  0  0  0  0  0  0  0  0
   37.4780   26.6610   35.1710 C   0  0  0  0  0  0  0  0  0  0  0  0
   36.9310   27.6120   34.2940 C   0  0  0  0  0  0  0  0  0  0  0  0
   37.0290   27.3630   32.8700 C   0  0  0  0  0  0  0  0  0  0  0  0
   37.6430   26.2260   32.4760 C   0  0  0  0  0  0  0  0  0  0  0  0
   38.1720   25.3110   33.3120 C   0  0  0  0  0  0  0  0  0  0  0  0
   37.3900   26.8760   36.2340 H   0  0  0  0  0  0  0  0  0  0  0  0
   36.4630   28.4870   34.7240 H   0  0  0  0  0  0  0  0  0  0  0  0
   36.5670   28.1740   32.3270 H   0  0  0  0  0  0  0  0  0  0  0  0
   37.5760   26.2310   31.3990 H   0  0  0  0  0  0  0  0  0  0  0  0
   37.7540   24.3660   36.8140 C   0  0  0  0  0  0  0  0  0  0  0  0
   38.5910   24.6290   35.7010 C   0  0  0  0  0  0  0  0  0  0  0  0
   39.7970   23.9740   35.7320 C   0  0  0  0  0  0  0  0  0  0  0  0
   40.1240   23.1610   36.7450 N   0  0  0  0  0  0  0  0  0  0  0  0
   39.3380   22.9270   37.7710 C   0  0  0  0  0  0  0  0  0  0  0  0
   38.1600   23.5300   37.7960 N   0  0  0  0  0  0  0  0  0  0  0  0
   36.7660   24.8310   36.9020 H   0  0  0  0  0  0  0  0  0  0  0  0
   40.4400   24.1790   34.8740 H   0  0  0  0  0  0  0  0  0  0  0  0
   39.6830   22.2540   38.5460 H   0  0  0  0  0  0  0  0  0  0  0  0
   37.8920   23.2020   32.3050 C   0  0  0  0  0  0  0  0  0  0  0  0
   36.6220   23.4470   32.3670 O   0  0  0  0  0  0  0  0  0  0  0  0
   38.8120   24.1900   32.8420 N   0  0  0  0  0  0  0  0  0  0  0  0
   39.8430   24.0380   32.8580 H   0  0  0  0  0  0  0  0  0  0  0  0
   38.3270   22.0300   31.7450 O   0  0  0  0  0  0  0  0  0  0  0  0
   37.5010   20.9420   31.4630 C   0  0  0  0  0  0  0  0  0  0  0  0
   36.9650   20.7610   30.2770 O   0  0  0  0  0  0  0  0  0  0  0  0
   37.1210   19.8990   32.2940 O   0  0  0  0  0  0  0  0  0  0  0  0
   34.7360   21.0330   32.2500 O   0  0  0  0  0  0  0  0  0  0  0  0
   35.4910   19.8540   32.8420 P   0  0  0  0  0  0  0  0  0  0  0  0
   34.7170   18.4660   32.2140 O   0  0  0  0  0  0  0  0  0  0  0  0
   33.7430   18.5720   32.3150 H   0  0  0  0  0  0  0  0  0  0  0  0
   35.3500   19.9330   34.5040 O   0  0  0  0  0  0  0  0  0  0  0  0
   35.6500   19.1370   34.9890 H   0  0  0  0  0  0  0  0  0  0  0  0
  1  2  1  0  0  0  0
  1 12  1  0  0  0  0
  2  7  1  0  0  0  0
  3  8  1  0  0  0  0
  3  2  2  0  0  0  0
  4  3  1  0  0  0  0
  5  4  2  0  0  0  0
  5  6  1  0  0  0  0
  6  1  2  0  0  0  0
  9  4  1  0  0  0  0
 10  5  1  0  0  0  0
 11 17  1  0  0  0  0
 11 16  1  0  0  0  0
 12 13  1  0  0  0  0
 12 11  2  0  0  0  0
 13 14  2  0  0  0  0
 14 15  1  0  0  0  0
 15 16  2  0  0  0  0
 15 19  1  0  0  0  0
 18 13  1  0  0  0  0
 20 21  2  0  0  0  0
 20 22  1  0  0  0  0
 22 23  1  0  0  0  0
 22  6  1  0  0  0  0
 24 20  1  0  0  0  0
 25 24  1  0  0  0  0
 25 27  1  0  0  0  0
 26 25  2  0  0  0  0
 27 29  1  0  0  0  0
 28 29  2  0  0  0  0
 29 32  1  0  0  0  0
 30 31  1  0  0  0  0
 30 29  1  0  0  0  0
 32 33  1  0  0  0  0
M  END
>  <minimizedAffinity>
-5.12841225

$$$$

 OpenBabel03272500593D

 33 34  0  0  0  0  0  0  0  0999 V2000
   36.1850   23.4530   31.9240 C   0  0  0  0  0  0  0  0  0  0  0  0
   35.2610   23.9710   31.0450 C   0  0  0  0  0  0  0  0  0  0  0  0
   35.1590   25.3570   30.8420 C   0  0  0  0  0  0  0  0  0  0  0  0
   36.0550   26.2230   31.5810 C   0  0  0  0  0  0  0  0  0  0  0  0
   36.9350   25.6380   32.4230 C   0  0  0  0  0  0  0  0  0  0  0  0
   37.0360   24.3090   32.6240 C   0  0  0  0  0  0  0  0  0  0  0  0
   34.5750   23.3470   30.4760 H   0  0  0  0  0  0  0  0  0  0  0  0
   34.4150   25.7130   30.1420 H   0  0  0  0  0  0  0  0  0  0  0  0
   35.8600   27.2530   31.3220 H   0  0  0  0  0  0  0  0  0  0  0  0
   37.5100   26.4520   32.8360 H   0  0  0  0  0  0  0  0  0  0  0  0
   37.0080   21.3010   31.1070 C   0  0  0  0  0  0  0  0  0  0  0  0
   36.1920   22.0140   32.0190 C   0  0  0  0  0  0  0  0  0  0  0  0
   35.5000   21.2200   32.9010 C   0  0  0  0  0  0  0  0  0  0  0  0
   35.6100   19.8850   32.8730 N   0  0  0  0  0  0  0  0  0  0  0  0
   36.3710   19.2380   32.0210 C   0  0  0  0  0  0  0  0  0  0  0  0
   37.0640   19.9500   31.1460 N   0  0  0  0  0  0  0  0  0  0  0  0
   37.6090   21.8240   30.3550 H   0  0  0  0  0  0  0  0  0  0  0  0
   34.8710   21.7710   33.6020 H   0  0  0  0  0  0  0  0  0  0  0  0
   36.4010   18.1560   32.0700 H   0  0  0  0  0  0  0  0  0  0  0  0
   39.2850   23.7200   32.9900 C   0  0  0  0  0  0  0  0  0  0  0  0
   39.4850   24.1030   31.7700 O   0  0  0  0  0  0  0  0  0  0  0  0
   37.9340   23.7820   33.5200 N   0  0  0  0  0  0  0  0  0  0  0  0
   37.6980   23.4540   34.4820 H   0  0  0  0  0  0  0  0  0  0  0  0
   40.3410   23.2680   33.7380 O   0  0  0  0  0  0  0  0  0  0  0  0
   40.4340   23.4030   35.1230 C   0  0  0  0  0  0  0  0  0  0  0  0
   41.4000   22.8440   35.8160 O   0  0  0  0  0  0  0  0  0  0  0  0
   39.6110   24.1110   35.9870 O   0  0  0  0  0  0  0  0  0  0  0  0
   37.8030   24.1830   37.9100 O   0  0  0  0  0  0  0  0  0  0  0  0
   38.7130   23.2260   37.1560 P   0  0  0  0  0  0  0  0  0  0  0  0
   37.6580   22.1390   36.3620 O   0  0  0  0  0  0  0  0  0  0  0  0
   36.9820   21.8260   37.0060 H   0  0  0  0  0  0  0  0  0  0  0  0
   39.6740   22.4390   38.2720 O   0  0  0  0  0  0  0  0  0  0  0  0
   40.1810   21.6770   37.9260 H   0  0  0  0  0  0  0  0  0  0  0  0
  1 12  1  0  0  0  0
  1  6  1  0  0  0  0
  2  1  2  0  0  0  0
  3  2  1  0  0  0  0
  3  4  2  0  0  0  0
  4  5  1  0  0  0  0
  5  6  2  0  0  0  0
  5 10  1  0  0  0  0
  6 22  1  0  0  0  0
  7  2  1  0  0  0  0
  8  3  1  0  0  0  0
  9  4  1  0  0  0  0
 11 16  2  0  0  0  0
 11 12  1  0  0  0  0
 12 13  2  0  0  0  0
 13 18  1  0  0  0  0
 14 13  1  0  0  0  0
 15 19  1  0  0  0  0
 15 14  2  0  0  0  0
 16 15  1  0  0  0  0
 17 11  1  0  0  0  0
 20 22  1  0  0  0  0
 20 24  1  0  0  0  0
 21 20  2  0  0  0  0
 22 23  1  0  0  0  0
 24 25  1  0  0  0  0
 25 26  2  0  0  0  0
 25 27  1  0  0  0  0
 27 29  1  0  0  0  0
 29 28  2  0  0  0  0
 29 32  1  0  0  0  0
 30 31  1  0  0  0  0
 30 29  1  0  0  0  0
 33 32  1  0  0  0  0
M  END
>  <minimizedAffinity>
-5.06338739

$$$$

 OpenBabel03272500593D

 33 34  0  0  0  0  0  0  0  0999 V2000
   37.5180   26.5910   32.6030 C   0  0  0  0  0  0  0  0  0  0  0  0
   36.7280   27.6400   32.1910 C   0  0  0  0  0  0  0  0  0  0  0  0
   36.1700   28.5290   33.1230 C   0  0  0  0  0  0  0  0  0  0  0  0
   36.4510   28.3120   34.5280 C   0  0  0  0  0  0  0  0  0  0  0  0
   37.2360   27.2610   34.8520 C   0  0  0  0  0  0  0  0  0  0  0  0
   37.7730   26.4040   33.9630 C   0  0  0  0  0  0  0  0  0  0  0  0
   36.4990   27.8280   31.1450 H   0  0  0  0  0  0  0  0  0  0  0  0
   35.5550   29.3360   32.7470 H   0  0  0  0  0  0  0  0  0  0  0  0
   35.9570   29.0700   35.1180 H   0  0  0  0  0  0  0  0  0  0  0  0
   37.3350   27.3070   35.9250 H   0  0  0  0  0  0  0  0  0  0  0  0
   39.2430   26.1860   30.9190 C   0  0  0  0  0  0  0  0  0  0  0  0
   38.0400   25.7690   31.5390 C   0  0  0  0  0  0  0  0  0  0  0  0
   37.5180   24.6030   31.0350 C   0  0  0  0  0  0  0  0  0  0  0  0
   38.1210   23.9410   30.0390 N   0  0  0  0  0  0  0  0  0  0  0  0
   39.2370   24.3400   29.4740 C   0  0  0  0  0  0  0  0  0  0  0  0
   39.7890   25.4580   29.9180 N   0  0  0  0  0  0  0  0  0  0  0  0
   39.7560   27.1010   31.2350 H   0  0  0  0  0  0  0  0  0  0  0  0
   36.5910   24.2840   31.5140 H   0  0  0  0  0  0  0  0  0  0  0  0
   39.6570   23.7420   28.6740 H   0  0  0  0  0  0  0  0  0  0  0  0
   39.9100   25.7100   34.6640 C   0  0  0  0  0  0  0  0  0  0  0  0
   40.2650   26.9410   34.4830 O   0  0  0  0  0  0  0  0  0  0  0  0
   38.5380   25.3360   34.3640 N   0  0  0  0  0  0  0  0  0  0  0  0
   38.1980   24.3540   34.4520 H   0  0  0  0  0  0  0  0  0  0  0  0
   40.8290   24.8020   35.1240 O   0  0  0  0  0  0  0  0  0  0  0  0
   40.5030   23.6620   35.8560 C   0  0  0  0  0  0  0  0  0  0  0  0
   41.3640   23.0780   36.6600 O   0  0  0  0  0  0  0  0  0  0  0  0
   39.3010   22.9720   35.9060 O   0  0  0  0  0  0  0  0  0  0  0  0
   37.8690   24.6230   37.3890 O   0  0  0  0  0  0  0  0  0  0  0  0
   38.3100   23.1720   37.2980 P   0  0  0  0  0  0  0  0  0  0  0  0
   36.8670   22.2770   37.1030 O   0  0  0  0  0  0  0  0  0  0  0  0
   36.2090   22.5870   37.7670 H   0  0  0  0  0  0  0  0  0  0  0  0
   39.0850   22.7780   38.7240 O   0  0  0  0  0  0  0  0  0  0  0  0
   39.2650   21.8240   38.8540 H   0  0  0  0  0  0  0  0  0  0  0  0
  1  6  1  0  0  0  0
  2  1  2  0  0  0  0
  2  3  1  0  0  0  0
  3  4  2  0  0  0  0
  4  5  1  0  0  0  0
  4  9  1  0  0  0  0
  5 10  1  0  0  0  0
  6 22  1  0  0  0  0
  6  5  2  0  0  0  0
  7  2  1  0  0  0  0
  8  3  1  0  0  0  0
 11 17  1  0  0  0  0
 11 12  1  0  0  0  0
 12  1  1  0  0  0  0
 13 18  1  0  0  0  0
 13 12  2  0  0  0  0
 14 13  1  0  0  0  0
 15 16  1  0  0  0  0
 15 14  2  0  0  0  0
 16 11  2  0  0  0  0
 19 15  1  0  0  0  0
 20 24  1  0  0  0  0
 21 20  2  0  0  0  0
 22 23  1  0  0  0  0
 22 20  1  0  0  0  0
 24 25  1  0  0  0  0
 25 27  1  0  0  0  0
 25 26  2  0  0  0  0
 27 29  1  0  0  0  0
 29 28  2  0  0  0  0
 29 32  1  0  0  0  0
 30 29  1  0  0  0  0
 30 31  1  0  0  0  0
 32 33  1  0  0  0  0
M  END
>  <minimizedAffinity>
-5.05862045

$$$$

 OpenBabel03272500593D

 33 34  0  0  0  0  0  0  0  0999 V2000
   39.6790   23.5360   36.3280 C   0  0  0  0  0  0  0  0  0  0  0  0
   39.9080   22.9920   37.5710 C   0  0  0  0  0  0  0  0  0  0  0  0
   39.0400   23.2510   38.6430 C   0  0  0  0  0  0  0  0  0  0  0  0
   37.8950   24.1070   38.4010 C   0  0  0  0  0  0  0  0  0  0  0  0
   37.7380   24.6020   37.1540 C   0  0  0  0  0  0  0  0  0  0  0  0
   38.5700   24.3570   36.1230 C   0  0  0  0  0  0  0  0  0  0  0  0
   40.7580   22.3460   37.7830 H   0  0  0  0  0  0  0  0  0  0  0  0
   39.2660   22.8010   39.5990 H   0  0  0  0  0  0  0  0  0  0  0  0
   37.3230   24.2140   39.3110 H   0  0  0  0  0  0  0  0  0  0  0  0
   36.8250   25.1750   37.1930 H   0  0  0  0  0  0  0  0  0  0  0  0
   41.7780   24.0010   35.1640 C   0  0  0  0  0  0  0  0  0  0  0  0
   40.6410   23.1700   35.3180 C   0  0  0  0  0  0  0  0  0  0  0  0
   40.6060   22.0950   34.4640 C   0  0  0  0  0  0  0  0  0  0  0  0
   41.5830   21.8790   33.5730 N   0  0  0  0  0  0  0  0  0  0  0  0
   42.6310   22.6580   33.4420 C   0  0  0  0  0  0  0  0  0  0  0  0
   42.7210   23.7120   34.2390 N   0  0  0  0  0  0  0  0  0  0  0  0
   41.9180   24.8900   35.7880 H   0  0  0  0  0  0  0  0  0  0  0  0
   39.7290   21.4560   34.5840 H   0  0  0  0  0  0  0  0  0  0  0  0
   43.3730   22.4080   32.6950 H   0  0  0  0  0  0  0  0  0  0  0  0
   38.7280   26.3260   34.8420 C   0  0  0  0  0  0  0  0  0  0  0  0
   39.1370   26.8890   35.9340 O   0  0  0  0  0  0  0  0  0  0  0  0
   38.3670   24.9190   34.8850 N   0  0  0  0  0  0  0  0  0  0  0  0
   37.9960   24.4150   34.0520 H   0  0  0  0  0  0  0  0  0  0  0  0
   38.6450   27.0650   33.6910 O   0  0  0  0  0  0  0  0  0  0  0  0
   37.4910   27.1810   32.9170 C   0  0  0  0  0  0  0  0  0  0  0  0
   36.6870   26.1640   32.7030 O   0  0  0  0  0  0  0  0  0  0  0  0
   36.9780   28.3030   32.2810 O   0  0  0  0  0  0  0  0  0  0  0  0
   38.2340   28.1470   29.9640 O   0  0  0  0  0  0  0  0  0  0  0  0
   36.8440   28.2710   30.5670 P   0  0  0  0  0  0  0  0  0  0  0  0
   36.0200   26.8530   30.0860 O   0  0  0  0  0  0  0  0  0  0  0  0
   36.1650   26.7130   29.1220 H   0  0  0  0  0  0  0  0  0  0  0  0
   36.1270   29.6400   29.9340 O   0  0  0  0  0  0  0  0  0  0  0  0
   35.1700   29.7340   30.1160 H   0  0  0  0  0  0  0  0  0  0  0  0
  1  2  1  0  0  0  0
  2  7  1  0  0  0  0
  2  3  2  0  0  0  0
  3  8  1  0  0  0  0
  4  3  1  0  0  0  0
  4  9  1  0  0  0  0
  5 10  1  0  0  0  0
  5  4  2  0  0  0  0
  6  1  2  0  0  0  0
  6  5  1  0  0  0  0
 11 12  1  0  0  0  0
 11 17  1  0  0  0  0
 12  1  1  0  0  0  0
 13 18  1  0  0  0  0
 13 12  2  0  0  0  0
 14 13  1  0  0  0  0
 15 14  2  0  0  0  0
 15 16  1  0  0  0  0
 16 11  2  0  0  0  0
 19 15  1  0  0  0  0
 20 22  1  0  0  0  0
 20 21  2  0  0  0  0
 22  6  1  0  0  0  0
 23 22  1  0  0  0  0
 24 20  1  0  0  0  0
 25 24  1  0  0  0  0
 26 25  2  0  0  0  0
 27 25  1  0  0  0  0
 28 29  2  0  0  0  0
 29 27  1  0  0  0  0
 30 29  1  0  0  0  0
 31 30  1  0  0  0  0
 32 33  1  0  0  0  0
 32 29  1  0  0  0  0
M  END
>  <minimizedAffinity>
-5.04946661

$$$$

 OpenBabel03272500593D

 33 34  0  0  0  0  0  0  0  0999 V2000
   38.6140   24.8240   36.2180 C   0  0  0  0  0  0  0  0  0  0  0  0
   38.0950   25.4160   37.3470 C   0  0  0  0  0  0  0  0  0  0  0  0
   38.0440   24.7220   38.5660 C   0  0  0  0  0  0  0  0  0  0  0  0
   38.5560   23.3660   38.6010 C   0  0  0  0  0  0  0  0  0  0  0  0
   39.0500   22.8560   37.4510 C   0  0  0  0  0  0  0  0  0  0  0  0
   39.0990   23.5170   36.2790 C   0  0  0  0  0  0  0  0  0  0  0  0
   37.7040   26.4320   37.3520 H   0  0  0  0  0  0  0  0  0  0  0  0
   37.6250   25.2320   39.4230 H   0  0  0  0  0  0  0  0  0  0  0  0
   38.4510   22.9640   39.5980 H   0  0  0  0  0  0  0  0  0  0  0  0
   39.3950   21.8670   37.7100 H   0  0  0  0  0  0  0  0  0  0  0  0
   37.4250   25.7370   34.2870 C   0  0  0  0  0  0  0  0  0  0  0  0
   38.6210   25.6590   35.0420 C   0  0  0  0  0  0  0  0  0  0  0  0
   39.6550   26.4130   34.5440 C   0  0  0  0  0  0  0  0  0  0  0  0
   39.5110   27.1500   33.4340 N   0  0  0  0  0  0  0  0  0  0  0  0
   38.3940   27.2110   32.7450 C   0  0  0  0  0  0  0  0  0  0  0  0
   37.3610   26.5060   33.1770 N   0  0  0  0  0  0  0  0  0  0  0  0
   36.5290   25.1800   34.5850 H   0  0  0  0  0  0  0  0  0  0  0  0
   40.5750   26.3520   35.1270 H   0  0  0  0  0  0  0  0  0  0  0  0
   38.3660   27.8330   31.8590 H   0  0  0  0  0  0  0  0  0  0  0  0
   38.6090   22.0720   34.4860 C   0  0  0  0  0  0  0  0  0  0  0  0
   37.4520   21.9250   35.0460 O   0  0  0  0  0  0  0  0  0  0  0  0
   39.5870   22.9260   35.1390 N   0  0  0  0  0  0  0  0  0  0  0  0
   40.5500   23.0570   34.7610 H   0  0  0  0  0  0  0  0  0  0  0  0
   38.8780   21.4230   33.3100 O   0  0  0  0  0  0  0  0  0  0  0  0
   37.9030   21.0020   32.4070 C   0  0  0  0  0  0  0  0  0  0  0  0
   37.4660   21.7760   31.4390 O   0  0  0  0  0  0  0  0  0  0  0  0
   37.2570   19.7760   32.3300 O   0  0  0  0  0  0  0  0  0  0  0  0
   35.0920   18.2860   32.5790 O   0  0  0  0  0  0  0  0  0  0  0  0
   35.5940   19.7090   32.7610 P   0  0  0  0  0  0  0  0  0  0  0  0
   35.4240   20.0320   34.4310 O   0  0  0  0  0  0  0  0  0  0  0  0
   34.5260   19.7500   34.7200 H   0  0  0  0  0  0  0  0  0  0  0  0
   34.6310   20.7180   31.8430 O   0  0  0  0  0  0  0  0  0  0  0  0
   34.7480   21.6750   32.0090 H   0  0  0  0  0  0  0  0  0  0  0  0
  1  6  2  0  0  0  0
  1  2  1  0  0  0  0
  2  7  1  0  0  0  0
  2  3  2  0  0  0  0
  3  4  1  0  0  0  0
  3  8  1  0  0  0  0
  4  9  1  0  0  0  0
  5 10  1  0  0  0  0
  5  4  2  0  0  0  0
  6  5  1  0  0  0  0
 11 17  1  0  0  0  0
 11 12  1  0  0  0  0
 12  1  1  0  0  0  0
 13 12  2  0  0  0  0
 13 18  1  0  0  0  0
 14 13  1  0  0  0  0
 15 16  1  0  0  0  0
 15 14  2  0  0  0  0
 16 11  2  0  0  0  0
 19 15  1  0  0  0  0
 20 21  2  0  0  0  0
 20 22  1  0  0  0  0
 22  6  1  0  0  0  0
 23 22  1  0  0  0  0
 24 20  1  0  0  0  0
 25 24  1  0  0  0  0
 26 25  2  0  0  0  0
 27 25  1  0  0  0  0
 27 29  1  0  0  0  0
 28 29  2  0  0  0  0
 29 30  1  0  0  0  0
 30 31  1  0  0  0  0
 32 33  1  0  0  0  0
 32 29  1  0  0  0  0
M  END
>  <minimizedAffinity>
-5.01665735

$$$$

 OpenBabel03272500593D

 33 34  0  0  0  0  0  0  0  0999 V2000
   39.2400   23.9550   35.6900 C   0  0  0  0  0  0  0  0  0  0  0  0
   40.0060   23.1330   36.4850 C   0  0  0  0  0  0  0  0  0  0  0  0
   39.6930   22.9490   37.8420 C   0  0  0  0  0  0  0  0  0  0  0  0
   38.5410   23.6470   38.3780 C   0  0  0  0  0  0  0  0  0  0  0  0
   37.8400   24.4340   37.5320 C   0  0  0  0  0  0  0  0  0  0  0  0
   38.1360   24.6160   36.2310 C   0  0  0  0  0  0  0  0  0  0  0  0
   40.8760   22.5970   36.1120 H   0  0  0  0  0  0  0  0  0  0  0  0
   40.3280   22.2950   38.4230 H   0  0  0  0  0  0  0  0  0  0  0  0
   38.4280   23.4080   39.4250 H   0  0  0  0  0  0  0  0  0  0  0  0
   37.0260   24.8230   38.1240 H   0  0  0  0  0  0  0  0  0  0  0  0
   40.7620   24.8820   34.0170 C   0  0  0  0  0  0  0  0  0  0  0  0
   39.6650   24.0370   34.3140 C   0  0  0  0  0  0  0  0  0  0  0  0
   39.1400   23.3860   33.2250 C   0  0  0  0  0  0  0  0  0  0  0  0
   39.6470   23.5590   31.9970 N   0  0  0  0  0  0  0  0  0  0  0  0
   40.6650   24.3460   31.7370 C   0  0  0  0  0  0  0  0  0  0  0  0
   41.2150   25.0000   32.7480 N   0  0  0  0  0  0  0  0  0  0  0  0
   41.2670   25.4540   34.8030 H   0  0  0  0  0  0  0  0  0  0  0  0
   38.2940   22.7360   33.4560 H   0  0  0  0  0  0  0  0  0  0  0  0
   41.0110   24.4250   30.7130 H   0  0  0  0  0  0  0  0  0  0  0  0
   37.8720   26.8300   35.4760 C   0  0  0  0  0  0  0  0  0  0  0  0
   38.8630   27.1140   36.2590 O   0  0  0  0  0  0  0  0  0  0  0  0
   37.3970   25.4570   35.4350 N   0  0  0  0  0  0  0  0  0  0  0  0
   36.5800   25.1690   34.8550 H   0  0  0  0  0  0  0  0  0  0  0  0
   37.3020   27.8210   34.7200 O   0  0  0  0  0  0  0  0  0  0  0  0
   36.6990   27.6110   33.4810 C   0  0  0  0  0  0  0  0  0  0  0  0
   36.0700   28.5690   32.8380 O   0  0  0  0  0  0  0  0  0  0  0  0
   36.6560   26.4530   32.7170 O   0  0  0  0  0  0  0  0  0  0  0  0
   38.6390   27.0970   31.0980 O   0  0  0  0  0  0  0  0  0  0  0  0
   37.2290   26.5290   31.0980 P   0  0  0  0  0  0  0  0  0  0  0  0
   37.3860   24.9450   30.4740 O   0  0  0  0  0  0  0  0  0  0  0  0
   37.9400   24.9780   29.6610 H   0  0  0  0  0  0  0  0  0  0  0  0
   36.2860   27.4860   30.1060 O   0  0  0  0  0  0  0  0  0  0  0  0
   35.4020   27.1250   29.8920 H   0  0  0  0  0  0  0  0  0  0  0  0
  1  6  2  0  0  0  0
  1  2  1  0  0  0  0
  2  3  2  0  0  0  0
  3  4  1  0  0  0  0
  3  8  1  0  0  0  0
  4  9  1  0  0  0  0
  5 10  1  0  0  0  0
  5  4  2  0  0  0  0
  6  5  1  0  0  0  0
  7  2  1  0  0  0  0
 11 12  1  0  0  0  0
 11 17  1  0  0  0  0
 12  1  1  0  0  0  0
 13 18  1  0  0  0  0
 13 12  2  0  0  0  0
 14 13  1  0  0  0  0
 15 14  2  0  0  0  0
 15 16  1  0  0  0  0
 16 11  2  0  0  0  0
 19 15  1  0  0  0  0
 20 21  2  0  0  0  0
 22 20  1  0  0  0  0
 22  6  1  0  0  0  0
 23 22  1  0  0  0  0
 24 20  1  0  0  0  0
 25 24  1  0  0  0  0
 26 25  2  0  0  0  0
 27 25  1  0  0  0  0
 29 28  2  0  0  0  0
 29 27  1  0  0  0  0
 30 29  1  0  0  0  0
 31 30  1  0  0  0  0
 32 29  1  0  0  0  0
 33 32  1  0  0  0  0
M  END
>  <minimizedAffinity>
-4.96172571

$$$$

 OpenBabel03272500593D

 33 34  0  0  0  0  0  0  0  0999 V2000
   37.8610   27.7130   31.5540 C   0  0  0  0  0  0  0  0  0  0  0  0
   37.7340   28.7810   30.6950 C   0  0  0  0  0  0  0  0  0  0  0  0
   36.5880   29.5920   30.7190 C   0  0  0  0  0  0  0  0  0  0  0  0
   35.5460   29.2730   31.6750 C   0  0  0  0  0  0  0  0  0  0  0  0
   35.7460   28.2100   32.4850 C   0  0  0  0  0  0  0  0  0  0  0  0
   36.8430   27.4270   32.4640 C   0  0  0  0  0  0  0  0  0  0  0  0
   38.4980   29.0450   29.9670 H   0  0  0  0  0  0  0  0  0  0  0  0
   36.5360   30.4170   30.0220 H   0  0  0  0  0  0  0  0  0  0  0  0
   34.7350   29.9790   31.5770 H   0  0  0  0  0  0  0  0  0  0  0  0
   34.8770   28.1760   33.1210 H   0  0  0  0  0  0  0  0  0  0  0  0
   39.1740   25.9900   30.4200 C   0  0  0  0  0  0  0  0  0  0  0  0
   39.0970   26.9790   31.4310 C   0  0  0  0  0  0  0  0  0  0  0  0
   40.2400   27.1150   32.1790 C   0  0  0  0  0  0  0  0  0  0  0  0
   41.3220   26.3590   31.9450 N   0  0  0  0  0  0  0  0  0  0  0  0
   41.3780   25.4460   31.0020 C   0  0  0  0  0  0  0  0  0  0  0  0
   40.3050   25.2700   30.2480 N   0  0  0  0  0  0  0  0  0  0  0  0
   38.3240   25.7900   29.7580 H   0  0  0  0  0  0  0  0  0  0  0  0
   40.1790   27.8760   32.9580 H   0  0  0  0  0  0  0  0  0  0  0  0
   42.2940   24.8810   30.8830 H   0  0  0  0  0  0  0  0  0  0  0  0
   37.3150   26.7130   34.6570 C   0  0  0  0  0  0  0  0  0  0  0  0
   37.5100   27.9650   34.9200 O   0  0  0  0  0  0  0  0  0  0  0  0
   36.9680   26.3410   33.2960 N   0  0  0  0  0  0  0  0  0  0  0  0
   36.8340   25.3470   33.0080 H   0  0  0  0  0  0  0  0  0  0  0  0
   37.4440   25.7830   35.6560 O   0  0  0  0  0  0  0  0  0  0  0  0
   38.2050   24.6200   35.5490 C   0  0  0  0  0  0  0  0  0  0  0  0
   38.0170   23.7480   34.5830 O   0  0  0  0  0  0  0  0  0  0  0  0
   39.2460   24.1820   36.3550 O   0  0  0  0  0  0  0  0  0  0  0  0
   38.6680   23.8770   38.9140 O   0  0  0  0  0  0  0  0  0  0  0  0
   38.8770   23.0890   37.6310 P   0  0  0  0  0  0  0  0  0  0  0  0
   37.3750   22.3360   37.3190 O   0  0  0  0  0  0  0  0  0  0  0  0
   37.0530   21.9150   38.1500 H   0  0  0  0  0  0  0  0  0  0  0  0
   40.0800   21.9640   37.9060 O   0  0  0  0  0  0  0  0  0  0  0  0
   40.1870   21.2850   37.2090 H   0  0  0  0  0  0  0  0  0  0  0  0
  1  6  1  0  0  0  0
  2  3  1  0  0  0  0
  2  1  2  0  0  0  0
  3  4  2  0  0  0  0
  4  5  1  0  0  0  0
  5 10  1  0  0  0  0
  6  5  2  0  0  0  0
  6 22  1  0  0  0  0
  7  2  1  0  0  0  0
  8  3  1  0  0  0  0
  9  4  1  0  0  0  0
 11 12  1  0  0  0  0
 12  1  1  0  0  0  0
 12 13  2  0  0  0  0
 13 18  1  0  0  0  0
 14 13  1  0  0  0  0
 15 14  2  0  0  0  0
 16 11  2  0  0  0  0
 16 15  1  0  0  0  0
 17 11  1  0  0  0  0
 19 15  1  0  0  0  0
 20 21  2  0  0  0  0
 20 24  1  0  0  0  0
 22 20  1  0  0  0  0
 23 22  1  0  0  0  0
 25 24  1  0  0  0  0
 25 27  1  0  0  0  0
 26 25  2  0  0  0  0
 27 29  1  0  0  0  0
 29 32  1  0  0  0  0
 29 28  2  0  0  0  0
 30 29  1  0  0  0  0
 30 31  1  0  0  0  0
 33 32  1  0  0  0  0
M  END
>  <minimizedAffinity>
-4.8937645

$$$$
