
 OpenBabel03272505463D

 23 24  0  0  0  0  0  0  0  0999 V2000
   38.8500   22.6840   35.4120 C   0  0  0  0  0  0  0  0  0  0  0  0
   37.8630   22.0390   34.5140 C   0  0  0  0  0  0  0  0  0  0  0  0
   37.6170   22.1440   36.0030 C   0  0  0  0  0  0  0  0  0  0  0  0
   37.3520   22.7130   33.8090 H   0  0  0  0  0  0  0  0  0  0  0  0
   38.0410   21.0060   34.1880 H   0  0  0  0  0  0  0  0  0  0  0  0
   37.6010   21.2440   36.6210 H   0  0  0  0  0  0  0  0  0  0  0  0
   36.8240   22.9160   36.2300 H   0  0  0  0  0  0  0  0  0  0  0  0
   40.0160   26.1090   34.5030 C   0  0  0  0  0  0  0  0  0  0  0  0
   39.2520   26.8950   35.3740 C   0  0  0  0  0  0  0  0  0  0  0  0
   38.3500   26.2580   36.2720 C   0  0  0  0  0  0  0  0  0  0  0  0
   38.2760   24.9120   36.2360 N   0  0  0  0  0  0  0  0  0  0  0  0
   39.0270   24.1720   35.3840 C   0  0  0  0  0  0  0  0  0  0  0  0
   39.8980   24.7550   34.5160 N   0  0  0  0  0  0  0  0  0  0  0  0
   40.6960   26.6110   33.8280 H   0  0  0  0  0  0  0  0  0  0  0  0
   39.3260   27.9550   35.3830 H   0  0  0  0  0  0  0  0  0  0  0  0
   37.7380   26.8230   36.9640 H   0  0  0  0  0  0  0  0  0  0  0  0
   40.0340   21.9690   35.5530 O   0  0  0  0  0  0  0  0  0  0  0  0
   41.8540   23.2870   36.9810 O   0  0  0  0  0  0  0  0  0  0  0  0
   40.7700   22.2380   37.0400 P   0  0  0  0  0  0  0  0  0  0  0  0
   41.4980   20.7940   37.5310 O   0  0  0  0  0  0  0  0  0  0  0  0
   42.1380   20.4460   36.8630 H   0  0  0  0  0  0  0  0  0  0  0  0
   39.6170   22.6300   38.2270 O   0  0  0  0  0  0  0  0  0  0  0  0
   40.1030   23.0530   38.9690 H   0  0  0  0  0  0  0  0  0  0  0  0
  1 17  1  0  0  0  0
  1  3  1  0  0  0  0
  2  1  1  0  0  0  0
  2  3  1  0  0  0  0
  3  7  1  0  0  0  0
  3  6  1  0  0  0  0
  4  2  1  0  0  0  0
  5  2  1  0  0  0  0
  8 13  2  0  0  0  0
  8  9  1  0  0  0  0
  9 15  1  0  0  0  0
  9 10  2  0  0  0  0
 10 16  1  0  0  0  0
 11 10  1  0  0  0  0
 12  1  1  0  0  0  0
 12 11  2  0  0  0  0
 13 12  1  0  0  0  0
 14  8  1  0  0  0  0
 17 19  1  0  0  0  0
 18 19  2  0  0  0  0
 19 20  1  0  0  0  0
 19 22  1  0  0  0  0
 21 20  1  0  0  0  0
 22 23  1  0  0  0  0
M  END
>  <minimizedAffinity>
-4.17326832

$$$$

 OpenBabel03272505463D

 23 24  0  0  0  0  0  0  0  0999 V2000
   38.9250   24.5230   34.5750 C   0  0  0  0  0  0  0  0  0  0  0  0
   37.7940   25.2560   33.9600 C   0  0  0  0  0  0  0  0  0  0  0  0
   38.0490   23.7980   33.6420 C   0  0  0  0  0  0  0  0  0  0  0  0
   36.9880   25.5490   34.6500 H   0  0  0  0  0  0  0  0  0  0  0  0
   37.9940   25.9150   33.1050 H   0  0  0  0  0  0  0  0  0  0  0  0
   38.3670   23.5030   32.6400 H   0  0  0  0  0  0  0  0  0  0  0  0
   37.2800   23.1350   34.1350 H   0  0  0  0  0  0  0  0  0  0  0  0
   37.9120   24.3140   38.1590 C   0  0  0  0  0  0  0  0  0  0  0  0
   38.8300   23.3760   38.6460 C   0  0  0  0  0  0  0  0  0  0  0  0
   39.7940   22.8240   37.7560 C   0  0  0  0  0  0  0  0  0  0  0  0
   39.7730   23.2380   36.4730 N   0  0  0  0  0  0  0  0  0  0  0  0
   38.8740   24.1490   36.0250 C   0  0  0  0  0  0  0  0  0  0  0  0
   37.9430   24.6930   36.8540 N   0  0  0  0  0  0  0  0  0  0  0  0
   37.1870   24.7220   38.8500 H   0  0  0  0  0  0  0  0  0  0  0  0
   38.8260   23.0630   39.6620 H   0  0  0  0  0  0  0  0  0  0  0  0
   40.5240   22.0950   38.0850 H   0  0  0  0  0  0  0  0  0  0  0  0
   40.1750   24.9450   34.1360 O   0  0  0  0  0  0  0  0  0  0  0  0
   40.0940   27.3880   33.0800 O   0  0  0  0  0  0  0  0  0  0  0  0
   40.3960   26.6000   34.3320 P   0  0  0  0  0  0  0  0  0  0  0  0
   42.0210   26.8700   34.7110 O   0  0  0  0  0  0  0  0  0  0  0  0
   42.6350   26.4950   34.0340 H   0  0  0  0  0  0  0  0  0  0  0  0
   39.4860   27.1840   35.6440 O   0  0  0  0  0  0  0  0  0  0  0  0
   39.4170   28.1580   35.5330 H   0  0  0  0  0  0  0  0  0  0  0  0
  1 12  1  0  0  0  0
  2  1  1  0  0  0  0
  2  4  1  0  0  0  0
  3  2  1  0  0  0  0
  3  7  1  0  0  0  0
  3  1  1  0  0  0  0
  5  2  1  0  0  0  0
  6  3  1  0  0  0  0
  8  9  1  0  0  0  0
  8 14  1  0  0  0  0
  9 15  1  0  0  0  0
 10 16  1  0  0  0  0
 10  9  2  0  0  0  0
 11 10  1  0  0  0  0
 12 11  2  0  0  0  0
 12 13  1  0  0  0  0
 13  8  2  0  0  0  0
 17 19  1  0  0  0  0
 17  1  1  0  0  0  0
 18 19  2  0  0  0  0
 19 20  1  0  0  0  0
 19 22  1  0  0  0  0
 21 20  1  0  0  0  0
 23 22  1  0  0  0  0
M  END
>  <minimizedAffinity>
-4.04150295

$$$$

 OpenBabel03272505463D

 23 24  0  0  0  0  0  0  0  0999 V2000
   39.0240   25.1940   35.2330 C   0  0  0  0  0  0  0  0  0  0  0  0
   38.4040   26.2690   36.0430 C   0  0  0  0  0  0  0  0  0  0  0  0
   39.6300   26.5340   35.1960 C   0  0  0  0  0  0  0  0  0  0  0  0
   37.4070   26.5980   35.7090 H   0  0  0  0  0  0  0  0  0  0  0  0
   38.6170   26.3110   37.1190 H   0  0  0  0  0  0  0  0  0  0  0  0
   40.5850   26.7650   35.6720 H   0  0  0  0  0  0  0  0  0  0  0  0
   39.3690   27.1450   34.2830 H   0  0  0  0  0  0  0  0  0  0  0  0
   37.9980   23.0560   32.3540 C   0  0  0  0  0  0  0  0  0  0  0  0
   37.0030   23.8480   31.7690 C   0  0  0  0  0  0  0  0  0  0  0  0
   36.6900   25.1090   32.3510 C   0  0  0  0  0  0  0  0  0  0  0  0
   37.3770   25.4800   33.4500 N   0  0  0  0  0  0  0  0  0  0  0  0
   38.3380   24.6960   33.9980 C   0  0  0  0  0  0  0  0  0  0  0  0
   38.6570   23.4870   33.4620 N   0  0  0  0  0  0  0  0  0  0  0  0
   38.2220   22.1010   31.8970 H   0  0  0  0  0  0  0  0  0  0  0  0
   36.4730   23.5340   30.9030 H   0  0  0  0  0  0  0  0  0  0  0  0
   35.9290   25.7570   31.9360 H   0  0  0  0  0  0  0  0  0  0  0  0
   39.6340   24.2000   35.9900 O   0  0  0  0  0  0  0  0  0  0  0  0
   37.2640   24.0350   37.1930 O   0  0  0  0  0  0  0  0  0  0  0  0
   38.5210   23.2740   36.8450 P   0  0  0  0  0  0  0  0  0  0  0  0
   39.2390   22.8050   38.3010 O   0  0  0  0  0  0  0  0  0  0  0  0
   39.5600   23.5750   38.8300 H   0  0  0  0  0  0  0  0  0  0  0  0
   38.1460   21.8440   36.0040 O   0  0  0  0  0  0  0  0  0  0  0  0
   37.3060   21.5030   36.3830 H   0  0  0  0  0  0  0  0  0  0  0  0
  1 17  1  0  0  0  0
  1  2  1  0  0  0  0
  2  5  1  0  0  0  0
  3  1  1  0  0  0  0
  3  6  1  0  0  0  0
  3  2  1  0  0  0  0
  4  2  1  0  0  0  0
  7  3  1  0  0  0  0
  8 13  1  0  0  0  0
  9 10  1  0  0  0  0
  9  8  2  0  0  0  0
 10 11  2  0  0  0  0
 11 12  1  0  0  0  0
 12  1  1  0  0  0  0
 13 12  2  0  0  0  0
 14  8  1  0  0  0  0
 15  9  1  0  0  0  0
 16 10  1  0  0  0  0
 17 19  1  0  0  0  0
 19 18  2  0  0  0  0
 19 20  1  0  0  0  0
 20 21  1  0  0  0  0
 22 23  1  0  0  0  0
 22 19  1  0  0  0  0
M  END
>  <minimizedAffinity>
-4.03608322

$$$$

 OpenBabel03272505463D

 23 24  0  0  0  0  0  0  0  0999 V2000
   38.4790   23.4410   36.5540 C   0  0  0  0  0  0  0  0  0  0  0  0
   37.2520   23.0400   37.2800 C   0  0  0  0  0  0  0  0  0  0  0  0
   38.4830   23.5140   38.0230 C   0  0  0  0  0  0  0  0  0  0  0  0
   36.3840   23.7040   37.1470 H   0  0  0  0  0  0  0  0  0  0  0  0
   37.0530   21.9710   37.4330 H   0  0  0  0  0  0  0  0  0  0  0  0
   39.0470   22.8200   38.6490 H   0  0  0  0  0  0  0  0  0  0  0  0
   38.3280   24.5500   38.4440 H   0  0  0  0  0  0  0  0  0  0  0  0
   38.6450   25.9080   33.7600 C   0  0  0  0  0  0  0  0  0  0  0  0
   38.5030   27.1140   34.4550 C   0  0  0  0  0  0  0  0  0  0  0  0
   38.3600   27.0850   35.8710 C   0  0  0  0  0  0  0  0  0  0  0  0
   38.3670   25.8810   36.4780 N   0  0  0  0  0  0  0  0  0  0  0  0
   38.5070   24.7260   35.7830 C   0  0  0  0  0  0  0  0  0  0  0  0
   38.6470   24.7240   34.4290 N   0  0  0  0  0  0  0  0  0  0  0  0
   38.7530   25.9490   32.6840 H   0  0  0  0  0  0  0  0  0  0  0  0
   38.4990   28.0520   33.9550 H   0  0  0  0  0  0  0  0  0  0  0  0
   38.2470   27.9920   36.4530 H   0  0  0  0  0  0  0  0  0  0  0  0
   39.1350   22.3850   35.9300 O   0  0  0  0  0  0  0  0  0  0  0  0
   41.4530   23.5780   36.4700 O   0  0  0  0  0  0  0  0  0  0  0  0
   40.7370   22.2490   36.4180 P   0  0  0  0  0  0  0  0  0  0  0  0
   41.5490   21.2890   35.2890 O   0  0  0  0  0  0  0  0  0  0  0  0
   41.4740   21.6420   34.3690 H   0  0  0  0  0  0  0  0  0  0  0  0
   40.8530   21.4460   37.9130 O   0  0  0  0  0  0  0  0  0  0  0  0
   41.7400   21.6510   38.2800 H   0  0  0  0  0  0  0  0  0  0  0  0
  1  2  1  0  0  0  0
  1  3  1  0  0  0  0
  2  5  1  0  0  0  0
  2  3  1  0  0  0  0
  3  7  1  0  0  0  0
  3  6  1  0  0  0  0
  4  2  1  0  0  0  0
  8 13  2  0  0  0  0
  8  9  1  0  0  0  0
  9 10  2  0  0  0  0
 10 16  1  0  0  0  0
 10 11  1  0  0  0  0
 12 11  2  0  0  0  0
 12  1  1  0  0  0  0
 13 12  1  0  0  0  0
 14  8  1  0  0  0  0
 15  9  1  0  0  0  0
 17 19  1  0  0  0  0
 17  1  1  0  0  0  0
 19 18  2  0  0  0  0
 19 22  1  0  0  0  0
 20 19  1  0  0  0  0
 21 20  1  0  0  0  0
 22 23  1  0  0  0  0
M  END
>  <minimizedAffinity>
-3.94868827

$$$$

 OpenBabel03272505463D

 23 24  0  0  0  0  0  0  0  0999 V2000
   39.5120   23.3470   35.4290 C   0  0  0  0  0  0  0  0  0  0  0  0
   40.9540   23.4520   35.1070 C   0  0  0  0  0  0  0  0  0  0  0  0
   40.3990   22.2450   35.8320 C   0  0  0  0  0  0  0  0  0  0  0  0
   41.2060   23.4000   34.0370 H   0  0  0  0  0  0  0  0  0  0  0  0
   41.5960   24.0710   35.7480 H   0  0  0  0  0  0  0  0  0  0  0  0
   40.6740   22.0560   36.8720 H   0  0  0  0  0  0  0  0  0  0  0  0
   40.3700   21.3430   35.1540 H   0  0  0  0  0  0  0  0  0  0  0  0
   37.0380   21.6690   33.1970 C   0  0  0  0  0  0  0  0  0  0  0  0
   36.6830   22.7230   32.3460 C   0  0  0  0  0  0  0  0  0  0  0  0
   37.2900   23.9970   32.5310 C   0  0  0  0  0  0  0  0  0  0  0  0
   38.1890   24.1250   33.5270 N   0  0  0  0  0  0  0  0  0  0  0  0
   38.5180   23.0890   34.3380 C   0  0  0  0  0  0  0  0  0  0  0  0
   37.9540   21.8610   34.1840 N   0  0  0  0  0  0  0  0  0  0  0  0
   36.5660   20.7080   33.0410 H   0  0  0  0  0  0  0  0  0  0  0  0
   35.9700   22.5990   31.5680 H   0  0  0  0  0  0  0  0  0  0  0  0
   37.0480   24.8430   31.8990 H   0  0  0  0  0  0  0  0  0  0  0  0
   39.0830   24.2530   36.3920 O   0  0  0  0  0  0  0  0  0  0  0  0
   37.6790   24.4750   38.6430 O   0  0  0  0  0  0  0  0  0  0  0  0
   38.3130   23.4990   37.6820 P   0  0  0  0  0  0  0  0  0  0  0  0
   39.4740   22.6290   38.5490 O   0  0  0  0  0  0  0  0  0  0  0  0
   40.2250   23.1960   38.8500 H   0  0  0  0  0  0  0  0  0  0  0  0
   37.1690   22.3680   37.1310 O   0  0  0  0  0  0  0  0  0  0  0  0
   36.5630   22.1840   37.8830 H   0  0  0  0  0  0  0  0  0  0  0  0
  1  3  1  0  0  0  0
  1 17  1  0  0  0  0
  2  1  1  0  0  0  0
  2  5  1  0  0  0  0
  2  3  1  0  0  0  0
  3  6  1  0  0  0  0
  4  2  1  0  0  0  0
  7  3  1  0  0  0  0
  8 13  1  0  0  0  0
  9 10  1  0  0  0  0
  9  8  2  0  0  0  0
 10 11  2  0  0  0  0
 11 12  1  0  0  0  0
 12  1  1  0  0  0  0
 13 12  2  0  0  0  0
 14  8  1  0  0  0  0
 15  9  1  0  0  0  0
 16 10  1  0  0  0  0
 17 19  1  0  0  0  0
 19 20  1  0  0  0  0
 19 18  2  0  0  0  0
 20 21  1  0  0  0  0
 22 19  1  0  0  0  0
 22 23  1  0  0  0  0
M  END
>  <minimizedAffinity>
-3.93352079

$$$$

 OpenBabel03272505463D

 23 24  0  0  0  0  0  0  0  0999 V2000
   38.4820   24.6950   34.8370 C   0  0  0  0  0  0  0  0  0  0  0  0
   38.6400   23.7450   33.7120 C   0  0  0  0  0  0  0  0  0  0  0  0
   39.6800   24.8080   33.9920 C   0  0  0  0  0  0  0  0  0  0  0  0
   38.8150   22.6960   33.9980 H   0  0  0  0  0  0  0  0  0  0  0  0
   38.0880   23.9300   32.7810 H   0  0  0  0  0  0  0  0  0  0  0  0
   39.8320   25.6270   33.2860 H   0  0  0  0  0  0  0  0  0  0  0  0
   40.6150   24.3550   34.4350 H   0  0  0  0  0  0  0  0  0  0  0  0
   38.0060   24.1950   38.5030 C   0  0  0  0  0  0  0  0  0  0  0  0
   39.0170   23.2680   38.7840 C   0  0  0  0  0  0  0  0  0  0  0  0
   39.8610   22.8220   37.7270 C   0  0  0  0  0  0  0  0  0  0  0  0
   39.6400   23.3220   36.4950 N   0  0  0  0  0  0  0  0  0  0  0  0
   38.6550   24.2210   36.2480 C   0  0  0  0  0  0  0  0  0  0  0  0
   37.8340   24.6640   37.2390 N   0  0  0  0  0  0  0  0  0  0  0  0
   37.3750   24.5220   39.3190 H   0  0  0  0  0  0  0  0  0  0  0  0
   39.1710   22.8860   39.7630 H   0  0  0  0  0  0  0  0  0  0  0  0
   40.6560   22.1060   37.8940 H   0  0  0  0  0  0  0  0  0  0  0  0
   37.4460   25.6070   34.6630 O   0  0  0  0  0  0  0  0  0  0  0  0
   38.9270   27.4900   33.5020 O   0  0  0  0  0  0  0  0  0  0  0  0
   37.9900   27.1970   34.6490 P   0  0  0  0  0  0  0  0  0  0  0  0
   38.8500   27.4690   36.0780 O   0  0  0  0  0  0  0  0  0  0  0  0
   39.5920   26.8280   36.2010 H   0  0  0  0  0  0  0  0  0  0  0  0
   36.6840   28.2870   34.6510 O   0  0  0  0  0  0  0  0  0  0  0  0
   37.0350   29.1540   34.3510 H   0  0  0  0  0  0  0  0  0  0  0  0
  1 12  1  0  0  0  0
  2  3  1  0  0  0  0
  2  4  1  0  0  0  0
  2  1  1  0  0  0  0
  3  7  1  0  0  0  0
  3  1  1  0  0  0  0
  5  2  1  0  0  0  0
  6  3  1  0  0  0  0
  8  9  1  0  0  0  0
  8 14  1  0  0  0  0
  9 15  1  0  0  0  0
 10 16  1  0  0  0  0
 10  9  2  0  0  0  0
 11 10  1  0  0  0  0
 12 11  2  0  0  0  0
 12 13  1  0  0  0  0
 13  8  2  0  0  0  0
 17  1  1  0  0  0  0
 18 19  2  0  0  0  0
 19 22  1  0  0  0  0
 19 17  1  0  0  0  0
 19 20  1  0  0  0  0
 20 21  1  0  0  0  0
 23 22  1  0  0  0  0
M  END
>  <minimizedAffinity>
-3.90970564

$$$$

 OpenBabel03272505463D

 23 24  0  0  0  0  0  0  0  0999 V2000
   37.3100   26.4380   33.3750 C   0  0  0  0  0  0  0  0  0  0  0  0
   37.0660   27.7600   32.7530 C   0  0  0  0  0  0  0  0  0  0  0  0
   38.4710   27.2320   32.9490 C   0  0  0  0  0  0  0  0  0  0  0  0
   36.5890   27.7360   31.7610 H   0  0  0  0  0  0  0  0  0  0  0  0
   36.8440   28.6170   33.4020 H   0  0  0  0  0  0  0  0  0  0  0  0
   39.1470   27.7200   33.6540 H   0  0  0  0  0  0  0  0  0  0  0  0
   38.9260   26.9130   31.9650 H   0  0  0  0  0  0  0  0  0  0  0  0
   35.6620   23.9670   31.1170 C   0  0  0  0  0  0  0  0  0  0  0  0
   36.5230   22.8710   31.2410 C   0  0  0  0  0  0  0  0  0  0  0  0
   37.6560   22.9730   32.0960 C   0  0  0  0  0  0  0  0  0  0  0  0
   37.8440   24.1350   32.7520 N   0  0  0  0  0  0  0  0  0  0  0  0
   36.9950   25.1840   32.6180 C   0  0  0  0  0  0  0  0  0  0  0  0
   35.9040   25.1140   31.8070 N   0  0  0  0  0  0  0  0  0  0  0  0
   34.8060   23.8710   30.4630 H   0  0  0  0  0  0  0  0  0  0  0  0
   36.3560   21.9640   30.7120 H   0  0  0  0  0  0  0  0  0  0  0  0
   38.3520   22.1520   32.2240 H   0  0  0  0  0  0  0  0  0  0  0  0
   36.9900   26.3850   34.7280 O   0  0  0  0  0  0  0  0  0  0  0  0
   38.0480   25.3090   36.9210 O   0  0  0  0  0  0  0  0  0  0  0  0
   38.3420   26.1410   35.6960 P   0  0  0  0  0  0  0  0  0  0  0  0
   38.8780   27.6500   36.2360 O   0  0  0  0  0  0  0  0  0  0  0  0
   38.1730   28.1550   36.7100 H   0  0  0  0  0  0  0  0  0  0  0  0
   39.6180   25.4630   34.7990 O   0  0  0  0  0  0  0  0  0  0  0  0
   40.2500   25.0790   35.4470 H   0  0  0  0  0  0  0  0  0  0  0  0
  1 17  1  0  0  0  0
  2  3  1  0  0  0  0
  2  1  1  0  0  0  0
  2  5  1  0  0  0  0
  3  1  1  0  0  0  0
  3  6  1  0  0  0  0
  4  2  1  0  0  0  0
  7  3  1  0  0  0  0
  8  9  2  0  0  0  0
  8 13  1  0  0  0  0
  9 10  1  0  0  0  0
 10 16  1  0  0  0  0
 10 11  2  0  0  0  0
 12 11  1  0  0  0  0
 12  1  1  0  0  0  0
 13 12  2  0  0  0  0
 14  8  1  0  0  0  0
 15  9  1  0  0  0  0
 17 19  1  0  0  0  0
 19 20  1  0  0  0  0
 19 18  2  0  0  0  0
 20 21  1  0  0  0  0
 22 23  1  0  0  0  0
 22 19  1  0  0  0  0
M  END
>  <minimizedAffinity>
-3.89197421

$$$$

 OpenBabel03272505463D

 23 24  0  0  0  0  0  0  0  0999 V2000
   36.8310   27.6300   32.2960 C   0  0  0  0  0  0  0  0  0  0  0  0
   36.4890   28.1960   33.6210 C   0  0  0  0  0  0  0  0  0  0  0  0
   35.7620   28.6380   32.3700 C   0  0  0  0  0  0  0  0  0  0  0  0
   36.0190   27.4960   34.3290 H   0  0  0  0  0  0  0  0  0  0  0  0
   37.1270   28.9860   34.0400 H   0  0  0  0  0  0  0  0  0  0  0  0
   35.8830   29.6570   31.9970 H   0  0  0  0  0  0  0  0  0  0  0  0
   34.7150   28.2180   32.3390 H   0  0  0  0  0  0  0  0  0  0  0  0
   36.8100   23.9050   32.0990 C   0  0  0  0  0  0  0  0  0  0  0  0
   35.6540   23.6800   31.3420 C   0  0  0  0  0  0  0  0  0  0  0  0
   34.8900   24.7960   30.8960 C   0  0  0  0  0  0  0  0  0  0  0  0
   35.3250   26.0270   31.2290 N   0  0  0  0  0  0  0  0  0  0  0  0
   36.4490   26.2200   31.9620 C   0  0  0  0  0  0  0  0  0  0  0  0
   37.1990   25.1720   32.4010 N   0  0  0  0  0  0  0  0  0  0  0  0
   37.3780   23.0450   32.4290 H   0  0  0  0  0  0  0  0  0  0  0  0
   35.3290   22.6990   31.0930 H   0  0  0  0  0  0  0  0  0  0  0  0
   33.9890   24.6730   30.3090 H   0  0  0  0  0  0  0  0  0  0  0  0
   38.0840   28.0100   31.8280 O   0  0  0  0  0  0  0  0  0  0  0  0
   39.1820   28.8450   29.5510 O   0  0  0  0  0  0  0  0  0  0  0  0
   38.2180   27.8550   30.1600 P   0  0  0  0  0  0  0  0  0  0  0  0
   36.6990   28.1580   29.4820 O   0  0  0  0  0  0  0  0  0  0  0  0
   36.3380   29.0400   29.7410 H   0  0  0  0  0  0  0  0  0  0  0  0
   38.6350   26.2640   29.7270 O   0  0  0  0  0  0  0  0  0  0  0  0
   38.9810   26.2990   28.8080 H   0  0  0  0  0  0  0  0  0  0  0  0
  1  3  1  0  0  0  0
  1  2  1  0  0  0  0
  2  5  1  0  0  0  0
  2  4  1  0  0  0  0
  3  2  1  0  0  0  0
  6  3  1  0  0  0  0
  7  3  1  0  0  0  0
  8 13  1  0  0  0  0
  8 14  1  0  0  0  0
  9  8  2  0  0  0  0
 10 11  2  0  0  0  0
 10  9  1  0  0  0  0
 11 12  1  0  0  0  0
 12  1  1  0  0  0  0
 12 13  2  0  0  0  0
 15  9  1  0  0  0  0
 16 10  1  0  0  0  0
 17  1  1  0  0  0  0
 18 19  2  0  0  0  0
 19 17  1  0  0  0  0
 20 21  1  0  0  0  0
 20 19  1  0  0  0  0
 22 19  1  0  0  0  0
 23 22  1  0  0  0  0
M  END
>  <minimizedAffinity>
-3.84131575

$$$$

 OpenBabel03272505463D

 23 24  0  0  0  0  0  0  0  0999 V2000
   38.1340   26.0860   35.0940 C   0  0  0  0  0  0  0  0  0  0  0  0
   38.7610   27.2090   35.8310 C   0  0  0  0  0  0  0  0  0  0  0  0
   39.5970   26.2260   35.0400 C   0  0  0  0  0  0  0  0  0  0  0  0
   38.5470   28.2130   35.4350 H   0  0  0  0  0  0  0  0  0  0  0  0
   38.9100   27.1130   36.9140 H   0  0  0  0  0  0  0  0  0  0  0  0
   40.2770   25.5450   35.5550 H   0  0  0  0  0  0  0  0  0  0  0  0
   39.9910   26.6990   34.0930 H   0  0  0  0  0  0  0  0  0  0  0  0
   36.3760   25.6350   31.8350 C   0  0  0  0  0  0  0  0  0  0  0  0
   35.8800   26.9260   31.6140 C   0  0  0  0  0  0  0  0  0  0  0  0
   36.1510   27.9450   32.5700 C   0  0  0  0  0  0  0  0  0  0  0  0
   36.8810   27.6110   33.6530 N   0  0  0  0  0  0  0  0  0  0  0  0
   37.3520   26.3550   33.8450 C   0  0  0  0  0  0  0  0  0  0  0  0
   37.1090   25.3610   32.9470 N   0  0  0  0  0  0  0  0  0  0  0  0
   36.1600   24.8740   31.0980 H   0  0  0  0  0  0  0  0  0  0  0  0
   35.3050   27.1650   30.7530 H   0  0  0  0  0  0  0  0  0  0  0  0
   35.7890   28.9580   32.4440 H   0  0  0  0  0  0  0  0  0  0  0  0
   37.5810   25.1120   35.9180 O   0  0  0  0  0  0  0  0  0  0  0  0
   39.8030   23.7320   36.4150 O   0  0  0  0  0  0  0  0  0  0  0  0
   38.4120   23.6540   35.8310 P   0  0  0  0  0  0  0  0  0  0  0  0
   38.5790   23.2420   34.2010 O   0  0  0  0  0  0  0  0  0  0  0  0
   39.0240   23.9510   33.6750 H   0  0  0  0  0  0  0  0  0  0  0  0
   37.5230   22.4010   36.5610 O   0  0  0  0  0  0  0  0  0  0  0  0
   38.1550   21.6710   36.7430 H   0  0  0  0  0  0  0  0  0  0  0  0
  1  2  1  0  0  0  0
  1 17  1  0  0  0  0
  2  5  1  0  0  0  0
  3  1  1  0  0  0  0
  3  6  1  0  0  0  0
  3  2  1  0  0  0  0
  4  2  1  0  0  0  0
  7  3  1  0  0  0  0
  8 13  1  0  0  0  0
  9  8  2  0  0  0  0
  9 10  1  0  0  0  0
 10 11  2  0  0  0  0
 11 12  1  0  0  0  0
 12  1  1  0  0  0  0
 13 12  2  0  0  0  0
 14  8  1  0  0  0  0
 15  9  1  0  0  0  0
 16 10  1  0  0  0  0
 19 17  1  0  0  0  0
 19 18  2  0  0  0  0
 19 22  1  0  0  0  0
 20 19  1  0  0  0  0
 21 20  1  0  0  0  0
 22 23  1  0  0  0  0
M  END
>  <minimizedAffinity>
-3.81409931

$$$$
