
 OpenBabel03272500583D

 33 34  0  0  0  0  0  0  0  0999 V2000
   38.0850   31.9060   47.4270 C   0  0  0  0  0  0  0  0  0  0  0  0
   38.5340   32.8600   48.3120 C   0  0  0  0  0  0  0  0  0  0  0  0
   38.0080   32.9420   49.6110 C   0  0  0  0  0  0  0  0  0  0  0  0
   36.9810   31.9940   49.9930 C   0  0  0  0  0  0  0  0  0  0  0  0
   36.5950   31.0870   49.0680 C   0  0  0  0  0  0  0  0  0  0  0  0
   37.0950   31.0040   47.8200 C   0  0  0  0  0  0  0  0  0  0  0  0
   39.3040   33.5850   48.0540 H   0  0  0  0  0  0  0  0  0  0  0  0
   38.3940   33.7110   50.2660 H   0  0  0  0  0  0  0  0  0  0  0  0
   36.6770   32.1790   51.0120 H   0  0  0  0  0  0  0  0  0  0  0  0
   35.8590   30.4760   49.5670 H   0  0  0  0  0  0  0  0  0  0  0  0
   39.9890   31.2930   46.0220 C   0  0  0  0  0  0  0  0  0  0  0  0
   38.7260   31.9250   46.1350 C   0  0  0  0  0  0  0  0  0  0  0  0
   38.2650   32.4830   44.9690 C   0  0  0  0  0  0  0  0  0  0  0  0
   38.9760   32.4170   43.8340 N   0  0  0  0  0  0  0  0  0  0  0  0
   40.1450   31.8270   43.7450 C   0  0  0  0  0  0  0  0  0  0  0  0
   40.6420   31.2700   44.8380 N   0  0  0  0  0  0  0  0  0  0  0  0
   40.4610   30.8100   46.8840 H   0  0  0  0  0  0  0  0  0  0  0  0
   37.2930   32.9700   45.0590 H   0  0  0  0  0  0  0  0  0  0  0  0
   40.6500   31.8210   42.7870 H   0  0  0  0  0  0  0  0  0  0  0  0
   35.1870   29.9280   46.9570 C   0  0  0  0  0  0  0  0  0  0  0  0
   34.5220   30.6160   47.8280 O   0  0  0  0  0  0  0  0  0  0  0  0
   36.6320   30.0760   46.9190 N   0  0  0  0  0  0  0  0  0  0  0  0
   37.2310   29.5230   46.2690 H   0  0  0  0  0  0  0  0  0  0  0  0
   34.5190   29.0850   46.1080 O   0  0  0  0  0  0  0  0  0  0  0  0
   33.4360   29.4670   45.3180 C   0  0  0  0  0  0  0  0  0  0  0  0
   33.3950   30.6270   44.7020 O   0  0  0  0  0  0  0  0  0  0  0  0
   32.2810   28.7580   45.0200 O   0  0  0  0  0  0  0  0  0  0  0  0
   29.6550   28.4860   45.0960 O   0  0  0  0  0  0  0  0  0  0  0  0
   30.7860   29.3580   45.6210 P   0  0  0  0  0  0  0  0  0  0  0  0
   30.7400   29.1740   47.3200 O   0  0  0  0  0  0  0  0  0  0  0  0
   29.8080   29.2780   47.6250 H   0  0  0  0  0  0  0  0  0  0  0  0
   30.4750   30.9350   45.1670 O   0  0  0  0  0  0  0  0  0  0  0  0
   31.0410   31.6130   45.5910 H   0  0  0  0  0  0  0  0  0  0  0  0
  1  6  2  0  0  0  0
  1  2  1  0  0  0  0
  2  3  2  0  0  0  0
  3  4  1  0  0  0  0
  3  8  1  0  0  0  0
  4  9  1  0  0  0  0
  5 10  1  0  0  0  0
  5  4  2  0  0  0  0
  6  5  1  0  0  0  0
  7  2  1  0  0  0  0
 11 12  1  0  0  0  0
 11 17  1  0  0  0  0
 12  1  1  0  0  0  0
 13 18  1  0  0  0  0
 13 12  2  0  0  0  0
 14 13  1  0  0  0  0
 15 14  2  0  0  0  0
 15 16  1  0  0  0  0
 16 11  2  0  0  0  0
 19 15  1  0  0  0  0
 20 21  2  0  0  0  0
 22 20  1  0  0  0  0
 22  6  1  0  0  0  0
 23 22  1  0  0  0  0
 24 20  1  0  0  0  0
 25 24  1  0  0  0  0
 26 25  2  0  0  0  0
 27 25  1  0  0  0  0
 27 29  1  0  0  0  0
 28 29  2  0  0  0  0
 29 30  1  0  0  0  0
 30 31  1  0  0  0  0
 32 33  1  0  0  0  0
 32 29  1  0  0  0  0
M  END
>  <minimizedAffinity>
-5.24020767

>  <minimizedRMSD>
0.286874831

$$$$
