
 OpenBabel03272510293D

 26 27  0  0  0  0  0  0  0  0999 V2000
   37.1970   31.3100   49.1850 C   0  0  0  0  0  0  0  0  0  0  0  0
   37.3560   32.5760   49.7580 C   0  0  0  0  0  0  0  0  0  0  0  0
   38.3190   33.3880   49.1570 C   0  0  0  0  0  0  0  0  0  0  0  0
   39.0280   32.9160   48.0810 N   0  0  0  0  0  0  0  0  0  0  0  0
   38.8280   31.6780   47.5690 C   0  0  0  0  0  0  0  0  0  0  0  0
   37.8910   30.8490   48.1330 N   0  0  0  0  0  0  0  0  0  0  0  0
   36.7720   32.8890   50.6000 H   0  0  0  0  0  0  0  0  0  0  0  0
   38.5030   34.3820   49.5400 H   0  0  0  0  0  0  0  0  0  0  0  0
   36.1460   30.4240   49.7840 C   0  0  0  0  0  0  0  0  0  0  0  0
   36.1370   28.9910   49.6080 C   0  0  0  0  0  0  0  0  0  0  0  0
   36.6830   29.5340   50.9150 C   0  0  0  0  0  0  0  0  0  0  0  0
   35.2110   30.9970   50.0600 H   0  0  0  0  0  0  0  0  0  0  0  0
   36.8910   28.4770   48.9770 H   0  0  0  0  0  0  0  0  0  0  0  0
   35.1770   28.4400   49.6290 H   0  0  0  0  0  0  0  0  0  0  0  0
   36.0070   29.4190   51.7860 H   0  0  0  0  0  0  0  0  0  0  0  0
   37.7690   29.5000   51.0950 H   0  0  0  0  0  0  0  0  0  0  0  0
   39.5670   31.1820   46.4150 C   0  0  0  0  0  0  0  0  0  0  0  0
   40.1410   31.9770   45.8730 H   0  0  0  0  0  0  0  0  0  0  0  0
   40.3160   30.4390   46.7140 H   0  0  0  0  0  0  0  0  0  0  0  0
   38.6310   30.7220   45.4880 O   0  0  0  0  0  0  0  0  0  0  0  0
   38.3910   32.8790   44.0780 O   0  0  0  0  0  0  0  0  0  0  0  0
   38.8130   31.4350   43.9720 P   0  0  0  0  0  0  0  0  0  0  0  0
   40.3830   31.2810   43.3660 O   0  0  0  0  0  0  0  0  0  0  0  0
   40.9620   31.8650   43.9450 H   0  0  0  0  0  0  0  0  0  0  0  0
   37.7950   30.6470   42.8580 O   0  0  0  0  0  0  0  0  0  0  0  0
   38.1500   29.7520   42.6900 H   0  0  0  0  0  0  0  0  0  0  0  0
  1  2  1  0  0  0  0
  1  9  1  0  0  0  0
  2  7  1  0  0  0  0
  3  8  1  0  0  0  0
  3  2  2  0  0  0  0
  4  3  1  0  0  0  0
  5  4  2  0  0  0  0
  5  6  1  0  0  0  0
  6  1  2  0  0  0  0
  9 12  1  0  0  0  0
  9 11  1  0  0  0  0
 10 14  1  0  0  0  0
 10  9  1  0  0  0  0
 10 11  1  0  0  0  0
 11 16  1  0  0  0  0
 11 15  1  0  0  0  0
 13 10  1  0  0  0  0
 17 19  1  0  0  0  0
 17  5  1  0  0  0  0
 18 17  1  0  0  0  0
 20 17  1  0  0  0  0
 22 21  2  0  0  0  0
 22 20  1  0  0  0  0
 23 24  1  0  0  0  0
 23 22  1  0  0  0  0
 25 22  1  0  0  0  0
 26 25  1  0  0  0  0
M  END
>  <minimizedAffinity>
-4.71657372

>  <minimizedRMSD>
0.838843763

$$$$
