
 OpenBabel03272500593D

 33 34  0  0  0  0  0  0  0  0999 V2000
   38.1060   31.8890   47.4340 C   0  0  0  0  0  0  0  0  0  0  0  0
   38.7090   32.8430   48.2220 C   0  0  0  0  0  0  0  0  0  0  0  0
   38.3350   33.0100   49.5650 C   0  0  0  0  0  0  0  0  0  0  0  0
   37.2980   32.1480   50.0970 C   0  0  0  0  0  0  0  0  0  0  0  0
   36.7570   31.2350   49.2610 C   0  0  0  0  0  0  0  0  0  0  0  0
   37.1100   31.0720   47.9710 C   0  0  0  0  0  0  0  0  0  0  0  0
   39.4890   33.5050   47.8510 H   0  0  0  0  0  0  0  0  0  0  0  0
   38.8380   33.7750   50.1390 H   0  0  0  0  0  0  0  0  0  0  0  0
   37.1210   32.3920   51.1340 H   0  0  0  0  0  0  0  0  0  0  0  0
   36.0430   30.6940   49.8630 H   0  0  0  0  0  0  0  0  0  0  0  0
   39.8100   31.1110   45.8640 C   0  0  0  0  0  0  0  0  0  0  0  0
   38.6010   31.8160   46.0820 C   0  0  0  0  0  0  0  0  0  0  0  0
   38.0430   32.3480   44.9450 C   0  0  0  0  0  0  0  0  0  0  0  0
   38.6200   32.1930   43.7460 N   0  0  0  0  0  0  0  0  0  0  0  0
   39.7420   31.5360   43.5600 C   0  0  0  0  0  0  0  0  0  0  0  0
   40.3270   31.0000   44.6190 N   0  0  0  0  0  0  0  0  0  0  0  0
   40.3500   30.6410   46.6940 H   0  0  0  0  0  0  0  0  0  0  0  0
   37.1120   32.8910   45.1150 H   0  0  0  0  0  0  0  0  0  0  0  0
   40.1380   31.4600   42.5550 H   0  0  0  0  0  0  0  0  0  0  0  0
   35.0660   30.0430   47.4170 C   0  0  0  0  0  0  0  0  0  0  0  0
   34.5550   30.7690   48.3590 O   0  0  0  0  0  0  0  0  0  0  0  0
   36.4950   30.1430   47.1680 N   0  0  0  0  0  0  0  0  0  0  0  0
   36.9750   29.5590   46.4500 H   0  0  0  0  0  0  0  0  0  0  0  0
   34.2570   29.2080   46.6920 O   0  0  0  0  0  0  0  0  0  0  0  0
   33.0890   29.6140   46.0470 C   0  0  0  0  0  0  0  0  0  0  0  0
   33.0450   30.6920   45.2960 O   0  0  0  0  0  0  0  0  0  0  0  0
   31.8410   29.0100   46.0430 O   0  0  0  0  0  0  0  0  0  0  0  0
   30.4590   26.7930   46.4320 O   0  0  0  0  0  0  0  0  0  0  0  0
   31.6240   27.5950   46.9940 P   0  0  0  0  0  0  0  0  0  0  0  0
   32.9880   26.5780   46.8250 O   0  0  0  0  0  0  0  0  0  0  0  0
   32.7580   25.6800   47.1560 H   0  0  0  0  0  0  0  0  0  0  0  0
   31.2980   27.9180   48.6000 O   0  0  0  0  0  0  0  0  0  0  0  0
   32.0470   28.2810   49.1140 H   0  0  0  0  0  0  0  0  0  0  0  0
  1  6  2  0  0  0  0
  1  2  1  0  0  0  0
  2  3  2  0  0  0  0
  3  4  1  0  0  0  0
  3  8  1  0  0  0  0
  4  9  1  0  0  0  0
  5 10  1  0  0  0  0
  5  4  2  0  0  0  0
  6  5  1  0  0  0  0
  7  2  1  0  0  0  0
 11 12  1  0  0  0  0
 11 17  1  0  0  0  0
 12  1  1  0  0  0  0
 13 18  1  0  0  0  0
 13 12  2  0  0  0  0
 14 13  1  0  0  0  0
 15 14  2  0  0  0  0
 15 16  1  0  0  0  0
 16 11  2  0  0  0  0
 19 15  1  0  0  0  0
 20 21  2  0  0  0  0
 22 20  1  0  0  0  0
 22  6  1  0  0  0  0
 23 22  1  0  0  0  0
 24 20  1  0  0  0  0
 25 24  1  0  0  0  0
 26 25  2  0  0  0  0
 27 25  1  0  0  0  0
 27 29  1  0  0  0  0
 28 29  2  0  0  0  0
 29 32  1  0  0  0  0
 30 29  1  0  0  0  0
 30 31  1  0  0  0  0
 32 33  1  0  0  0  0
M  END
>  <minimizedAffinity>
-5.13505268

>  <minimizedRMSD>
0.691978097

$$$$
