
 OpenBabel03272502373D

 28 29  0  0  1  0  0  0  0  0999 V2000
   37.4280   30.4000   48.5630 N   0  0  0  0  0  0  0  0  0  0  0  0
   37.8440   30.4570   49.9600 C   0  0  0  0  0  0  0  0  0  0  0  0
   36.5580   30.1090   50.6880 C   0  0  0  0  0  0  0  0  0  0  0  0
   35.5230   29.8230   49.6310 C   0  0  1  0  0  0  0  0  0  0  0  0
   36.3860   29.3880   48.4700 C   0  0  0  0  0  0  0  0  0  0  0  0
   38.2420   31.4150   50.2800 H   0  0  0  0  0  0  0  0  0  0  0  0
   38.6030   29.6270   50.0440 H   0  0  0  0  0  0  0  0  0  0  0  0
   36.2150   31.0440   51.1990 H   0  0  0  0  0  0  0  0  0  0  0  0
   36.6990   29.2770   51.4050 H   0  0  0  0  0  0  0  0  0  0  0  0
   34.9390   30.7180   49.3480 H   0  0  0  0  0  0  0  0  0  0  0  0
   35.8790   29.3900   47.5070 H   0  0  0  0  0  0  0  0  0  0  0  0
   36.8650   28.4250   48.7350 H   0  0  0  0  0  0  0  0  0  0  0  0
   37.9500   31.1890   47.5090 C   0  0  0  0  0  0  0  0  0  0  0  0
   39.0140   32.0430   47.7710 C   0  0  0  0  0  0  0  0  0  0  0  0
   39.5310   32.8200   46.7350 C   0  0  0  0  0  0  0  0  0  0  0  0
   38.9540   32.6960   45.5020 N   0  0  0  0  0  0  0  0  0  0  0  0
   37.9130   31.8520   45.2740 C   0  0  0  0  0  0  0  0  0  0  0  0
   37.3990   31.0860   46.2850 N   0  0  0  0  0  0  0  0  0  0  0  0
   39.4800   32.1600   48.7120 H   0  0  0  0  0  0  0  0  0  0  0  0
   40.3580   33.5010   46.8840 H   0  0  0  0  0  0  0  0  0  0  0  0
   37.4860   31.7850   44.2850 H   0  0  0  0  0  0  0  0  0  0  0  0
   34.7140   28.7450   49.9600 O   0  0  0  0  0  0  0  0  0  0  0  0
   33.5550   29.4100   47.6630 O   0  0  0  0  0  0  0  0  0  0  0  0
   33.5860   28.3780   48.7550 P   0  0  0  0  0  0  0  0  0  0  0  0
   33.9840   26.8430   48.1450 O   0  0  0  0  0  0  0  0  0  0  0  0
   33.1950   26.3570   47.7920 H   0  0  0  0  0  0  0  0  0  0  0  0
   32.0330   28.3210   49.4670 O   0  0  0  0  0  0  0  0  0  0  0  0
   32.0780   27.6770   50.2140 H   0  0  0  0  0  0  0  0  0  0  0  0
  1  2  1  0  0  0  0
  2  7  1  0  0  0  0
  2  6  1  0  0  0  0
  2  3  1  0  0  0  0
  3  8  1  0  0  0  0
  3  9  1  0  0  0  0
  4 10  1  6  0  0  0
  4 22  1  0  0  0  0
  4  3  1  0  0  0  0
  5  1  1  0  0  0  0
  5 12  1  0  0  0  0
  5  4  1  0  0  0  0
 11  5  1  0  0  0  0
 13 14  1  0  0  0  0
 13  1  1  0  0  0  0
 14 19  1  0  0  0  0
 15 20  1  0  0  0  0
 15 14  2  0  0  0  0
 16 15  1  0  0  0  0
 17 16  2  0  0  0  0
 17 18  1  0  0  0  0
 18 13  2  0  0  0  0
 21 17  1  0  0  0  0
 23 24  2  0  0  0  0
 24 27  1  0  0  0  0
 24 22  1  0  0  0  0
 25 24  1  0  0  0  0
 26 25  1  0  0  0  0
 27 28  1  0  0  0  0
M  END
>  <minimizedAffinity>
-4.57432365

>  <minimizedRMSD>
5.19621515

$$$$
