
 OpenBabel03272508073D

 33 35  0  0  0  0  0  0  0  0999 V2000
   37.5090   26.3020   34.2460 C   0  0  0  0  0  0  0  0  0  0  0  0
   37.7550   26.7110   32.9650 C   0  0  0  0  0  0  0  0  0  0  0  0
   37.0650   27.8920   32.6630 C   0  0  0  0  0  0  0  0  0  0  0  0
   36.4160   28.1440   33.8110 N   0  0  0  0  0  0  0  0  0  0  0  0
   36.6650   27.2300   34.7370 N   0  0  0  0  0  0  0  0  0  0  0  0
   38.4020   26.1990   32.2520 H   0  0  0  0  0  0  0  0  0  0  0  0
   37.0230   28.4810   31.7790 H   0  0  0  0  0  0  0  0  0  0  0  0
   38.0420   25.1310   34.9120 C   0  0  0  0  0  0  0  0  0  0  0  0
   37.9030   25.0350   36.3150 C   0  0  0  0  0  0  0  0  0  0  0  0
   38.4220   23.9030   36.9430 C   0  0  0  0  0  0  0  0  0  0  0  0
   39.0300   22.9580   36.1700 N   0  0  0  0  0  0  0  0  0  0  0  0
   39.1490   23.0740   34.8300 C   0  0  0  0  0  0  0  0  0  0  0  0
   38.6530   24.1630   34.2100 N   0  0  0  0  0  0  0  0  0  0  0  0
   37.4070   25.8250   36.8780 H   0  0  0  0  0  0  0  0  0  0  0  0
   39.6460   22.2850   34.2640 H   0  0  0  0  0  0  0  0  0  0  0  0
   38.2820   23.7890   38.4220 C   0  0  0  0  0  0  0  0  0  0  0  0
   39.5100   23.3620   38.8730 F   0  0  0  0  0  0  0  0  0  0  0  0
   37.9940   25.0030   39.0210 F   0  0  0  0  0  0  0  0  0  0  0  0
   37.3370   22.8410   38.7880 F   0  0  0  0  0  0  0  0  0  0  0  0
   35.5190   29.2680   34.1170 C   0  0  0  0  0  0  0  0  0  0  0  0
   34.2830   29.4290   33.4760 C   0  0  0  0  0  0  0  0  0  0  0  0
   33.5060   30.4740   33.7970 C   0  0  0  0  0  0  0  0  0  0  0  0
   33.9350   31.4110   34.7810 C   0  0  0  0  0  0  0  0  0  0  0  0
   35.5880   30.6880   35.2490 S   0  0  0  0  0  0  0  0  0  0  0  0
   33.9280   28.7350   32.7250 H   0  0  0  0  0  0  0  0  0  0  0  0
   32.5390   30.7560   33.4130 H   0  0  0  0  0  0  0  0  0  0  0  0
   33.4820   32.4990   35.3350 O   0  0  0  0  0  0  0  0  0  0  0  0
   31.9610   33.6550   37.1170 O   0  0  0  0  0  0  0  0  0  0  0  0
   33.0230   32.5650   36.9580 P   0  0  0  0  0  0  0  0  0  0  0  0
   34.3700   33.1340   37.8370 O   0  0  0  0  0  0  0  0  0  0  0  0
   34.8420   33.8260   37.3060 H   0  0  0  0  0  0  0  0  0  0  0  0
   32.4680   31.1190   37.5810 O   0  0  0  0  0  0  0  0  0  0  0  0
   33.1770   30.6040   38.0190 H   0  0  0  0  0  0  0  0  0  0  0  0
  1  5  2  0  0  0  0
  1  8  1  0  0  0  0
  2  1  1  0  0  0  0
  3  2  2  0  0  0  0
  3  4  1  0  0  0  0
  4 20  1  0  0  0  0
  4  5  1  0  0  0  0
  6  2  1  0  0  0  0
  7  3  1  0  0  0  0
  8  9  1  0  0  0  0
  9 14  1  0  0  0  0
  9 10  2  0  0  0  0
 10 16  1  0  0  0  0
 11 10  1  0  0  0  0
 12 11  2  0  0  0  0
 13 12  1  0  0  0  0
 13  8  2  0  0  0  0
 15 12  1  0  0  0  0
 16 19  1  0  0  0  0
 16 17  1  0  0  0  0
 16 18  1  0  0  0  0
 20 24  1  0  0  0  0
 21 22  1  0  0  0  0
 21 20  2  0  0  0  0
 22 23  2  0  0  0  0
 23 24  1  0  0  0  0
 23 27  1  0  0  0  0
 25 21  1  0  0  0  0
 26 22  1  0  0  0  0
 27 29  1  0  0  0  0
 29 28  2  0  0  0  0
 29 32  1  0  0  0  0
 29 30  1  0  0  0  0
 31 30  1  0  0  0  0
 32 33  1  0  0  0  0
M  END
>  <minimizedAffinity>
-6.2584672

$$$$

 OpenBabel03272508073D

 33 35  0  0  0  0  0  0  0  0999 V2000
   37.9570   25.8330   33.9520 C   0  0  0  0  0  0  0  0  0  0  0  0
   38.5760   26.2260   32.7980 C   0  0  0  0  0  0  0  0  0  0  0  0
   38.0010   27.3920   32.2790 C   0  0  0  0  0  0  0  0  0  0  0  0
   37.0320   27.6530   33.1720 N   0  0  0  0  0  0  0  0  0  0  0  0
   36.9960   26.7570   34.1470 N   0  0  0  0  0  0  0  0  0  0  0  0
   39.4140   25.7110   32.3240 H   0  0  0  0  0  0  0  0  0  0  0  0
   38.2230   27.9660   31.4130 H   0  0  0  0  0  0  0  0  0  0  0  0
   38.2730   24.6800   34.7700 C   0  0  0  0  0  0  0  0  0  0  0  0
   38.1060   24.7830   36.1700 C   0  0  0  0  0  0  0  0  0  0  0  0
   38.4150   23.6660   36.9450 C   0  0  0  0  0  0  0  0  0  0  0  0
   38.8570   22.5430   36.3110 N   0  0  0  0  0  0  0  0  0  0  0  0
   39.0090   22.4700   34.9710 C   0  0  0  0  0  0  0  0  0  0  0  0
   38.7150   23.5430   34.2090 N   0  0  0  0  0  0  0  0  0  0  0  0
   37.7480   25.7100   36.6180 H   0  0  0  0  0  0  0  0  0  0  0  0
   39.3670   21.5440   34.5200 H   0  0  0  0  0  0  0  0  0  0  0  0
   38.2420   23.7620   38.4220 C   0  0  0  0  0  0  0  0  0  0  0  0
   39.4620   23.4130   38.9550 F   0  0  0  0  0  0  0  0  0  0  0  0
   37.9340   25.0450   38.8360 F   0  0  0  0  0  0  0  0  0  0  0  0
   37.2930   22.8670   38.8980 F   0  0  0  0  0  0  0  0  0  0  0  0
   36.0750   28.7700   33.1710 C   0  0  0  0  0  0  0  0  0  0  0  0
   35.5870   29.3320   34.3590 C   0  0  0  0  0  0  0  0  0  0  0  0
   34.7160   30.3500   34.2950 C   0  0  0  0  0  0  0  0  0  0  0  0
   34.2920   30.8540   33.0320 C   0  0  0  0  0  0  0  0  0  0  0  0
   35.2490   29.7440   31.8790 S   0  0  0  0  0  0  0  0  0  0  0  0
   35.8890   28.9720   35.3340 H   0  0  0  0  0  0  0  0  0  0  0  0
   34.2400   30.8980   35.0920 H   0  0  0  0  0  0  0  0  0  0  0  0
   33.4990   31.7850   32.5850 O   0  0  0  0  0  0  0  0  0  0  0  0
   30.9860   32.4340   32.2870 O   0  0  0  0  0  0  0  0  0  0  0  0
   32.0420   31.4360   31.8090 P   0  0  0  0  0  0  0  0  0  0  0  0
   31.5110   29.9240   32.3960 O   0  0  0  0  0  0  0  0  0  0  0  0
   31.7220   29.8520   33.3620 H   0  0  0  0  0  0  0  0  0  0  0  0
   32.1260   31.4350   30.1420 O   0  0  0  0  0  0  0  0  0  0  0  0
   32.2940   30.5410   29.7760 H   0  0  0  0  0  0  0  0  0  0  0  0
  1  5  2  0  0  0  0
  1  8  1  0  0  0  0
  2  1  1  0  0  0  0
  3  2  2  0  0  0  0
  3  4  1  0  0  0  0
  4  5  1  0  0  0  0
  6  2  1  0  0  0  0
  7  3  1  0  0  0  0
  8  9  1  0  0  0  0
  9 14  1  0  0  0  0
  9 10  2  0  0  0  0
 10 16  1  0  0  0  0
 11 10  1  0  0  0  0
 12 11  2  0  0  0  0
 13  8  2  0  0  0  0
 13 12  1  0  0  0  0
 15 12  1  0  0  0  0
 16 18  1  0  0  0  0
 16 19  1  0  0  0  0
 16 17  1  0  0  0  0
 20  4  1  0  0  0  0
 20 21  2  0  0  0  0
 21 25  1  0  0  0  0
 22 21  1  0  0  0  0
 22 26  1  0  0  0  0
 23 22  2  0  0  0  0
 24 23  1  0  0  0  0
 24 20  1  0  0  0  0
 27 23  1  0  0  0  0
 29 28  2  0  0  0  0
 29 30  1  0  0  0  0
 29 27  1  0  0  0  0
 30 31  1  0  0  0  0
 32 29  1  0  0  0  0
 33 32  1  0  0  0  0
M  END
>  <minimizedAffinity>
-6.0576148

$$$$

 OpenBabel03272508073D

 33 35  0  0  0  0  0  0  0  0999 V2000
   35.3820   29.2710   32.1790 C   0  0  0  0  0  0  0  0  0  0  0  0
   36.3780   29.0640   31.2650 C   0  0  0  0  0  0  0  0  0  0  0  0
   37.3650   28.2080   31.7670 C   0  0  0  0  0  0  0  0  0  0  0  0
   36.9030   27.9310   32.9980 N   0  0  0  0  0  0  0  0  0  0  0  0
   35.7540   28.5410   33.2480 N   0  0  0  0  0  0  0  0  0  0  0  0
   36.4180   29.5020   30.2660 H   0  0  0  0  0  0  0  0  0  0  0  0
   38.2650   27.8370   31.3400 H   0  0  0  0  0  0  0  0  0  0  0  0
   34.2000   30.0920   32.0190 C   0  0  0  0  0  0  0  0  0  0  0  0
   33.0430   29.7550   32.7580 C   0  0  0  0  0  0  0  0  0  0  0  0
   31.9120   30.5540   32.5940 C   0  0  0  0  0  0  0  0  0  0  0  0
   31.9870   31.6100   31.7340 N   0  0  0  0  0  0  0  0  0  0  0  0
   33.1040   31.9100   31.0390 C   0  0  0  0  0  0  0  0  0  0  0  0
   34.2050   31.1460   31.1870 N   0  0  0  0  0  0  0  0  0  0  0  0
   33.0460   28.8980   33.4310 H   0  0  0  0  0  0  0  0  0  0  0  0
   33.1040   32.7680   30.3650 H   0  0  0  0  0  0  0  0  0  0  0  0
   30.6860   30.2100   33.3680 C   0  0  0  0  0  0  0  0  0  0  0  0
   30.7730   28.8570   33.6070 F   0  0  0  0  0  0  0  0  0  0  0  0
   30.6280   30.8660   34.5840 F   0  0  0  0  0  0  0  0  0  0  0  0
   29.5250   30.4440   32.6440 F   0  0  0  0  0  0  0  0  0  0  0  0
   37.5100   27.0690   34.0220 C   0  0  0  0  0  0  0  0  0  0  0  0
   37.8450   27.5490   35.2960 C   0  0  0  0  0  0  0  0  0  0  0  0
   38.3960   26.7140   36.1900 C   0  0  0  0  0  0  0  0  0  0  0  0
   38.6390   25.3530   35.8450 C   0  0  0  0  0  0  0  0  0  0  0  0
   38.0080   25.3230   34.0910 S   0  0  0  0  0  0  0  0  0  0  0  0
   37.6730   28.5770   35.5890 H   0  0  0  0  0  0  0  0  0  0  0  0
   38.7150   26.9040   37.2020 H   0  0  0  0  0  0  0  0  0  0  0  0
   39.1330   24.2910   36.4140 O   0  0  0  0  0  0  0  0  0  0  0  0
   37.9070   24.5230   38.7090 O   0  0  0  0  0  0  0  0  0  0  0  0
   38.3460   23.4880   37.6710 P   0  0  0  0  0  0  0  0  0  0  0  0
   39.5170   22.5370   38.4700 O   0  0  0  0  0  0  0  0  0  0  0  0
   40.3760   23.0310   38.5020 H   0  0  0  0  0  0  0  0  0  0  0  0
   37.0440   22.5580   37.1940 O   0  0  0  0  0  0  0  0  0  0  0  0
   37.2920   21.6230   37.0310 H   0  0  0  0  0  0  0  0  0  0  0  0
  1  5  2  0  0  0  0
  2  3  2  0  0  0  0
  2  1  1  0  0  0  0
  3  4  1  0  0  0  0
  4  5  1  0  0  0  0
  4 20  1  0  0  0  0
  6  2  1  0  0  0  0
  7  3  1  0  0  0  0
  8  1  1  0  0  0  0
  8  9  1  0  0  0  0
  9 14  1  0  0  0  0
 10  9  2  0  0  0  0
 10 16  1  0  0  0  0
 11 10  1  0  0  0  0
 12 13  1  0  0  0  0
 12 11  2  0  0  0  0
 13  8  2  0  0  0  0
 15 12  1  0  0  0  0
 16 17  1  0  0  0  0
 16 18  1  0  0  0  0
 19 16  1  0  0  0  0
 20 24  1  0  0  0  0
 20 21  2  0  0  0  0
 21 25  1  0  0  0  0
 21 22  1  0  0  0  0
 22 26  1  0  0  0  0
 23 22  2  0  0  0  0
 23 27  1  0  0  0  0
 24 23  1  0  0  0  0
 27 29  1  0  0  0  0
 29 30  1  0  0  0  0
 29 28  2  0  0  0  0
 30 31  1  0  0  0  0
 32 29  1  0  0  0  0
 33 32  1  0  0  0  0
M  END
>  <minimizedAffinity>
-6.04828835

$$$$

 OpenBabel03272508073D

 33 35  0  0  0  0  0  0  0  0999 V2000
   35.3020   29.8850   33.6070 C   0  0  0  0  0  0  0  0  0  0  0  0
   35.5790   29.5040   32.3240 C   0  0  0  0  0  0  0  0  0  0  0  0
   36.3530   28.3380   32.2900 C   0  0  0  0  0  0  0  0  0  0  0  0
   36.5120   28.0640   33.5950 N   0  0  0  0  0  0  0  0  0  0  0  0
   35.9070   28.9530   34.3690 N   0  0  0  0  0  0  0  0  0  0  0  0
   35.2480   30.0280   31.4250 H   0  0  0  0  0  0  0  0  0  0  0  0
   36.7450   27.7710   31.4800 H   0  0  0  0  0  0  0  0  0  0  0  0
   34.5320   31.0330   34.0360 C   0  0  0  0  0  0  0  0  0  0  0  0
   34.1050   31.0910   35.3830 C   0  0  0  0  0  0  0  0  0  0  0  0
   33.3630   32.2030   35.7820 C   0  0  0  0  0  0  0  0  0  0  0  0
   33.0950   33.1660   34.8550 N   0  0  0  0  0  0  0  0  0  0  0  0
   33.5140   33.0870   33.5740 C   0  0  0  0  0  0  0  0  0  0  0  0
   34.2310   32.0180   33.1730 N   0  0  0  0  0  0  0  0  0  0  0  0
   34.3520   30.2890   36.0770 H   0  0  0  0  0  0  0  0  0  0  0  0
   33.2680   33.8890   32.8770 H   0  0  0  0  0  0  0  0  0  0  0  0
   32.9080   32.2760   37.1990 C   0  0  0  0  0  0  0  0  0  0  0  0
   31.6010   32.7020   37.1400 F   0  0  0  0  0  0  0  0  0  0  0  0
   32.9390   31.0450   37.8290 F   0  0  0  0  0  0  0  0  0  0  0  0
   33.6300   33.2060   37.9340 F   0  0  0  0  0  0  0  0  0  0  0  0
   37.2400   26.9410   34.2030 C   0  0  0  0  0  0  0  0  0  0  0  0
   37.4240   25.7240   33.5330 C   0  0  0  0  0  0  0  0  0  0  0  0
   38.0990   24.7350   34.1380 C   0  0  0  0  0  0  0  0  0  0  0  0
   38.6230   24.9220   35.4500 C   0  0  0  0  0  0  0  0  0  0  0  0
   38.0760   26.6710   35.7940 S   0  0  0  0  0  0  0  0  0  0  0  0
   37.0400   25.5500   32.5360 H   0  0  0  0  0  0  0  0  0  0  0  0
   38.3340   23.7450   33.7820 H   0  0  0  0  0  0  0  0  0  0  0  0
   39.2990   24.2320   36.3230 O   0  0  0  0  0  0  0  0  0  0  0  0
   38.1560   24.3900   38.6660 O   0  0  0  0  0  0  0  0  0  0  0  0
   38.5570   23.3890   37.5820 P   0  0  0  0  0  0  0  0  0  0  0  0
   39.7560   22.4150   38.3070 O   0  0  0  0  0  0  0  0  0  0  0  0
   40.6160   22.9080   38.3250 H   0  0  0  0  0  0  0  0  0  0  0  0
   37.2390   22.4730   37.1220 O   0  0  0  0  0  0  0  0  0  0  0  0
   37.4810   21.5440   36.9210 H   0  0  0  0  0  0  0  0  0  0  0  0
  1  8  1  0  0  0  0
  1  5  2  0  0  0  0
  2  1  1  0  0  0  0
  3  2  2  0  0  0  0
  3  4  1  0  0  0  0
  4 20  1  0  0  0  0
  4  5  1  0  0  0  0
  6  2  1  0  0  0  0
  7  3  1  0  0  0  0
  8  9  1  0  0  0  0
  9 10  2  0  0  0  0
  9 14  1  0  0  0  0
 10 16  1  0  0  0  0
 11 10  1  0  0  0  0
 12 11  2  0  0  0  0
 13 12  1  0  0  0  0
 13  8  2  0  0  0  0
 15 12  1  0  0  0  0
 16 18  1  0  0  0  0
 16 19  1  0  0  0  0
 17 16  1  0  0  0  0
 20 24  1  0  0  0  0
 21 22  1  0  0  0  0
 21 20  2  0  0  0  0
 22 23  2  0  0  0  0
 23 24  1  0  0  0  0
 23 27  1  0  0  0  0
 25 21  1  0  0  0  0
 26 22  1  0  0  0  0
 27 29  1  0  0  0  0
 29 30  1  0  0  0  0
 29 28  2  0  0  0  0
 30 31  1  0  0  0  0
 32 29  1  0  0  0  0
 33 32  1  0  0  0  0
M  END
>  <minimizedAffinity>
-5.93995428

$$$$

 OpenBabel03272508073D

 33 35  0  0  0  0  0  0  0  0999 V2000
   37.3120   26.5570   34.3050 C   0  0  0  0  0  0  0  0  0  0  0  0
   37.2300   26.8970   32.9830 C   0  0  0  0  0  0  0  0  0  0  0  0
   36.6030   28.1360   32.8100 C   0  0  0  0  0  0  0  0  0  0  0  0
   36.3270   28.4950   34.0750 N   0  0  0  0  0  0  0  0  0  0  0  0
   36.7330   27.5880   34.9510 N   0  0  0  0  0  0  0  0  0  0  0  0
   37.6000   26.2940   32.1520 H   0  0  0  0  0  0  0  0  0  0  0  0
   36.3750   28.6990   31.9380 H   0  0  0  0  0  0  0  0  0  0  0  0
   37.8920   25.3560   34.8690 C   0  0  0  0  0  0  0  0  0  0  0  0
   37.8220   25.1680   36.2680 C   0  0  0  0  0  0  0  0  0  0  0  0
   38.3850   24.0080   36.7970 C   0  0  0  0  0  0  0  0  0  0  0  0
   38.9680   23.1230   35.9380 N   0  0  0  0  0  0  0  0  0  0  0  0
   39.0220   23.3260   34.6040 C   0  0  0  0  0  0  0  0  0  0  0  0
   38.4820   24.4440   34.0790 N   0  0  0  0  0  0  0  0  0  0  0  0
   37.3420   25.9130   36.9030 H   0  0  0  0  0  0  0  0  0  0  0  0
   39.5020   22.5820   33.9670 H   0  0  0  0  0  0  0  0  0  0  0  0
   38.3170   23.7980   38.2710 C   0  0  0  0  0  0  0  0  0  0  0  0
   38.0150   25.0320   38.8010 F   0  0  0  0  0  0  0  0  0  0  0  0
   37.3200   22.9100   38.6330 F   0  0  0  0  0  0  0  0  0  0  0  0
   39.5340   23.3890   38.8000 F   0  0  0  0  0  0  0  0  0  0  0  0
   35.6660   29.7200   34.5470 C   0  0  0  0  0  0  0  0  0  0  0  0
   36.2400   30.5470   35.5220 C   0  0  0  0  0  0  0  0  0  0  0  0
   35.5900   31.6540   35.9120 C   0  0  0  0  0  0  0  0  0  0  0  0
   34.3280   31.9840   35.3400 C   0  0  0  0  0  0  0  0  0  0  0  0
   34.1040   30.5620   34.1550 S   0  0  0  0  0  0  0  0  0  0  0  0
   37.1980   30.3260   35.9760 H   0  0  0  0  0  0  0  0  0  0  0  0
   35.8740   32.3970   36.6390 H   0  0  0  0  0  0  0  0  0  0  0  0
   33.4370   32.9260   35.4540 O   0  0  0  0  0  0  0  0  0  0  0  0
   33.6210   33.8030   37.9080 O   0  0  0  0  0  0  0  0  0  0  0  0
   33.6610   34.2690   36.4510 P   0  0  0  0  0  0  0  0  0  0  0  0
   32.2850   35.2620   36.2710 O   0  0  0  0  0  0  0  0  0  0  0  0
   31.4780   34.6940   36.1820 H   0  0  0  0  0  0  0  0  0  0  0  0
   35.0630   35.1260   36.1550 O   0  0  0  0  0  0  0  0  0  0  0  0
   34.9210   35.8720   35.5350 H   0  0  0  0  0  0  0  0  0  0  0  0
  1  8  1  0  0  0  0
  1  5  2  0  0  0  0
  2  1  1  0  0  0  0
  3  2  2  0  0  0  0
  3  4  1  0  0  0  0
  4 20  1  0  0  0  0
  4  5  1  0  0  0  0
  6  2  1  0  0  0  0
  7  3  1  0  0  0  0
  8  9  1  0  0  0  0
  9 10  2  0  0  0  0
  9 14  1  0  0  0  0
 10 16  1  0  0  0  0
 11 10  1  0  0  0  0
 12 11  2  0  0  0  0
 13 12  1  0  0  0  0
 13  8  2  0  0  0  0
 15 12  1  0  0  0  0
 16 18  1  0  0  0  0
 16 19  1  0  0  0  0
 16 17  1  0  0  0  0
 20 21  2  0  0  0  0
 21 22  1  0  0  0  0
 21 25  1  0  0  0  0
 22 26  1  0  0  0  0
 23 27  1  0  0  0  0
 23 22  2  0  0  0  0
 24 20  1  0  0  0  0
 24 23  1  0  0  0  0
 27 29  1  0  0  0  0
 29 28  2  0  0  0  0
 30 29  1  0  0  0  0
 31 30  1  0  0  0  0
 32 29  1  0  0  0  0
 33 32  1  0  0  0  0
M  END
>  <minimizedAffinity>
-5.76446962

$$$$

 OpenBabel03272508073D

 33 35  0  0  0  0  0  0  0  0999 V2000
   35.6050   28.9650   33.7720 C   0  0  0  0  0  0  0  0  0  0  0  0
   35.7740   28.5630   32.4760 C   0  0  0  0  0  0  0  0  0  0  0  0
   36.6850   27.5050   32.3820 C   0  0  0  0  0  0  0  0  0  0  0  0
   37.0340   27.3140   33.6660 N   0  0  0  0  0  0  0  0  0  0  0  0
   36.4140   28.1540   34.4810 N   0  0  0  0  0  0  0  0  0  0  0  0
   35.2720   28.9990   31.6100 H   0  0  0  0  0  0  0  0  0  0  0  0
   37.0480   26.9550   31.5480 H   0  0  0  0  0  0  0  0  0  0  0  0
   34.7470   30.0250   34.2590 C   0  0  0  0  0  0  0  0  0  0  0  0
   35.3360   31.0890   34.9800 C   0  0  0  0  0  0  0  0  0  0  0  0
   34.4980   32.1020   35.4430 C   0  0  0  0  0  0  0  0  0  0  0  0
   33.1640   32.0100   35.1740 N   0  0  0  0  0  0  0  0  0  0  0  0
   32.6260   30.9830   34.4830 C   0  0  0  0  0  0  0  0  0  0  0  0
   33.4240   29.9950   34.0290 N   0  0  0  0  0  0  0  0  0  0  0  0
   36.4100   31.1060   35.1630 H   0  0  0  0  0  0  0  0  0  0  0  0
   31.5510   30.9630   34.2980 H   0  0  0  0  0  0  0  0  0  0  0  0
   35.1060   33.2300   36.2040 C   0  0  0  0  0  0  0  0  0  0  0  0
   36.4660   33.0840   36.0480 F   0  0  0  0  0  0  0  0  0  0  0  0
   34.7390   34.4650   35.7020 F   0  0  0  0  0  0  0  0  0  0  0  0
   34.8200   33.1630   37.5610 F   0  0  0  0  0  0  0  0  0  0  0  0
   37.9710   26.3220   34.2120 C   0  0  0  0  0  0  0  0  0  0  0  0
   38.8370   25.5860   33.3910 C   0  0  0  0  0  0  0  0  0  0  0  0
   39.6720   24.6950   33.9470 C   0  0  0  0  0  0  0  0  0  0  0  0
   39.6770   24.5010   35.3580 C   0  0  0  0  0  0  0  0  0  0  0  0
   38.3630   25.7160   35.8800 S   0  0  0  0  0  0  0  0  0  0  0  0
   38.8580   25.7100   32.3160 H   0  0  0  0  0  0  0  0  0  0  0  0
   40.3970   24.0480   33.4800 H   0  0  0  0  0  0  0  0  0  0  0  0
   40.3120   23.7650   36.2260 O   0  0  0  0  0  0  0  0  0  0  0  0
   39.0570   23.3840   38.4850 O   0  0  0  0  0  0  0  0  0  0  0  0
   39.5210   22.6560   37.2230 P   0  0  0  0  0  0  0  0  0  0  0  0
   40.6960   21.5440   37.7650 O   0  0  0  0  0  0  0  0  0  0  0  0
   41.5480   22.0210   37.9350 H   0  0  0  0  0  0  0  0  0  0  0  0
   38.2370   21.8690   36.5030 O   0  0  0  0  0  0  0  0  0  0  0  0
   38.4990   21.0110   36.1080 H   0  0  0  0  0  0  0  0  0  0  0  0
  1  8  1  0  0  0  0
  1  5  2  0  0  0  0
  2  1  1  0  0  0  0
  3  2  2  0  0  0  0
  3  4  1  0  0  0  0
  4 20  1  0  0  0  0
  4  5  1  0  0  0  0
  6  2  1  0  0  0  0
  7  3  1  0  0  0  0
  8  9  1  0  0  0  0
  9 14  1  0  0  0  0
  9 10  2  0  0  0  0
 10 16  1  0  0  0  0
 11 10  1  0  0  0  0
 12 11  2  0  0  0  0
 13  8  2  0  0  0  0
 13 12  1  0  0  0  0
 15 12  1  0  0  0  0
 16 19  1  0  0  0  0
 17 16  1  0  0  0  0
 18 16  1  0  0  0  0
 20 24  1  0  0  0  0
 21 22  1  0  0  0  0
 21 20  2  0  0  0  0
 22 23  2  0  0  0  0
 23 24  1  0  0  0  0
 23 27  1  0  0  0  0
 25 21  1  0  0  0  0
 26 22  1  0  0  0  0
 27 29  1  0  0  0  0
 29 30  1  0  0  0  0
 29 28  2  0  0  0  0
 30 31  1  0  0  0  0
 32 29  1  0  0  0  0
 33 32  1  0  0  0  0
M  END
>  <minimizedAffinity>
-5.65880585

$$$$

 OpenBabel03272508073D

 33 35  0  0  0  0  0  0  0  0999 V2000
   35.7640   28.9020   33.6580 C   0  0  0  0  0  0  0  0  0  0  0  0
   36.2930   28.7990   32.4020 C   0  0  0  0  0  0  0  0  0  0  0  0
   37.3660   27.9010   32.3690 C   0  0  0  0  0  0  0  0  0  0  0  0
   37.4360   27.4940   33.6470 N   0  0  0  0  0  0  0  0  0  0  0  0
   36.5130   28.0670   34.4050 N   0  0  0  0  0  0  0  0  0  0  0  0
   35.9390   29.3390   31.5220 H   0  0  0  0  0  0  0  0  0  0  0  0
   38.0000   27.5830   31.5770 H   0  0  0  0  0  0  0  0  0  0  0  0
   34.6510   29.7280   34.0780 C   0  0  0  0  0  0  0  0  0  0  0  0
   33.3670   29.4370   33.5630 C   0  0  0  0  0  0  0  0  0  0  0  0
   32.3050   30.2410   33.9750 C   0  0  0  0  0  0  0  0  0  0  0  0
   32.5640   31.2560   34.8490 N   0  0  0  0  0  0  0  0  0  0  0  0
   33.8000   31.5130   35.3260 C   0  0  0  0  0  0  0  0  0  0  0  0
   34.8370   30.7440   34.9360 N   0  0  0  0  0  0  0  0  0  0  0  0
   33.2240   28.6110   32.8670 H   0  0  0  0  0  0  0  0  0  0  0  0
   33.9460   32.3390   36.0230 H   0  0  0  0  0  0  0  0  0  0  0  0
   30.9460   29.9440   33.4400 C   0  0  0  0  0  0  0  0  0  0  0  0
   30.9930   28.6310   33.0320 F   0  0  0  0  0  0  0  0  0  0  0  0
   29.9600   30.0690   34.4020 F   0  0  0  0  0  0  0  0  0  0  0  0
   30.6350   30.7260   32.3360 F   0  0  0  0  0  0  0  0  0  0  0  0
   38.3760   26.5320   34.2430 C   0  0  0  0  0  0  0  0  0  0  0  0
   39.7150   26.8600   34.4930 C   0  0  0  0  0  0  0  0  0  0  0  0
   40.5260   25.9410   35.0390 C   0  0  0  0  0  0  0  0  0  0  0  0
   40.0280   24.6460   35.3600 C   0  0  0  0  0  0  0  0  0  0  0  0
   38.2530   24.8130   34.8160 S   0  0  0  0  0  0  0  0  0  0  0  0
   40.1240   27.8350   34.2620 H   0  0  0  0  0  0  0  0  0  0  0  0
   41.5700   26.0130   35.2980 H   0  0  0  0  0  0  0  0  0  0  0  0
   40.4850   23.5400   35.8750 O   0  0  0  0  0  0  0  0  0  0  0  0
   39.0290   23.5520   38.0440 O   0  0  0  0  0  0  0  0  0  0  0  0
   39.5960   22.6180   36.9740 P   0  0  0  0  0  0  0  0  0  0  0  0
   40.7050   21.6220   37.8050 O   0  0  0  0  0  0  0  0  0  0  0  0
   41.5440   22.1260   37.9660 H   0  0  0  0  0  0  0  0  0  0  0  0
   38.3730   21.7120   36.2890 O   0  0  0  0  0  0  0  0  0  0  0  0
   38.6600   20.7990   36.0740 H   0  0  0  0  0  0  0  0  0  0  0  0
  1  8  1  0  0  0  0
  1  5  2  0  0  0  0
  2  1  1  0  0  0  0
  3  2  2  0  0  0  0
  3  4  1  0  0  0  0
  4 20  1  0  0  0  0
  4  5  1  0  0  0  0
  6  2  1  0  0  0  0
  7  3  1  0  0  0  0
  8 13  1  0  0  0  0
  9 10  1  0  0  0  0
  9  8  2  0  0  0  0
 10 11  2  0  0  0  0
 11 12  1  0  0  0  0
 12 15  1  0  0  0  0
 13 12  2  0  0  0  0
 14  9  1  0  0  0  0
 16 10  1  0  0  0  0
 16 18  1  0  0  0  0
 17 16  1  0  0  0  0
 19 16  1  0  0  0  0
 20 21  2  0  0  0  0
 20 24  1  0  0  0  0
 21 22  1  0  0  0  0
 22 26  1  0  0  0  0
 22 23  2  0  0  0  0
 23 27  1  0  0  0  0
 24 23  1  0  0  0  0
 25 21  1  0  0  0  0
 27 29  1  0  0  0  0
 29 30  1  0  0  0  0
 29 28  2  0  0  0  0
 30 31  1  0  0  0  0
 32 29  1  0  0  0  0
 33 32  1  0  0  0  0
M  END
>  <minimizedAffinity>
-5.64927864

$$$$

 OpenBabel03272508073D

 33 35  0  0  0  0  0  0  0  0999 V2000
   35.2940   29.2110   33.5090 C   0  0  0  0  0  0  0  0  0  0  0  0
   35.5560   28.7990   32.2320 C   0  0  0  0  0  0  0  0  0  0  0  0
   36.5360   27.8000   32.2060 C   0  0  0  0  0  0  0  0  0  0  0  0
   36.8270   27.6530   33.5100 N   0  0  0  0  0  0  0  0  0  0  0  0
   36.1140   28.4650   34.2750 N   0  0  0  0  0  0  0  0  0  0  0  0
   35.0750   29.1870   31.3320 H   0  0  0  0  0  0  0  0  0  0  0  0
   36.9760   27.2600   31.4030 H   0  0  0  0  0  0  0  0  0  0  0  0
   34.3470   30.2230   33.9280 C   0  0  0  0  0  0  0  0  0  0  0  0
   34.4440   30.7300   35.2440 C   0  0  0  0  0  0  0  0  0  0  0  0
   33.5250   31.7030   35.6350 C   0  0  0  0  0  0  0  0  0  0  0  0
   32.5890   32.1080   34.7290 N   0  0  0  0  0  0  0  0  0  0  0  0
   32.5170   31.6060   33.4770 C   0  0  0  0  0  0  0  0  0  0  0  0
   33.3990   30.6650   33.0860 N   0  0  0  0  0  0  0  0  0  0  0  0
   35.2160   30.3660   35.9220 H   0  0  0  0  0  0  0  0  0  0  0  0
   31.7460   31.9700   32.7960 H   0  0  0  0  0  0  0  0  0  0  0  0
   33.6180   32.2470   37.0190 C   0  0  0  0  0  0  0  0  0  0  0  0
   32.9160   31.3630   37.8060 F   0  0  0  0  0  0  0  0  0  0  0  0
   34.9210   32.3030   37.4790 F   0  0  0  0  0  0  0  0  0  0  0  0
   33.0180   33.4950   37.1340 F   0  0  0  0  0  0  0  0  0  0  0  0
   37.7950   26.7330   34.1240 C   0  0  0  0  0  0  0  0  0  0  0  0
   38.8080   27.1830   34.9820 C   0  0  0  0  0  0  0  0  0  0  0  0
   39.6620   26.2960   35.5140 C   0  0  0  0  0  0  0  0  0  0  0  0
   39.5390   24.9100   35.2090 C   0  0  0  0  0  0  0  0  0  0  0  0
   38.0670   24.9370   34.0660 S   0  0  0  0  0  0  0  0  0  0  0  0
   38.9280   28.2290   35.2340 H   0  0  0  0  0  0  0  0  0  0  0  0
   40.4920   26.4570   36.1830 H   0  0  0  0  0  0  0  0  0  0  0  0
   40.1470   23.8000   35.5160 O   0  0  0  0  0  0  0  0  0  0  0  0
   40.6950   21.7770   37.0750 O   0  0  0  0  0  0  0  0  0  0  0  0
   39.5780   22.7570   36.7140 P   0  0  0  0  0  0  0  0  0  0  0  0
   38.3620   21.7940   36.0030 O   0  0  0  0  0  0  0  0  0  0  0  0
   38.6190   21.5730   35.0710 H   0  0  0  0  0  0  0  0  0  0  0  0
   39.0110   23.5210   38.0860 O   0  0  0  0  0  0  0  0  0  0  0  0
   38.0430   23.6770   38.0550 H   0  0  0  0  0  0  0  0  0  0  0  0
  1  8  1  0  0  0  0
  1  5  2  0  0  0  0
  2  1  1  0  0  0  0
  3  2  2  0  0  0  0
  3  4  1  0  0  0  0
  4 20  1  0  0  0  0
  4  5  1  0  0  0  0
  6  2  1  0  0  0  0
  7  3  1  0  0  0  0
  8  9  1  0  0  0  0
  9 10  2  0  0  0  0
  9 14  1  0  0  0  0
 10 16  1  0  0  0  0
 11 10  1  0  0  0  0
 12 11  2  0  0  0  0
 13 12  1  0  0  0  0
 13  8  2  0  0  0  0
 15 12  1  0  0  0  0
 16 19  1  0  0  0  0
 16 18  1  0  0  0  0
 16 17  1  0  0  0  0
 20 21  2  0  0  0  0
 21 25  1  0  0  0  0
 21 22  1  0  0  0  0
 22 26  1  0  0  0  0
 23 22  2  0  0  0  0
 23 27  1  0  0  0  0
 24 20  1  0  0  0  0
 24 23  1  0  0  0  0
 27 29  1  0  0  0  0
 29 28  2  0  0  0  0
 29 32  1  0  0  0  0
 30 29  1  0  0  0  0
 31 30  1  0  0  0  0
 33 32  1  0  0  0  0
M  END
>  <minimizedAffinity>
-5.56759644

$$$$

 OpenBabel03272508073D

 33 35  0  0  0  0  0  0  0  0999 V2000
   38.1200   25.1490   34.7120 C   0  0  0  0  0  0  0  0  0  0  0  0
   38.4230   24.8400   33.4160 C   0  0  0  0  0  0  0  0  0  0  0  0
   37.8750   25.7710   32.5250 C   0  0  0  0  0  0  0  0  0  0  0  0
   37.2490   26.6230   33.3540 N   0  0  0  0  0  0  0  0  0  0  0  0
   37.3830   26.2730   34.6240 N   0  0  0  0  0  0  0  0  0  0  0  0
   39.0140   23.9810   33.0930 H   0  0  0  0  0  0  0  0  0  0  0  0
   37.9090   25.8420   31.4650 H   0  0  0  0  0  0  0  0  0  0  0  0
   38.5100   24.4220   35.9030 C   0  0  0  0  0  0  0  0  0  0  0  0
   39.6870   23.6410   35.8580 C   0  0  0  0  0  0  0  0  0  0  0  0
   40.0500   22.9450   37.0110 C   0  0  0  0  0  0  0  0  0  0  0  0
   39.2520   23.0600   38.1110 N   0  0  0  0  0  0  0  0  0  0  0  0
   38.1310   23.8130   38.1280 C   0  0  0  0  0  0  0  0  0  0  0  0
   37.7680   24.4900   37.0200 N   0  0  0  0  0  0  0  0  0  0  0  0
   40.2830   23.5900   34.9470 H   0  0  0  0  0  0  0  0  0  0  0  0
   37.5330   23.8660   39.0380 H   0  0  0  0  0  0  0  0  0  0  0  0
   41.2890   22.1190   36.9770 C   0  0  0  0  0  0  0  0  0  0  0  0
   42.3290   23.0190   37.0290 F   0  0  0  0  0  0  0  0  0  0  0  0
   41.3890   21.2720   38.0660 F   0  0  0  0  0  0  0  0  0  0  0  0
   41.4050   21.3950   35.7980 F   0  0  0  0  0  0  0  0  0  0  0  0
   36.4840   27.8290   33.0050 C   0  0  0  0  0  0  0  0  0  0  0  0
   36.4220   28.3160   31.6920 C   0  0  0  0  0  0  0  0  0  0  0  0
   35.7060   29.4210   31.4330 C   0  0  0  0  0  0  0  0  0  0  0  0
   35.0170   30.0920   32.4840 C   0  0  0  0  0  0  0  0  0  0  0  0
   35.4640   29.0100   33.9360 S   0  0  0  0  0  0  0  0  0  0  0  0
   36.9330   27.8300   30.8710 H   0  0  0  0  0  0  0  0  0  0  0  0
   35.5480   29.9340   30.4990 H   0  0  0  0  0  0  0  0  0  0  0  0
   34.2580   31.1410   32.6210 O   0  0  0  0  0  0  0  0  0  0  0  0
   32.5410   31.5300   30.6910 O   0  0  0  0  0  0  0  0  0  0  0  0
   32.6320   31.1460   32.1680 P   0  0  0  0  0  0  0  0  0  0  0  0
   31.8850   32.4350   33.0020 O   0  0  0  0  0  0  0  0  0  0  0  0
   32.5090   33.2030   33.0490 H   0  0  0  0  0  0  0  0  0  0  0  0
   31.8300   29.7090   32.4440 O   0  0  0  0  0  0  0  0  0  0  0  0
   31.3730   29.6960   33.3120 H   0  0  0  0  0  0  0  0  0  0  0  0
  1  8  1  0  0  0  0
  2  1  1  0  0  0  0
  3  4  1  0  0  0  0
  3  2  2  0  0  0  0
  4  5  1  0  0  0  0
  5  1  2  0  0  0  0
  6  2  1  0  0  0  0
  7  3  1  0  0  0  0
  8 13  1  0  0  0  0
  9  8  2  0  0  0  0
  9 10  1  0  0  0  0
 10 11  2  0  0  0  0
 11 12  1  0  0  0  0
 12 15  1  0  0  0  0
 13 12  2  0  0  0  0
 14  9  1  0  0  0  0
 16 10  1  0  0  0  0
 16 17  1  0  0  0  0
 16 18  1  0  0  0  0
 19 16  1  0  0  0  0
 20  4  1  0  0  0  0
 20 24  1  0  0  0  0
 21 20  2  0  0  0  0
 22 21  1  0  0  0  0
 22 23  2  0  0  0  0
 23 27  1  0  0  0  0
 23 24  1  0  0  0  0
 25 21  1  0  0  0  0
 26 22  1  0  0  0  0
 28 29  2  0  0  0  0
 29 32  1  0  0  0  0
 29 27  1  0  0  0  0
 29 30  1  0  0  0  0
 30 31  1  0  0  0  0
 32 33  1  0  0  0  0
M  END
>  <minimizedAffinity>
-5.5234499

$$$$
