
 OpenBabel03272510313D

 26 27  0  0  0  0  0  0  0  0999 V2000
   36.6250   21.1960   33.2680 C   0  0  0  0  0  0  0  0  0  0  0  0
   35.6140   20.5210   33.9600 C   0  0  0  0  0  0  0  0  0  0  0  0
   35.6480   20.6550   35.3490 C   0  0  0  0  0  0  0  0  0  0  0  0
   36.6330   21.4090   35.9340 N   0  0  0  0  0  0  0  0  0  0  0  0
   37.5880   22.0410   35.2090 C   0  0  0  0  0  0  0  0  0  0  0  0
   37.5890   21.9330   33.8400 N   0  0  0  0  0  0  0  0  0  0  0  0
   34.8700   19.9460   33.4470 H   0  0  0  0  0  0  0  0  0  0  0  0
   34.9010   20.1640   35.9570 H   0  0  0  0  0  0  0  0  0  0  0  0
   36.5990   21.1020   31.7720 C   0  0  0  0  0  0  0  0  0  0  0  0
   35.4000   20.7940   31.0280 C   0  0  0  0  0  0  0  0  0  0  0  0
   35.8200   22.2500   31.1110 C   0  0  0  0  0  0  0  0  0  0  0  0
   37.6290   20.9400   31.3360 H   0  0  0  0  0  0  0  0  0  0  0  0
   34.4410   20.5670   31.5370 H   0  0  0  0  0  0  0  0  0  0  0  0
   35.4750   20.2820   30.0490 H   0  0  0  0  0  0  0  0  0  0  0  0
   36.2750   22.6570   30.1870 H   0  0  0  0  0  0  0  0  0  0  0  0
   35.2420   22.9370   31.7500 H   0  0  0  0  0  0  0  0  0  0  0  0
   38.6250   22.8580   35.8270 C   0  0  0  0  0  0  0  0  0  0  0  0
   39.3030   22.2820   36.5080 H   0  0  0  0  0  0  0  0  0  0  0  0
   39.2830   23.3000   35.0710 H   0  0  0  0  0  0  0  0  0  0  0  0
   37.9880   23.7830   36.6560 O   0  0  0  0  0  0  0  0  0  0  0  0
   38.1540   24.7480   39.0500 O   0  0  0  0  0  0  0  0  0  0  0  0
   38.2010   23.4450   38.2920 P   0  0  0  0  0  0  0  0  0  0  0  0
   37.0710   22.3340   38.8800 O   0  0  0  0  0  0  0  0  0  0  0  0
   36.1850   22.8130   38.8750 H   0  0  0  0  0  0  0  0  0  0  0  0
   39.7290   22.7320   38.5220 O   0  0  0  0  0  0  0  0  0  0  0  0
   39.7120   21.8300   38.1440 H   0  0  0  0  0  0  0  0  0  0  0  0
  1  6  2  0  0  0  0
  1  2  1  0  0  0  0
  2  3  2  0  0  0  0
  3  4  1  0  0  0  0
  3  8  1  0  0  0  0
  5 17  1  0  0  0  0
  5  4  2  0  0  0  0
  6  5  1  0  0  0  0
  7  2  1  0  0  0  0
  9  1  1  0  0  0  0
 10 11  1  0  0  0  0
 10 13  1  0  0  0  0
 10  9  1  0  0  0  0
 11 16  1  0  0  0  0
 11  9  1  0  0  0  0
 12  9  1  0  0  0  0
 14 10  1  0  0  0  0
 15 11  1  0  0  0  0
 17 18  1  0  0  0  0
 17 20  1  0  0  0  0
 19 17  1  0  0  0  0
 20 22  1  0  0  0  0
 22 25  1  0  0  0  0
 22 23  1  0  0  0  0
 22 21  2  0  0  0  0
 24 23  1  0  0  0  0
 26 25  1  0  0  0  0
M  END
>  <minimizedAffinity>
-4.71327019

$$$$

 OpenBabel03272510313D

 26 27  0  0  0  0  0  0  0  0999 V2000
   37.1560   25.8590   32.9800 C   0  0  0  0  0  0  0  0  0  0  0  0
   36.7950   27.1510   33.3760 C   0  0  0  0  0  0  0  0  0  0  0  0
   37.1150   27.4830   34.6940 C   0  0  0  0  0  0  0  0  0  0  0  0
   37.7400   26.5600   35.4940 N   0  0  0  0  0  0  0  0  0  0  0  0
   38.0650   25.3220   35.0520 C   0  0  0  0  0  0  0  0  0  0  0  0
   37.7670   24.9560   33.7620 N   0  0  0  0  0  0  0  0  0  0  0  0
   36.3080   27.8290   32.7060 H   0  0  0  0  0  0  0  0  0  0  0  0
   36.8700   28.4640   35.0780 H   0  0  0  0  0  0  0  0  0  0  0  0
   36.8580   25.4800   31.5600 C   0  0  0  0  0  0  0  0  0  0  0  0
   36.9610   24.1240   31.0740 C   0  0  0  0  0  0  0  0  0  0  0  0
   35.5780   24.6450   31.4160 C   0  0  0  0  0  0  0  0  0  0  0  0
   36.9040   26.3690   30.8620 H   0  0  0  0  0  0  0  0  0  0  0  0
   37.3100   23.2980   31.7250 H   0  0  0  0  0  0  0  0  0  0  0  0
   37.2020   23.9370   30.0100 H   0  0  0  0  0  0  0  0  0  0  0  0
   34.9460   24.8980   30.5420 H   0  0  0  0  0  0  0  0  0  0  0  0
   35.0780   24.2770   32.3260 H   0  0  0  0  0  0  0  0  0  0  0  0
   38.7450   24.3450   35.8940 C   0  0  0  0  0  0  0  0  0  0  0  0
   39.3490   23.5980   35.3170 H   0  0  0  0  0  0  0  0  0  0  0  0
   39.4580   24.8330   36.5680 H   0  0  0  0  0  0  0  0  0  0  0  0
   37.7610   23.5910   36.5350 O   0  0  0  0  0  0  0  0  0  0  0  0
   38.0540   24.7220   38.8430 O   0  0  0  0  0  0  0  0  0  0  0  0
   38.0760   23.3710   38.1750 P   0  0  0  0  0  0  0  0  0  0  0  0
   36.9990   22.2910   38.9040 O   0  0  0  0  0  0  0  0  0  0  0  0
   36.1080   22.7590   38.9190 H   0  0  0  0  0  0  0  0  0  0  0  0
   39.6250   22.6920   38.3610 O   0  0  0  0  0  0  0  0  0  0  0  0
   39.6000   21.7660   38.0480 H   0  0  0  0  0  0  0  0  0  0  0  0
  1  2  2  0  0  0  0
  1  6  1  0  0  0  0
  2  3  1  0  0  0  0
  3  8  1  0  0  0  0
  3  4  2  0  0  0  0
  5  4  1  0  0  0  0
  5 17  1  0  0  0  0
  6  5  2  0  0  0  0
  7  2  1  0  0  0  0
  9  1  1  0  0  0  0
 10 11  1  0  0  0  0
 10  9  1  0  0  0  0
 10 13  1  0  0  0  0
 11  9  1  0  0  0  0
 11 16  1  0  0  0  0
 12  9  1  0  0  0  0
 14 10  1  0  0  0  0
 15 11  1  0  0  0  0
 17 20  1  0  0  0  0
 17 19  1  0  0  0  0
 18 17  1  0  0  0  0
 20 22  1  0  0  0  0
 22 25  1  0  0  0  0
 22 21  2  0  0  0  0
 22 23  1  0  0  0  0
 23 24  1  0  0  0  0
 26 25  1  0  0  0  0
M  END
>  <minimizedAffinity>
-4.59532166

$$$$

 OpenBabel03272510313D

 26 27  0  0  0  0  0  0  0  0999 V2000
   36.4030   21.5100   33.2780 C   0  0  0  0  0  0  0  0  0  0  0  0
   36.2260   22.3780   32.1960 C   0  0  0  0  0  0  0  0  0  0  0  0
   37.1040   23.4620   32.1480 C   0  0  0  0  0  0  0  0  0  0  0  0
   38.0540   23.6080   33.1270 N   0  0  0  0  0  0  0  0  0  0  0  0
   38.1770   22.7320   34.1530 C   0  0  0  0  0  0  0  0  0  0  0  0
   37.3310   21.6540   34.2360 N   0  0  0  0  0  0  0  0  0  0  0  0
   35.4650   22.2120   31.4600 H   0  0  0  0  0  0  0  0  0  0  0  0
   37.0340   24.1800   31.3430 H   0  0  0  0  0  0  0  0  0  0  0  0
   35.4980   20.3160   33.3410 C   0  0  0  0  0  0  0  0  0  0  0  0
   34.7200   19.8630   32.2120 C   0  0  0  0  0  0  0  0  0  0  0  0
   36.0120   19.1280   32.5150 C   0  0  0  0  0  0  0  0  0  0  0  0
   35.2210   20.0460   34.4040 H   0  0  0  0  0  0  0  0  0  0  0  0
   34.7210   20.4100   31.2480 H   0  0  0  0  0  0  0  0  0  0  0  0
   33.7620   19.3330   32.3810 H   0  0  0  0  0  0  0  0  0  0  0  0
   35.8820   18.1340   32.9870 H   0  0  0  0  0  0  0  0  0  0  0  0
   36.8780   19.2770   31.8510 H   0  0  0  0  0  0  0  0  0  0  0  0
   39.1970   22.8750   35.1850 C   0  0  0  0  0  0  0  0  0  0  0  0
   39.2890   21.9800   35.8520 H   0  0  0  0  0  0  0  0  0  0  0  0
   40.1910   23.0100   34.7430 H   0  0  0  0  0  0  0  0  0  0  0  0
   38.7920   23.9100   36.0300 O   0  0  0  0  0  0  0  0  0  0  0  0
   37.9030   24.5520   38.3730 O   0  0  0  0  0  0  0  0  0  0  0  0
   38.2630   23.3550   37.5300 P   0  0  0  0  0  0  0  0  0  0  0  0
   36.9770   22.2650   37.4030 O   0  0  0  0  0  0  0  0  0  0  0  0
   36.1880   22.8050   37.0860 H   0  0  0  0  0  0  0  0  0  0  0  0
   39.5270   22.5080   38.2910 O   0  0  0  0  0  0  0  0  0  0  0  0
   39.6680   21.6650   37.8160 H   0  0  0  0  0  0  0  0  0  0  0  0
  1  9  1  0  0  0  0
  1  6  1  0  0  0  0
  2  1  2  0  0  0  0
  3  2  1  0  0  0  0
  3  4  2  0  0  0  0
  4  5  1  0  0  0  0
  5  6  2  0  0  0  0
  5 17  1  0  0  0  0
  7  2  1  0  0  0  0
  8  3  1  0  0  0  0
  9 12  1  0  0  0  0
 10 14  1  0  0  0  0
 10 11  1  0  0  0  0
 10  9  1  0  0  0  0
 11 15  1  0  0  0  0
 11  9  1  0  0  0  0
 13 10  1  0  0  0  0
 16 11  1  0  0  0  0
 17 18  1  0  0  0  0
 17 20  1  0  0  0  0
 19 17  1  0  0  0  0
 20 22  1  0  0  0  0
 22 25  1  0  0  0  0
 22 21  2  0  0  0  0
 23 22  1  0  0  0  0
 24 23  1  0  0  0  0
 26 25  1  0  0  0  0
M  END
>  <minimizedAffinity>
-4.49366379

$$$$

 OpenBabel03272510313D

 26 27  0  0  0  0  0  0  0  0999 V2000
   36.8460   23.2330   32.2880 C   0  0  0  0  0  0  0  0  0  0  0  0
   36.5520   24.5680   31.9910 C   0  0  0  0  0  0  0  0  0  0  0  0
   37.1380   25.5120   32.8350 C   0  0  0  0  0  0  0  0  0  0  0  0
   37.9370   25.0940   33.8690 N   0  0  0  0  0  0  0  0  0  0  0  0
   38.1850   23.7840   34.1080 C   0  0  0  0  0  0  0  0  0  0  0  0
   37.6260   22.8240   33.3000 N   0  0  0  0  0  0  0  0  0  0  0  0
   35.9200   24.8340   31.1680 H   0  0  0  0  0  0  0  0  0  0  0  0
   36.9600   26.5660   32.6720 H   0  0  0  0  0  0  0  0  0  0  0  0
   36.2600   22.1940   31.3800 C   0  0  0  0  0  0  0  0  0  0  0  0
   36.4620   20.7780   31.5790 C   0  0  0  0  0  0  0  0  0  0  0  0
   35.1460   21.3720   32.0450 C   0  0  0  0  0  0  0  0  0  0  0  0
   35.9730   22.6190   30.3720 H   0  0  0  0  0  0  0  0  0  0  0  0
   37.1030   20.3900   32.3970 H   0  0  0  0  0  0  0  0  0  0  0  0
   36.4490   20.0920   30.7100 H   0  0  0  0  0  0  0  0  0  0  0  0
   34.2770   21.1450   31.3970 H   0  0  0  0  0  0  0  0  0  0  0  0
   34.9690   21.4940   33.1260 H   0  0  0  0  0  0  0  0  0  0  0  0
   39.0480   23.3380   35.1940 C   0  0  0  0  0  0  0  0  0  0  0  0
   38.7590   22.3410   35.6170 H   0  0  0  0  0  0  0  0  0  0  0  0
   40.0820   23.2170   34.8540 H   0  0  0  0  0  0  0  0  0  0  0  0
   38.8840   24.2340   36.2510 O   0  0  0  0  0  0  0  0  0  0  0  0
   37.9670   24.5650   38.6480 O   0  0  0  0  0  0  0  0  0  0  0  0
   38.3360   23.4880   37.6580 P   0  0  0  0  0  0  0  0  0  0  0  0
   37.0500   22.4290   37.3740 O   0  0  0  0  0  0  0  0  0  0  0  0
   36.2660   23.0070   37.1210 H   0  0  0  0  0  0  0  0  0  0  0  0
   39.5890   22.5450   38.3170 O   0  0  0  0  0  0  0  0  0  0  0  0
   39.7350   21.7710   37.7370 H   0  0  0  0  0  0  0  0  0  0  0  0
  1  6  1  0  0  0  0
  2  1  2  0  0  0  0
  2  3  1  0  0  0  0
  3  4  2  0  0  0  0
  4  5  1  0  0  0  0
  5 17  1  0  0  0  0
  6  5  2  0  0  0  0
  7  2  1  0  0  0  0
  8  3  1  0  0  0  0
  9 10  1  0  0  0  0
  9 11  1  0  0  0  0
  9  1  1  0  0  0  0
 10 11  1  0  0  0  0
 10 13  1  0  0  0  0
 11 16  1  0  0  0  0
 12  9  1  0  0  0  0
 14 10  1  0  0  0  0
 15 11  1  0  0  0  0
 17 18  1  0  0  0  0
 17 20  1  0  0  0  0
 19 17  1  0  0  0  0
 20 22  1  0  0  0  0
 22 25  1  0  0  0  0
 22 21  2  0  0  0  0
 23 22  1  0  0  0  0
 24 23  1  0  0  0  0
 26 25  1  0  0  0  0
M  END
>  <minimizedAffinity>
-4.4063077

$$$$

 OpenBabel03272510313D

 26 27  0  0  0  0  0  0  0  0999 V2000
   37.0940   26.5680   32.8190 C   0  0  0  0  0  0  0  0  0  0  0  0
   36.9220   27.7420   33.5570 C   0  0  0  0  0  0  0  0  0  0  0  0
   37.2230   27.6440   34.9170 C   0  0  0  0  0  0  0  0  0  0  0  0
   37.6530   26.4460   35.4310 N   0  0  0  0  0  0  0  0  0  0  0  0
   37.8000   25.3400   34.6630 C   0  0  0  0  0  0  0  0  0  0  0  0
   37.5130   25.3960   33.3210 N   0  0  0  0  0  0  0  0  0  0  0  0
   36.5830   28.6500   33.1000 H   0  0  0  0  0  0  0  0  0  0  0  0
   37.1170   28.5080   35.5580 H   0  0  0  0  0  0  0  0  0  0  0  0
   36.8120   26.6470   31.3480 C   0  0  0  0  0  0  0  0  0  0  0  0
   36.7230   27.9000   30.6350 C   0  0  0  0  0  0  0  0  0  0  0  0
   38.0210   27.1230   30.5290 C   0  0  0  0  0  0  0  0  0  0  0  0
   36.3380   25.7000   30.9520 H   0  0  0  0  0  0  0  0  0  0  0  0
   36.8150   28.8740   31.1560 H   0  0  0  0  0  0  0  0  0  0  0  0
   36.0820   27.9760   29.7340 H   0  0  0  0  0  0  0  0  0  0  0  0
   38.1730   26.5990   29.5650 H   0  0  0  0  0  0  0  0  0  0  0  0
   38.9110   27.4950   31.0620 H   0  0  0  0  0  0  0  0  0  0  0  0
   38.2740   24.0720   35.2030 C   0  0  0  0  0  0  0  0  0  0  0  0
   37.4480   23.3770   35.5060 H   0  0  0  0  0  0  0  0  0  0  0  0
   38.8570   23.5180   34.4590 H   0  0  0  0  0  0  0  0  0  0  0  0
   38.9570   24.3520   36.3870 O   0  0  0  0  0  0  0  0  0  0  0  0
   37.9110   24.5140   38.7470 O   0  0  0  0  0  0  0  0  0  0  0  0
   38.3420   23.5100   37.7090 P   0  0  0  0  0  0  0  0  0  0  0  0
   37.0830   22.4640   37.2850 O   0  0  0  0  0  0  0  0  0  0  0  0
   36.3080   23.0540   37.0300 H   0  0  0  0  0  0  0  0  0  0  0  0
   39.5670   22.5310   38.3690 O   0  0  0  0  0  0  0  0  0  0  0  0
   39.7510   21.7990   37.7460 H   0  0  0  0  0  0  0  0  0  0  0  0
  1  6  2  0  0  0  0
  1  2  1  0  0  0  0
  2  3  2  0  0  0  0
  3  4  1  0  0  0  0
  3  8  1  0  0  0  0
  5 17  1  0  0  0  0
  5  4  2  0  0  0  0
  6  5  1  0  0  0  0
  7  2  1  0  0  0  0
  9  1  1  0  0  0  0
 10 13  1  0  0  0  0
 10  9  1  0  0  0  0
 11 10  1  0  0  0  0
 11 16  1  0  0  0  0
 11  9  1  0  0  0  0
 12  9  1  0  0  0  0
 14 10  1  0  0  0  0
 15 11  1  0  0  0  0
 17 18  1  0  0  0  0
 17 20  1  0  0  0  0
 19 17  1  0  0  0  0
 20 22  1  0  0  0  0
 22 25  1  0  0  0  0
 22 21  2  0  0  0  0
 23 22  1  0  0  0  0
 24 23  1  0  0  0  0
 26 25  1  0  0  0  0
M  END
>  <minimizedAffinity>
-4.36865997

$$$$

 OpenBabel03272510313D

 26 27  0  0  0  0  0  0  0  0999 V2000
   38.0290   24.8530   35.3190 C   0  0  0  0  0  0  0  0  0  0  0  0
   37.8140   24.5220   36.6600 C   0  0  0  0  0  0  0  0  0  0  0  0
   37.6730   23.1590   36.9250 C   0  0  0  0  0  0  0  0  0  0  0  0
   37.7500   22.2560   35.8950 N   0  0  0  0  0  0  0  0  0  0  0  0
   37.9620   22.6380   34.6130 C   0  0  0  0  0  0  0  0  0  0  0  0
   38.1050   23.9700   34.3110 N   0  0  0  0  0  0  0  0  0  0  0  0
   37.7630   25.2730   37.4230 H   0  0  0  0  0  0  0  0  0  0  0  0
   37.5030   22.8210   37.9380 H   0  0  0  0  0  0  0  0  0  0  0  0
   38.2200   26.3060   35.0030 C   0  0  0  0  0  0  0  0  0  0  0  0
   38.6100   27.2780   35.9970 C   0  0  0  0  0  0  0  0  0  0  0  0
   39.6890   26.7490   35.0710 C   0  0  0  0  0  0  0  0  0  0  0  0
   37.6970   26.6070   34.0470 H   0  0  0  0  0  0  0  0  0  0  0  0
   38.7450   27.0000   37.0610 H   0  0  0  0  0  0  0  0  0  0  0  0
   38.2960   28.3350   35.8870 H   0  0  0  0  0  0  0  0  0  0  0  0
   40.0060   27.4520   34.2760 H   0  0  0  0  0  0  0  0  0  0  0  0
   40.4380   26.0470   35.4710 H   0  0  0  0  0  0  0  0  0  0  0  0
   38.0630   21.6800   33.5190 C   0  0  0  0  0  0  0  0  0  0  0  0
   38.8800   21.9150   32.7900 H   0  0  0  0  0  0  0  0  0  0  0  0
   38.2900   20.6750   33.8930 H   0  0  0  0  0  0  0  0  0  0  0  0
   36.8850   21.7700   32.7770 O   0  0  0  0  0  0  0  0  0  0  0  0
   36.5140   19.2300   32.4580 O   0  0  0  0  0  0  0  0  0  0  0  0
   35.8550   20.4610   33.0270 P   0  0  0  0  0  0  0  0  0  0  0  0
   35.4440   20.2590   34.6540 O   0  0  0  0  0  0  0  0  0  0  0  0
   36.2860   19.9580   35.1160 H   0  0  0  0  0  0  0  0  0  0  0  0
   34.3930   20.7320   32.2000 O   0  0  0  0  0  0  0  0  0  0  0  0
   33.9050   21.4470   32.6560 H   0  0  0  0  0  0  0  0  0  0  0  0
  1  2  1  0  0  0  0
  2  3  2  0  0  0  0
  2  7  1  0  0  0  0
  3  8  1  0  0  0  0
  4  3  1  0  0  0  0
  5  4  2  0  0  0  0
  6  5  1  0  0  0  0
  6  1  2  0  0  0  0
  9 11  1  0  0  0  0
  9  1  1  0  0  0  0
  9 10  1  0  0  0  0
 10 13  1  0  0  0  0
 11 16  1  0  0  0  0
 11 10  1  0  0  0  0
 12  9  1  0  0  0  0
 14 10  1  0  0  0  0
 15 11  1  0  0  0  0
 17 19  1  0  0  0  0
 17  5  1  0  0  0  0
 18 17  1  0  0  0  0
 20 22  1  0  0  0  0
 20 17  1  0  0  0  0
 21 22  2  0  0  0  0
 22 23  1  0  0  0  0
 23 24  1  0  0  0  0
 25 26  1  0  0  0  0
 25 22  1  0  0  0  0
M  END
>  <minimizedAffinity>
-4.30709314

$$$$

 OpenBabel03272510313D

 26 27  0  0  0  0  0  0  0  0999 V2000
   39.9930   22.8370   37.2180 C   0  0  0  0  0  0  0  0  0  0  0  0
   39.3540   23.0780   38.4370 C   0  0  0  0  0  0  0  0  0  0  0  0
   38.2530   23.9330   38.3770 C   0  0  0  0  0  0  0  0  0  0  0  0
   37.8750   24.4690   37.1710 N   0  0  0  0  0  0  0  0  0  0  0  0
   38.5360   24.1980   36.0200 C   0  0  0  0  0  0  0  0  0  0  0  0
   39.6250   23.3610   36.0380 N   0  0  0  0  0  0  0  0  0  0  0  0
   39.6950   22.6300   39.3490 H   0  0  0  0  0  0  0  0  0  0  0  0
   37.7030   24.1700   39.2770 H   0  0  0  0  0  0  0  0  0  0  0  0
   41.1600   21.8950   37.2400 C   0  0  0  0  0  0  0  0  0  0  0  0
   41.8270   21.4470   36.0410 C   0  0  0  0  0  0  0  0  0  0  0  0
   42.4810   22.5630   36.8320 C   0  0  0  0  0  0  0  0  0  0  0  0
   41.2220   21.3150   38.2090 H   0  0  0  0  0  0  0  0  0  0  0  0
   41.4770   21.7470   35.0330 H   0  0  0  0  0  0  0  0  0  0  0  0
   42.3220   20.4560   36.0230 H   0  0  0  0  0  0  0  0  0  0  0  0
   43.3660   22.2580   37.4250 H   0  0  0  0  0  0  0  0  0  0  0  0
   42.4560   23.5890   36.4300 H   0  0  0  0  0  0  0  0  0  0  0  0
   38.1270   24.7510   34.7360 C   0  0  0  0  0  0  0  0  0  0  0  0
   38.9560   25.2650   34.1840 H   0  0  0  0  0  0  0  0  0  0  0  0
   37.7760   23.9630   34.0590 H   0  0  0  0  0  0  0  0  0  0  0  0
   37.1920   25.7550   34.9930 O   0  0  0  0  0  0  0  0  0  0  0  0
   38.8710   27.3160   33.7940 O   0  0  0  0  0  0  0  0  0  0  0  0
   37.8580   27.3000   34.9100 P   0  0  0  0  0  0  0  0  0  0  0  0
   36.6870   28.5020   34.7140 O   0  0  0  0  0  0  0  0  0  0  0  0
   36.3180   28.3800   33.7850 H   0  0  0  0  0  0  0  0  0  0  0  0
   38.6510   27.6470   36.3750 O   0  0  0  0  0  0  0  0  0  0  0  0
   37.9770   27.7690   37.0730 H   0  0  0  0  0  0  0  0  0  0  0  0
  1  9  1  0  0  0  0
  1  2  1  0  0  0  0
  2  7  1  0  0  0  0
  3  2  2  0  0  0  0
  3  8  1  0  0  0  0
  4  3  1  0  0  0  0
  5  6  1  0  0  0  0
  5  4  2  0  0  0  0
  6  1  2  0  0  0  0
  9 12  1  0  0  0  0
 10 11  1  0  0  0  0
 10  9  1  0  0  0  0
 11  9  1  0  0  0  0
 11 15  1  0  0  0  0
 13 10  1  0  0  0  0
 14 10  1  0  0  0  0
 16 11  1  0  0  0  0
 17 20  1  0  0  0  0
 17  5  1  0  0  0  0
 18 17  1  0  0  0  0
 19 17  1  0  0  0  0
 21 22  2  0  0  0  0
 22 20  1  0  0  0  0
 22 25  1  0  0  0  0
 23 22  1  0  0  0  0
 24 23  1  0  0  0  0
 25 26  1  0  0  0  0
M  END
>  <minimizedAffinity>
-4.29513407

$$$$

 OpenBabel03272510313D

 26 27  0  0  0  0  0  0  0  0999 V2000
   38.2150   23.3220   35.9360 C   0  0  0  0  0  0  0  0  0  0  0  0
   39.0550   22.2320   35.6880 C   0  0  0  0  0  0  0  0  0  0  0  0
   39.6070   22.1810   34.4070 C   0  0  0  0  0  0  0  0  0  0  0  0
   39.3060   23.1650   33.4990 N   0  0  0  0  0  0  0  0  0  0  0  0
   38.4830   24.1990   33.7980 C   0  0  0  0  0  0  0  0  0  0  0  0
   37.9200   24.2840   35.0480 N   0  0  0  0  0  0  0  0  0  0  0  0
   39.2540   21.4930   36.4380 H   0  0  0  0  0  0  0  0  0  0  0  0
   40.2680   21.3700   34.1350 H   0  0  0  0  0  0  0  0  0  0  0  0
   37.6330   23.4270   37.3130 C   0  0  0  0  0  0  0  0  0  0  0  0
   38.4280   23.2950   38.5110 C   0  0  0  0  0  0  0  0  0  0  0  0
   38.0700   24.6970   38.0570 C   0  0  0  0  0  0  0  0  0  0  0  0
   36.5140   23.2580   37.3180 H   0  0  0  0  0  0  0  0  0  0  0  0
   39.5110   23.0640   38.4690 H   0  0  0  0  0  0  0  0  0  0  0  0
   37.9640   22.9100   39.4410 H   0  0  0  0  0  0  0  0  0  0  0  0
   37.2770   25.1920   38.6520 H   0  0  0  0  0  0  0  0  0  0  0  0
   38.8540   25.3300   37.6120 H   0  0  0  0  0  0  0  0  0  0  0  0
   38.1760   25.2550   32.8420 C   0  0  0  0  0  0  0  0  0  0  0  0
   38.4630   26.2780   33.1960 H   0  0  0  0  0  0  0  0  0  0  0  0
   38.7220   25.1100   31.9040 H   0  0  0  0  0  0  0  0  0  0  0  0
   36.7880   25.3000   32.7050 O   0  0  0  0  0  0  0  0  0  0  0  0
   35.6250   23.2760   31.5900 O   0  0  0  0  0  0  0  0  0  0  0  0
   36.2530   24.6070   31.2660 P   0  0  0  0  0  0  0  0  0  0  0  0
   35.1930   25.6120   30.4150 O   0  0  0  0  0  0  0  0  0  0  0  0
   34.3470   25.6470   30.9610 H   0  0  0  0  0  0  0  0  0  0  0  0
   37.5850   24.3490   30.2390 O   0  0  0  0  0  0  0  0  0  0  0  0
   37.9080   25.2170   29.9230 H   0  0  0  0  0  0  0  0  0  0  0  0
  1  9  1  0  0  0  0
  2  1  1  0  0  0  0
  2  7  1  0  0  0  0
  3  2  2  0  0  0  0
  4  5  2  0  0  0  0
  4  3  1  0  0  0  0
  5  6  1  0  0  0  0
  6  1  2  0  0  0  0
  8  3  1  0  0  0  0
  9 12  1  0  0  0  0
  9 11  1  0  0  0  0
  9 10  1  0  0  0  0
 10 14  1  0  0  0  0
 11 10  1  0  0  0  0
 11 15  1  0  0  0  0
 13 10  1  0  0  0  0
 16 11  1  0  0  0  0
 17 18  1  0  0  0  0
 17  5  1  0  0  0  0
 19 17  1  0  0  0  0
 20 17  1  0  0  0  0
 22 21  2  0  0  0  0
 22 20  1  0  0  0  0
 23 24  1  0  0  0  0
 23 22  1  0  0  0  0
 25 22  1  0  0  0  0
 26 25  1  0  0  0  0
M  END
>  <minimizedAffinity>
-4.09326792

$$$$

 OpenBabel03272510313D

 26 27  0  0  0  0  0  0  0  0999 V2000
   37.8190   27.4270   32.9050 C   0  0  0  0  0  0  0  0  0  0  0  0
   39.0710   27.2630   32.3050 C   0  0  0  0  0  0  0  0  0  0  0  0
   39.9880   26.5030   33.0330 C   0  0  0  0  0  0  0  0  0  0  0  0
   39.6240   25.9820   34.2480 N   0  0  0  0  0  0  0  0  0  0  0  0
   38.3930   26.1760   34.7790 C   0  0  0  0  0  0  0  0  0  0  0  0
   37.4620   26.9180   34.0940 N   0  0  0  0  0  0  0  0  0  0  0  0
   39.2980   27.6940   31.3510 H   0  0  0  0  0  0  0  0  0  0  0  0
   40.9800   26.3290   32.6380 H   0  0  0  0  0  0  0  0  0  0  0  0
   36.7970   28.2080   32.1340 C   0  0  0  0  0  0  0  0  0  0  0  0
   36.8750   28.4030   30.7060 C   0  0  0  0  0  0  0  0  0  0  0  0
   35.9340   27.3290   31.2170 C   0  0  0  0  0  0  0  0  0  0  0  0
   36.1980   28.9000   32.7980 H   0  0  0  0  0  0  0  0  0  0  0  0
   37.7280   28.0170   30.1110 H   0  0  0  0  0  0  0  0  0  0  0  0
   36.4360   29.3120   30.2490 H   0  0  0  0  0  0  0  0  0  0  0  0
   34.8590   27.5970   31.1820 H   0  0  0  0  0  0  0  0  0  0  0  0
   36.2080   26.2710   31.0820 H   0  0  0  0  0  0  0  0  0  0  0  0
   37.9970   25.6090   36.0620 C   0  0  0  0  0  0  0  0  0  0  0  0
   38.2080   26.2800   36.9340 H   0  0  0  0  0  0  0  0  0  0  0  0
   36.9180   25.4220   36.0970 H   0  0  0  0  0  0  0  0  0  0  0  0
   38.7890   24.4810   36.2810 O   0  0  0  0  0  0  0  0  0  0  0  0
   37.7750   24.5140   38.6600 O   0  0  0  0  0  0  0  0  0  0  0  0
   38.2710   23.5670   37.5970 P   0  0  0  0  0  0  0  0  0  0  0  0
   37.0990   22.4250   37.1750 O   0  0  0  0  0  0  0  0  0  0  0  0
   36.2720   22.9510   36.9430 H   0  0  0  0  0  0  0  0  0  0  0  0
   39.5870   22.6850   38.2200 O   0  0  0  0  0  0  0  0  0  0  0  0
   39.8210   21.9820   37.5820 H   0  0  0  0  0  0  0  0  0  0  0  0
  1  6  1  0  0  0  0
  2  1  2  0  0  0  0
  2  3  1  0  0  0  0
  3  4  2  0  0  0  0
  4  5  1  0  0  0  0
  5 17  1  0  0  0  0
  6  5  2  0  0  0  0
  7  2  1  0  0  0  0
  8  3  1  0  0  0  0
  9 12  1  0  0  0  0
  9  1  1  0  0  0  0
 10 11  1  0  0  0  0
 10  9  1  0  0  0  0
 11  9  1  0  0  0  0
 13 10  1  0  0  0  0
 14 10  1  0  0  0  0
 15 11  1  0  0  0  0
 16 11  1  0  0  0  0
 17 19  1  0  0  0  0
 17 20  1  0  0  0  0
 17 18  1  0  0  0  0
 20 22  1  0  0  0  0
 22 25  1  0  0  0  0
 22 21  2  0  0  0  0
 23 22  1  0  0  0  0
 24 23  1  0  0  0  0
 26 25  1  0  0  0  0
M  END
>  <minimizedAffinity>
-4.08466291

$$$$
