
 OpenBabel03272510293D

 26 27  0  0  0  0  0  0  0  0999 V2000
   37.1870   31.3130   49.1940 C   0  0  0  0  0  0  0  0  0  0  0  0
   37.3690   32.5630   49.7930 C   0  0  0  0  0  0  0  0  0  0  0  0
   38.3300   33.3800   49.1950 C   0  0  0  0  0  0  0  0  0  0  0  0
   39.0150   32.9270   48.0960 N   0  0  0  0  0  0  0  0  0  0  0  0
   38.7940   31.7030   47.5590 C   0  0  0  0  0  0  0  0  0  0  0  0
   37.8580   30.8700   48.1190 N   0  0  0  0  0  0  0  0  0  0  0  0
   36.8030   32.8620   50.6530 H   0  0  0  0  0  0  0  0  0  0  0  0
   38.5310   34.3630   49.5980 H   0  0  0  0  0  0  0  0  0  0  0  0
   36.1380   30.4240   49.7910 C   0  0  0  0  0  0  0  0  0  0  0  0
   36.1270   28.9920   49.6020 C   0  0  0  0  0  0  0  0  0  0  0  0
   36.6790   29.5230   50.9110 C   0  0  0  0  0  0  0  0  0  0  0  0
   35.2050   30.9950   50.0750 H   0  0  0  0  0  0  0  0  0  0  0  0
   36.8770   28.4830   48.9640 H   0  0  0  0  0  0  0  0  0  0  0  0
   35.1660   28.4410   49.6230 H   0  0  0  0  0  0  0  0  0  0  0  0
   36.0070   29.4020   51.7840 H   0  0  0  0  0  0  0  0  0  0  0  0
   37.7660   29.4870   51.0860 H   0  0  0  0  0  0  0  0  0  0  0  0
   39.5080   31.2270   46.3800 C   0  0  0  0  0  0  0  0  0  0  0  0
   40.4840   31.7490   46.2050 H   0  0  0  0  0  0  0  0  0  0  0  0
   39.7610   30.1650   46.4740 H   0  0  0  0  0  0  0  0  0  0  0  0
   38.7290   31.5430   45.2660 O   0  0  0  0  0  0  0  0  0  0  0  0
   40.4470   31.3040   43.3460 O   0  0  0  0  0  0  0  0  0  0  0  0
   39.1840   30.6830   43.8900 P   0  0  0  0  0  0  0  0  0  0  0  0
   39.3750   29.0310   44.1890 O   0  0  0  0  0  0  0  0  0  0  0  0
   40.1920   28.9470   44.7710 H   0  0  0  0  0  0  0  0  0  0  0  0
   37.9590   30.8150   42.7170 O   0  0  0  0  0  0  0  0  0  0  0  0
   37.1840   30.2960   43.0160 H   0  0  0  0  0  0  0  0  0  0  0  0
  1  9  1  0  0  0  0
  1  2  1  0  0  0  0
  2  7  1  0  0  0  0
  3  8  1  0  0  0  0
  3  2  2  0  0  0  0
  4  3  1  0  0  0  0
  5  4  2  0  0  0  0
  5  6  1  0  0  0  0
  6  1  2  0  0  0  0
  9 12  1  0  0  0  0
  9 11  1  0  0  0  0
 10 14  1  0  0  0  0
 10  9  1  0  0  0  0
 10 11  1  0  0  0  0
 11 16  1  0  0  0  0
 11 15  1  0  0  0  0
 13 10  1  0  0  0  0
 17 19  1  0  0  0  0
 17  5  1  0  0  0  0
 18 17  1  0  0  0  0
 20 17  1  0  0  0  0
 21 22  2  0  0  0  0
 22 23  1  0  0  0  0
 22 20  1  0  0  0  0
 23 24  1  0  0  0  0
 25 26  1  0  0  0  0
 25 22  1  0  0  0  0
M  END
>  <minimizedAffinity>
-4.921525

>  <minimizedRMSD>
0.541964531

$$$$
