
 OpenBabel03272500583D

 33 34  0  0  0  0  0  0  0  0999 V2000
   38.1980   31.8950   47.4080 C   0  0  0  0  0  0  0  0  0  0  0  0
   38.7540   32.7820   48.3010 C   0  0  0  0  0  0  0  0  0  0  0  0
   38.2920   32.8560   49.6250 C   0  0  0  0  0  0  0  0  0  0  0  0
   37.2170   31.9690   50.0230 C   0  0  0  0  0  0  0  0  0  0  0  0
   36.7260   31.1260   49.0880 C   0  0  0  0  0  0  0  0  0  0  0  0
   37.1630   31.0530   47.8170 C   0  0  0  0  0  0  0  0  0  0  0  0
   39.5620   33.4600   48.0320 H   0  0  0  0  0  0  0  0  0  0  0  0
   38.7610   33.5710   50.2860 H   0  0  0  0  0  0  0  0  0  0  0  0
   36.9720   32.1390   51.0610 H   0  0  0  0  0  0  0  0  0  0  0  0
   35.9700   30.5510   49.6010 H   0  0  0  0  0  0  0  0  0  0  0  0
   40.0170   31.2450   45.9100 C   0  0  0  0  0  0  0  0  0  0  0  0
   38.7820   31.9140   46.0890 C   0  0  0  0  0  0  0  0  0  0  0  0
   38.2880   32.5050   44.9520 C   0  0  0  0  0  0  0  0  0  0  0  0
   38.9450   32.4350   43.7870 N   0  0  0  0  0  0  0  0  0  0  0  0
   40.0900   31.8100   43.6360 C   0  0  0  0  0  0  0  0  0  0  0  0
   40.6160   31.2200   44.6970 N   0  0  0  0  0  0  0  0  0  0  0  0
   40.5110   30.7340   46.7430 H   0  0  0  0  0  0  0  0  0  0  0  0
   37.3370   33.0210   45.0930 H   0  0  0  0  0  0  0  0  0  0  0  0
   40.5520   31.8040   42.6570 H   0  0  0  0  0  0  0  0  0  0  0  0
   35.1610   30.0530   47.0870 C   0  0  0  0  0  0  0  0  0  0  0  0
   34.6000   30.6860   48.0670 O   0  0  0  0  0  0  0  0  0  0  0  0
   36.5960   30.1920   46.9080 N   0  0  0  0  0  0  0  0  0  0  0  0
   37.1150   29.6800   46.1630 H   0  0  0  0  0  0  0  0  0  0  0  0
   34.3950   29.2760   46.2570 O   0  0  0  0  0  0  0  0  0  0  0  0
   33.0040   29.3460   46.1810 C   0  0  0  0  0  0  0  0  0  0  0  0
   32.3890   30.2590   45.4640 O   0  0  0  0  0  0  0  0  0  0  0  0
   32.0570   28.5260   46.7760 O   0  0  0  0  0  0  0  0  0  0  0  0
   31.3960   26.6940   48.5600 O   0  0  0  0  0  0  0  0  0  0  0  0
   32.5060   27.6700   48.1980 P   0  0  0  0  0  0  0  0  0  0  0  0
   33.8700   26.6930   47.8700 O   0  0  0  0  0  0  0  0  0  0  0  0
   33.9670   26.0300   48.5920 H   0  0  0  0  0  0  0  0  0  0  0  0
   32.7670   28.6640   49.5130 O   0  0  0  0  0  0  0  0  0  0  0  0
   33.5710   29.2220   49.4650 H   0  0  0  0  0  0  0  0  0  0  0  0
  1  6  2  0  0  0  0
  1  2  1  0  0  0  0
  2  3  2  0  0  0  0
  3  4  1  0  0  0  0
  3  8  1  0  0  0  0
  4  9  1  0  0  0  0
  5 10  1  0  0  0  0
  5  4  2  0  0  0  0
  6  5  1  0  0  0  0
  7  2  1  0  0  0  0
 11 12  1  0  0  0  0
 11 17  1  0  0  0  0
 12  1  1  0  0  0  0
 13 18  1  0  0  0  0
 13 12  2  0  0  0  0
 14 13  1  0  0  0  0
 15 14  2  0  0  0  0
 15 16  1  0  0  0  0
 16 11  2  0  0  0  0
 19 15  1  0  0  0  0
 20 21  2  0  0  0  0
 22 20  1  0  0  0  0
 22  6  1  0  0  0  0
 23 22  1  0  0  0  0
 24 20  1  0  0  0  0
 25 24  1  0  0  0  0
 25 27  1  0  0  0  0
 26 25  2  0  0  0  0
 27 29  1  0  0  0  0
 29 28  2  0  0  0  0
 29 32  1  0  0  0  0
 30 29  1  0  0  0  0
 30 31  1  0  0  0  0
 33 32  1  0  0  0  0
M  END
>  <minimizedAffinity>
-5.72286654

>  <minimizedRMSD>
1.43577135

$$$$
