
 OpenBabel03272500583D

 33 34  0  0  0  0  0  0  0  0999 V2000
   38.0870   31.9050   47.4220 C   0  0  0  0  0  0  0  0  0  0  0  0
   38.5430   32.8470   48.3160 C   0  0  0  0  0  0  0  0  0  0  0  0
   38.0130   32.9260   49.6130 C   0  0  0  0  0  0  0  0  0  0  0  0
   36.9740   31.9860   49.9840 C   0  0  0  0  0  0  0  0  0  0  0  0
   36.5810   31.0900   49.0520 C   0  0  0  0  0  0  0  0  0  0  0  0
   37.0850   31.0120   47.8050 C   0  0  0  0  0  0  0  0  0  0  0  0
   39.3210   33.5660   48.0670 H   0  0  0  0  0  0  0  0  0  0  0  0
   38.4040   33.6860   50.2750 H   0  0  0  0  0  0  0  0  0  0  0  0
   36.6680   32.1670   51.0040 H   0  0  0  0  0  0  0  0  0  0  0  0
   35.8370   30.4840   49.5430 H   0  0  0  0  0  0  0  0  0  0  0  0
   39.9910   31.2850   46.0210 C   0  0  0  0  0  0  0  0  0  0  0  0
   38.7330   31.9260   46.1330 C   0  0  0  0  0  0  0  0  0  0  0  0
   38.2820   32.4950   44.9680 C   0  0  0  0  0  0  0  0  0  0  0  0
   38.9960   32.4310   43.8360 N   0  0  0  0  0  0  0  0  0  0  0  0
   40.1620   31.8320   43.7480 C   0  0  0  0  0  0  0  0  0  0  0  0
   40.6490   31.2630   44.8390 N   0  0  0  0  0  0  0  0  0  0  0  0
   40.4560   30.7930   46.8830 H   0  0  0  0  0  0  0  0  0  0  0  0
   37.3130   32.9900   45.0570 H   0  0  0  0  0  0  0  0  0  0  0  0
   40.6700   31.8270   42.7920 H   0  0  0  0  0  0  0  0  0  0  0  0
   35.1740   29.9270   46.9590 C   0  0  0  0  0  0  0  0  0  0  0  0
   34.5180   30.5900   47.8560 O   0  0  0  0  0  0  0  0  0  0  0  0
   36.6170   30.0950   46.8950 N   0  0  0  0  0  0  0  0  0  0  0  0
   37.2080   29.5620   46.2220 H   0  0  0  0  0  0  0  0  0  0  0  0
   34.5000   29.0930   46.1070 O   0  0  0  0  0  0  0  0  0  0  0  0
   33.3190   29.4340   45.4490 C   0  0  0  0  0  0  0  0  0  0  0  0
   33.1080   30.6400   44.9720 O   0  0  0  0  0  0  0  0  0  0  0  0
   32.2200   28.6370   45.1630 O   0  0  0  0  0  0  0  0  0  0  0  0
   29.6650   28.0320   45.4570 O   0  0  0  0  0  0  0  0  0  0  0  0
   30.7080   29.0630   45.8620 P   0  0  0  0  0  0  0  0  0  0  0  0
   30.8140   28.9460   47.5640 O   0  0  0  0  0  0  0  0  0  0  0  0
   29.9040   28.9420   47.9390 H   0  0  0  0  0  0  0  0  0  0  0  0
   30.1580   30.5670   45.3850 O   0  0  0  0  0  0  0  0  0  0  0  0
   30.6600   31.3280   45.7400 H   0  0  0  0  0  0  0  0  0  0  0  0
  1  6  2  0  0  0  0
  1  2  1  0  0  0  0
  2  3  2  0  0  0  0
  3  4  1  0  0  0  0
  3  8  1  0  0  0  0
  4  9  1  0  0  0  0
  5 10  1  0  0  0  0
  5  4  2  0  0  0  0
  6  5  1  0  0  0  0
  7  2  1  0  0  0  0
 11 12  1  0  0  0  0
 11 17  1  0  0  0  0
 12  1  1  0  0  0  0
 13 18  1  0  0  0  0
 13 12  2  0  0  0  0
 14 13  1  0  0  0  0
 15 14  2  0  0  0  0
 15 16  1  0  0  0  0
 16 11  2  0  0  0  0
 19 15  1  0  0  0  0
 20 21  2  0  0  0  0
 22 20  1  0  0  0  0
 22  6  1  0  0  0  0
 23 22  1  0  0  0  0
 24 20  1  0  0  0  0
 25 24  1  0  0  0  0
 26 25  2  0  0  0  0
 27 25  1  0  0  0  0
 27 29  1  0  0  0  0
 28 29  2  0  0  0  0
 29 30  1  0  0  0  0
 30 31  1  0  0  0  0
 32 33  1  0  0  0  0
 32 29  1  0  0  0  0
M  END
>  <minimizedAffinity>
-5.2824707

>  <minimizedRMSD>
0.449359238

$$$$
