
 OpenBabel03272510293D

 26 27  0  0  0  0  0  0  0  0999 V2000
   37.1900   31.3190   49.1900 C   0  0  0  0  0  0  0  0  0  0  0  0
   37.3620   32.5660   49.7970 C   0  0  0  0  0  0  0  0  0  0  0  0
   38.3200   33.3920   49.2070 C   0  0  0  0  0  0  0  0  0  0  0  0
   39.0130   32.9490   48.1090 N   0  0  0  0  0  0  0  0  0  0  0  0
   38.8020   31.7270   47.5650 C   0  0  0  0  0  0  0  0  0  0  0  0
   37.8680   30.8850   48.1170 N   0  0  0  0  0  0  0  0  0  0  0  0
   36.7900   32.8580   50.6550 H   0  0  0  0  0  0  0  0  0  0  0  0
   38.5130   34.3740   49.6170 H   0  0  0  0  0  0  0  0  0  0  0  0
   36.1430   30.4200   49.7780 C   0  0  0  0  0  0  0  0  0  0  0  0
   36.1480   28.9880   49.5930 C   0  0  0  0  0  0  0  0  0  0  0  0
   36.6800   29.5280   50.9070 C   0  0  0  0  0  0  0  0  0  0  0  0
   35.2010   30.9820   50.0500 H   0  0  0  0  0  0  0  0  0  0  0  0
   36.9110   28.4840   48.9650 H   0  0  0  0  0  0  0  0  0  0  0  0
   35.1930   28.4270   49.6050 H   0  0  0  0  0  0  0  0  0  0  0  0
   36.0000   29.4020   51.7720 H   0  0  0  0  0  0  0  0  0  0  0  0
   37.7660   29.5030   51.0940 H   0  0  0  0  0  0  0  0  0  0  0  0
   39.5230   31.2610   46.3870 C   0  0  0  0  0  0  0  0  0  0  0  0
   40.5630   30.9050   46.6090 H   0  0  0  0  0  0  0  0  0  0  0  0
   39.0180   30.4050   45.9270 H   0  0  0  0  0  0  0  0  0  0  0  0
   39.6940   32.3580   45.5420 O   0  0  0  0  0  0  0  0  0  0  0  0
   38.8610   30.8310   43.6260 O   0  0  0  0  0  0  0  0  0  0  0  0
   38.7700   32.2470   44.1380 P   0  0  0  0  0  0  0  0  0  0  0  0
   37.1680   32.7270   44.3740 O   0  0  0  0  0  0  0  0  0  0  0  0
   36.7500   32.0230   44.9590 H   0  0  0  0  0  0  0  0  0  0  0  0
   39.4110   33.2960   42.9620 O   0  0  0  0  0  0  0  0  0  0  0  0
   39.2300   34.2180   43.2360 H   0  0  0  0  0  0  0  0  0  0  0  0
  1  9  1  0  0  0  0
  1  2  1  0  0  0  0
  2  7  1  0  0  0  0
  3  8  1  0  0  0  0
  3  2  2  0  0  0  0
  4  3  1  0  0  0  0
  5  4  2  0  0  0  0
  5  6  1  0  0  0  0
  6  1  2  0  0  0  0
  9 12  1  0  0  0  0
  9 11  1  0  0  0  0
 10 14  1  0  0  0  0
 10  9  1  0  0  0  0
 10 11  1  0  0  0  0
 11 16  1  0  0  0  0
 11 15  1  0  0  0  0
 13 10  1  0  0  0  0
 17 18  1  0  0  0  0
 17  5  1  0  0  0  0
 19 17  1  0  0  0  0
 20 17  1  0  0  0  0
 21 22  2  0  0  0  0
 22 23  1  0  0  0  0
 22 20  1  0  0  0  0
 23 24  1  0  0  0  0
 25 26  1  0  0  0  0
 25 22  1  0  0  0  0
M  END
>  <minimizedAffinity>
-5.15712643

>  <minimizedRMSD>
1.76011109

$$$$
