
 OpenBabel03272504153D

 22 22  0  0  0  0  0  0  0  0999 V2000
   37.2420   30.1290   48.8750 C   0  0  0  0  0  0  0  0  0  0  0  0
   36.2240   29.2820   49.3430 C   0  0  0  0  0  0  0  0  0  0  0  0
   36.0890   29.1490   50.7130 C   0  0  0  0  0  0  0  0  0  0  0  0
   36.9240   29.8240   51.5450 N   0  0  0  0  0  0  0  0  0  0  0  0
   37.9010   30.6380   51.0570 C   0  0  0  0  0  0  0  0  0  0  0  0
   38.0500   30.7820   49.7170 N   0  0  0  0  0  0  0  0  0  0  0  0
   35.2990   28.4920   51.0230 H   0  0  0  0  0  0  0  0  0  0  0  0
   38.5500   31.1610   51.7540 H   0  0  0  0  0  0  0  0  0  0  0  0
   37.5220   30.3830   47.5320 O   0  0  0  0  0  0  0  0  0  0  0  0
   38.4930   32.8200   48.0950 O   0  0  0  0  0  0  0  0  0  0  0  0
   38.4350   31.7460   47.0340 P   0  0  0  0  0  0  0  0  0  0  0  0
   39.9870   31.1690   46.6560 O   0  0  0  0  0  0  0  0  0  0  0  0
   40.6810   31.8090   47.0070 H   0  0  0  0  0  0  0  0  0  0  0  0
   37.7100   32.4350   45.6640 O   0  0  0  0  0  0  0  0  0  0  0  0
   37.5470   31.6820   45.0300 H   0  0  0  0  0  0  0  0  0  0  0  0
   35.4990   28.6990   48.3510 O   0  0  0  0  0  0  0  0  0  0  0  0
   33.8850   30.5450   47.3570 O   0  0  0  0  0  0  0  0  0  0  0  0
   33.9280   29.1350   47.8490 P   0  0  0  0  0  0  0  0  0  0  0  0
   32.9080   28.8740   49.1780 O   0  0  0  0  0  0  0  0  0  0  0  0
   32.1700   28.2860   48.8960 H   0  0  0  0  0  0  0  0  0  0  0  0
   33.5120   28.0450   46.6020 O   0  0  0  0  0  0  0  0  0  0  0  0
   34.1330   28.1950   45.8440 H   0  0  0  0  0  0  0  0  0  0  0  0
  1  2  2  0  0  0  0
  1  6  1  0  0  0  0
  2  3  1  0  0  0  0
  3  7  1  0  0  0  0
  3  4  2  0  0  0  0
  5  4  1  0  0  0  0
  5  8  1  0  0  0  0
  6  5  2  0  0  0  0
  9  1  1  0  0  0  0
 11  9  1  0  0  0  0
 11 10  2  0  0  0  0
 12 13  1  0  0  0  0
 12 11  1  0  0  0  0
 14 11  1  0  0  0  0
 15 14  1  0  0  0  0
 16  2  1  0  0  0  0
 17 18  2  0  0  0  0
 18 16  1  0  0  0  0
 18 19  1  0  0  0  0
 20 19  1  0  0  0  0
 21 18  1  0  0  0  0
 22 21  1  0  0  0  0
M  END
>  <minimizedAffinity>
-4.69519377

>  <minimizedRMSD>
3.32780886

$$$$
