
 OpenBabel03272510183D

 34 36  0  0  0  0  0  0  0  0999 V2000
   37.2990   29.2050   50.7950 Br  0  0  0  0  0  0  0  0  0  0  0  0
   35.9530   29.3040   49.4440 C   0  0  0  0  0  0  0  0  0  0  0  0
   35.9810   30.3080   48.4710 C   0  0  0  0  0  0  0  0  0  0  0  0
   34.9830   30.3120   47.5380 C   0  0  0  0  0  0  0  0  0  0  0  0
   33.9580   29.3760   47.5170 C   0  0  0  0  0  0  0  0  0  0  0  0
   33.9550   28.4130   48.4740 C   0  0  0  0  0  0  0  0  0  0  0  0
   34.9500   28.3850   49.4270 C   0  0  0  0  0  0  0  0  0  0  0  0
   35.0140   31.0990   46.7830 H   0  0  0  0  0  0  0  0  0  0  0  0
   33.1970   27.6330   48.5460 H   0  0  0  0  0  0  0  0  0  0  0  0
   34.9460   27.6170   50.1900 H   0  0  0  0  0  0  0  0  0  0  0  0
   37.9990   33.1680   49.4900 C   0  0  0  0  0  0  0  0  0  0  0  0
   39.0470   33.1840   48.5030 C   0  0  0  0  0  0  0  0  0  0  0  0
   39.0350   32.2180   47.5190 C   0  0  0  0  0  0  0  0  0  0  0  0
   38.0270   31.2930   47.5310 N   0  0  0  0  0  0  0  0  0  0  0  0
   37.0490   31.3000   48.4740 C   0  0  0  0  0  0  0  0  0  0  0  0
   37.0420   32.2370   49.4470 N   0  0  0  0  0  0  0  0  0  0  0  0
   37.9660   33.9030   50.2800 H   0  0  0  0  0  0  0  0  0  0  0  0
   39.8070   33.9630   48.5790 H   0  0  0  0  0  0  0  0  0  0  0  0
   39.8050   32.2140   46.7790 H   0  0  0  0  0  0  0  0  0  0  0  0
   32.8990   29.3990   46.5090 C   0  0  0  0  0  0  0  0  0  0  0  0
   32.4500   28.2640   45.8460 C   0  0  0  0  0  0  0  0  0  0  0  0
   31.4410   28.3390   44.8900 C   0  0  0  0  0  0  0  0  0  0  0  0
   30.8910   29.5150   44.5990 N   0  0  0  0  0  0  0  0  0  0  0  0
   31.3190   30.6120   45.2330 C   0  0  0  0  0  0  0  0  0  0  0  0
   32.2910   30.5430   46.1550 N   0  0  0  0  0  0  0  0  0  0  0  0
   32.9210   27.3280   46.1090 H   0  0  0  0  0  0  0  0  0  0  0  0
   31.1870   27.3760   44.4490 H   0  0  0  0  0  0  0  0  0  0  0  0
   30.6970   31.8010   44.8760 O   0  0  0  0  0  0  0  0  0  0  0  0
   32.4850   32.8430   43.1590 O   0  0  0  0  0  0  0  0  0  0  0  0
   31.4450   33.1370   44.1880 P   0  0  0  0  0  0  0  0  0  0  0  0
   32.1230   34.0930   45.4310 O   0  0  0  0  0  0  0  0  0  0  0  0
   31.8730   33.7340   46.3210 H   0  0  0  0  0  0  0  0  0  0  0  0
   30.2070   34.1040   43.5090 O   0  0  0  0  0  0  0  0  0  0  0  0
   29.6700   34.4740   44.2750 H   0  0  0  0  0  0  0  0  0  0  0  0
  2  1  1  0  0  0  0
  3 15  1  0  0  0  0
  3  2  2  0  0  0  0
  4  3  1  0  0  0  0
  5  4  2  0  0  0  0
  5  6  1  0  0  0  0
  6  9  1  0  0  0  0
  6  7  2  0  0  0  0
  7  2  1  0  0  0  0
  7 10  1  0  0  0  0
  8  4  1  0  0  0  0
 11 17  1  0  0  0  0
 12 18  1  0  0  0  0
 12 11  2  0  0  0  0
 13 14  2  0  0  0  0
 13 12  1  0  0  0  0
 14 15  1  0  0  0  0
 15 16  2  0  0  0  0
 16 11  1  0  0  0  0
 19 13  1  0  0  0  0
 20  5  1  0  0  0  0
 21 26  1  0  0  0  0
 21 20  2  0  0  0  0
 22 21  1  0  0  0  0
 23 22  2  0  0  0  0
 23 24  1  0  0  0  0
 24 25  2  0  0  0  0
 25 20  1  0  0  0  0
 27 22  1  0  0  0  0
 28 24  1  0  0  0  0
 29 30  2  0  0  0  0
 30 28  1  0  0  0  0
 30 31  1  0  0  0  0
 31 32  1  0  0  0  0
 33 30  1  0  0  0  0
 33 34  1  0  0  0  0
M  END
>  <minimizedAffinity>
-6.90126801

>  <minimizedRMSD>
0.410969108

$$$$
