
 OpenBabel03272500583D

 33 34  0  0  0  0  0  0  0  0999 V2000
   38.1690   31.7740   47.4100 C   0  0  0  0  0  0  0  0  0  0  0  0
   38.7990   32.5100   48.3880 C   0  0  0  0  0  0  0  0  0  0  0  0
   38.3390   32.4880   49.7140 C   0  0  0  0  0  0  0  0  0  0  0  0
   37.1860   31.6680   50.0230 C   0  0  0  0  0  0  0  0  0  0  0  0
   36.6240   30.9730   49.0090 C   0  0  0  0  0  0  0  0  0  0  0  0
   37.0590   30.9930   47.7350 C   0  0  0  0  0  0  0  0  0  0  0  0
   39.6660   33.1360   48.1870 H   0  0  0  0  0  0  0  0  0  0  0  0
   38.8680   33.0860   50.4440 H   0  0  0  0  0  0  0  0  0  0  0  0
   36.9520   31.7510   51.0750 H   0  0  0  0  0  0  0  0  0  0  0  0
   35.8170   30.4200   49.4630 H   0  0  0  0  0  0  0  0  0  0  0  0
   40.0050   31.2370   45.8880 C   0  0  0  0  0  0  0  0  0  0  0  0
   38.7590   31.8770   46.0980 C   0  0  0  0  0  0  0  0  0  0  0  0
   38.2610   32.5240   44.9930 C   0  0  0  0  0  0  0  0  0  0  0  0
   38.9250   32.5290   43.8290 N   0  0  0  0  0  0  0  0  0  0  0  0
   40.0800   31.9310   43.6500 C   0  0  0  0  0  0  0  0  0  0  0  0
   40.6100   31.2900   44.6800 N   0  0  0  0  0  0  0  0  0  0  0  0
   40.5030   30.6880   46.6950 H   0  0  0  0  0  0  0  0  0  0  0  0
   37.3010   33.0160   45.1570 H   0  0  0  0  0  0  0  0  0  0  0  0
   40.5460   31.9860   42.6750 H   0  0  0  0  0  0  0  0  0  0  0  0
   34.9880   30.1780   46.9670 C   0  0  0  0  0  0  0  0  0  0  0  0
   34.4940   30.6920   48.0460 O   0  0  0  0  0  0  0  0  0  0  0  0
   36.4210   30.2860   46.7450 N   0  0  0  0  0  0  0  0  0  0  0  0
   36.8880   29.8610   45.9150 H   0  0  0  0  0  0  0  0  0  0  0  0
   34.1580   29.5510   46.0750 O   0  0  0  0  0  0  0  0  0  0  0  0
   33.3940   30.2150   45.1160 C   0  0  0  0  0  0  0  0  0  0  0  0
   33.9130   30.6600   43.9940 O   0  0  0  0  0  0  0  0  0  0  0  0
   32.0370   30.5040   45.1310 O   0  0  0  0  0  0  0  0  0  0  0  0
   30.0120   32.1090   44.5870 O   0  0  0  0  0  0  0  0  0  0  0  0
   31.5300   32.0320   44.5280 P   0  0  0  0  0  0  0  0  0  0  0  0
   32.0790   33.2690   45.5740 O   0  0  0  0  0  0  0  0  0  0  0  0
   31.5850   34.0970   45.3740 H   0  0  0  0  0  0  0  0  0  0  0  0
   32.0000   32.3130   42.9510 O   0  0  0  0  0  0  0  0  0  0  0  0
   32.9590   32.4580   42.8190 H   0  0  0  0  0  0  0  0  0  0  0  0
  1  6  2  0  0  0  0
  1  2  1  0  0  0  0
  2  3  2  0  0  0  0
  3  4  1  0  0  0  0
  3  8  1  0  0  0  0
  4  9  1  0  0  0  0
  5 10  1  0  0  0  0
  5  4  2  0  0  0  0
  6  5  1  0  0  0  0
  7  2  1  0  0  0  0
 11 12  1  0  0  0  0
 11 17  1  0  0  0  0
 12  1  1  0  0  0  0
 13 18  1  0  0  0  0
 13 12  2  0  0  0  0
 14 13  1  0  0  0  0
 15 14  2  0  0  0  0
 15 16  1  0  0  0  0
 16 11  2  0  0  0  0
 19 15  1  0  0  0  0
 20 21  2  0  0  0  0
 22 20  1  0  0  0  0
 22  6  1  0  0  0  0
 23 22  1  0  0  0  0
 24 20  1  0  0  0  0
 25 27  1  0  0  0  0
 25 24  1  0  0  0  0
 26 25  2  0  0  0  0
 29 28  2  0  0  0  0
 29 27  1  0  0  0  0
 29 30  1  0  0  0  0
 31 30  1  0  0  0  0
 32 29  1  0  0  0  0
 33 32  1  0  0  0  0
M  END
>  <minimizedAffinity>
-5.56882143

>  <minimizedRMSD>
1.22562778

$$$$
