
 OpenBabel03272509033D

 31 32  0  0  0  0  0  0  0  0999 V2000
   34.9430   28.2500   49.6330 C   0  0  0  0  0  0  0  0  0  0  0  0
   34.3200   28.3820   48.4950 C   0  0  0  0  0  0  0  0  0  0  0  0
   37.3590   30.3480   51.4030 C   0  0  0  0  0  0  0  0  0  0  0  0
   38.1240   30.8650   50.3090 C   0  0  0  0  0  0  0  0  0  0  0  0
   37.7770   30.4710   48.9790 C   0  0  0  0  0  0  0  0  0  0  0  0
   36.7230   29.6170   48.8680 N   0  0  0  0  0  0  0  0  0  0  0  0
   36.0310   29.1550   49.9220 C   0  0  0  0  0  0  0  0  0  0  0  0
   36.3390   29.5100   51.1780 N   0  0  0  0  0  0  0  0  0  0  0  0
   37.6640   30.6770   52.3860 H   0  0  0  0  0  0  0  0  0  0  0  0
   38.9510   31.5420   50.4850 H   0  0  0  0  0  0  0  0  0  0  0  0
   38.4820   30.9420   47.9090 O   0  0  0  0  0  0  0  0  0  0  0  0
   38.3010   30.1300   45.3610 O   0  0  0  0  0  0  0  0  0  0  0  0
   37.7260   31.0790   46.3900 P   0  0  0  0  0  0  0  0  0  0  0  0
   37.9350   32.6490   45.7530 O   0  0  0  0  0  0  0  0  0  0  0  0
   38.8500   32.9470   45.9530 H   0  0  0  0  0  0  0  0  0  0  0  0
   36.0480   30.8610   46.5390 O   0  0  0  0  0  0  0  0  0  0  0  0
   35.7280   31.5880   47.1310 H   0  0  0  0  0  0  0  0  0  0  0  0
   33.1960   27.5840   47.9690 C   0  0  0  0  0  0  0  0  0  0  0  0
   32.7550   27.0500   48.8430 H   0  0  0  0  0  0  0  0  0  0  0  0
   32.4010   28.2140   47.5510 H   0  0  0  0  0  0  0  0  0  0  0  0
   33.6230   26.4900   47.0420 C   0  0  0  0  0  0  0  0  0  0  0  0
   33.8200   25.1720   47.3750 C   0  0  0  0  0  0  0  0  0  0  0  0
   34.2150   24.2710   46.4070 C   0  0  0  0  0  0  0  0  0  0  0  0
   34.4240   24.6540   45.0900 C   0  0  0  0  0  0  0  0  0  0  0  0
   34.2300   25.9690   44.7440 C   0  0  0  0  0  0  0  0  0  0  0  0
   33.8320   26.8770   45.7240 C   0  0  0  0  0  0  0  0  0  0  0  0
   33.6450   24.9220   48.4140 H   0  0  0  0  0  0  0  0  0  0  0  0
   34.3430   23.2600   46.7650 H   0  0  0  0  0  0  0  0  0  0  0  0
   34.7330   23.8740   44.4030 H   0  0  0  0  0  0  0  0  0  0  0  0
   34.3910   26.2750   43.7180 H   0  0  0  0  0  0  0  0  0  0  0  0
   33.7020   27.8920   45.3630 H   0  0  0  0  0  0  0  0  0  0  0  0
  1  7  1  0  0  0  0
  2  1  2  0  0  0  0
  3  9  1  0  0  0  0
  4 10  1  0  0  0  0
  4  3  2  0  0  0  0
  5  4  1  0  0  0  0
  6  5  2  0  0  0  0
  6  7  1  0  0  0  0
  7  8  2  0  0  0  0
  8  3  1  0  0  0  0
 11  5  1  0  0  0  0
 12 13  2  0  0  0  0
 13 16  1  0  0  0  0
 13 11  1  0  0  0  0
 14 15  1  0  0  0  0
 14 13  1  0  0  0  0
 16 17  1  0  0  0  0
 18  2  1  0  0  0  0
 18 19  1  0  0  0  0
 20 18  1  0  0  0  0
 21 22  1  0  0  0  0
 21 18  1  0  0  0  0
 22 27  1  0  0  0  0
 23 28  1  0  0  0  0
 23 22  2  0  0  0  0
 24 23  1  0  0  0  0
 25 24  2  0  0  0  0
 25 26  1  0  0  0  0
 26 21  2  0  0  0  0
 29 24  1  0  0  0  0
 30 25  1  0  0  0  0
 31 26  1  0  0  0  0
M  END
>  <minimizedAffinity>
-5.61051655

>  <minimizedRMSD>
0.641241848

$$$$
