
 OpenBabel03272509593D

 44 46  0  0  0  0  0  0  0  0999 V2000
   37.7870   27.2820   35.3200 C   0  0  0  0  0  0  0  0  0  0  0  0
   38.0680   28.3270   35.4880 H   0  0  0  0  0  0  0  0  0  0  0  0
   36.9820   27.0200   36.0460 H   0  0  0  0  0  0  0  0  0  0  0  0
   38.9190   26.3130   35.5600 C   0  0  0  0  0  0  0  0  0  0  0  0
   39.6720   26.3370   34.7400 H   0  0  0  0  0  0  0  0  0  0  0  0
   39.4480   26.6190   36.4670 H   0  0  0  0  0  0  0  0  0  0  0  0
   38.4480   24.9140   35.6710 C   0  0  0  0  0  0  0  0  0  0  0  0
   37.9360   24.4970   36.8900 C   0  0  0  0  0  0  0  0  0  0  0  0
   37.4750   23.2300   37.1020 C   0  0  0  0  0  0  0  0  0  0  0  0
   37.5170   22.3580   36.1020 N   0  0  0  0  0  0  0  0  0  0  0  0
   38.0190   22.7610   34.9030 C   0  0  0  0  0  0  0  0  0  0  0  0
   38.4760   24.0080   34.6830 N   0  0  0  0  0  0  0  0  0  0  0  0
   37.8910   25.2000   37.7280 H   0  0  0  0  0  0  0  0  0  0  0  0
   37.0850   22.9330   38.0490 H   0  0  0  0  0  0  0  0  0  0  0  0
   38.0540   21.7530   33.7920 C   0  0  0  0  0  0  0  0  0  0  0  0
   38.0560   20.7490   34.2230 H   0  0  0  0  0  0  0  0  0  0  0  0
   38.9390   21.9440   33.1460 H   0  0  0  0  0  0  0  0  0  0  0  0
   36.9310   21.9120   32.9690 O   0  0  0  0  0  0  0  0  0  0  0  0
   34.5790   20.9970   32.3660 O   0  0  0  0  0  0  0  0  0  0  0  0
   35.8900   20.6110   33.0550 P   0  0  0  0  0  0  0  0  0  0  0  0
   36.5920   19.2520   32.3840 O   0  0  0  0  0  0  0  0  0  0  0  0
   35.9180   18.6090   32.0010 H   0  0  0  0  0  0  0  0  0  0  0  0
   35.4660   20.3350   34.6850 O   0  0  0  0  0  0  0  0  0  0  0  0
   36.1540   20.6970   35.2750 H   0  0  0  0  0  0  0  0  0  0  0  0
   37.2450   27.0980   34.0160 O   0  0  0  0  0  0  0  0  0  0  0  0
   35.5700   29.4170   31.8080 C   0  0  0  0  0  0  0  0  0  0  0  0
   34.9850   30.2830   32.7540 C   0  0  0  0  0  0  0  0  0  0  0  0
   35.2030   30.0170   34.0990 C   0  0  0  0  0  0  0  0  0  0  0  0
   35.9760   28.9210   34.3880 N   0  0  0  0  0  0  0  0  0  0  0  0
   36.5220   28.1120   33.4710 C   0  0  0  0  0  0  0  0  0  0  0  0
   36.3060   28.3770   32.1620 N   0  0  0  0  0  0  0  0  0  0  0  0
   35.3970   29.6280   30.7720 H   0  0  0  0  0  0  0  0  0  0  0  0
   34.3890   31.1260   32.5270 H   0  0  0  0  0  0  0  0  0  0  0  0
   36.6530   31.7650   35.8920 F   0  0  0  0  0  0  0  0  0  0  0  0
   35.3400   31.6100   36.0500 C   0  0  0  0  0  0  0  0  0  0  0  0
   34.6850   30.7930   35.2060 C   0  0  0  0  0  0  0  0  0  0  0  0
   33.3150   30.6980   35.4550 C   0  0  0  0  0  0  0  0  0  0  0  0
   32.6940   31.3810   36.4740 C   0  0  0  0  0  0  0  0  0  0  0  0
   33.4100   32.2060   37.3120 C   0  0  0  0  0  0  0  0  0  0  0  0
   34.7540   32.3080   37.0790 C   0  0  0  0  0  0  0  0  0  0  0  0
   32.6650   30.0720   34.8470 H   0  0  0  0  0  0  0  0  0  0  0  0
   31.6300   31.2940   36.6510 H   0  0  0  0  0  0  0  0  0  0  0  0
   32.9100   32.7340   38.1060 H   0  0  0  0  0  0  0  0  0  0  0  0
   35.3390   32.9540   37.7290 H   0  0  0  0  0  0  0  0  0  0  0  0
  1  2  1  0  0  0  0
  1  4  1  0  0  0  0
  1  3  1  0  0  0  0
  4  7  1  0  0  0  0
  4  6  1  0  0  0  0
  5  4  1  0  0  0  0
  7  8  1  0  0  0  0
  8  9  2  0  0  0  0
  8 13  1  0  0  0  0
  9 14  1  0  0  0  0
 10  9  1  0  0  0  0
 11 10  2  0  0  0  0
 12 11  1  0  0  0  0
 12  7  2  0  0  0  0
 15 16  1  0  0  0  0
 15 11  1  0  0  0  0
 17 15  1  0  0  0  0
 18 20  1  0  0  0  0
 18 15  1  0  0  0  0
 19 20  2  0  0  0  0
 20 23  1  0  0  0  0
 21 20  1  0  0  0  0
 22 21  1  0  0  0  0
 23 24  1  0  0  0  0
 25  1  1  0  0  0  0
 26 31  2  0  0  0  0
 26 27  1  0  0  0  0
 27 28  2  0  0  0  0
 28 29  1  0  0  0  0
 28 36  1  0  0  0  0
 30 25  1  0  0  0  0
 30 29  2  0  0  0  0
 31 30  1  0  0  0  0
 32 26  1  0  0  0  0
 33 27  1  0  0  0  0
 34 35  1  0  0  0  0
 35 40  1  0  0  0  0
 36 37  1  0  0  0  0
 36 35  2  0  0  0  0
 37 38  2  0  0  0  0
 38 42  1  0  0  0  0
 38 39  1  0  0  0  0
 39 43  1  0  0  0  0
 40 39  2  0  0  0  0
 40 44  1  0  0  0  0
 41 37  1  0  0  0  0
M  END
>  <minimizedAffinity>
-6.22560596

$$$$

 OpenBabel03272509593D

 44 46  0  0  0  0  0  0  0  0999 V2000
   36.4350   22.0720   30.9880 C   0  0  0  0  0  0  0  0  0  0  0  0
   36.3130   21.8970   29.9150 H   0  0  0  0  0  0  0  0  0  0  0  0
   37.3960   22.6150   31.1430 H   0  0  0  0  0  0  0  0  0  0  0  0
   36.5230   20.7980   31.7940 C   0  0  0  0  0  0  0  0  0  0  0  0
   35.6340   20.1440   31.6430 H   0  0  0  0  0  0  0  0  0  0  0  0
   37.3840   20.2260   31.4410 H   0  0  0  0  0  0  0  0  0  0  0  0
   36.6230   21.0580   33.2480 C   0  0  0  0  0  0  0  0  0  0  0  0
   35.6220   20.5560   34.0670 C   0  0  0  0  0  0  0  0  0  0  0  0
   35.6150   20.7380   35.4200 C   0  0  0  0  0  0  0  0  0  0  0  0
   36.6060   21.4210   35.9790 N   0  0  0  0  0  0  0  0  0  0  0  0
   37.5910   21.9170   35.1810 C   0  0  0  0  0  0  0  0  0  0  0  0
   37.6080   21.7450   33.8460 N   0  0  0  0  0  0  0  0  0  0  0  0
   34.7960   19.9890   33.6270 H   0  0  0  0  0  0  0  0  0  0  0  0
   34.8350   20.3420   36.0280 H   0  0  0  0  0  0  0  0  0  0  0  0
   38.6970   22.6860   35.8420 C   0  0  0  0  0  0  0  0  0  0  0  0
   39.3980   23.0280   35.0770 H   0  0  0  0  0  0  0  0  0  0  0  0
   39.1820   22.0480   36.6140 H   0  0  0  0  0  0  0  0  0  0  0  0
   38.1690   23.7890   36.5250 O   0  0  0  0  0  0  0  0  0  0  0  0
   39.7010   23.1020   38.5030 O   0  0  0  0  0  0  0  0  0  0  0  0
   38.3040   23.6360   38.1810 P   0  0  0  0  0  0  0  0  0  0  0  0
   37.9850   25.0930   38.9330 O   0  0  0  0  0  0  0  0  0  0  0  0
   38.4650   25.1960   39.8130 H   0  0  0  0  0  0  0  0  0  0  0  0
   37.2330   22.4240   38.7250 O   0  0  0  0  0  0  0  0  0  0  0  0
   36.5020   22.3140   38.0870 H   0  0  0  0  0  0  0  0  0  0  0  0
   35.3990   22.9080   31.4950 O   0  0  0  0  0  0  0  0  0  0  0  0
   35.3040   26.4630   30.8520 C   0  0  0  0  0  0  0  0  0  0  0  0
   36.2810   26.9070   31.7640 C   0  0  0  0  0  0  0  0  0  0  0  0
   36.9180   25.9540   32.5490 C   0  0  0  0  0  0  0  0  0  0  0  0
   36.5310   24.6510   32.3620 N   0  0  0  0  0  0  0  0  0  0  0  0
   35.5980   24.2530   31.4880 C   0  0  0  0  0  0  0  0  0  0  0  0
   34.9820   25.1860   30.7260 N   0  0  0  0  0  0  0  0  0  0  0  0
   34.8170   27.2040   30.2500 H   0  0  0  0  0  0  0  0  0  0  0  0
   36.5760   27.9120   31.9060 H   0  0  0  0  0  0  0  0  0  0  0  0
   36.6870   27.4810   34.9960 F   0  0  0  0  0  0  0  0  0  0  0  0
   37.8560   26.9290   34.6770 C   0  0  0  0  0  0  0  0  0  0  0  0
   37.9420   26.2230   33.5360 C   0  0  0  0  0  0  0  0  0  0  0  0
   39.2070   25.6870   33.2920 C   0  0  0  0  0  0  0  0  0  0  0  0
   40.2690   25.8660   34.1470 C   0  0  0  0  0  0  0  0  0  0  0  0
   40.1300   26.5980   35.3050 C   0  0  0  0  0  0  0  0  0  0  0  0
   38.8950   27.1290   35.5560 C   0  0  0  0  0  0  0  0  0  0  0  0
   39.4150   25.0930   32.4040 H   0  0  0  0  0  0  0  0  0  0  0  0
   41.2430   25.4410   33.9410 H   0  0  0  0  0  0  0  0  0  0  0  0
   40.9700   26.7300   35.9640 H   0  0  0  0  0  0  0  0  0  0  0  0
   38.7630   27.7110   36.4640 H   0  0  0  0  0  0  0  0  0  0  0  0
  1  3  1  0  0  0  0
  1 25  1  0  0  0  0
  1  4  1  0  0  0  0
  2  1  1  0  0  0  0
  4  7  1  0  0  0  0
  5  4  1  0  0  0  0
  6  4  1  0  0  0  0
  7 12  2  0  0  0  0
  7  8  1  0  0  0  0
  8  9  2  0  0  0  0
  9 10  1  0  0  0  0
  9 14  1  0  0  0  0
 11 15  1  0  0  0  0
 11 10  2  0  0  0  0
 12 11  1  0  0  0  0
 13  8  1  0  0  0  0
 15 18  1  0  0  0  0
 15 17  1  0  0  0  0
 16 15  1  0  0  0  0
 18 20  1  0  0  0  0
 20 19  2  0  0  0  0
 20 23  1  0  0  0  0
 20 21  1  0  0  0  0
 21 22  1  0  0  0  0
 24 23  1  0  0  0  0
 26 27  1  0  0  0  0
 27 33  1  0  0  0  0
 27 28  2  0  0  0  0
 28 36  1  0  0  0  0
 29 28  1  0  0  0  0
 30 25  1  0  0  0  0
 30 29  2  0  0  0  0
 31 26  2  0  0  0  0
 31 30  1  0  0  0  0
 32 26  1  0  0  0  0
 35 34  1  0  0  0  0
 35 40  1  0  0  0  0
 36 35  2  0  0  0  0
 37 36  1  0  0  0  0
 37 38  2  0  0  0  0
 38 39  1  0  0  0  0
 39 40  2  0  0  0  0
 39 43  1  0  0  0  0
 40 44  1  0  0  0  0
 41 37  1  0  0  0  0
 42 38  1  0  0  0  0
M  END
>  <minimizedAffinity>
-6.15700054

$$$$

 OpenBabel03272509593D

 44 46  0  0  0  0  0  0  0  0999 V2000
   37.0820   26.2320   31.7620 C   0  0  0  0  0  0  0  0  0  0  0  0
   37.4750   26.8880   30.9790 H   0  0  0  0  0  0  0  0  0  0  0  0
   37.9480   25.7660   32.2890 H   0  0  0  0  0  0  0  0  0  0  0  0
   36.2410   25.0990   31.2270 C   0  0  0  0  0  0  0  0  0  0  0  0
   35.1510   25.3190   31.2950 H   0  0  0  0  0  0  0  0  0  0  0  0
   36.4600   24.9800   30.1630 H   0  0  0  0  0  0  0  0  0  0  0  0
   36.4710   23.8330   31.9570 C   0  0  0  0  0  0  0  0  0  0  0  0
   35.6000   22.7800   31.7210 C   0  0  0  0  0  0  0  0  0  0  0  0
   35.7190   21.5700   32.3410 C   0  0  0  0  0  0  0  0  0  0  0  0
   36.7100   21.3890   33.2050 N   0  0  0  0  0  0  0  0  0  0  0  0
   37.5690   22.4180   33.4410 C   0  0  0  0  0  0  0  0  0  0  0  0
   37.4610   23.6150   32.8370 N   0  0  0  0  0  0  0  0  0  0  0  0
   34.7760   22.9080   31.0120 H   0  0  0  0  0  0  0  0  0  0  0  0
   35.0370   20.7750   32.1420 H   0  0  0  0  0  0  0  0  0  0  0  0
   38.6790   22.1830   34.4240 C   0  0  0  0  0  0  0  0  0  0  0  0
   39.3420   23.0510   34.4250 H   0  0  0  0  0  0  0  0  0  0  0  0
   39.2080   21.2390   34.1660 H   0  0  0  0  0  0  0  0  0  0  0  0
   38.1480   21.9920   35.7060 O   0  0  0  0  0  0  0  0  0  0  0  0
   37.3980   23.9670   37.2120 O   0  0  0  0  0  0  0  0  0  0  0  0
   38.6330   23.1750   36.7780 P   0  0  0  0  0  0  0  0  0  0  0  0
   39.4480   22.4980   38.0700 O   0  0  0  0  0  0  0  0  0  0  0  0
   39.3640   23.0390   38.9150 H   0  0  0  0  0  0  0  0  0  0  0  0
   39.6170   24.3060   35.9630 O   0  0  0  0  0  0  0  0  0  0  0  0
   40.0200   23.8910   35.1770 H   0  0  0  0  0  0  0  0  0  0  0  0
   36.3540   26.9730   32.7360 O   0  0  0  0  0  0  0  0  0  0  0  0
   36.4270   30.3720   31.5100 C   0  0  0  0  0  0  0  0  0  0  0  0
   35.8420   31.0430   32.6020 C   0  0  0  0  0  0  0  0  0  0  0  0
   35.4560   30.2840   33.6990 C   0  0  0  0  0  0  0  0  0  0  0  0
   35.6820   28.9330   33.6180 N   0  0  0  0  0  0  0  0  0  0  0  0
   36.2400   28.3180   32.5680 C   0  0  0  0  0  0  0  0  0  0  0  0
   36.6150   29.0620   31.5030 N   0  0  0  0  0  0  0  0  0  0  0  0
   36.7220   30.9640   30.6670 H   0  0  0  0  0  0  0  0  0  0  0  0
   35.6680   32.0840   32.6610 H   0  0  0  0  0  0  0  0  0  0  0  0
   36.6690   31.8840   35.7830 F   0  0  0  0  0  0  0  0  0  0  0  0
   35.3850   31.5420   35.8840 C   0  0  0  0  0  0  0  0  0  0  0  0
   34.8410   30.7980   34.9050 C   0  0  0  0  0  0  0  0  0  0  0  0
   33.4940   30.4930   35.1040 C   0  0  0  0  0  0  0  0  0  0  0  0
   32.7900   30.9170   36.2060 C   0  0  0  0  0  0  0  0  0  0  0  0
   33.3930   31.6780   37.1820 C   0  0  0  0  0  0  0  0  0  0  0  0
   34.7140   31.9840   36.9990 C   0  0  0  0  0  0  0  0  0  0  0  0
   32.9310   29.8980   34.3890 H   0  0  0  0  0  0  0  0  0  0  0  0
   31.7450   30.6700   36.3430 H   0  0  0  0  0  0  0  0  0  0  0  0
   32.8290   32.0020   38.0390 H   0  0  0  0  0  0  0  0  0  0  0  0
   35.2100   32.5830   37.7580 H   0  0  0  0  0  0  0  0  0  0  0  0
  1  3  1  0  0  0  0
  1 25  1  0  0  0  0
  2  1  1  0  0  0  0
  4  5  1  0  0  0  0
  4  1  1  0  0  0  0
  4  7  1  0  0  0  0
  6  4  1  0  0  0  0
  7 12  1  0  0  0  0
  8  7  2  0  0  0  0
  8  9  1  0  0  0  0
  9 10  2  0  0  0  0
 10 11  1  0  0  0  0
 11 15  1  0  0  0  0
 12 11  2  0  0  0  0
 13  8  1  0  0  0  0
 14  9  1  0  0  0  0
 15 16  1  0  0  0  0
 15 18  1  0  0  0  0
 17 15  1  0  0  0  0
 18 20  1  0  0  0  0
 20 19  2  0  0  0  0
 20 21  1  0  0  0  0
 21 22  1  0  0  0  0
 23 20  1  0  0  0  0
 24 23  1  0  0  0  0
 26 27  1  0  0  0  0
 27 33  1  0  0  0  0
 27 28  2  0  0  0  0
 28 36  1  0  0  0  0
 29 28  1  0  0  0  0
 30 25  1  0  0  0  0
 30 29  2  0  0  0  0
 31 26  2  0  0  0  0
 31 30  1  0  0  0  0
 32 26  1  0  0  0  0
 34 35  1  0  0  0  0
 35 40  1  0  0  0  0
 36 37  1  0  0  0  0
 36 35  2  0  0  0  0
 37 38  2  0  0  0  0
 38 42  1  0  0  0  0
 38 39  1  0  0  0  0
 39 43  1  0  0  0  0
 40 39  2  0  0  0  0
 40 44  1  0  0  0  0
 41 37  1  0  0  0  0
M  END
>  <minimizedAffinity>
-6.13633156

$$$$

 OpenBabel03272509593D

 44 46  0  0  0  0  0  0  0  0999 V2000
   38.3380   26.5980   32.0400 C   0  0  0  0  0  0  0  0  0  0  0  0
   38.3110   25.6320   31.5270 H   0  0  0  0  0  0  0  0  0  0  0  0
   38.5850   27.3830   31.2870 H   0  0  0  0  0  0  0  0  0  0  0  0
   39.4000   26.6760   33.1100 C   0  0  0  0  0  0  0  0  0  0  0  0
   40.3570   26.2070   32.7860 H   0  0  0  0  0  0  0  0  0  0  0  0
   39.6260   27.7290   33.2960 H   0  0  0  0  0  0  0  0  0  0  0  0
   38.9900   25.9960   34.3600 C   0  0  0  0  0  0  0  0  0  0  0  0
   38.6500   26.7870   35.4470 C   0  0  0  0  0  0  0  0  0  0  0  0
   38.2590   26.2640   36.6460 C   0  0  0  0  0  0  0  0  0  0  0  0
   38.2000   24.9450   36.7800 N   0  0  0  0  0  0  0  0  0  0  0  0
   38.5330   24.1640   35.7170 C   0  0  0  0  0  0  0  0  0  0  0  0
   38.9200   24.6670   34.5310 N   0  0  0  0  0  0  0  0  0  0  0  0
   38.6910   27.8770   35.3580 H   0  0  0  0  0  0  0  0  0  0  0  0
   38.0020   26.8930   37.4670 H   0  0  0  0  0  0  0  0  0  0  0  0
   38.4570   22.6760   35.9000 C   0  0  0  0  0  0  0  0  0  0  0  0
   37.7720   22.2610   35.1570 H   0  0  0  0  0  0  0  0  0  0  0  0
   38.1480   22.4460   36.9440 H   0  0  0  0  0  0  0  0  0  0  0  0
   39.7280   22.1100   35.7390 O   0  0  0  0  0  0  0  0  0  0  0  0
   41.7480   23.2760   36.8740 O   0  0  0  0  0  0  0  0  0  0  0  0
   40.6590   22.2300   37.1180 P   0  0  0  0  0  0  0  0  0  0  0  0
   39.7050   22.5940   38.4400 O   0  0  0  0  0  0  0  0  0  0  0  0
   40.1990   23.1050   39.1540 H   0  0  0  0  0  0  0  0  0  0  0  0
   41.5010   20.7660   37.3600 O   0  0  0  0  0  0  0  0  0  0  0  0
   41.0320   20.0340   36.9160 H   0  0  0  0  0  0  0  0  0  0  0  0
   37.0630   26.9300   32.5810 O   0  0  0  0  0  0  0  0  0  0  0  0
   35.8870   29.9090   30.9080 C   0  0  0  0  0  0  0  0  0  0  0  0
   35.3330   30.6060   32.0000 C   0  0  0  0  0  0  0  0  0  0  0  0
   35.3970   30.0080   33.2520 C   0  0  0  0  0  0  0  0  0  0  0  0
   36.0020   28.7770   33.3110 N   0  0  0  0  0  0  0  0  0  0  0  0
   36.5210   28.1340   32.2570 C   0  0  0  0  0  0  0  0  0  0  0  0
   36.4560   28.7220   31.0410 N   0  0  0  0  0  0  0  0  0  0  0  0
   35.8330   30.3770   29.9460 H   0  0  0  0  0  0  0  0  0  0  0  0
   34.8670   31.5540   31.9510 H   0  0  0  0  0  0  0  0  0  0  0  0
   32.7570   29.6990   34.3950 F   0  0  0  0  0  0  0  0  0  0  0  0
   33.6630   30.4400   35.0300 C   0  0  0  0  0  0  0  0  0  0  0  0
   34.8830   30.5710   34.4820 C   0  0  0  0  0  0  0  0  0  0  0  0
   35.7580   31.3660   35.2240 C   0  0  0  0  0  0  0  0  0  0  0  0
   35.3990   31.9620   36.4100 C   0  0  0  0  0  0  0  0  0  0  0  0
   34.1340   31.7970   36.9300 C   0  0  0  0  0  0  0  0  0  0  0  0
   33.2670   31.0200   36.2130 C   0  0  0  0  0  0  0  0  0  0  0  0
   36.7780   31.5540   34.8960 H   0  0  0  0  0  0  0  0  0  0  0  0
   36.0920   32.5750   36.9710 H   0  0  0  0  0  0  0  0  0  0  0  0
   33.8670   32.2700   37.8590 H   0  0  0  0  0  0  0  0  0  0  0  0
   32.2640   30.8770   36.6050 H   0  0  0  0  0  0  0  0  0  0  0  0
  1 25  1  0  0  0  0
  1  4  1  0  0  0  0
  2  1  1  0  0  0  0
  3  1  1  0  0  0  0
  4  6  1  0  0  0  0
  4  7  1  0  0  0  0
  5  4  1  0  0  0  0
  7 12  2  0  0  0  0
  7  8  1  0  0  0  0
  8  9  2  0  0  0  0
  9 10  1  0  0  0  0
  9 14  1  0  0  0  0
 11 15  1  0  0  0  0
 11 10  2  0  0  0  0
 12 11  1  0  0  0  0
 13  8  1  0  0  0  0
 15 17  1  0  0  0  0
 16 15  1  0  0  0  0
 18 15  1  0  0  0  0
 18 20  1  0  0  0  0
 19 20  2  0  0  0  0
 20 23  1  0  0  0  0
 20 21  1  0  0  0  0
 21 22  1  0  0  0  0
 24 23  1  0  0  0  0
 26 31  2  0  0  0  0
 26 27  1  0  0  0  0
 27 28  2  0  0  0  0
 28 29  1  0  0  0  0
 28 36  1  0  0  0  0
 30 25  1  0  0  0  0
 30 29  2  0  0  0  0
 31 30  1  0  0  0  0
 32 26  1  0  0  0  0
 33 27  1  0  0  0  0
 34 35  1  0  0  0  0
 35 40  1  0  0  0  0
 36 35  2  0  0  0  0
 36 37  1  0  0  0  0
 37 38  2  0  0  0  0
 38 39  1  0  0  0  0
 38 42  1  0  0  0  0
 39 43  1  0  0  0  0
 40 44  1  0  0  0  0
 40 39  2  0  0  0  0
 41 37  1  0  0  0  0
M  END
>  <minimizedAffinity>
-6.06906748

$$$$

 OpenBabel03272509593D

 44 46  0  0  0  0  0  0  0  0999 V2000
   37.7810   21.8400   33.6390 C   0  0  0  0  0  0  0  0  0  0  0  0
   38.6240   22.5390   33.6370 H   0  0  0  0  0  0  0  0  0  0  0  0
   38.1860   20.8090   33.5100 H   0  0  0  0  0  0  0  0  0  0  0  0
   36.8130   22.0700   32.5040 C   0  0  0  0  0  0  0  0  0  0  0  0
   37.1240   21.5420   31.5740 H   0  0  0  0  0  0  0  0  0  0  0  0
   35.8460   21.6460   32.7860 H   0  0  0  0  0  0  0  0  0  0  0  0
   36.6790   23.5040   32.1600 C   0  0  0  0  0  0  0  0  0  0  0  0
   35.5690   23.8940   31.4270 C   0  0  0  0  0  0  0  0  0  0  0  0
   35.3480   25.1890   31.0550 C   0  0  0  0  0  0  0  0  0  0  0  0
   36.2290   26.1150   31.4080 N   0  0  0  0  0  0  0  0  0  0  0  0
   37.3220   25.7390   32.1280 C   0  0  0  0  0  0  0  0  0  0  0  0
   37.5500   24.4660   32.5000 N   0  0  0  0  0  0  0  0  0  0  0  0
   34.8290   23.1460   31.1250 H   0  0  0  0  0  0  0  0  0  0  0  0
   34.4860   25.4640   30.4920 H   0  0  0  0  0  0  0  0  0  0  0  0
   38.3010   26.8090   32.5120 C   0  0  0  0  0  0  0  0  0  0  0  0
   38.3010   27.5840   31.7430 H   0  0  0  0  0  0  0  0  0  0  0  0
   39.3060   26.3560   32.6640 H   0  0  0  0  0  0  0  0  0  0  0  0
   37.9370   27.3670   33.7450 O   0  0  0  0  0  0  0  0  0  0  0  0
   40.4080   27.0860   34.4860 O   0  0  0  0  0  0  0  0  0  0  0  0
   38.9680   26.9170   34.9770 P   0  0  0  0  0  0  0  0  0  0  0  0
   38.6530   27.8000   36.3590 O   0  0  0  0  0  0  0  0  0  0  0  0
   39.4640   27.9160   36.9450 H   0  0  0  0  0  0  0  0  0  0  0  0
   38.7980   25.2440   35.2720 O   0  0  0  0  0  0  0  0  0  0  0  0
   37.9190   24.9410   34.9720 H   0  0  0  0  0  0  0  0  0  0  0  0
   37.0970   21.8630   34.8880 O   0  0  0  0  0  0  0  0  0  0  0  0
   38.0640   23.2710   38.0720 C   0  0  0  0  0  0  0  0  0  0  0  0
   39.4630   23.1180   37.9970 C   0  0  0  0  0  0  0  0  0  0  0  0
   39.9920   22.5390   36.8510 C   0  0  0  0  0  0  0  0  0  0  0  0
   39.0930   22.1620   35.8850 N   0  0  0  0  0  0  0  0  0  0  0  0
   37.7670   22.3170   35.9800 C   0  0  0  0  0  0  0  0  0  0  0  0
   37.2570   22.8830   37.0980 N   0  0  0  0  0  0  0  0  0  0  0  0
   37.6640   23.7180   38.9590 H   0  0  0  0  0  0  0  0  0  0  0  0
   40.1530   23.4090   38.7430 H   0  0  0  0  0  0  0  0  0  0  0  0
   41.9440   24.3680   35.7480 F   0  0  0  0  0  0  0  0  0  0  0  0
   42.3200   23.1370   36.0880 C   0  0  0  0  0  0  0  0  0  0  0  0
   41.3980   22.3020   36.5980 C   0  0  0  0  0  0  0  0  0  0  0  0
   41.8920   21.0380   36.9210 C   0  0  0  0  0  0  0  0  0  0  0  0
   43.2060   20.6810   36.7320 C   0  0  0  0  0  0  0  0  0  0  0  0
   44.1130   21.5730   36.2050 C   0  0  0  0  0  0  0  0  0  0  0  0
   43.6420   22.8160   35.8840 C   0  0  0  0  0  0  0  0  0  0  0  0
   41.2530   20.2650   37.3430 H   0  0  0  0  0  0  0  0  0  0  0  0
   43.5700   19.6950   36.9890 H   0  0  0  0  0  0  0  0  0  0  0  0
   45.1380   21.2790   36.0620 H   0  0  0  0  0  0  0  0  0  0  0  0
   44.3400   23.5360   35.4660 H   0  0  0  0  0  0  0  0  0  0  0  0
  1 25  1  0  0  0  0
  2  1  1  0  0  0  0
  3  1  1  0  0  0  0
  4  6  1  0  0  0  0
  4  1  1  0  0  0  0
  5  4  1  0  0  0  0
  7 12  1  0  0  0  0
  7  4  1  0  0  0  0
  8  7  2  0  0  0  0
  9 10  2  0  0  0  0
  9  8  1  0  0  0  0
 10 11  1  0  0  0  0
 11 12  2  0  0  0  0
 11 15  1  0  0  0  0
 13  8  1  0  0  0  0
 14  9  1  0  0  0  0
 15 17  1  0  0  0  0
 15 18  1  0  0  0  0
 16 15  1  0  0  0  0
 18 20  1  0  0  0  0
 19 20  2  0  0  0  0
 20 23  1  0  0  0  0
 20 21  1  0  0  0  0
 21 22  1  0  0  0  0
 24 23  1  0  0  0  0
 25 30  1  0  0  0  0
 26 32  1  0  0  0  0
 27 26  1  0  0  0  0
 27 33  1  0  0  0  0
 28 27  2  0  0  0  0
 29 30  2  0  0  0  0
 29 28  1  0  0  0  0
 30 31  1  0  0  0  0
 31 26  2  0  0  0  0
 34 35  1  0  0  0  0
 35 36  1  0  0  0  0
 36 28  1  0  0  0  0
 36 37  2  0  0  0  0
 37 41  1  0  0  0  0
 38 37  1  0  0  0  0
 38 42  1  0  0  0  0
 39 38  2  0  0  0  0
 40 35  2  0  0  0  0
 40 39  1  0  0  0  0
 43 39  1  0  0  0  0
 44 40  1  0  0  0  0
M  END
>  <minimizedAffinity>
-6.04349661

$$$$

 OpenBabel03272509593D

 44 46  0  0  0  0  0  0  0  0999 V2000
   35.4280   21.8570   32.3690 C   0  0  0  0  0  0  0  0  0  0  0  0
   35.1770   22.4970   33.2210 H   0  0  0  0  0  0  0  0  0  0  0  0
   34.4950   21.3460   32.0340 H   0  0  0  0  0  0  0  0  0  0  0  0
   36.4180   20.7690   32.7110 C   0  0  0  0  0  0  0  0  0  0  0  0
   36.0310   20.0820   33.4970 H   0  0  0  0  0  0  0  0  0  0  0  0
   36.5750   20.1550   31.8210 H   0  0  0  0  0  0  0  0  0  0  0  0
   37.7020   21.3130   33.2100 C   0  0  0  0  0  0  0  0  0  0  0  0
   38.8510   21.0220   32.4920 C   0  0  0  0  0  0  0  0  0  0  0  0
   40.0860   21.4710   32.8630 C   0  0  0  0  0  0  0  0  0  0  0  0
   40.1940   22.2180   33.9540 N   0  0  0  0  0  0  0  0  0  0  0  0
   39.0690   22.5070   34.6640 C   0  0  0  0  0  0  0  0  0  0  0  0
   37.8470   22.0700   34.3080 N   0  0  0  0  0  0  0  0  0  0  0  0
   38.7850   20.4080   31.5880 H   0  0  0  0  0  0  0  0  0  0  0  0
   40.9560   21.2350   32.2940 H   0  0  0  0  0  0  0  0  0  0  0  0
   39.2230   23.3530   35.8930 C   0  0  0  0  0  0  0  0  0  0  0  0
   39.5720   24.3460   35.6000 H   0  0  0  0  0  0  0  0  0  0  0  0
   39.9130   22.8490   36.6060 H   0  0  0  0  0  0  0  0  0  0  0  0
   37.9930   23.4610   36.5550 O   0  0  0  0  0  0  0  0  0  0  0  0
   37.9940   24.8170   38.7670 O   0  0  0  0  0  0  0  0  0  0  0  0
   38.1550   23.3990   38.2140 P   0  0  0  0  0  0  0  0  0  0  0  0
   37.0570   22.3260   38.8720 O   0  0  0  0  0  0  0  0  0  0  0  0
   36.7910   22.5620   39.8140 H   0  0  0  0  0  0  0  0  0  0  0  0
   39.7540   22.9520   38.6080 O   0  0  0  0  0  0  0  0  0  0  0  0
   40.1560   22.4630   37.8650 H   0  0  0  0  0  0  0  0  0  0  0  0
   35.8980   22.6270   31.2680 O   0  0  0  0  0  0  0  0  0  0  0  0
   35.1200   26.1420   30.9540 C   0  0  0  0  0  0  0  0  0  0  0  0
   36.0820   26.6890   31.8270 C   0  0  0  0  0  0  0  0  0  0  0  0
   36.9440   25.8120   32.4740 C   0  0  0  0  0  0  0  0  0  0  0  0
   36.7780   24.4780   32.2000 N   0  0  0  0  0  0  0  0  0  0  0  0
   35.8550   23.9820   31.3660 C   0  0  0  0  0  0  0  0  0  0  0  0
   35.0190   24.8410   30.7390 N   0  0  0  0  0  0  0  0  0  0  0  0
   34.4580   26.8240   30.4590 H   0  0  0  0  0  0  0  0  0  0  0  0
   36.2070   27.7170   32.0360 H   0  0  0  0  0  0  0  0  0  0  0  0
   36.6670   27.0490   35.0750 F   0  0  0  0  0  0  0  0  0  0  0  0
   37.8820   26.7640   34.6120 C   0  0  0  0  0  0  0  0  0  0  0  0
   37.9890   26.1900   33.4010 C   0  0  0  0  0  0  0  0  0  0  0  0
   39.3030   25.9330   33.0080 C   0  0  0  0  0  0  0  0  0  0  0  0
   40.3900   26.2420   33.7920 C   0  0  0  0  0  0  0  0  0  0  0  0
   40.2270   26.8300   35.0260 C   0  0  0  0  0  0  0  0  0  0  0  0
   38.9440   27.0870   35.4240 C   0  0  0  0  0  0  0  0  0  0  0  0
   39.5330   25.4700   32.0500 H   0  0  0  0  0  0  0  0  0  0  0  0
   41.4020   26.0340   33.4690 H   0  0  0  0  0  0  0  0  0  0  0  0
   41.0870   27.0660   35.6290 H   0  0  0  0  0  0  0  0  0  0  0  0
   38.7920   27.5520   36.3940 H   0  0  0  0  0  0  0  0  0  0  0  0
  1  4  1  0  0  0  0
  1  2  1  0  0  0  0
  3  1  1  0  0  0  0
  4  7  1  0  0  0  0
  4  5  1  0  0  0  0
  6  4  1  0  0  0  0
  7 12  1  0  0  0  0
  8  9  1  0  0  0  0
  8  7  2  0  0  0  0
  9 10  2  0  0  0  0
 10 11  1  0  0  0  0
 11 15  1  0  0  0  0
 12 11  2  0  0  0  0
 13  8  1  0  0  0  0
 14  9  1  0  0  0  0
 15 18  1  0  0  0  0
 15 17  1  0  0  0  0
 16 15  1  0  0  0  0
 18 20  1  0  0  0  0
 20 23  1  0  0  0  0
 20 19  2  0  0  0  0
 20 21  1  0  0  0  0
 21 22  1  0  0  0  0
 24 23  1  0  0  0  0
 25 30  1  0  0  0  0
 25  1  1  0  0  0  0
 26 27  1  0  0  0  0
 27 33  1  0  0  0  0
 27 28  2  0  0  0  0
 28 36  1  0  0  0  0
 29 28  1  0  0  0  0
 30 29  2  0  0  0  0
 31 26  2  0  0  0  0
 31 30  1  0  0  0  0
 32 26  1  0  0  0  0
 35 34  1  0  0  0  0
 35 40  1  0  0  0  0
 36 35  2  0  0  0  0
 37 36  1  0  0  0  0
 37 38  2  0  0  0  0
 38 39  1  0  0  0  0
 39 40  2  0  0  0  0
 39 43  1  0  0  0  0
 40 44  1  0  0  0  0
 41 37  1  0  0  0  0
 42 38  1  0  0  0  0
M  END
>  <minimizedAffinity>
-5.94521284

$$$$

 OpenBabel03272509593D

 44 46  0  0  0  0  0  0  0  0999 V2000
   36.0980   25.7540   31.5950 C   0  0  0  0  0  0  0  0  0  0  0  0
   35.5420   25.6090   32.5260 H   0  0  0  0  0  0  0  0  0  0  0  0
   35.4060   26.2010   30.8440 H   0  0  0  0  0  0  0  0  0  0  0  0
   36.6110   24.4660   30.9980 C   0  0  0  0  0  0  0  0  0  0  0  0
   35.9570   24.0960   30.1760 H   0  0  0  0  0  0  0  0  0  0  0  0
   37.5860   24.6600   30.5460 H   0  0  0  0  0  0  0  0  0  0  0  0
   36.7000   23.3780   31.9990 C   0  0  0  0  0  0  0  0  0  0  0  0
   35.7660   22.3560   31.9300 C   0  0  0  0  0  0  0  0  0  0  0  0
   35.7560   21.3060   32.8020 C   0  0  0  0  0  0  0  0  0  0  0  0
   36.6770   21.2570   33.7560 N   0  0  0  0  0  0  0  0  0  0  0  0
   37.5960   22.2580   33.8290 C   0  0  0  0  0  0  0  0  0  0  0  0
   37.6160   23.2980   32.9750 N   0  0  0  0  0  0  0  0  0  0  0  0
   34.9970   22.3760   31.1500 H   0  0  0  0  0  0  0  0  0  0  0  0
   35.0270   20.5310   32.7280 H   0  0  0  0  0  0  0  0  0  0  0  0
   38.6250   22.1760   34.9180 C   0  0  0  0  0  0  0  0  0  0  0  0
   39.5990   21.9600   34.4720 H   0  0  0  0  0  0  0  0  0  0  0  0
   38.3150   21.4100   35.6640 H   0  0  0  0  0  0  0  0  0  0  0  0
   38.6840   23.3920   35.6120 O   0  0  0  0  0  0  0  0  0  0  0  0
   38.0210   24.6390   37.7880 O   0  0  0  0  0  0  0  0  0  0  0  0
   38.2160   23.2380   37.2060 P   0  0  0  0  0  0  0  0  0  0  0  0
   36.8430   22.2950   37.3270 O   0  0  0  0  0  0  0  0  0  0  0  0
   36.2760   22.5250   38.1280 H   0  0  0  0  0  0  0  0  0  0  0  0
   39.4990   22.5620   38.1070 O   0  0  0  0  0  0  0  0  0  0  0  0
   40.0890   22.0560   37.5180 H   0  0  0  0  0  0  0  0  0  0  0  0
   37.1680   26.6780   31.7730 O   0  0  0  0  0  0  0  0  0  0  0  0
   37.5440   27.4670   35.2790 C   0  0  0  0  0  0  0  0  0  0  0  0
   38.9220   27.2220   35.4430 C   0  0  0  0  0  0  0  0  0  0  0  0
   39.6420   26.7990   34.3340 C   0  0  0  0  0  0  0  0  0  0  0  0
   38.9370   26.6560   33.1650 N   0  0  0  0  0  0  0  0  0  0  0  0
   37.6260   26.8950   33.0340 C   0  0  0  0  0  0  0  0  0  0  0  0
   36.9300   27.3070   34.1180 N   0  0  0  0  0  0  0  0  0  0  0  0
   36.9940   27.7930   36.1390 H   0  0  0  0  0  0  0  0  0  0  0  0
   39.4610   27.3330   36.3450 H   0  0  0  0  0  0  0  0  0  0  0  0
   41.7540   28.2390   32.9770 F   0  0  0  0  0  0  0  0  0  0  0  0
   42.0540   27.1550   33.6900 C   0  0  0  0  0  0  0  0  0  0  0  0
   41.0580   26.5010   34.3130 C   0  0  0  0  0  0  0  0  0  0  0  0
   41.4760   25.3800   35.0320 C   0  0  0  0  0  0  0  0  0  0  0  0
   42.7910   24.9840   35.0960 C   0  0  0  0  0  0  0  0  0  0  0  0
   43.7760   25.6890   34.4400 C   0  0  0  0  0  0  0  0  0  0  0  0
   43.3790   26.7890   33.7310 C   0  0  0  0  0  0  0  0  0  0  0  0
   40.7730   24.7600   35.5840 H   0  0  0  0  0  0  0  0  0  0  0  0
   43.0960   24.1120   35.6600 H   0  0  0  0  0  0  0  0  0  0  0  0
   44.8010   25.3660   34.4980 H   0  0  0  0  0  0  0  0  0  0  0  0
   44.1390   27.3600   33.2050 H   0  0  0  0  0  0  0  0  0  0  0  0
  1 25  1  0  0  0  0
  1  2  1  0  0  0  0
  3  1  1  0  0  0  0
  4  1  1  0  0  0  0
  4  7  1  0  0  0  0
  5  4  1  0  0  0  0
  6  4  1  0  0  0  0
  7 12  1  0  0  0  0
  8  7  2  0  0  0  0
  8  9  1  0  0  0  0
  9 10  2  0  0  0  0
 10 11  1  0  0  0  0
 11 15  1  0  0  0  0
 12 11  2  0  0  0  0
 13  8  1  0  0  0  0
 14  9  1  0  0  0  0
 15 18  1  0  0  0  0
 15 17  1  0  0  0  0
 16 15  1  0  0  0  0
 18 20  1  0  0  0  0
 20 21  1  0  0  0  0
 20 19  2  0  0  0  0
 20 23  1  0  0  0  0
 21 22  1  0  0  0  0
 24 23  1  0  0  0  0
 25 30  1  0  0  0  0
 26 27  1  0  0  0  0
 26 32  1  0  0  0  0
 27 33  1  0  0  0  0
 28 27  2  0  0  0  0
 29 28  1  0  0  0  0
 30 29  2  0  0  0  0
 30 31  1  0  0  0  0
 31 26  2  0  0  0  0
 34 35  1  0  0  0  0
 35 40  2  0  0  0  0
 35 36  1  0  0  0  0
 36 28  1  0  0  0  0
 36 37  2  0  0  0  0
 37 38  1  0  0  0  0
 37 41  1  0  0  0  0
 38 42  1  0  0  0  0
 39 43  1  0  0  0  0
 39 38  2  0  0  0  0
 40 39  1  0  0  0  0
 44 40  1  0  0  0  0
M  END
>  <minimizedAffinity>
-5.9346714

$$$$

 OpenBabel03272509593D

 44 46  0  0  0  0  0  0  0  0999 V2000
   35.4570   25.3650   31.1580 C   0  0  0  0  0  0  0  0  0  0  0  0
   34.8720   25.1480   32.0570 H   0  0  0  0  0  0  0  0  0  0  0  0
   34.7500   25.4720   30.3030 H   0  0  0  0  0  0  0  0  0  0  0  0
   36.4180   24.2610   30.7900 C   0  0  0  0  0  0  0  0  0  0  0  0
   36.1340   23.7580   29.8370 H   0  0  0  0  0  0  0  0  0  0  0  0
   37.4020   24.7040   30.6180 H   0  0  0  0  0  0  0  0  0  0  0  0
   36.4880   23.2060   31.8270 C   0  0  0  0  0  0  0  0  0  0  0  0
   35.4670   22.2700   31.8690 C   0  0  0  0  0  0  0  0  0  0  0  0
   35.4320   21.2560   32.7830 C   0  0  0  0  0  0  0  0  0  0  0  0
   36.4150   21.1600   33.6700 N   0  0  0  0  0  0  0  0  0  0  0  0
   37.4210   22.0770   33.6340 C   0  0  0  0  0  0  0  0  0  0  0  0
   37.4660   23.0800   32.7370 N   0  0  0  0  0  0  0  0  0  0  0  0
   34.6460   22.3290   31.1470 H   0  0  0  0  0  0  0  0  0  0  0  0
   34.6360   20.5480   32.7960 H   0  0  0  0  0  0  0  0  0  0  0  0
   38.5180   21.9430   34.6480 C   0  0  0  0  0  0  0  0  0  0  0  0
   39.2190   22.7710   34.5260 H   0  0  0  0  0  0  0  0  0  0  0  0
   39.0050   20.9490   34.5380 H   0  0  0  0  0  0  0  0  0  0  0  0
   37.9780   21.9690   35.9410 O   0  0  0  0  0  0  0  0  0  0  0  0
   37.4740   24.2790   37.0080 O   0  0  0  0  0  0  0  0  0  0  0  0
   38.5760   23.2290   36.8560 P   0  0  0  0  0  0  0  0  0  0  0  0
   39.1390   22.6720   38.3260 O   0  0  0  0  0  0  0  0  0  0  0  0
   39.0820   23.3630   39.0570 H   0  0  0  0  0  0  0  0  0  0  0  0
   39.8180   24.0160   35.9880 O   0  0  0  0  0  0  0  0  0  0  0  0
   40.2050   23.4050   35.3330 H   0  0  0  0  0  0  0  0  0  0  0  0
   36.1480   26.6040   31.2810 O   0  0  0  0  0  0  0  0  0  0  0  0
   37.7000   27.0140   34.5180 C   0  0  0  0  0  0  0  0  0  0  0  0
   36.9860   28.1310   34.9970 C   0  0  0  0  0  0  0  0  0  0  0  0
   36.0100   28.6780   34.1750 C   0  0  0  0  0  0  0  0  0  0  0  0
   35.8280   28.0740   32.9560 N   0  0  0  0  0  0  0  0  0  0  0  0
   36.5200   27.0120   32.5230 C   0  0  0  0  0  0  0  0  0  0  0  0
   37.4690   26.4840   33.3290 N   0  0  0  0  0  0  0  0  0  0  0  0
   38.4520   26.5980   35.1580 H   0  0  0  0  0  0  0  0  0  0  0  0
   37.1290   28.5940   35.9360 H   0  0  0  0  0  0  0  0  0  0  0  0
   36.6240   30.8990   35.9240 F   0  0  0  0  0  0  0  0  0  0  0  0
   35.4460   30.8600   35.3050 C   0  0  0  0  0  0  0  0  0  0  0  0
   35.1800   29.8200   34.4970 C   0  0  0  0  0  0  0  0  0  0  0  0
   33.9220   29.8730   33.8970 C   0  0  0  0  0  0  0  0  0  0  0  0
   33.0340   30.9000   34.1160 C   0  0  0  0  0  0  0  0  0  0  0  0
   33.3550   31.9450   34.9540 C   0  0  0  0  0  0  0  0  0  0  0  0
   34.5860   31.9050   35.5490 C   0  0  0  0  0  0  0  0  0  0  0  0
   33.5780   29.0940   33.2180 H   0  0  0  0  0  0  0  0  0  0  0  0
   32.0630   30.9230   33.6400 H   0  0  0  0  0  0  0  0  0  0  0  0
   32.6500   32.7420   35.1160 H   0  0  0  0  0  0  0  0  0  0  0  0
   34.8590   32.7190   36.2150 H   0  0  0  0  0  0  0  0  0  0  0  0
  1 25  1  0  0  0  0
  1  2  1  0  0  0  0
  3  1  1  0  0  0  0
  4  1  1  0  0  0  0
  4  7  1  0  0  0  0
  5  4  1  0  0  0  0
  6  4  1  0  0  0  0
  7  8  2  0  0  0  0
  7 12  1  0  0  0  0
  8  9  1  0  0  0  0
  9 14  1  0  0  0  0
  9 10  2  0  0  0  0
 11 10  1  0  0  0  0
 11 15  1  0  0  0  0
 12 11  2  0  0  0  0
 13  8  1  0  0  0  0
 15 18  1  0  0  0  0
 16 15  1  0  0  0  0
 17 15  1  0  0  0  0
 18 20  1  0  0  0  0
 20 19  2  0  0  0  0
 20 21  1  0  0  0  0
 21 22  1  0  0  0  0
 23 20  1  0  0  0  0
 24 23  1  0  0  0  0
 25 30  1  0  0  0  0
 26 27  1  0  0  0  0
 26 32  1  0  0  0  0
 27 33  1  0  0  0  0
 28 36  1  0  0  0  0
 28 27  2  0  0  0  0
 29 28  1  0  0  0  0
 30 29  2  0  0  0  0
 30 31  1  0  0  0  0
 31 26  2  0  0  0  0
 35 40  1  0  0  0  0
 35 34  1  0  0  0  0
 36 35  2  0  0  0  0
 37 38  2  0  0  0  0
 37 36  1  0  0  0  0
 38 39  1  0  0  0  0
 39 43  1  0  0  0  0
 39 40  2  0  0  0  0
 40 44  1  0  0  0  0
 41 37  1  0  0  0  0
 42 38  1  0  0  0  0
M  END
>  <minimizedAffinity>
-5.89094687

$$$$

 OpenBabel03272509593D

 44 46  0  0  0  0  0  0  0  0999 V2000
   36.2380   26.7850   30.9280 C   0  0  0  0  0  0  0  0  0  0  0  0
   37.1400   26.8580   30.3110 H   0  0  0  0  0  0  0  0  0  0  0  0
   35.4090   27.3000   30.3900 H   0  0  0  0  0  0  0  0  0  0  0  0
   36.3750   27.4670   32.2680 C   0  0  0  0  0  0  0  0  0  0  0  0
   36.4330   28.5750   32.1700 H   0  0  0  0  0  0  0  0  0  0  0  0
   35.4740   27.2610   32.8520 H   0  0  0  0  0  0  0  0  0  0  0  0
   37.5880   27.0350   32.9980 C   0  0  0  0  0  0  0  0  0  0  0  0
   38.8210   27.3410   32.4450 C   0  0  0  0  0  0  0  0  0  0  0  0
   40.0020   26.9900   33.0340 C   0  0  0  0  0  0  0  0  0  0  0  0
   39.9710   26.3300   34.1840 N   0  0  0  0  0  0  0  0  0  0  0  0
   38.7630   26.0260   34.7330 C   0  0  0  0  0  0  0  0  0  0  0  0
   37.5930   26.3670   34.1620 N   0  0  0  0  0  0  0  0  0  0  0  0
   38.8700   27.8860   31.4960 H   0  0  0  0  0  0  0  0  0  0  0  0
   40.9380   27.2370   32.5890 H   0  0  0  0  0  0  0  0  0  0  0  0
   38.7610   25.2790   36.0340 C   0  0  0  0  0  0  0  0  0  0  0  0
   38.5060   25.9700   36.8410 H   0  0  0  0  0  0  0  0  0  0  0  0
   39.7500   24.7920   36.1840 H   0  0  0  0  0  0  0  0  0  0  0  0
   37.8210   24.2410   35.9870 O   0  0  0  0  0  0  0  0  0  0  0  0
   37.6600   24.2090   38.5760 O   0  0  0  0  0  0  0  0  0  0  0  0
   37.8460   23.2970   37.3620 P   0  0  0  0  0  0  0  0  0  0  0  0
   36.6830   22.1010   37.2740 O   0  0  0  0  0  0  0  0  0  0  0  0
   36.3440   21.8140   38.1780 H   0  0  0  0  0  0  0  0  0  0  0  0
   39.4010   22.6210   37.5540 O   0  0  0  0  0  0  0  0  0  0  0  0
   39.8560   22.5810   36.6910 H   0  0  0  0  0  0  0  0  0  0  0  0
   35.8410   25.4280   31.1000 O   0  0  0  0  0  0  0  0  0  0  0  0
   38.7480   23.5110   30.1380 C   0  0  0  0  0  0  0  0  0  0  0  0
   38.3450   22.2240   30.5470 C   0  0  0  0  0  0  0  0  0  0  0  0
   37.0920   22.0920   31.1310 C   0  0  0  0  0  0  0  0  0  0  0  0
   36.3530   23.2410   31.2590 N   0  0  0  0  0  0  0  0  0  0  0  0
   36.7590   24.4540   30.8620 C   0  0  0  0  0  0  0  0  0  0  0  0
   37.9800   24.5760   30.2930 N   0  0  0  0  0  0  0  0  0  0  0  0
   39.7170   23.6050   29.6880 H   0  0  0  0  0  0  0  0  0  0  0  0
   38.9180   21.3410   30.4480 H   0  0  0  0  0  0  0  0  0  0  0  0
   36.7150   19.6150   29.6850 F   0  0  0  0  0  0  0  0  0  0  0  0
   36.3280   19.6960   30.9570 C   0  0  0  0  0  0  0  0  0  0  0  0
   36.5120   20.8560   31.6110 C   0  0  0  0  0  0  0  0  0  0  0  0
   36.0740   20.8380   32.9350 C   0  0  0  0  0  0  0  0  0  0  0  0
   35.5050   19.7290   33.5160 C   0  0  0  0  0  0  0  0  0  0  0  0
   35.3380   18.5630   32.8030 C   0  0  0  0  0  0  0  0  0  0  0  0
   35.7630   18.5670   31.5030 C   0  0  0  0  0  0  0  0  0  0  0  0
   36.1640   21.7100   33.5790 H   0  0  0  0  0  0  0  0  0  0  0  0
   35.1710   19.7350   34.5460 H   0  0  0  0  0  0  0  0  0  0  0  0
   34.8900   17.7040   33.2710 H   0  0  0  0  0  0  0  0  0  0  0  0
   35.6400   17.6580   30.9220 H   0  0  0  0  0  0  0  0  0  0  0  0
  1 25  1  0  0  0  0
  1  4  1  0  0  0  0
  2  1  1  0  0  0  0
  3  1  1  0  0  0  0
  4  6  1  0  0  0  0
  4  7  1  0  0  0  0
  5  4  1  0  0  0  0
  7 12  1  0  0  0  0
  8  7  2  0  0  0  0
  8  9  1  0  0  0  0
  9 10  2  0  0  0  0
 10 11  1  0  0  0  0
 11 15  1  0  0  0  0
 12 11  2  0  0  0  0
 13  8  1  0  0  0  0
 14  9  1  0  0  0  0
 15 17  1  0  0  0  0
 15 16  1  0  0  0  0
 18 15  1  0  0  0  0
 18 20  1  0  0  0  0
 20 23  1  0  0  0  0
 20 19  2  0  0  0  0
 21 20  1  0  0  0  0
 21 22  1  0  0  0  0
 24 23  1  0  0  0  0
 26 31  2  0  0  0  0
 26 27  1  0  0  0  0
 27 28  2  0  0  0  0
 28 29  1  0  0  0  0
 28 36  1  0  0  0  0
 30 25  1  0  0  0  0
 30 29  2  0  0  0  0
 31 30  1  0  0  0  0
 32 26  1  0  0  0  0
 33 27  1  0  0  0  0
 34 35  1  0  0  0  0
 35 40  2  0  0  0  0
 35 36  1  0  0  0  0
 36 37  2  0  0  0  0
 37 38  1  0  0  0  0
 37 41  1  0  0  0  0
 38 42  1  0  0  0  0
 39 43  1  0  0  0  0
 39 38  2  0  0  0  0
 40 39  1  0  0  0  0
 44 40  1  0  0  0  0
M  END
>  <minimizedAffinity>
-5.72031975

$$$$
