
 OpenBabel03272507543D

 21 21  0  0  0  0  0  0  0  0999 V2000
   35.6640   29.1290   49.9810 C   0  0  0  0  0  0  0  0  0  0  0  0
   36.4230   30.2500   49.5510 C   0  0  0  0  0  0  0  0  0  0  0  0
   36.3230   30.6440   48.2220 C   0  0  0  0  0  0  0  0  0  0  0  0
   35.4970   29.9330   47.3920 N   0  0  0  0  0  0  0  0  0  0  0  0
   34.7860   28.8690   47.8340 C   0  0  0  0  0  0  0  0  0  0  0  0
   34.8620   28.4680   49.1050 N   0  0  0  0  0  0  0  0  0  0  0  0
   34.0020   28.2870   46.8030 N   0  0  0  0  0  0  0  0  0  0  0  0
   35.7270   28.8050   51.0110 H   0  0  0  0  0  0  0  0  0  0  0  0
   33.1720   28.6240   46.2920 H   0  0  0  0  0  0  0  0  0  0  0  0
   34.4000   27.3340   46.5650 H   0  0  0  0  0  0  0  0  0  0  0  0
   37.2860   30.9410   50.5430 C   0  0  0  0  0  0  0  0  0  0  0  0
   38.6250   30.8880   50.1610 F   0  0  0  0  0  0  0  0  0  0  0  0
   36.9070   32.2540   50.5940 F   0  0  0  0  0  0  0  0  0  0  0  0
   37.1930   30.3900   51.8040 F   0  0  0  0  0  0  0  0  0  0  0  0
   37.0590   31.7380   47.7840 O   0  0  0  0  0  0  0  0  0  0  0  0
   39.5700   32.2490   47.0120 O   0  0  0  0  0  0  0  0  0  0  0  0
   38.2190   31.7110   46.5680 P   0  0  0  0  0  0  0  0  0  0  0  0
   38.3790   30.1560   45.9020 O   0  0  0  0  0  0  0  0  0  0  0  0
   39.1790   30.2060   45.2920 H   0  0  0  0  0  0  0  0  0  0  0  0
   37.6620   32.7430   45.3230 O   0  0  0  0  0  0  0  0  0  0  0  0
   36.9420   32.2130   44.8620 H   0  0  0  0  0  0  0  0  0  0  0  0
  1  8  1  0  0  0  0
  2  1  1  0  0  0  0
  2 11  1  0  0  0  0
  3  2  2  0  0  0  0
  4  5  2  0  0  0  0
  4  3  1  0  0  0  0
  5  6  1  0  0  0  0
  6  1  2  0  0  0  0
  7  5  1  0  0  0  0
  9  7  1  0  0  0  0
 10  7  1  0  0  0  0
 11 13  1  0  0  0  0
 11 14  1  0  0  0  0
 12 11  1  0  0  0  0
 15  3  1  0  0  0  0
 17 16  2  0  0  0  0
 17 15  1  0  0  0  0
 18 17  1  0  0  0  0
 19 18  1  0  0  0  0
 20 17  1  0  0  0  0
 21 20  1  0  0  0  0
M  END
>  <minimizedAffinity>
-5.24049711

>  <minimizedRMSD>
0.413773537

$$$$
