
 OpenBabel03272510293D

 26 27  0  0  0  0  0  0  0  0999 V2000
   37.2960   31.4110   49.2250 C   0  0  0  0  0  0  0  0  0  0  0  0
   37.5880   32.5960   49.9060 C   0  0  0  0  0  0  0  0  0  0  0  0
   38.4990   33.4420   49.2720 C   0  0  0  0  0  0  0  0  0  0  0  0
   39.0370   33.0760   48.0650 N   0  0  0  0  0  0  0  0  0  0  0  0
   38.7150   31.9120   47.4520 C   0  0  0  0  0  0  0  0  0  0  0  0
   37.8230   31.0520   48.0440 N   0  0  0  0  0  0  0  0  0  0  0  0
   37.1350   32.8290   50.8490 H   0  0  0  0  0  0  0  0  0  0  0  0
   38.7780   34.3790   49.7340 H   0  0  0  0  0  0  0  0  0  0  0  0
   36.2940   30.4950   49.8610 C   0  0  0  0  0  0  0  0  0  0  0  0
   36.2280   29.0820   49.5660 C   0  0  0  0  0  0  0  0  0  0  0  0
   36.9270   29.5010   50.8460 C   0  0  0  0  0  0  0  0  0  0  0  0
   35.4100   31.0570   50.2860 H   0  0  0  0  0  0  0  0  0  0  0  0
   36.8930   28.6120   48.8150 H   0  0  0  0  0  0  0  0  0  0  0  0
   35.2610   28.5480   49.6480 H   0  0  0  0  0  0  0  0  0  0  0  0
   36.3480   29.3220   51.7730 H   0  0  0  0  0  0  0  0  0  0  0  0
   38.0250   29.4330   50.9000 H   0  0  0  0  0  0  0  0  0  0  0  0
   39.2710   31.5290   46.1600 C   0  0  0  0  0  0  0  0  0  0  0  0
   40.3820   31.6600   46.0930 H   0  0  0  0  0  0  0  0  0  0  0  0
   39.0930   30.4680   45.9510 H   0  0  0  0  0  0  0  0  0  0  0  0
   38.7500   32.4040   45.2070 O   0  0  0  0  0  0  0  0  0  0  0  0
   38.0200   30.8520   43.2670 O   0  0  0  0  0  0  0  0  0  0  0  0
   37.4590   31.7400   44.3510 P   0  0  0  0  0  0  0  0  0  0  0  0
   36.3790   30.9060   45.3490 O   0  0  0  0  0  0  0  0  0  0  0  0
   36.8700   30.0850   45.6640 H   0  0  0  0  0  0  0  0  0  0  0  0
   36.5640   32.9910   43.6260 O   0  0  0  0  0  0  0  0  0  0  0  0
   36.0930   33.4850   44.3270 H   0  0  0  0  0  0  0  0  0  0  0  0
  1  9  1  0  0  0  0
  1  2  1  0  0  0  0
  2  7  1  0  0  0  0
  3  8  1  0  0  0  0
  3  2  2  0  0  0  0
  4  3  1  0  0  0  0
  5  6  1  0  0  0  0
  5  4  2  0  0  0  0
  6  1  2  0  0  0  0
  9 12  1  0  0  0  0
  9 11  1  0  0  0  0
 10 14  1  0  0  0  0
 10  9  1  0  0  0  0
 10 11  1  0  0  0  0
 11 16  1  0  0  0  0
 11 15  1  0  0  0  0
 13 10  1  0  0  0  0
 17  5  1  0  0  0  0
 18 17  1  0  0  0  0
 19 17  1  0  0  0  0
 20 17  1  0  0  0  0
 21 22  2  0  0  0  0
 22 20  1  0  0  0  0
 22 23  1  0  0  0  0
 23 24  1  0  0  0  0
 25 26  1  0  0  0  0
 25 22  1  0  0  0  0
M  END
>  <minimizedAffinity>
-5.04160595

>  <minimizedRMSD>
1.2733593

$$$$
