
 OpenBabel03272508553D

 36 38  0  0  1  0  0  0  0  0999 V2000
   37.4650   27.4990   33.8130 C   0  0  0  0  0  0  0  0  0  0  0  0
   37.5040   27.7480   32.5720 O   0  0  0  0  0  0  0  0  0  0  0  0
   36.5860   28.2280   34.6750 N   0  0  0  0  0  0  0  0  0  0  0  0
   36.6170   28.1810   35.7180 H   0  0  0  0  0  0  0  0  0  0  0  0
   38.3220   26.4550   34.3950 C   0  0  0  0  0  0  0  0  0  0  0  0
   39.6790   26.5900   34.2730 C   0  0  0  0  0  0  0  0  0  0  0  0
   40.4910   25.6150   34.8200 C   0  0  0  0  0  0  0  0  0  0  0  0
   39.8830   24.5560   35.4630 C   0  0  0  0  0  0  0  0  0  0  0  0
   38.5040   24.4090   35.5910 C   0  0  0  0  0  0  0  0  0  0  0  0
   37.7810   25.3950   35.0350 N   0  0  0  0  0  0  0  0  0  0  0  0
   40.1960   27.4030   33.7780 H   0  0  0  0  0  0  0  0  0  0  0  0
   41.5670   25.6440   34.7700 H   0  0  0  0  0  0  0  0  0  0  0  0
   40.4900   23.7680   35.9070 H   0  0  0  0  0  0  0  0  0  0  0  0
   37.9550   23.3230   36.2470 O   0  0  0  0  0  0  0  0  0  0  0  0
   38.0900   24.7110   38.5230 O   0  0  0  0  0  0  0  0  0  0  0  0
   38.1330   23.3060   37.9690 P   0  0  0  0  0  0  0  0  0  0  0  0
   36.9600   22.3520   38.6860 O   0  0  0  0  0  0  0  0  0  0  0  0
   37.2590   22.1550   39.6140 H   0  0  0  0  0  0  0  0  0  0  0  0
   39.6950   22.6710   38.2470 O   0  0  0  0  0  0  0  0  0  0  0  0
   39.8770   22.5460   39.1980 H   0  0  0  0  0  0  0  0  0  0  0  0
   34.5030   29.5770   34.8590 C   0  0  2  0  0  0  0  0  0  0  0  0
   35.5910   30.5320   34.6090 C   0  0  0  0  0  0  0  0  0  0  0  0
   35.5910   29.0850   34.0500 C   0  0  1  0  0  0  0  0  0  0  0  0
   34.4140   29.2850   35.9360 H   0  0  0  0  0  0  0  0  0  0  0  0
   36.3170   30.7540   35.4140 H   0  0  0  0  0  0  0  0  0  0  0  0
   35.5290   31.3420   33.8670 H   0  0  0  0  0  0  0  0  0  0  0  0
   35.4930   29.0350   32.9390 H   0  0  0  0  0  0  0  0  0  0  0  0
   30.8420   29.4750   34.4030 C   0  0  0  0  0  0  0  0  0  0  0  0
   30.6780   30.0640   33.1080 C   0  0  0  0  0  0  0  0  0  0  0  0
   31.8640   30.4800   32.4210 C   0  0  0  0  0  0  0  0  0  0  0  0
   33.0720   30.3030   33.0130 N   0  0  0  0  0  0  0  0  0  0  0  0
   33.1520   29.7320   34.2490 C   0  0  0  0  0  0  0  0  0  0  0  0
   32.0570   29.3070   34.9730 N   0  0  0  0  0  0  0  0  0  0  0  0
   29.9670   29.1550   34.9370 H   0  0  0  0  0  0  0  0  0  0  0  0
   29.6930   30.1780   32.6940 H   0  0  0  0  0  0  0  0  0  0  0  0
   31.7520   30.9220   31.4530 H   0  0  0  0  0  0  0  0  0  0  0  0
  1  5  1  0  0  0  0
  1  3  1  0  0  0  0
  2  1  2  0  0  0  0
  3  4  1  0  0  0  0
  5 10  1  0  0  0  0
  6  5  2  0  0  0  0
  6  7  1  0  0  0  0
  7  8  2  0  0  0  0
  8  9  1  0  0  0  0
  8 13  1  0  0  0  0
  9 14  1  0  0  0  0
 10  9  2  0  0  0  0
 11  6  1  0  0  0  0
 12  7  1  0  0  0  0
 14 16  1  0  0  0  0
 16 19  1  0  0  0  0
 16 15  2  0  0  0  0
 16 17  1  0  0  0  0
 17 18  1  0  0  0  0
 19 20  1  0  0  0  0
 21 24  1  1  0  0  0
 22 21  1  0  0  0  0
 22 25  1  0  0  0  0
 23 27  1  6  0  0  0
 23 22  1  0  0  0  0
 23  3  1  0  0  0  0
 23 21  1  0  0  0  0
 26 22  1  0  0  0  0
 28 34  1  0  0  0  0
 28 33  1  0  0  0  0
 29 28  2  0  0  0  0
 30 31  2  0  0  0  0
 30 29  1  0  0  0  0
 31 32  1  0  0  0  0
 32 21  1  0  0  0  0
 32 33  2  0  0  0  0
 35 29  1  0  0  0  0
 36 30  1  0  0  0  0
M  END
>  <minimizedAffinity>
-5.49236584

$$$$

 OpenBabel03272508553D

 36 38  0  0  1  0  0  0  0  0999 V2000
   33.7750   29.7190   34.1810 C   0  0  0  0  0  0  0  0  0  0  0  0
   34.5190   30.0510   35.1490 O   0  0  0  0  0  0  0  0  0  0  0  0
   34.3420   29.3090   32.9320 N   0  0  0  0  0  0  0  0  0  0  0  0
   33.7920   29.1730   32.0550 H   0  0  0  0  0  0  0  0  0  0  0  0
   32.3110   29.7450   34.3170 C   0  0  0  0  0  0  0  0  0  0  0  0
   31.5720   30.2130   33.2640 C   0  0  0  0  0  0  0  0  0  0  0  0
   30.1950   30.2390   33.3840 C   0  0  0  0  0  0  0  0  0  0  0  0
   29.6420   29.7860   34.5640 C   0  0  0  0  0  0  0  0  0  0  0  0
   30.3850   29.3090   35.6410 C   0  0  0  0  0  0  0  0  0  0  0  0
   31.7150   29.3150   35.4510 N   0  0  0  0  0  0  0  0  0  0  0  0
   31.9640   30.5770   32.3230 H   0  0  0  0  0  0  0  0  0  0  0  0
   29.5400   30.5900   32.6040 H   0  0  0  0  0  0  0  0  0  0  0  0
   28.5610   29.7900   34.6950 H   0  0  0  0  0  0  0  0  0  0  0  0
   29.7710   28.8690   36.7990 O   0  0  0  0  0  0  0  0  0  0  0  0
   29.7800   27.0780   38.7770 O   0  0  0  0  0  0  0  0  0  0  0  0
   30.6730   27.7460   37.7580 P   0  0  0  0  0  0  0  0  0  0  0  0
   31.4290   26.6030   36.7960 O   0  0  0  0  0  0  0  0  0  0  0  0
   32.1320   26.1660   37.3470 H   0  0  0  0  0  0  0  0  0  0  0  0
   31.8190   28.6970   38.5960 O   0  0  0  0  0  0  0  0  0  0  0  0
   32.4380   28.1530   39.1180 H   0  0  0  0  0  0  0  0  0  0  0  0
   36.2490   27.7120   33.0110 C   0  0  2  0  0  0  0  0  0  0  0  0
   36.2290   28.2620   31.6480 C   0  0  0  0  0  0  0  0  0  0  0  0
   35.7760   29.0700   32.8930 C   0  0  1  0  0  0  0  0  0  0  0  0
   35.5290   26.8660   33.1530 H   0  0  0  0  0  0  0  0  0  0  0  0
   35.4350   27.9460   30.9450 H   0  0  0  0  0  0  0  0  0  0  0  0
   37.1260   28.6280   31.1280 H   0  0  0  0  0  0  0  0  0  0  0  0
   36.4480   29.9270   33.1390 H   0  0  0  0  0  0  0  0  0  0  0  0
   38.6580   27.1900   35.7580 C   0  0  0  0  0  0  0  0  0  0  0  0
   39.8710   26.9060   35.0520 C   0  0  0  0  0  0  0  0  0  0  0  0
   39.8150   26.9110   33.6210 C   0  0  0  0  0  0  0  0  0  0  0  0
   38.6360   27.1790   33.0030 N   0  0  0  0  0  0  0  0  0  0  0  0
   37.5200   27.4410   33.7410 C   0  0  0  0  0  0  0  0  0  0  0  0
   37.4940   27.4550   35.1210 N   0  0  0  0  0  0  0  0  0  0  0  0
   38.6760   27.1930   36.8320 H   0  0  0  0  0  0  0  0  0  0  0  0
   40.7720   26.7010   35.6000 H   0  0  0  0  0  0  0  0  0  0  0  0
   40.7150   26.7000   33.0830 H   0  0  0  0  0  0  0  0  0  0  0  0
  1  5  1  0  0  0  0
  1  2  2  0  0  0  0
  3  1  1  0  0  0  0
  4  3  1  0  0  0  0
  5 10  1  0  0  0  0
  6  7  1  0  0  0  0
  6  5  2  0  0  0  0
  7  8  2  0  0  0  0
  8 13  1  0  0  0  0
  8  9  1  0  0  0  0
  9 14  1  0  0  0  0
 10  9  2  0  0  0  0
 11  6  1  0  0  0  0
 12  7  1  0  0  0  0
 14 16  1  0  0  0  0
 16 19  1  0  0  0  0
 16 15  2  0  0  0  0
 17 18  1  0  0  0  0
 17 16  1  0  0  0  0
 19 20  1  0  0  0  0
 21 24  1  1  0  0  0
 21 32  1  0  0  0  0
 22 23  1  0  0  0  0
 22 21  1  0  0  0  0
 23  3  1  0  0  0  0
 23 21  1  0  0  0  0
 23 27  1  1  0  0  0
 25 22  1  0  0  0  0
 26 22  1  0  0  0  0
 28 34  1  0  0  0  0
 29 35  1  0  0  0  0
 29 28  2  0  0  0  0
 30 29  1  0  0  0  0
 31 30  2  0  0  0  0
 31 32  1  0  0  0  0
 32 33  2  0  0  0  0
 33 28  1  0  0  0  0
 36 30  1  0  0  0  0
M  END
>  <minimizedAffinity>
-5.48428345

$$$$

 OpenBabel03272508553D

 36 38  0  0  1  0  0  0  0  0999 V2000
   37.3160   24.5250   32.4420 C   0  0  0  0  0  0  0  0  0  0  0  0
   37.1180   25.1170   31.3410 O   0  0  0  0  0  0  0  0  0  0  0  0
   37.0240   23.1300   32.5820 N   0  0  0  0  0  0  0  0  0  0  0  0
   37.0180   22.6220   33.4950 H   0  0  0  0  0  0  0  0  0  0  0  0
   37.8510   25.2550   33.6000 C   0  0  0  0  0  0  0  0  0  0  0  0
   38.4080   26.4870   33.3870 C   0  0  0  0  0  0  0  0  0  0  0  0
   38.9110   27.1810   34.4720 C   0  0  0  0  0  0  0  0  0  0  0  0
   38.8200   26.5880   35.7150 C   0  0  0  0  0  0  0  0  0  0  0  0
   38.2560   25.3360   35.9420 C   0  0  0  0  0  0  0  0  0  0  0  0
   37.7900   24.7230   34.8410 N   0  0  0  0  0  0  0  0  0  0  0  0
   38.4990   26.9880   32.4320 H   0  0  0  0  0  0  0  0  0  0  0  0
   39.3640   28.1560   34.3920 H   0  0  0  0  0  0  0  0  0  0  0  0
   39.2040   27.1050   36.5930 H   0  0  0  0  0  0  0  0  0  0  0  0
   38.1950   24.7950   37.2130 O   0  0  0  0  0  0  0  0  0  0  0  0
   40.2260   23.1170   36.7890 O   0  0  0  0  0  0  0  0  0  0  0  0
   38.8440   23.2010   37.3920 P   0  0  0  0  0  0  0  0  0  0  0  0
   38.8730   22.7400   39.0010 O   0  0  0  0  0  0  0  0  0  0  0  0
   38.9870   21.7520   39.0270 H   0  0  0  0  0  0  0  0  0  0  0  0
   37.8050   22.1940   36.4830 O   0  0  0  0  0  0  0  0  0  0  0  0
   38.0350   21.2500   36.5740 H   0  0  0  0  0  0  0  0  0  0  0  0
   36.8020   20.9440   31.4130 C   0  0  2  0  0  0  0  0  0  0  0  0
   35.4460   21.5050   31.5000 C   0  0  0  0  0  0  0  0  0  0  0  0
   36.7190   22.3840   31.3730 C   0  0  1  0  0  0  0  0  0  0  0  0
   37.1180   20.4170   32.3490 H   0  0  0  0  0  0  0  0  0  0  0  0
   34.9250   21.5230   32.4750 H   0  0  0  0  0  0  0  0  0  0  0  0
   34.7470   21.5330   30.6510 H   0  0  0  0  0  0  0  0  0  0  0  0
   36.7910   22.9280   30.4000 H   0  0  0  0  0  0  0  0  0  0  0  0
   36.9180   18.5980   28.5670 C   0  0  0  0  0  0  0  0  0  0  0  0
   38.1920   18.8900   27.9820 C   0  0  0  0  0  0  0  0  0  0  0  0
   38.9860   19.9040   28.6080 C   0  0  0  0  0  0  0  0  0  0  0  0
   38.5080   20.5370   29.7100 N   0  0  0  0  0  0  0  0  0  0  0  0
   37.2840   20.2050   30.2120 C   0  0  0  0  0  0  0  0  0  0  0  0
   36.4620   19.2410   29.6670 N   0  0  0  0  0  0  0  0  0  0  0  0
   36.3050   17.8400   28.1150 H   0  0  0  0  0  0  0  0  0  0  0  0
   38.5130   18.3530   27.1080 H   0  0  0  0  0  0  0  0  0  0  0  0
   39.9390   20.1300   28.1780 H   0  0  0  0  0  0  0  0  0  0  0  0
  1  3  1  0  0  0  0
  1  5  1  0  0  0  0
  2  1  2  0  0  0  0
  3  4  1  0  0  0  0
  5 10  1  0  0  0  0
  6  5  2  0  0  0  0
  6  7  1  0  0  0  0
  7  8  2  0  0  0  0
  8  9  1  0  0  0  0
  8 13  1  0  0  0  0
  9 14  1  0  0  0  0
 10  9  2  0  0  0  0
 11  6  1  0  0  0  0
 12  7  1  0  0  0  0
 14 16  1  0  0  0  0
 15 16  2  0  0  0  0
 16 17  1  0  0  0  0
 17 18  1  0  0  0  0
 19 20  1  0  0  0  0
 19 16  1  0  0  0  0
 21 22  1  0  0  0  0
 21 24  1  1  0  0  0
 22 25  1  0  0  0  0
 23 27  1  6  0  0  0
 23 21  1  0  0  0  0
 23 22  1  0  0  0  0
 23  3  1  0  0  0  0
 26 22  1  0  0  0  0
 28 33  1  0  0  0  0
 29 28  2  0  0  0  0
 29 30  1  0  0  0  0
 30 31  2  0  0  0  0
 31 32  1  0  0  0  0
 32 21  1  0  0  0  0
 33 32  2  0  0  0  0
 34 28  1  0  0  0  0
 35 29  1  0  0  0  0
 36 30  1  0  0  0  0
M  END
>  <minimizedAffinity>
-5.30359745

$$$$

 OpenBabel03272508553D

 36 38  0  0  1  0  0  0  0  0999 V2000
   35.8530   24.8000   31.5450 C   0  0  0  0  0  0  0  0  0  0  0  0
   34.8220   25.0520   30.8550 O   0  0  0  0  0  0  0  0  0  0  0  0
   36.6570   25.8630   32.0680 N   0  0  0  0  0  0  0  0  0  0  0  0
   37.5950   25.7260   32.5070 H   0  0  0  0  0  0  0  0  0  0  0  0
   36.2480   23.4120   31.8240 C   0  0  0  0  0  0  0  0  0  0  0  0
   35.6050   22.4090   31.1500 C   0  0  0  0  0  0  0  0  0  0  0  0
   35.9720   21.1010   31.4040 C   0  0  0  0  0  0  0  0  0  0  0  0
   36.9730   20.8810   32.3280 C   0  0  0  0  0  0  0  0  0  0  0  0
   37.6330   21.8930   33.0190 C   0  0  0  0  0  0  0  0  0  0  0  0
   37.2220   23.1370   32.7200 N   0  0  0  0  0  0  0  0  0  0  0  0
   34.8170   22.5370   30.4190 H   0  0  0  0  0  0  0  0  0  0  0  0
   35.5180   20.2530   30.9170 H   0  0  0  0  0  0  0  0  0  0  0  0
   37.2900   19.8640   32.5540 H   0  0  0  0  0  0  0  0  0  0  0  0
   38.6290   21.6080   33.9340 O   0  0  0  0  0  0  0  0  0  0  0  0
   39.6640   22.0370   36.3560 O   0  0  0  0  0  0  0  0  0  0  0  0
   38.4640   22.3450   35.4920 P   0  0  0  0  0  0  0  0  0  0  0  0
   38.2420   23.9980   35.3560 O   0  0  0  0  0  0  0  0  0  0  0  0
   37.8870   24.3250   36.2260 H   0  0  0  0  0  0  0  0  0  0  0  0
   37.0970   21.5970   36.1940 O   0  0  0  0  0  0  0  0  0  0  0  0
   36.8640   21.9920   37.0550 H   0  0  0  0  0  0  0  0  0  0  0  0
   36.4340   28.1450   33.0350 C   0  0  2  0  0  0  0  0  0  0  0  0
   37.2260   28.2940   31.8060 C   0  0  0  0  0  0  0  0  0  0  0  0
   36.1260   27.2130   31.9780 C   0  0  1  0  0  0  0  0  0  0  0  0
   37.0480   27.8270   33.9160 H   0  0  0  0  0  0  0  0  0  0  0  0
   38.2740   27.9390   31.7860 H   0  0  0  0  0  0  0  0  0  0  0  0
   37.0340   29.0710   31.0510 H   0  0  0  0  0  0  0  0  0  0  0  0
   35.2360   27.3740   31.3240 H   0  0  0  0  0  0  0  0  0  0  0  0
   33.3500   30.1710   33.0910 C   0  0  0  0  0  0  0  0  0  0  0  0
   33.5330   30.9750   34.2620 C   0  0  0  0  0  0  0  0  0  0  0  0
   34.7440   30.7900   35.0040 C   0  0  0  0  0  0  0  0  0  0  0  0
   35.6530   29.8760   34.5750 N   0  0  0  0  0  0  0  0  0  0  0  0
   35.4100   29.1460   33.4490 C   0  0  0  0  0  0  0  0  0  0  0  0
   34.2700   29.2670   32.6830 N   0  0  0  0  0  0  0  0  0  0  0  0
   32.4490   30.2930   32.5190 H   0  0  0  0  0  0  0  0  0  0  0  0
   32.7750   31.6810   34.5480 H   0  0  0  0  0  0  0  0  0  0  0  0
   34.8910   31.3850   35.8800 H   0  0  0  0  0  0  0  0  0  0  0  0
  1  5  1  0  0  0  0
  1  3  1  0  0  0  0
  2  1  2  0  0  0  0
  3  4  1  0  0  0  0
  5 10  1  0  0  0  0
  6  7  1  0  0  0  0
  6  5  2  0  0  0  0
  7  8  2  0  0  0  0
  8 13  1  0  0  0  0
  8  9  1  0  0  0  0
  9 14  1  0  0  0  0
 10  9  2  0  0  0  0
 11  6  1  0  0  0  0
 12  7  1  0  0  0  0
 14 16  1  0  0  0  0
 16 19  1  0  0  0  0
 16 15  2  0  0  0  0
 17 16  1  0  0  0  0
 17 18  1  0  0  0  0
 19 20  1  0  0  0  0
 21 32  1  0  0  0  0
 21 24  1  1  0  0  0
 22 23  1  0  0  0  0
 22 21  1  0  0  0  0
 23 27  1  6  0  0  0
 23  3  1  0  0  0  0
 23 21  1  0  0  0  0
 25 22  1  0  0  0  0
 26 22  1  0  0  0  0
 28 29  1  0  0  0  0
 29 35  1  0  0  0  0
 29 30  2  0  0  0  0
 30 36  1  0  0  0  0
 31 30  1  0  0  0  0
 32 31  2  0  0  0  0
 33 28  2  0  0  0  0
 33 32  1  0  0  0  0
 34 28  1  0  0  0  0
M  END
>  <minimizedAffinity>
-5.24847078

$$$$

 OpenBabel03272508553D

 36 38  0  0  1  0  0  0  0  0999 V2000
   35.1550   29.3180   33.9530 C   0  0  0  0  0  0  0  0  0  0  0  0
   35.0110   29.5960   32.7260 O   0  0  0  0  0  0  0  0  0  0  0  0
   36.0780   28.3050   34.3670 N   0  0  0  0  0  0  0  0  0  0  0  0
   36.1310   27.9230   35.3380 H   0  0  0  0  0  0  0  0  0  0  0  0
   34.3790   30.0300   34.9790 C   0  0  0  0  0  0  0  0  0  0  0  0
   34.9440   31.1270   35.5720 C   0  0  0  0  0  0  0  0  0  0  0  0
   34.2200   31.8040   36.5350 C   0  0  0  0  0  0  0  0  0  0  0  0
   32.9610   31.3320   36.8440 C   0  0  0  0  0  0  0  0  0  0  0  0
   32.3770   30.2170   36.2480 C   0  0  0  0  0  0  0  0  0  0  0  0
   33.1410   29.6130   35.3230 N   0  0  0  0  0  0  0  0  0  0  0  0
   35.9260   31.5310   35.3590 H   0  0  0  0  0  0  0  0  0  0  0  0
   34.5890   32.6760   37.0490 H   0  0  0  0  0  0  0  0  0  0  0  0
   32.3600   31.8390   37.5970 H   0  0  0  0  0  0  0  0  0  0  0  0
   31.1100   29.7930   36.6020 O   0  0  0  0  0  0  0  0  0  0  0  0
   29.5920   27.9730   37.8270 O   0  0  0  0  0  0  0  0  0  0  0  0
   31.0250   28.3100   37.4880 P   0  0  0  0  0  0  0  0  0  0  0  0
   31.7400   27.0580   36.6380 O   0  0  0  0  0  0  0  0  0  0  0  0
   31.9090   26.3180   37.2800 H   0  0  0  0  0  0  0  0  0  0  0  0
   31.8590   28.6160   38.9480 O   0  0  0  0  0  0  0  0  0  0  0  0
   31.9380   27.8160   39.5010 H   0  0  0  0  0  0  0  0  0  0  0  0
   38.1550   27.0510   33.8120 C   0  0  2  0  0  0  0  0  0  0  0  0
   37.0360   26.2310   33.3270 C   0  0  0  0  0  0  0  0  0  0  0  0
   36.9930   27.7820   33.3670 C   0  0  1  0  0  0  0  0  0  0  0  0
   38.3580   26.9130   34.9050 H   0  0  0  0  0  0  0  0  0  0  0  0
   36.3960   25.6970   34.0540 H   0  0  0  0  0  0  0  0  0  0  0  0
   37.0130   25.7670   32.3300 H   0  0  0  0  0  0  0  0  0  0  0  0
   36.9750   28.2540   32.3550 H   0  0  0  0  0  0  0  0  0  0  0  0
   40.5490   27.3960   31.0250 C   0  0  0  0  0  0  0  0  0  0  0  0
   41.8070   27.4530   31.7080 C   0  0  0  0  0  0  0  0  0  0  0  0
   41.7840   27.3620   33.1370 C   0  0  0  0  0  0  0  0  0  0  0  0
   40.5930   27.2290   33.7750 N   0  0  0  0  0  0  0  0  0  0  0  0
   39.4340   27.1810   33.0580 C   0  0  0  0  0  0  0  0  0  0  0  0
   39.3740   27.2620   31.6830 N   0  0  0  0  0  0  0  0  0  0  0  0
   40.5420   27.4620   29.9530 H   0  0  0  0  0  0  0  0  0  0  0  0
   42.7150   27.5600   31.1440 H   0  0  0  0  0  0  0  0  0  0  0  0
   42.7180   27.4040   33.6560 H   0  0  0  0  0  0  0  0  0  0  0  0
  1  3  1  0  0  0  0
  1  5  1  0  0  0  0
  2  1  2  0  0  0  0
  3  4  1  0  0  0  0
  5 10  2  0  0  0  0
  5  6  1  0  0  0  0
  6  7  2  0  0  0  0
  7  8  1  0  0  0  0
  7 12  1  0  0  0  0
  8 13  1  0  0  0  0
  9 14  1  0  0  0  0
  9  8  2  0  0  0  0
 10  9  1  0  0  0  0
 11  6  1  0  0  0  0
 14 16  1  0  0  0  0
 16 15  2  0  0  0  0
 16 19  1  0  0  0  0
 17 18  1  0  0  0  0
 17 16  1  0  0  0  0
 19 20  1  0  0  0  0
 21 24  1  1  0  0  0
 22 23  1  0  0  0  0
 22 21  1  0  0  0  0
 22 25  1  0  0  0  0
 23 27  1  6  0  0  0
 23 21  1  0  0  0  0
 23  3  1  0  0  0  0
 26 22  1  0  0  0  0
 28 33  2  0  0  0  0
 28 29  1  0  0  0  0
 29 30  2  0  0  0  0
 30 36  1  0  0  0  0
 30 31  1  0  0  0  0
 32 31  2  0  0  0  0
 32 21  1  0  0  0  0
 33 32  1  0  0  0  0
 34 28  1  0  0  0  0
 35 29  1  0  0  0  0
M  END
>  <minimizedAffinity>
-5.21488047

$$$$

 OpenBabel03272508553D

 36 38  0  0  1  0  0  0  0  0999 V2000
   37.9070   26.7430   32.9170 C   0  0  0  0  0  0  0  0  0  0  0  0
   36.7860   26.2540   33.2460 O   0  0  0  0  0  0  0  0  0  0  0  0
   38.0020   27.7010   31.8570 N   0  0  0  0  0  0  0  0  0  0  0  0
   38.9020   28.0220   31.4370 H   0  0  0  0  0  0  0  0  0  0  0  0
   39.1350   26.3370   33.6150 C   0  0  0  0  0  0  0  0  0  0  0  0
   40.2230   27.1660   33.5460 C   0  0  0  0  0  0  0  0  0  0  0  0
   41.3800   26.7930   34.2020 C   0  0  0  0  0  0  0  0  0  0  0  0
   41.3720   25.5990   34.8960 C   0  0  0  0  0  0  0  0  0  0  0  0
   40.2720   24.7500   34.9720 C   0  0  0  0  0  0  0  0  0  0  0  0
   39.1850   25.1780   34.3100 N   0  0  0  0  0  0  0  0  0  0  0  0
   40.2720   28.1080   33.0150 H   0  0  0  0  0  0  0  0  0  0  0  0
   42.2800   27.3860   34.1990 H   0  0  0  0  0  0  0  0  0  0  0  0
   42.2650   25.2730   35.4260 H   0  0  0  0  0  0  0  0  0  0  0  0
   40.3270   23.5660   35.6840 O   0  0  0  0  0  0  0  0  0  0  0  0
   37.9620   22.3810   36.0400 O   0  0  0  0  0  0  0  0  0  0  0  0
   38.9880   23.2470   36.7330 P   0  0  0  0  0  0  0  0  0  0  0  0
   39.4970   22.5340   38.1590 O   0  0  0  0  0  0  0  0  0  0  0  0
   38.7580   22.6220   38.8190 H   0  0  0  0  0  0  0  0  0  0  0  0
   38.2820   24.7750   37.0280 O   0  0  0  0  0  0  0  0  0  0  0  0
   37.5530   24.7250   37.6750 H   0  0  0  0  0  0  0  0  0  0  0  0
   36.3760   29.5820   31.7570 C   0  0  2  0  0  0  0  0  0  0  0  0
   36.9760   29.4850   30.4190 C   0  0  0  0  0  0  0  0  0  0  0  0
   36.7610   28.2550   31.3420 C   0  0  1  0  0  0  0  0  0  0  0  0
   37.0070   30.1600   32.4800 H   0  0  0  0  0  0  0  0  0  0  0  0
   38.0200   29.8140   30.2650 H   0  0  0  0  0  0  0  0  0  0  0  0
   36.3900   29.5050   29.4890 H   0  0  0  0  0  0  0  0  0  0  0  0
   35.9950   27.5380   30.9590 H   0  0  0  0  0  0  0  0  0  0  0  0
   33.0740   31.2050   31.4610 C   0  0  0  0  0  0  0  0  0  0  0  0
   32.2660   30.4170   32.3420 C   0  0  0  0  0  0  0  0  0  0  0  0
   32.9040   29.3340   33.0270 C   0  0  0  0  0  0  0  0  0  0  0  0
   34.2260   29.1010   32.8180 N   0  0  0  0  0  0  0  0  0  0  0  0
   34.9330   29.8940   31.9630 C   0  0  0  0  0  0  0  0  0  0  0  0
   34.3900   30.9550   31.2670 N   0  0  0  0  0  0  0  0  0  0  0  0
   32.6170   32.0230   30.9360 H   0  0  0  0  0  0  0  0  0  0  0  0
   31.2250   30.6530   32.4650 H   0  0  0  0  0  0  0  0  0  0  0  0
   32.3090   28.7390   33.6880 H   0  0  0  0  0  0  0  0  0  0  0  0
  1  2  2  0  0  0  0
  1  5  1  0  0  0  0
  3  1  1  0  0  0  0
  4  3  1  0  0  0  0
  5 10  1  0  0  0  0
  6  5  2  0  0  0  0
  6  7  1  0  0  0  0
  7  8  2  0  0  0  0
  8  9  1  0  0  0  0
  8 13  1  0  0  0  0
  9 14  1  0  0  0  0
 10  9  2  0  0  0  0
 11  6  1  0  0  0  0
 12  7  1  0  0  0  0
 14 16  1  0  0  0  0
 15 16  2  0  0  0  0
 16 19  1  0  0  0  0
 16 17  1  0  0  0  0
 17 18  1  0  0  0  0
 19 20  1  0  0  0  0
 21 32  1  0  0  0  0
 21 24  1  1  0  0  0
 22 23  1  0  0  0  0
 22 21  1  0  0  0  0
 23 27  1  6  0  0  0
 23 21  1  0  0  0  0
 23  3  1  0  0  0  0
 25 22  1  0  0  0  0
 26 22  1  0  0  0  0
 28 29  1  0  0  0  0
 29 35  1  0  0  0  0
 29 30  2  0  0  0  0
 30 36  1  0  0  0  0
 31 30  1  0  0  0  0
 32 31  2  0  0  0  0
 33 28  2  0  0  0  0
 33 32  1  0  0  0  0
 34 28  1  0  0  0  0
M  END
>  <minimizedAffinity>
-5.18939447

$$$$

 OpenBabel03272508553D

 36 38  0  0  1  0  0  0  0  0999 V2000
   37.1480   27.9060   34.0590 C   0  0  0  0  0  0  0  0  0  0  0  0
   37.3400   28.0690   35.3000 O   0  0  0  0  0  0  0  0  0  0  0  0
   37.8840   26.9170   33.3310 N   0  0  0  0  0  0  0  0  0  0  0  0
   37.8870   26.8370   32.2900 H   0  0  0  0  0  0  0  0  0  0  0  0
   36.1650   28.7270   33.3380 C   0  0  0  0  0  0  0  0  0  0  0  0
   36.4320   29.0660   32.0390 C   0  0  0  0  0  0  0  0  0  0  0  0
   35.5110   29.8350   31.3540 C   0  0  0  0  0  0  0  0  0  0  0  0
   34.3680   30.2200   32.0240 C   0  0  0  0  0  0  0  0  0  0  0  0
   34.0860   29.8820   33.3450 C   0  0  0  0  0  0  0  0  0  0  0  0
   35.0270   29.1330   33.9440 N   0  0  0  0  0  0  0  0  0  0  0  0
   37.3140   28.7860   31.4770 H   0  0  0  0  0  0  0  0  0  0  0  0
   35.6430   30.1450   30.3300 H   0  0  0  0  0  0  0  0  0  0  0  0
   33.6190   30.8260   31.5170 H   0  0  0  0  0  0  0  0  0  0  0  0
   32.9210   30.2990   33.9610 O   0  0  0  0  0  0  0  0  0  0  0  0
   30.3400   29.6990   34.2700 O   0  0  0  0  0  0  0  0  0  0  0  0
   31.4440   29.7550   33.2410 P   0  0  0  0  0  0  0  0  0  0  0  0
   31.0050   30.7340   31.9560 O   0  0  0  0  0  0  0  0  0  0  0  0
   30.3280   30.2390   31.4200 H   0  0  0  0  0  0  0  0  0  0  0  0
   31.7660   28.1610   32.7170 O   0  0  0  0  0  0  0  0  0  0  0  0
   31.0160   27.7780   32.2240 H   0  0  0  0  0  0  0  0  0  0  0  0
   38.0420   24.7520   34.5480 C   0  0  2  0  0  0  0  0  0  0  0  0
   38.9000   24.6210   33.3630 C   0  0  0  0  0  0  0  0  0  0  0  0
   38.6740   25.9680   34.0990 C   0  0  1  0  0  0  0  0  0  0  0  0
   36.9600   24.5560   34.3310 H   0  0  0  0  0  0  0  0  0  0  0  0
   38.4370   24.5170   32.3640 H   0  0  0  0  0  0  0  0  0  0  0  0
   39.9200   24.2120   33.3950 H   0  0  0  0  0  0  0  0  0  0  0  0
   39.5870   26.3550   34.6130 H   0  0  0  0  0  0  0  0  0  0  0  0
   39.8020   22.7980   37.1380 C   0  0  0  0  0  0  0  0  0  0  0  0
   39.1010   23.1680   38.3300 C   0  0  0  0  0  0  0  0  0  0  0  0
   38.0180   24.0950   38.1940 C   0  0  0  0  0  0  0  0  0  0  0  0
   37.7050   24.5770   36.9640 N   0  0  0  0  0  0  0  0  0  0  0  0
   38.4180   24.1780   35.8720 C   0  0  0  0  0  0  0  0  0  0  0  0
   39.4720   23.2900   35.9210 N   0  0  0  0  0  0  0  0  0  0  0  0
   40.6180   22.1040   37.2150 H   0  0  0  0  0  0  0  0  0  0  0  0
   39.3980   22.7510   39.2750 H   0  0  0  0  0  0  0  0  0  0  0  0
   37.4880   24.3790   39.0790 H   0  0  0  0  0  0  0  0  0  0  0  0
  1  2  2  0  0  0  0
  3  1  1  0  0  0  0
  3 23  1  0  0  0  0
  4  3  1  0  0  0  0
  5 10  1  0  0  0  0
  5  1  1  0  0  0  0
  6  5  2  0  0  0  0
  7  8  2  0  0  0  0
  7  6  1  0  0  0  0
  8  9  1  0  0  0  0
  9 10  2  0  0  0  0
  9 14  1  0  0  0  0
 11  6  1  0  0  0  0
 12  7  1  0  0  0  0
 13  8  1  0  0  0  0
 16 14  1  0  0  0  0
 16 15  2  0  0  0  0
 17 16  1  0  0  0  0
 18 17  1  0  0  0  0
 19 16  1  0  0  0  0
 20 19  1  0  0  0  0
 21 24  1  6  0  0  0
 21 32  1  0  0  0  0
 22 26  1  0  0  0  0
 22 23  1  0  0  0  0
 22 21  1  0  0  0  0
 23 21  1  0  0  0  0
 23 27  1  1  0  0  0
 25 22  1  0  0  0  0
 28 34  1  0  0  0  0
 28 29  1  0  0  0  0
 29 35  1  0  0  0  0
 30 29  2  0  0  0  0
 30 36  1  0  0  0  0
 31 30  1  0  0  0  0
 32 33  1  0  0  0  0
 32 31  2  0  0  0  0
 33 28  2  0  0  0  0
M  END
>  <minimizedAffinity>
-5.13305426

$$$$

 OpenBabel03272508553D

 36 38  0  0  1  0  0  0  0  0999 V2000
   37.5570   26.6410   33.2070 C   0  0  0  0  0  0  0  0  0  0  0  0
   36.7190   25.7520   32.8740 O   0  0  0  0  0  0  0  0  0  0  0  0
   37.2410   28.0300   33.0640 N   0  0  0  0  0  0  0  0  0  0  0  0
   37.9350   28.8030   33.1720 H   0  0  0  0  0  0  0  0  0  0  0  0
   38.8720   26.2680   33.7480 C   0  0  0  0  0  0  0  0  0  0  0  0
   39.8970   27.1680   33.6370 C   0  0  0  0  0  0  0  0  0  0  0  0
   41.1350   26.8250   34.1460 C   0  0  0  0  0  0  0  0  0  0  0  0
   41.2670   25.5880   34.7420 C   0  0  0  0  0  0  0  0  0  0  0  0
   40.2310   24.6650   34.8590 C   0  0  0  0  0  0  0  0  0  0  0  0
   39.0590   25.0680   34.3420 N   0  0  0  0  0  0  0  0  0  0  0  0
   39.8370   28.1470   33.1790 H   0  0  0  0  0  0  0  0  0  0  0  0
   41.9940   27.4750   34.1010 H   0  0  0  0  0  0  0  0  0  0  0  0
   42.2270   25.2830   35.1550 H   0  0  0  0  0  0  0  0  0  0  0  0
   40.4270   23.4390   35.4680 O   0  0  0  0  0  0  0  0  0  0  0  0
   40.1390   22.5760   37.9760 O   0  0  0  0  0  0  0  0  0  0  0  0
   39.3590   23.0610   36.7760 P   0  0  0  0  0  0  0  0  0  0  0  0
   38.4110   24.3790   37.1810 O   0  0  0  0  0  0  0  0  0  0  0  0
   37.6510   24.0450   37.7270 H   0  0  0  0  0  0  0  0  0  0  0  0
   38.4000   21.7660   36.2070 O   0  0  0  0  0  0  0  0  0  0  0  0
   37.7040   21.5160   36.8430 H   0  0  0  0  0  0  0  0  0  0  0  0
   35.2760   29.5200   33.4010 C   0  0  2  0  0  0  0  0  0  0  0  0
   35.7260   29.7390   32.0200 C   0  0  0  0  0  0  0  0  0  0  0  0
   35.8640   28.3760   32.7490 C   0  0  1  0  0  0  0  0  0  0  0  0
   35.8600   30.1130   34.1510 H   0  0  0  0  0  0  0  0  0  0  0  0
   36.6610   30.2990   31.8330 H   0  0  0  0  0  0  0  0  0  0  0  0
   35.0440   29.7630   31.1570 H   0  0  0  0  0  0  0  0  0  0  0  0
   35.2160   27.5730   32.3230 H   0  0  0  0  0  0  0  0  0  0  0  0
   31.6220   29.0440   33.1930 C   0  0  0  0  0  0  0  0  0  0  0  0
   31.1910   29.4110   34.5080 C   0  0  0  0  0  0  0  0  0  0  0  0
   32.1970   29.8250   35.4390 C   0  0  0  0  0  0  0  0  0  0  0  0
   33.4960   29.8510   35.0450 N   0  0  0  0  0  0  0  0  0  0  0  0
   33.8340   29.4880   33.7740 C   0  0  0  0  0  0  0  0  0  0  0  0
   32.9230   29.0790   32.8220 N   0  0  0  0  0  0  0  0  0  0  0  0
   30.8850   28.7310   32.4780 H   0  0  0  0  0  0  0  0  0  0  0  0
   30.1460   29.3680   34.7580 H   0  0  0  0  0  0  0  0  0  0  0  0
   31.8850   30.1000   36.4240 H   0  0  0  0  0  0  0  0  0  0  0  0
  1  5  1  0  0  0  0
  2  1  2  0  0  0  0
  3  4  1  0  0  0  0
  3  1  1  0  0  0  0
  5 10  1  0  0  0  0
  6  5  2  0  0  0  0
  6  7  1  0  0  0  0
  7  8  2  0  0  0  0
  8  9  1  0  0  0  0
  8 13  1  0  0  0  0
  9 14  1  0  0  0  0
 10  9  2  0  0  0  0
 11  6  1  0  0  0  0
 12  7  1  0  0  0  0
 14 16  1  0  0  0  0
 16 17  1  0  0  0  0
 16 15  2  0  0  0  0
 17 18  1  0  0  0  0
 19 16  1  0  0  0  0
 19 20  1  0  0  0  0
 21 32  1  0  0  0  0
 21 24  1  1  0  0  0
 22 23  1  0  0  0  0
 22 21  1  0  0  0  0
 23 27  1  6  0  0  0
 23  3  1  0  0  0  0
 23 21  1  0  0  0  0
 25 22  1  0  0  0  0
 26 22  1  0  0  0  0
 28 29  1  0  0  0  0
 29 35  1  0  0  0  0
 29 30  2  0  0  0  0
 30 36  1  0  0  0  0
 31 30  1  0  0  0  0
 32 31  2  0  0  0  0
 33 28  2  0  0  0  0
 33 32  1  0  0  0  0
 34 28  1  0  0  0  0
M  END
>  <minimizedAffinity>
-5.09281588

$$$$

 OpenBabel03272508553D

 36 38  0  0  1  0  0  0  0  0999 V2000
   36.0540   28.9580   34.0280 C   0  0  0  0  0  0  0  0  0  0  0  0
   36.5110   27.9500   34.6440 O   0  0  0  0  0  0  0  0  0  0  0  0
   36.2910   29.1240   32.6260 N   0  0  0  0  0  0  0  0  0  0  0  0
   36.0780   29.9980   32.0960 H   0  0  0  0  0  0  0  0  0  0  0  0
   35.2710   29.9780   34.7390 C   0  0  0  0  0  0  0  0  0  0  0  0
   35.9370   30.8550   35.5530 C   0  0  0  0  0  0  0  0  0  0  0  0
   35.2080   31.8190   36.2220 C   0  0  0  0  0  0  0  0  0  0  0  0
   33.8420   31.8440   36.0300 C   0  0  0  0  0  0  0  0  0  0  0  0
   33.1550   30.9570   35.2050 C   0  0  0  0  0  0  0  0  0  0  0  0
   33.9300   30.0490   34.5890 N   0  0  0  0  0  0  0  0  0  0  0  0
   37.0050   30.8710   35.7320 H   0  0  0  0  0  0  0  0  0  0  0  0
   35.6540   32.5480   36.8800 H   0  0  0  0  0  0  0  0  0  0  0  0
   33.2340   32.5900   36.5390 H   0  0  0  0  0  0  0  0  0  0  0  0
   31.7830   31.0330   35.0530 O   0  0  0  0  0  0  0  0  0  0  0  0
   29.5140   29.7730   34.4340 O   0  0  0  0  0  0  0  0  0  0  0  0
   31.0170   29.6470   34.3560 P   0  0  0  0  0  0  0  0  0  0  0  0
   31.5090   29.4200   32.7720 O   0  0  0  0  0  0  0  0  0  0  0  0
   31.2680   28.4900   32.5140 H   0  0  0  0  0  0  0  0  0  0  0  0
   31.4930   28.3350   35.3410 O   0  0  0  0  0  0  0  0  0  0  0  0
   31.1760   27.4800   34.9940 H   0  0  0  0  0  0  0  0  0  0  0  0
   35.9690   27.0910   31.2280 C   0  0  2  0  0  0  0  0  0  0  0  0
   36.6390   28.0780   30.3700 C   0  0  0  0  0  0  0  0  0  0  0  0
   36.8620   27.9990   31.9040 C   0  0  1  0  0  0  0  0  0  0  0  0
   34.8590   27.2360   31.2800 H   0  0  0  0  0  0  0  0  0  0  0  0
   36.0700   28.9490   29.9950 H   0  0  0  0  0  0  0  0  0  0  0  0
   37.5070   27.8420   29.7380 H   0  0  0  0  0  0  0  0  0  0  0  0
   37.8910   27.6730   32.1900 H   0  0  0  0  0  0  0  0  0  0  0  0
   35.6120   23.4190   31.3350 C   0  0  0  0  0  0  0  0  0  0  0  0
   36.9430   22.9740   31.0530 C   0  0  0  0  0  0  0  0  0  0  0  0
   37.9400   23.9790   30.8350 C   0  0  0  0  0  0  0  0  0  0  0  0
   37.5900   25.2890   30.9050 N   0  0  0  0  0  0  0  0  0  0  0  0
   36.3000   25.6390   31.1800 C   0  0  0  0  0  0  0  0  0  0  0  0
   35.2860   24.7300   31.4010 N   0  0  0  0  0  0  0  0  0  0  0  0
   34.8470   22.6830   31.5020 H   0  0  0  0  0  0  0  0  0  0  0  0
   37.1560   21.9210   31.0110 H   0  0  0  0  0  0  0  0  0  0  0  0
   38.9380   23.6570   30.6230 H   0  0  0  0  0  0  0  0  0  0  0  0
  1  2  2  0  0  0  0
  1  5  1  0  0  0  0
  3  1  1  0  0  0  0
  4  3  1  0  0  0  0
  5  6  1  0  0  0  0
  6 11  1  0  0  0  0
  6  7  2  0  0  0  0
  7 12  1  0  0  0  0
  8  7  1  0  0  0  0
  8 13  1  0  0  0  0
  9  8  2  0  0  0  0
 10  5  2  0  0  0  0
 10  9  1  0  0  0  0
 14  9  1  0  0  0  0
 16 15  2  0  0  0  0
 16 14  1  0  0  0  0
 16 19  1  0  0  0  0
 17 16  1  0  0  0  0
 18 17  1  0  0  0  0
 20 19  1  0  0  0  0
 21 24  1  1  0  0  0
 21 23  1  0  0  0  0
 22 21  1  0  0  0  0
 22 23  1  0  0  0  0
 23 27  1  1  0  0  0
 23  3  1  0  0  0  0
 25 22  1  0  0  0  0
 26 22  1  0  0  0  0
 28 33  1  0  0  0  0
 28 34  1  0  0  0  0
 29 28  2  0  0  0  0
 30 31  2  0  0  0  0
 30 29  1  0  0  0  0
 31 32  1  0  0  0  0
 32 21  1  0  0  0  0
 32 33  2  0  0  0  0
 35 29  1  0  0  0  0
 36 30  1  0  0  0  0
M  END
>  <minimizedAffinity>
-5.08345079

$$$$
