
 OpenBabel03272500583D

 33 34  0  0  0  0  0  0  0  0999 V2000
   38.1580   31.8930   47.4250 C   0  0  0  0  0  0  0  0  0  0  0  0
   38.6700   32.8090   48.3160 C   0  0  0  0  0  0  0  0  0  0  0  0
   38.1800   32.8860   49.6300 C   0  0  0  0  0  0  0  0  0  0  0  0
   37.1240   31.9730   50.0190 C   0  0  0  0  0  0  0  0  0  0  0  0
   36.6760   31.1030   49.0880 C   0  0  0  0  0  0  0  0  0  0  0  0
   37.1410   31.0260   47.8260 C   0  0  0  0  0  0  0  0  0  0  0  0
   39.4620   33.5060   48.0530 H   0  0  0  0  0  0  0  0  0  0  0  0
   38.6150   33.6240   50.2900 H   0  0  0  0  0  0  0  0  0  0  0  0
   36.8540   32.1500   51.0500 H   0  0  0  0  0  0  0  0  0  0  0  0
   35.9280   30.5130   49.5930 H   0  0  0  0  0  0  0  0  0  0  0  0
   40.0140   31.2580   45.9660 C   0  0  0  0  0  0  0  0  0  0  0  0
   38.7670   31.9120   46.1180 C   0  0  0  0  0  0  0  0  0  0  0  0
   38.2870   32.4910   44.9680 C   0  0  0  0  0  0  0  0  0  0  0  0
   38.9680   32.4220   43.8160 N   0  0  0  0  0  0  0  0  0  0  0  0
   40.1230   31.8110   43.6910 C   0  0  0  0  0  0  0  0  0  0  0  0
   40.6360   31.2330   44.7660 N   0  0  0  0  0  0  0  0  0  0  0  0
   40.4980   30.7580   46.8120 H   0  0  0  0  0  0  0  0  0  0  0  0
   37.3270   32.9950   45.0870 H   0  0  0  0  0  0  0  0  0  0  0  0
   40.6040   31.8050   42.7200 H   0  0  0  0  0  0  0  0  0  0  0  0
   35.1760   29.9960   47.0380 C   0  0  0  0  0  0  0  0  0  0  0  0
   34.5700   30.6550   47.9730 O   0  0  0  0  0  0  0  0  0  0  0  0
   36.6170   30.1360   46.9180 N   0  0  0  0  0  0  0  0  0  0  0  0
   37.1710   29.6060   46.2120 H   0  0  0  0  0  0  0  0  0  0  0  0
   34.4500   29.1920   46.1980 O   0  0  0  0  0  0  0  0  0  0  0  0
   33.1590   29.4810   45.7580 C   0  0  0  0  0  0  0  0  0  0  0  0
   32.9140   29.9010   44.5380 O   0  0  0  0  0  0  0  0  0  0  0  0
   31.9600   29.3760   46.4480 O   0  0  0  0  0  0  0  0  0  0  0  0
   29.3260   29.5490   46.5380 O   0  0  0  0  0  0  0  0  0  0  0  0
   30.5000   29.6300   45.5750 P   0  0  0  0  0  0  0  0  0  0  0  0
   30.4700   31.2280   44.9680 O   0  0  0  0  0  0  0  0  0  0  0  0
   29.5490   31.4460   44.6940 H   0  0  0  0  0  0  0  0  0  0  0  0
   30.2510   28.5090   44.3610 O   0  0  0  0  0  0  0  0  0  0  0  0
   30.8510   28.5830   43.5930 H   0  0  0  0  0  0  0  0  0  0  0  0
  1  6  2  0  0  0  0
  1  2  1  0  0  0  0
  2  3  2  0  0  0  0
  3  4  1  0  0  0  0
  3  8  1  0  0  0  0
  4  9  1  0  0  0  0
  5 10  1  0  0  0  0
  5  4  2  0  0  0  0
  6  5  1  0  0  0  0
  7  2  1  0  0  0  0
 11 12  1  0  0  0  0
 11 17  1  0  0  0  0
 12  1  1  0  0  0  0
 13 18  1  0  0  0  0
 13 12  2  0  0  0  0
 14 13  1  0  0  0  0
 15 14  2  0  0  0  0
 15 16  1  0  0  0  0
 16 11  2  0  0  0  0
 19 15  1  0  0  0  0
 20 21  2  0  0  0  0
 22 20  1  0  0  0  0
 22  6  1  0  0  0  0
 23 22  1  0  0  0  0
 24 20  1  0  0  0  0
 25 24  1  0  0  0  0
 25 27  1  0  0  0  0
 26 25  2  0  0  0  0
 29 27  1  0  0  0  0
 29 28  2  0  0  0  0
 30 29  1  0  0  0  0
 31 30  1  0  0  0  0
 32 29  1  0  0  0  0
 33 32  1  0  0  0  0
M  END
>  <minimizedAffinity>
-5.16070843

>  <minimizedRMSD>
0.971363902

$$$$
