
 OpenBabel03272510293D

 26 27  0  0  0  0  0  0  0  0999 V2000
   37.2190   31.3180   49.1720 C   0  0  0  0  0  0  0  0  0  0  0  0
   37.3730   32.5850   49.7410 C   0  0  0  0  0  0  0  0  0  0  0  0
   38.3350   33.3980   49.1390 C   0  0  0  0  0  0  0  0  0  0  0  0
   39.0470   32.9260   48.0660 N   0  0  0  0  0  0  0  0  0  0  0  0
   38.8520   31.6860   47.5570 C   0  0  0  0  0  0  0  0  0  0  0  0
   37.9160   30.8550   48.1220 N   0  0  0  0  0  0  0  0  0  0  0  0
   36.7870   32.9000   50.5810 H   0  0  0  0  0  0  0  0  0  0  0  0
   38.5160   34.3940   49.5200 H   0  0  0  0  0  0  0  0  0  0  0  0
   36.1700   30.4310   49.7720 C   0  0  0  0  0  0  0  0  0  0  0  0
   36.1650   28.9970   49.6000 C   0  0  0  0  0  0  0  0  0  0  0  0
   36.7070   29.5460   50.9060 C   0  0  0  0  0  0  0  0  0  0  0  0
   35.2320   31.0010   50.0440 H   0  0  0  0  0  0  0  0  0  0  0  0
   36.9210   28.4830   48.9720 H   0  0  0  0  0  0  0  0  0  0  0  0
   35.2070   28.4430   49.6210 H   0  0  0  0  0  0  0  0  0  0  0  0
   36.0300   29.4310   51.7760 H   0  0  0  0  0  0  0  0  0  0  0  0
   37.7930   29.5160   51.0880 H   0  0  0  0  0  0  0  0  0  0  0  0
   39.5940   31.1880   46.4060 C   0  0  0  0  0  0  0  0  0  0  0  0
   40.0920   31.9950   45.8100 H   0  0  0  0  0  0  0  0  0  0  0  0
   40.4030   30.5170   46.7160 H   0  0  0  0  0  0  0  0  0  0  0  0
   38.6690   30.6170   45.5300 O   0  0  0  0  0  0  0  0  0  0  0  0
   37.5940   32.5950   44.2540 O   0  0  0  0  0  0  0  0  0  0  0  0
   38.5560   31.4480   44.0700 P   0  0  0  0  0  0  0  0  0  0  0  0
   40.0610   31.9750   43.5050 O   0  0  0  0  0  0  0  0  0  0  0  0
   40.3560   32.6990   44.1390 H   0  0  0  0  0  0  0  0  0  0  0  0
   37.9430   30.4030   42.8760 O   0  0  0  0  0  0  0  0  0  0  0  0
   38.6260   29.7370   42.6630 H   0  0  0  0  0  0  0  0  0  0  0  0
  1  2  1  0  0  0  0
  1  9  1  0  0  0  0
  2  7  1  0  0  0  0
  3  8  1  0  0  0  0
  3  2  2  0  0  0  0
  4  3  1  0  0  0  0
  5  4  2  0  0  0  0
  5  6  1  0  0  0  0
  6  1  2  0  0  0  0
  9 12  1  0  0  0  0
  9 11  1  0  0  0  0
 10 14  1  0  0  0  0
 10  9  1  0  0  0  0
 10 11  1  0  0  0  0
 11 16  1  0  0  0  0
 11 15  1  0  0  0  0
 13 10  1  0  0  0  0
 17 19  1  0  0  0  0
 17  5  1  0  0  0  0
 18 17  1  0  0  0  0
 20 17  1  0  0  0  0
 22 21  2  0  0  0  0
 22 20  1  0  0  0  0
 23 22  1  0  0  0  0
 23 24  1  0  0  0  0
 25 22  1  0  0  0  0
 26 25  1  0  0  0  0
M  END
>  <minimizedAffinity>
-4.72219086

>  <minimizedRMSD>
1.44970381

$$$$
