
 OpenBabel03272509563D

 44 46  0  0  0  0  0  0  0  0999 V2000
   34.2810   28.7750   48.1270 C   0  0  0  0  0  0  0  0  0  0  0  0
   33.7930   29.7540   48.1520 H   0  0  0  0  0  0  0  0  0  0  0  0
   35.1710   28.8500   47.4590 H   0  0  0  0  0  0  0  0  0  0  0  0
   33.4050   27.6850   47.5600 C   0  0  0  0  0  0  0  0  0  0  0  0
   33.6330   27.4780   46.4890 H   0  0  0  0  0  0  0  0  0  0  0  0
   33.6150   26.7580   48.0990 H   0  0  0  0  0  0  0  0  0  0  0  0
   31.9660   28.0230   47.6340 C   0  0  0  0  0  0  0  0  0  0  0  0
   31.2520   27.5820   48.7380 C   0  0  0  0  0  0  0  0  0  0  0  0
   29.9220   27.8370   48.9070 C   0  0  0  0  0  0  0  0  0  0  0  0
   29.2820   28.5370   47.9790 N   0  0  0  0  0  0  0  0  0  0  0  0
   29.9770   28.9730   46.8920 C   0  0  0  0  0  0  0  0  0  0  0  0
   31.2880   28.7270   46.7150 N   0  0  0  0  0  0  0  0  0  0  0  0
   31.7600   27.0030   49.5160 H   0  0  0  0  0  0  0  0  0  0  0  0
   29.3950   27.4870   49.7650 H   0  0  0  0  0  0  0  0  0  0  0  0
   29.2250   29.7610   45.8600 C   0  0  0  0  0  0  0  0  0  0  0  0
   29.0870   29.1420   44.9710 H   0  0  0  0  0  0  0  0  0  0  0  0
   29.7720   30.7060   45.6440 H   0  0  0  0  0  0  0  0  0  0  0  0
   27.9770   30.1440   46.3670 O   0  0  0  0  0  0  0  0  0  0  0  0
   26.3130   32.1340   46.4110 O   0  0  0  0  0  0  0  0  0  0  0  0
   27.2910   31.3920   45.4980 P   0  0  0  0  0  0  0  0  0  0  0  0
   28.4740   32.3930   44.8760 O   0  0  0  0  0  0  0  0  0  0  0  0
   28.1620   33.3420   44.7530 H   0  0  0  0  0  0  0  0  0  0  0  0
   26.3230   30.7450   44.2500 O   0  0  0  0  0  0  0  0  0  0  0  0
   26.6260   29.8430   44.0270 H   0  0  0  0  0  0  0  0  0  0  0  0
   34.7610   28.4050   49.4160 O   0  0  0  0  0  0  0  0  0  0  0  0
   37.1390   30.0090   51.6140 C   0  0  0  0  0  0  0  0  0  0  0  0
   37.9100   30.7180   50.6710 C   0  0  0  0  0  0  0  0  0  0  0  0
   37.5650   30.6030   49.3310 C   0  0  0  0  0  0  0  0  0  0  0  0
   36.4910   29.7980   49.0440 N   0  0  0  0  0  0  0  0  0  0  0  0
   35.7730   29.1330   49.9580 C   0  0  0  0  0  0  0  0  0  0  0  0
   36.1150   29.2500   51.2620 N   0  0  0  0  0  0  0  0  0  0  0  0
   37.4120   30.1020   52.6460 H   0  0  0  0  0  0  0  0  0  0  0  0
   38.7370   31.3370   50.8960 H   0  0  0  0  0  0  0  0  0  0  0  0
   38.7820   33.2270   49.2790 F   0  0  0  0  0  0  0  0  0  0  0  0
   38.8100   32.4700   48.1830 C   0  0  0  0  0  0  0  0  0  0  0  0
   38.2380   31.2540   48.2280 C   0  0  0  0  0  0  0  0  0  0  0  0
   38.3200   30.5420   47.0310 C   0  0  0  0  0  0  0  0  0  0  0  0
   38.9320   31.0440   45.9060 C   0  0  0  0  0  0  0  0  0  0  0  0
   39.5030   32.2970   45.9110 C   0  0  0  0  0  0  0  0  0  0  0  0
   39.4300   33.0050   47.0780 C   0  0  0  0  0  0  0  0  0  0  0  0
   37.8990   29.5440   46.9290 H   0  0  0  0  0  0  0  0  0  0  0  0
   38.9850   30.4750   44.9870 H   0  0  0  0  0  0  0  0  0  0  0  0
   39.9780   32.6760   45.0230 H   0  0  0  0  0  0  0  0  0  0  0  0
   39.8740   33.9970   47.1040 H   0  0  0  0  0  0  0  0  0  0  0  0
  1  2  1  0  0  0  0
  1 25  1  0  0  0  0
  3  1  1  0  0  0  0
  4  7  1  0  0  0  0
  4  6  1  0  0  0  0
  4  1  1  0  0  0  0
  5  4  1  0  0  0  0
  7  8  1  0  0  0  0
  8  9  2  0  0  0  0
  8 13  1  0  0  0  0
  9 14  1  0  0  0  0
 10  9  1  0  0  0  0
 11 10  2  0  0  0  0
 12 11  1  0  0  0  0
 12  7  2  0  0  0  0
 15 18  1  0  0  0  0
 15 11  1  0  0  0  0
 16 15  1  0  0  0  0
 17 15  1  0  0  0  0
 20 18  1  0  0  0  0
 20 19  2  0  0  0  0
 21 20  1  0  0  0  0
 22 21  1  0  0  0  0
 23 20  1  0  0  0  0
 24 23  1  0  0  0  0
 25 30  1  0  0  0  0
 26 32  1  0  0  0  0
 27 33  1  0  0  0  0
 27 26  2  0  0  0  0
 28 27  1  0  0  0  0
 29 28  2  0  0  0  0
 29 30  1  0  0  0  0
 30 31  2  0  0  0  0
 31 26  1  0  0  0  0
 35 36  1  0  0  0  0
 35 34  1  0  0  0  0
 36 28  1  0  0  0  0
 37 36  2  0  0  0  0
 38 39  2  0  0  0  0
 38 37  1  0  0  0  0
 39 40  1  0  0  0  0
 40 44  1  0  0  0  0
 40 35  2  0  0  0  0
 41 37  1  0  0  0  0
 42 38  1  0  0  0  0
 43 39  1  0  0  0  0
M  END
>  <minimizedAffinity>
-6.56933069

>  <minimizedRMSD>
1.21753848

$$$$
