
 OpenBabel03272500583D

 33 34  0  0  0  0  0  0  0  0999 V2000
   38.1110   31.8800   47.4170 C   0  0  0  0  0  0  0  0  0  0  0  0
   38.6170   32.8030   48.3040 C   0  0  0  0  0  0  0  0  0  0  0  0
   38.1210   32.8890   49.6140 C   0  0  0  0  0  0  0  0  0  0  0  0
   37.0640   31.9770   50.0050 C   0  0  0  0  0  0  0  0  0  0  0  0
   36.6230   31.0990   49.0780 C   0  0  0  0  0  0  0  0  0  0  0  0
   37.0940   31.0140   47.8190 C   0  0  0  0  0  0  0  0  0  0  0  0
   39.4090   33.5010   48.0400 H   0  0  0  0  0  0  0  0  0  0  0  0
   38.5500   33.6330   50.2710 H   0  0  0  0  0  0  0  0  0  0  0  0
   36.7880   32.1610   51.0340 H   0  0  0  0  0  0  0  0  0  0  0  0
   35.8730   30.5120   49.5840 H   0  0  0  0  0  0  0  0  0  0  0  0
   39.9710   31.2300   45.9700 C   0  0  0  0  0  0  0  0  0  0  0  0
   38.7270   31.8910   46.1120 C   0  0  0  0  0  0  0  0  0  0  0  0
   38.2550   32.4670   44.9580 C   0  0  0  0  0  0  0  0  0  0  0  0
   38.9410   32.3900   43.8090 N   0  0  0  0  0  0  0  0  0  0  0  0
   40.0940   31.7740   43.6930 C   0  0  0  0  0  0  0  0  0  0  0  0
   40.6000   31.1980   44.7730 N   0  0  0  0  0  0  0  0  0  0  0  0
   40.4490   30.7320   46.8200 H   0  0  0  0  0  0  0  0  0  0  0  0
   37.2970   32.9760   45.0700 H   0  0  0  0  0  0  0  0  0  0  0  0
   40.5800   31.7610   42.7250 H   0  0  0  0  0  0  0  0  0  0  0  0
   35.1320   29.9930   47.0120 C   0  0  0  0  0  0  0  0  0  0  0  0
   34.5170   30.6710   47.9270 O   0  0  0  0  0  0  0  0  0  0  0  0
   36.5760   30.1170   46.9160 N   0  0  0  0  0  0  0  0  0  0  0  0
   37.1360   29.5710   46.2260 H   0  0  0  0  0  0  0  0  0  0  0  0
   34.4120   29.1850   46.1720 O   0  0  0  0  0  0  0  0  0  0  0  0
   33.3110   29.6090   45.4280 C   0  0  0  0  0  0  0  0  0  0  0  0
   33.3110   30.7450   44.7670 O   0  0  0  0  0  0  0  0  0  0  0  0
   32.0970   28.9700   45.2270 O   0  0  0  0  0  0  0  0  0  0  0  0
   30.6630   26.7810   45.5880 O   0  0  0  0  0  0  0  0  0  0  0  0
   31.6790   27.6770   46.2800 P   0  0  0  0  0  0  0  0  0  0  0  0
   33.0470   26.6850   46.5360 O   0  0  0  0  0  0  0  0  0  0  0  0
   32.7500   25.8270   46.9210 H   0  0  0  0  0  0  0  0  0  0  0  0
   31.0150   28.1880   47.7250 O   0  0  0  0  0  0  0  0  0  0  0  0
   31.6360   28.6310   48.3380 H   0  0  0  0  0  0  0  0  0  0  0  0
  1  6  2  0  0  0  0
  1  2  1  0  0  0  0
  2  3  2  0  0  0  0
  3  4  1  0  0  0  0
  3  8  1  0  0  0  0
  4  9  1  0  0  0  0
  5 10  1  0  0  0  0
  5  4  2  0  0  0  0
  6  5  1  0  0  0  0
  7  2  1  0  0  0  0
 11 12  1  0  0  0  0
 11 17  1  0  0  0  0
 12  1  1  0  0  0  0
 13 18  1  0  0  0  0
 13 12  2  0  0  0  0
 14 13  1  0  0  0  0
 15 14  2  0  0  0  0
 15 16  1  0  0  0  0
 16 11  2  0  0  0  0
 19 15  1  0  0  0  0
 20 21  2  0  0  0  0
 22 20  1  0  0  0  0
 22  6  1  0  0  0  0
 23 22  1  0  0  0  0
 24 20  1  0  0  0  0
 25 24  1  0  0  0  0
 26 25  2  0  0  0  0
 27 25  1  0  0  0  0
 27 29  1  0  0  0  0
 28 29  2  0  0  0  0
 29 30  1  0  0  0  0
 29 32  1  0  0  0  0
 30 31  1  0  0  0  0
 32 33  1  0  0  0  0
M  END
>  <minimizedAffinity>
-5.13291597

>  <minimizedRMSD>
0.109822027

$$$$
