
 OpenBabel03272500583D

 33 34  0  0  0  0  0  0  0  0999 V2000
   38.1960   31.8490   47.4360 C   0  0  0  0  0  0  0  0  0  0  0  0
   38.8310   32.6500   48.3580 C   0  0  0  0  0  0  0  0  0  0  0  0
   38.4000   32.6920   49.6930 C   0  0  0  0  0  0  0  0  0  0  0  0
   37.2710   31.8670   50.0730 C   0  0  0  0  0  0  0  0  0  0  0  0
   36.7030   31.1070   49.1110 C   0  0  0  0  0  0  0  0  0  0  0  0
   37.1100   31.0640   47.8280 C   0  0  0  0  0  0  0  0  0  0  0  0
   39.6810   33.2800   48.1040 H   0  0  0  0  0  0  0  0  0  0  0  0
   38.9320   33.3390   50.3770 H   0  0  0  0  0  0  0  0  0  0  0  0
   37.0580   32.0030   51.1230 H   0  0  0  0  0  0  0  0  0  0  0  0
   35.9170   30.5640   49.6120 H   0  0  0  0  0  0  0  0  0  0  0  0
   39.9910   31.2300   45.8970 C   0  0  0  0  0  0  0  0  0  0  0  0
   38.7560   31.8900   46.1080 C   0  0  0  0  0  0  0  0  0  0  0  0
   38.2380   32.4940   44.9890 C   0  0  0  0  0  0  0  0  0  0  0  0
   38.8740   32.4440   43.8100 N   0  0  0  0  0  0  0  0  0  0  0  0
   40.0200   31.8280   43.6300 C   0  0  0  0  0  0  0  0  0  0  0  0
   40.5690   31.2260   44.6730 N   0  0  0  0  0  0  0  0  0  0  0  0
   40.5040   30.7110   46.7140 H   0  0  0  0  0  0  0  0  0  0  0  0
   37.2860   33.0020   45.1540 H   0  0  0  0  0  0  0  0  0  0  0  0
   40.4640   31.8380   42.6430 H   0  0  0  0  0  0  0  0  0  0  0  0
   35.0530   30.1190   47.1840 C   0  0  0  0  0  0  0  0  0  0  0  0
   34.5810   30.6460   48.2680 O   0  0  0  0  0  0  0  0  0  0  0  0
   36.4660   30.2910   46.8920 N   0  0  0  0  0  0  0  0  0  0  0  0
   36.9170   29.8620   46.0560 H   0  0  0  0  0  0  0  0  0  0  0  0
   34.2170   29.4200   46.3530 O   0  0  0  0  0  0  0  0  0  0  0  0
   32.8460   29.6480   46.2480 C   0  0  0  0  0  0  0  0  0  0  0  0
   32.3590   30.7440   45.7100 O   0  0  0  0  0  0  0  0  0  0  0  0
   31.7940   28.8300   46.6350 O   0  0  0  0  0  0  0  0  0  0  0  0
   29.5450   27.6470   45.9180 O   0  0  0  0  0  0  0  0  0  0  0  0
   30.9400   27.9770   45.4110 P   0  0  0  0  0  0  0  0  0  0  0  0
   30.6940   29.0040   44.0660 O   0  0  0  0  0  0  0  0  0  0  0  0
   30.0040   28.6080   43.4860 H   0  0  0  0  0  0  0  0  0  0  0  0
   31.6780   26.5470   44.9630 O   0  0  0  0  0  0  0  0  0  0  0  0
   32.5140   26.6460   44.4630 H   0  0  0  0  0  0  0  0  0  0  0  0
  1  6  2  0  0  0  0
  1  2  1  0  0  0  0
  2  3  2  0  0  0  0
  3  4  1  0  0  0  0
  3  8  1  0  0  0  0
  4  9  1  0  0  0  0
  5 10  1  0  0  0  0
  5  4  2  0  0  0  0
  6  5  1  0  0  0  0
  7  2  1  0  0  0  0
 11 12  1  0  0  0  0
 11 17  1  0  0  0  0
 12  1  1  0  0  0  0
 13 18  1  0  0  0  0
 13 12  2  0  0  0  0
 14 13  1  0  0  0  0
 15 14  2  0  0  0  0
 15 16  1  0  0  0  0
 16 11  2  0  0  0  0
 19 15  1  0  0  0  0
 20 21  2  0  0  0  0
 22 20  1  0  0  0  0
 22  6  1  0  0  0  0
 23 22  1  0  0  0  0
 24 20  1  0  0  0  0
 25 24  1  0  0  0  0
 25 27  1  0  0  0  0
 26 25  2  0  0  0  0
 29 28  2  0  0  0  0
 29 27  1  0  0  0  0
 30 29  1  0  0  0  0
 31 30  1  0  0  0  0
 32 29  1  0  0  0  0
 33 32  1  0  0  0  0
M  END
>  <minimizedAffinity>
-5.16315937

>  <minimizedRMSD>
1.1037339

$$$$
