
 OpenBabel03272510293D

 26 27  0  0  0  0  0  0  0  0999 V2000
   37.2050   31.3120   49.1800 C   0  0  0  0  0  0  0  0  0  0  0  0
   37.3590   32.5780   49.7520 C   0  0  0  0  0  0  0  0  0  0  0  0
   38.3220   33.3920   49.1530 C   0  0  0  0  0  0  0  0  0  0  0  0
   39.0360   32.9210   48.0800 N   0  0  0  0  0  0  0  0  0  0  0  0
   38.8410   31.6820   47.5690 C   0  0  0  0  0  0  0  0  0  0  0  0
   37.9030   30.8510   48.1310 N   0  0  0  0  0  0  0  0  0  0  0  0
   36.7710   32.8910   50.5910 H   0  0  0  0  0  0  0  0  0  0  0  0
   38.5020   34.3870   49.5360 H   0  0  0  0  0  0  0  0  0  0  0  0
   36.1540   30.4240   49.7760 C   0  0  0  0  0  0  0  0  0  0  0  0
   36.1510   28.9900   49.6040 C   0  0  0  0  0  0  0  0  0  0  0  0
   36.6880   29.5390   50.9120 C   0  0  0  0  0  0  0  0  0  0  0  0
   35.2150   30.9940   50.0450 H   0  0  0  0  0  0  0  0  0  0  0  0
   36.9090   28.4770   48.9790 H   0  0  0  0  0  0  0  0  0  0  0  0
   35.1920   28.4350   49.6220 H   0  0  0  0  0  0  0  0  0  0  0  0
   36.0080   29.4240   51.7800 H   0  0  0  0  0  0  0  0  0  0  0  0
   37.7730   29.5090   51.0980 H   0  0  0  0  0  0  0  0  0  0  0  0
   39.5850   31.1860   46.4180 C   0  0  0  0  0  0  0  0  0  0  0  0
   40.0900   31.9930   45.8280 H   0  0  0  0  0  0  0  0  0  0  0  0
   40.3900   30.5100   46.7280 H   0  0  0  0  0  0  0  0  0  0  0  0
   38.6610   30.6230   45.5360 O   0  0  0  0  0  0  0  0  0  0  0  0
   37.6680   32.6190   44.2210 O   0  0  0  0  0  0  0  0  0  0  0  0
   38.5900   31.4350   44.0630 P   0  0  0  0  0  0  0  0  0  0  0  0
   40.1170   31.8980   43.5020 O   0  0  0  0  0  0  0  0  0  0  0  0
   40.4330   32.6200   44.1280 H   0  0  0  0  0  0  0  0  0  0  0  0
   37.9470   30.3950   42.8800 O   0  0  0  0  0  0  0  0  0  0  0  0
   38.6080   29.7010   42.6830 H   0  0  0  0  0  0  0  0  0  0  0  0
  1  2  1  0  0  0  0
  1  9  1  0  0  0  0
  2  7  1  0  0  0  0
  3  8  1  0  0  0  0
  3  2  2  0  0  0  0
  4  3  1  0  0  0  0
  5  4  2  0  0  0  0
  5  6  1  0  0  0  0
  6  1  2  0  0  0  0
  9 12  1  0  0  0  0
  9 11  1  0  0  0  0
 10 14  1  0  0  0  0
 10  9  1  0  0  0  0
 10 11  1  0  0  0  0
 11 16  1  0  0  0  0
 11 15  1  0  0  0  0
 13 10  1  0  0  0  0
 17 19  1  0  0  0  0
 17  5  1  0  0  0  0
 18 17  1  0  0  0  0
 20 17  1  0  0  0  0
 22 21  2  0  0  0  0
 22 20  1  0  0  0  0
 23 22  1  0  0  0  0
 23 24  1  0  0  0  0
 25 22  1  0  0  0  0
 26 25  1  0  0  0  0
M  END
>  <minimizedAffinity>
-4.72365618

>  <minimizedRMSD>
1.61933231

$$$$
