
 OpenBabel03272500593D

 33 34  0  0  0  0  0  0  0  0999 V2000
   38.1680   31.8430   47.3670 C   0  0  0  0  0  0  0  0  0  0  0  0
   38.8140   32.5610   48.3480 C   0  0  0  0  0  0  0  0  0  0  0  0
   38.3400   32.5630   49.6690 C   0  0  0  0  0  0  0  0  0  0  0  0
   37.1540   31.7860   49.9700 C   0  0  0  0  0  0  0  0  0  0  0  0
   36.5780   31.1080   48.9530 C   0  0  0  0  0  0  0  0  0  0  0  0
   37.0270   31.1040   47.6830 C   0  0  0  0  0  0  0  0  0  0  0  0
   39.7060   33.1530   48.1530 H   0  0  0  0  0  0  0  0  0  0  0  0
   38.8830   33.1440   50.4020 H   0  0  0  0  0  0  0  0  0  0  0  0
   36.9120   31.8840   51.0180 H   0  0  0  0  0  0  0  0  0  0  0  0
   35.7460   30.5870   49.4010 H   0  0  0  0  0  0  0  0  0  0  0  0
   40.0080   31.2440   45.8730 C   0  0  0  0  0  0  0  0  0  0  0  0
   38.7750   31.9170   46.0610 C   0  0  0  0  0  0  0  0  0  0  0  0
   38.3070   32.5630   44.9440 C   0  0  0  0  0  0  0  0  0  0  0  0
   38.9840   32.5400   43.7880 N   0  0  0  0  0  0  0  0  0  0  0  0
   40.1260   31.9120   43.6290 C   0  0  0  0  0  0  0  0  0  0  0  0
   40.6280   31.2690   44.6710 N   0  0  0  0  0  0  0  0  0  0  0  0
   40.4830   30.6920   46.6910 H   0  0  0  0  0  0  0  0  0  0  0  0
   37.3570   33.0810   45.0910 H   0  0  0  0  0  0  0  0  0  0  0  0
   40.6050   31.9450   42.6580 H   0  0  0  0  0  0  0  0  0  0  0  0
   34.9730   30.1820   46.9970 C   0  0  0  0  0  0  0  0  0  0  0  0
   34.5200   30.5840   48.1410 O   0  0  0  0  0  0  0  0  0  0  0  0
   36.3740   30.4160   46.6900 N   0  0  0  0  0  0  0  0  0  0  0  0
   36.8110   30.0840   45.8030 H   0  0  0  0  0  0  0  0  0  0  0  0
   34.1300   29.5520   46.1200 O   0  0  0  0  0  0  0  0  0  0  0  0
   33.3610   30.2110   45.1610 C   0  0  0  0  0  0  0  0  0  0  0  0
   33.8990   30.7900   44.1110 O   0  0  0  0  0  0  0  0  0  0  0  0
   31.9840   30.3650   45.1040 O   0  0  0  0  0  0  0  0  0  0  0  0
   29.8780   31.9020   44.6800 O   0  0  0  0  0  0  0  0  0  0  0  0
   31.3580   31.7790   44.3520 P   0  0  0  0  0  0  0  0  0  0  0  0
   32.0850   33.1640   45.0450 O   0  0  0  0  0  0  0  0  0  0  0  0
   31.5550   33.9560   44.7990 H   0  0  0  0  0  0  0  0  0  0  0  0
   31.5200   31.7710   42.6890 O   0  0  0  0  0  0  0  0  0  0  0  0
   32.4340   31.8680   42.3560 H   0  0  0  0  0  0  0  0  0  0  0  0
  1  6  2  0  0  0  0
  1  2  1  0  0  0  0
  2  3  2  0  0  0  0
  3  4  1  0  0  0  0
  3  8  1  0  0  0  0
  4  9  1  0  0  0  0
  5 10  1  0  0  0  0
  5  4  2  0  0  0  0
  6  5  1  0  0  0  0
  7  2  1  0  0  0  0
 11 12  1  0  0  0  0
 11 17  1  0  0  0  0
 12  1  1  0  0  0  0
 13 18  1  0  0  0  0
 13 12  2  0  0  0  0
 14 13  1  0  0  0  0
 15 14  2  0  0  0  0
 15 16  1  0  0  0  0
 16 11  2  0  0  0  0
 19 15  1  0  0  0  0
 20 21  2  0  0  0  0
 22 20  1  0  0  0  0
 22  6  1  0  0  0  0
 23 22  1  0  0  0  0
 24 20  1  0  0  0  0
 25 24  1  0  0  0  0
 26 25  2  0  0  0  0
 27 25  1  0  0  0  0
 29 28  2  0  0  0  0
 29 30  1  0  0  0  0
 29 27  1  0  0  0  0
 31 30  1  0  0  0  0
 32 29  1  0  0  0  0
 33 32  1  0  0  0  0
M  END
>  <minimizedAffinity>
-5.49638319

>  <minimizedRMSD>
1.06399572

$$$$
