
 OpenBabel03272506283D

 40 42  0  0  0  0  0  0  0  0999 V2000
   38.7030   26.4580   32.7240 C   0  0  0  0  0  0  0  0  0  0  0  0
   39.7170   26.9160   31.9040 C   0  0  0  0  0  0  0  0  0  0  0  0
   40.9620   27.3390   32.3710 C   0  0  0  0  0  0  0  0  0  0  0  0
   41.2010   27.2970   33.7640 C   0  0  0  0  0  0  0  0  0  0  0  0
   40.1840   26.8420   34.5530 C   0  0  0  0  0  0  0  0  0  0  0  0
   38.9700   26.4270   34.0940 C   0  0  0  0  0  0  0  0  0  0  0  0
   39.5610   26.9600   30.8150 H   0  0  0  0  0  0  0  0  0  0  0  0
   41.6910   27.6830   31.6160 H   0  0  0  0  0  0  0  0  0  0  0  0
   42.1960   27.6510   33.9800 H   0  0  0  0  0  0  0  0  0  0  0  0
   40.5680   26.9080   35.5450 H   0  0  0  0  0  0  0  0  0  0  0  0
   37.3670   24.7550   31.6500 C   0  0  0  0  0  0  0  0  0  0  0  0
   37.4730   26.0840   32.0810 C   0  0  0  0  0  0  0  0  0  0  0  0
   36.3890   26.9400   31.8580 C   0  0  0  0  0  0  0  0  0  0  0  0
   35.2850   26.4510   31.2350 N   0  0  0  0  0  0  0  0  0  0  0  0
   35.2080   25.1520   30.8230 C   0  0  0  0  0  0  0  0  0  0  0  0
   36.2490   24.3090   31.0320 N   0  0  0  0  0  0  0  0  0  0  0  0
   38.1900   24.0720   31.8090 H   0  0  0  0  0  0  0  0  0  0  0  0
   34.3390   24.7640   30.3330 H   0  0  0  0  0  0  0  0  0  0  0  0
   36.3570   28.3780   32.2590 C   0  0  0  0  0  0  0  0  0  0  0  0
   35.1230   28.9410   31.8880 F   0  0  0  0  0  0  0  0  0  0  0  0
   36.5690   28.6300   33.5650 F   0  0  0  0  0  0  0  0  0  0  0  0
   37.2800   29.0930   31.5030 F   0  0  0  0  0  0  0  0  0  0  0  0
   37.7000   25.8200   35.1270 S   0  0  0  0  0  0  0  0  0  0  0  0
   39.2860   23.2610   34.3470 Cl  0  0  0  0  0  0  0  0  0  0  0  0
   38.9680   23.6340   36.0210 C   0  0  0  0  0  0  0  0  0  0  0  0
   38.2520   24.7470   36.4220 C   0  0  0  0  0  0  0  0  0  0  0  0
   38.0040   24.9970   37.7450 C   0  0  0  0  0  0  0  0  0  0  0  0
   38.5050   24.0840   38.6820 C   0  0  0  0  0  0  0  0  0  0  0  0
   39.2290   22.9600   38.2810 C   0  0  0  0  0  0  0  0  0  0  0  0
   39.4620   22.7350   36.9410 C   0  0  0  0  0  0  0  0  0  0  0  0
   37.4450   25.7910   38.1610 H   0  0  0  0  0  0  0  0  0  0  0  0
   38.3410   24.2300   39.7490 H   0  0  0  0  0  0  0  0  0  0  0  0
   39.5850   22.3010   39.0510 H   0  0  0  0  0  0  0  0  0  0  0  0
   40.1790   21.6200   36.5540 O   0  0  0  0  0  0  0  0  0  0  0  0
   42.4150   20.7510   35.5590 O   0  0  0  0  0  0  0  0  0  0  0  0
   41.8510   21.4520   36.7980 P   0  0  0  0  0  0  0  0  0  0  0  0
   42.6220   22.9470   36.9490 O   0  0  0  0  0  0  0  0  0  0  0  0
   42.1880   23.6520   36.4170 H   0  0  0  0  0  0  0  0  0  0  0  0
   42.2080   20.4920   38.1490 O   0  0  0  0  0  0  0  0  0  0  0  0
   42.1730   21.0220   38.9950 H   0  0  0  0  0  0  0  0  0  0  0  0
  1  6  1  0  0  0  0
  2  3  1  0  0  0  0
  2  1  2  0  0  0  0
  3  4  2  0  0  0  0
  4  9  1  0  0  0  0
  4  5  1  0  0  0  0
  5 10  1  0  0  0  0
  6  5  2  0  0  0  0
  6 23  1  0  0  0  0
  7  2  1  0  0  0  0
  8  3  1  0  0  0  0
 11 17  1  0  0  0  0
 11 12  1  0  0  0  0
 12  1  1  0  0  0  0
 13 12  2  0  0  0  0
 13 19  1  0  0  0  0
 14 13  1  0  0  0  0
 15 16  1  0  0  0  0
 15 14  2  0  0  0  0
 16 11  2  0  0  0  0
 18 15  1  0  0  0  0
 19 21  1  0  0  0  0
 20 19  1  0  0  0  0
 22 19  1  0  0  0  0
 23 26  1  0  0  0  0
 24 25  1  0  0  0  0
 25 26  2  0  0  0  0
 25 30  1  0  0  0  0
 26 27  1  0  0  0  0
 27 31  1  0  0  0  0
 27 28  2  0  0  0  0
 28 32  1  0  0  0  0
 29 28  1  0  0  0  0
 29 33  1  0  0  0  0
 30 29  2  0  0  0  0
 34 36  1  0  0  0  0
 34 30  1  0  0  0  0
 35 36  2  0  0  0  0
 36 37  1  0  0  0  0
 36 39  1  0  0  0  0
 38 37  1  0  0  0  0
 39 40  1  0  0  0  0
M  END
>  <minimizedAffinity>
-6.54146481

$$$$

 OpenBabel03272506283D

 40 42  0  0  0  0  0  0  0  0999 V2000
   35.0540   29.8940   33.0520 C   0  0  0  0  0  0  0  0  0  0  0  0
   34.8150   30.6500   31.9210 C   0  0  0  0  0  0  0  0  0  0  0  0
   35.5950   30.5880   30.7650 C   0  0  0  0  0  0  0  0  0  0  0  0
   36.6950   29.6990   30.7500 C   0  0  0  0  0  0  0  0  0  0  0  0
   36.9110   28.9630   31.8800 C   0  0  0  0  0  0  0  0  0  0  0  0
   36.1460   29.0250   33.0060 C   0  0  0  0  0  0  0  0  0  0  0  0
   33.9660   31.3520   31.9020 H   0  0  0  0  0  0  0  0  0  0  0  0
   35.3020   31.2420   29.9250 H   0  0  0  0  0  0  0  0  0  0  0  0
   37.2050   29.7550   29.8020 H   0  0  0  0  0  0  0  0  0  0  0  0
   37.7790   28.3850   31.6580 H   0  0  0  0  0  0  0  0  0  0  0  0
   32.9440   29.4170   34.1280 C   0  0  0  0  0  0  0  0  0  0  0  0
   34.1680   30.0990   34.1650 C   0  0  0  0  0  0  0  0  0  0  0  0
   34.4350   30.9200   35.2660 C   0  0  0  0  0  0  0  0  0  0  0  0
   33.5020   31.0220   36.2480 N   0  0  0  0  0  0  0  0  0  0  0  0
   32.3170   30.3480   36.1880 C   0  0  0  0  0  0  0  0  0  0  0  0
   32.0430   29.5480   35.1280 N   0  0  0  0  0  0  0  0  0  0  0  0
   32.7120   28.7750   33.2890 H   0  0  0  0  0  0  0  0  0  0  0  0
   31.5810   30.4260   36.9610 H   0  0  0  0  0  0  0  0  0  0  0  0
   35.6900   31.7070   35.4410 C   0  0  0  0  0  0  0  0  0  0  0  0
   36.6930   30.8790   35.9770 F   0  0  0  0  0  0  0  0  0  0  0  0
   36.1720   32.3030   34.3330 F   0  0  0  0  0  0  0  0  0  0  0  0
   35.5040   32.6690   36.4290 F   0  0  0  0  0  0  0  0  0  0  0  0
   36.4310   28.0460   34.4240 S   0  0  0  0  0  0  0  0  0  0  0  0
   38.2650   26.7940   36.6010 Cl  0  0  0  0  0  0  0  0  0  0  0  0
   37.9550   25.9500   35.1070 C   0  0  0  0  0  0  0  0  0  0  0  0
   37.1640   26.4690   34.0970 C   0  0  0  0  0  0  0  0  0  0  0  0
   36.9600   25.7860   32.9290 C   0  0  0  0  0  0  0  0  0  0  0  0
   37.5790   24.5380   32.7900 C   0  0  0  0  0  0  0  0  0  0  0  0
   38.3780   24.0100   33.8060 C   0  0  0  0  0  0  0  0  0  0  0  0
   38.5660   24.7220   34.9720 C   0  0  0  0  0  0  0  0  0  0  0  0
   36.4070   26.0970   32.0840 H   0  0  0  0  0  0  0  0  0  0  0  0
   37.4530   23.9470   31.8830 H   0  0  0  0  0  0  0  0  0  0  0  0
   38.8230   23.0480   33.6360 H   0  0  0  0  0  0  0  0  0  0  0  0
   39.3580   24.1910   35.9720 O   0  0  0  0  0  0  0  0  0  0  0  0
   37.9580   23.8510   38.1330 O   0  0  0  0  0  0  0  0  0  0  0  0
   38.7940   23.0690   37.1160 P   0  0  0  0  0  0  0  0  0  0  0  0
   37.8020   21.8960   36.4150 O   0  0  0  0  0  0  0  0  0  0  0  0
   37.2890   22.2420   35.6490 H   0  0  0  0  0  0  0  0  0  0  0  0
   40.0610   22.3140   37.9500 O   0  0  0  0  0  0  0  0  0  0  0  0
   40.4350   21.5460   37.4330 H   0  0  0  0  0  0  0  0  0  0  0  0
  1 12  1  0  0  0  0
  2  1  2  0  0  0  0
  3  2  1  0  0  0  0
  4  3  2  0  0  0  0
  4  5  1  0  0  0  0
  5  6  2  0  0  0  0
  6  1  1  0  0  0  0
  6 23  1  0  0  0  0
  7  2  1  0  0  0  0
  8  3  1  0  0  0  0
  9  4  1  0  0  0  0
 10  5  1  0  0  0  0
 11 12  2  0  0  0  0
 11 16  1  0  0  0  0
 12 13  1  0  0  0  0
 13 19  1  0  0  0  0
 13 14  2  0  0  0  0
 15 14  1  0  0  0  0
 15 18  1  0  0  0  0
 16 15  2  0  0  0  0
 17 11  1  0  0  0  0
 19 20  1  0  0  0  0
 19 22  1  0  0  0  0
 21 19  1  0  0  0  0
 25 24  1  0  0  0  0
 26 23  1  0  0  0  0
 26 25  2  0  0  0  0
 27 26  1  0  0  0  0
 28 27  2  0  0  0  0
 28 29  1  0  0  0  0
 29 30  2  0  0  0  0
 30 25  1  0  0  0  0
 30 34  1  0  0  0  0
 31 27  1  0  0  0  0
 32 28  1  0  0  0  0
 33 29  1  0  0  0  0
 34 36  1  0  0  0  0
 36 39  1  0  0  0  0
 36 35  2  0  0  0  0
 37 36  1  0  0  0  0
 38 37  1  0  0  0  0
 40 39  1  0  0  0  0
M  END
>  <minimizedAffinity>
-6.51133013

$$$$

 OpenBabel03272506283D

 40 42  0  0  0  0  0  0  0  0999 V2000
   39.3050   24.7130   34.9100 C   0  0  0  0  0  0  0  0  0  0  0  0
   40.6580   24.4430   34.8530 C   0  0  0  0  0  0  0  0  0  0  0  0
   41.6400   25.4210   34.6830 C   0  0  0  0  0  0  0  0  0  0  0  0
   41.2240   26.7670   34.5620 C   0  0  0  0  0  0  0  0  0  0  0  0
   39.8810   27.0090   34.6210 C   0  0  0  0  0  0  0  0  0  0  0  0
   38.9260   26.0520   34.7890 C   0  0  0  0  0  0  0  0  0  0  0  0
   41.0130   23.4040   34.9440 H   0  0  0  0  0  0  0  0  0  0  0  0
   42.6890   25.0800   34.6540 H   0  0  0  0  0  0  0  0  0  0  0  0
   42.0810   27.4100   34.4360 H   0  0  0  0  0  0  0  0  0  0  0  0
   39.7960   28.0640   34.4960 H   0  0  0  0  0  0  0  0  0  0  0  0
   38.0030   22.9530   33.8880 C   0  0  0  0  0  0  0  0  0  0  0  0
   38.4270   23.5850   35.0650 C   0  0  0  0  0  0  0  0  0  0  0  0
   37.9720   23.0800   36.2880 C   0  0  0  0  0  0  0  0  0  0  0  0
   37.1420   22.0050   36.2840 N   0  0  0  0  0  0  0  0  0  0  0  0
   36.7420   21.4080   35.1240 C   0  0  0  0  0  0  0  0  0  0  0  0
   37.1750   21.8840   33.9300 N   0  0  0  0  0  0  0  0  0  0  0  0
   38.3390   23.3220   32.9290 H   0  0  0  0  0  0  0  0  0  0  0  0
   36.0890   20.5600   35.1180 H   0  0  0  0  0  0  0  0  0  0  0  0
   38.3370   23.6490   37.6180 C   0  0  0  0  0  0  0  0  0  0  0  0
   39.6840   23.3580   37.8990 F   0  0  0  0  0  0  0  0  0  0  0  0
   38.1440   24.9730   37.7660 F   0  0  0  0  0  0  0  0  0  0  0  0
   37.6460   22.9740   38.6190 F   0  0  0  0  0  0  0  0  0  0  0  0
   37.2180   26.3970   34.8920 S   0  0  0  0  0  0  0  0  0  0  0  0
   37.4540   26.0270   31.8120 Cl  0  0  0  0  0  0  0  0  0  0  0  0
   36.7760   27.4870   32.4830 C   0  0  0  0  0  0  0  0  0  0  0  0
   36.6660   27.7120   33.8430 C   0  0  0  0  0  0  0  0  0  0  0  0
   36.1470   28.8800   34.3330 C   0  0  0  0  0  0  0  0  0  0  0  0
   35.7270   29.8420   33.4070 C   0  0  0  0  0  0  0  0  0  0  0  0
   35.8360   29.6190   32.0330 C   0  0  0  0  0  0  0  0  0  0  0  0
   36.3640   28.4330   31.5690 C   0  0  0  0  0  0  0  0  0  0  0  0
   36.0460   29.1710   35.3440 H   0  0  0  0  0  0  0  0  0  0  0  0
   35.3050   30.7910   33.7360 H   0  0  0  0  0  0  0  0  0  0  0  0
   35.4950   30.3980   31.3770 H   0  0  0  0  0  0  0  0  0  0  0  0
   36.4680   28.2210   30.2080 O   0  0  0  0  0  0  0  0  0  0  0  0
   38.8460   29.2480   30.0310 O   0  0  0  0  0  0  0  0  0  0  0  0
   37.5670   29.0500   29.2130 P   0  0  0  0  0  0  0  0  0  0  0  0
   37.9620   28.1640   27.8300 O   0  0  0  0  0  0  0  0  0  0  0  0
   37.9500   27.1930   27.9870 H   0  0  0  0  0  0  0  0  0  0  0  0
   36.9930   30.5790   28.7610 O   0  0  0  0  0  0  0  0  0  0  0  0
   36.3780   30.5230   27.9760 H   0  0  0  0  0  0  0  0  0  0  0  0
  1 12  1  0  0  0  0
  2  1  1  0  0  0  0
  2  7  1  0  0  0  0
  3  2  2  0  0  0  0
  4  5  2  0  0  0  0
  4  3  1  0  0  0  0
  5  6  1  0  0  0  0
  6 23  1  0  0  0  0
  6  1  2  0  0  0  0
  8  3  1  0  0  0  0
  9  4  1  0  0  0  0
 10  5  1  0  0  0  0
 11 16  2  0  0  0  0
 11 12  1  0  0  0  0
 12 13  2  0  0  0  0
 13 19  1  0  0  0  0
 14 13  1  0  0  0  0
 15 14  2  0  0  0  0
 16 15  1  0  0  0  0
 17 11  1  0  0  0  0
 18 15  1  0  0  0  0
 19 21  1  0  0  0  0
 19 20  1  0  0  0  0
 19 22  1  0  0  0  0
 24 25  1  0  0  0  0
 25 26  1  0  0  0  0
 26 27  2  0  0  0  0
 26 23  1  0  0  0  0
 27 31  1  0  0  0  0
 28 32  1  0  0  0  0
 28 27  1  0  0  0  0
 29 28  2  0  0  0  0
 30 29  1  0  0  0  0
 30 25  2  0  0  0  0
 33 29  1  0  0  0  0
 34 30  1  0  0  0  0
 36 35  2  0  0  0  0
 36 34  1  0  0  0  0
 37 38  1  0  0  0  0
 37 36  1  0  0  0  0
 39 36  1  0  0  0  0
 40 39  1  0  0  0  0
M  END
>  <minimizedAffinity>
-6.33732605

$$$$

 OpenBabel03272506283D

 40 42  0  0  0  0  0  0  0  0999 V2000
   39.4210   24.5580   34.9770 C   0  0  0  0  0  0  0  0  0  0  0  0
   40.7570   24.2260   35.0850 C   0  0  0  0  0  0  0  0  0  0  0  0
   41.8000   25.1440   34.9470 C   0  0  0  0  0  0  0  0  0  0  0  0
   41.4690   26.4930   34.6820 C   0  0  0  0  0  0  0  0  0  0  0  0
   40.1420   26.7960   34.5790 C   0  0  0  0  0  0  0  0  0  0  0  0
   39.1260   25.8980   34.7160 C   0  0  0  0  0  0  0  0  0  0  0  0
   41.0470   23.1840   35.2900 H   0  0  0  0  0  0  0  0  0  0  0  0
   42.8280   24.7570   35.0550 H   0  0  0  0  0  0  0  0  0  0  0  0
   42.3660   27.0860   34.6000 H   0  0  0  0  0  0  0  0  0  0  0  0
   40.1240   27.8410   34.3670 H   0  0  0  0  0  0  0  0  0  0  0  0
   38.0850   22.8300   33.9460 C   0  0  0  0  0  0  0  0  0  0  0  0
   38.4760   23.4850   35.1210 C   0  0  0  0  0  0  0  0  0  0  0  0
   37.9250   23.0550   36.3340 C   0  0  0  0  0  0  0  0  0  0  0  0
   37.0390   22.0260   36.3220 N   0  0  0  0  0  0  0  0  0  0  0  0
   36.6730   21.4040   35.1620 C   0  0  0  0  0  0  0  0  0  0  0  0
   37.1980   21.8090   33.9800 N   0  0  0  0  0  0  0  0  0  0  0  0
   38.4950   23.1420   32.9960 H   0  0  0  0  0  0  0  0  0  0  0  0
   35.9750   20.5930   35.1500 H   0  0  0  0  0  0  0  0  0  0  0  0
   38.2440   23.6570   37.6610 C   0  0  0  0  0  0  0  0  0  0  0  0
   39.5570   23.3110   38.0300 F   0  0  0  0  0  0  0  0  0  0  0  0
   38.1120   24.9940   37.7490 F   0  0  0  0  0  0  0  0  0  0  0  0
   37.4640   23.0570   38.6450 F   0  0  0  0  0  0  0  0  0  0  0  0
   37.4370   26.3240   34.6110 S   0  0  0  0  0  0  0  0  0  0  0  0
   36.1650   29.1560   34.8180 Cl  0  0  0  0  0  0  0  0  0  0  0  0
   36.4320   28.4120   33.2630 C   0  0  0  0  0  0  0  0  0  0  0  0
   36.9740   27.1480   33.1140 C   0  0  0  0  0  0  0  0  0  0  0  0
   37.1490   26.5880   31.8780 C   0  0  0  0  0  0  0  0  0  0  0  0
   36.7610   27.3420   30.7630 C   0  0  0  0  0  0  0  0  0  0  0  0
   36.2130   28.6180   30.9090 C   0  0  0  0  0  0  0  0  0  0  0  0
   36.0480   29.1550   32.1680 C   0  0  0  0  0  0  0  0  0  0  0  0
   37.5210   25.6260   31.6490 H   0  0  0  0  0  0  0  0  0  0  0  0
   36.8770   26.9490   29.7530 H   0  0  0  0  0  0  0  0  0  0  0  0
   35.9370   29.1420   30.0130 H   0  0  0  0  0  0  0  0  0  0  0  0
   35.5050   30.4180   32.3020 O   0  0  0  0  0  0  0  0  0  0  0  0
   33.1260   29.4140   32.5750 O   0  0  0  0  0  0  0  0  0  0  0  0
   33.8370   30.7300   32.2460 P   0  0  0  0  0  0  0  0  0  0  0  0
   33.3690   31.8780   33.3940 O   0  0  0  0  0  0  0  0  0  0  0  0
   33.9190   31.8450   34.2090 H   0  0  0  0  0  0  0  0  0  0  0  0
   33.3290   31.2290   30.7080 O   0  0  0  0  0  0  0  0  0  0  0  0
   33.4810   32.2050   30.5700 H   0  0  0  0  0  0  0  0  0  0  0  0
  1  2  1  0  0  0  0
  1 12  1  0  0  0  0
  2  7  1  0  0  0  0
  3  8  1  0  0  0  0
  3  2  2  0  0  0  0
  4  3  1  0  0  0  0
  5  4  2  0  0  0  0
  5  6  1  0  0  0  0
  6  1  2  0  0  0  0
  9  4  1  0  0  0  0
 10  5  1  0  0  0  0
 11 16  2  0  0  0  0
 11 12  1  0  0  0  0
 12 13  2  0  0  0  0
 13 19  1  0  0  0  0
 14 13  1  0  0  0  0
 15 14  2  0  0  0  0
 16 15  1  0  0  0  0
 17 11  1  0  0  0  0
 18 15  1  0  0  0  0
 19 21  1  0  0  0  0
 19 20  1  0  0  0  0
 19 22  1  0  0  0  0
 23  6  1  0  0  0  0
 25 24  1  0  0  0  0
 26 25  1  0  0  0  0
 26 23  1  0  0  0  0
 27 26  2  0  0  0  0
 28 29  2  0  0  0  0
 28 27  1  0  0  0  0
 29 30  1  0  0  0  0
 30 34  1  0  0  0  0
 30 25  2  0  0  0  0
 31 27  1  0  0  0  0
 32 28  1  0  0  0  0
 33 29  1  0  0  0  0
 36 34  1  0  0  0  0
 36 35  2  0  0  0  0
 36 37  1  0  0  0  0
 37 38  1  0  0  0  0
 39 36  1  0  0  0  0
 40 39  1  0  0  0  0
M  END
>  <minimizedAffinity>
-6.10170746

$$$$

 OpenBabel03272506283D

 40 42  0  0  0  0  0  0  0  0999 V2000
   38.1980   22.7280   34.0700 C   0  0  0  0  0  0  0  0  0  0  0  0
   37.5560   21.5430   33.7660 C   0  0  0  0  0  0  0  0  0  0  0  0
   36.5740   21.4220   32.7810 C   0  0  0  0  0  0  0  0  0  0  0  0
   36.2140   22.5800   32.0530 C   0  0  0  0  0  0  0  0  0  0  0  0
   36.8630   23.7390   32.3730 C   0  0  0  0  0  0  0  0  0  0  0  0
   37.8230   23.8530   33.3330 C   0  0  0  0  0  0  0  0  0  0  0  0
   37.8140   20.6250   34.3160 H   0  0  0  0  0  0  0  0  0  0  0  0
   36.1340   20.4210   32.6300 H   0  0  0  0  0  0  0  0  0  0  0  0
   35.4490   22.3420   31.3320 H   0  0  0  0  0  0  0  0  0  0  0  0
   36.4350   24.4700   31.7250 H   0  0  0  0  0  0  0  0  0  0  0  0
   40.4740   22.3200   34.7720 C   0  0  0  0  0  0  0  0  0  0  0  0
   39.1680   22.6820   35.1300 C   0  0  0  0  0  0  0  0  0  0  0  0
   38.9050   22.9680   36.4750 C   0  0  0  0  0  0  0  0  0  0  0  0
   39.9210   22.8820   37.3730 N   0  0  0  0  0  0  0  0  0  0  0  0
   41.1850   22.5270   36.9990 C   0  0  0  0  0  0  0  0  0  0  0  0
   41.4560   22.2470   35.7000 N   0  0  0  0  0  0  0  0  0  0  0  0
   40.7040   22.0940   33.7410 H   0  0  0  0  0  0  0  0  0  0  0  0
   41.9860   22.4590   37.7040 H   0  0  0  0  0  0  0  0  0  0  0  0
   37.5670   23.3640   37.0030 C   0  0  0  0  0  0  0  0  0  0  0  0
   37.6110   23.4080   38.4080 F   0  0  0  0  0  0  0  0  0  0  0  0
   37.0780   24.5350   36.5520 F   0  0  0  0  0  0  0  0  0  0  0  0
   36.6450   22.3550   36.7400 F   0  0  0  0  0  0  0  0  0  0  0  0
   38.6560   25.3430   33.6960 S   0  0  0  0  0  0  0  0  0  0  0  0
   38.5760   26.8130   30.9560 Cl  0  0  0  0  0  0  0  0  0  0  0  0
   37.6460   27.4030   32.3090 C   0  0  0  0  0  0  0  0  0  0  0  0
   37.6600   26.8000   33.5540 C   0  0  0  0  0  0  0  0  0  0  0  0
   36.9330   27.3030   34.5980 C   0  0  0  0  0  0  0  0  0  0  0  0
   36.1690   28.4530   34.3620 C   0  0  0  0  0  0  0  0  0  0  0  0
   36.1510   29.0640   33.1060 C   0  0  0  0  0  0  0  0  0  0  0  0
   36.8950   28.5340   32.0740 C   0  0  0  0  0  0  0  0  0  0  0  0
   36.8940   26.9480   35.5920 H   0  0  0  0  0  0  0  0  0  0  0  0
   35.5680   28.8990   35.1540 H   0  0  0  0  0  0  0  0  0  0  0  0
   35.5440   29.9430   32.9930 H   0  0  0  0  0  0  0  0  0  0  0  0
   36.8720   29.1460   30.8350 O   0  0  0  0  0  0  0  0  0  0  0  0
   36.8970   31.6400   31.5560 O   0  0  0  0  0  0  0  0  0  0  0  0
   36.2170   30.6890   30.5670 P   0  0  0  0  0  0  0  0  0  0  0  0
   36.5330   31.2480   29.0040 O   0  0  0  0  0  0  0  0  0  0  0  0
   37.3900   30.9190   28.6510 H   0  0  0  0  0  0  0  0  0  0  0  0
   34.5480   30.7370   30.8580 O   0  0  0  0  0  0  0  0  0  0  0  0
   34.0290   30.4170   30.0680 H   0  0  0  0  0  0  0  0  0  0  0  0
  1 12  1  0  0  0  0
  2  1  1  0  0  0  0
  2  7  1  0  0  0  0
  3  2  2  0  0  0  0
  4  5  2  0  0  0  0
  4  3  1  0  0  0  0
  5  6  1  0  0  0  0
  6 23  1  0  0  0  0
  6  1  2  0  0  0  0
  8  3  1  0  0  0  0
  9  4  1  0  0  0  0
 10  5  1  0  0  0  0
 11 12  2  0  0  0  0
 11 16  1  0  0  0  0
 12 13  1  0  0  0  0
 13 19  1  0  0  0  0
 13 14  2  0  0  0  0
 15 14  1  0  0  0  0
 15 18  1  0  0  0  0
 16 15  2  0  0  0  0
 17 11  1  0  0  0  0
 19 20  1  0  0  0  0
 21 19  1  0  0  0  0
 22 19  1  0  0  0  0
 24 25  1  0  0  0  0
 25 26  1  0  0  0  0
 26 23  1  0  0  0  0
 26 27  2  0  0  0  0
 27 31  1  0  0  0  0
 28 27  1  0  0  0  0
 28 32  1  0  0  0  0
 29 28  2  0  0  0  0
 30 25  2  0  0  0  0
 30 29  1  0  0  0  0
 33 29  1  0  0  0  0
 34 30  1  0  0  0  0
 36 34  1  0  0  0  0
 36 39  1  0  0  0  0
 36 35  2  0  0  0  0
 37 36  1  0  0  0  0
 38 37  1  0  0  0  0
 40 39  1  0  0  0  0
M  END
>  <minimizedAffinity>
-6.02398682

$$$$

 OpenBabel03272506283D

 40 42  0  0  0  0  0  0  0  0999 V2000
   37.5500   26.8060   31.4220 C   0  0  0  0  0  0  0  0  0  0  0  0
   36.3870   27.3290   30.8920 C   0  0  0  0  0  0  0  0  0  0  0  0
   35.5920   28.2730   31.5430 C   0  0  0  0  0  0  0  0  0  0  0  0
   36.0000   28.7200   32.8210 C   0  0  0  0  0  0  0  0  0  0  0  0
   37.1530   28.1880   33.3240 C   0  0  0  0  0  0  0  0  0  0  0  0
   37.9280   27.2680   32.6840 C   0  0  0  0  0  0  0  0  0  0  0  0
   36.0420   27.0000   29.8990 H   0  0  0  0  0  0  0  0  0  0  0  0
   34.6850   28.6160   31.0150 H   0  0  0  0  0  0  0  0  0  0  0  0
   35.2970   29.4420   33.2040 H   0  0  0  0  0  0  0  0  0  0  0  0
   37.2610   28.6450   34.2810 H   0  0  0  0  0  0  0  0  0  0  0  0
   39.3910   26.2500   29.9580 C   0  0  0  0  0  0  0  0  0  0  0  0
   38.2360   25.8230   30.6280 C   0  0  0  0  0  0  0  0  0  0  0  0
   37.8400   24.4900   30.4780 C   0  0  0  0  0  0  0  0  0  0  0  0
   38.5840   23.6690   29.6930 N   0  0  0  0  0  0  0  0  0  0  0  0
   39.7050   24.1100   29.0500 C   0  0  0  0  0  0  0  0  0  0  0  0
   40.1030   25.3990   29.1850 N   0  0  0  0  0  0  0  0  0  0  0  0
   39.7200   27.2750   30.0570 H   0  0  0  0  0  0  0  0  0  0  0  0
   40.2940   23.4650   28.4310 H   0  0  0  0  0  0  0  0  0  0  0  0
   36.6350   23.8940   31.1270 C   0  0  0  0  0  0  0  0  0  0  0  0
   36.6640   24.1640   32.5080 F   0  0  0  0  0  0  0  0  0  0  0  0
   35.4450   24.2900   30.6370 F   0  0  0  0  0  0  0  0  0  0  0  0
   36.7110   22.5060   31.0680 F   0  0  0  0  0  0  0  0  0  0  0  0
   39.4140   26.6300   33.3410 S   0  0  0  0  0  0  0  0  0  0  0  0
   37.6120   26.0330   35.8050 Cl  0  0  0  0  0  0  0  0  0  0  0  0
   38.4800   24.7480   35.0060 C   0  0  0  0  0  0  0  0  0  0  0  0
   39.3090   24.9610   33.9200 C   0  0  0  0  0  0  0  0  0  0  0  0
   39.9910   23.9300   33.3300 C   0  0  0  0  0  0  0  0  0  0  0  0
   39.8170   22.6480   33.8660 C   0  0  0  0  0  0  0  0  0  0  0  0
   38.9800   22.4290   34.9610 C   0  0  0  0  0  0  0  0  0  0  0  0
   38.3080   23.4870   35.5340 C   0  0  0  0  0  0  0  0  0  0  0  0
   40.6710   23.9800   32.5240 H   0  0  0  0  0  0  0  0  0  0  0  0
   40.3320   21.7880   33.4390 H   0  0  0  0  0  0  0  0  0  0  0  0
   38.8910   21.4210   35.3220 H   0  0  0  0  0  0  0  0  0  0  0  0
   37.4820   23.2610   36.6190 O   0  0  0  0  0  0  0  0  0  0  0  0
   38.0290   24.6060   38.7720 O   0  0  0  0  0  0  0  0  0  0  0  0
   38.0420   23.1770   38.2200 P   0  0  0  0  0  0  0  0  0  0  0  0
   37.0360   22.2320   39.1930 O   0  0  0  0  0  0  0  0  0  0  0  0
   36.0920   22.2750   38.9170 H   0  0  0  0  0  0  0  0  0  0  0  0
   39.6300   22.5940   38.3130 O   0  0  0  0  0  0  0  0  0  0  0  0
   39.6570   21.5970   38.2880 H   0  0  0  0  0  0  0  0  0  0  0  0
  1  6  1  0  0  0  0
  2  1  2  0  0  0  0
  2  3  1  0  0  0  0
  3  4  2  0  0  0  0
  4  9  1  0  0  0  0
  4  5  1  0  0  0  0
  5 10  1  0  0  0  0
  6  5  2  0  0  0  0
  6 23  1  0  0  0  0
  7  2  1  0  0  0  0
  8  3  1  0  0  0  0
 11 17  1  0  0  0  0
 11 12  1  0  0  0  0
 12  1  1  0  0  0  0
 13 12  2  0  0  0  0
 13 19  1  0  0  0  0
 14 13  1  0  0  0  0
 15 16  1  0  0  0  0
 15 14  2  0  0  0  0
 16 11  2  0  0  0  0
 18 15  1  0  0  0  0
 19 20  1  0  0  0  0
 21 19  1  0  0  0  0
 22 19  1  0  0  0  0
 23 26  1  0  0  0  0
 25 30  1  0  0  0  0
 25 24  1  0  0  0  0
 26 25  2  0  0  0  0
 27 28  2  0  0  0  0
 27 26  1  0  0  0  0
 28 29  1  0  0  0  0
 29 33  1  0  0  0  0
 29 30  2  0  0  0  0
 30 34  1  0  0  0  0
 31 27  1  0  0  0  0
 32 28  1  0  0  0  0
 34 36  1  0  0  0  0
 36 39  1  0  0  0  0
 36 35  2  0  0  0  0
 36 37  1  0  0  0  0
 38 37  1  0  0  0  0
 40 39  1  0  0  0  0
M  END
>  <minimizedAffinity>
-5.88111782

$$$$

 OpenBabel03272506283D

 40 42  0  0  0  0  0  0  0  0999 V2000
   37.3370   27.0170   32.0980 C   0  0  0  0  0  0  0  0  0  0  0  0
   36.2010   27.6650   31.6550 C   0  0  0  0  0  0  0  0  0  0  0  0
   35.4220   28.5030   32.4550 C   0  0  0  0  0  0  0  0  0  0  0  0
   35.8190   28.7000   33.7970 C   0  0  0  0  0  0  0  0  0  0  0  0
   36.9460   28.0490   34.2120 C   0  0  0  0  0  0  0  0  0  0  0  0
   37.7050   27.2330   33.4280 C   0  0  0  0  0  0  0  0  0  0  0  0
   35.8650   27.5310   30.6150 H   0  0  0  0  0  0  0  0  0  0  0  0
   34.5360   28.9650   31.9850 H   0  0  0  0  0  0  0  0  0  0  0  0
   35.1310   29.3650   34.2950 H   0  0  0  0  0  0  0  0  0  0  0  0
   37.0490   28.3230   35.2370 H   0  0  0  0  0  0  0  0  0  0  0  0
   38.9820   26.7770   30.3440 C   0  0  0  0  0  0  0  0  0  0  0  0
   38.0090   26.1700   31.1500 C   0  0  0  0  0  0  0  0  0  0  0  0
   37.7630   24.8040   30.9760 C   0  0  0  0  0  0  0  0  0  0  0  0
   38.4730   24.1250   30.0380 N   0  0  0  0  0  0  0  0  0  0  0  0
   39.4150   24.7400   29.2640 C   0  0  0  0  0  0  0  0  0  0  0  0
   39.6650   26.0630   29.4210 N   0  0  0  0  0  0  0  0  0  0  0  0
   39.1910   27.8310   30.4570 H   0  0  0  0  0  0  0  0  0  0  0  0
   39.9770   24.2070   28.5250 H   0  0  0  0  0  0  0  0  0  0  0  0
   36.7590   24.0250   31.7580 C   0  0  0  0  0  0  0  0  0  0  0  0
   36.6810   22.7160   31.2500 F   0  0  0  0  0  0  0  0  0  0  0  0
   36.9690   23.9580   33.0870 F   0  0  0  0  0  0  0  0  0  0  0  0
   35.4870   24.5380   31.5250 F   0  0  0  0  0  0  0  0  0  0  0  0
   39.1590   26.4390   33.9790 S   0  0  0  0  0  0  0  0  0  0  0  0
   40.5680   23.6720   33.8110 Cl  0  0  0  0  0  0  0  0  0  0  0  0
   39.5810   24.0840   35.1880 C   0  0  0  0  0  0  0  0  0  0  0  0
   38.9160   25.2920   35.3050 C   0  0  0  0  0  0  0  0  0  0  0  0
   38.1320   25.5730   36.3920 C   0  0  0  0  0  0  0  0  0  0  0  0
   38.0280   24.5930   37.3870 C   0  0  0  0  0  0  0  0  0  0  0  0
   38.6980   23.3730   37.2730 C   0  0  0  0  0  0  0  0  0  0  0  0
   39.4790   23.1180   36.1660 C   0  0  0  0  0  0  0  0  0  0  0  0
   37.5580   26.4410   36.5700 H   0  0  0  0  0  0  0  0  0  0  0  0
   37.4210   24.7590   38.2760 H   0  0  0  0  0  0  0  0  0  0  0  0
   38.5760   22.6650   38.0720 H   0  0  0  0  0  0  0  0  0  0  0  0
   40.1380   21.9090   36.0620 O   0  0  0  0  0  0  0  0  0  0  0  0
   42.4400   20.7940   35.6150 O   0  0  0  0  0  0  0  0  0  0  0  0
   41.7070   21.6430   36.6570 P   0  0  0  0  0  0  0  0  0  0  0  0
   42.5630   23.0870   36.8500 O   0  0  0  0  0  0  0  0  0  0  0  0
   42.3070   23.7700   36.1890 H   0  0  0  0  0  0  0  0  0  0  0  0
   41.7010   20.7880   38.1200 O   0  0  0  0  0  0  0  0  0  0  0  0
   41.5460   21.3940   38.8980 H   0  0  0  0  0  0  0  0  0  0  0  0
  1  6  1  0  0  0  0
  2  1  2  0  0  0  0
  2  3  1  0  0  0  0
  3  4  2  0  0  0  0
  4  5  1  0  0  0  0
  4  9  1  0  0  0  0
  5 10  1  0  0  0  0
  6 23  1  0  0  0  0
  6  5  2  0  0  0  0
  7  2  1  0  0  0  0
  8  3  1  0  0  0  0
 11 17  1  0  0  0  0
 11 12  1  0  0  0  0
 12  1  1  0  0  0  0
 13 12  2  0  0  0  0
 13 19  1  0  0  0  0
 14 13  1  0  0  0  0
 15 16  1  0  0  0  0
 15 14  2  0  0  0  0
 16 11  2  0  0  0  0
 18 15  1  0  0  0  0
 19 21  1  0  0  0  0
 20 19  1  0  0  0  0
 22 19  1  0  0  0  0
 23 26  1  0  0  0  0
 24 25  1  0  0  0  0
 25 26  2  0  0  0  0
 25 30  1  0  0  0  0
 26 27  1  0  0  0  0
 27 31  1  0  0  0  0
 27 28  2  0  0  0  0
 28 32  1  0  0  0  0
 29 28  1  0  0  0  0
 29 33  1  0  0  0  0
 30 29  2  0  0  0  0
 34 30  1  0  0  0  0
 34 36  1  0  0  0  0
 35 36  2  0  0  0  0
 36 37  1  0  0  0  0
 36 39  1  0  0  0  0
 38 37  1  0  0  0  0
 39 40  1  0  0  0  0
M  END
>  <minimizedAffinity>
-5.87314749

$$$$

 OpenBabel03272506283D

 40 42  0  0  0  0  0  0  0  0999 V2000
   38.3690   22.5850   34.3870 C   0  0  0  0  0  0  0  0  0  0  0  0
   37.4650   21.5560   34.2080 C   0  0  0  0  0  0  0  0  0  0  0  0
   36.5270   21.5160   33.1750 C   0  0  0  0  0  0  0  0  0  0  0  0
   36.5000   22.5920   32.2580 C   0  0  0  0  0  0  0  0  0  0  0  0
   37.4030   23.5970   32.4560 C   0  0  0  0  0  0  0  0  0  0  0  0
   38.3190   23.6320   33.4640 C   0  0  0  0  0  0  0  0  0  0  0  0
   37.4600   20.7040   34.9060 H   0  0  0  0  0  0  0  0  0  0  0  0
   35.8580   20.6380   33.1370 H   0  0  0  0  0  0  0  0  0  0  0  0
   35.7320   22.4310   31.5190 H   0  0  0  0  0  0  0  0  0  0  0  0
   37.2000   24.2940   31.6750 H   0  0  0  0  0  0  0  0  0  0  0  0
   40.4900   21.8670   35.2940 C   0  0  0  0  0  0  0  0  0  0  0  0
   39.2500   22.4800   35.5180 C   0  0  0  0  0  0  0  0  0  0  0  0
   38.9620   22.9390   36.8080 C   0  0  0  0  0  0  0  0  0  0  0  0
   39.8900   22.7720   37.7850 N   0  0  0  0  0  0  0  0  0  0  0  0
   41.0910   22.1700   37.5420 C   0  0  0  0  0  0  0  0  0  0  0  0
   41.3860   21.7200   36.2970 N   0  0  0  0  0  0  0  0  0  0  0  0
   40.7380   21.5030   34.3070 H   0  0  0  0  0  0  0  0  0  0  0  0
   41.8240   22.0370   38.3100 H   0  0  0  0  0  0  0  0  0  0  0  0
   37.6850   23.6090   37.1950 C   0  0  0  0  0  0  0  0  0  0  0  0
   37.7420   23.9780   38.5510 F   0  0  0  0  0  0  0  0  0  0  0  0
   37.3430   24.6900   36.4700 F   0  0  0  0  0  0  0  0  0  0  0  0
   36.6450   22.6860   37.1550 F   0  0  0  0  0  0  0  0  0  0  0  0
   39.4820   24.9170   33.6720 S   0  0  0  0  0  0  0  0  0  0  0  0
   37.8430   27.4830   33.0370 Cl  0  0  0  0  0  0  0  0  0  0  0  0
   39.1180   26.9560   31.9710 C   0  0  0  0  0  0  0  0  0  0  0  0
   39.8640   25.8130   32.1940 C   0  0  0  0  0  0  0  0  0  0  0  0
   40.8440   25.4190   31.3240 C   0  0  0  0  0  0  0  0  0  0  0  0
   41.0680   26.2170   30.1950 C   0  0  0  0  0  0  0  0  0  0  0  0
   40.3180   27.3720   29.9660 C   0  0  0  0  0  0  0  0  0  0  0  0
   39.3370   27.7430   30.8610 C   0  0  0  0  0  0  0  0  0  0  0  0
   41.4490   24.5550   31.3760 H   0  0  0  0  0  0  0  0  0  0  0  0
   41.8350   25.9560   29.4670 H   0  0  0  0  0  0  0  0  0  0  0  0
   40.5410   27.9390   29.0810 H   0  0  0  0  0  0  0  0  0  0  0  0
   38.5990   28.8870   30.6250 O   0  0  0  0  0  0  0  0  0  0  0  0
   37.7840   29.1050   28.1700 O   0  0  0  0  0  0  0  0  0  0  0  0
   37.2500   28.9360   29.5950 P   0  0  0  0  0  0  0  0  0  0  0  0
   36.3590   27.5020   29.6520 O   0  0  0  0  0  0  0  0  0  0  0  0
   36.9210   26.7130   29.8250 H   0  0  0  0  0  0  0  0  0  0  0  0
   36.2330   30.2480   29.9330 O   0  0  0  0  0  0  0  0  0  0  0  0
   35.6080   30.0440   30.6840 H   0  0  0  0  0  0  0  0  0  0  0  0
  1 12  1  0  0  0  0
  2  1  1  0  0  0  0
  2  7  1  0  0  0  0
  3  2  2  0  0  0  0
  4  5  2  0  0  0  0
  4  3  1  0  0  0  0
  5  6  1  0  0  0  0
  6 23  1  0  0  0  0
  6  1  2  0  0  0  0
  8  3  1  0  0  0  0
  9  4  1  0  0  0  0
 10  5  1  0  0  0  0
 11 12  2  0  0  0  0
 11 16  1  0  0  0  0
 12 13  1  0  0  0  0
 13 19  1  0  0  0  0
 13 14  2  0  0  0  0
 15 14  1  0  0  0  0
 15 18  1  0  0  0  0
 16 15  2  0  0  0  0
 17 11  1  0  0  0  0
 19 20  1  0  0  0  0
 21 19  1  0  0  0  0
 22 19  1  0  0  0  0
 25 26  1  0  0  0  0
 25 24  1  0  0  0  0
 26 23  1  0  0  0  0
 27 31  1  0  0  0  0
 27 26  2  0  0  0  0
 28 27  1  0  0  0  0
 29 28  2  0  0  0  0
 29 30  1  0  0  0  0
 30 25  2  0  0  0  0
 32 28  1  0  0  0  0
 33 29  1  0  0  0  0
 34 30  1  0  0  0  0
 35 36  2  0  0  0  0
 36 37  1  0  0  0  0
 36 39  1  0  0  0  0
 36 34  1  0  0  0  0
 37 38  1  0  0  0  0
 39 40  1  0  0  0  0
M  END
>  <minimizedAffinity>
-5.70648956

$$$$

 OpenBabel03272506283D

 40 42  0  0  0  0  0  0  0  0999 V2000
   39.1660   26.0800   34.7420 C   0  0  0  0  0  0  0  0  0  0  0  0
   38.8350   26.9760   35.7390 C   0  0  0  0  0  0  0  0  0  0  0  0
   37.7770   27.8830   35.6500 C   0  0  0  0  0  0  0  0  0  0  0  0
   37.0000   27.8850   34.4690 C   0  0  0  0  0  0  0  0  0  0  0  0
   37.3470   26.9900   33.4970 C   0  0  0  0  0  0  0  0  0  0  0  0
   38.3790   26.1050   33.5880 C   0  0  0  0  0  0  0  0  0  0  0  0
   39.4220   26.9990   36.6700 H   0  0  0  0  0  0  0  0  0  0  0  0
   37.6120   28.5490   36.5150 H   0  0  0  0  0  0  0  0  0  0  0  0
   36.2240   28.6310   34.5360 H   0  0  0  0  0  0  0  0  0  0  0  0
   36.6530   27.1710   32.7080 H   0  0  0  0  0  0  0  0  0  0  0  0
   41.5450   25.7050   34.5460 C   0  0  0  0  0  0  0  0  0  0  0  0
   40.3010   25.2320   34.9860 C   0  0  0  0  0  0  0  0  0  0  0  0
   40.2540   23.9870   35.6230 C   0  0  0  0  0  0  0  0  0  0  0  0
   41.4080   23.2910   35.7860 N   0  0  0  0  0  0  0  0  0  0  0  0
   42.6080   23.7730   35.3470 C   0  0  0  0  0  0  0  0  0  0  0  0
   42.6710   24.9780   34.7290 N   0  0  0  0  0  0  0  0  0  0  0  0
   41.6100   26.6640   34.0520 H   0  0  0  0  0  0  0  0  0  0  0  0
   43.5190   23.2270   35.4750 H   0  0  0  0  0  0  0  0  0  0  0  0
   39.0050   23.3560   36.1410 C   0  0  0  0  0  0  0  0  0  0  0  0
   38.6290   23.9800   37.3450 F   0  0  0  0  0  0  0  0  0  0  0  0
   37.9490   23.3650   35.3050 F   0  0  0  0  0  0  0  0  0  0  0  0
   39.2690   22.0460   36.5250 F   0  0  0  0  0  0  0  0  0  0  0  0
   38.7780   24.9510   32.3410 S   0  0  0  0  0  0  0  0  0  0  0  0
   39.2760   21.9090   32.7540 Cl  0  0  0  0  0  0  0  0  0  0  0  0
   37.7430   22.4850   32.1540 C   0  0  0  0  0  0  0  0  0  0  0  0
   37.4750   23.8240   31.9330 C   0  0  0  0  0  0  0  0  0  0  0  0
   36.2660   24.2370   31.4410 C   0  0  0  0  0  0  0  0  0  0  0  0
   35.3060   23.2550   31.1710 C   0  0  0  0  0  0  0  0  0  0  0  0
   35.5730   21.9030   31.3930 C   0  0  0  0  0  0  0  0  0  0  0  0
   36.8000   21.5160   31.8880 C   0  0  0  0  0  0  0  0  0  0  0  0
   35.9650   25.2220   31.2050 H   0  0  0  0  0  0  0  0  0  0  0  0
   34.3250   23.5230   30.7790 H   0  0  0  0  0  0  0  0  0  0  0  0
   34.7920   21.2010   31.1640 H   0  0  0  0  0  0  0  0  0  0  0  0
   37.0540   20.1760   32.1040 O   0  0  0  0  0  0  0  0  0  0  0  0
   38.5470   18.1340   31.5160 O   0  0  0  0  0  0  0  0  0  0  0  0
   37.5510   19.1090   30.8800 P   0  0  0  0  0  0  0  0  0  0  0  0
   36.2620   18.2090   30.2630 O   0  0  0  0  0  0  0  0  0  0  0  0
   35.5710   18.0250   30.9390 H   0  0  0  0  0  0  0  0  0  0  0  0
   38.3400   19.9110   29.6120 O   0  0  0  0  0  0  0  0  0  0  0  0
   37.6890   20.2980   28.9620 H   0  0  0  0  0  0  0  0  0  0  0  0
  1 12  1  0  0  0  0
  1  2  1  0  0  0  0
  2  7  1  0  0  0  0
  3  2  2  0  0  0  0
  3  8  1  0  0  0  0
  4  9  1  0  0  0  0
  4  3  1  0  0  0  0
  5  6  1  0  0  0  0
  5  4  2  0  0  0  0
  6  1  2  0  0  0  0
 10  5  1  0  0  0  0
 11 16  2  0  0  0  0
 11 12  1  0  0  0  0
 12 13  2  0  0  0  0
 13 14  1  0  0  0  0
 13 19  1  0  0  0  0
 15 18  1  0  0  0  0
 15 14  2  0  0  0  0
 16 15  1  0  0  0  0
 17 11  1  0  0  0  0
 19 22  1  0  0  0  0
 19 20  1  0  0  0  0
 21 19  1  0  0  0  0
 23  6  1  0  0  0  0
 25 24  1  0  0  0  0
 26 25  1  0  0  0  0
 26 23  1  0  0  0  0
 27 26  2  0  0  0  0
 28 29  2  0  0  0  0
 28 27  1  0  0  0  0
 29 30  1  0  0  0  0
 30 34  1  0  0  0  0
 30 25  2  0  0  0  0
 31 27  1  0  0  0  0
 32 28  1  0  0  0  0
 33 29  1  0  0  0  0
 36 35  2  0  0  0  0
 36 34  1  0  0  0  0
 37 36  1  0  0  0  0
 37 38  1  0  0  0  0
 39 36  1  0  0  0  0
 40 39  1  0  0  0  0
M  END
>  <minimizedAffinity>
-5.69415188

$$$$
