
 OpenBabel03272510063D

 25 26  0  0  0  0  0  0  0  0999 V2000
   39.1680   32.5910   47.2160 C   0  0  0  0  0  0  0  0  0  0  0  0
   39.3070   32.1840   45.8630 C   0  0  0  0  0  0  0  0  0  0  0  0
   38.4670   31.1690   45.3950 C   0  0  0  0  0  0  0  0  0  0  0  0
   37.5730   30.6390   46.2630 N   0  0  0  0  0  0  0  0  0  0  0  0
   37.4660   31.0440   47.5340 C   0  0  0  0  0  0  0  0  0  0  0  0
   38.2490   32.0090   48.0150 N   0  0  0  0  0  0  0  0  0  0  0  0
   36.4720   30.4020   48.3690 N   0  0  0  0  0  0  0  0  0  0  0  0
   35.0540   30.4130   48.1040 C   0  0  0  0  0  0  0  0  0  0  0  0
   34.4820   29.4560   49.0870 C   0  0  0  0  0  0  0  0  0  0  0  0
   35.6430   28.7130   49.6940 C   0  0  0  0  0  0  0  0  0  0  0  0
   36.7820   29.6580   49.5910 C   0  0  0  0  0  0  0  0  0  0  0  0
   39.8210   33.3850   47.5850 H   0  0  0  0  0  0  0  0  0  0  0  0
   38.5570   30.8440   44.3640 H   0  0  0  0  0  0  0  0  0  0  0  0
   34.6350   31.4320   48.1630 H   0  0  0  0  0  0  0  0  0  0  0  0
   34.9160   29.9670   47.0800 H   0  0  0  0  0  0  0  0  0  0  0  0
   34.0000   30.0470   49.8920 H   0  0  0  0  0  0  0  0  0  0  0  0
   33.7660   28.7360   48.6640 H   0  0  0  0  0  0  0  0  0  0  0  0
   35.4300   28.3370   50.7100 H   0  0  0  0  0  0  0  0  0  0  0  0
   35.8630   27.8300   49.0550 H   0  0  0  0  0  0  0  0  0  0  0  0
   36.8190   30.2990   50.4750 H   0  0  0  0  0  0  0  0  0  0  0  0
   37.7600   29.1640   49.3900 H   0  0  0  0  0  0  0  0  0  0  0  0
   40.3140   32.8240   44.9860 C   0  0  0  0  0  0  0  0  0  0  0  0
   40.1320   34.1910   45.0340 F   0  0  0  0  0  0  0  0  0  0  0  0
   41.5670   32.5510   45.5330 F   0  0  0  0  0  0  0  0  0  0  0  0
   40.3170   32.2940   43.7280 F   0  0  0  0  0  0  0  0  0  0  0  0
  1 12  1  0  0  0  0
  1  6  1  0  0  0  0
  2  1  2  0  0  0  0
  3  2  1  0  0  0  0
  3  4  2  0  0  0  0
  4  5  1  0  0  0  0
  5  6  2  0  0  0  0
  5  7  1  0  0  0  0
  7 11  1  0  0  0  0
  8 14  1  0  0  0  0
  8  7  1  0  0  0  0
  8  9  1  0  0  0  0
  9 10  1  0  0  0  0
  9 16  1  0  0  0  0
 10 18  1  0  0  0  0
 11 10  1  0  0  0  0
 11 20  1  0  0  0  0
 13  3  1  0  0  0  0
 15  8  1  0  0  0  0
 17  9  1  0  0  0  0
 19 10  1  0  0  0  0
 21 11  1  0  0  0  0
 22 23  1  0  0  0  0
 22 24  1  0  0  0  0
 22  2  1  0  0  0  0
 25 22  1  0  0  0  0
M  END
>  <minimizedAffinity>
-5.36535215

>  <minimizedRMSD>
2.39147067

$$$$
