
 OpenBabel03272509533D

 38 40  0  0  0  0  0  0  0  0999 V2000
   37.3280   30.1790   51.5040 C   0  0  0  0  0  0  0  0  0  0  0  0
   38.0560   30.8590   50.5080 C   0  0  0  0  0  0  0  0  0  0  0  0
   37.7040   30.6500   49.1930 C   0  0  0  0  0  0  0  0  0  0  0  0
   36.6610   29.7850   48.9670 N   0  0  0  0  0  0  0  0  0  0  0  0
   35.9910   29.1550   49.9280 C   0  0  0  0  0  0  0  0  0  0  0  0
   36.3250   29.3520   51.2130 N   0  0  0  0  0  0  0  0  0  0  0  0
   37.6290   30.3640   52.5270 H   0  0  0  0  0  0  0  0  0  0  0  0
   38.8550   31.5210   50.7060 H   0  0  0  0  0  0  0  0  0  0  0  0
   38.9540   33.2530   49.0060 F   0  0  0  0  0  0  0  0  0  0  0  0
   38.9170   32.4670   47.9370 C   0  0  0  0  0  0  0  0  0  0  0  0
   38.3290   31.2540   48.0430 C   0  0  0  0  0  0  0  0  0  0  0  0
   38.3530   30.5190   46.8520 C   0  0  0  0  0  0  0  0  0  0  0  0
   38.9180   30.9930   45.7040 C   0  0  0  0  0  0  0  0  0  0  0  0
   39.5000   32.2260   45.6460 C   0  0  0  0  0  0  0  0  0  0  0  0
   39.4930   32.9660   46.7900 C   0  0  0  0  0  0  0  0  0  0  0  0
   37.9000   29.5180   46.8320 H   0  0  0  0  0  0  0  0  0  0  0  0
   38.8930   30.3530   44.8120 H   0  0  0  0  0  0  0  0  0  0  0  0
   39.9350   32.5610   44.7150 H   0  0  0  0  0  0  0  0  0  0  0  0
   39.9510   33.9510   46.7670 H   0  0  0  0  0  0  0  0  0  0  0  0
   34.9980   28.3500   49.4420 O   0  0  0  0  0  0  0  0  0  0  0  0
   34.4340   28.6480   48.1740 C   0  0  0  0  0  0  0  0  0  0  0  0
   35.2150   28.9010   47.4250 H   0  0  0  0  0  0  0  0  0  0  0  0
   33.7920   29.5490   48.2900 H   0  0  0  0  0  0  0  0  0  0  0  0
   33.5400   27.5270   47.7210 C   0  0  0  0  0  0  0  0  0  0  0  0
   33.8340   27.2780   46.6810 H   0  0  0  0  0  0  0  0  0  0  0  0
   33.7050   26.5950   48.3060 H   0  0  0  0  0  0  0  0  0  0  0  0
   32.1060   27.8810   47.7760 C   0  0  0  0  0  0  0  0  0  0  0  0
   31.3710   27.4490   48.8790 C   0  0  0  0  0  0  0  0  0  0  0  0
   30.0390   27.7280   49.0190 C   0  0  0  0  0  0  0  0  0  0  0  0
   29.4200   28.4300   48.0810 N   0  0  0  0  0  0  0  0  0  0  0  0
   30.1380   28.8560   46.9960 C   0  0  0  0  0  0  0  0  0  0  0  0
   31.4620   28.6000   46.8220 N   0  0  0  0  0  0  0  0  0  0  0  0
   31.8750   26.8710   49.6550 H   0  0  0  0  0  0  0  0  0  0  0  0
   29.4990   27.3780   49.8870 H   0  0  0  0  0  0  0  0  0  0  0  0
   29.5310   29.6540   45.8850 C   0  0  0  0  0  0  0  0  0  0  0  0
   30.4450   30.6420   45.4980 F   0  0  0  0  0  0  0  0  0  0  0  0
   28.3410   30.2290   46.2420 F   0  0  0  0  0  0  0  0  0  0  0  0
   29.3460   28.8730   44.7640 F   0  0  0  0  0  0  0  0  0  0  0  0
  1  7  1  0  0  0  0
  2  8  1  0  0  0  0
  2  1  2  0  0  0  0
  3  2  1  0  0  0  0
  4  3  2  0  0  0  0
  4  5  1  0  0  0  0
  5  6  2  0  0  0  0
  6  1  1  0  0  0  0
 10 11  1  0  0  0  0
 10  9  1  0  0  0  0
 11  3  1  0  0  0  0
 12 11  2  0  0  0  0
 13 12  1  0  0  0  0
 14 13  2  0  0  0  0
 14 15  1  0  0  0  0
 15 10  2  0  0  0  0
 16 12  1  0  0  0  0
 17 13  1  0  0  0  0
 18 14  1  0  0  0  0
 19 15  1  0  0  0  0
 20  5  1  0  0  0  0
 21 23  1  0  0  0  0
 21 20  1  0  0  0  0
 22 21  1  0  0  0  0
 24 27  1  0  0  0  0
 24 21  1  0  0  0  0
 24 26  1  0  0  0  0
 25 24  1  0  0  0  0
 27 28  1  0  0  0  0
 28 29  2  0  0  0  0
 28 33  1  0  0  0  0
 29 34  1  0  0  0  0
 30 29  1  0  0  0  0
 31 30  2  0  0  0  0
 32 31  1  0  0  0  0
 32 27  2  0  0  0  0
 35 37  1  0  0  0  0
 35 31  1  0  0  0  0
 36 35  1  0  0  0  0
 38 35  1  0  0  0  0
M  END
>  <minimizedAffinity>
-6.40796757

>  <minimizedRMSD>
0.272326201

$$$$
