
 OpenBabel03272506473D

 37 39  0  0  1  0  0  0  0  0999 V2000
   32.3480   28.5240   47.3000 C   0  0  2  0  0  0  0  0  0  0  0  0
   33.5440   28.4640   48.2030 C   0  0  1  0  0  0  0  0  0  0  0  0
   34.0440   27.1970   48.1590 O   0  0  0  0  0  0  0  0  0  0  0  0
   33.4580   26.5100   47.1010 C   0  0  0  0  0  0  0  0  0  0  0  0
   32.8310   27.5370   46.1920 C   0  0  1  0  0  0  0  0  0  0  0  0
   31.4160   28.1540   47.7180 H   0  0  0  0  0  0  0  0  0  0  0  0
   33.2840   28.8270   49.2140 H   0  0  0  0  0  0  0  0  0  0  0  0
   32.7930   25.7810   47.5350 H   0  0  0  0  0  0  0  0  0  0  0  0
   34.2530   25.9260   46.5680 H   0  0  0  0  0  0  0  0  0  0  0  0
   33.5200   28.0880   45.5640 H   0  0  0  0  0  0  0  0  0  0  0  0
   32.2150   29.8090   46.7350 O   0  0  0  0  0  0  0  0  0  0  0  0
   31.3140   30.1610   46.8200 H   0  0  0  0  0  0  0  0  0  0  0  0
   34.8160   29.5990   47.5140 S   0  0  0  0  0  0  0  0  0  0  0  0
   37.2460   29.2850   50.6220 C   0  0  0  0  0  0  0  0  0  0  0  0
   37.7770   30.5670   50.8080 C   0  0  0  0  0  0  0  0  0  0  0  0
   37.3560   31.5720   49.9200 C   0  0  0  0  0  0  0  0  0  0  0  0
   36.4700   31.2530   48.9450 N   0  0  0  0  0  0  0  0  0  0  0  0
   35.9850   29.9970   48.8090 C   0  0  0  0  0  0  0  0  0  0  0  0
   36.3650   28.9960   49.6450 N   0  0  0  0  0  0  0  0  0  0  0  0
   37.5550   28.4990   51.2920 H   0  0  0  0  0  0  0  0  0  0  0  0
   38.4850   30.7930   51.5960 H   0  0  0  0  0  0  0  0  0  0  0  0
   37.7160   32.5780   49.9930 H   0  0  0  0  0  0  0  0  0  0  0  0
   31.7650   26.9650   45.5420 O   0  0  0  0  0  0  0  0  0  0  0  0
   30.2710   28.9150   43.9170 Cl  0  0  0  0  0  0  0  0  0  0  0  0
   29.6910   27.9180   45.2300 C   0  0  0  0  0  0  0  0  0  0  0  0
   30.4910   27.0290   45.9110 C   0  0  0  0  0  0  0  0  0  0  0  0
   29.9070   26.2680   46.9280 C   0  0  0  0  0  0  0  0  0  0  0  0
   28.5690   26.4090   47.2310 C   0  0  0  0  0  0  0  0  0  0  0  0
   27.7570   27.3020   46.5510 C   0  0  0  0  0  0  0  0  0  0  0  0
   28.3450   28.0580   45.5390 C   0  0  0  0  0  0  0  0  0  0  0  0
   30.4480   25.5440   47.5120 H   0  0  0  0  0  0  0  0  0  0  0  0
   28.0570   25.8550   48.0010 H   0  0  0  0  0  0  0  0  0  0  0  0
   26.7090   27.4220   46.7780 H   0  0  0  0  0  0  0  0  0  0  0  0
   27.4820   29.0190   44.8020 C   0  0  0  0  0  0  0  0  0  0  0  0
   26.1820   29.0100   45.2690 F   0  0  0  0  0  0  0  0  0  0  0  0
   27.4690   28.6030   43.4650 F   0  0  0  0  0  0  0  0  0  0  0  0
   28.0120   30.2800   44.7880 F   0  0  0  0  0  0  0  0  0  0  0  0
  1  6  1  1  0  0  0
  1  2  1  0  0  0  0
  2  7  1  1  0  0  0
  3  2  1  0  0  0  0
  4  8  1  0  0  0  0
  4  3  1  0  0  0  0
  5 10  1  6  0  0  0
  5  4  1  0  0  0  0
  5  1  1  0  0  0  0
  9  4  1  0  0  0  0
 11 12  1  0  0  0  0
 11  1  1  0  0  0  0
 13  2  1  0  0  0  0
 13 18  1  0  0  0  0
 14 15  1  0  0  0  0
 14 20  1  0  0  0  0
 15 21  1  0  0  0  0
 16 22  1  0  0  0  0
 16 15  2  0  0  0  0
 17 16  1  0  0  0  0
 18 17  2  0  0  0  0
 18 19  1  0  0  0  0
 19 14  2  0  0  0  0
 23 26  1  0  0  0  0
 23  5  1  0  0  0  0
 24 25  1  0  0  0  0
 25 30  2  0  0  0  0
 25 26  1  0  0  0  0
 26 27  2  0  0  0  0
 27 28  1  0  0  0  0
 27 31  1  0  0  0  0
 28 32  1  0  0  0  0
 29 33  1  0  0  0  0
 29 28  2  0  0  0  0
 30 29  1  0  0  0  0
 34 35  1  0  0  0  0
 34 30  1  0  0  0  0
 36 34  1  0  0  0  0
 37 34  1  0  0  0  0
M  END
>  <minimizedAffinity>
-4.7271471

>  <minimizedRMSD>
0.444067955

$$$$
