
 OpenBabel03262523413D

 27 28  0  0  1  0  0  0  0  0999 V2000
   36.7440   21.7250   32.9590 C   0  0  0  0  0  0  0  0  0  0  0  0
   37.2270   21.8070   34.2680 C   0  0  0  0  0  0  0  0  0  0  0  0
   38.3540   22.5680   34.5590 C   0  0  0  0  0  0  0  0  0  0  0  0
   38.9500   23.2110   33.5310 N   0  0  0  0  0  0  0  0  0  0  0  0
   38.4850   23.1340   32.2580 C   0  0  0  0  0  0  0  0  0  0  0  0
   37.3900   22.3970   31.9740 N   0  0  0  0  0  0  0  0  0  0  0  0
   38.8350   22.6410   35.8990 N   0  0  0  0  0  0  0  0  0  0  0  0
   40.0070   21.8720   36.1950 C   0  0  0  0  0  0  0  0  0  0  0  0
   40.6420   22.1730   37.5100 C   0  0  0  0  0  0  0  0  0  0  0  0
   39.9930   23.0720   38.3650 N   0  0  0  0  0  0  0  0  0  0  0  0
   38.5900   23.2290   38.2480 C   0  0  0  0  0  0  0  0  0  0  0  0
   38.1250   23.4610   36.8360 C   0  0  1  0  0  0  0  0  0  0  0  0
   35.8700   21.1170   32.8250 H   0  0  0  0  0  0  0  0  0  0  0  0
   36.7230   21.2740   35.0820 H   0  0  0  0  0  0  0  0  0  0  0  0
   39.0120   23.6750   31.4880 H   0  0  0  0  0  0  0  0  0  0  0  0
   40.6930   21.8790   35.3410 H   0  0  0  0  0  0  0  0  0  0  0  0
   39.6400   20.8040   36.2430 H   0  0  0  0  0  0  0  0  0  0  0  0
   41.6630   22.5510   37.2880 H   0  0  0  0  0  0  0  0  0  0  0  0
   40.8400   21.2440   38.1000 H   0  0  0  0  0  0  0  0  0  0  0  0
   40.4810   24.0090   38.4130 H   0  0  0  0  0  0  0  0  0  0  0  0
   38.0980   22.2910   38.5840 H   0  0  0  0  0  0  0  0  0  0  0  0
   38.2500   24.0290   38.9150 H   0  0  0  0  0  0  0  0  0  0  0  0
   37.0490   23.2070   36.7740 H   0  0  0  0  0  0  0  0  0  0  0  0
   38.2520   24.9320   36.5040 C   0  0  0  0  0  0  0  0  0  0  0  0
   37.2090   25.3390   35.6910 F   0  0  0  0  0  0  0  0  0  0  0  0
   38.1070   25.6550   37.6860 F   0  0  0  0  0  0  0  0  0  0  0  0
   39.4670   25.2260   35.9150 F   0  0  0  0  0  0  0  0  0  0  0  0
  1  2  1  0  0  0  0
  2  3  2  0  0  0  0
  2 14  1  0  0  0  0
  3  7  1  0  0  0  0
  4  3  1  0  0  0  0
  5  4  2  0  0  0  0
  6  5  1  0  0  0  0
  6  1  2  0  0  0  0
  7  8  1  0  0  0  0
  7 12  1  0  0  0  0
  8 17  1  0  0  0  0
  8  9  1  0  0  0  0
  9 19  1  0  0  0  0
  9 10  1  0  0  0  0
 10 20  1  0  0  0  0
 11 10  1  0  0  0  0
 11 21  1  0  0  0  0
 11 22  1  0  0  0  0
 12 23  1  6  0  0  0
 12 11  1  0  0  0  0
 13  1  1  0  0  0  0
 15  5  1  0  0  0  0
 16  8  1  0  0  0  0
 18  9  1  0  0  0  0
 24 12  1  0  0  0  0
 24 26  1  0  0  0  0
 25 24  1  0  0  0  0
 27 24  1  0  0  0  0
M  END
>  <minimizedAffinity>
-4.5460844

$$$$

 OpenBabel03262523413D

 27 28  0  0  1  0  0  0  0  0999 V2000
   36.0540   26.8920   31.1850 C   0  0  0  0  0  0  0  0  0  0  0  0
   36.4960   26.1110   32.2570 C   0  0  0  0  0  0  0  0  0  0  0  0
   37.7830   26.2650   32.7610 C   0  0  0  0  0  0  0  0  0  0  0  0
   38.5720   27.1910   32.1710 N   0  0  0  0  0  0  0  0  0  0  0  0
   38.1470   27.9500   31.1300 C   0  0  0  0  0  0  0  0  0  0  0  0
   36.8980   27.8030   30.6400 N   0  0  0  0  0  0  0  0  0  0  0  0
   38.2190   25.4610   33.8530 N   0  0  0  0  0  0  0  0  0  0  0  0
   39.1120   24.3870   33.5340 C   0  0  0  0  0  0  0  0  0  0  0  0
   39.7610   23.7380   34.7090 C   0  0  0  0  0  0  0  0  0  0  0  0
   39.3680   24.1460   35.9890 N   0  0  0  0  0  0  0  0  0  0  0  0
   38.0730   24.6960   36.1590 C   0  0  0  0  0  0  0  0  0  0  0  0
   37.7420   25.7780   35.1680 C   0  0  1  0  0  0  0  0  0  0  0  0
   35.0470   26.7070   30.8610 H   0  0  0  0  0  0  0  0  0  0  0  0
   35.8330   25.3680   32.7150 H   0  0  0  0  0  0  0  0  0  0  0  0
   38.8320   28.6700   30.7090 H   0  0  0  0  0  0  0  0  0  0  0  0
   39.7990   24.6880   32.7370 H   0  0  0  0  0  0  0  0  0  0  0  0
   38.4530   23.6070   33.0490 H   0  0  0  0  0  0  0  0  0  0  0  0
   40.8550   23.8990   34.5930 H   0  0  0  0  0  0  0  0  0  0  0  0
   39.6660   22.6240   34.6760 H   0  0  0  0  0  0  0  0  0  0  0  0
   40.1020   24.7390   36.4680 H   0  0  0  0  0  0  0  0  0  0  0  0
   37.3230   23.8910   36.0000 H   0  0  0  0  0  0  0  0  0  0  0  0
   37.9540   25.0500   37.1890 H   0  0  0  0  0  0  0  0  0  0  0  0
   36.6410   25.8860   35.1210 H   0  0  0  0  0  0  0  0  0  0  0  0
   38.2950   27.0950   35.6640 C   0  0  0  0  0  0  0  0  0  0  0  0
   37.4650   28.1410   35.2990 F   0  0  0  0  0  0  0  0  0  0  0  0
   38.2760   27.0740   37.0570 F   0  0  0  0  0  0  0  0  0  0  0  0
   39.5810   27.3190   35.2120 F   0  0  0  0  0  0  0  0  0  0  0  0
  1  2  1  0  0  0  0
  2 14  1  0  0  0  0
  2  3  2  0  0  0  0
  3  7  1  0  0  0  0
  4  3  1  0  0  0  0
  5  4  2  0  0  0  0
  6  5  1  0  0  0  0
  6  1  2  0  0  0  0
  7 12  1  0  0  0  0
  8  7  1  0  0  0  0
  8  9  1  0  0  0  0
  9 10  1  0  0  0  0
 10 11  1  0  0  0  0
 10 20  1  0  0  0  0
 11 22  1  0  0  0  0
 12 23  1  6  0  0  0
 12 24  1  0  0  0  0
 12 11  1  0  0  0  0
 13  1  1  0  0  0  0
 15  5  1  0  0  0  0
 16  8  1  0  0  0  0
 17  8  1  0  0  0  0
 18  9  1  0  0  0  0
 19  9  1  0  0  0  0
 21 11  1  0  0  0  0
 24 26  1  0  0  0  0
 25 24  1  0  0  0  0
 27 24  1  0  0  0  0
M  END
>  <minimizedAffinity>
-4.52681351

$$$$

 OpenBabel03262523413D

 27 28  0  0  1  0  0  0  0  0999 V2000
   39.4840   27.0660   33.6990 C   0  0  0  0  0  0  0  0  0  0  0  0
   39.6530   26.2690   34.8350 C   0  0  0  0  0  0  0  0  0  0  0  0
   38.8700   25.1370   35.0270 C   0  0  0  0  0  0  0  0  0  0  0  0
   37.9500   24.8520   34.0790 N   0  0  0  0  0  0  0  0  0  0  0  0
   37.7820   25.6230   32.9750 C   0  0  0  0  0  0  0  0  0  0  0  0
   38.5430   26.7220   32.7860 N   0  0  0  0  0  0  0  0  0  0  0  0
   39.0540   24.3350   36.1910 N   0  0  0  0  0  0  0  0  0  0  0  0
   38.0640   24.4690   37.2180 C   0  0  0  0  0  0  0  0  0  0  0  0
   38.1260   23.4360   38.2910 C   0  0  0  0  0  0  0  0  0  0  0  0
   39.1840   22.5210   38.2650 N   0  0  0  0  0  0  0  0  0  0  0  0
   40.3930   22.8970   37.6280 C   0  0  0  0  0  0  0  0  0  0  0  0
   40.1950   23.4690   36.2500 C   0  0  1  0  0  0  0  0  0  0  0  0
   40.1310   27.9190   33.6310 H   0  0  0  0  0  0  0  0  0  0  0  0
   40.4070   26.5250   35.5880 H   0  0  0  0  0  0  0  0  0  0  0  0
   37.0280   25.3330   32.2590 H   0  0  0  0  0  0  0  0  0  0  0  0
   37.0730   24.6120   36.7740 H   0  0  0  0  0  0  0  0  0  0  0  0
   38.2930   25.4630   37.7030 H   0  0  0  0  0  0  0  0  0  0  0  0
   37.1630   22.8830   38.2520 H   0  0  0  0  0  0  0  0  0  0  0  0
   38.1130   23.8940   39.3120 H   0  0  0  0  0  0  0  0  0  0  0  0
   38.8770   21.5550   37.9630 H   0  0  0  0  0  0  0  0  0  0  0  0
   40.8760   23.6970   38.2280 H   0  0  0  0  0  0  0  0  0  0  0  0
   41.0830   22.0450   37.6090 H   0  0  0  0  0  0  0  0  0  0  0  0
   41.0930   24.0600   35.9830 H   0  0  0  0  0  0  0  0  0  0  0  0
   40.0960   22.3390   35.2500 C   0  0  0  0  0  0  0  0  0  0  0  0
   40.5240   22.7550   34.0010 F   0  0  0  0  0  0  0  0  0  0  0  0
   40.9880   21.3410   35.6360 F   0  0  0  0  0  0  0  0  0  0  0  0
   38.8150   21.8260   35.1750 F   0  0  0  0  0  0  0  0  0  0  0  0
  1  2  1  0  0  0  0
  2  3  2  0  0  0  0
  2 14  1  0  0  0  0
  3  7  1  0  0  0  0
  4  3  1  0  0  0  0
  5  4  2  0  0  0  0
  6  5  1  0  0  0  0
  6  1  2  0  0  0  0
  7 12  1  0  0  0  0
  7  8  1  0  0  0  0
  8 17  1  0  0  0  0
  8  9  1  0  0  0  0
  9 19  1  0  0  0  0
 10  9  1  0  0  0  0
 11 21  1  0  0  0  0
 11 10  1  0  0  0  0
 12 23  1  6  0  0  0
 12 11  1  0  0  0  0
 13  1  1  0  0  0  0
 15  5  1  0  0  0  0
 16  8  1  0  0  0  0
 18  9  1  0  0  0  0
 20 10  1  0  0  0  0
 22 11  1  0  0  0  0
 24 26  1  0  0  0  0
 24 12  1  0  0  0  0
 25 24  1  0  0  0  0
 27 24  1  0  0  0  0
M  END
>  <minimizedAffinity>
-4.36481667

$$$$

 OpenBabel03262523413D

 27 28  0  0  1  0  0  0  0  0999 V2000
   39.8390   22.8790   37.7290 C   0  0  0  0  0  0  0  0  0  0  0  0
   39.8400   23.1770   36.3630 C   0  0  0  0  0  0  0  0  0  0  0  0
   38.8450   23.9790   35.8140 C   0  0  0  0  0  0  0  0  0  0  0  0
   37.8940   24.4460   36.6520 N   0  0  0  0  0  0  0  0  0  0  0  0
   37.8890   24.1590   37.9790 C   0  0  0  0  0  0  0  0  0  0  0  0
   38.8540   23.3820   38.5140 N   0  0  0  0  0  0  0  0  0  0  0  0
   38.8600   24.2730   34.4200 N   0  0  0  0  0  0  0  0  0  0  0  0
   37.9090   23.5680   33.6130 C   0  0  0  0  0  0  0  0  0  0  0  0
   37.7580   24.0830   32.2220 C   0  0  0  0  0  0  0  0  0  0  0  0
   38.6140   25.1080   31.8020 N   0  0  0  0  0  0  0  0  0  0  0  0
   39.8780   25.2390   32.4310 C   0  0  0  0  0  0  0  0  0  0  0  0
   39.8060   25.2340   33.9340 C   0  0  1  0  0  0  0  0  0  0  0  0
   40.6430   22.2540   38.0680 H   0  0  0  0  0  0  0  0  0  0  0  0
   40.6250   22.7830   35.7080 H   0  0  0  0  0  0  0  0  0  0  0  0
   37.0970   24.5680   38.5870 H   0  0  0  0  0  0  0  0  0  0  0  0
   36.9690   23.4360   34.1590 H   0  0  0  0  0  0  0  0  0  0  0  0
   38.3280   22.5210   33.5330 H   0  0  0  0  0  0  0  0  0  0  0  0
   36.7050   24.4230   32.1250 H   0  0  0  0  0  0  0  0  0  0  0  0
   37.8300   23.2640   31.4630 H   0  0  0  0  0  0  0  0  0  0  0  0
   38.1230   26.0420   31.7310 H   0  0  0  0  0  0  0  0  0  0  0  0
   40.5060   24.3670   32.1490 H   0  0  0  0  0  0  0  0  0  0  0  0
   40.3850   26.1370   32.0600 H   0  0  0  0  0  0  0  0  0  0  0  0
   40.8050   24.9700   34.3320 H   0  0  0  0  0  0  0  0  0  0  0  0
   39.4910   26.6300   34.4230 C   0  0  0  0  0  0  0  0  0  0  0  0
   40.0980   26.8670   35.6440 F   0  0  0  0  0  0  0  0  0  0  0  0
   40.0680   27.5380   33.5380 F   0  0  0  0  0  0  0  0  0  0  0  0
   38.1300   26.8530   34.5090 F   0  0  0  0  0  0  0  0  0  0  0  0
  1 13  1  0  0  0  0
  1  6  1  0  0  0  0
  2  1  2  0  0  0  0
  3  2  1  0  0  0  0
  3  4  2  0  0  0  0
  4  5  1  0  0  0  0
  5  6  2  0  0  0  0
  5 15  1  0  0  0  0
  7  3  1  0  0  0  0
  8 16  1  0  0  0  0
  8  7  1  0  0  0  0
  9  8  1  0  0  0  0
 10  9  1  0  0  0  0
 10 11  1  0  0  0  0
 11 12  1  0  0  0  0
 12 23  1  1  0  0  0
 12  7  1  0  0  0  0
 12 24  1  0  0  0  0
 14  2  1  0  0  0  0
 17  8  1  0  0  0  0
 18  9  1  0  0  0  0
 19  9  1  0  0  0  0
 20 10  1  0  0  0  0
 21 11  1  0  0  0  0
 22 11  1  0  0  0  0
 24 27  1  0  0  0  0
 24 25  1  0  0  0  0
 26 24  1  0  0  0  0
M  END
>  <minimizedAffinity>
-4.32547617

$$$$

 OpenBabel03262523413D

 27 28  0  0  1  0  0  0  0  0999 V2000
   38.3200   22.5010   35.9270 C   0  0  0  0  0  0  0  0  0  0  0  0
   38.4250   23.3710   34.8390 C   0  0  0  0  0  0  0  0  0  0  0  0
   38.2170   24.7360   35.0020 C   0  0  0  0  0  0  0  0  0  0  0  0
   37.9110   25.1710   36.2440 N   0  0  0  0  0  0  0  0  0  0  0  0
   37.8070   24.3300   37.3040 C   0  0  0  0  0  0  0  0  0  0  0  0
   38.0100   23.0050   37.1480 N   0  0  0  0  0  0  0  0  0  0  0  0
   38.3270   25.6100   33.8820 N   0  0  0  0  0  0  0  0  0  0  0  0
   37.0960   26.0910   33.3290 C   0  0  0  0  0  0  0  0  0  0  0  0
   37.2390   27.2030   32.3460 C   0  0  0  0  0  0  0  0  0  0  0  0
   38.5310   27.5920   31.9740 N   0  0  0  0  0  0  0  0  0  0  0  0
   39.5810   26.6450   32.0700 C   0  0  0  0  0  0  0  0  0  0  0  0
   39.6350   25.9390   33.3980 C   0  0  1  0  0  0  0  0  0  0  0  0
   38.4970   21.4640   35.7110 H   0  0  0  0  0  0  0  0  0  0  0  0
   38.6750   22.9890   33.8420 H   0  0  0  0  0  0  0  0  0  0  0  0
   37.5600   24.7500   38.2670 H   0  0  0  0  0  0  0  0  0  0  0  0
   36.3660   26.2720   34.1250 H   0  0  0  0  0  0  0  0  0  0  0  0
   36.6740   25.2060   32.7660 H   0  0  0  0  0  0  0  0  0  0  0  0
   36.7040   28.0760   32.7770 H   0  0  0  0  0  0  0  0  0  0  0  0
   36.6730   27.0010   31.4020 H   0  0  0  0  0  0  0  0  0  0  0  0
   38.8120   28.5200   32.3980 H   0  0  0  0  0  0  0  0  0  0  0  0
   39.4160   25.8550   31.3070 H   0  0  0  0  0  0  0  0  0  0  0  0
   40.5370   27.1270   31.8360 H   0  0  0  0  0  0  0  0  0  0  0  0
   40.2060   24.9980   33.2720 H   0  0  0  0  0  0  0  0  0  0  0  0
   40.4020   26.7920   34.3850 C   0  0  0  0  0  0  0  0  0  0  0  0
   41.2160   26.0030   35.1800 F   0  0  0  0  0  0  0  0  0  0  0  0
   41.2670   27.6120   33.6650 F   0  0  0  0  0  0  0  0  0  0  0  0
   39.5610   27.5600   35.1670 F   0  0  0  0  0  0  0  0  0  0  0  0
  1  6  1  0  0  0  0
  2  3  1  0  0  0  0
  2  1  2  0  0  0  0
  3  4  2  0  0  0  0
  4  5  1  0  0  0  0
  5 15  1  0  0  0  0
  6  5  2  0  0  0  0
  7  3  1  0  0  0  0
  8  7  1  0  0  0  0
  8 16  1  0  0  0  0
  9 18  1  0  0  0  0
  9  8  1  0  0  0  0
 10 11  1  0  0  0  0
 10  9  1  0  0  0  0
 10 20  1  0  0  0  0
 11 12  1  0  0  0  0
 12 23  1  6  0  0  0
 12  7  1  0  0  0  0
 12 24  1  0  0  0  0
 13  1  1  0  0  0  0
 14  2  1  0  0  0  0
 17  8  1  0  0  0  0
 19  9  1  0  0  0  0
 21 11  1  0  0  0  0
 22 11  1  0  0  0  0
 24 27  1  0  0  0  0
 24 25  1  0  0  0  0
 26 24  1  0  0  0  0
M  END
>  <minimizedAffinity>
-4.30430079

$$$$

 OpenBabel03262523413D

 27 28  0  0  1  0  0  0  0  0999 V2000
   36.1180   24.6390   31.1950 C   0  0  0  0  0  0  0  0  0  0  0  0
   37.2990   24.8090   31.9230 C   0  0  0  0  0  0  0  0  0  0  0  0
   37.6520   26.0600   32.4170 C   0  0  0  0  0  0  0  0  0  0  0  0
   36.8110   27.0870   32.1590 N   0  0  0  0  0  0  0  0  0  0  0  0
   35.6640   26.9270   31.4520 C   0  0  0  0  0  0  0  0  0  0  0  0
   35.3190   25.7130   30.9730 N   0  0  0  0  0  0  0  0  0  0  0  0
   38.8590   26.2170   33.1570 N   0  0  0  0  0  0  0  0  0  0  0  0
   39.9510   26.8380   32.4680 C   0  0  0  0  0  0  0  0  0  0  0  0
   41.0980   27.2340   33.3320 C   0  0  0  0  0  0  0  0  0  0  0  0
   41.0610   26.8730   34.6840 N   0  0  0  0  0  0  0  0  0  0  0  0
   40.2950   25.7430   35.0650 C   0  0  0  0  0  0  0  0  0  0  0  0
   38.8950   25.7500   34.5120 C   0  0  1  0  0  0  0  0  0  0  0  0
   35.9240   23.6410   30.8530 H   0  0  0  0  0  0  0  0  0  0  0  0
   37.9610   23.9570   32.1170 H   0  0  0  0  0  0  0  0  0  0  0  0
   35.0420   27.7930   31.2860 H   0  0  0  0  0  0  0  0  0  0  0  0
   39.5810   27.6270   31.8040 H   0  0  0  0  0  0  0  0  0  0  0  0
   40.3290   26.0410   31.7620 H   0  0  0  0  0  0  0  0  0  0  0  0
   41.1880   28.3390   33.2510 H   0  0  0  0  0  0  0  0  0  0  0  0
   42.0740   26.8720   32.9230 H   0  0  0  0  0  0  0  0  0  0  0  0
   40.8690   27.6980   35.3180 H   0  0  0  0  0  0  0  0  0  0  0  0
   40.7830   24.8310   34.6600 H   0  0  0  0  0  0  0  0  0  0  0  0
   40.2900   25.6500   36.1570 H   0  0  0  0  0  0  0  0  0  0  0  0
   38.5050   24.7140   34.5330 H   0  0  0  0  0  0  0  0  0  0  0  0
   38.0060   26.5760   35.4150 C   0  0  0  0  0  0  0  0  0  0  0  0
   36.6970   26.1310   35.3490 F   0  0  0  0  0  0  0  0  0  0  0  0
   38.4070   26.3590   36.7310 F   0  0  0  0  0  0  0  0  0  0  0  0
   38.0740   27.9230   35.1150 F   0  0  0  0  0  0  0  0  0  0  0  0
  1  2  1  0  0  0  0
  2 14  1  0  0  0  0
  2  3  2  0  0  0  0
  3  7  1  0  0  0  0
  4  3  1  0  0  0  0
  5  4  2  0  0  0  0
  6  1  2  0  0  0  0
  6  5  1  0  0  0  0
  7 12  1  0  0  0  0
  8  7  1  0  0  0  0
  8  9  1  0  0  0  0
  9 10  1  0  0  0  0
 10 11  1  0  0  0  0
 10 20  1  0  0  0  0
 11 22  1  0  0  0  0
 12 23  1  1  0  0  0
 12 11  1  0  0  0  0
 12 24  1  0  0  0  0
 13  1  1  0  0  0  0
 15  5  1  0  0  0  0
 16  8  1  0  0  0  0
 17  8  1  0  0  0  0
 18  9  1  0  0  0  0
 19  9  1  0  0  0  0
 21 11  1  0  0  0  0
 24 26  1  0  0  0  0
 25 24  1  0  0  0  0
 27 24  1  0  0  0  0
M  END
>  <minimizedAffinity>
-4.21506357

$$$$

 OpenBabel03262523413D

 27 28  0  0  1  0  0  0  0  0999 V2000
   41.3620   23.3360   36.0710 C   0  0  0  0  0  0  0  0  0  0  0  0
   40.6680   24.0480   35.0890 C   0  0  0  0  0  0  0  0  0  0  0  0
   39.2860   24.1870   35.1600 C   0  0  0  0  0  0  0  0  0  0  0  0
   38.6580   23.6060   36.2060 N   0  0  0  0  0  0  0  0  0  0  0  0
   39.3270   22.9120   37.1610 C   0  0  0  0  0  0  0  0  0  0  0  0
   40.6690   22.7780   37.0950 N   0  0  0  0  0  0  0  0  0  0  0  0
   38.5930   24.9160   34.1510 N   0  0  0  0  0  0  0  0  0  0  0  0
   37.8710   24.1390   33.1880 C   0  0  0  0  0  0  0  0  0  0  0  0
   36.9440   24.9170   32.3170 C   0  0  0  0  0  0  0  0  0  0  0  0
   36.9440   26.3110   32.4350 N   0  0  0  0  0  0  0  0  0  0  0  0
   38.1150   26.9540   32.9080 C   0  0  0  0  0  0  0  0  0  0  0  0
   38.6670   26.3480   34.1700 C   0  0  1  0  0  0  0  0  0  0  0  0
   42.4250   23.2790   35.9390 H   0  0  0  0  0  0  0  0  0  0  0  0
   41.2040   24.5090   34.2520 H   0  0  0  0  0  0  0  0  0  0  0  0
   38.7590   22.4760   37.9680 H   0  0  0  0  0  0  0  0  0  0  0  0
   37.4240   23.2610   33.6670 H   0  0  0  0  0  0  0  0  0  0  0  0
   38.6700   23.7070   32.5160 H   0  0  0  0  0  0  0  0  0  0  0  0
   35.9220   24.5320   32.5230 H   0  0  0  0  0  0  0  0  0  0  0  0
   37.0900   24.6790   31.2340 H   0  0  0  0  0  0  0  0  0  0  0  0
   36.0810   26.6760   32.9270 H   0  0  0  0  0  0  0  0  0  0  0  0
   38.9120   26.8490   32.1400 H   0  0  0  0  0  0  0  0  0  0  0  0
   37.9250   28.0260   33.0320 H   0  0  0  0  0  0  0  0  0  0  0  0
   39.7320   26.6390   34.2620 H   0  0  0  0  0  0  0  0  0  0  0  0
   37.9440   26.9330   35.3620 C   0  0  0  0  0  0  0  0  0  0  0  0
   38.8130   27.0980   36.4260 F   0  0  0  0  0  0  0  0  0  0  0  0
   37.5210   28.2160   35.0240 F   0  0  0  0  0  0  0  0  0  0  0  0
   36.8610   26.1620   35.7390 F   0  0  0  0  0  0  0  0  0  0  0  0
  1  6  1  0  0  0  0
  2  3  1  0  0  0  0
  2  1  2  0  0  0  0
  3  4  2  0  0  0  0
  4  5  1  0  0  0  0
  5 15  1  0  0  0  0
  6  5  2  0  0  0  0
  7 12  1  0  0  0  0
  7  3  1  0  0  0  0
  8 16  1  0  0  0  0
  8  7  1  0  0  0  0
  9 10  1  0  0  0  0
  9 18  1  0  0  0  0
  9  8  1  0  0  0  0
 10 11  1  0  0  0  0
 10 20  1  0  0  0  0
 11 22  1  0  0  0  0
 11 12  1  0  0  0  0
 12 23  1  1  0  0  0
 12 24  1  0  0  0  0
 13  1  1  0  0  0  0
 14  2  1  0  0  0  0
 17  8  1  0  0  0  0
 19  9  1  0  0  0  0
 21 11  1  0  0  0  0
 24 27  1  0  0  0  0
 24 25  1  0  0  0  0
 26 24  1  0  0  0  0
M  END
>  <minimizedAffinity>
-4.1541996

$$$$

 OpenBabel03262523413D

 27 28  0  0  1  0  0  0  0  0999 V2000
   38.2230   24.5320   35.6380 C   0  0  0  0  0  0  0  0  0  0  0  0
   37.8340   25.4120   34.6240 C   0  0  0  0  0  0  0  0  0  0  0  0
   38.1530   25.1470   33.2960 C   0  0  0  0  0  0  0  0  0  0  0  0
   38.8500   24.0170   33.0410 N   0  0  0  0  0  0  0  0  0  0  0  0
   39.2310   23.1610   34.0220 C   0  0  0  0  0  0  0  0  0  0  0  0
   38.9200   23.4150   35.3110 N   0  0  0  0  0  0  0  0  0  0  0  0
   37.7490   26.0530   32.2740 N   0  0  0  0  0  0  0  0  0  0  0  0
   38.7730   26.8970   31.7330 C   0  0  0  0  0  0  0  0  0  0  0  0
   38.3920   27.6340   30.4940 C   0  0  0  0  0  0  0  0  0  0  0  0
   37.0700   27.5290   30.0450 N   0  0  0  0  0  0  0  0  0  0  0  0
   36.0530   27.2330   30.9860 C   0  0  0  0  0  0  0  0  0  0  0  0
   36.3740   26.0570   31.8690 C   0  0  1  0  0  0  0  0  0  0  0  0
   37.9340   24.8140   36.6320 H   0  0  0  0  0  0  0  0  0  0  0  0
   37.2690   26.3200   34.8610 H   0  0  0  0  0  0  0  0  0  0  0  0
   39.7850   22.2780   33.7430 H   0  0  0  0  0  0  0  0  0  0  0  0
   39.7210   26.3530   31.6710 H   0  0  0  0  0  0  0  0  0  0  0  0
   38.9540   27.6720   32.5350 H   0  0  0  0  0  0  0  0  0  0  0  0
   39.0790   27.2820   29.6940 H   0  0  0  0  0  0  0  0  0  0  0  0
   38.6280   28.7250   30.5680 H   0  0  0  0  0  0  0  0  0  0  0  0
   36.9830   26.9230   29.1820 H   0  0  0  0  0  0  0  0  0  0  0  0
   35.9330   28.1050   31.6640 H   0  0  0  0  0  0  0  0  0  0  0  0
   35.0980   27.0920   30.4670 H   0  0  0  0  0  0  0  0  0  0  0  0
   35.7440   26.1190   32.7780 H   0  0  0  0  0  0  0  0  0  0  0  0
   35.9950   24.7790   31.1540 C   0  0  0  0  0  0  0  0  0  0  0  0
   35.5940   23.8140   32.0630 F   0  0  0  0  0  0  0  0  0  0  0  0
   34.8740   25.0390   30.3690 F   0  0  0  0  0  0  0  0  0  0  0  0
   37.0250   24.3020   30.3670 F   0  0  0  0  0  0  0  0  0  0  0  0
  1 13  1  0  0  0  0
  2 14  1  0  0  0  0
  2  1  2  0  0  0  0
  3  2  1  0  0  0  0
  4  3  2  0  0  0  0
  4  5  1  0  0  0  0
  5  6  2  0  0  0  0
  6  1  1  0  0  0  0
  7  3  1  0  0  0  0
  8  7  1  0  0  0  0
  8 17  1  0  0  0  0
  9 19  1  0  0  0  0
  9  8  1  0  0  0  0
 10  9  1  0  0  0  0
 10 11  1  0  0  0  0
 11 21  1  0  0  0  0
 11 12  1  0  0  0  0
 12  7  1  0  0  0  0
 12 23  1  1  0  0  0
 15  5  1  0  0  0  0
 16  8  1  0  0  0  0
 18  9  1  0  0  0  0
 20 10  1  0  0  0  0
 22 11  1  0  0  0  0
 24 12  1  0  0  0  0
 24 25  1  0  0  0  0
 26 24  1  0  0  0  0
 27 24  1  0  0  0  0
M  END
>  <minimizedAffinity>
-4.09195805

$$$$

 OpenBabel03262523413D

 27 28  0  0  1  0  0  0  0  0999 V2000
   41.8830   24.1790   35.0140 C   0  0  0  0  0  0  0  0  0  0  0  0
   40.9420   24.8650   34.2420 C   0  0  0  0  0  0  0  0  0  0  0  0
   39.5840   24.7640   34.5270 C   0  0  0  0  0  0  0  0  0  0  0  0
   39.2270   23.9800   35.5680 N   0  0  0  0  0  0  0  0  0  0  0  0
   40.1370   23.3110   36.3200 C   0  0  0  0  0  0  0  0  0  0  0  0
   41.4560   23.4090   36.0460 N   0  0  0  0  0  0  0  0  0  0  0  0
   38.6370   25.4700   33.7300 N   0  0  0  0  0  0  0  0  0  0  0  0
   37.8920   24.6890   32.7890 C   0  0  0  0  0  0  0  0  0  0  0  0
   36.7310   25.3890   32.1680 C   0  0  0  0  0  0  0  0  0  0  0  0
   36.5440   26.7440   32.4630 N   0  0  0  0  0  0  0  0  0  0  0  0
   37.6680   27.5190   32.8430 C   0  0  0  0  0  0  0  0  0  0  0  0
   38.5000   26.8840   33.9240 C   0  0  1  0  0  0  0  0  0  0  0  0
   42.9080   24.3140   34.7240 H   0  0  0  0  0  0  0  0  0  0  0  0
   41.2610   25.4940   33.4030 H   0  0  0  0  0  0  0  0  0  0  0  0
   39.7790   22.7040   37.1360 H   0  0  0  0  0  0  0  0  0  0  0  0
   37.6630   23.7030   33.2080 H   0  0  0  0  0  0  0  0  0  0  0  0
   38.6270   24.4690   31.9590 H   0  0  0  0  0  0  0  0  0  0  0  0
   35.8240   24.8200   32.4660 H   0  0  0  0  0  0  0  0  0  0  0  0
   36.7340   25.2930   31.0530 H   0  0  0  0  0  0  0  0  0  0  0  0
   35.7280   26.9060   33.1170 H   0  0  0  0  0  0  0  0  0  0  0  0
   38.3360   27.6290   31.9620 H   0  0  0  0  0  0  0  0  0  0  0  0
   37.3430   28.5250   33.1310 H   0  0  0  0  0  0  0  0  0  0  0  0
   39.5110   27.3370   33.9000 H   0  0  0  0  0  0  0  0  0  0  0  0
   37.9010   27.2110   35.2730 C   0  0  0  0  0  0  0  0  0  0  0  0
   37.0570   26.1970   35.6900 F   0  0  0  0  0  0  0  0  0  0  0  0
   38.9330   27.2450   36.2070 F   0  0  0  0  0  0  0  0  0  0  0  0
   37.2330   28.4210   35.2610 F   0  0  0  0  0  0  0  0  0  0  0  0
  1  6  1  0  0  0  0
  2  3  1  0  0  0  0
  2  1  2  0  0  0  0
  3  4  2  0  0  0  0
  4  5  1  0  0  0  0
  5 15  1  0  0  0  0
  6  5  2  0  0  0  0
  7 12  1  0  0  0  0
  7  3  1  0  0  0  0
  8 16  1  0  0  0  0
  8  7  1  0  0  0  0
  9 10  1  0  0  0  0
  9 18  1  0  0  0  0
  9  8  1  0  0  0  0
 10 11  1  0  0  0  0
 10 20  1  0  0  0  0
 11 22  1  0  0  0  0
 11 12  1  0  0  0  0
 12 23  1  6  0  0  0
 12 24  1  0  0  0  0
 13  1  1  0  0  0  0
 14  2  1  0  0  0  0
 17  8  1  0  0  0  0
 19  9  1  0  0  0  0
 21 11  1  0  0  0  0
 24 25  1  0  0  0  0
 24 26  1  0  0  0  0
 27 24  1  0  0  0  0
M  END
>  <minimizedAffinity>
-4.07626152

$$$$
