
 OpenBabel03272504513D

 37 39  0  0  1  0  0  0  0  0999 V2000
   36.3930   27.3370   31.6110 N   0  0  0  0  0  0  0  0  0  0  0  0
   36.0060   28.0540   32.8210 C   0  0  0  0  0  0  0  0  0  0  0  0
   36.0530   29.5370   32.6830 C   0  0  0  0  0  0  0  0  0  0  0  0
   35.5560   29.9380   31.3130 C   0  0  0  0  0  0  0  0  0  0  0  0
   36.5160   29.4100   30.3030 C   0  0  0  0  0  0  0  0  0  0  0  0
   36.8300   27.9410   30.4010 C   0  0  1  0  0  0  0  0  0  0  0  0
   34.9670   27.7540   33.0710 H   0  0  0  0  0  0  0  0  0  0  0  0
   36.6770   27.7690   33.6770 H   0  0  0  0  0  0  0  0  0  0  0  0
   37.0870   29.9040   32.8210 H   0  0  0  0  0  0  0  0  0  0  0  0
   35.3680   29.9500   33.4760 H   0  0  0  0  0  0  0  0  0  0  0  0
   35.6170   31.0480   31.2880 H   0  0  0  0  0  0  0  0  0  0  0  0
   34.5180   29.5740   31.1760 H   0  0  0  0  0  0  0  0  0  0  0  0
   37.4280   30.0610   30.3640 H   0  0  0  0  0  0  0  0  0  0  0  0
   36.0750   29.6570   29.2980 H   0  0  0  0  0  0  0  0  0  0  0  0
   36.3930   27.4590   29.5170 H   0  0  0  0  0  0  0  0  0  0  0  0
   35.3700   25.2150   30.9580 C   0  0  0  0  0  0  0  0  0  0  0  0
   36.3220   25.9220   31.6890 C   0  0  0  0  0  0  0  0  0  0  0  0
   37.1650   25.1820   32.4960 C   0  0  0  0  0  0  0  0  0  0  0  0
   37.0260   23.8260   32.5370 N   0  0  0  0  0  0  0  0  0  0  0  0
   36.0910   23.1770   31.8160 C   0  0  0  0  0  0  0  0  0  0  0  0
   35.2730   23.8850   31.0320 N   0  0  0  0  0  0  0  0  0  0  0  0
   34.6790   25.7120   30.3090 H   0  0  0  0  0  0  0  0  0  0  0  0
   37.9340   25.5930   33.0900 H   0  0  0  0  0  0  0  0  0  0  0  0
   35.9710   21.7450   31.8970 C   0  0  0  0  0  0  0  0  0  0  0  0
   35.5940   21.1240   33.0470 C   0  0  0  0  0  0  0  0  0  0  0  0
   35.4590   19.7770   33.2140 C   0  0  0  0  0  0  0  0  0  0  0  0
   35.7450   19.0450   32.0750 C   0  0  0  0  0  0  0  0  0  0  0  0
   36.1410   19.6120   30.8490 C   0  0  0  0  0  0  0  0  0  0  0  0
   36.2320   20.9780   30.8360 N   0  0  0  0  0  0  0  0  0  0  0  0
   35.3820   21.7730   33.9130 H   0  0  0  0  0  0  0  0  0  0  0  0
   35.1610   19.2700   34.1210 H   0  0  0  0  0  0  0  0  0  0  0  0
   35.6840   17.9590   32.0510 H   0  0  0  0  0  0  0  0  0  0  0  0
   36.3530   18.9920   29.9900 H   0  0  0  0  0  0  0  0  0  0  0  0
   38.3650   27.8710   30.3630 C   0  0  0  0  0  0  0  0  0  0  0  0
   38.8370   26.7390   29.7570 F   0  0  0  0  0  0  0  0  0  0  0  0
   38.8610   29.0240   29.7370 F   0  0  0  0  0  0  0  0  0  0  0  0
   38.9030   27.8930   31.6320 F   0  0  0  0  0  0  0  0  0  0  0  0
  1 17  1  0  0  0  0
  1  2  1  0  0  0  0
  2  7  1  0  0  0  0
  2  8  1  0  0  0  0
  3  9  1  0  0  0  0
  3  2  1  0  0  0  0
  3 10  1  0  0  0  0
  4  3  1  0  0  0  0
  5 13  1  0  0  0  0
  5  6  1  0  0  0  0
  5  4  1  0  0  0  0
  6 15  1  6  0  0  0
  6  1  1  0  0  0  0
 11  4  1  0  0  0  0
 12  4  1  0  0  0  0
 14  5  1  0  0  0  0
 16 21  2  0  0  0  0
 16 17  1  0  0  0  0
 17 18  2  0  0  0  0
 18 19  1  0  0  0  0
 18 23  1  0  0  0  0
 20 24  1  0  0  0  0
 20 19  2  0  0  0  0
 21 20  1  0  0  0  0
 22 16  1  0  0  0  0
 24 25  1  0  0  0  0
 25 26  2  0  0  0  0
 25 30  1  0  0  0  0
 26 31  1  0  0  0  0
 27 26  1  0  0  0  0
 28 27  2  0  0  0  0
 29 28  1  0  0  0  0
 29 24  2  0  0  0  0
 32 27  1  0  0  0  0
 33 28  1  0  0  0  0
 34  6  1  0  0  0  0
 34 37  1  0  0  0  0
 35 34  1  0  0  0  0
 36 34  1  0  0  0  0
M  END
>  <minimizedAffinity>
-5.40887356

$$$$

 OpenBabel03272504513D

 37 39  0  0  1  0  0  0  0  0999 V2000
   36.2190   27.6050   31.6100 N   0  0  0  0  0  0  0  0  0  0  0  0
   35.8360   28.2550   32.8580 C   0  0  0  0  0  0  0  0  0  0  0  0
   35.9200   29.7420   32.8120 C   0  0  0  0  0  0  0  0  0  0  0  0
   35.4480   30.2380   31.4650 C   0  0  0  0  0  0  0  0  0  0  0  0
   36.4060   29.7500   30.4330 C   0  0  0  0  0  0  0  0  0  0  0  0
   36.6840   28.2710   30.4440 C   0  0  1  0  0  0  0  0  0  0  0  0
   34.7870   27.9650   33.0780 H   0  0  0  0  0  0  0  0  0  0  0  0
   36.4900   27.9020   33.7020 H   0  0  0  0  0  0  0  0  0  0  0  0
   36.9600   30.0750   32.9830 H   0  0  0  0  0  0  0  0  0  0  0  0
   35.2350   30.1220   33.6220 H   0  0  0  0  0  0  0  0  0  0  0  0
   35.5350   31.3460   31.5080 H   0  0  0  0  0  0  0  0  0  0  0  0
   34.4030   29.9080   31.2950 H   0  0  0  0  0  0  0  0  0  0  0  0
   37.3320   30.3740   30.5440 H   0  0  0  0  0  0  0  0  0  0  0  0
   35.9830   30.0690   29.4410 H   0  0  0  0  0  0  0  0  0  0  0  0
   36.2460   27.8540   29.5280 H   0  0  0  0  0  0  0  0  0  0  0  0
   36.9690   25.4060   32.3730 C   0  0  0  0  0  0  0  0  0  0  0  0
   36.1140   26.1890   31.6000 C   0  0  0  0  0  0  0  0  0  0  0  0
   35.1900   25.5210   30.8200 C   0  0  0  0  0  0  0  0  0  0  0  0
   35.1600   24.1590   30.8430 N   0  0  0  0  0  0  0  0  0  0  0  0
   36.0050   23.4340   31.6030 C   0  0  0  0  0  0  0  0  0  0  0  0
   36.9000   24.0720   32.3620 N   0  0  0  0  0  0  0  0  0  0  0  0
   37.7120   25.8440   33.0050 H   0  0  0  0  0  0  0  0  0  0  0  0
   34.4810   25.9950   30.1990 H   0  0  0  0  0  0  0  0  0  0  0  0
   35.9480   21.9960   31.5910 C   0  0  0  0  0  0  0  0  0  0  0  0
   35.0180   21.3120   32.3110 C   0  0  0  0  0  0  0  0  0  0  0  0
   34.8950   19.9540   32.3600 C   0  0  0  0  0  0  0  0  0  0  0  0
   35.8270   19.2830   31.5890 C   0  0  0  0  0  0  0  0  0  0  0  0
   36.8190   19.9170   30.8170 C   0  0  0  0  0  0  0  0  0  0  0  0
   36.8170   21.2860   30.8680 N   0  0  0  0  0  0  0  0  0  0  0  0
   34.3080   21.9140   32.9010 H   0  0  0  0  0  0  0  0  0  0  0  0
   34.1620   19.3970   32.9270 H   0  0  0  0  0  0  0  0  0  0  0  0
   35.8580   18.1980   31.5260 H   0  0  0  0  0  0  0  0  0  0  0  0
   37.5240   19.3440   30.2330 H   0  0  0  0  0  0  0  0  0  0  0  0
   38.2180   28.1660   30.4170 C   0  0  0  0  0  0  0  0  0  0  0  0
   38.7710   28.0440   31.6630 F   0  0  0  0  0  0  0  0  0  0  0  0
   38.5890   27.0950   29.5920 F   0  0  0  0  0  0  0  0  0  0  0  0
   38.7910   29.2800   29.8390 F   0  0  0  0  0  0  0  0  0  0  0  0
  1  2  1  0  0  0  0
  2  7  1  0  0  0  0
  2  8  1  0  0  0  0
  3  2  1  0  0  0  0
  3  9  1  0  0  0  0
  3 10  1  0  0  0  0
  4 11  1  0  0  0  0
  4  3  1  0  0  0  0
  5  6  1  0  0  0  0
  5 13  1  0  0  0  0
  5  4  1  0  0  0  0
  6 15  1  6  0  0  0
  6  1  1  0  0  0  0
 12  4  1  0  0  0  0
 14  5  1  0  0  0  0
 16 22  1  0  0  0  0
 17  1  1  0  0  0  0
 17 16  2  0  0  0  0
 18 19  2  0  0  0  0
 18 17  1  0  0  0  0
 19 20  1  0  0  0  0
 20 21  2  0  0  0  0
 21 16  1  0  0  0  0
 23 18  1  0  0  0  0
 24 20  1  0  0  0  0
 24 25  1  0  0  0  0
 25 26  2  0  0  0  0
 25 30  1  0  0  0  0
 26 31  1  0  0  0  0
 27 26  1  0  0  0  0
 28 29  1  0  0  0  0
 28 27  2  0  0  0  0
 29 24  2  0  0  0  0
 32 27  1  0  0  0  0
 33 28  1  0  0  0  0
 34  6  1  0  0  0  0
 34 35  1  0  0  0  0
 36 34  1  0  0  0  0
 37 34  1  0  0  0  0
M  END
>  <minimizedAffinity>
-5.36596012

$$$$

 OpenBabel03272504513D

 37 39  0  0  1  0  0  0  0  0999 V2000
   40.0050   23.9950   35.5630 N   0  0  0  0  0  0  0  0  0  0  0  0
   41.4490   24.1910   35.6290 C   0  0  0  0  0  0  0  0  0  0  0  0
   42.1580   23.1650   36.4440 C   0  0  0  0  0  0  0  0  0  0  0  0
   41.5380   21.8070   36.2080 C   0  0  0  0  0  0  0  0  0  0  0  0
   40.1430   21.8420   36.7320 C   0  0  0  0  0  0  0  0  0  0  0  0
   39.2820   22.9700   36.2320 C   0  0  1  0  0  0  0  0  0  0  0  0
   41.8400   24.1530   34.5910 H   0  0  0  0  0  0  0  0  0  0  0  0
   41.6880   25.1990   36.0650 H   0  0  0  0  0  0  0  0  0  0  0  0
   42.0960   23.4160   37.5190 H   0  0  0  0  0  0  0  0  0  0  0  0
   43.2270   23.1650   36.0900 H   0  0  0  0  0  0  0  0  0  0  0  0
   42.1180   21.1010   36.8400 H   0  0  0  0  0  0  0  0  0  0  0  0
   41.6040   21.5540   35.1310 H   0  0  0  0  0  0  0  0  0  0  0  0
   40.2270   21.8130   37.8510 H   0  0  0  0  0  0  0  0  0  0  0  0
   39.6890   20.8470   36.4690 H   0  0  0  0  0  0  0  0  0  0  0  0
   38.5080   22.5260   35.5920 H   0  0  0  0  0  0  0  0  0  0  0  0
   39.7280   26.2490   34.6580 C   0  0  0  0  0  0  0  0  0  0  0  0
   39.2960   24.9290   34.7630 C   0  0  0  0  0  0  0  0  0  0  0  0
   38.1470   24.5910   34.0740 C   0  0  0  0  0  0  0  0  0  0  0  0
   37.5050   25.5450   33.3410 N   0  0  0  0  0  0  0  0  0  0  0  0
   37.9520   26.8140   33.2650 C   0  0  0  0  0  0  0  0  0  0  0  0
   39.0630   27.1490   33.9270 N   0  0  0  0  0  0  0  0  0  0  0  0
   40.6080   26.5930   35.1590 H   0  0  0  0  0  0  0  0  0  0  0  0
   37.7230   23.6250   34.0610 H   0  0  0  0  0  0  0  0  0  0  0  0
   37.2390   27.7940   32.4890 C   0  0  0  0  0  0  0  0  0  0  0  0
   36.2590   28.5630   33.0370 C   0  0  0  0  0  0  0  0  0  0  0  0
   35.5310   29.5090   32.3770 C   0  0  0  0  0  0  0  0  0  0  0  0
   35.8720   29.6420   31.0440 C   0  0  0  0  0  0  0  0  0  0  0  0
   36.8710   28.8860   30.4030 C   0  0  0  0  0  0  0  0  0  0  0  0
   37.5170   27.9740   31.1960 N   0  0  0  0  0  0  0  0  0  0  0  0
   36.0430   28.4010   34.1060 H   0  0  0  0  0  0  0  0  0  0  0  0
   34.7510   30.1280   32.8000 H   0  0  0  0  0  0  0  0  0  0  0  0
   35.3810   30.3550   30.3850 H   0  0  0  0  0  0  0  0  0  0  0  0
   37.0970   29.0300   29.3560 H   0  0  0  0  0  0  0  0  0  0  0  0
   38.6640   23.5760   37.5020 C   0  0  0  0  0  0  0  0  0  0  0  0
   38.4610   24.9260   37.4100 F   0  0  0  0  0  0  0  0  0  0  0  0
   37.4680   22.9050   37.7950 F   0  0  0  0  0  0  0  0  0  0  0  0
   39.4690   23.3730   38.6030 F   0  0  0  0  0  0  0  0  0  0  0  0
  1  2  1  0  0  0  0
  1  6  1  0  0  0  0
  2  8  1  0  0  0  0
  2  3  1  0  0  0  0
  3  9  1  0  0  0  0
  4  3  1  0  0  0  0
  4  5  1  0  0  0  0
  4 11  1  0  0  0  0
  5 13  1  0  0  0  0
  6 15  1  6  0  0  0
  6  5  1  0  0  0  0
  6 34  1  0  0  0  0
  7  2  1  0  0  0  0
 10  3  1  0  0  0  0
 12  4  1  0  0  0  0
 14  5  1  0  0  0  0
 16 17  1  0  0  0  0
 16 22  1  0  0  0  0
 17  1  1  0  0  0  0
 18 17  2  0  0  0  0
 19 18  1  0  0  0  0
 20 19  2  0  0  0  0
 20 21  1  0  0  0  0
 21 16  2  0  0  0  0
 23 18  1  0  0  0  0
 24 25  1  0  0  0  0
 24 20  1  0  0  0  0
 25 30  1  0  0  0  0
 26 31  1  0  0  0  0
 26 25  2  0  0  0  0
 27 26  1  0  0  0  0
 28 27  2  0  0  0  0
 28 29  1  0  0  0  0
 29 24  2  0  0  0  0
 32 27  1  0  0  0  0
 33 28  1  0  0  0  0
 34 36  1  0  0  0  0
 34 37  1  0  0  0  0
 35 34  1  0  0  0  0
M  END
>  <minimizedAffinity>
-5.34501505

$$$$

 OpenBabel03272504513D

 37 39  0  0  1  0  0  0  0  0999 V2000
   36.6540   28.5780   32.4720 N   0  0  0  0  0  0  0  0  0  0  0  0
   37.0240   28.3270   31.0840 C   0  0  0  0  0  0  0  0  0  0  0  0
   36.6020   29.4050   30.1450 C   0  0  0  0  0  0  0  0  0  0  0  0
   36.7880   30.7540   30.7990 C   0  0  0  0  0  0  0  0  0  0  0  0
   35.8500   30.8380   31.9550 C   0  0  0  0  0  0  0  0  0  0  0  0
   35.9160   29.7000   32.9370 C   0  0  1  0  0  0  0  0  0  0  0  0
   38.1300   28.2350   31.0440 H   0  0  0  0  0  0  0  0  0  0  0  0
   36.5710   27.3630   30.7250 H   0  0  0  0  0  0  0  0  0  0  0  0
   35.5410   29.2750   29.8620 H   0  0  0  0  0  0  0  0  0  0  0  0
   37.2740   29.3190   29.2450 H   0  0  0  0  0  0  0  0  0  0  0  0
   36.4590   31.4990   30.0430 H   0  0  0  0  0  0  0  0  0  0  0  0
   37.8520   30.8850   31.0790 H   0  0  0  0  0  0  0  0  0  0  0  0
   34.8260   30.9850   31.5180 H   0  0  0  0  0  0  0  0  0  0  0  0
   36.0700   31.8160   32.4620 H   0  0  0  0  0  0  0  0  0  0  0  0
   36.3260   30.1050   33.8720 H   0  0  0  0  0  0  0  0  0  0  0  0
   37.4040   27.9470   34.7110 C   0  0  0  0  0  0  0  0  0  0  0  0
   37.0730   27.5940   33.4050 C   0  0  0  0  0  0  0  0  0  0  0  0
   37.1950   26.2590   33.0690 C   0  0  0  0  0  0  0  0  0  0  0  0
   37.6240   25.3720   34.0120 N   0  0  0  0  0  0  0  0  0  0  0  0
   37.9370   25.7510   35.2660 C   0  0  0  0  0  0  0  0  0  0  0  0
   37.8210   27.0400   35.6000 N   0  0  0  0  0  0  0  0  0  0  0  0
   37.3370   28.9590   35.0530 H   0  0  0  0  0  0  0  0  0  0  0  0
   36.9660   25.8610   32.1200 H   0  0  0  0  0  0  0  0  0  0  0  0
   38.3980   24.7850   36.2280 C   0  0  0  0  0  0  0  0  0  0  0  0
   37.8770   24.7220   37.4830 C   0  0  0  0  0  0  0  0  0  0  0  0
   38.2570   23.8440   38.4560 C   0  0  0  0  0  0  0  0  0  0  0  0
   39.2590   22.9770   38.0610 C   0  0  0  0  0  0  0  0  0  0  0  0
   39.8480   22.9780   36.7840 C   0  0  0  0  0  0  0  0  0  0  0  0
   39.3630   23.9170   35.9130 N   0  0  0  0  0  0  0  0  0  0  0  0
   37.0820   25.4460   37.7250 H   0  0  0  0  0  0  0  0  0  0  0  0
   37.8520   23.7830   39.4570 H   0  0  0  0  0  0  0  0  0  0  0  0
   39.6680   22.2190   38.7260 H   0  0  0  0  0  0  0  0  0  0  0  0
   40.6300   22.2760   36.5280 H   0  0  0  0  0  0  0  0  0  0  0  0
   34.4530   29.2640   33.1220 C   0  0  0  0  0  0  0  0  0  0  0  0
   34.1090   28.1930   32.3430 F   0  0  0  0  0  0  0  0  0  0  0  0
   34.2230   28.9960   34.4790 F   0  0  0  0  0  0  0  0  0  0  0  0
   33.5780   30.2800   32.8030 F   0  0  0  0  0  0  0  0  0  0  0  0
  1  6  1  0  0  0  0
  1 17  1  0  0  0  0
  2  1  1  0  0  0  0
  3  4  1  0  0  0  0
  3  2  1  0  0  0  0
  4 12  1  0  0  0  0
  4  5  1  0  0  0  0
  5 14  1  0  0  0  0
  5  6  1  0  0  0  0
  6 34  1  0  0  0  0
  6 15  1  1  0  0  0
  7  2  1  0  0  0  0
  8  2  1  0  0  0  0
  9  3  1  0  0  0  0
 10  3  1  0  0  0  0
 11  4  1  0  0  0  0
 13  5  1  0  0  0  0
 16 22  1  0  0  0  0
 16 21  1  0  0  0  0
 17 16  2  0  0  0  0
 18 17  1  0  0  0  0
 18 19  2  0  0  0  0
 19 20  1  0  0  0  0
 20 21  2  0  0  0  0
 20 24  1  0  0  0  0
 23 18  1  0  0  0  0
 24 25  1  0  0  0  0
 25 30  1  0  0  0  0
 25 26  2  0  0  0  0
 26 31  1  0  0  0  0
 27 26  1  0  0  0  0
 27 32  1  0  0  0  0
 28 27  2  0  0  0  0
 29 24  2  0  0  0  0
 29 28  1  0  0  0  0
 33 28  1  0  0  0  0
 34 36  1  0  0  0  0
 35 34  1  0  0  0  0
 37 34  1  0  0  0  0
M  END
>  <minimizedAffinity>
-5.30420589

$$$$

 OpenBabel03272504513D

 37 39  0  0  1  0  0  0  0  0999 V2000
   37.0560   21.8050   31.5910 N   0  0  0  0  0  0  0  0  0  0  0  0
   38.3800   21.3040   31.9430 C   0  0  0  0  0  0  0  0  0  0  0  0
   38.5550   19.8440   31.6990 C   0  0  0  0  0  0  0  0  0  0  0  0
   37.8590   19.4540   30.4160 C   0  0  0  0  0  0  0  0  0  0  0  0
   36.3940   19.6570   30.6070 C   0  0  0  0  0  0  0  0  0  0  0  0
   35.9790   21.0150   31.1040 C   0  0  1  0  0  0  0  0  0  0  0  0
   39.1210   21.8580   31.3290 H   0  0  0  0  0  0  0  0  0  0  0  0
   38.5970   21.4980   33.0290 H   0  0  0  0  0  0  0  0  0  0  0  0
   38.1340   19.2600   32.5380 H   0  0  0  0  0  0  0  0  0  0  0  0
   39.6640   19.6720   31.6010 H   0  0  0  0  0  0  0  0  0  0  0  0
   38.0350   18.3630   30.3010 H   0  0  0  0  0  0  0  0  0  0  0  0
   38.2830   20.0370   29.5730 H   0  0  0  0  0  0  0  0  0  0  0  0
   36.0450   18.8190   31.2670 H   0  0  0  0  0  0  0  0  0  0  0  0
   35.9180   19.4340   29.6130 H   0  0  0  0  0  0  0  0  0  0  0  0
   35.4430   21.5080   30.2840 H   0  0  0  0  0  0  0  0  0  0  0  0
   36.0670   23.9270   30.8870 C   0  0  0  0  0  0  0  0  0  0  0  0
   36.8620   23.2000   31.7700 C   0  0  0  0  0  0  0  0  0  0  0  0
   37.4560   23.9040   32.8000 C   0  0  0  0  0  0  0  0  0  0  0  0
   37.2410   25.2460   32.8990 N   0  0  0  0  0  0  0  0  0  0  0  0
   36.4670   25.9170   32.0240 C   0  0  0  0  0  0  0  0  0  0  0  0
   35.8870   25.2440   31.0260 N   0  0  0  0  0  0  0  0  0  0  0  0
   35.5700   23.4580   30.0640 H   0  0  0  0  0  0  0  0  0  0  0  0
   38.0700   23.4710   33.5400 H   0  0  0  0  0  0  0  0  0  0  0  0
   36.2750   27.3370   32.1570 C   0  0  0  0  0  0  0  0  0  0  0  0
   36.2240   27.9400   33.3760 C   0  0  0  0  0  0  0  0  0  0  0  0
   36.0420   29.2740   33.5930 C   0  0  0  0  0  0  0  0  0  0  0  0
   35.9060   30.0130   32.4320 C   0  0  0  0  0  0  0  0  0  0  0  0
   35.9470   29.4660   31.1370 C   0  0  0  0  0  0  0  0  0  0  0  0
   36.1370   28.1100   31.0770 N   0  0  0  0  0  0  0  0  0  0  0  0
   36.3410   27.2870   34.2550 H   0  0  0  0  0  0  0  0  0  0  0  0
   36.0000   29.7660   34.5550 H   0  0  0  0  0  0  0  0  0  0  0  0
   35.7540   31.0900   32.4420 H   0  0  0  0  0  0  0  0  0  0  0  0
   35.8340   30.0900   30.2620 H   0  0  0  0  0  0  0  0  0  0  0  0
   35.0350   20.7230   32.2820 C   0  0  0  0  0  0  0  0  0  0  0  0
   34.3460   21.8270   32.7060 F   0  0  0  0  0  0  0  0  0  0  0  0
   34.1600   19.6880   31.9220 F   0  0  0  0  0  0  0  0  0  0  0  0
   35.7250   20.2450   33.3760 F   0  0  0  0  0  0  0  0  0  0  0  0
  1 17  1  0  0  0  0
  1  2  1  0  0  0  0
  2  8  1  0  0  0  0
  3  2  1  0  0  0  0
  3  9  1  0  0  0  0
  4  5  1  0  0  0  0
  4  3  1  0  0  0  0
  5  6  1  0  0  0  0
  5 13  1  0  0  0  0
  6 15  1  6  0  0  0
  6  1  1  0  0  0  0
  6 34  1  0  0  0  0
  7  2  1  0  0  0  0
 10  3  1  0  0  0  0
 11  4  1  0  0  0  0
 12  4  1  0  0  0  0
 14  5  1  0  0  0  0
 16 21  2  0  0  0  0
 16 17  1  0  0  0  0
 17 18  2  0  0  0  0
 18 19  1  0  0  0  0
 18 23  1  0  0  0  0
 20 24  1  0  0  0  0
 20 19  2  0  0  0  0
 21 20  1  0  0  0  0
 22 16  1  0  0  0  0
 24 25  1  0  0  0  0
 25 26  2  0  0  0  0
 25 30  1  0  0  0  0
 26 31  1  0  0  0  0
 27 32  1  0  0  0  0
 27 26  1  0  0  0  0
 28 27  2  0  0  0  0
 29 28  1  0  0  0  0
 29 24  2  0  0  0  0
 33 28  1  0  0  0  0
 34 35  1  0  0  0  0
 34 37  1  0  0  0  0
 36 34  1  0  0  0  0
M  END
>  <minimizedAffinity>
-5.13327026

$$$$

 OpenBabel03272504513D

 37 39  0  0  1  0  0  0  0  0999 V2000
   38.7480   22.8290   35.9390 N   0  0  0  0  0  0  0  0  0  0  0  0
   39.8720   22.3270   36.7200 C   0  0  0  0  0  0  0  0  0  0  0  0
   40.0460   23.0120   38.0330 C   0  0  0  0  0  0  0  0  0  0  0  0
   38.6930   23.2860   38.6480 C   0  0  0  0  0  0  0  0  0  0  0  0
   37.9810   24.2640   37.7760 C   0  0  0  0  0  0  0  0  0  0  0  0
   37.8950   23.9010   36.3190 C   0  0  1  0  0  0  0  0  0  0  0  0
   39.6960   21.2460   36.9040 H   0  0  0  0  0  0  0  0  0  0  0  0
   40.8320   22.4410   36.1460 H   0  0  0  0  0  0  0  0  0  0  0  0
   40.5910   23.9650   37.9010 H   0  0  0  0  0  0  0  0  0  0  0  0
   40.6260   22.3000   38.6850 H   0  0  0  0  0  0  0  0  0  0  0  0
   38.9040   23.7900   39.6170 H   0  0  0  0  0  0  0  0  0  0  0  0
   38.1480   22.3310   38.7840 H   0  0  0  0  0  0  0  0  0  0  0  0
   38.4700   25.2580   37.9560 H   0  0  0  0  0  0  0  0  0  0  0  0
   36.9550   24.3830   38.2190 H   0  0  0  0  0  0  0  0  0  0  0  0
   36.8410   23.6860   36.1020 H   0  0  0  0  0  0  0  0  0  0  0  0
   39.5740   21.9520   33.8120 C   0  0  0  0  0  0  0  0  0  0  0  0
   38.5240   22.1760   34.6990 C   0  0  0  0  0  0  0  0  0  0  0  0
   37.2700   21.7530   34.3020 C   0  0  0  0  0  0  0  0  0  0  0  0
   37.1240   21.1510   33.0870 N   0  0  0  0  0  0  0  0  0  0  0  0
   38.1640   20.9530   32.2540 C   0  0  0  0  0  0  0  0  0  0  0  0
   39.3800   21.3570   32.6310 N   0  0  0  0  0  0  0  0  0  0  0  0
   40.5760   22.2480   34.0420 H   0  0  0  0  0  0  0  0  0  0  0  0
   36.3960   21.8530   34.8840 H   0  0  0  0  0  0  0  0  0  0  0  0
   37.9660   20.3240   30.9750 C   0  0  0  0  0  0  0  0  0  0  0  0
   38.8620   20.4670   29.9610 C   0  0  0  0  0  0  0  0  0  0  0  0
   38.7510   19.9120   28.7200 C   0  0  0  0  0  0  0  0  0  0  0  0
   37.6070   19.1540   28.5510 C   0  0  0  0  0  0  0  0  0  0  0  0
   36.6340   18.9570   29.5480 C   0  0  0  0  0  0  0  0  0  0  0  0
   36.8830   19.5780   30.7430 N   0  0  0  0  0  0  0  0  0  0  0  0
   39.7500   21.0860   30.1710 H   0  0  0  0  0  0  0  0  0  0  0  0
   39.4560   20.0170   27.9060 H   0  0  0  0  0  0  0  0  0  0  0  0
   37.3780   18.6480   27.6160 H   0  0  0  0  0  0  0  0  0  0  0  0
   35.7560   18.3540   29.3610 H   0  0  0  0  0  0  0  0  0  0  0  0
   38.3620   25.1650   35.5780 C   0  0  0  0  0  0  0  0  0  0  0  0
   39.6950   25.1490   35.2740 F   0  0  0  0  0  0  0  0  0  0  0  0
   37.5820   25.3330   34.4240 F   0  0  0  0  0  0  0  0  0  0  0  0
   38.1430   26.3010   36.3280 F   0  0  0  0  0  0  0  0  0  0  0  0
  1  6  1  0  0  0  0
  1  2  1  0  0  0  0
  2  7  1  0  0  0  0
  2  3  1  0  0  0  0
  3  4  1  0  0  0  0
  3 10  1  0  0  0  0
  4 12  1  0  0  0  0
  4 11  1  0  0  0  0
  5 13  1  0  0  0  0
  5 14  1  0  0  0  0
  5  4  1  0  0  0  0
  6 15  1  6  0  0  0
  6  5  1  0  0  0  0
  8  2  1  0  0  0  0
  9  3  1  0  0  0  0
 16 22  1  0  0  0  0
 16 17  1  0  0  0  0
 17  1  1  0  0  0  0
 18 17  2  0  0  0  0
 18 23  1  0  0  0  0
 19 18  1  0  0  0  0
 20 21  1  0  0  0  0
 20 19  2  0  0  0  0
 21 16  2  0  0  0  0
 24 20  1  0  0  0  0
 25 30  1  0  0  0  0
 25 24  2  0  0  0  0
 26 25  1  0  0  0  0
 27 26  2  0  0  0  0
 27 28  1  0  0  0  0
 28 29  2  0  0  0  0
 29 24  1  0  0  0  0
 31 26  1  0  0  0  0
 32 27  1  0  0  0  0
 33 28  1  0  0  0  0
 34  6  1  0  0  0  0
 34 37  1  0  0  0  0
 35 34  1  0  0  0  0
 36 34  1  0  0  0  0
M  END
>  <minimizedAffinity>
-5.06946945

$$$$

 OpenBabel03272504513D

 37 39  0  0  1  0  0  0  0  0999 V2000
   35.9230   28.1150   32.4050 N   0  0  0  0  0  0  0  0  0  0  0  0
   36.0510   28.5060   33.8050 C   0  0  0  0  0  0  0  0  0  0  0  0
   35.7890   29.9520   34.0510 C   0  0  0  0  0  0  0  0  0  0  0  0
   34.6430   30.4190   33.1840 C   0  0  0  0  0  0  0  0  0  0  0  0
   35.0760   30.3260   31.7610 C   0  0  0  0  0  0  0  0  0  0  0  0
   35.6280   28.9950   31.3280 C   0  0  1  0  0  0  0  0  0  0  0  0
   35.3180   27.9080   34.3870 H   0  0  0  0  0  0  0  0  0  0  0  0
   37.0840   28.2750   34.1830 H   0  0  0  0  0  0  0  0  0  0  0  0
   36.6910   30.5510   33.8240 H   0  0  0  0  0  0  0  0  0  0  0  0
   35.5080   30.0410   35.1380 H   0  0  0  0  0  0  0  0  0  0  0  0
   34.5070   31.4950   33.4250 H   0  0  0  0  0  0  0  0  0  0  0  0
   33.7380   29.8220   33.4150 H   0  0  0  0  0  0  0  0  0  0  0  0
   35.7900   31.1760   31.5930 H   0  0  0  0  0  0  0  0  0  0  0  0
   34.1770   30.6040   31.1450 H   0  0  0  0  0  0  0  0  0  0  0  0
   34.9070   28.5600   30.6250 H   0  0  0  0  0  0  0  0  0  0  0  0
   35.4110   26.0990   31.1210 C   0  0  0  0  0  0  0  0  0  0  0  0
   36.1240   26.7360   32.1330 C   0  0  0  0  0  0  0  0  0  0  0  0
   37.0070   25.9600   32.8590 C   0  0  0  0  0  0  0  0  0  0  0  0
   37.1340   24.6370   32.5560 N   0  0  0  0  0  0  0  0  0  0  0  0
   36.4250   24.0540   31.5700 C   0  0  0  0  0  0  0  0  0  0  0  0
   35.5700   24.7980   30.8620 N   0  0  0  0  0  0  0  0  0  0  0  0
   34.7080   26.6280   30.5120 H   0  0  0  0  0  0  0  0  0  0  0  0
   37.6130   26.3220   33.6420 H   0  0  0  0  0  0  0  0  0  0  0  0
   36.5800   22.6510   31.2900 C   0  0  0  0  0  0  0  0  0  0  0  0
   35.5780   21.7610   31.5220 C   0  0  0  0  0  0  0  0  0  0  0  0
   35.6400   20.4180   31.2910 C   0  0  0  0  0  0  0  0  0  0  0  0
   36.8540   19.9980   30.7780 C   0  0  0  0  0  0  0  0  0  0  0  0
   37.9380   20.8540   30.5100 C   0  0  0  0  0  0  0  0  0  0  0  0
   37.7260   22.1780   30.7930 N   0  0  0  0  0  0  0  0  0  0  0  0
   34.6400   22.1690   31.9320 H   0  0  0  0  0  0  0  0  0  0  0  0
   34.8520   19.7000   31.4700 H   0  0  0  0  0  0  0  0  0  0  0  0
   37.0570   18.9560   30.5420 H   0  0  0  0  0  0  0  0  0  0  0  0
   38.8660   20.4730   30.1090 H   0  0  0  0  0  0  0  0  0  0  0  0
   36.9490   29.3360   30.6200 C   0  0  0  0  0  0  0  0  0  0  0  0
   36.9450   29.0150   29.2900 F   0  0  0  0  0  0  0  0  0  0  0  0
   37.2330   30.6960   30.8100 F   0  0  0  0  0  0  0  0  0  0  0  0
   38.0130   28.6650   31.1830 F   0  0  0  0  0  0  0  0  0  0  0  0
  1  2  1  0  0  0  0
  2  3  1  0  0  0  0
  2  8  1  0  0  0  0
  2  7  1  0  0  0  0
  3 10  1  0  0  0  0
  4 12  1  0  0  0  0
  4 11  1  0  0  0  0
  4  3  1  0  0  0  0
  5  4  1  0  0  0  0
  6 15  1  6  0  0  0
  6  5  1  0  0  0  0
  6  1  1  0  0  0  0
  9  3  1  0  0  0  0
 13  5  1  0  0  0  0
 14  5  1  0  0  0  0
 16 17  1  0  0  0  0
 17  1  1  0  0  0  0
 17 18  2  0  0  0  0
 18 23  1  0  0  0  0
 19 18  1  0  0  0  0
 20 19  2  0  0  0  0
 21 16  2  0  0  0  0
 21 20  1  0  0  0  0
 22 16  1  0  0  0  0
 24 25  1  0  0  0  0
 24 20  1  0  0  0  0
 25 30  1  0  0  0  0
 26 31  1  0  0  0  0
 26 25  2  0  0  0  0
 27 26  1  0  0  0  0
 28 27  2  0  0  0  0
 28 29  1  0  0  0  0
 29 24  2  0  0  0  0
 32 27  1  0  0  0  0
 33 28  1  0  0  0  0
 34 36  1  0  0  0  0
 34 37  1  0  0  0  0
 34  6  1  0  0  0  0
 35 34  1  0  0  0  0
M  END
>  <minimizedAffinity>
-5.0365448

$$$$

 OpenBabel03272504513D

 37 39  0  0  1  0  0  0  0  0999 V2000
   38.4270   27.4140   31.3420 N   0  0  0  0  0  0  0  0  0  0  0  0
   39.1040   26.8230   30.1940 C   0  0  0  0  0  0  0  0  0  0  0  0
   38.9790   27.6240   28.9440 C   0  0  0  0  0  0  0  0  0  0  0  0
   39.0780   29.0970   29.2700 C   0  0  0  0  0  0  0  0  0  0  0  0
   37.8970   29.4640   30.1020 C   0  0  0  0  0  0  0  0  0  0  0  0
   37.6630   28.6130   31.3200 C   0  0  1  0  0  0  0  0  0  0  0  0
   40.1800   26.7310   30.4510 H   0  0  0  0  0  0  0  0  0  0  0  0
   38.6970   25.7960   29.9840 H   0  0  0  0  0  0  0  0  0  0  0  0
   38.0100   27.4210   28.4510 H   0  0  0  0  0  0  0  0  0  0  0  0
   39.8410   27.3190   28.2860 H   0  0  0  0  0  0  0  0  0  0  0  0
   38.9810   29.6240   28.2960 H   0  0  0  0  0  0  0  0  0  0  0  0
   40.0500   29.3020   29.7600 H   0  0  0  0  0  0  0  0  0  0  0  0
   37.0170   29.4890   29.4050 H   0  0  0  0  0  0  0  0  0  0  0  0
   38.0440   30.5410   30.3900 H   0  0  0  0  0  0  0  0  0  0  0  0
   37.8590   29.2440   32.1970 H   0  0  0  0  0  0  0  0  0  0  0  0
   37.9860   25.4390   32.7140 C   0  0  0  0  0  0  0  0  0  0  0  0
   38.5560   26.7010   32.5630 C   0  0  0  0  0  0  0  0  0  0  0  0
   39.2230   27.2200   33.6560 C   0  0  0  0  0  0  0  0  0  0  0  0
   39.2890   26.4880   34.8040 N   0  0  0  0  0  0  0  0  0  0  0  0
   38.7240   25.2700   34.9140 C   0  0  0  0  0  0  0  0  0  0  0  0
   38.0780   24.7610   33.8620 N   0  0  0  0  0  0  0  0  0  0  0  0
   37.4520   24.9650   31.9170 H   0  0  0  0  0  0  0  0  0  0  0  0
   39.7070   28.1570   33.6680 H   0  0  0  0  0  0  0  0  0  0  0  0
   38.8070   24.5350   36.1490 C   0  0  0  0  0  0  0  0  0  0  0  0
   37.9740   24.7950   37.1920 C   0  0  0  0  0  0  0  0  0  0  0  0
   37.9860   24.1530   38.3960 C   0  0  0  0  0  0  0  0  0  0  0  0
   38.9520   23.1680   38.4900 C   0  0  0  0  0  0  0  0  0  0  0  0
   39.8500   22.8390   37.4580 C   0  0  0  0  0  0  0  0  0  0  0  0
   39.7170   23.5710   36.3080 N   0  0  0  0  0  0  0  0  0  0  0  0
   37.2290   25.5940   37.0430 H   0  0  0  0  0  0  0  0  0  0  0  0
   37.3300   24.3480   39.2330 H   0  0  0  0  0  0  0  0  0  0  0  0
   39.0860   22.5680   39.3880 H   0  0  0  0  0  0  0  0  0  0  0  0
   40.5870   22.0590   37.5850 H   0  0  0  0  0  0  0  0  0  0  0  0
   36.1760   28.2270   31.2420 C   0  0  0  0  0  0  0  0  0  0  0  0
   35.3760   29.2510   30.8150 F   0  0  0  0  0  0  0  0  0  0  0  0
   36.0390   27.1000   30.4190 F   0  0  0  0  0  0  0  0  0  0  0  0
   35.6910   27.8350   32.4720 F   0  0  0  0  0  0  0  0  0  0  0  0
  1 17  1  0  0  0  0
  2  7  1  0  0  0  0
  2  1  1  0  0  0  0
  3  4  1  0  0  0  0
  3  2  1  0  0  0  0
  4 12  1  0  0  0  0
  4  5  1  0  0  0  0
  5 14  1  0  0  0  0
  5  6  1  0  0  0  0
  6  1  1  0  0  0  0
  6 15  1  1  0  0  0
  8  2  1  0  0  0  0
  9  3  1  0  0  0  0
 10  3  1  0  0  0  0
 11  4  1  0  0  0  0
 13  5  1  0  0  0  0
 16 21  1  0  0  0  0
 17 16  2  0  0  0  0
 17 18  1  0  0  0  0
 18 23  1  0  0  0  0
 18 19  2  0  0  0  0
 19 20  1  0  0  0  0
 20 24  1  0  0  0  0
 21 20  2  0  0  0  0
 22 16  1  0  0  0  0
 24 29  2  0  0  0  0
 24 25  1  0  0  0  0
 25 26  2  0  0  0  0
 26 27  1  0  0  0  0
 26 31  1  0  0  0  0
 27 32  1  0  0  0  0
 28 33  1  0  0  0  0
 28 27  2  0  0  0  0
 29 28  1  0  0  0  0
 30 25  1  0  0  0  0
 34  6  1  0  0  0  0
 34 37  1  0  0  0  0
 35 34  1  0  0  0  0
 36 34  1  0  0  0  0
M  END
>  <minimizedAffinity>
-4.98976326

$$$$

 OpenBabel03272504513D

 37 39  0  0  1  0  0  0  0  0999 V2000
   38.5090   27.2610   31.2510 N   0  0  0  0  0  0  0  0  0  0  0  0
   39.1690   26.5980   30.1320 C   0  0  0  0  0  0  0  0  0  0  0  0
   39.1510   27.3900   28.8690 C   0  0  0  0  0  0  0  0  0  0  0  0
   39.3630   28.8530   29.1810 C   0  0  0  0  0  0  0  0  0  0  0  0
   38.1910   29.3290   29.9700 C   0  0  0  0  0  0  0  0  0  0  0  0
   37.8490   28.5190   31.1900 C   0  0  1  0  0  0  0  0  0  0  0  0
   40.2260   26.4210   30.4250 H   0  0  0  0  0  0  0  0  0  0  0  0
   38.6840   25.6070   29.9220 H   0  0  0  0  0  0  0  0  0  0  0  0
   38.1850   27.2600   28.3480 H   0  0  0  0  0  0  0  0  0  0  0  0
   40.0040   27.0040   28.2430 H   0  0  0  0  0  0  0  0  0  0  0  0
   39.3400   29.3720   28.1980 H   0  0  0  0  0  0  0  0  0  0  0  0
   40.3330   28.9840   29.7000 H   0  0  0  0  0  0  0  0  0  0  0  0
   37.3390   29.4180   29.2450 H   0  0  0  0  0  0  0  0  0  0  0  0
   38.4190   30.3940   30.2500 H   0  0  0  0  0  0  0  0  0  0  0  0
   38.0700   29.1440   32.0650 H   0  0  0  0  0  0  0  0  0  0  0  0
   39.2550   27.0560   33.5700 C   0  0  0  0  0  0  0  0  0  0  0  0
   38.5390   26.5580   32.4840 C   0  0  0  0  0  0  0  0  0  0  0  0
   37.8900   25.3510   32.6640 C   0  0  0  0  0  0  0  0  0  0  0  0
   37.9810   24.7210   33.8700 N   0  0  0  0  0  0  0  0  0  0  0  0
   38.6840   25.2330   34.8980 C   0  0  0  0  0  0  0  0  0  0  0  0
   39.3140   26.4000   34.7330 N   0  0  0  0  0  0  0  0  0  0  0  0
   39.7850   27.9840   33.5140 H   0  0  0  0  0  0  0  0  0  0  0  0
   37.3070   24.8730   31.9280 H   0  0  0  0  0  0  0  0  0  0  0  0
   38.7640   24.5300   36.1510 C   0  0  0  0  0  0  0  0  0  0  0  0
   39.6620   23.5280   36.3520 C   0  0  0  0  0  0  0  0  0  0  0  0
   39.8030   22.8080   37.5020 C   0  0  0  0  0  0  0  0  0  0  0  0
   38.9260   23.1830   38.5040 C   0  0  0  0  0  0  0  0  0  0  0  0
   37.9690   24.2070   38.3750 C   0  0  0  0  0  0  0  0  0  0  0  0
   37.9470   24.8410   37.1610 N   0  0  0  0  0  0  0  0  0  0  0  0
   40.3280   23.2850   35.5090 H   0  0  0  0  0  0  0  0  0  0  0  0
   40.5120   22.0100   37.6760 H   0  0  0  0  0  0  0  0  0  0  0  0
   38.9150   22.7020   39.4790 H   0  0  0  0  0  0  0  0  0  0  0  0
   37.3070   24.4600   39.1900 H   0  0  0  0  0  0  0  0  0  0  0  0
   36.3390   28.2570   31.0690 C   0  0  0  0  0  0  0  0  0  0  0  0
   36.0430   27.1430   30.3320 F   0  0  0  0  0  0  0  0  0  0  0  0
   35.7840   28.1740   32.3550 F   0  0  0  0  0  0  0  0  0  0  0  0
   35.6900   29.3130   30.4650 F   0  0  0  0  0  0  0  0  0  0  0  0
  1 17  1  0  0  0  0
  2  7  1  0  0  0  0
  2  1  1  0  0  0  0
  3  4  1  0  0  0  0
  3  2  1  0  0  0  0
  4 12  1  0  0  0  0
  4  5  1  0  0  0  0
  5 14  1  0  0  0  0
  5  6  1  0  0  0  0
  6  1  1  0  0  0  0
  6 15  1  1  0  0  0
  8  2  1  0  0  0  0
  9  3  1  0  0  0  0
 10  3  1  0  0  0  0
 11  4  1  0  0  0  0
 13  5  1  0  0  0  0
 16 21  1  0  0  0  0
 17 18  1  0  0  0  0
 17 16  2  0  0  0  0
 18 19  2  0  0  0  0
 19 20  1  0  0  0  0
 20 24  1  0  0  0  0
 21 20  2  0  0  0  0
 22 16  1  0  0  0  0
 23 18  1  0  0  0  0
 24 25  2  0  0  0  0
 24 29  1  0  0  0  0
 25 26  1  0  0  0  0
 26 31  1  0  0  0  0
 26 27  2  0  0  0  0
 27 32  1  0  0  0  0
 28 27  1  0  0  0  0
 28 33  1  0  0  0  0
 29 28  2  0  0  0  0
 30 25  1  0  0  0  0
 34  6  1  0  0  0  0
 34 36  1  0  0  0  0
 35 34  1  0  0  0  0
 37 34  1  0  0  0  0
M  END
>  <minimizedAffinity>
-4.96109295

$$$$
