
 OpenBabel03272509523D

 38 40  0  0  0  0  0  0  0  0999 V2000
   37.3660   30.1960   51.5580 C   0  0  0  0  0  0  0  0  0  0  0  0
   38.0800   30.8750   50.5500 C   0  0  0  0  0  0  0  0  0  0  0  0
   37.7120   30.6610   49.2400 C   0  0  0  0  0  0  0  0  0  0  0  0
   36.6680   29.7920   49.0310 N   0  0  0  0  0  0  0  0  0  0  0  0
   36.0120   29.1630   50.0020 C   0  0  0  0  0  0  0  0  0  0  0  0
   36.3620   29.3660   51.2820 N   0  0  0  0  0  0  0  0  0  0  0  0
   37.6790   30.3860   52.5760 H   0  0  0  0  0  0  0  0  0  0  0  0
   38.8790   31.5390   50.7360 H   0  0  0  0  0  0  0  0  0  0  0  0
   38.9610   33.2630   49.0320 F   0  0  0  0  0  0  0  0  0  0  0  0
   38.9070   32.4750   47.9640 C   0  0  0  0  0  0  0  0  0  0  0  0
   38.3200   31.2630   48.0810 C   0  0  0  0  0  0  0  0  0  0  0  0
   38.3260   30.5260   46.8910 C   0  0  0  0  0  0  0  0  0  0  0  0
   38.8740   30.9990   45.7330 C   0  0  0  0  0  0  0  0  0  0  0  0
   39.4570   32.2300   45.6660 C   0  0  0  0  0  0  0  0  0  0  0  0
   39.4670   32.9720   46.8090 C   0  0  0  0  0  0  0  0  0  0  0  0
   37.8720   29.5260   46.8780 H   0  0  0  0  0  0  0  0  0  0  0  0
   38.8370   30.3570   44.8430 H   0  0  0  0  0  0  0  0  0  0  0  0
   39.8780   32.5640   44.7280 H   0  0  0  0  0  0  0  0  0  0  0  0
   39.9260   33.9570   46.7780 H   0  0  0  0  0  0  0  0  0  0  0  0
   35.0150   28.3540   49.5310 O   0  0  0  0  0  0  0  0  0  0  0  0
   34.4860   28.6020   48.2370 C   0  0  0  0  0  0  0  0  0  0  0  0
   35.2870   28.8220   47.5000 H   0  0  0  0  0  0  0  0  0  0  0  0
   33.8440   29.5070   48.2990 H   0  0  0  0  0  0  0  0  0  0  0  0
   33.6010   27.4640   47.8060 C   0  0  0  0  0  0  0  0  0  0  0  0
   33.9950   27.0970   46.8370 H   0  0  0  0  0  0  0  0  0  0  0  0
   33.6650   26.5960   48.4990 H   0  0  0  0  0  0  0  0  0  0  0  0
   32.1850   27.8630   47.6640 C   0  0  0  0  0  0  0  0  0  0  0  0
   31.3200   27.5750   48.7190 C   0  0  0  0  0  0  0  0  0  0  0  0
   29.9930   27.9050   48.6800 C   0  0  0  0  0  0  0  0  0  0  0  0
   29.5060   28.5180   47.6100 N   0  0  0  0  0  0  0  0  0  0  0  0
   30.3530   28.8030   46.5730 C   0  0  0  0  0  0  0  0  0  0  0  0
   31.6770   28.4920   46.5740 N   0  0  0  0  0  0  0  0  0  0  0  0
   31.7140   27.0700   49.6020 H   0  0  0  0  0  0  0  0  0  0  0  0
   29.3500   27.6680   49.5150 H   0  0  0  0  0  0  0  0  0  0  0  0
   29.9010   29.4920   45.3240 C   0  0  0  0  0  0  0  0  0  0  0  0
   30.8360   29.2380   44.3140 F   0  0  0  0  0  0  0  0  0  0  0  0
   29.7480   30.8420   45.4950 F   0  0  0  0  0  0  0  0  0  0  0  0
   28.7180   28.9490   44.8660 F   0  0  0  0  0  0  0  0  0  0  0  0
  1  7  1  0  0  0  0
  2  8  1  0  0  0  0
  2  1  2  0  0  0  0
  3  2  1  0  0  0  0
  4  3  2  0  0  0  0
  4  5  1  0  0  0  0
  5  6  2  0  0  0  0
  6  1  1  0  0  0  0
 10 11  1  0  0  0  0
 10  9  1  0  0  0  0
 11  3  1  0  0  0  0
 12 11  2  0  0  0  0
 13 12  1  0  0  0  0
 14 13  2  0  0  0  0
 14 15  1  0  0  0  0
 15 10  2  0  0  0  0
 16 12  1  0  0  0  0
 17 13  1  0  0  0  0
 18 14  1  0  0  0  0
 19 15  1  0  0  0  0
 20  5  1  0  0  0  0
 21 23  1  0  0  0  0
 21 20  1  0  0  0  0
 22 21  1  0  0  0  0
 24 21  1  0  0  0  0
 24 26  1  0  0  0  0
 25 24  1  0  0  0  0
 27 24  1  0  0  0  0
 27 28  1  0  0  0  0
 28 33  1  0  0  0  0
 29 28  2  0  0  0  0
 29 34  1  0  0  0  0
 30 29  1  0  0  0  0
 31 32  1  0  0  0  0
 31 30  2  0  0  0  0
 32 27  2  0  0  0  0
 35 37  1  0  0  0  0
 35 31  1  0  0  0  0
 36 35  1  0  0  0  0
 38 35  1  0  0  0  0
M  END
>  <minimizedAffinity>
-6.24788284

>  <minimizedRMSD>
0.218722358

$$$$
