
 OpenBabel03272508393D

 27 28  0  0  1  0  0  0  0  0999 V2000
   37.9330   22.6040   34.7050 N   0  0  0  0  0  0  0  0  0  0  0  0
   37.9260   22.4770   36.1380 C   0  0  0  0  0  0  0  0  0  0  0  0
   37.7110   23.7730   36.8730 C   0  0  2  0  0  0  0  0  0  0  0  0
   38.3630   24.8960   36.2940 N   0  0  0  0  0  0  0  0  0  0  0  0
   38.1150   24.9620   34.8510 C   0  0  0  0  0  0  0  0  0  0  0  0
   38.7760   23.6840   34.3340 C   0  0  0  0  0  0  0  0  0  0  0  0
   38.9470   22.0930   36.4060 H   0  0  0  0  0  0  0  0  0  0  0  0
   37.2190   21.7330   36.5310 H   0  0  0  0  0  0  0  0  0  0  0  0
   36.6160   23.9670   36.8770 H   0  0  0  0  0  0  0  0  0  0  0  0
   38.0610   25.7440   36.7980 H   0  0  0  0  0  0  0  0  0  0  0  0
   38.5300   25.8640   34.4030 H   0  0  0  0  0  0  0  0  0  0  0  0
   37.0070   24.9280   34.6850 H   0  0  0  0  0  0  0  0  0  0  0  0
   39.7910   23.6350   34.7770 H   0  0  0  0  0  0  0  0  0  0  0  0
   38.9480   23.7630   33.2210 H   0  0  0  0  0  0  0  0  0  0  0  0
   37.2040   21.7670   33.8270 C   0  0  0  0  0  0  0  0  0  0  0  0
   36.1330   20.9610   34.2480 C   0  0  0  0  0  0  0  0  0  0  0  0
   35.4780   20.1710   33.3100 C   0  0  0  0  0  0  0  0  0  0  0  0
   35.8990   20.2060   32.0150 N   0  0  0  0  0  0  0  0  0  0  0  0
   36.9400   20.9990   31.6440 C   0  0  0  0  0  0  0  0  0  0  0  0
   37.5920   21.7740   32.5270 N   0  0  0  0  0  0  0  0  0  0  0  0
   35.8500   20.9750   35.2700 H   0  0  0  0  0  0  0  0  0  0  0  0
   34.6590   19.5450   33.5900 H   0  0  0  0  0  0  0  0  0  0  0  0
   37.1990   20.9580   30.5950 H   0  0  0  0  0  0  0  0  0  0  0  0
   38.1150   23.6180   38.3100 C   0  0  0  0  0  0  0  0  0  0  0  0
   37.2340   22.7160   38.8910 F   0  0  0  0  0  0  0  0  0  0  0  0
   37.8850   24.8470   38.9390 F   0  0  0  0  0  0  0  0  0  0  0  0
   39.4170   23.2700   38.4980 F   0  0  0  0  0  0  0  0  0  0  0  0
  1  2  1  0  0  0  0
  2  7  1  0  0  0  0
  2  8  1  0  0  0  0
  2  3  1  0  0  0  0
  3  9  1  6  0  0  0
  3 24  1  0  0  0  0
  4 10  1  0  0  0  0
  4  3  1  0  0  0  0
  5  4  1  0  0  0  0
  6  1  1  0  0  0  0
  6 13  1  0  0  0  0
  6  5  1  0  0  0  0
 11  5  1  0  0  0  0
 12  5  1  0  0  0  0
 14  6  1  0  0  0  0
 15 16  1  0  0  0  0
 15  1  1  0  0  0  0
 16 21  1  0  0  0  0
 17 22  1  0  0  0  0
 17 16  2  0  0  0  0
 18 17  1  0  0  0  0
 19 18  2  0  0  0  0
 19 20  1  0  0  0  0
 20 15  2  0  0  0  0
 23 19  1  0  0  0  0
 24 27  1  0  0  0  0
 24 25  1  0  0  0  0
 24 26  1  0  0  0  0
M  END
>  <minimizedAffinity>
-4.84638357

$$$$

 OpenBabel03272508393D

 27 28  0  0  1  0  0  0  0  0999 V2000
   38.1140   24.3230   34.8580 N   0  0  0  0  0  0  0  0  0  0  0  0
   37.9670   24.5820   36.2660 C   0  0  0  0  0  0  0  0  0  0  0  0
   38.7780   23.6730   37.1510 C   0  0  2  0  0  0  0  0  0  0  0  0
   38.8390   22.3230   36.7130 N   0  0  0  0  0  0  0  0  0  0  0  0
   39.1730   22.2460   35.2880 C   0  0  0  0  0  0  0  0  0  0  0  0
   37.9780   22.9300   34.6220 C   0  0  0  0  0  0  0  0  0  0  0  0
   36.8810   24.4020   36.4880 H   0  0  0  0  0  0  0  0  0  0  0  0
   38.1600   25.6220   36.5650 H   0  0  0  0  0  0  0  0  0  0  0  0
   39.8120   24.0810   37.1760 H   0  0  0  0  0  0  0  0  0  0  0  0
   39.5050   21.8140   37.3150 H   0  0  0  0  0  0  0  0  0  0  0  0
   39.3140   21.2200   34.9520 H   0  0  0  0  0  0  0  0  0  0  0  0
   40.1100   22.8370   35.1160 H   0  0  0  0  0  0  0  0  0  0  0  0
   37.0590   22.4870   35.0580 H   0  0  0  0  0  0  0  0  0  0  0  0
   37.9390   22.6580   33.5270 H   0  0  0  0  0  0  0  0  0  0  0  0
   38.3550   25.3210   33.8850 C   0  0  0  0  0  0  0  0  0  0  0  0
   39.5080   26.1240   33.8790 C   0  0  0  0  0  0  0  0  0  0  0  0
   39.6550   27.0800   32.8800 C   0  0  0  0  0  0  0  0  0  0  0  0
   38.6750   27.2030   31.9420 N   0  0  0  0  0  0  0  0  0  0  0  0
   37.5730   26.4070   31.9790 C   0  0  0  0  0  0  0  0  0  0  0  0
   37.4020   25.4750   32.9310 N   0  0  0  0  0  0  0  0  0  0  0  0
   40.2370   25.9830   34.6360 H   0  0  0  0  0  0  0  0  0  0  0  0
   40.5160   27.7100   32.8400 H   0  0  0  0  0  0  0  0  0  0  0  0
   36.8520   26.5800   31.1920 H   0  0  0  0  0  0  0  0  0  0  0  0
   38.2650   23.7420   38.5600 C   0  0  0  0  0  0  0  0  0  0  0  0
   37.7800   25.0290   38.7600 F   0  0  0  0  0  0  0  0  0  0  0  0
   39.3690   23.6060   39.4090 F   0  0  0  0  0  0  0  0  0  0  0  0
   37.3510   22.7860   38.8780 F   0  0  0  0  0  0  0  0  0  0  0  0
  1  2  1  0  0  0  0
  2  7  1  0  0  0  0
  2  8  1  0  0  0  0
  2  3  1  0  0  0  0
  3  9  1  1  0  0  0
  3 24  1  0  0  0  0
  4  3  1  0  0  0  0
  4 10  1  0  0  0  0
  5  4  1  0  0  0  0
  6  1  1  0  0  0  0
  6 13  1  0  0  0  0
  6  5  1  0  0  0  0
 11  5  1  0  0  0  0
 12  5  1  0  0  0  0
 14  6  1  0  0  0  0
 15  1  1  0  0  0  0
 16 15  1  0  0  0  0
 16 21  1  0  0  0  0
 17 16  2  0  0  0  0
 18 19  2  0  0  0  0
 18 17  1  0  0  0  0
 19 20  1  0  0  0  0
 20 15  2  0  0  0  0
 22 17  1  0  0  0  0
 23 19  1  0  0  0  0
 24 25  1  0  0  0  0
 24 27  1  0  0  0  0
 24 26  1  0  0  0  0
M  END
>  <minimizedAffinity>
-4.80975914

$$$$

 OpenBabel03272508393D

 27 28  0  0  1  0  0  0  0  0999 V2000
   38.0200   24.3310   35.0170 N   0  0  0  0  0  0  0  0  0  0  0  0
   37.8930   24.6120   36.4220 C   0  0  0  0  0  0  0  0  0  0  0  0
   38.7700   23.7640   37.3050 C   0  0  2  0  0  0  0  0  0  0  0  0
   38.8910   22.4100   36.8920 N   0  0  0  0  0  0  0  0  0  0  0  0
   39.1950   22.3210   35.4610 C   0  0  0  0  0  0  0  0  0  0  0  0
   37.9510   22.9280   34.8110 C   0  0  0  0  0  0  0  0  0  0  0  0
   36.8220   24.3800   36.6740 H   0  0  0  0  0  0  0  0  0  0  0  0
   38.0370   25.6660   36.6970 H   0  0  0  0  0  0  0  0  0  0  0  0
   39.7810   24.2260   37.2970 H   0  0  0  0  0  0  0  0  0  0  0  0
   39.5960   21.9490   37.4870 H   0  0  0  0  0  0  0  0  0  0  0  0
   39.3820   21.2970   35.1420 H   0  0  0  0  0  0  0  0  0  0  0  0
   40.0960   22.9560   35.2550 H   0  0  0  0  0  0  0  0  0  0  0  0
   37.0680   22.4480   35.2780 H   0  0  0  0  0  0  0  0  0  0  0  0
   37.9020   22.6330   33.7220 H   0  0  0  0  0  0  0  0  0  0  0  0
   38.1860   25.3200   34.0190 C   0  0  0  0  0  0  0  0  0  0  0  0
   37.4570   26.5210   34.0000 C   0  0  0  0  0  0  0  0  0  0  0  0
   37.6900   27.4330   32.9770 C   0  0  0  0  0  0  0  0  0  0  0  0
   38.6180   27.1280   32.0280 N   0  0  0  0  0  0  0  0  0  0  0  0
   39.3050   25.9550   32.0780 C   0  0  0  0  0  0  0  0  0  0  0  0
   39.1020   25.0550   33.0540 N   0  0  0  0  0  0  0  0  0  0  0  0
   36.7470   26.7030   34.7670 H   0  0  0  0  0  0  0  0  0  0  0  0
   37.1570   28.3570   32.9270 H   0  0  0  0  0  0  0  0  0  0  0  0
   40.0200   25.8050   31.2810 H   0  0  0  0  0  0  0  0  0  0  0  0
   38.2860   23.8360   38.7250 C   0  0  0  0  0  0  0  0  0  0  0  0
   39.3990   23.7060   39.5460 F   0  0  0  0  0  0  0  0  0  0  0  0
   37.5010   22.6990   38.9510 F   0  0  0  0  0  0  0  0  0  0  0  0
   37.5490   24.9400   39.0180 F   0  0  0  0  0  0  0  0  0  0  0  0
  1  2  1  0  0  0  0
  2  7  1  0  0  0  0
  2  8  1  0  0  0  0
  2  3  1  0  0  0  0
  3  9  1  6  0  0  0
  3 24  1  0  0  0  0
  4  3  1  0  0  0  0
  4 10  1  0  0  0  0
  5  4  1  0  0  0  0
  6  1  1  0  0  0  0
  6 13  1  0  0  0  0
  6  5  1  0  0  0  0
 11  5  1  0  0  0  0
 12  5  1  0  0  0  0
 14  6  1  0  0  0  0
 15  1  1  0  0  0  0
 16 15  1  0  0  0  0
 16 21  1  0  0  0  0
 17 16  2  0  0  0  0
 18 19  2  0  0  0  0
 18 17  1  0  0  0  0
 19 20  1  0  0  0  0
 20 15  2  0  0  0  0
 22 17  1  0  0  0  0
 23 19  1  0  0  0  0
 24 26  1  0  0  0  0
 24 27  1  0  0  0  0
 24 25  1  0  0  0  0
M  END
>  <minimizedAffinity>
-4.71727228

$$$$

 OpenBabel03272508393D

 27 28  0  0  1  0  0  0  0  0999 V2000
   38.1850   23.4210   34.6100 N   0  0  0  0  0  0  0  0  0  0  0  0
   38.1490   23.0200   35.9910 C   0  0  0  0  0  0  0  0  0  0  0  0
   37.6840   24.0960   36.9360 C   0  0  2  0  0  0  0  0  0  0  0  0
   38.1480   25.4010   36.6200 N   0  0  0  0  0  0  0  0  0  0  0  0
   37.9430   25.7040   35.2010 C   0  0  0  0  0  0  0  0  0  0  0  0
   38.8370   24.6780   34.5040 C   0  0  0  0  0  0  0  0  0  0  0  0
   39.2120   22.7670   36.2530 H   0  0  0  0  0  0  0  0  0  0  0  0
   37.5720   22.1070   36.1910 H   0  0  0  0  0  0  0  0  0  0  0  0
   36.5720   24.1000   36.9010 H   0  0  0  0  0  0  0  0  0  0  0  0
   37.6840   26.0740   37.2510 H   0  0  0  0  0  0  0  0  0  0  0  0
   38.2080   26.7310   34.9560 H   0  0  0  0  0  0  0  0  0  0  0  0
   36.8650   25.5180   34.9560 H   0  0  0  0  0  0  0  0  0  0  0  0
   39.8290   24.7130   34.9980 H   0  0  0  0  0  0  0  0  0  0  0  0
   39.0320   24.9970   33.4380 H   0  0  0  0  0  0  0  0  0  0  0  0
   37.6470   22.6600   33.5460 C   0  0  0  0  0  0  0  0  0  0  0  0
   37.7350   23.0530   32.2000 C   0  0  0  0  0  0  0  0  0  0  0  0
   37.1740   22.2380   31.2230 C   0  0  0  0  0  0  0  0  0  0  0  0
   36.5590   21.0850   31.6070 N   0  0  0  0  0  0  0  0  0  0  0  0
   36.4940   20.7360   32.9200 C   0  0  0  0  0  0  0  0  0  0  0  0
   37.0260   21.5020   33.8860 N   0  0  0  0  0  0  0  0  0  0  0  0
   38.2260   23.9630   31.9610 H   0  0  0  0  0  0  0  0  0  0  0  0
   37.2200   22.5010   30.1890 H   0  0  0  0  0  0  0  0  0  0  0  0
   35.9860   19.8030   33.1240 H   0  0  0  0  0  0  0  0  0  0  0  0
   38.0580   23.7350   38.3450 C   0  0  0  0  0  0  0  0  0  0  0  0
   38.0520   24.9090   39.0860 F   0  0  0  0  0  0  0  0  0  0  0  0
   39.3880   23.2980   38.3190 F   0  0  0  0  0  0  0  0  0  0  0  0
   37.2900   22.7610   38.9040 F   0  0  0  0  0  0  0  0  0  0  0  0
  1  2  1  0  0  0  0
  2  8  1  0  0  0  0
  2  7  1  0  0  0  0
  2  3  1  0  0  0  0
  3  9  1  6  0  0  0
  3 24  1  0  0  0  0
  4  3  1  0  0  0  0
  4 10  1  0  0  0  0
  5  4  1  0  0  0  0
  6  1  1  0  0  0  0
  6 13  1  0  0  0  0
  6  5  1  0  0  0  0
 11  5  1  0  0  0  0
 12  5  1  0  0  0  0
 14  6  1  0  0  0  0
 15 20  1  0  0  0  0
 15  1  1  0  0  0  0
 16 15  2  0  0  0  0
 17 18  2  0  0  0  0
 17 16  1  0  0  0  0
 18 19  1  0  0  0  0
 19 23  1  0  0  0  0
 19 20  2  0  0  0  0
 21 16  1  0  0  0  0
 22 17  1  0  0  0  0
 24 27  1  0  0  0  0
 24 25  1  0  0  0  0
 26 24  1  0  0  0  0
M  END
>  <minimizedAffinity>
-4.66544771

$$$$

 OpenBabel03272508393D

 27 28  0  0  1  0  0  0  0  0999 V2000
   38.5520   24.7220   35.9940 N   0  0  0  0  0  0  0  0  0  0  0  0
   39.7840   23.9790   35.9430 C   0  0  0  0  0  0  0  0  0  0  0  0
   39.7280   22.6410   36.6300 C   0  0  2  0  0  0  0  0  0  0  0  0
   38.9770   22.6270   37.8360 N   0  0  0  0  0  0  0  0  0  0  0  0
   37.6750   23.2740   37.6530 C   0  0  0  0  0  0  0  0  0  0  0  0
   38.0580   24.7180   37.3240 C   0  0  0  0  0  0  0  0  0  0  0  0
   40.5350   24.6150   36.4850 H   0  0  0  0  0  0  0  0  0  0  0  0
   40.1940   23.8360   34.9330 H   0  0  0  0  0  0  0  0  0  0  0  0
   39.2600   21.9280   35.9160 H   0  0  0  0  0  0  0  0  0  0  0  0
   38.9030   21.6510   38.1630 H   0  0  0  0  0  0  0  0  0  0  0  0
   37.0460   23.1950   38.5380 H   0  0  0  0  0  0  0  0  0  0  0  0
   37.1650   22.7930   36.7780 H   0  0  0  0  0  0  0  0  0  0  0  0
   38.7990   25.0430   38.0810 H   0  0  0  0  0  0  0  0  0  0  0  0
   37.1680   25.3970   37.4780 H   0  0  0  0  0  0  0  0  0  0  0  0
   37.9540   25.3480   34.8760 C   0  0  0  0  0  0  0  0  0  0  0  0
   37.5060   26.6800   34.8900 C   0  0  0  0  0  0  0  0  0  0  0  0
   36.9290   27.2080   33.7410 C   0  0  0  0  0  0  0  0  0  0  0  0
   36.8190   26.4140   32.6400 N   0  0  0  0  0  0  0  0  0  0  0  0
   37.2640   25.1280   32.6620 C   0  0  0  0  0  0  0  0  0  0  0  0
   37.8250   24.5900   33.7570 N   0  0  0  0  0  0  0  0  0  0  0  0
   37.6190   27.2500   35.7780 H   0  0  0  0  0  0  0  0  0  0  0  0
   36.5770   28.2150   33.7110 H   0  0  0  0  0  0  0  0  0  0  0  0
   37.1320   24.5790   31.7400 H   0  0  0  0  0  0  0  0  0  0  0  0
   41.1200   22.1350   36.8770 C   0  0  0  0  0  0  0  0  0  0  0  0
   41.9640   23.2380   36.8830 F   0  0  0  0  0  0  0  0  0  0  0  0
   41.4860   21.3720   35.7620 F   0  0  0  0  0  0  0  0  0  0  0  0
   41.2560   21.3690   37.9930 F   0  0  0  0  0  0  0  0  0  0  0  0
  1  6  1  0  0  0  0
  2  1  1  0  0  0  0
  2  7  1  0  0  0  0
  2  3  1  0  0  0  0
  3  9  1  6  0  0  0
  3 24  1  0  0  0  0
  3  4  1  0  0  0  0
  4 10  1  0  0  0  0
  5  4  1  0  0  0  0
  5 11  1  0  0  0  0
  6 14  1  0  0  0  0
  6  5  1  0  0  0  0
  6 13  1  0  0  0  0
  8  2  1  0  0  0  0
 12  5  1  0  0  0  0
 15 16  1  0  0  0  0
 15  1  1  0  0  0  0
 16 21  1  0  0  0  0
 17 16  2  0  0  0  0
 18 19  2  0  0  0  0
 18 17  1  0  0  0  0
 19 20  1  0  0  0  0
 20 15  2  0  0  0  0
 22 17  1  0  0  0  0
 23 19  1  0  0  0  0
 24 25  1  0  0  0  0
 24 27  1  0  0  0  0
 26 24  1  0  0  0  0
M  END
>  <minimizedAffinity>
-4.61292887

$$$$

 OpenBabel03272508393D

 27 28  0  0  1  0  0  0  0  0999 V2000
   40.5190   23.4780   35.6300 N   0  0  0  0  0  0  0  0  0  0  0  0
   39.3340   23.9680   36.2820 C   0  0  0  0  0  0  0  0  0  0  0  0
   39.2200   23.5800   37.7320 C   0  0  2  0  0  0  0  0  0  0  0  0
   39.6620   22.2630   38.0280 N   0  0  0  0  0  0  0  0  0  0  0  0
   40.9720   21.9990   37.4260 C   0  0  0  0  0  0  0  0  0  0  0  0
   40.6820   22.1000   35.9280 C   0  0  0  0  0  0  0  0  0  0  0  0
   38.4770   23.4950   35.7290 H   0  0  0  0  0  0  0  0  0  0  0  0
   39.1760   25.0520   36.1970 H   0  0  0  0  0  0  0  0  0  0  0  0
   39.8430   24.2980   38.3100 H   0  0  0  0  0  0  0  0  0  0  0  0
   39.6530   22.1380   39.0520 H   0  0  0  0  0  0  0  0  0  0  0  0
   41.3700   21.0280   37.7150 H   0  0  0  0  0  0  0  0  0  0  0  0
   41.6740   22.8120   37.7460 H   0  0  0  0  0  0  0  0  0  0  0  0
   39.7820   21.4860   35.7230 H   0  0  0  0  0  0  0  0  0  0  0  0
   41.5110   21.6050   35.3410 H   0  0  0  0  0  0  0  0  0  0  0  0
   41.3700   24.2700   34.8230 C   0  0  0  0  0  0  0  0  0  0  0  0
   42.6150   24.7510   35.2620 C   0  0  0  0  0  0  0  0  0  0  0  0
   43.3800   25.5240   34.3950 C   0  0  0  0  0  0  0  0  0  0  0  0
   42.8950   25.7870   33.1500 N   0  0  0  0  0  0  0  0  0  0  0  0
   41.6840   25.3040   32.7600 C   0  0  0  0  0  0  0  0  0  0  0  0
   40.9220   24.5550   33.5740 N   0  0  0  0  0  0  0  0  0  0  0  0
   42.9410   24.5140   36.2430 H   0  0  0  0  0  0  0  0  0  0  0  0
   44.3320   25.9080   34.6910 H   0  0  0  0  0  0  0  0  0  0  0  0
   41.3860   25.5660   31.7540 H   0  0  0  0  0  0  0  0  0  0  0  0
   37.8080   23.7750   38.2030 C   0  0  0  0  0  0  0  0  0  0  0  0
   37.0490   24.1270   37.0950 F   0  0  0  0  0  0  0  0  0  0  0  0
   37.8040   24.8920   39.0470 F   0  0  0  0  0  0  0  0  0  0  0  0
   37.2840   22.7170   38.8790 F   0  0  0  0  0  0  0  0  0  0  0  0
  1  6  1  0  0  0  0
  1  2  1  0  0  0  0
  2  3  1  0  0  0  0
  3  4  1  0  0  0  0
  3 24  1  0  0  0  0
  3  9  1  1  0  0  0
  4 10  1  0  0  0  0
  5 11  1  0  0  0  0
  5 12  1  0  0  0  0
  5  4  1  0  0  0  0
  6  5  1  0  0  0  0
  7  2  1  0  0  0  0
  8  2  1  0  0  0  0
 13  6  1  0  0  0  0
 14  6  1  0  0  0  0
 15 16  1  0  0  0  0
 15  1  1  0  0  0  0
 16 21  1  0  0  0  0
 17 22  1  0  0  0  0
 17 16  2  0  0  0  0
 18 17  1  0  0  0  0
 19 18  2  0  0  0  0
 19 20  1  0  0  0  0
 20 15  2  0  0  0  0
 23 19  1  0  0  0  0
 24 27  1  0  0  0  0
 24 26  1  0  0  0  0
 25 24  1  0  0  0  0
M  END
>  <minimizedAffinity>
-4.44937181

$$$$

 OpenBabel03272508393D

 27 28  0  0  1  0  0  0  0  0999 V2000
   36.7070   23.1250   32.2160 N   0  0  0  0  0  0  0  0  0  0  0  0
   35.7720   22.1290   31.7640 C   0  0  0  0  0  0  0  0  0  0  0  0
   35.4550   21.0690   32.7850 C   0  0  2  0  0  0  0  0  0  0  0  0
   36.5650   20.6530   33.5690 N   0  0  0  0  0  0  0  0  0  0  0  0
   37.3020   21.8060   34.0930 C   0  0  0  0  0  0  0  0  0  0  0  0
   37.8180   22.4840   32.8230 C   0  0  0  0  0  0  0  0  0  0  0  0
   36.2730   21.6290   30.8910 H   0  0  0  0  0  0  0  0  0  0  0  0
   34.8270   22.5280   31.3710 H   0  0  0  0  0  0  0  0  0  0  0  0
   34.6850   21.4940   33.4650 H   0  0  0  0  0  0  0  0  0  0  0  0
   36.2230   20.0190   34.3070 H   0  0  0  0  0  0  0  0  0  0  0  0
   38.1020   21.5120   34.7700 H   0  0  0  0  0  0  0  0  0  0  0  0
   36.5750   22.4720   34.6270 H   0  0  0  0  0  0  0  0  0  0  0  0
   38.2830   21.6980   32.1940 H   0  0  0  0  0  0  0  0  0  0  0  0
   38.6630   23.1890   33.0780 H   0  0  0  0  0  0  0  0  0  0  0  0
   36.5200   24.5190   32.0630 C   0  0  0  0  0  0  0  0  0  0  0  0
   35.6860   25.0800   31.0810 C   0  0  0  0  0  0  0  0  0  0  0  0
   35.5670   26.4630   31.0090 C   0  0  0  0  0  0  0  0  0  0  0  0
   36.2640   27.2270   31.8950 N   0  0  0  0  0  0  0  0  0  0  0  0
   37.0610   26.6490   32.8340 C   0  0  0  0  0  0  0  0  0  0  0  0
   37.1970   25.3160   32.9290 N   0  0  0  0  0  0  0  0  0  0  0  0
   35.1680   24.4340   30.4180 H   0  0  0  0  0  0  0  0  0  0  0  0
   34.9440   26.9270   30.2770 H   0  0  0  0  0  0  0  0  0  0  0  0
   37.5730   27.3390   33.4920 H   0  0  0  0  0  0  0  0  0  0  0  0
   34.8180   19.8880   32.1130 C   0  0  0  0  0  0  0  0  0  0  0  0
   35.0510   18.7800   32.9180 F   0  0  0  0  0  0  0  0  0  0  0  0
   35.5210   19.6590   30.9240 F   0  0  0  0  0  0  0  0  0  0  0  0
   33.5000   20.0470   31.8160 F   0  0  0  0  0  0  0  0  0  0  0  0
  1  6  1  0  0  0  0
  2  1  1  0  0  0  0
  2  3  1  0  0  0  0
  3  9  1  1  0  0  0
  3  4  1  0  0  0  0
  4  5  1  0  0  0  0
  4 10  1  0  0  0  0
  5 12  1  0  0  0  0
  5 11  1  0  0  0  0
  6 14  1  0  0  0  0
  6  5  1  0  0  0  0
  7  2  1  0  0  0  0
  8  2  1  0  0  0  0
 13  6  1  0  0  0  0
 15  1  1  0  0  0  0
 15 20  1  0  0  0  0
 16 15  2  0  0  0  0
 17 16  1  0  0  0  0
 17 18  2  0  0  0  0
 18 19  1  0  0  0  0
 19 20  2  0  0  0  0
 19 23  1  0  0  0  0
 21 16  1  0  0  0  0
 22 17  1  0  0  0  0
 24  3  1  0  0  0  0
 24 25  1  0  0  0  0
 26 24  1  0  0  0  0
 27 24  1  0  0  0  0
M  END
>  <minimizedAffinity>
-4.36253023

$$$$

 OpenBabel03272508393D

 27 28  0  0  1  0  0  0  0  0999 V2000
   38.6600   24.6890   34.7850 N   0  0  0  0  0  0  0  0  0  0  0  0
   38.2070   26.0260   34.5100 C   0  0  0  0  0  0  0  0  0  0  0  0
   37.1190   26.1100   33.4720 C   0  0  2  0  0  0  0  0  0  0  0  0
   37.2700   25.2070   32.3850 N   0  0  0  0  0  0  0  0  0  0  0  0
   37.5570   23.8510   32.8620 C   0  0  0  0  0  0  0  0  0  0  0  0
   38.9070   24.0160   33.5600 C   0  0  0  0  0  0  0  0  0  0  0  0
   39.1070   26.5670   34.1120 H   0  0  0  0  0  0  0  0  0  0  0  0
   37.8890   26.5960   35.3940 H   0  0  0  0  0  0  0  0  0  0  0  0
   36.1600   25.8820   33.9870 H   0  0  0  0  0  0  0  0  0  0  0  0
   36.4240   25.2600   31.7970 H   0  0  0  0  0  0  0  0  0  0  0  0
   37.5860   23.1260   32.0510 H   0  0  0  0  0  0  0  0  0  0  0  0
   36.7640   23.5660   33.6020 H   0  0  0  0  0  0  0  0  0  0  0  0
   39.5710   24.5730   32.8680 H   0  0  0  0  0  0  0  0  0  0  0  0
   39.4010   23.0080   33.6890 H   0  0  0  0  0  0  0  0  0  0  0  0
   38.8260   24.1560   36.0850 C   0  0  0  0  0  0  0  0  0  0  0  0
   39.8480   23.2520   36.4200 C   0  0  0  0  0  0  0  0  0  0  0  0
   39.9290   22.7820   37.7260 C   0  0  0  0  0  0  0  0  0  0  0  0
   39.0130   23.2160   38.6360 N   0  0  0  0  0  0  0  0  0  0  0  0
   38.0360   24.0920   38.2760 C   0  0  0  0  0  0  0  0  0  0  0  0
   37.9320   24.5630   37.0220 N   0  0  0  0  0  0  0  0  0  0  0  0
   40.5330   22.9500   35.6690 H   0  0  0  0  0  0  0  0  0  0  0  0
   40.6920   22.0950   38.0210 H   0  0  0  0  0  0  0  0  0  0  0  0
   37.3570   24.3770   39.0680 H   0  0  0  0  0  0  0  0  0  0  0  0
   37.0020   27.5190   32.9680 C   0  0  0  0  0  0  0  0  0  0  0  0
   36.0850   27.5090   31.9260 F   0  0  0  0  0  0  0  0  0  0  0  0
   38.2350   27.8580   32.3980 F   0  0  0  0  0  0  0  0  0  0  0  0
   36.6960   28.4390   33.9230 F   0  0  0  0  0  0  0  0  0  0  0  0
  1 15  1  0  0  0  0
  2  1  1  0  0  0  0
  2  8  1  0  0  0  0
  3  9  1  1  0  0  0
  3  2  1  0  0  0  0
  4  5  1  0  0  0  0
  4  3  1  0  0  0  0
  5  6  1  0  0  0  0
  5 12  1  0  0  0  0
  6 14  1  0  0  0  0
  6  1  1  0  0  0  0
  7  2  1  0  0  0  0
 10  4  1  0  0  0  0
 11  5  1  0  0  0  0
 13  6  1  0  0  0  0
 15 16  2  0  0  0  0
 15 20  1  0  0  0  0
 16 17  1  0  0  0  0
 17 22  1  0  0  0  0
 17 18  2  0  0  0  0
 19 18  1  0  0  0  0
 19 23  1  0  0  0  0
 20 19  2  0  0  0  0
 21 16  1  0  0  0  0
 24  3  1  0  0  0  0
 24 27  1  0  0  0  0
 25 24  1  0  0  0  0
 26 24  1  0  0  0  0
M  END
>  <minimizedAffinity>
-4.30327368

$$$$

 OpenBabel03272508393D

 27 28  0  0  1  0  0  0  0  0999 V2000
   38.2890   23.2320   34.4430 N   0  0  0  0  0  0  0  0  0  0  0  0
   37.8530   23.5670   35.7720 C   0  0  0  0  0  0  0  0  0  0  0  0
   38.9720   23.8350   36.7420 C   0  0  2  0  0  0  0  0  0  0  0  0
   40.1000   22.9830   36.5930 N   0  0  0  0  0  0  0  0  0  0  0  0
   40.5130   22.8980   35.1900 C   0  0  0  0  0  0  0  0  0  0  0  0
   39.3050   22.2440   34.5190 C   0  0  0  0  0  0  0  0  0  0  0  0
   37.2890   22.6650   36.1350 H   0  0  0  0  0  0  0  0  0  0  0  0
   37.1380   24.4010   35.8260 H   0  0  0  0  0  0  0  0  0  0  0  0
   39.3010   24.8840   36.5770 H   0  0  0  0  0  0  0  0  0  0  0  0
   40.8480   23.3200   37.2180 H   0  0  0  0  0  0  0  0  0  0  0  0
   41.4290   22.3230   35.0640 H   0  0  0  0  0  0  0  0  0  0  0  0
   40.6600   23.9400   34.8050 H   0  0  0  0  0  0  0  0  0  0  0  0
   39.0280   21.3590   35.1280 H   0  0  0  0  0  0  0  0  0  0  0  0
   39.6030   21.8230   33.5140 H   0  0  0  0  0  0  0  0  0  0  0  0
   37.7670   23.8120   33.2630 C   0  0  0  0  0  0  0  0  0  0  0  0
   37.5490   23.0840   32.0810 C   0  0  0  0  0  0  0  0  0  0  0  0
   37.0320   23.7430   30.9710 C   0  0  0  0  0  0  0  0  0  0  0  0
   36.7540   25.0730   31.0700 N   0  0  0  0  0  0  0  0  0  0  0  0
   36.9780   25.7450   32.2320 C   0  0  0  0  0  0  0  0  0  0  0  0
   37.4760   25.1360   33.3200 N   0  0  0  0  0  0  0  0  0  0  0  0
   37.7840   22.0500   32.0640 H   0  0  0  0  0  0  0  0  0  0  0  0
   36.8520   23.2260   30.0550 H   0  0  0  0  0  0  0  0  0  0  0  0
   36.7260   26.7970   32.2110 H   0  0  0  0  0  0  0  0  0  0  0  0
   38.4540   23.7740   38.1500 C   0  0  0  0  0  0  0  0  0  0  0  0
   37.3470   22.9350   38.1450 F   0  0  0  0  0  0  0  0  0  0  0  0
   37.9730   25.0490   38.4690 F   0  0  0  0  0  0  0  0  0  0  0  0
   39.3790   23.4120   39.0790 F   0  0  0  0  0  0  0  0  0  0  0  0
  1  6  1  0  0  0  0
  1  2  1  0  0  0  0
  2  8  1  0  0  0  0
  2  7  1  0  0  0  0
  2  3  1  0  0  0  0
  3  9  1  6  0  0  0
  3 24  1  0  0  0  0
  4  3  1  0  0  0  0
  4 10  1  0  0  0  0
  5  4  1  0  0  0  0
  6 13  1  0  0  0  0
  6  5  1  0  0  0  0
 11  5  1  0  0  0  0
 12  5  1  0  0  0  0
 14  6  1  0  0  0  0
 15 20  1  0  0  0  0
 15  1  1  0  0  0  0
 16 15  2  0  0  0  0
 17 18  2  0  0  0  0
 17 16  1  0  0  0  0
 18 19  1  0  0  0  0
 19 20  2  0  0  0  0
 21 16  1  0  0  0  0
 22 17  1  0  0  0  0
 23 19  1  0  0  0  0
 24 26  1  0  0  0  0
 24 27  1  0  0  0  0
 25 24  1  0  0  0  0
M  END
>  <minimizedAffinity>
-4.28194618

$$$$
