
 OpenBabel03272507573D

 27 28  0  0  0  0  0  0  0  0999 V2000
   35.1750   28.6360   50.1760 C   0  0  0  0  0  0  0  0  0  0  0  0
   36.2290   29.5470   49.9210 C   0  0  0  0  0  0  0  0  0  0  0  0
   36.0870   30.4120   48.8350 C   0  0  0  0  0  0  0  0  0  0  0  0
   34.9550   30.3380   48.0840 N   0  0  0  0  0  0  0  0  0  0  0  0
   33.9700   29.4370   48.3780 C   0  0  0  0  0  0  0  0  0  0  0  0
   34.0740   28.5940   49.4110 N   0  0  0  0  0  0  0  0  0  0  0  0
   32.8890   29.5500   47.4520 N   0  0  0  0  0  0  0  0  0  0  0  0
   35.2470   27.9480   51.0080 H   0  0  0  0  0  0  0  0  0  0  0  0
   32.3830   30.4680   47.4290 H   0  0  0  0  0  0  0  0  0  0  0  0
   32.7130   28.7010   46.8940 H   0  0  0  0  0  0  0  0  0  0  0  0
   37.1500   31.3730   48.5310 C   0  0  0  0  0  0  0  0  0  0  0  0
   37.2320   32.3800   49.4910 C   0  0  0  0  0  0  0  0  0  0  0  0
   38.1950   33.3710   49.3430 C   0  0  0  0  0  0  0  0  0  0  0  0
   39.0480   33.3440   48.2570 C   0  0  0  0  0  0  0  0  0  0  0  0
   38.9320   32.3330   47.3330 C   0  0  0  0  0  0  0  0  0  0  0  0
   38.0000   31.3860   47.4900 N   0  0  0  0  0  0  0  0  0  0  0  0
   36.6340   32.5200   50.3790 H   0  0  0  0  0  0  0  0  0  0  0  0
   38.3300   34.1830   50.0310 H   0  0  0  0  0  0  0  0  0  0  0  0
   39.8180   34.0600   48.0570 H   0  0  0  0  0  0  0  0  0  0  0  0
   39.8150   32.2310   46.1300 C   0  0  0  0  0  0  0  0  0  0  0  0
   39.0990   32.1800   44.9520 F   0  0  0  0  0  0  0  0  0  0  0  0
   40.7200   33.2750   46.0860 F   0  0  0  0  0  0  0  0  0  0  0  0
   40.5680   31.0560   46.1800 F   0  0  0  0  0  0  0  0  0  0  0  0
   37.4320   29.5490   50.8060 C   0  0  0  0  0  0  0  0  0  0  0  0
   38.5810   29.8470   50.1020 F   0  0  0  0  0  0  0  0  0  0  0  0
   37.2480   30.5050   51.7660 F   0  0  0  0  0  0  0  0  0  0  0  0
   37.6180   28.3340   51.4360 F   0  0  0  0  0  0  0  0  0  0  0  0
  1  8  1  0  0  0  0
  2  1  1  0  0  0  0
  2 24  1  0  0  0  0
  3  2  2  0  0  0  0
  4  5  2  0  0  0  0
  4  3  1  0  0  0  0
  5  6  1  0  0  0  0
  6  1  2  0  0  0  0
  7  5  1  0  0  0  0
  9  7  1  0  0  0  0
 10  7  1  0  0  0  0
 11  3  1  0  0  0  0
 11 12  1  0  0  0  0
 12 17  1  0  0  0  0
 13 12  2  0  0  0  0
 13 18  1  0  0  0  0
 14 13  1  0  0  0  0
 15 16  1  0  0  0  0
 15 14  2  0  0  0  0
 16 11  2  0  0  0  0
 19 14  1  0  0  0  0
 20 23  1  0  0  0  0
 20 15  1  0  0  0  0
 21 20  1  0  0  0  0
 22 20  1  0  0  0  0
 24 27  1  0  0  0  0
 24 26  1  0  0  0  0
 25 24  1  0  0  0  0
M  END
>  <minimizedAffinity>
-7.07733297

>  <minimizedRMSD>
0.303608268

$$$$
