
 OpenBabel03272506473D

 37 39  0  0  1  0  0  0  0  0999 V2000
   32.2110   28.3880   47.5690 C   0  0  2  0  0  0  0  0  0  0  0  0
   33.4720   28.3360   48.3790 C   0  0  1  0  0  0  0  0  0  0  0  0
   33.9550   27.0630   48.3260 O   0  0  0  0  0  0  0  0  0  0  0  0
   33.2850   26.3590   47.3320 C   0  0  0  0  0  0  0  0  0  0  0  0
   32.5990   27.3720   46.4490 C   0  0  1  0  0  0  0  0  0  0  0  0
   31.3100   28.0380   48.0640 H   0  0  0  0  0  0  0  0  0  0  0  0
   33.2930   28.7230   49.3990 H   0  0  0  0  0  0  0  0  0  0  0  0
   32.6480   25.6460   47.8310 H   0  0  0  0  0  0  0  0  0  0  0  0
   34.0310   25.7540   46.7530 H   0  0  0  0  0  0  0  0  0  0  0  0
   33.2430   27.9020   45.7590 H   0  0  0  0  0  0  0  0  0  0  0  0
   32.0460   29.6620   46.9860 O   0  0  0  0  0  0  0  0  0  0  0  0
   31.1580   30.0260   47.1320 H   0  0  0  0  0  0  0  0  0  0  0  0
   34.6980   29.4420   47.5700 S   0  0  0  0  0  0  0  0  0  0  0  0
   37.2950   29.3300   50.5530 C   0  0  0  0  0  0  0  0  0  0  0  0
   37.7850   30.6360   50.6670 C   0  0  0  0  0  0  0  0  0  0  0  0
   37.2790   31.5920   49.7700 C   0  0  0  0  0  0  0  0  0  0  0  0
   36.3570   31.2060   48.8540 N   0  0  0  0  0  0  0  0  0  0  0  0
   35.9160   29.9290   48.7870 C   0  0  0  0  0  0  0  0  0  0  0  0
   36.3770   28.9730   49.6340 N   0  0  0  0  0  0  0  0  0  0  0  0
   37.6690   28.5800   51.2320 H   0  0  0  0  0  0  0  0  0  0  0  0
   38.5230   30.9160   51.4090 H   0  0  0  0  0  0  0  0  0  0  0  0
   37.6030   32.6130   49.7900 H   0  0  0  0  0  0  0  0  0  0  0  0
   31.4810   26.7970   45.8960 O   0  0  0  0  0  0  0  0  0  0  0  0
   29.8120   28.0700   43.8300 Cl  0  0  0  0  0  0  0  0  0  0  0  0
   29.3520   27.5480   45.4330 C   0  0  0  0  0  0  0  0  0  0  0  0
   30.2290   26.9500   46.3110 C   0  0  0  0  0  0  0  0  0  0  0  0
   29.7390   26.5530   47.5580 C   0  0  0  0  0  0  0  0  0  0  0  0
   28.4150   26.7570   47.8900 C   0  0  0  0  0  0  0  0  0  0  0  0
   27.5280   27.3570   47.0130 C   0  0  0  0  0  0  0  0  0  0  0  0
   28.0220   27.7510   45.7710 C   0  0  0  0  0  0  0  0  0  0  0  0
   30.3440   26.0750   48.3080 H   0  0  0  0  0  0  0  0  0  0  0  0
   27.9740   26.4750   48.8330 H   0  0  0  0  0  0  0  0  0  0  0  0
   26.4900   27.5220   47.2600 H   0  0  0  0  0  0  0  0  0  0  0  0
   27.0770   28.3960   44.8230 C   0  0  0  0  0  0  0  0  0  0  0  0
   27.3940   29.7230   44.5980 F   0  0  0  0  0  0  0  0  0  0  0  0
   25.8100   28.3450   45.4180 F   0  0  0  0  0  0  0  0  0  0  0  0
   26.9620   27.6930   43.6550 F   0  0  0  0  0  0  0  0  0  0  0  0
  1  6  1  1  0  0  0
  1  2  1  0  0  0  0
  2  7  1  1  0  0  0
  3  2  1  0  0  0  0
  4  8  1  0  0  0  0
  4  3  1  0  0  0  0
  5 10  1  6  0  0  0
  5  4  1  0  0  0  0
  5  1  1  0  0  0  0
  9  4  1  0  0  0  0
 11 12  1  0  0  0  0
 11  1  1  0  0  0  0
 13  2  1  0  0  0  0
 13 18  1  0  0  0  0
 14 15  1  0  0  0  0
 14 20  1  0  0  0  0
 15 21  1  0  0  0  0
 16 22  1  0  0  0  0
 16 15  2  0  0  0  0
 17 16  1  0  0  0  0
 18 17  2  0  0  0  0
 18 19  1  0  0  0  0
 19 14  2  0  0  0  0
 23 26  1  0  0  0  0
 23  5  1  0  0  0  0
 24 25  1  0  0  0  0
 25 30  2  0  0  0  0
 25 26  1  0  0  0  0
 26 27  2  0  0  0  0
 27 28  1  0  0  0  0
 27 31  1  0  0  0  0
 28 32  1  0  0  0  0
 29 33  1  0  0  0  0
 29 28  2  0  0  0  0
 30 29  1  0  0  0  0
 34 36  1  0  0  0  0
 34 30  1  0  0  0  0
 35 34  1  0  0  0  0
 37 34  1  0  0  0  0
M  END
>  <minimizedAffinity>
-4.87143326

>  <minimizedRMSD>
0.74509263

$$$$
