
 OpenBabel03262521583D

 28 29  0  0  1  0  0  0  0  0999 V2000
   37.9670   25.6350   33.8340 N   0  0  0  0  0  0  0  0  0  0  0  0
   39.3780   25.4550   33.6950 C   0  0  0  0  0  0  0  0  0  0  0  0
   40.0510   24.5310   34.6290 C   0  0  0  0  0  0  0  0  0  0  0  0
   39.4370   24.3130   35.9660 C   0  0  0  0  0  0  0  0  0  0  0  0
   37.9650   24.6340   36.0340 C   0  0  0  0  0  0  0  0  0  0  0  0
   37.6910   25.8940   35.2020 C   0  0  1  0  0  0  0  0  0  0  0  0
   39.8630   26.4540   33.6530 H   0  0  0  0  0  0  0  0  0  0  0  0
   39.5250   25.0600   32.6480 H   0  0  0  0  0  0  0  0  0  0  0  0
   40.1620   23.5140   34.1610 H   0  0  0  0  0  0  0  0  0  0  0  0
   41.1000   24.8700   34.7840 H   0  0  0  0  0  0  0  0  0  0  0  0
   39.5080   23.2350   36.3000 H   0  0  0  0  0  0  0  0  0  0  0  0
   39.9740   24.8740   36.7580 H   0  0  0  0  0  0  0  0  0  0  0  0
   37.3240   23.8190   35.6790 H   0  0  0  0  0  0  0  0  0  0  0  0
   37.7290   24.9430   37.0770 H   0  0  0  0  0  0  0  0  0  0  0  0
   36.6040   26.0950   35.3050 H   0  0  0  0  0  0  0  0  0  0  0  0
   37.0290   25.5600   32.7580 C   0  0  0  0  0  0  0  0  0  0  0  0
   36.6520   24.3580   32.1360 C   0  0  0  0  0  0  0  0  0  0  0  0
   35.7320   24.4170   31.1010 C   0  0  0  0  0  0  0  0  0  0  0  0
   35.2470   25.6510   30.7470 N   0  0  0  0  0  0  0  0  0  0  0  0
   35.6280   26.7720   31.3600 C   0  0  0  0  0  0  0  0  0  0  0  0
   36.5120   26.7120   32.3540 N   0  0  0  0  0  0  0  0  0  0  0  0
   37.0880   23.4570   32.4870 H   0  0  0  0  0  0  0  0  0  0  0  0
   35.4460   23.5010   30.6280 H   0  0  0  0  0  0  0  0  0  0  0  0
   35.2050   27.7320   31.0340 H   0  0  0  0  0  0  0  0  0  0  0  0
   38.3870   27.0650   35.8240 C   0  0  0  0  0  0  0  0  0  0  0  0
   38.2830   26.8750   37.2110 F   0  0  0  0  0  0  0  0  0  0  0  0
   37.6770   28.2240   35.5840 F   0  0  0  0  0  0  0  0  0  0  0  0
   39.7150   27.1650   35.5640 F   0  0  0  0  0  0  0  0  0  0  0  0
  1  6  1  0  0  0  0
  2  1  1  0  0  0  0
  2  3  1  0  0  0  0
  3 10  1  0  0  0  0
  3  4  1  0  0  0  0
  4  5  1  0  0  0  0
  4 11  1  0  0  0  0
  4 12  1  0  0  0  0
  5 14  1  0  0  0  0
  6 15  1  1  0  0  0
  6 25  1  0  0  0  0
  6  5  1  0  0  0  0
  7  2  1  0  0  0  0
  8  2  1  0  0  0  0
  9  3  1  0  0  0  0
 13  5  1  0  0  0  0
 16  1  1  0  0  0  0
 17 22  1  0  0  0  0
 17 16  2  0  0  0  0
 18 17  1  0  0  0  0
 19 18  2  0  0  0  0
 19 20  1  0  0  0  0
 20 21  2  0  0  0  0
 21 16  1  0  0  0  0
 23 18  1  0  0  0  0
 24 20  1  0  0  0  0
 25 26  1  0  0  0  0
 27 25  1  0  0  0  0
 28 25  1  0  0  0  0
M  END
>  <minimizedAffinity>
-4.797122

$$$$

 OpenBabel03262521583D

 28 29  0  0  1  0  0  0  0  0999 V2000
   38.4750   24.7190   35.6380 N   0  0  0  0  0  0  0  0  0  0  0  0
   39.8920   24.5550   35.7240 C   0  0  0  0  0  0  0  0  0  0  0  0
   40.4400   23.1920   35.5770 C   0  0  0  0  0  0  0  0  0  0  0  0
   39.5700   22.0420   35.9460 C   0  0  0  0  0  0  0  0  0  0  0  0
   38.0930   22.3500   35.9280 C   0  0  0  0  0  0  0  0  0  0  0  0
   37.8710   23.7590   36.4920 C   0  0  1  0  0  0  0  0  0  0  0  0
   40.2560   25.0700   36.6380 H   0  0  0  0  0  0  0  0  0  0  0  0
   40.3150   25.1900   34.8930 H   0  0  0  0  0  0  0  0  0  0  0  0
   40.7680   23.0140   34.5170 H   0  0  0  0  0  0  0  0  0  0  0  0
   41.3810   23.1120   36.1670 H   0  0  0  0  0  0  0  0  0  0  0  0
   39.6870   21.1720   35.2350 H   0  0  0  0  0  0  0  0  0  0  0  0
   39.8470   21.6200   36.9330 H   0  0  0  0  0  0  0  0  0  0  0  0
   37.6460   22.2840   34.9300 H   0  0  0  0  0  0  0  0  0  0  0  0
   37.5950   21.6820   36.6670 H   0  0  0  0  0  0  0  0  0  0  0  0
   36.7730   23.9220   36.4760 H   0  0  0  0  0  0  0  0  0  0  0  0
   37.8180   25.6910   34.8230 C   0  0  0  0  0  0  0  0  0  0  0  0
   37.4610   26.9730   35.2730 C   0  0  0  0  0  0  0  0  0  0  0  0
   36.8260   27.8260   34.3850 C   0  0  0  0  0  0  0  0  0  0  0  0
   36.5860   27.3630   33.1150 N   0  0  0  0  0  0  0  0  0  0  0  0
   36.9400   26.1390   32.7220 C   0  0  0  0  0  0  0  0  0  0  0  0
   37.5490   25.3220   33.5780 N   0  0  0  0  0  0  0  0  0  0  0  0
   37.6930   27.2310   36.2760 H   0  0  0  0  0  0  0  0  0  0  0  0
   36.5540   28.8010   34.7300 H   0  0  0  0  0  0  0  0  0  0  0  0
   36.7220   25.8230   31.6930 H   0  0  0  0  0  0  0  0  0  0  0  0
   38.2710   23.7890   37.9350 C   0  0  0  0  0  0  0  0  0  0  0  0
   37.3230   23.0010   38.6080 F   0  0  0  0  0  0  0  0  0  0  0  0
   38.0910   25.0560   38.4540 F   0  0  0  0  0  0  0  0  0  0  0  0
   39.4780   23.2400   38.2220 F   0  0  0  0  0  0  0  0  0  0  0  0
  1  2  1  0  0  0  0
  1  6  1  0  0  0  0
  2  7  1  0  0  0  0
  3  2  1  0  0  0  0
  3  4  1  0  0  0  0
  3 10  1  0  0  0  0
  4 12  1  0  0  0  0
  5  4  1  0  0  0  0
  5  6  1  0  0  0  0
  5 14  1  0  0  0  0
  6 15  1  6  0  0  0
  6 25  1  0  0  0  0
  8  2  1  0  0  0  0
  9  3  1  0  0  0  0
 11  4  1  0  0  0  0
 13  5  1  0  0  0  0
 16 17  1  0  0  0  0
 16  1  1  0  0  0  0
 17 22  1  0  0  0  0
 18 23  1  0  0  0  0
 18 17  2  0  0  0  0
 19 18  1  0  0  0  0
 20 19  2  0  0  0  0
 20 21  1  0  0  0  0
 21 16  2  0  0  0  0
 24 20  1  0  0  0  0
 25 28  1  0  0  0  0
 25 27  1  0  0  0  0
 25 26  1  0  0  0  0
M  END
>  <minimizedAffinity>
-4.74656677

$$$$

 OpenBabel03262521583D

 28 29  0  0  1  0  0  0  0  0999 V2000
   38.1290   22.7930   35.9030 N   0  0  0  0  0  0  0  0  0  0  0  0
   39.5330   22.7280   36.1570 C   0  0  0  0  0  0  0  0  0  0  0  0
   39.9800   22.6950   37.5640 C   0  0  0  0  0  0  0  0  0  0  0  0
   39.1010   23.3120   38.5940 C   0  0  0  0  0  0  0  0  0  0  0  0
   37.6530   23.4320   38.1850 C   0  0  0  0  0  0  0  0  0  0  0  0
   37.5860   23.8310   36.7040 C   0  0  1  0  0  0  0  0  0  0  0  0
   40.0410   23.5170   35.5620 H   0  0  0  0  0  0  0  0  0  0  0  0
   39.8810   21.7760   35.6600 H   0  0  0  0  0  0  0  0  0  0  0  0
   40.1580   21.6350   37.8930 H   0  0  0  0  0  0  0  0  0  0  0  0
   40.9830   23.1720   37.6390 H   0  0  0  0  0  0  0  0  0  0  0  0
   39.0760   22.7120   39.5510 H   0  0  0  0  0  0  0  0  0  0  0  0
   39.4780   24.3050   38.9110 H   0  0  0  0  0  0  0  0  0  0  0  0
   37.0790   22.5130   38.3390 H   0  0  0  0  0  0  0  0  0  0  0  0
   37.2180   24.3060   38.7200 H   0  0  0  0  0  0  0  0  0  0  0  0
   36.5060   23.9260   36.4660 H   0  0  0  0  0  0  0  0  0  0  0  0
   37.4280   21.9430   34.9920 C   0  0  0  0  0  0  0  0  0  0  0  0
   36.2790   21.2120   35.3340 C   0  0  0  0  0  0  0  0  0  0  0  0
   35.6910   20.4210   34.3610 C   0  0  0  0  0  0  0  0  0  0  0  0
   36.2710   20.4020   33.1170 N   0  0  0  0  0  0  0  0  0  0  0  0
   37.3630   21.1090   32.8270 C   0  0  0  0  0  0  0  0  0  0  0  0
   37.9260   21.8670   33.7660 N   0  0  0  0  0  0  0  0  0  0  0  0
   35.9110   21.2980   36.3260 H   0  0  0  0  0  0  0  0  0  0  0  0
   34.8160   19.8650   34.6240 H   0  0  0  0  0  0  0  0  0  0  0  0
   37.7840   21.0540   31.8140 H   0  0  0  0  0  0  0  0  0  0  0  0
   38.1700   25.1990   36.5280 C   0  0  0  0  0  0  0  0  0  0  0  0
   37.2750   25.8880   35.6930 F   0  0  0  0  0  0  0  0  0  0  0  0
   39.3360   25.1290   35.7930 F   0  0  0  0  0  0  0  0  0  0  0  0
   38.2700   25.9450   37.6560 F   0  0  0  0  0  0  0  0  0  0  0  0
  1  2  1  0  0  0  0
  1  6  1  0  0  0  0
  2  3  1  0  0  0  0
  3 10  1  0  0  0  0
  3  9  1  0  0  0  0
  3  4  1  0  0  0  0
  4 12  1  0  0  0  0
  4 11  1  0  0  0  0
  5 13  1  0  0  0  0
  5  4  1  0  0  0  0
  5 14  1  0  0  0  0
  6 15  1  6  0  0  0
  6  5  1  0  0  0  0
  7  2  1  0  0  0  0
  8  2  1  0  0  0  0
 16 17  1  0  0  0  0
 16  1  1  0  0  0  0
 17 22  1  0  0  0  0
 18 23  1  0  0  0  0
 18 17  2  0  0  0  0
 19 18  1  0  0  0  0
 20 19  2  0  0  0  0
 20 21  1  0  0  0  0
 21 16  2  0  0  0  0
 24 20  1  0  0  0  0
 25  6  1  0  0  0  0
 25 28  1  0  0  0  0
 26 25  1  0  0  0  0
 27 25  1  0  0  0  0
M  END
>  <minimizedAffinity>
-4.71807337

$$$$

 OpenBabel03262521583D

 28 29  0  0  1  0  0  0  0  0999 V2000
   38.6050   25.2440   35.0350 N   0  0  0  0  0  0  0  0  0  0  0  0
   38.0270   24.8080   33.8030 C   0  0  0  0  0  0  0  0  0  0  0  0
   38.6230   25.3060   32.5470 C   0  0  0  0  0  0  0  0  0  0  0  0
   39.3280   26.6150   32.5740 C   0  0  0  0  0  0  0  0  0  0  0  0
   39.8070   27.0340   33.9430 C   0  0  0  0  0  0  0  0  0  0  0  0
   38.7410   26.6550   34.9800 C   0  0  1  0  0  0  0  0  0  0  0  0
   36.9280   24.9630   33.8500 H   0  0  0  0  0  0  0  0  0  0  0  0
   38.1230   23.6840   33.8110 H   0  0  0  0  0  0  0  0  0  0  0  0
   39.3560   24.5580   32.1390 H   0  0  0  0  0  0  0  0  0  0  0  0
   37.8310   25.3590   31.7650 H   0  0  0  0  0  0  0  0  0  0  0  0
   40.2610   26.6120   31.9370 H   0  0  0  0  0  0  0  0  0  0  0  0
   38.7080   27.4240   32.1370 H   0  0  0  0  0  0  0  0  0  0  0  0
   40.7640   26.5860   34.2270 H   0  0  0  0  0  0  0  0  0  0  0  0
   39.8270   28.1470   33.9720 H   0  0  0  0  0  0  0  0  0  0  0  0
   39.1330   27.0050   35.9580 H   0  0  0  0  0  0  0  0  0  0  0  0
   38.9700   24.3770   36.1110 C   0  0  0  0  0  0  0  0  0  0  0  0
   38.2290   24.2540   37.2980 C   0  0  0  0  0  0  0  0  0  0  0  0
   38.6870   23.3780   38.2690 C   0  0  0  0  0  0  0  0  0  0  0  0
   39.8420   22.6840   38.0090 N   0  0  0  0  0  0  0  0  0  0  0  0
   40.5210   22.8260   36.8700 C   0  0  0  0  0  0  0  0  0  0  0  0
   40.0770   23.6690   35.9400 N   0  0  0  0  0  0  0  0  0  0  0  0
   37.3480   24.8380   37.3980 H   0  0  0  0  0  0  0  0  0  0  0  0
   38.1220   23.2860   39.1720 H   0  0  0  0  0  0  0  0  0  0  0  0
   41.4400   22.2440   36.7170 H   0  0  0  0  0  0  0  0  0  0  0  0
   37.4940   27.4470   34.7290 C   0  0  0  0  0  0  0  0  0  0  0  0
   37.5350   28.5170   35.6380 F   0  0  0  0  0  0  0  0  0  0  0  0
   36.3840   26.7200   35.1080 F   0  0  0  0  0  0  0  0  0  0  0  0
   37.3940   28.0110   33.5000 F   0  0  0  0  0  0  0  0  0  0  0  0
  1 16  1  0  0  0  0
  2  8  1  0  0  0  0
  2  7  1  0  0  0  0
  2  1  1  0  0  0  0
  3  4  1  0  0  0  0
  3  2  1  0  0  0  0
  4  5  1  0  0  0  0
  5 14  1  0  0  0  0
  5 13  1  0  0  0  0
  5  6  1  0  0  0  0
  6  1  1  0  0  0  0
  6 15  1  1  0  0  0
  9  3  1  0  0  0  0
 10  3  1  0  0  0  0
 11  4  1  0  0  0  0
 12  4  1  0  0  0  0
 16 17  1  0  0  0  0
 17 22  1  0  0  0  0
 17 18  2  0  0  0  0
 18 23  1  0  0  0  0
 19 18  1  0  0  0  0
 20 19  2  0  0  0  0
 21 16  2  0  0  0  0
 21 20  1  0  0  0  0
 24 20  1  0  0  0  0
 25  6  1  0  0  0  0
 25 27  1  0  0  0  0
 25 26  1  0  0  0  0
 28 25  1  0  0  0  0
M  END
>  <minimizedAffinity>
-4.4543252

$$$$

 OpenBabel03262521583D

 28 29  0  0  1  0  0  0  0  0999 V2000
   38.1010   26.5370   34.6290 N   0  0  0  0  0  0  0  0  0  0  0  0
   39.3290   27.1080   35.0870 C   0  0  0  0  0  0  0  0  0  0  0  0
   40.5780   26.3710   34.8130 C   0  0  0  0  0  0  0  0  0  0  0  0
   40.5010   24.8940   34.6510 C   0  0  0  0  0  0  0  0  0  0  0  0
   39.1340   24.3820   34.2680 C   0  0  0  0  0  0  0  0  0  0  0  0
   38.0710   25.1790   35.0370 C   0  0  1  0  0  0  0  0  0  0  0  0
   39.2160   27.3830   36.1580 H   0  0  0  0  0  0  0  0  0  0  0  0
   39.3980   28.1120   34.5770 H   0  0  0  0  0  0  0  0  0  0  0  0
   41.0700   26.7680   33.8840 H   0  0  0  0  0  0  0  0  0  0  0  0
   41.3140   26.5890   35.6210 H   0  0  0  0  0  0  0  0  0  0  0  0
   41.1830   24.5170   33.8330 H   0  0  0  0  0  0  0  0  0  0  0  0
   40.8530   24.3640   35.5580 H   0  0  0  0  0  0  0  0  0  0  0  0
   38.9280   24.4460   33.1940 H   0  0  0  0  0  0  0  0  0  0  0  0
   39.0330   23.3460   34.6650 H   0  0  0  0  0  0  0  0  0  0  0  0
   37.0930   24.7470   34.7360 H   0  0  0  0  0  0  0  0  0  0  0  0
   37.1030   27.2450   33.8900 C   0  0  0  0  0  0  0  0  0  0  0  0
   36.3990   28.3510   34.3930 C   0  0  0  0  0  0  0  0  0  0  0  0
   35.4530   28.9520   33.5780 C   0  0  0  0  0  0  0  0  0  0  0  0
   35.2640   28.4260   32.3240 N   0  0  0  0  0  0  0  0  0  0  0  0
   35.9510   27.3740   31.8790 C   0  0  0  0  0  0  0  0  0  0  0  0
   36.8580   26.7980   32.6660 N   0  0  0  0  0  0  0  0  0  0  0  0
   36.6220   28.6790   35.3780 H   0  0  0  0  0  0  0  0  0  0  0  0
   34.9180   29.7940   33.9620 H   0  0  0  0  0  0  0  0  0  0  0  0
   35.7570   26.9960   30.8660 H   0  0  0  0  0  0  0  0  0  0  0  0
   38.2070   24.9080   36.5040 C   0  0  0  0  0  0  0  0  0  0  0  0
   37.0140   24.2710   36.8840 F   0  0  0  0  0  0  0  0  0  0  0  0
   38.1990   26.0940   37.2100 F   0  0  0  0  0  0  0  0  0  0  0  0
   39.2060   24.0610   36.8550 F   0  0  0  0  0  0  0  0  0  0  0  0
  1  6  1  0  0  0  0
  1  2  1  0  0  0  0
  2  7  1  0  0  0  0
  3  2  1  0  0  0  0
  3 10  1  0  0  0  0
  4  3  1  0  0  0  0
  4 12  1  0  0  0  0
  5  4  1  0  0  0  0
  5 14  1  0  0  0  0
  5  6  1  0  0  0  0
  6 15  1  6  0  0  0
  6 25  1  0  0  0  0
  8  2  1  0  0  0  0
  9  3  1  0  0  0  0
 11  4  1  0  0  0  0
 13  5  1  0  0  0  0
 16 17  1  0  0  0  0
 16  1  1  0  0  0  0
 17 22  1  0  0  0  0
 18 23  1  0  0  0  0
 18 17  2  0  0  0  0
 19 18  1  0  0  0  0
 20 19  2  0  0  0  0
 20 21  1  0  0  0  0
 21 16  2  0  0  0  0
 24 20  1  0  0  0  0
 25 28  1  0  0  0  0
 25 26  1  0  0  0  0
 25 27  1  0  0  0  0
M  END
>  <minimizedAffinity>
-4.43209171

$$$$

 OpenBabel03262521583D

 28 29  0  0  1  0  0  0  0  0999 V2000
   38.8550   22.8030   35.5760 N   0  0  0  0  0  0  0  0  0  0  0  0
   38.8480   24.2100   35.8230 C   0  0  0  0  0  0  0  0  0  0  0  0
   39.9090   25.0260   35.2000 C   0  0  0  0  0  0  0  0  0  0  0  0
   41.2050   24.3680   34.8820 C   0  0  0  0  0  0  0  0  0  0  0  0
   41.1240   22.8680   34.7460 C   0  0  0  0  0  0  0  0  0  0  0  0
   40.1680   22.3220   35.8160 C   0  0  1  0  0  0  0  0  0  0  0  0
   38.7610   24.3800   36.9180 H   0  0  0  0  0  0  0  0  0  0  0  0
   37.8540   24.5760   35.4330 H   0  0  0  0  0  0  0  0  0  0  0  0
   39.5400   25.4800   34.2400 H   0  0  0  0  0  0  0  0  0  0  0  0
   40.1210   25.9060   35.8490 H   0  0  0  0  0  0  0  0  0  0  0  0
   41.6330   24.7190   33.8970 H   0  0  0  0  0  0  0  0  0  0  0  0
   41.9880   24.6300   35.6230 H   0  0  0  0  0  0  0  0  0  0  0  0
   40.7880   22.5370   33.7570 H   0  0  0  0  0  0  0  0  0  0  0  0
   42.1140   22.4440   35.0280 H   0  0  0  0  0  0  0  0  0  0  0  0
   40.1650   21.2200   35.6840 H   0  0  0  0  0  0  0  0  0  0  0  0
   37.7150   22.0470   35.1600 C   0  0  0  0  0  0  0  0  0  0  0  0
   37.4540   21.7030   33.8240 C   0  0  0  0  0  0  0  0  0  0  0  0
   36.3130   20.9660   33.5480 C   0  0  0  0  0  0  0  0  0  0  0  0
   35.5070   20.6170   34.6020 N   0  0  0  0  0  0  0  0  0  0  0  0
   35.7870   20.9610   35.8600 C   0  0  0  0  0  0  0  0  0  0  0  0
   36.8830   21.6700   36.1210 N   0  0  0  0  0  0  0  0  0  0  0  0
   38.1430   22.0230   33.0830 H   0  0  0  0  0  0  0  0  0  0  0  0
   36.1150   20.7050   32.5300 H   0  0  0  0  0  0  0  0  0  0  0  0
   35.1050   20.6540   36.6640 H   0  0  0  0  0  0  0  0  0  0  0  0
   40.7440   22.5730   37.1760 C   0  0  0  0  0  0  0  0  0  0  0  0
   41.0180   21.3040   37.7110 F   0  0  0  0  0  0  0  0  0  0  0  0
   39.7790   23.0940   38.0130 F   0  0  0  0  0  0  0  0  0  0  0  0
   41.9220   23.2460   37.2010 F   0  0  0  0  0  0  0  0  0  0  0  0
  1  6  1  0  0  0  0
  1  2  1  0  0  0  0
  2  7  1  0  0  0  0
  3  2  1  0  0  0  0
  3 10  1  0  0  0  0
  4  3  1  0  0  0  0
  4 12  1  0  0  0  0
  5  4  1  0  0  0  0
  5 14  1  0  0  0  0
  5  6  1  0  0  0  0
  6 15  1  6  0  0  0
  6 25  1  0  0  0  0
  8  2  1  0  0  0  0
  9  3  1  0  0  0  0
 11  4  1  0  0  0  0
 13  5  1  0  0  0  0
 16  1  1  0  0  0  0
 16 21  1  0  0  0  0
 17 16  2  0  0  0  0
 18 17  1  0  0  0  0
 18 19  2  0  0  0  0
 19 20  1  0  0  0  0
 20 21  2  0  0  0  0
 20 24  1  0  0  0  0
 22 17  1  0  0  0  0
 23 18  1  0  0  0  0
 25 28  1  0  0  0  0
 25 26  1  0  0  0  0
 25 27  1  0  0  0  0
M  END
>  <minimizedAffinity>
-4.42873526

$$$$

 OpenBabel03262521583D

 28 29  0  0  1  0  0  0  0  0999 V2000
   38.1880   25.6590   33.4850 N   0  0  0  0  0  0  0  0  0  0  0  0
   38.7060   26.8960   32.9920 C   0  0  0  0  0  0  0  0  0  0  0  0
   40.1470   27.1600   33.1670 C   0  0  0  0  0  0  0  0  0  0  0  0
   40.8490   26.5000   34.3010 C   0  0  0  0  0  0  0  0  0  0  0  0
   40.1630   25.2600   34.8190 C   0  0  0  0  0  0  0  0  0  0  0  0
   38.6460   25.4920   34.8180 C   0  0  1  0  0  0  0  0  0  0  0  0
   38.0670   27.7250   33.3660 H   0  0  0  0  0  0  0  0  0  0  0  0
   38.4860   26.8900   31.8850 H   0  0  0  0  0  0  0  0  0  0  0  0
   40.7130   26.8790   32.2370 H   0  0  0  0  0  0  0  0  0  0  0  0
   40.3080   28.2590   33.2580 H   0  0  0  0  0  0  0  0  0  0  0  0
   41.8870   26.1530   34.0190 H   0  0  0  0  0  0  0  0  0  0  0  0
   41.0220   27.2040   35.1410 H   0  0  0  0  0  0  0  0  0  0  0  0
   40.3930   24.3600   34.2380 H   0  0  0  0  0  0  0  0  0  0  0  0
   40.4190   25.1520   35.8970 H   0  0  0  0  0  0  0  0  0  0  0  0
   38.1970   24.5630   35.2260 H   0  0  0  0  0  0  0  0  0  0  0  0
   37.3550   24.7710   32.7360 C   0  0  0  0  0  0  0  0  0  0  0  0
   37.5250   23.3770   32.7110 C   0  0  0  0  0  0  0  0  0  0  0  0
   36.6520   22.6230   31.9440 C   0  0  0  0  0  0  0  0  0  0  0  0
   35.6710   23.2900   31.2530 N   0  0  0  0  0  0  0  0  0  0  0  0
   35.5390   24.6160   31.2990 C   0  0  0  0  0  0  0  0  0  0  0  0
   36.3810   25.3370   32.0370 N   0  0  0  0  0  0  0  0  0  0  0  0
   38.3170   22.9620   33.2830 H   0  0  0  0  0  0  0  0  0  0  0  0
   36.7840   21.5620   31.9260 H   0  0  0  0  0  0  0  0  0  0  0  0
   34.7350   25.0950   30.7240 H   0  0  0  0  0  0  0  0  0  0  0  0
   38.3060   26.5780   35.7930 C   0  0  0  0  0  0  0  0  0  0  0  0
   38.0610   25.9280   37.0130 F   0  0  0  0  0  0  0  0  0  0  0  0
   37.0950   27.1520   35.4630 F   0  0  0  0  0  0  0  0  0  0  0  0
   39.2940   27.4730   36.0430 F   0  0  0  0  0  0  0  0  0  0  0  0
  1  6  1  0  0  0  0
  2  3  1  0  0  0  0
  2  7  1  0  0  0  0
  2  1  1  0  0  0  0
  3 10  1  0  0  0  0
  3  4  1  0  0  0  0
  4  5  1  0  0  0  0
  4 12  1  0  0  0  0
  5 14  1  0  0  0  0
  6  5  1  0  0  0  0
  6 15  1  1  0  0  0
  6 25  1  0  0  0  0
  8  2  1  0  0  0  0
  9  3  1  0  0  0  0
 11  4  1  0  0  0  0
 13  5  1  0  0  0  0
 16  1  1  0  0  0  0
 17 16  1  0  0  0  0
 17 22  1  0  0  0  0
 18 17  2  0  0  0  0
 19 20  2  0  0  0  0
 19 18  1  0  0  0  0
 20 21  1  0  0  0  0
 21 16  2  0  0  0  0
 23 18  1  0  0  0  0
 24 20  1  0  0  0  0
 25 28  1  0  0  0  0
 25 26  1  0  0  0  0
 27 25  1  0  0  0  0
M  END
>  <minimizedAffinity>
-4.40913868

$$$$

 OpenBabel03262521583D

 28 29  0  0  1  0  0  0  0  0999 V2000
   37.5710   26.0860   33.3760 N   0  0  0  0  0  0  0  0  0  0  0  0
   38.7780   26.7820   33.0570 C   0  0  0  0  0  0  0  0  0  0  0  0
   39.7580   26.9960   34.1400 C   0  0  0  0  0  0  0  0  0  0  0  0
   39.2580   27.0510   35.5400 C   0  0  0  0  0  0  0  0  0  0  0  0
   37.9230   26.3790   35.7490 C   0  0  0  0  0  0  0  0  0  0  0  0
   37.0210   26.6760   34.5440 C   0  0  1  0  0  0  0  0  0  0  0  0
   38.5180   27.7190   32.5190 H   0  0  0  0  0  0  0  0  0  0  0  0
   39.2750   26.1620   32.2560 H   0  0  0  0  0  0  0  0  0  0  0  0
   40.5480   26.1960   34.1160 H   0  0  0  0  0  0  0  0  0  0  0  0
   40.3220   27.9360   33.9400 H   0  0  0  0  0  0  0  0  0  0  0  0
   39.9530   26.5330   36.2640 H   0  0  0  0  0  0  0  0  0  0  0  0
   39.2090   28.0930   35.9160 H   0  0  0  0  0  0  0  0  0  0  0  0
   37.9980   25.2950   35.8880 H   0  0  0  0  0  0  0  0  0  0  0  0
   37.4140   26.8870   36.5990 H   0  0  0  0  0  0  0  0  0  0  0  0
   36.0520   26.1790   34.7610 H   0  0  0  0  0  0  0  0  0  0  0  0
   37.0430   24.9910   32.6250 C   0  0  0  0  0  0  0  0  0  0  0  0
   37.5320   23.6770   32.7130 C   0  0  0  0  0  0  0  0  0  0  0  0
   36.9350   22.7020   31.9310 C   0  0  0  0  0  0  0  0  0  0  0  0
   35.8980   23.0830   31.1160 N   0  0  0  0  0  0  0  0  0  0  0  0
   35.4590   24.3400   31.0580 C   0  0  0  0  0  0  0  0  0  0  0  0
   36.0360   25.2750   31.8100 N   0  0  0  0  0  0  0  0  0  0  0  0
   38.3390   23.4900   33.3750 H   0  0  0  0  0  0  0  0  0  0  0  0
   37.3080   21.7020   31.9990 H   0  0  0  0  0  0  0  0  0  0  0  0
   34.6250   24.5870   30.3870 H   0  0  0  0  0  0  0  0  0  0  0  0
   36.7280   28.1440   34.4880 C   0  0  0  0  0  0  0  0  0  0  0  0
   35.3420   28.2610   34.6770 F   0  0  0  0  0  0  0  0  0  0  0  0
   36.9410   28.6240   33.2120 F   0  0  0  0  0  0  0  0  0  0  0  0
   37.2980   28.8940   35.4650 F   0  0  0  0  0  0  0  0  0  0  0  0
  1  6  1  0  0  0  0
  2  1  1  0  0  0  0
  2  3  1  0  0  0  0
  3  4  1  0  0  0  0
  4  5  1  0  0  0  0
  4 12  1  0  0  0  0
  4 11  1  0  0  0  0
  5 13  1  0  0  0  0
  5 14  1  0  0  0  0
  6 15  1  1  0  0  0
  6  5  1  0  0  0  0
  7  2  1  0  0  0  0
  8  2  1  0  0  0  0
  9  3  1  0  0  0  0
 10  3  1  0  0  0  0
 16 17  1  0  0  0  0
 16  1  1  0  0  0  0
 17 22  1  0  0  0  0
 18 23  1  0  0  0  0
 18 17  2  0  0  0  0
 19 18  1  0  0  0  0
 20 19  2  0  0  0  0
 20 21  1  0  0  0  0
 21 16  2  0  0  0  0
 24 20  1  0  0  0  0
 25  6  1  0  0  0  0
 25 26  1  0  0  0  0
 25 28  1  0  0  0  0
 27 25  1  0  0  0  0
M  END
>  <minimizedAffinity>
-4.38604069

$$$$

 OpenBabel03262521583D

 28 29  0  0  1  0  0  0  0  0999 V2000
   38.5340   25.9250   35.2280 N   0  0  0  0  0  0  0  0  0  0  0  0
   38.1660   27.2660   35.5550 C   0  0  0  0  0  0  0  0  0  0  0  0
   37.0520   27.8790   34.8060 C   0  0  0  0  0  0  0  0  0  0  0  0
   36.7740   27.3840   33.4310 C   0  0  0  0  0  0  0  0  0  0  0  0
   37.2970   25.9970   33.1520 C   0  0  0  0  0  0  0  0  0  0  0  0
   38.6710   25.8400   33.8180 C   0  0  1  0  0  0  0  0  0  0  0  0
   39.0820   27.8960   35.5590 H   0  0  0  0  0  0  0  0  0  0  0  0
   37.8770   27.2370   36.6460 H   0  0  0  0  0  0  0  0  0  0  0  0
   36.0910   27.7770   35.3810 H   0  0  0  0  0  0  0  0  0  0  0  0
   37.2140   28.9800   34.7480 H   0  0  0  0  0  0  0  0  0  0  0  0
   35.6670   27.3180   33.2150 H   0  0  0  0  0  0  0  0  0  0  0  0
   37.1560   28.0840   32.6600 H   0  0  0  0  0  0  0  0  0  0  0  0
   36.6320   25.2010   33.5030 H   0  0  0  0  0  0  0  0  0  0  0  0
   37.5160   25.9250   32.0630 H   0  0  0  0  0  0  0  0  0  0  0  0
   39.0160   24.8160   33.5630 H   0  0  0  0  0  0  0  0  0  0  0  0
   38.7210   24.8780   36.1830 C   0  0  0  0  0  0  0  0  0  0  0  0
   39.6090   23.8050   36.0000 C   0  0  0  0  0  0  0  0  0  0  0  0
   39.7000   22.8510   37.0010 C   0  0  0  0  0  0  0  0  0  0  0  0
   38.9130   23.0160   38.1140 N   0  0  0  0  0  0  0  0  0  0  0  0
   38.0800   24.0480   38.2540 C   0  0  0  0  0  0  0  0  0  0  0  0
   37.9950   24.9620   37.2890 N   0  0  0  0  0  0  0  0  0  0  0  0
   40.1720   23.7720   35.1010 H   0  0  0  0  0  0  0  0  0  0  0  0
   40.3760   22.0350   36.8600 H   0  0  0  0  0  0  0  0  0  0  0  0
   37.4740   24.1280   39.1670 H   0  0  0  0  0  0  0  0  0  0  0  0
   39.6490   26.7760   33.1750 C   0  0  0  0  0  0  0  0  0  0  0  0
   40.5410   25.9600   32.4600 F   0  0  0  0  0  0  0  0  0  0  0  0
   40.4340   27.3790   34.1360 F   0  0  0  0  0  0  0  0  0  0  0  0
   39.1270   27.6360   32.2650 F   0  0  0  0  0  0  0  0  0  0  0  0
  1  2  1  0  0  0  0
  1 16  1  0  0  0  0
  2  7  1  0  0  0  0
  2  8  1  0  0  0  0
  3  9  1  0  0  0  0
  3  2  1  0  0  0  0
  4  3  1  0  0  0  0
  5  4  1  0  0  0  0
  5 13  1  0  0  0  0
  5  6  1  0  0  0  0
  6 15  1  6  0  0  0
  6  1  1  0  0  0  0
 10  3  1  0  0  0  0
 11  4  1  0  0  0  0
 12  4  1  0  0  0  0
 14  5  1  0  0  0  0
 16 21  1  0  0  0  0
 17 16  2  0  0  0  0
 17 18  1  0  0  0  0
 18 19  2  0  0  0  0
 19 20  1  0  0  0  0
 20 24  1  0  0  0  0
 21 20  2  0  0  0  0
 22 17  1  0  0  0  0
 23 18  1  0  0  0  0
 25  6  1  0  0  0  0
 25 27  1  0  0  0  0
 26 25  1  0  0  0  0
 28 25  1  0  0  0  0
M  END
>  <minimizedAffinity>
-4.38365364

$$$$
