
 OpenBabel03262523103D

 15 15  0  0  0  0  0  0  0  0999 V2000
   41.1630   21.6490   37.0100 C   0  0  0  0  0  0  0  0  0  0  0  0
   41.1410   21.9470   35.6330 C   0  0  0  0  0  0  0  0  0  0  0  0
   40.2040   22.8700   35.1930 C   0  0  0  0  0  0  0  0  0  0  0  0
   39.3770   23.4230   36.1030 N   0  0  0  0  0  0  0  0  0  0  0  0
   39.4110   23.1280   37.4110 C   0  0  0  0  0  0  0  0  0  0  0  0
   40.3030   22.2430   37.8590 N   0  0  0  0  0  0  0  0  0  0  0  0
   41.8590   21.4410   34.9740 H   0  0  0  0  0  0  0  0  0  0  0  0
   40.1730   23.1130   34.1280 H   0  0  0  0  0  0  0  0  0  0  0  0
   38.4620   23.7770   38.3840 C   0  0  0  0  0  0  0  0  0  0  0  0
   38.0110   24.9920   37.9570 F   0  0  0  0  0  0  0  0  0  0  0  0
   39.1140   23.9590   39.6110 F   0  0  0  0  0  0  0  0  0  0  0  0
   37.3870   22.9300   38.6670 F   0  0  0  0  0  0  0  0  0  0  0  0
   42.0960   20.7060   37.5690 N   0  0  0  0  0  0  0  0  0  0  0  0
   43.0010   20.8650   38.1020 H   0  0  0  0  0  0  0  0  0  0  0  0
   41.6450   19.7810   37.3110 H   0  0  0  0  0  0  0  0  0  0  0  0
  1 13  1  0  0  0  0
  1  6  1  0  0  0  0
  2  1  2  0  0  0  0
  3  2  1  0  0  0  0
  3  4  2  0  0  0  0
  4  5  1  0  0  0  0
  5  6  2  0  0  0  0
  5  9  1  0  0  0  0
  7  2  1  0  0  0  0
  8  3  1  0  0  0  0
  9 12  1  0  0  0  0
  9 11  1  0  0  0  0
 10  9  1  0  0  0  0
 13 14  1  0  0  0  0
 15 13  1  0  0  0  0
M  END
>  <minimizedAffinity>
-4.1103363

$$$$

 OpenBabel03262523103D

 15 15  0  0  0  0  0  0  0  0999 V2000
   38.1220   26.4300   35.7160 C   0  0  0  0  0  0  0  0  0  0  0  0
   38.1050   25.7210   34.4980 C   0  0  0  0  0  0  0  0  0  0  0  0
   38.1600   24.3360   34.5630 C   0  0  0  0  0  0  0  0  0  0  0  0
   38.2250   23.7570   35.7790 N   0  0  0  0  0  0  0  0  0  0  0  0
   38.2420   24.4470   36.9290 C   0  0  0  0  0  0  0  0  0  0  0  0
   38.1900   25.7790   36.8930 N   0  0  0  0  0  0  0  0  0  0  0  0
   38.0490   26.2890   33.5610 H   0  0  0  0  0  0  0  0  0  0  0  0
   38.1470   23.7710   33.6280 H   0  0  0  0  0  0  0  0  0  0  0  0
   38.3150   23.7460   38.2610 C   0  0  0  0  0  0  0  0  0  0  0  0
   37.2860   22.8730   38.4600 F   0  0  0  0  0  0  0  0  0  0  0  0
   38.2850   24.7010   39.2860 F   0  0  0  0  0  0  0  0  0  0  0  0
   39.5430   23.0930   38.4080 F   0  0  0  0  0  0  0  0  0  0  0  0
   38.0690   27.8680   35.7600 N   0  0  0  0  0  0  0  0  0  0  0  0
   37.2590   28.5220   35.9710 H   0  0  0  0  0  0  0  0  0  0  0  0
   39.0710   28.1250   35.5220 H   0  0  0  0  0  0  0  0  0  0  0  0
  1 13  1  0  0  0  0
  1  6  1  0  0  0  0
  2  3  1  0  0  0  0
  2  1  2  0  0  0  0
  3  4  2  0  0  0  0
  4  5  1  0  0  0  0
  5  9  1  0  0  0  0
  6  5  2  0  0  0  0
  7  2  1  0  0  0  0
  8  3  1  0  0  0  0
  9 12  1  0  0  0  0
  9 10  1  0  0  0  0
  9 11  1  0  0  0  0
 13 14  1  0  0  0  0
 15 13  1  0  0  0  0
M  END
>  <minimizedAffinity>
-4.02073097

$$$$

 OpenBabel03262523103D

 15 15  0  0  0  0  0  0  0  0999 V2000
   35.7220   21.2000   36.4620 C   0  0  0  0  0  0  0  0  0  0  0  0
   35.7900   20.8100   35.1090 C   0  0  0  0  0  0  0  0  0  0  0  0
   36.8080   21.3500   34.3380 C   0  0  0  0  0  0  0  0  0  0  0  0
   37.6660   22.2100   34.9260 N   0  0  0  0  0  0  0  0  0  0  0  0
   37.5860   22.5720   36.2150 C   0  0  0  0  0  0  0  0  0  0  0  0
   36.6150   22.0660   36.9770 N   0  0  0  0  0  0  0  0  0  0  0  0
   35.0430   20.1020   34.7290 H   0  0  0  0  0  0  0  0  0  0  0  0
   36.8760   21.0580   33.2880 H   0  0  0  0  0  0  0  0  0  0  0  0
   38.5720   23.5380   36.8180 C   0  0  0  0  0  0  0  0  0  0  0  0
   39.7430   23.6060   36.1220 F   0  0  0  0  0  0  0  0  0  0  0  0
   38.8640   23.1380   38.1290 F   0  0  0  0  0  0  0  0  0  0  0  0
   38.0050   24.8090   36.9440 F   0  0  0  0  0  0  0  0  0  0  0  0
   34.7040   20.6980   37.3480 N   0  0  0  0  0  0  0  0  0  0  0  0
   34.7500   19.9400   38.0910 H   0  0  0  0  0  0  0  0  0  0  0  0
   33.8680   21.2880   37.0690 H   0  0  0  0  0  0  0  0  0  0  0  0
  1  6  1  0  0  0  0
  1 13  1  0  0  0  0
  2  1  2  0  0  0  0
  3  4  2  0  0  0  0
  3  2  1  0  0  0  0
  4  5  1  0  0  0  0
  5  9  1  0  0  0  0
  5  6  2  0  0  0  0
  7  2  1  0  0  0  0
  8  3  1  0  0  0  0
  9 12  1  0  0  0  0
  9 11  1  0  0  0  0
 10  9  1  0  0  0  0
 13 14  1  0  0  0  0
 15 13  1  0  0  0  0
M  END
>  <minimizedAffinity>
-4.01568031

$$$$

 OpenBabel03262523103D

 15 15  0  0  0  0  0  0  0  0999 V2000
   38.1480   23.0690   34.8060 C   0  0  0  0  0  0  0  0  0  0  0  0
   38.1270   24.3400   34.2000 C   0  0  0  0  0  0  0  0  0  0  0  0
   38.1220   25.4480   35.0350 C   0  0  0  0  0  0  0  0  0  0  0  0
   38.1390   25.2410   36.3680 N   0  0  0  0  0  0  0  0  0  0  0  0
   38.1570   24.0230   36.9290 C   0  0  0  0  0  0  0  0  0  0  0  0
   38.1620   22.9430   36.1470 N   0  0  0  0  0  0  0  0  0  0  0  0
   38.1150   24.3990   33.1040 H   0  0  0  0  0  0  0  0  0  0  0  0
   38.1070   26.4410   34.5810 H   0  0  0  0  0  0  0  0  0  0  0  0
   38.1750   23.8520   38.4260 C   0  0  0  0  0  0  0  0  0  0  0  0
   37.8930   25.0060   39.0960 F   0  0  0  0  0  0  0  0  0  0  0  0
   39.4450   23.4130   38.8240 F   0  0  0  0  0  0  0  0  0  0  0  0
   37.3000   22.8350   38.8170 F   0  0  0  0  0  0  0  0  0  0  0  0
   38.1530   21.8560   34.0300 N   0  0  0  0  0  0  0  0  0  0  0  0
   38.9510   21.1970   33.7870 H   0  0  0  0  0  0  0  0  0  0  0  0
   37.1330   21.7770   33.7500 H   0  0  0  0  0  0  0  0  0  0  0  0
  1  6  1  0  0  0  0
  2  1  2  0  0  0  0
  2  3  1  0  0  0  0
  3  4  2  0  0  0  0
  4  5  1  0  0  0  0
  5  9  1  0  0  0  0
  6  5  2  0  0  0  0
  7  2  1  0  0  0  0
  8  3  1  0  0  0  0
  9 12  1  0  0  0  0
  9 11  1  0  0  0  0
  9 10  1  0  0  0  0
 13  1  1  0  0  0  0
 14 13  1  0  0  0  0
 15 13  1  0  0  0  0
M  END
>  <minimizedAffinity>
-3.94086099

$$$$

 OpenBabel03262523103D

 15 15  0  0  0  0  0  0  0  0999 V2000
   38.6320   23.2330   37.1620 C   0  0  0  0  0  0  0  0  0  0  0  0
   38.5000   22.4110   36.0240 C   0  0  0  0  0  0  0  0  0  0  0  0
   38.2820   23.0360   34.8050 C   0  0  0  0  0  0  0  0  0  0  0  0
   38.2110   24.3830   34.7830 N   0  0  0  0  0  0  0  0  0  0  0  0
   38.3370   25.1500   35.8760 C   0  0  0  0  0  0  0  0  0  0  0  0
   38.5470   24.5720   37.0600 N   0  0  0  0  0  0  0  0  0  0  0  0
   38.5760   21.3230   36.1500 H   0  0  0  0  0  0  0  0  0  0  0  0
   38.1780   22.4140   33.9130 H   0  0  0  0  0  0  0  0  0  0  0  0
   38.2480   26.6520   35.7910 C   0  0  0  0  0  0  0  0  0  0  0  0
   39.2880   27.2080   35.1070 F   0  0  0  0  0  0  0  0  0  0  0  0
   38.2400   27.1860   37.0870 F   0  0  0  0  0  0  0  0  0  0  0  0
   37.0290   27.0440   35.2300 F   0  0  0  0  0  0  0  0  0  0  0  0
   38.8600   22.6850   38.4730 N   0  0  0  0  0  0  0  0  0  0  0  0
   39.7530   22.6110   39.0440 H   0  0  0  0  0  0  0  0  0  0  0  0
   37.8860   22.3600   38.7410 H   0  0  0  0  0  0  0  0  0  0  0  0
  1 13  1  0  0  0  0
  2  7  1  0  0  0  0
  2  1  2  0  0  0  0
  3  2  1  0  0  0  0
  4  3  2  0  0  0  0
  4  5  1  0  0  0  0
  5  6  2  0  0  0  0
  6  1  1  0  0  0  0
  8  3  1  0  0  0  0
  9  5  1  0  0  0  0
  9 11  1  0  0  0  0
 10  9  1  0  0  0  0
 12  9  1  0  0  0  0
 13 15  1  0  0  0  0
 13 14  1  0  0  0  0
M  END
>  <minimizedAffinity>
-3.91927481

$$$$

 OpenBabel03262523103D

 15 15  0  0  0  0  0  0  0  0999 V2000
   38.9260   26.6880   35.7750 C   0  0  0  0  0  0  0  0  0  0  0  0
   39.9970   26.6200   34.8610 C   0  0  0  0  0  0  0  0  0  0  0  0
   40.5370   25.3700   34.6000 C   0  0  0  0  0  0  0  0  0  0  0  0
   40.0080   24.3020   35.2310 N   0  0  0  0  0  0  0  0  0  0  0  0
   38.9890   24.3840   36.0990 C   0  0  0  0  0  0  0  0  0  0  0  0
   38.4520   25.5750   36.3670 N   0  0  0  0  0  0  0  0  0  0  0  0
   40.3540   27.5510   34.4010 H   0  0  0  0  0  0  0  0  0  0  0  0
   41.3680   25.3000   33.8940 H   0  0  0  0  0  0  0  0  0  0  0  0
   38.4370   23.1560   36.7750 C   0  0  0  0  0  0  0  0  0  0  0  0
   37.0740   23.1450   36.8270 F   0  0  0  0  0  0  0  0  0  0  0  0
   38.9260   23.0940   38.0860 F   0  0  0  0  0  0  0  0  0  0  0  0
   38.9100   21.9960   36.1550 F   0  0  0  0  0  0  0  0  0  0  0  0
   38.2950   27.9360   36.1160 N   0  0  0  0  0  0  0  0  0  0  0  0
   37.3780   28.3590   35.7840 H   0  0  0  0  0  0  0  0  0  0  0  0
   38.9910   28.3470   36.8030 H   0  0  0  0  0  0  0  0  0  0  0  0
  1 13  1  0  0  0  0
  1  6  1  0  0  0  0
  2  1  2  0  0  0  0
  3  2  1  0  0  0  0
  3  4  2  0  0  0  0
  4  5  1  0  0  0  0
  5  6  2  0  0  0  0
  5  9  1  0  0  0  0
  7  2  1  0  0  0  0
  8  3  1  0  0  0  0
  9 10  1  0  0  0  0
  9 11  1  0  0  0  0
 12  9  1  0  0  0  0
 13 15  1  0  0  0  0
 14 13  1  0  0  0  0
M  END
>  <minimizedAffinity>
-3.77451539

$$$$

 OpenBabel03262523103D

 15 15  0  0  0  0  0  0  0  0999 V2000
   39.2130   23.0530   37.7850 C   0  0  0  0  0  0  0  0  0  0  0  0
   38.6570   23.8290   36.7480 C   0  0  0  0  0  0  0  0  0  0  0  0
   39.4600   24.0970   35.6490 C   0  0  0  0  0  0  0  0  0  0  0  0
   40.7140   23.6000   35.6390 N   0  0  0  0  0  0  0  0  0  0  0  0
   41.2280   22.8640   36.6350 C   0  0  0  0  0  0  0  0  0  0  0  0
   40.4750   22.5930   37.7030 N   0  0  0  0  0  0  0  0  0  0  0  0
   37.6240   24.1850   36.8540 H   0  0  0  0  0  0  0  0  0  0  0  0
   39.0450   24.6970   34.8360 H   0  0  0  0  0  0  0  0  0  0  0  0
   42.6370   22.3350   36.5700 C   0  0  0  0  0  0  0  0  0  0  0  0
   43.5680   23.2540   36.9560 F   0  0  0  0  0  0  0  0  0  0  0  0
   42.9230   21.9470   35.2550 F   0  0  0  0  0  0  0  0  0  0  0  0
   42.7620   21.1670   37.3290 F   0  0  0  0  0  0  0  0  0  0  0  0
   38.4650   22.7190   38.9690 N   0  0  0  0  0  0  0  0  0  0  0  0
   37.9710   21.8180   39.2410 H   0  0  0  0  0  0  0  0  0  0  0  0
   38.5280   23.6210   39.5230 H   0  0  0  0  0  0  0  0  0  0  0  0
  1 13  1  0  0  0  0
  2  7  1  0  0  0  0
  2  1  2  0  0  0  0
  3  2  1  0  0  0  0
  4  3  2  0  0  0  0
  4  5  1  0  0  0  0
  5  6  2  0  0  0  0
  6  1  1  0  0  0  0
  8  3  1  0  0  0  0
  9  5  1  0  0  0  0
  9 10  1  0  0  0  0
  9 12  1  0  0  0  0
 11  9  1  0  0  0  0
 13 14  1  0  0  0  0
 13 15  1  0  0  0  0
M  END
>  <minimizedAffinity>
-3.6596508

$$$$

 OpenBabel03262523103D

 15 15  0  0  0  0  0  0  0  0999 V2000
   40.6870   22.5480   36.9050 C   0  0  0  0  0  0  0  0  0  0  0  0
   41.6910   22.8700   35.9700 C   0  0  0  0  0  0  0  0  0  0  0  0
   41.4440   23.9260   35.1050 C   0  0  0  0  0  0  0  0  0  0  0  0
   40.2670   24.5750   35.2100 N   0  0  0  0  0  0  0  0  0  0  0  0
   39.3210   24.2550   36.1060 C   0  0  0  0  0  0  0  0  0  0  0  0
   39.5350   23.2430   36.9490 N   0  0  0  0  0  0  0  0  0  0  0  0
   42.6150   22.2780   35.9680 H   0  0  0  0  0  0  0  0  0  0  0  0
   42.2120   24.1890   34.3740 H   0  0  0  0  0  0  0  0  0  0  0  0
   38.0230   25.0170   36.1780 C   0  0  0  0  0  0  0  0  0  0  0  0
   37.5060   25.3050   34.9490 F   0  0  0  0  0  0  0  0  0  0  0  0
   38.2350   26.2230   36.8590 F   0  0  0  0  0  0  0  0  0  0  0  0
   37.0860   24.3230   36.9510 F   0  0  0  0  0  0  0  0  0  0  0  0
   40.8420   21.4710   37.8480 N   0  0  0  0  0  0  0  0  0  0  0  0
   41.0940   21.4890   38.8800 H   0  0  0  0  0  0  0  0  0  0  0  0
   40.6380   20.6250   37.2410 H   0  0  0  0  0  0  0  0  0  0  0  0
  1  6  1  0  0  0  0
  1 13  1  0  0  0  0
  2  1  2  0  0  0  0
  3  4  2  0  0  0  0
  3  2  1  0  0  0  0
  4  5  1  0  0  0  0
  5  9  1  0  0  0  0
  5  6  2  0  0  0  0
  7  2  1  0  0  0  0
  8  3  1  0  0  0  0
  9 11  1  0  0  0  0
  9 12  1  0  0  0  0
 10  9  1  0  0  0  0
 13 14  1  0  0  0  0
 15 13  1  0  0  0  0
M  END
>  <minimizedAffinity>
-3.62936044

$$$$

 OpenBabel03262523103D

 15 15  0  0  0  0  0  0  0  0999 V2000
   38.2150   22.4350   35.9030 C   0  0  0  0  0  0  0  0  0  0  0  0
   37.6720   23.1700   36.9750 C   0  0  0  0  0  0  0  0  0  0  0  0
   38.4920   23.4050   38.0700 C   0  0  0  0  0  0  0  0  0  0  0  0
   39.7500   22.9210   38.0400 N   0  0  0  0  0  0  0  0  0  0  0  0
   40.2510   22.2220   37.0110 C   0  0  0  0  0  0  0  0  0  0  0  0
   39.4820   21.9820   35.9470 N   0  0  0  0  0  0  0  0  0  0  0  0
   36.6350   23.5210   36.8990 H   0  0  0  0  0  0  0  0  0  0  0  0
   38.0860   23.9740   38.9100 H   0  0  0  0  0  0  0  0  0  0  0  0
   41.6660   21.7040   37.0320 C   0  0  0  0  0  0  0  0  0  0  0  0
   41.9370   20.9440   38.1320 F   0  0  0  0  0  0  0  0  0  0  0  0
   42.5530   22.7880   37.0200 F   0  0  0  0  0  0  0  0  0  0  0  0
   41.9480   20.9900   35.8650 F   0  0  0  0  0  0  0  0  0  0  0  0
   37.4500   22.1360   34.7210 N   0  0  0  0  0  0  0  0  0  0  0  0
   37.4620   22.5880   33.7590 H   0  0  0  0  0  0  0  0  0  0  0  0
   36.8490   21.3280   35.0540 H   0  0  0  0  0  0  0  0  0  0  0  0
  1  6  2  0  0  0  0
  1  2  1  0  0  0  0
  2  3  2  0  0  0  0
  3  8  1  0  0  0  0
  4  3  1  0  0  0  0
  5  9  1  0  0  0  0
  5  4  2  0  0  0  0
  6  5  1  0  0  0  0
  7  2  1  0  0  0  0
  9 10  1  0  0  0  0
 11  9  1  0  0  0  0
 12  9  1  0  0  0  0
 13 15  1  0  0  0  0
 13  1  1  0  0  0  0
 14 13  1  0  0  0  0
M  END
>  <minimizedAffinity>
-3.60278797

$$$$
