
 OpenBabel03262520183D

 13 13  0  0  0  0  0  0  0  0999 V2000
   38.1340   25.2900   34.9750 C   0  0  0  0  0  0  0  0  0  0  0  0
   38.1530   25.1950   36.3910 C   0  0  0  0  0  0  0  0  0  0  0  0
   38.1590   23.9090   36.9560 C   0  0  0  0  0  0  0  0  0  0  0  0
   38.1440   22.8420   36.1120 N   0  0  0  0  0  0  0  0  0  0  0  0
   38.1260   22.9680   34.7720 C   0  0  0  0  0  0  0  0  0  0  0  0
   38.1210   24.1890   34.2170 N   0  0  0  0  0  0  0  0  0  0  0  0
   38.1290   26.2670   34.4850 H   0  0  0  0  0  0  0  0  0  0  0  0
   38.1640   26.0870   36.9680 H   0  0  0  0  0  0  0  0  0  0  0  0
   38.1160   22.0120   34.2450 H   0  0  0  0  0  0  0  0  0  0  0  0
   38.1780   23.7750   38.4370 C   0  0  0  0  0  0  0  0  0  0  0  0
   39.4460   23.3680   38.7570 F   0  0  0  0  0  0  0  0  0  0  0  0
   37.9200   24.9630   39.0830 F   0  0  0  0  0  0  0  0  0  0  0  0
   37.2810   22.8070   38.8780 F   0  0  0  0  0  0  0  0  0  0  0  0
  1  2  1  0  0  0  0
  2  3  2  0  0  0  0
  2  8  1  0  0  0  0
  3 10  1  0  0  0  0
  4  3  1  0  0  0  0
  5  4  2  0  0  0  0
  6  5  1  0  0  0  0
  6  1  2  0  0  0  0
  7  1  1  0  0  0  0
  9  5  1  0  0  0  0
 10 11  1  0  0  0  0
 10 13  1  0  0  0  0
 10 12  1  0  0  0  0
M  END
>  <minimizedAffinity>
-3.82017541

$$$$

 OpenBabel03262520183D

 13 13  0  0  0  0  0  0  0  0999 V2000
   38.1160   22.8780   34.7660 C   0  0  0  0  0  0  0  0  0  0  0  0
   38.1470   22.7270   36.1770 C   0  0  0  0  0  0  0  0  0  0  0  0
   38.1430   23.8950   36.9560 C   0  0  0  0  0  0  0  0  0  0  0  0
   38.1100   25.0920   36.3100 N   0  0  0  0  0  0  0  0  0  0  0  0
   38.0810   25.2000   34.9690 C   0  0  0  0  0  0  0  0  0  0  0  0
   38.0840   24.0930   34.2110 N   0  0  0  0  0  0  0  0  0  0  0  0
   38.1170   22.0010   34.1150 H   0  0  0  0  0  0  0  0  0  0  0  0
   38.1710   21.7480   36.5910 H   0  0  0  0  0  0  0  0  0  0  0  0
   38.0570   26.2330   34.6150 H   0  0  0  0  0  0  0  0  0  0  0  0
   38.1760   23.7720   38.4380 C   0  0  0  0  0  0  0  0  0  0  0  0
   39.4490   23.3770   38.7510 F   0  0  0  0  0  0  0  0  0  0  0  0
   37.9130   24.9620   39.0780 F   0  0  0  0  0  0  0  0  0  0  0  0
   37.2900   22.7990   38.8930 F   0  0  0  0  0  0  0  0  0  0  0  0
  1  2  1  0  0  0  0
  2  8  1  0  0  0  0
  2  3  2  0  0  0  0
  3 10  1  0  0  0  0
  4  3  1  0  0  0  0
  5  4  2  0  0  0  0
  6  1  2  0  0  0  0
  6  5  1  0  0  0  0
  7  1  1  0  0  0  0
  9  5  1  0  0  0  0
 10 11  1  0  0  0  0
 10 13  1  0  0  0  0
 10 12  1  0  0  0  0
M  END
>  <minimizedAffinity>
-3.75494313

$$$$

 OpenBabel03262520183D

 13 13  0  0  0  0  0  0  0  0999 V2000
   39.4980   22.4660   35.0700 C   0  0  0  0  0  0  0  0  0  0  0  0
   38.6910   23.0320   36.0910 C   0  0  0  0  0  0  0  0  0  0  0  0
   39.2180   23.0630   37.3930 C   0  0  0  0  0  0  0  0  0  0  0  0
   40.4620   22.5490   37.5890 N   0  0  0  0  0  0  0  0  0  0  0  0
   41.2010   22.0190   36.5970 C   0  0  0  0  0  0  0  0  0  0  0  0
   40.7120   21.9830   35.3490 N   0  0  0  0  0  0  0  0  0  0  0  0
   39.1350   22.4180   34.0400 H   0  0  0  0  0  0  0  0  0  0  0  0
   37.7300   23.4090   35.8410 H   0  0  0  0  0  0  0  0  0  0  0  0
   42.1750   21.6520   36.9270 H   0  0  0  0  0  0  0  0  0  0  0  0
   38.3980   23.6490   38.4860 C   0  0  0  0  0  0  0  0  0  0  0  0
   37.9140   24.8330   37.9960 F   0  0  0  0  0  0  0  0  0  0  0  0
   37.3340   22.8510   38.8410 F   0  0  0  0  0  0  0  0  0  0  0  0
   39.1650   23.9220   39.6160 F   0  0  0  0  0  0  0  0  0  0  0  0
  1  6  2  0  0  0  0
  1  2  1  0  0  0  0
  2  3  2  0  0  0  0
  3  4  1  0  0  0  0
  3 10  1  0  0  0  0
  5  9  1  0  0  0  0
  5  4  2  0  0  0  0
  6  5  1  0  0  0  0
  7  1  1  0  0  0  0
  8  2  1  0  0  0  0
 10 12  1  0  0  0  0
 10 13  1  0  0  0  0
 11 10  1  0  0  0  0
M  END
>  <minimizedAffinity>
-3.66541648

$$$$

 OpenBabel03262520183D

 13 13  0  0  0  0  0  0  0  0999 V2000
   38.1940   23.4920   38.1600 C   0  0  0  0  0  0  0  0  0  0  0  0
   39.5440   23.0510   38.1610 C   0  0  0  0  0  0  0  0  0  0  0  0
   40.0050   22.3700   37.0230 C   0  0  0  0  0  0  0  0  0  0  0  0
   39.1330   22.1790   35.9970 N   0  0  0  0  0  0  0  0  0  0  0  0
   37.8590   22.6110   36.0280 C   0  0  0  0  0  0  0  0  0  0  0  0
   37.4030   23.2630   37.1080 N   0  0  0  0  0  0  0  0  0  0  0  0
   37.7860   24.0260   39.0210 H   0  0  0  0  0  0  0  0  0  0  0  0
   40.1510   23.2470   39.0110 H   0  0  0  0  0  0  0  0  0  0  0  0
   37.2960   22.3740   35.1230 H   0  0  0  0  0  0  0  0  0  0  0  0
   41.4140   21.8940   36.9920 C   0  0  0  0  0  0  0  0  0  0  0  0
   42.1900   23.0210   37.0480 F   0  0  0  0  0  0  0  0  0  0  0  0
   41.7280   21.0900   38.0650 F   0  0  0  0  0  0  0  0  0  0  0  0
   41.7040   21.2180   35.8110 F   0  0  0  0  0  0  0  0  0  0  0  0
  1  2  1  0  0  0  0
  1  7  1  0  0  0  0
  2  8  1  0  0  0  0
  3  2  2  0  0  0  0
  4  5  2  0  0  0  0
  4  3  1  0  0  0  0
  5  6  1  0  0  0  0
  6  1  2  0  0  0  0
  9  5  1  0  0  0  0
 10  3  1  0  0  0  0
 10 11  1  0  0  0  0
 10 12  1  0  0  0  0
 13 10  1  0  0  0  0
M  END
>  <minimizedAffinity>
-3.48179412

$$$$

 OpenBabel03262520183D

 13 13  0  0  0  0  0  0  0  0999 V2000
   38.2250   22.7270   34.7990 C   0  0  0  0  0  0  0  0  0  0  0  0
   37.8060   23.1410   36.0910 C   0  0  0  0  0  0  0  0  0  0  0  0
   38.7910   23.2590   37.0860 C   0  0  0  0  0  0  0  0  0  0  0  0
   40.0760   22.9690   36.7490 N   0  0  0  0  0  0  0  0  0  0  0  0
   40.4400   22.5780   35.5130 C   0  0  0  0  0  0  0  0  0  0  0  0
   39.5110   22.4620   34.5510 N   0  0  0  0  0  0  0  0  0  0  0  0
   37.4990   22.6200   33.9900 H   0  0  0  0  0  0  0  0  0  0  0  0
   36.7780   23.3460   36.2590 H   0  0  0  0  0  0  0  0  0  0  0  0
   41.5090   22.3850   35.4130 H   0  0  0  0  0  0  0  0  0  0  0  0
   38.3850   23.6900   38.4500 C   0  0  0  0  0  0  0  0  0  0  0  0
   39.4860   23.5030   39.2430 F   0  0  0  0  0  0  0  0  0  0  0  0
   38.0230   25.0170   38.5040 F   0  0  0  0  0  0  0  0  0  0  0  0
   37.3460   22.9100   38.9500 F   0  0  0  0  0  0  0  0  0  0  0  0
  1  2  1  0  0  0  0
  2  8  1  0  0  0  0
  2  3  2  0  0  0  0
  3 10  1  0  0  0  0
  4  3  1  0  0  0  0
  5  4  2  0  0  0  0
  6  1  2  0  0  0  0
  6  5  1  0  0  0  0
  7  1  1  0  0  0  0
  9  5  1  0  0  0  0
 10 12  1  0  0  0  0
 10 13  1  0  0  0  0
 10 11  1  0  0  0  0
M  END
>  <minimizedAffinity>
-3.38264203

$$$$

 OpenBabel03262520183D

 13 13  0  0  0  0  0  0  0  0999 V2000
   37.8770   23.1130   36.8100 C   0  0  0  0  0  0  0  0  0  0  0  0
   38.0330   24.5150   36.9670 C   0  0  0  0  0  0  0  0  0  0  0  0
   38.2640   25.2760   35.8090 C   0  0  0  0  0  0  0  0  0  0  0  0
   38.3220   24.6220   34.6170 N   0  0  0  0  0  0  0  0  0  0  0  0
   38.1680   23.2900   34.5040 C   0  0  0  0  0  0  0  0  0  0  0  0
   37.9470   22.5490   35.6010 N   0  0  0  0  0  0  0  0  0  0  0  0
   37.6950   22.4760   37.6790 H   0  0  0  0  0  0  0  0  0  0  0  0
   37.9710   24.9360   37.9400 H   0  0  0  0  0  0  0  0  0  0  0  0
   38.2440   22.9280   33.4770 H   0  0  0  0  0  0  0  0  0  0  0  0
   38.4330   26.7480   35.9390 C   0  0  0  0  0  0  0  0  0  0  0  0
   37.4650   27.3050   35.1470 F   0  0  0  0  0  0  0  0  0  0  0  0
   38.2570   27.1930   37.2290 F   0  0  0  0  0  0  0  0  0  0  0  0
   39.6760   27.1660   35.4740 F   0  0  0  0  0  0  0  0  0  0  0  0
  1  2  1  0  0  0  0
  1  7  1  0  0  0  0
  2  8  1  0  0  0  0
  3 10  1  0  0  0  0
  3  2  2  0  0  0  0
  4  3  1  0  0  0  0
  5  4  2  0  0  0  0
  5  6  1  0  0  0  0
  6  1  2  0  0  0  0
  9  5  1  0  0  0  0
 10 12  1  0  0  0  0
 11 10  1  0  0  0  0
 13 10  1  0  0  0  0
M  END
>  <minimizedAffinity>
-3.34954023

$$$$

 OpenBabel03262520183D

 13 13  0  0  0  0  0  0  0  0999 V2000
   38.2390   23.2220   34.5780 C   0  0  0  0  0  0  0  0  0  0  0  0
   38.4220   24.6290   34.6130 C   0  0  0  0  0  0  0  0  0  0  0  0
   38.2410   25.2770   35.8460 C   0  0  0  0  0  0  0  0  0  0  0  0
   37.9050   24.5170   36.9230 N   0  0  0  0  0  0  0  0  0  0  0  0
   37.7400   23.1830   36.8550 C   0  0  0  0  0  0  0  0  0  0  0  0
   37.9090   22.5490   35.6850 N   0  0  0  0  0  0  0  0  0  0  0  0
   38.3680   22.6700   33.6440 H   0  0  0  0  0  0  0  0  0  0  0  0
   38.6850   25.1380   33.7180 H   0  0  0  0  0  0  0  0  0  0  0  0
   37.4710   22.7280   37.8100 H   0  0  0  0  0  0  0  0  0  0  0  0
   38.4240   26.7520   35.9160 C   0  0  0  0  0  0  0  0  0  0  0  0
   38.2350   27.0880   37.2300 F   0  0  0  0  0  0  0  0  0  0  0  0
   39.6860   27.1510   35.5360 F   0  0  0  0  0  0  0  0  0  0  0  0
   37.4780   27.4260   35.1490 F   0  0  0  0  0  0  0  0  0  0  0  0
  1  2  2  0  0  0  0
  1  6  1  0  0  0  0
  2  3  1  0  0  0  0
  3 10  1  0  0  0  0
  3  4  2  0  0  0  0
  5  4  1  0  0  0  0
  5  9  1  0  0  0  0
  6  5  2  0  0  0  0
  7  1  1  0  0  0  0
  8  2  1  0  0  0  0
 10 11  1  0  0  0  0
 12 10  1  0  0  0  0
 13 10  1  0  0  0  0
M  END
>  <minimizedAffinity>
-3.33767629

$$$$

 OpenBabel03262520183D

 13 13  0  0  0  0  0  0  0  0999 V2000
   41.5480   21.9220   36.9910 C   0  0  0  0  0  0  0  0  0  0  0  0
   40.4600   22.4880   37.7050 C   0  0  0  0  0  0  0  0  0  0  0  0
   39.3270   22.8680   36.9670 C   0  0  0  0  0  0  0  0  0  0  0  0
   39.3460   22.6690   35.6210 N   0  0  0  0  0  0  0  0  0  0  0  0
   40.3960   22.1290   34.9760 C   0  0  0  0  0  0  0  0  0  0  0  0
   41.4850   21.7610   35.6660 N   0  0  0  0  0  0  0  0  0  0  0  0
   42.4530   21.6100   37.5190 H   0  0  0  0  0  0  0  0  0  0  0  0
   40.5370   22.6040   38.7580 H   0  0  0  0  0  0  0  0  0  0  0  0
   40.2470   22.0410   33.8980 H   0  0  0  0  0  0  0  0  0  0  0  0
   38.1690   23.4650   37.6850 C   0  0  0  0  0  0  0  0  0  0  0  0
   38.2670   23.0300   38.9790 F   0  0  0  0  0  0  0  0  0  0  0  0
   38.1910   24.8410   37.6790 F   0  0  0  0  0  0  0  0  0  0  0  0
   36.9560   23.0220   37.1640 F   0  0  0  0  0  0  0  0  0  0  0  0
  1  7  1  0  0  0  0
  1  2  1  0  0  0  0
  2  8  1  0  0  0  0
  3 10  1  0  0  0  0
  3  2  2  0  0  0  0
  4  3  1  0  0  0  0
  5  4  2  0  0  0  0
  5  6  1  0  0  0  0
  6  1  2  0  0  0  0
  9  5  1  0  0  0  0
 10 11  1  0  0  0  0
 12 10  1  0  0  0  0
 13 10  1  0  0  0  0
M  END
>  <minimizedAffinity>
-3.29557419

$$$$

 OpenBabel03262520183D

 13 13  0  0  0  0  0  0  0  0999 V2000
   37.8120   23.8640   37.0600 C   0  0  0  0  0  0  0  0  0  0  0  0
   38.1590   25.2080   36.7620 C   0  0  0  0  0  0  0  0  0  0  0  0
   38.5260   25.5050   35.4390 C   0  0  0  0  0  0  0  0  0  0  0  0
   38.5250   24.4900   34.5330 N   0  0  0  0  0  0  0  0  0  0  0  0
   38.1900   23.2260   34.8500 C   0  0  0  0  0  0  0  0  0  0  0  0
   37.8370   22.9260   36.1090 N   0  0  0  0  0  0  0  0  0  0  0  0
   37.5190   23.5800   38.0740 H   0  0  0  0  0  0  0  0  0  0  0  0
   38.1300   25.9330   37.5370 H   0  0  0  0  0  0  0  0  0  0  0  0
   38.2430   22.5360   34.0060 H   0  0  0  0  0  0  0  0  0  0  0  0
   38.8960   26.9030   35.0930 C   0  0  0  0  0  0  0  0  0  0  0  0
   40.2370   27.0080   35.3480 F   0  0  0  0  0  0  0  0  0  0  0  0
   38.6750   27.2010   33.7670 F   0  0  0  0  0  0  0  0  0  0  0  0
   38.2240   27.8270   35.8890 F   0  0  0  0  0  0  0  0  0  0  0  0
  1  7  1  0  0  0  0
  2  1  1  0  0  0  0
  2  8  1  0  0  0  0
  3  2  2  0  0  0  0
  4  5  2  0  0  0  0
  4  3  1  0  0  0  0
  5  6  1  0  0  0  0
  6  1  2  0  0  0  0
  9  5  1  0  0  0  0
 10 11  1  0  0  0  0
 10  3  1  0  0  0  0
 10 13  1  0  0  0  0
 12 10  1  0  0  0  0
M  END
>  <minimizedAffinity>
-3.26489949

$$$$
