
 OpenBabel03272510153D

 23 24  0  0  0  0  0  0  0  0999 V2000
   37.3020   29.3330   51.0280 Br  0  0  0  0  0  0  0  0  0  0  0  0
   35.9540   29.3400   49.6690 C   0  0  0  0  0  0  0  0  0  0  0  0
   35.9900   30.2720   48.6550 C   0  0  0  0  0  0  0  0  0  0  0  0
   34.9830   30.2280   47.6980 C   0  0  0  0  0  0  0  0  0  0  0  0
   33.9640   29.2860   47.7380 C   0  0  0  0  0  0  0  0  0  0  0  0
   33.9660   28.3770   48.7630 C   0  0  0  0  0  0  0  0  0  0  0  0
   34.9630   28.4120   49.7230 C   0  0  0  0  0  0  0  0  0  0  0  0
   34.9970   30.9540   46.8940 H   0  0  0  0  0  0  0  0  0  0  0  0
   33.1640   27.6610   48.7670 H   0  0  0  0  0  0  0  0  0  0  0  0
   34.8850   27.6560   50.4950 H   0  0  0  0  0  0  0  0  0  0  0  0
   37.9930   33.1990   49.4700 C   0  0  0  0  0  0  0  0  0  0  0  0
   39.0240   33.1910   48.4940 C   0  0  0  0  0  0  0  0  0  0  0  0
   39.0150   32.1650   47.5570 C   0  0  0  0  0  0  0  0  0  0  0  0
   38.0230   31.2260   47.6230 N   0  0  0  0  0  0  0  0  0  0  0  0
   37.0490   31.2750   48.5840 C   0  0  0  0  0  0  0  0  0  0  0  0
   37.0420   32.2580   49.4970 N   0  0  0  0  0  0  0  0  0  0  0  0
   37.9370   33.9680   50.2310 H   0  0  0  0  0  0  0  0  0  0  0  0
   39.7600   33.9580   48.5090 H   0  0  0  0  0  0  0  0  0  0  0  0
   39.7770   32.1130   46.7920 H   0  0  0  0  0  0  0  0  0  0  0  0
   32.9360   29.3280   46.6620 C   0  0  0  0  0  0  0  0  0  0  0  0
   31.8360   28.6190   47.1020 F   0  0  0  0  0  0  0  0  0  0  0  0
   32.6370   30.6390   46.3450 F   0  0  0  0  0  0  0  0  0  0  0  0
   33.3980   28.7540   45.4890 F   0  0  0  0  0  0  0  0  0  0  0  0
  2  7  1  0  0  0  0
  2  1  1  0  0  0  0
  3  2  2  0  0  0  0
  4  5  2  0  0  0  0
  4  3  1  0  0  0  0
  5  6  1  0  0  0  0
  6  9  1  0  0  0  0
  6  7  2  0  0  0  0
  7 10  1  0  0  0  0
  8  4  1  0  0  0  0
 11 16  1  0  0  0  0
 11 17  1  0  0  0  0
 12 18  1  0  0  0  0
 12 11  2  0  0  0  0
 13 14  2  0  0  0  0
 13 12  1  0  0  0  0
 14 15  1  0  0  0  0
 15  3  1  0  0  0  0
 15 16  2  0  0  0  0
 19 13  1  0  0  0  0
 20 21  1  0  0  0  0
 20  5  1  0  0  0  0
 22 20  1  0  0  0  0
 23 20  1  0  0  0  0
M  END
>  <minimizedAffinity>
-5.77212572

>  <minimizedRMSD>
0.113061354

$$$$
