
 OpenBabel03272510083D

 39 42  0  0  0  0  0  0  0  0999 V2000
   36.0040   28.8690   49.1600 C   0  0  0  0  0  0  0  0  0  0  0  0
   35.9000   30.2720   48.7910 C   0  0  0  0  0  0  0  0  0  0  0  0
   34.6270   30.7850   48.4360 C   0  0  0  0  0  0  0  0  0  0  0  0
   33.5820   29.9420   48.4370 N   0  0  0  0  0  0  0  0  0  0  0  0
   33.7080   28.6420   48.7700 C   0  0  0  0  0  0  0  0  0  0  0  0
   34.8980   28.1110   49.1310 N   0  0  0  0  0  0  0  0  0  0  0  0
   32.5430   27.7920   48.6750 N   0  0  0  0  0  0  0  0  0  0  0  0
   31.3480   28.0040   49.4240 C   0  0  0  0  0  0  0  0  0  0  0  0
   30.3400   27.0770   48.8080 C   0  0  0  0  0  0  0  0  0  0  0  0
   30.9760   26.5150   47.5480 C   0  0  0  0  0  0  0  0  0  0  0  0
   32.4200   26.6100   47.8010 C   0  0  0  0  0  0  0  0  0  0  0  0
   36.9970   28.5510   49.4330 H   0  0  0  0  0  0  0  0  0  0  0  0
   34.4830   31.8000   48.1750 H   0  0  0  0  0  0  0  0  0  0  0  0
   31.0150   29.0790   49.3690 H   0  0  0  0  0  0  0  0  0  0  0  0
   31.5020   27.7390   50.4720 H   0  0  0  0  0  0  0  0  0  0  0  0
   30.0890   26.2360   49.4820 H   0  0  0  0  0  0  0  0  0  0  0  0
   29.3900   27.5980   48.5380 H   0  0  0  0  0  0  0  0  0  0  0  0
   30.6410   25.4750   47.3570 H   0  0  0  0  0  0  0  0  0  0  0  0
   30.6820   27.1090   46.6660 H   0  0  0  0  0  0  0  0  0  0  0  0
   32.9580   26.8280   46.8620 H   0  0  0  0  0  0  0  0  0  0  0  0
   32.8950   25.7190   48.2700 H   0  0  0  0  0  0  0  0  0  0  0  0
   36.9510   31.2100   48.7550 C   0  0  0  0  0  0  0  0  0  0  0  0
   37.1940   31.8060   49.9320 N   0  0  0  0  0  0  0  0  0  0  0  0
   38.1400   32.7570   50.0140 C   0  0  0  0  0  0  0  0  0  0  0  0
   38.8950   33.1740   48.9600 N   0  0  0  0  0  0  0  0  0  0  0  0
   38.6660   32.5810   47.7680 C   0  0  0  0  0  0  0  0  0  0  0  0
   39.3960   32.8950   46.6420 C   0  0  0  0  0  0  0  0  0  0  0  0
   39.1800   32.2600   45.4530 C   0  0  0  0  0  0  0  0  0  0  0  0
   38.2040   31.2970   45.4270 C   0  0  0  0  0  0  0  0  0  0  0  0
   37.4420   30.9440   46.5080 C   0  0  0  0  0  0  0  0  0  0  0  0
   37.6950   31.6040   47.6740 C   0  0  0  0  0  0  0  0  0  0  0  0
   38.3970   33.2890   50.9240 H   0  0  0  0  0  0  0  0  0  0  0  0
   40.1290   33.6720   46.8020 H   0  0  0  0  0  0  0  0  0  0  0  0
   39.7970   32.5750   44.6440 H   0  0  0  0  0  0  0  0  0  0  0  0
   38.1580   30.8880   44.4000 H   0  0  0  0  0  0  0  0  0  0  0  0
   36.4980   29.9080   46.1710 C   0  0  0  0  0  0  0  0  0  0  0  0
   36.0950   29.5630   44.9730 F   0  0  0  0  0  0  0  0  0  0  0  0
   36.1300   29.1060   47.2760 F   0  0  0  0  0  0  0  0  0  0  0  0
   35.1620   30.4590   46.2950 F   0  0  0  0  0  0  0  0  0  0  0  0
  1 12  1  0  0  0  0
  2  1  2  0  0  0  0
  3  4  2  0  0  0  0
  3  2  1  0  0  0  0
  4  5  1  0  0  0  0
  5  6  2  0  0  0  0
  6  1  1  0  0  0  0
  7  5  1  0  0  0  0
  7  8  1  0  0  0  0
  8 15  1  0  0  0  0
  9  8  1  0  0  0  0
  9 16  1  0  0  0  0
 10 11  1  0  0  0  0
 10  9  1  0  0  0  0
 11 21  1  0  0  0  0
 11  7  1  0  0  0  0
 13  3  1  0  0  0  0
 14  8  1  0  0  0  0
 17  9  1  0  0  0  0
 18 10  1  0  0  0  0
 19 10  1  0  0  0  0
 20 11  1  0  0  0  0
 22  2  1  0  0  0  0
 22 23  1  0  0  0  0
 23 24  2  0  0  0  0
 24 32  1  0  0  0  0
 25 24  1  0  0  0  0
 26 25  2  0  0  0  0
 27 33  1  0  0  0  0
 27 26  1  0  0  0  0
 28 27  2  0  0  0  0
 29 28  1  0  0  0  0
 29 30  2  0  0  0  0
 30 31  1  0  0  0  0
 31 26  1  0  0  0  0
 31 22  2  0  0  0  0
 34 28  1  0  0  0  0
 35 29  1  0  0  0  0
 36 39  1  0  0  0  0
 36 30  1  0  0  0  0
 36 38  1  0  0  0  0
 37 36  1  0  0  0  0
M  END
>  <minimizedAffinity>
-4.90839911

>  <minimizedRMSD>
0.760069549

$$$$
