
 OpenBabel03272509003D

 23 24  0  0  0  0  0  0  0  0999 V2000
   38.8140   31.0310   49.7280 Cl  0  0  0  0  0  0  0  0  0  0  0  0
   37.4080   30.5430   48.8410 C   0  0  0  0  0  0  0  0  0  0  0  0
   37.3410   30.7670   47.4830 C   0  0  0  0  0  0  0  0  0  0  0  0
   36.2430   30.4000   46.7380 C   0  0  0  0  0  0  0  0  0  0  0  0
   35.1610   29.7870   47.3410 C   0  0  0  0  0  0  0  0  0  0  0  0
   35.2000   29.5460   48.7140 C   0  0  0  0  0  0  0  0  0  0  0  0
   33.8960   28.7780   49.6000 Cl  0  0  0  0  0  0  0  0  0  0  0  0
   36.3180   29.9310   49.4110 C   0  0  0  0  0  0  0  0  0  0  0  0
   36.1830   30.5740   45.6760 H   0  0  0  0  0  0  0  0  0  0  0  0
   34.2750   29.4790   46.8040 H   0  0  0  0  0  0  0  0  0  0  0  0
   39.7730   33.2820   46.3710 C   0  0  0  0  0  0  0  0  0  0  0  0
   40.6090   32.5550   45.5240 C   0  0  0  0  0  0  0  0  0  0  0  0
   40.3240   31.1750   45.3380 C   0  0  0  0  0  0  0  0  0  0  0  0
   39.2570   30.6540   45.9950 N   0  0  0  0  0  0  0  0  0  0  0  0
   38.4690   31.4140   46.8150 C   0  0  0  0  0  0  0  0  0  0  0  0
   38.7340   32.7150   46.9930 N   0  0  0  0  0  0  0  0  0  0  0  0
   40.0310   34.3300   46.4800 H   0  0  0  0  0  0  0  0  0  0  0  0
   41.4430   32.9630   45.0090 H   0  0  0  0  0  0  0  0  0  0  0  0
   40.9320   30.5520   44.6950 H   0  0  0  0  0  0  0  0  0  0  0  0
   36.3890   29.6860   50.8900 C   0  0  0  0  0  0  0  0  0  0  0  0
   35.1940   29.2040   51.3790 F   0  0  0  0  0  0  0  0  0  0  0  0
   37.3090   28.6500   51.0790 F   0  0  0  0  0  0  0  0  0  0  0  0
   36.8660   30.7770   51.5520 F   0  0  0  0  0  0  0  0  0  0  0  0
  2  8  1  0  0  0  0
  2  1  1  0  0  0  0
  3  2  2  0  0  0  0
  4  5  2  0  0  0  0
  4  3  1  0  0  0  0
  5  6  1  0  0  0  0
  6  8  2  0  0  0  0
  6  7  1  0  0  0  0
  8 20  1  0  0  0  0
  9  4  1  0  0  0  0
 10  5  1  0  0  0  0
 11 17  1  0  0  0  0
 11 16  1  0  0  0  0
 12 11  2  0  0  0  0
 13 12  1  0  0  0  0
 13 14  2  0  0  0  0
 14 15  1  0  0  0  0
 15 16  2  0  0  0  0
 15  3  1  0  0  0  0
 18 12  1  0  0  0  0
 19 13  1  0  0  0  0
 20 22  1  0  0  0  0
 20 21  1  0  0  0  0
 20 23  1  0  0  0  0
M  END
>  <minimizedAffinity>
-6.16446447

>  <minimizedRMSD>
2.66320968

$$$$
