
 OpenBabel03272510083D

 39 42  0  0  0  0  0  0  0  0999 V2000
   36.0060   28.8700   49.1600 C   0  0  0  0  0  0  0  0  0  0  0  0
   35.9020   30.2730   48.7910 C   0  0  0  0  0  0  0  0  0  0  0  0
   34.6280   30.7860   48.4360 C   0  0  0  0  0  0  0  0  0  0  0  0
   33.5840   29.9420   48.4370 N   0  0  0  0  0  0  0  0  0  0  0  0
   33.7100   28.6420   48.7700 C   0  0  0  0  0  0  0  0  0  0  0  0
   34.9000   28.1120   49.1310 N   0  0  0  0  0  0  0  0  0  0  0  0
   32.5450   27.7920   48.6750 N   0  0  0  0  0  0  0  0  0  0  0  0
   31.3500   28.0050   49.4240 C   0  0  0  0  0  0  0  0  0  0  0  0
   30.3420   27.0770   48.8080 C   0  0  0  0  0  0  0  0  0  0  0  0
   30.9780   26.5150   47.5480 C   0  0  0  0  0  0  0  0  0  0  0  0
   32.4220   26.6100   47.8020 C   0  0  0  0  0  0  0  0  0  0  0  0
   36.9990   28.5520   49.4340 H   0  0  0  0  0  0  0  0  0  0  0  0
   34.4840   31.8010   48.1750 H   0  0  0  0  0  0  0  0  0  0  0  0
   31.0160   29.0790   49.3690 H   0  0  0  0  0  0  0  0  0  0  0  0
   31.5040   27.7390   50.4720 H   0  0  0  0  0  0  0  0  0  0  0  0
   30.0910   26.2370   49.4820 H   0  0  0  0  0  0  0  0  0  0  0  0
   29.3920   27.5980   48.5380 H   0  0  0  0  0  0  0  0  0  0  0  0
   30.6430   25.4750   47.3580 H   0  0  0  0  0  0  0  0  0  0  0  0
   30.6850   27.1090   46.6660 H   0  0  0  0  0  0  0  0  0  0  0  0
   32.9600   26.8280   46.8630 H   0  0  0  0  0  0  0  0  0  0  0  0
   32.8970   25.7190   48.2710 H   0  0  0  0  0  0  0  0  0  0  0  0
   36.9520   31.2110   48.7550 C   0  0  0  0  0  0  0  0  0  0  0  0
   37.1950   31.8070   49.9320 N   0  0  0  0  0  0  0  0  0  0  0  0
   38.1410   32.7590   50.0140 C   0  0  0  0  0  0  0  0  0  0  0  0
   38.8970   33.1750   48.9600 N   0  0  0  0  0  0  0  0  0  0  0  0
   38.6670   32.5820   47.7670 C   0  0  0  0  0  0  0  0  0  0  0  0
   39.3970   32.8960   46.6420 C   0  0  0  0  0  0  0  0  0  0  0  0
   39.1820   32.2610   45.4530 C   0  0  0  0  0  0  0  0  0  0  0  0
   38.2050   31.2980   45.4270 C   0  0  0  0  0  0  0  0  0  0  0  0
   37.4440   30.9440   46.5080 C   0  0  0  0  0  0  0  0  0  0  0  0
   37.6970   31.6050   47.6740 C   0  0  0  0  0  0  0  0  0  0  0  0
   38.3980   33.2900   50.9240 H   0  0  0  0  0  0  0  0  0  0  0  0
   40.1310   33.6730   46.8010 H   0  0  0  0  0  0  0  0  0  0  0  0
   39.7980   32.5750   44.6440 H   0  0  0  0  0  0  0  0  0  0  0  0
   38.1600   30.8880   44.4000 H   0  0  0  0  0  0  0  0  0  0  0  0
   36.5000   29.9090   46.1710 C   0  0  0  0  0  0  0  0  0  0  0  0
   36.0960   29.5630   44.9730 F   0  0  0  0  0  0  0  0  0  0  0  0
   36.1330   29.1070   47.2760 F   0  0  0  0  0  0  0  0  0  0  0  0
   35.1630   30.4600   46.2950 F   0  0  0  0  0  0  0  0  0  0  0  0
  1 12  1  0  0  0  0
  2  1  2  0  0  0  0
  3  4  2  0  0  0  0
  3  2  1  0  0  0  0
  4  5  1  0  0  0  0
  5  6  2  0  0  0  0
  6  1  1  0  0  0  0
  7  5  1  0  0  0  0
  7  8  1  0  0  0  0
  8 15  1  0  0  0  0
  9  8  1  0  0  0  0
  9 16  1  0  0  0  0
 10 11  1  0  0  0  0
 10  9  1  0  0  0  0
 11 21  1  0  0  0  0
 11  7  1  0  0  0  0
 13  3  1  0  0  0  0
 14  8  1  0  0  0  0
 17  9  1  0  0  0  0
 18 10  1  0  0  0  0
 19 10  1  0  0  0  0
 20 11  1  0  0  0  0
 22  2  1  0  0  0  0
 22 23  1  0  0  0  0
 23 24  2  0  0  0  0
 24 32  1  0  0  0  0
 25 24  1  0  0  0  0
 26 25  2  0  0  0  0
 27 33  1  0  0  0  0
 27 26  1  0  0  0  0
 28 27  2  0  0  0  0
 29 28  1  0  0  0  0
 29 30  2  0  0  0  0
 30 31  1  0  0  0  0
 31 26  1  0  0  0  0
 31 22  2  0  0  0  0
 34 28  1  0  0  0  0
 35 29  1  0  0  0  0
 36 39  1  0  0  0  0
 36 30  1  0  0  0  0
 36 38  1  0  0  0  0
 37 36  1  0  0  0  0
M  END
>  <minimizedAffinity>
-4.90769625

>  <minimizedRMSD>
0.775939345

$$$$
