
 OpenBabel03272503333D

 36 38  0  0  1  0  0  0  0  0999 V2000
   34.8260   29.4070   48.0040 C   0  0  0  0  0  0  0  0  0  0  0  0
   34.5710   30.1800   46.8700 C   0  0  0  0  0  0  0  0  0  0  0  0
   33.3750   29.9310   46.1910 C   0  0  0  0  0  0  0  0  0  0  0  0
   32.5470   28.9520   46.6880 N   0  0  0  0  0  0  0  0  0  0  0  0
   32.8330   28.2420   47.7720 C   0  0  0  0  0  0  0  0  0  0  0  0
   33.9850   28.4670   48.4420 N   0  0  0  0  0  0  0  0  0  0  0  0
   35.2460   30.9420   46.5090 H   0  0  0  0  0  0  0  0  0  0  0  0
   33.0950   30.4710   45.3150 H   0  0  0  0  0  0  0  0  0  0  0  0
   36.0610   29.6670   48.7010 N   0  0  0  0  0  0  0  0  0  0  0  0
   37.1980   30.3780   48.2100 C   0  0  0  0  0  0  0  0  0  0  0  0
   37.8090   30.9400   49.4940 C   0  0  2  0  0  0  0  0  0  0  0  0
   36.8510   30.5680   50.6220 C   0  0  0  0  0  0  0  0  0  0  0  0
   36.3760   29.2450   50.0610 C   0  0  0  0  0  0  0  0  0  0  0  0
   36.9010   31.2700   47.6120 H   0  0  0  0  0  0  0  0  0  0  0  0
   37.9120   29.7680   47.6420 H   0  0  0  0  0  0  0  0  0  0  0  0
   38.7440   30.3580   49.6600 H   0  0  0  0  0  0  0  0  0  0  0  0
   37.4530   30.3900   51.5570 H   0  0  0  0  0  0  0  0  0  0  0  0
   36.0460   31.2930   50.7490 H   0  0  0  0  0  0  0  0  0  0  0  0
   35.4820   28.8520   50.5460 H   0  0  0  0  0  0  0  0  0  0  0  0
   37.2300   28.5450   50.0400 H   0  0  0  0  0  0  0  0  0  0  0  0
   38.0390   32.4270   49.4120 C   0  0  0  0  0  0  0  0  0  0  0  0
   36.9280   33.0310   49.9610 F   0  0  0  0  0  0  0  0  0  0  0  0
   38.0420   32.7710   48.0780 F   0  0  0  0  0  0  0  0  0  0  0  0
   39.1990   32.8250   50.0230 F   0  0  0  0  0  0  0  0  0  0  0  0
   31.7260   26.9870   48.3700 S   0  0  0  0  0  0  0  0  0  0  0  0
   30.2520   27.4780   49.0100 C   0  0  0  0  0  0  0  0  0  0  0  0
   29.5530   27.4540   50.1770 C   0  0  0  0  0  0  0  0  0  0  0  0
   28.2900   27.9750   50.3690 C   0  0  0  0  0  0  0  0  0  0  0  0
   27.7520   28.5880   49.1300 C   0  0  0  0  0  0  0  0  0  0  0  0
   29.0560   28.3610   47.8740 S   0  0  0  0  0  0  0  0  0  0  0  0
   30.1100   26.9680   50.9630 H   0  0  0  0  0  0  0  0  0  0  0  0
   27.7590   27.9450   51.2950 H   0  0  0  0  0  0  0  0  0  0  0  0
   26.4400   29.1950   49.1030 C   0  0  0  0  0  0  0  0  0  0  0  0
   25.8380   28.7990   47.9010 F   0  0  0  0  0  0  0  0  0  0  0  0
   25.6220   28.6770   50.0900 F   0  0  0  0  0  0  0  0  0  0  0  0
   26.4140   30.5700   49.2320 F   0  0  0  0  0  0  0  0  0  0  0  0
  1  6  1  0  0  0  0
  1  9  1  0  0  0  0
  2  1  2  0  0  0  0
  3  4  2  0  0  0  0
  3  2  1  0  0  0  0
  4  5  1  0  0  0  0
  5 25  1  0  0  0  0
  5  6  2  0  0  0  0
  7  2  1  0  0  0  0
  8  3  1  0  0  0  0
  9 13  1  0  0  0  0
 10  9  1  0  0  0  0
 10 11  1  0  0  0  0
 11 16  1  1  0  0  0
 11 12  1  0  0  0  0
 12 18  1  0  0  0  0
 12 17  1  0  0  0  0
 13 19  1  0  0  0  0
 13 12  1  0  0  0  0
 14 10  1  0  0  0  0
 15 10  1  0  0  0  0
 20 13  1  0  0  0  0
 21 11  1  0  0  0  0
 21 22  1  0  0  0  0
 21 24  1  0  0  0  0
 23 21  1  0  0  0  0
 25 26  1  0  0  0  0
 26 27  2  0  0  0  0
 27 28  1  0  0  0  0
 27 31  1  0  0  0  0
 28 32  1  0  0  0  0
 29 28  2  0  0  0  0
 30 26  1  0  0  0  0
 30 29  1  0  0  0  0
 33 29  1  0  0  0  0
 33 36  1  0  0  0  0
 33 35  1  0  0  0  0
 34 33  1  0  0  0  0
M  END
>  <minimizedAffinity>
-7.10443592

>  <minimizedRMSD>
0.625839949

$$$$
