
 OpenBabel03272510333D

 23 24  0  0  0  0  0  0  0  0999 V2000
   36.1600   30.1340   48.4560 C   0  0  0  0  0  0  0  0  0  0  0  0
   35.1360   29.9360   47.5460 C   0  0  0  0  0  0  0  0  0  0  0  0
   34.0270   29.1810   47.8740 C   0  0  0  0  0  0  0  0  0  0  0  0
   33.9730   28.6260   49.1470 C   0  0  0  0  0  0  0  0  0  0  0  0
   34.9820   28.8140   50.0660 C   0  0  0  0  0  0  0  0  0  0  0  0
   36.0970   29.5820   49.7160 C   0  0  0  0  0  0  0  0  0  0  0  0
   35.1870   30.3700   46.5560 H   0  0  0  0  0  0  0  0  0  0  0  0
   33.2140   29.0000   47.2040 H   0  0  0  0  0  0  0  0  0  0  0  0
   33.1330   28.0230   49.4700 H   0  0  0  0  0  0  0  0  0  0  0  0
   34.9100   28.3700   51.0480 H   0  0  0  0  0  0  0  0  0  0  0  0
   38.4710   32.9300   48.2310 C   0  0  0  0  0  0  0  0  0  0  0  0
   39.3810   32.5680   47.2400 C   0  0  0  0  0  0  0  0  0  0  0  0
   39.1820   31.3150   46.6370 C   0  0  0  0  0  0  0  0  0  0  0  0
   38.1410   30.5420   47.0400 N   0  0  0  0  0  0  0  0  0  0  0  0
   37.2800   30.9390   48.0120 C   0  0  0  0  0  0  0  0  0  0  0  0
   37.4670   32.1340   48.5890 N   0  0  0  0  0  0  0  0  0  0  0  0
   38.5790   33.8930   48.7320 H   0  0  0  0  0  0  0  0  0  0  0  0
   40.1970   33.2060   46.9430 H   0  0  0  0  0  0  0  0  0  0  0  0
   39.8580   30.9690   45.8520 H   0  0  0  0  0  0  0  0  0  0  0  0
   37.1620   29.7740   50.7120 C   0  0  0  0  0  0  0  0  0  0  0  0
   37.1540   31.0360   51.2490 F   0  0  0  0  0  0  0  0  0  0  0  0
   37.0960   28.7610   51.6420 F   0  0  0  0  0  0  0  0  0  0  0  0
   38.4270   29.6550   50.1080 F   0  0  0  0  0  0  0  0  0  0  0  0
  1  6  1  0  0  0  0
  2  3  1  0  0  0  0
  2  1  2  0  0  0  0
  3  4  2  0  0  0  0
  4  9  1  0  0  0  0
  4  5  1  0  0  0  0
  5 10  1  0  0  0  0
  6  5  2  0  0  0  0
  6 20  1  0  0  0  0
  7  2  1  0  0  0  0
  8  3  1  0  0  0  0
 11 16  1  0  0  0  0
 11 17  1  0  0  0  0
 12 11  2  0  0  0  0
 13 14  2  0  0  0  0
 13 12  1  0  0  0  0
 14 15  1  0  0  0  0
 15  1  1  0  0  0  0
 15 16  2  0  0  0  0
 18 12  1  0  0  0  0
 19 13  1  0  0  0  0
 20 21  1  0  0  0  0
 20 22  1  0  0  0  0
 23 20  1  0  0  0  0
M  END
>  <minimizedAffinity>
-5.84691858

>  <minimizedRMSD>
0.808475018

$$$$
