
 OpenBabel03272500323D

 39 41  0  0  1  0  0  0  0  0999 V2000
   34.1610   29.7710   47.7080 C   0  0  1  0  0  0  0  0  0  0  0  0
   33.5770   30.6440   46.6930 C   0  0  0  0  0  0  0  0  0  0  0  0
   32.3510   29.8570   46.2260 C   0  0  0  0  0  0  0  0  0  0  0  0
   32.9710   28.7930   45.3220 C   0  0  0  0  0  0  0  0  0  0  0  0
   33.9800   27.9540   45.9620 C   0  0  0  0  0  0  0  0  0  0  0  0
   34.4010   28.3250   47.3410 C   0  0  2  0  0  0  0  0  0  0  0  0
   33.5120   29.6440   48.5970 H   0  0  0  0  0  0  0  0  0  0  0  0
   33.9020   30.7090   45.6740 H   0  0  0  0  0  0  0  0  0  0  0  0
   33.1990   31.5830   47.1380 H   0  0  0  0  0  0  0  0  0  0  0  0
   31.7590   29.4790   47.0400 H   0  0  0  0  0  0  0  0  0  0  0  0
   31.6870   30.4850   45.5950 H   0  0  0  0  0  0  0  0  0  0  0  0
   33.4190   29.4060   44.4800 H   0  0  0  0  0  0  0  0  0  0  0  0
   32.1340   28.2730   44.8630 H   0  0  0  0  0  0  0  0  0  0  0  0
   33.6080   26.9080   45.9760 H   0  0  0  0  0  0  0  0  0  0  0  0
   34.8730   27.8890   45.2660 H   0  0  0  0  0  0  0  0  0  0  0  0
   35.4970   28.1620   47.4050 H   0  0  0  0  0  0  0  0  0  0  0  0
   36.3420   30.5430   45.7340 Cl  0  0  0  0  0  0  0  0  0  0  0  0
   36.4830   30.6940   47.4670 C   0  0  0  0  0  0  0  0  0  0  0  0
   37.6860   31.1840   47.8920 C   0  0  0  0  0  0  0  0  0  0  0  0
   37.8520   31.3970   49.2520 C   0  0  0  0  0  0  0  0  0  0  0  0
   36.7880   31.1050   50.0940 C   0  0  0  0  0  0  0  0  0  0  0  0
   35.6070   30.6150   49.5710 C   0  0  0  0  0  0  0  0  0  0  0  0
   35.4050   30.3880   48.2530 C   0  0  0  0  0  0  0  0  0  0  0  0
   38.7990   31.7860   49.6240 H   0  0  0  0  0  0  0  0  0  0  0  0
   36.9980   31.3000   51.1320 H   0  0  0  0  0  0  0  0  0  0  0  0
   34.9010   30.4750   50.3630 H   0  0  0  0  0  0  0  0  0  0  0  0
   40.1070   33.1690   46.0020 C   0  0  0  0  0  0  0  0  0  0  0  0
   40.7360   32.2580   45.1690 C   0  0  0  0  0  0  0  0  0  0  0  0
   40.3190   30.9260   45.2670 C   0  0  0  0  0  0  0  0  0  0  0  0
   39.3360   30.6000   46.1610 N   0  0  0  0  0  0  0  0  0  0  0  0
   38.7610   31.5230   46.9420 C   0  0  0  0  0  0  0  0  0  0  0  0
   39.1530   32.8160   46.8600 N   0  0  0  0  0  0  0  0  0  0  0  0
   40.3930   34.2140   45.9640 H   0  0  0  0  0  0  0  0  0  0  0  0
   41.5080   32.5760   44.4810 H   0  0  0  0  0  0  0  0  0  0  0  0
   40.7770   30.1740   44.6400 H   0  0  0  0  0  0  0  0  0  0  0  0
   33.8260   27.3120   48.3240 C   0  0  0  0  0  0  0  0  0  0  0  0
   34.6250   27.4430   49.4960 F   0  0  0  0  0  0  0  0  0  0  0  0
   32.5670   27.5840   48.7680 F   0  0  0  0  0  0  0  0  0  0  0  0
   33.8650   26.0260   47.9060 F   0  0  0  0  0  0  0  0  0  0  0  0
  1 23  1  0  0  0  0
  1  7  1  1  0  0  0
  2  9  1  0  0  0  0
  2  1  1  0  0  0  0
  3  2  1  0  0  0  0
  3 10  1  0  0  0  0
  4  5  1  0  0  0  0
  4  3  1  0  0  0  0
  5 14  1  0  0  0  0
  5  6  1  0  0  0  0
  6 16  1  1  0  0  0
  6  1  1  0  0  0  0
  6 36  1  0  0  0  0
  8  2  1  0  0  0  0
 11  3  1  0  0  0  0
 12  4  1  0  0  0  0
 13  4  1  0  0  0  0
 15  5  1  0  0  0  0
 17 18  1  0  0  0  0
 18 19  2  0  0  0  0
 18 23  1  0  0  0  0
 19 20  1  0  0  0  0
 20 24  1  0  0  0  0
 20 21  2  0  0  0  0
 21 25  1  0  0  0  0
 22 21  1  0  0  0  0
 22 26  1  0  0  0  0
 23 22  2  0  0  0  0
 27 32  1  0  0  0  0
 28 29  1  0  0  0  0
 28 27  2  0  0  0  0
 29 30  2  0  0  0  0
 30 31  1  0  0  0  0
 31 19  1  0  0  0  0
 32 31  2  0  0  0  0
 33 27  1  0  0  0  0
 34 28  1  0  0  0  0
 35 29  1  0  0  0  0
 36 38  1  0  0  0  0
 36 37  1  0  0  0  0
 39 36  1  0  0  0  0
M  END
>  <minimizedAffinity>
-6.6023159

>  <minimizedRMSD>
1.19390905

$$$$
