
 OpenBabel03272510333D

 23 24  0  0  0  0  0  0  0  0999 V2000
   36.2340   30.4350   48.8320 C   0  0  0  0  0  0  0  0  0  0  0  0
   35.1760   30.3890   47.9410 C   0  0  0  0  0  0  0  0  0  0  0  0
   34.1610   29.4630   48.0860 C   0  0  0  0  0  0  0  0  0  0  0  0
   34.2380   28.5790   49.1550 C   0  0  0  0  0  0  0  0  0  0  0  0
   35.2830   28.6100   50.0520 C   0  0  0  0  0  0  0  0  0  0  0  0
   36.3010   29.5550   49.8890 C   0  0  0  0  0  0  0  0  0  0  0  0
   35.1240   31.0810   47.1100 H   0  0  0  0  0  0  0  0  0  0  0  0
   33.3260   29.3900   47.4220 H   0  0  0  0  0  0  0  0  0  0  0  0
   33.4770   27.8270   49.3270 H   0  0  0  0  0  0  0  0  0  0  0  0
   35.3140   27.9090   50.8720 H   0  0  0  0  0  0  0  0  0  0  0  0
   38.2180   33.4490   49.2670 C   0  0  0  0  0  0  0  0  0  0  0  0
   39.1370   33.4300   48.2200 C   0  0  0  0  0  0  0  0  0  0  0  0
   39.0620   32.3370   47.3410 C   0  0  0  0  0  0  0  0  0  0  0  0
   38.1220   31.3790   47.5520 N   0  0  0  0  0  0  0  0  0  0  0  0
   37.2470   31.4410   48.5890 C   0  0  0  0  0  0  0  0  0  0  0  0
   37.3170   32.4840   49.4280 N   0  0  0  0  0  0  0  0  0  0  0  0
   38.2320   34.2750   49.9780 H   0  0  0  0  0  0  0  0  0  0  0  0
   39.8710   34.2070   48.0800 H   0  0  0  0  0  0  0  0  0  0  0  0
   39.7530   32.2590   46.4980 H   0  0  0  0  0  0  0  0  0  0  0  0
   37.4070   29.5750   50.8590 C   0  0  0  0  0  0  0  0  0  0  0  0
   38.6250   29.7660   50.2580 F   0  0  0  0  0  0  0  0  0  0  0  0
   37.1150   30.4810   51.8540 F   0  0  0  0  0  0  0  0  0  0  0  0
   37.5200   28.3270   51.5000 F   0  0  0  0  0  0  0  0  0  0  0  0
  1  6  1  0  0  0  0
  2  3  1  0  0  0  0
  2  1  2  0  0  0  0
  3  4  2  0  0  0  0
  4  9  1  0  0  0  0
  4  5  1  0  0  0  0
  5 10  1  0  0  0  0
  6  5  2  0  0  0  0
  6 20  1  0  0  0  0
  7  2  1  0  0  0  0
  8  3  1  0  0  0  0
 11 16  1  0  0  0  0
 11 17  1  0  0  0  0
 12 11  2  0  0  0  0
 13 14  2  0  0  0  0
 13 12  1  0  0  0  0
 14 15  1  0  0  0  0
 15  1  1  0  0  0  0
 15 16  2  0  0  0  0
 18 12  1  0  0  0  0
 19 13  1  0  0  0  0
 20 23  1  0  0  0  0
 20 22  1  0  0  0  0
 21 20  1  0  0  0  0
M  END
>  <minimizedAffinity>
-5.89635181

>  <minimizedRMSD>
0.746989548

$$$$
