
 OpenBabel03272510103D

 22 23  0  0  0  0  0  0  0  0999 V2000
   37.4150   21.9520   35.0010 C   0  0  0  0  0  0  0  0  0  0  0  0
   36.3440   21.0740   35.0650 C   0  0  0  0  0  0  0  0  0  0  0  0
   35.6230   20.6230   33.9840 C   0  0  0  0  0  0  0  0  0  0  0  0
   35.9790   21.0730   32.7190 C   0  0  0  0  0  0  0  0  0  0  0  0
   37.0380   21.9390   32.6710 C   0  0  0  0  0  0  0  0  0  0  0  0
   37.7230   22.3600   33.7500 N   0  0  0  0  0  0  0  0  0  0  0  0
   36.0760   20.7290   36.0710 H   0  0  0  0  0  0  0  0  0  0  0  0
   34.8010   19.9360   34.1390 H   0  0  0  0  0  0  0  0  0  0  0  0
   37.3360   22.3040   31.6890 H   0  0  0  0  0  0  0  0  0  0  0  0
   39.5180   22.1940   36.3510 C   0  0  0  0  0  0  0  0  0  0  0  0
   38.1450   22.3990   36.1630 C   0  0  0  0  0  0  0  0  0  0  0  0
   37.4300   23.0760   37.1580 C   0  0  0  0  0  0  0  0  0  0  0  0
   38.1150   23.5010   38.2600 N   0  0  0  0  0  0  0  0  0  0  0  0
   39.4470   23.2810   38.3990 C   0  0  0  0  0  0  0  0  0  0  0  0
   40.1500   22.6370   37.4630 N   0  0  0  0  0  0  0  0  0  0  0  0
   39.9660   21.6630   35.5210 H   0  0  0  0  0  0  0  0  0  0  0  0
   36.3700   23.2730   37.0890 H   0  0  0  0  0  0  0  0  0  0  0  0
   39.9670   23.6320   39.2890 H   0  0  0  0  0  0  0  0  0  0  0  0
   35.2260   20.6120   31.5190 C   0  0  0  0  0  0  0  0  0  0  0  0
   33.9430   20.2690   31.9450 F   0  0  0  0  0  0  0  0  0  0  0  0
   35.1050   21.6030   30.5780 F   0  0  0  0  0  0  0  0  0  0  0  0
   35.8380   19.4980   31.0070 F   0  0  0  0  0  0  0  0  0  0  0  0
  1  2  1  0  0  0  0
  1 11  1  0  0  0  0
  2  7  1  0  0  0  0
  3  8  1  0  0  0  0
  3  2  2  0  0  0  0
  4  3  1  0  0  0  0
  5  4  2  0  0  0  0
  5  6  1  0  0  0  0
  6  1  2  0  0  0  0
  9  5  1  0  0  0  0
 10 15  1  0  0  0  0
 11 10  2  0  0  0  0
 11 12  1  0  0  0  0
 12 13  2  0  0  0  0
 13 14  1  0  0  0  0
 14 18  1  0  0  0  0
 15 14  2  0  0  0  0
 16 10  1  0  0  0  0
 17 12  1  0  0  0  0
 19 20  1  0  0  0  0
 19  4  1  0  0  0  0
 21 19  1  0  0  0  0
 22 19  1  0  0  0  0
M  END
>  <minimizedAffinity>
-4.85561705

$$$$

 OpenBabel03272510103D

 22 23  0  0  0  0  0  0  0  0999 V2000
   38.1310   26.2300   34.2900 C   0  0  0  0  0  0  0  0  0  0  0  0
   38.1590   26.8300   35.5390 C   0  0  0  0  0  0  0  0  0  0  0  0
   38.1840   26.1580   36.7390 C   0  0  0  0  0  0  0  0  0  0  0  0
   38.1800   24.7690   36.7190 C   0  0  0  0  0  0  0  0  0  0  0  0
   38.1520   24.1920   35.4780 C   0  0  0  0  0  0  0  0  0  0  0  0
   38.1280   24.8790   34.3220 N   0  0  0  0  0  0  0  0  0  0  0  0
   38.1620   27.9270   35.5370 H   0  0  0  0  0  0  0  0  0  0  0  0
   38.2060   26.7180   37.6650 H   0  0  0  0  0  0  0  0  0  0  0  0
   38.1480   23.1030   35.4380 H   0  0  0  0  0  0  0  0  0  0  0  0
   37.0580   27.8230   32.6720 C   0  0  0  0  0  0  0  0  0  0  0  0
   38.1060   26.9750   33.0530 C   0  0  0  0  0  0  0  0  0  0  0  0
   39.1990   26.8360   32.1890 C   0  0  0  0  0  0  0  0  0  0  0  0
   39.1810   27.5390   31.0180 N   0  0  0  0  0  0  0  0  0  0  0  0
   38.1430   28.3500   30.6910 C   0  0  0  0  0  0  0  0  0  0  0  0
   37.0900   28.4980   31.4990 N   0  0  0  0  0  0  0  0  0  0  0  0
   36.2710   27.8540   33.4140 H   0  0  0  0  0  0  0  0  0  0  0  0
   40.0450   26.2030   32.4100 H   0  0  0  0  0  0  0  0  0  0  0  0
   38.1570   28.8980   29.7500 H   0  0  0  0  0  0  0  0  0  0  0  0
   38.2060   24.0000   37.9950 C   0  0  0  0  0  0  0  0  0  0  0  0
   37.2100   23.0260   37.9080 F   0  0  0  0  0  0  0  0  0  0  0  0
   39.4040   23.3580   38.1820 F   0  0  0  0  0  0  0  0  0  0  0  0
   37.9140   24.8440   39.0330 F   0  0  0  0  0  0  0  0  0  0  0  0
  1  6  2  0  0  0  0
  1  2  1  0  0  0  0
  2  3  2  0  0  0  0
  3  8  1  0  0  0  0
  4  3  1  0  0  0  0
  4 19  1  0  0  0  0
  5  4  2  0  0  0  0
  6  5  1  0  0  0  0
  7  2  1  0  0  0  0
  9  5  1  0  0  0  0
 10 11  1  0  0  0  0
 10 16  1  0  0  0  0
 11  1  1  0  0  0  0
 12 17  1  0  0  0  0
 12 11  2  0  0  0  0
 13 12  1  0  0  0  0
 14 13  2  0  0  0  0
 14 15  1  0  0  0  0
 15 10  2  0  0  0  0
 18 14  1  0  0  0  0
 19 21  1  0  0  0  0
 19 22  1  0  0  0  0
 20 19  1  0  0  0  0
M  END
>  <minimizedAffinity>
-4.71219969

$$$$

 OpenBabel03272510103D

 22 23  0  0  0  0  0  0  0  0999 V2000
   38.1640   26.1770   34.3090 C   0  0  0  0  0  0  0  0  0  0  0  0
   38.1800   26.7690   35.5630 C   0  0  0  0  0  0  0  0  0  0  0  0
   38.1990   26.0900   36.7580 C   0  0  0  0  0  0  0  0  0  0  0  0
   38.2020   24.7010   36.7300 C   0  0  0  0  0  0  0  0  0  0  0  0
   38.1860   24.1320   35.4860 C   0  0  0  0  0  0  0  0  0  0  0  0
   38.1670   24.8260   34.3340 N   0  0  0  0  0  0  0  0  0  0  0  0
   38.1770   27.8660   35.5670 H   0  0  0  0  0  0  0  0  0  0  0  0
   38.2110   26.6450   37.6880 H   0  0  0  0  0  0  0  0  0  0  0  0
   38.1880   23.0430   35.4380 H   0  0  0  0  0  0  0  0  0  0  0  0
   39.1790   26.9130   32.1340 C   0  0  0  0  0  0  0  0  0  0  0  0
   38.1440   26.9300   33.0770 C   0  0  0  0  0  0  0  0  0  0  0  0
   37.0200   27.7220   32.8180 C   0  0  0  0  0  0  0  0  0  0  0  0
   36.9960   28.4360   31.6550 N   0  0  0  0  0  0  0  0  0  0  0  0
   38.0230   28.3880   30.7690 C   0  0  0  0  0  0  0  0  0  0  0  0
   39.1060   27.6400   30.9940 N   0  0  0  0  0  0  0  0  0  0  0  0
   39.9940   26.2670   32.4370 H   0  0  0  0  0  0  0  0  0  0  0  0
   36.1810   27.7900   33.4950 H   0  0  0  0  0  0  0  0  0  0  0  0
   37.9750   28.9690   29.8480 H   0  0  0  0  0  0  0  0  0  0  0  0
   38.2220   23.9240   38.0010 C   0  0  0  0  0  0  0  0  0  0  0  0
   38.0010   24.8280   39.0400 F   0  0  0  0  0  0  0  0  0  0  0  0
   37.2230   22.9850   38.0430 F   0  0  0  0  0  0  0  0  0  0  0  0
   39.4590   23.3570   38.1590 F   0  0  0  0  0  0  0  0  0  0  0  0
  1  6  2  0  0  0  0
  1  2  1  0  0  0  0
  2  7  1  0  0  0  0
  2  3  2  0  0  0  0
  3  8  1  0  0  0  0
  4  3  1  0  0  0  0
  4 19  1  0  0  0  0
  5  4  2  0  0  0  0
  6  5  1  0  0  0  0
  9  5  1  0  0  0  0
 10 16  1  0  0  0  0
 10 11  1  0  0  0  0
 11  1  1  0  0  0  0
 12 11  2  0  0  0  0
 12 17  1  0  0  0  0
 13 12  1  0  0  0  0
 14 15  1  0  0  0  0
 14 13  2  0  0  0  0
 15 10  2  0  0  0  0
 18 14  1  0  0  0  0
 19 21  1  0  0  0  0
 19 22  1  0  0  0  0
 19 20  1  0  0  0  0
M  END
>  <minimizedAffinity>
-4.70752001

$$$$

 OpenBabel03272510103D

 22 23  0  0  0  0  0  0  0  0999 V2000
   38.2030   25.5170   35.3060 C   0  0  0  0  0  0  0  0  0  0  0  0
   37.9890   26.8220   35.7230 C   0  0  0  0  0  0  0  0  0  0  0  0
   37.3870   27.8050   34.9730 C   0  0  0  0  0  0  0  0  0  0  0  0
   36.9520   27.4860   33.6930 C   0  0  0  0  0  0  0  0  0  0  0  0
   37.1700   26.1950   33.2950 C   0  0  0  0  0  0  0  0  0  0  0  0
   37.7630   25.2560   34.0550 N   0  0  0  0  0  0  0  0  0  0  0  0
   38.3380   27.0570   36.7360 H   0  0  0  0  0  0  0  0  0  0  0  0
   37.2650   28.7960   35.3900 H   0  0  0  0  0  0  0  0  0  0  0  0
   36.8370   25.9210   32.2940 H   0  0  0  0  0  0  0  0  0  0  0  0
   38.3490   24.0960   37.3700 C   0  0  0  0  0  0  0  0  0  0  0  0
   38.8400   24.5160   36.1280 C   0  0  0  0  0  0  0  0  0  0  0  0
   40.0200   23.9360   35.6470 C   0  0  0  0  0  0  0  0  0  0  0  0
   40.6270   22.9890   36.4200 N   0  0  0  0  0  0  0  0  0  0  0  0
   40.1130   22.6120   37.6190 C   0  0  0  0  0  0  0  0  0  0  0  0
   38.9900   23.1510   38.0980 N   0  0  0  0  0  0  0  0  0  0  0  0
   37.4350   24.6100   37.6390 H   0  0  0  0  0  0  0  0  0  0  0  0
   40.4630   24.2060   34.7000 H   0  0  0  0  0  0  0  0  0  0  0  0
   40.6200   21.8530   38.2130 H   0  0  0  0  0  0  0  0  0  0  0  0
   36.2940   28.5180   32.8440 C   0  0  0  0  0  0  0  0  0  0  0  0
   35.9350   29.5740   33.6840 F   0  0  0  0  0  0  0  0  0  0  0  0
   37.1450   29.0140   31.8880 F   0  0  0  0  0  0  0  0  0  0  0  0
   35.1610   27.9860   32.2890 F   0  0  0  0  0  0  0  0  0  0  0  0
  1  2  1  0  0  0  0
  1 11  1  0  0  0  0
  2  7  1  0  0  0  0
  3  8  1  0  0  0  0
  3  2  2  0  0  0  0
  4  3  1  0  0  0  0
  5  4  2  0  0  0  0
  5  6  1  0  0  0  0
  6  1  2  0  0  0  0
  9  5  1  0  0  0  0
 10 16  1  0  0  0  0
 10 15  1  0  0  0  0
 11 10  2  0  0  0  0
 12 11  1  0  0  0  0
 12 13  2  0  0  0  0
 13 14  1  0  0  0  0
 14 15  2  0  0  0  0
 14 18  1  0  0  0  0
 17 12  1  0  0  0  0
 19 20  1  0  0  0  0
 19  4  1  0  0  0  0
 21 19  1  0  0  0  0
 22 19  1  0  0  0  0
M  END
>  <minimizedAffinity>
-4.6818552

$$$$

 OpenBabel03272510103D

 22 23  0  0  0  0  0  0  0  0999 V2000
   38.2190   25.5400   35.2630 C   0  0  0  0  0  0  0  0  0  0  0  0
   37.9880   26.8310   35.7120 C   0  0  0  0  0  0  0  0  0  0  0  0
   37.3680   27.8220   34.9870 C   0  0  0  0  0  0  0  0  0  0  0  0
   36.9330   27.5260   33.7010 C   0  0  0  0  0  0  0  0  0  0  0  0
   37.1680   26.2480   33.2730 C   0  0  0  0  0  0  0  0  0  0  0  0
   37.7780   25.3010   34.0080 N   0  0  0  0  0  0  0  0  0  0  0  0
   38.3380   27.0470   36.7280 H   0  0  0  0  0  0  0  0  0  0  0  0
   37.2340   28.8010   35.4270 H   0  0  0  0  0  0  0  0  0  0  0  0
   36.8350   25.9930   32.2670 H   0  0  0  0  0  0  0  0  0  0  0  0
   40.0490   23.8700   35.6740 C   0  0  0  0  0  0  0  0  0  0  0  0
   38.8750   24.5290   36.0590 C   0  0  0  0  0  0  0  0  0  0  0  0
   38.2940   24.1940   37.2880 C   0  0  0  0  0  0  0  0  0  0  0  0
   38.9100   23.2390   38.0460 N   0  0  0  0  0  0  0  0  0  0  0  0
   40.0480   22.6270   37.6320 C   0  0  0  0  0  0  0  0  0  0  0  0
   40.6200   22.9300   36.4630 N   0  0  0  0  0  0  0  0  0  0  0  0
   40.4070   24.2100   34.7100 H   0  0  0  0  0  0  0  0  0  0  0  0
   37.3900   24.6550   37.6560 H   0  0  0  0  0  0  0  0  0  0  0  0
   40.5170   21.8690   38.2580 H   0  0  0  0  0  0  0  0  0  0  0  0
   36.2560   28.5680   32.8790 C   0  0  0  0  0  0  0  0  0  0  0  0
   35.9210   29.6160   33.7380 F   0  0  0  0  0  0  0  0  0  0  0  0
   37.0840   29.0710   31.9070 F   0  0  0  0  0  0  0  0  0  0  0  0
   35.1080   28.0430   32.3480 F   0  0  0  0  0  0  0  0  0  0  0  0
  1  2  1  0  0  0  0
  1 11  1  0  0  0  0
  2  7  1  0  0  0  0
  3  8  1  0  0  0  0
  3  2  2  0  0  0  0
  4  3  1  0  0  0  0
  5  4  2  0  0  0  0
  5  6  1  0  0  0  0
  6  1  2  0  0  0  0
  9  5  1  0  0  0  0
 10 11  2  0  0  0  0
 10 15  1  0  0  0  0
 11 12  1  0  0  0  0
 12 17  1  0  0  0  0
 12 13  2  0  0  0  0
 14 13  1  0  0  0  0
 14 18  1  0  0  0  0
 15 14  2  0  0  0  0
 16 10  1  0  0  0  0
 19  4  1  0  0  0  0
 19 20  1  0  0  0  0
 21 19  1  0  0  0  0
 22 19  1  0  0  0  0
M  END
>  <minimizedAffinity>
-4.67804432

$$$$

 OpenBabel03272510103D

 22 23  0  0  0  0  0  0  0  0999 V2000
   38.3470   23.9350   34.1990 C   0  0  0  0  0  0  0  0  0  0  0  0
   38.1390   25.0420   35.0080 C   0  0  0  0  0  0  0  0  0  0  0  0
   38.0960   25.0210   36.3820 C   0  0  0  0  0  0  0  0  0  0  0  0
   38.2720   23.8060   37.0310 C   0  0  0  0  0  0  0  0  0  0  0  0
   38.4760   22.7220   36.2190 C   0  0  0  0  0  0  0  0  0  0  0  0
   38.5120   22.7760   34.8760 N   0  0  0  0  0  0  0  0  0  0  0  0
   38.0020   25.9930   34.4800 H   0  0  0  0  0  0  0  0  0  0  0  0
   37.9280   25.9420   36.9250 H   0  0  0  0  0  0  0  0  0  0  0  0
   38.6170   21.7570   36.7060 H   0  0  0  0  0  0  0  0  0  0  0  0
   39.5410   24.2740   32.0170 C   0  0  0  0  0  0  0  0  0  0  0  0
   38.3840   24.0020   32.7580 C   0  0  0  0  0  0  0  0  0  0  0  0
   37.1870   23.7800   32.0660 C   0  0  0  0  0  0  0  0  0  0  0  0
   37.2160   23.8430   30.7020 N   0  0  0  0  0  0  0  0  0  0  0  0
   38.3630   24.1090   30.0260 C   0  0  0  0  0  0  0  0  0  0  0  0
   39.5160   24.3240   30.6650 N   0  0  0  0  0  0  0  0  0  0  0  0
   40.4030   24.4270   32.6540 H   0  0  0  0  0  0  0  0  0  0  0  0
   36.2530   23.5650   32.5630 H   0  0  0  0  0  0  0  0  0  0  0  0
   38.3550   24.1520   28.9380 H   0  0  0  0  0  0  0  0  0  0  0  0
   38.2340   23.7360   38.5190 C   0  0  0  0  0  0  0  0  0  0  0  0
   37.8620   24.9980   38.9800 F   0  0  0  0  0  0  0  0  0  0  0  0
   37.3010   22.8340   38.9650 F   0  0  0  0  0  0  0  0  0  0  0  0
   39.4880   23.4420   38.9850 F   0  0  0  0  0  0  0  0  0  0  0  0
  1  6  2  0  0  0  0
  1  2  1  0  0  0  0
  2  3  2  0  0  0  0
  3  8  1  0  0  0  0
  3  4  1  0  0  0  0
  4 19  1  0  0  0  0
  5  9  1  0  0  0  0
  5  4  2  0  0  0  0
  6  5  1  0  0  0  0
  7  2  1  0  0  0  0
 10 16  1  0  0  0  0
 10 11  1  0  0  0  0
 11  1  1  0  0  0  0
 12 17  1  0  0  0  0
 12 11  2  0  0  0  0
 13 12  1  0  0  0  0
 14 15  1  0  0  0  0
 14 13  2  0  0  0  0
 15 10  2  0  0  0  0
 18 14  1  0  0  0  0
 19 21  1  0  0  0  0
 19 20  1  0  0  0  0
 19 22  1  0  0  0  0
M  END
>  <minimizedAffinity>
-4.65530825

$$$$

 OpenBabel03272510103D

 22 23  0  0  0  0  0  0  0  0999 V2000
   38.0330   25.7990   34.2430 C   0  0  0  0  0  0  0  0  0  0  0  0
   38.1610   24.4290   34.4170 C   0  0  0  0  0  0  0  0  0  0  0  0
   38.2410   23.7900   35.6310 C   0  0  0  0  0  0  0  0  0  0  0  0
   38.1920   24.5580   36.7870 C   0  0  0  0  0  0  0  0  0  0  0  0
   38.0660   25.9080   36.6000 C   0  0  0  0  0  0  0  0  0  0  0  0
   37.9910   26.5030   35.3960 N   0  0  0  0  0  0  0  0  0  0  0  0
   38.1980   23.8380   33.4940 H   0  0  0  0  0  0  0  0  0  0  0  0
   38.3390   22.7120   35.6620 H   0  0  0  0  0  0  0  0  0  0  0  0
   38.0250   26.5310   37.4930 H   0  0  0  0  0  0  0  0  0  0  0  0
   39.0260   27.0810   32.3250 C   0  0  0  0  0  0  0  0  0  0  0  0
   37.9530   26.4290   32.9470 C   0  0  0  0  0  0  0  0  0  0  0  0
   36.7240   26.3830   32.2770 C   0  0  0  0  0  0  0  0  0  0  0  0
   36.6420   26.9780   31.0510 N   0  0  0  0  0  0  0  0  0  0  0  0
   37.7100   27.5970   30.4870 C   0  0  0  0  0  0  0  0  0  0  0  0
   38.8920   27.6550   31.1070 N   0  0  0  0  0  0  0  0  0  0  0  0
   39.9220   27.0530   32.9320 H   0  0  0  0  0  0  0  0  0  0  0  0
   35.8500   25.9010   32.6880 H   0  0  0  0  0  0  0  0  0  0  0  0
   37.6140   28.0630   29.5070 H   0  0  0  0  0  0  0  0  0  0  0  0
   38.2750   23.9080   38.1250 C   0  0  0  0  0  0  0  0  0  0  0  0
   37.2810   22.9300   38.1700 F   0  0  0  0  0  0  0  0  0  0  0  0
   39.4830   23.2870   38.3190 F   0  0  0  0  0  0  0  0  0  0  0  0
   38.0230   24.8430   39.0940 F   0  0  0  0  0  0  0  0  0  0  0  0
  1  2  2  0  0  0  0
  1  6  1  0  0  0  0
  2  3  1  0  0  0  0
  3  8  1  0  0  0  0
  3  4  2  0  0  0  0
  4 19  1  0  0  0  0
  5  4  1  0  0  0  0
  5  9  1  0  0  0  0
  6  5  2  0  0  0  0
  7  2  1  0  0  0  0
 10 16  1  0  0  0  0
 10 11  1  0  0  0  0
 11  1  1  0  0  0  0
 12 17  1  0  0  0  0
 12 11  2  0  0  0  0
 13 12  1  0  0  0  0
 14 13  2  0  0  0  0
 14 15  1  0  0  0  0
 15 10  2  0  0  0  0
 18 14  1  0  0  0  0
 19 20  1  0  0  0  0
 19 21  1  0  0  0  0
 19 22  1  0  0  0  0
M  END
>  <minimizedAffinity>
-4.51894045

$$$$

 OpenBabel03272510103D

 22 23  0  0  0  0  0  0  0  0999 V2000
   37.9870   25.5430   34.6540 C   0  0  0  0  0  0  0  0  0  0  0  0
   37.7370   25.3130   35.9990 C   0  0  0  0  0  0  0  0  0  0  0  0
   38.4500   24.4520   36.8000 C   0  0  0  0  0  0  0  0  0  0  0  0
   39.5050   23.7460   36.2370 C   0  0  0  0  0  0  0  0  0  0  0  0
   39.7390   23.9840   34.9100 C   0  0  0  0  0  0  0  0  0  0  0  0
   39.0230   24.8340   34.1530 N   0  0  0  0  0  0  0  0  0  0  0  0
   36.9010   25.8790   36.4270 H   0  0  0  0  0  0  0  0  0  0  0  0
   38.1760   24.3420   37.8410 H   0  0  0  0  0  0  0  0  0  0  0  0
   40.5630   23.4410   34.4460 H   0  0  0  0  0  0  0  0  0  0  0  0
   36.8170   27.7330   34.2750 C   0  0  0  0  0  0  0  0  0  0  0  0
   37.2130   26.4580   33.8500 C   0  0  0  0  0  0  0  0  0  0  0  0
   36.8390   26.0380   32.5670 C   0  0  0  0  0  0  0  0  0  0  0  0
   36.1070   26.9000   31.8010 N   0  0  0  0  0  0  0  0  0  0  0  0
   35.7470   28.1270   32.2570 C   0  0  0  0  0  0  0  0  0  0  0  0
   36.0910   28.5490   33.4760 N   0  0  0  0  0  0  0  0  0  0  0  0
   37.1620   27.9490   35.2790 H   0  0  0  0  0  0  0  0  0  0  0  0
   37.1040   25.0720   32.1650 H   0  0  0  0  0  0  0  0  0  0  0  0
   35.1630   28.7920   31.6230 H   0  0  0  0  0  0  0  0  0  0  0  0
   40.3050   22.8020   37.0670 C   0  0  0  0  0  0  0  0  0  0  0  0
   39.8710   22.9450   38.3860 F   0  0  0  0  0  0  0  0  0  0  0  0
   40.1010   21.4960   36.6980 F   0  0  0  0  0  0  0  0  0  0  0  0
   41.6280   23.1500   36.9930 F   0  0  0  0  0  0  0  0  0  0  0  0
  1  2  1  0  0  0  0
  2  7  1  0  0  0  0
  2  3  2  0  0  0  0
  3  8  1  0  0  0  0
  4  3  1  0  0  0  0
  4 19  1  0  0  0  0
  5  4  2  0  0  0  0
  6  1  2  0  0  0  0
  6  5  1  0  0  0  0
  9  5  1  0  0  0  0
 10 16  1  0  0  0  0
 11 10  1  0  0  0  0
 11  1  1  0  0  0  0
 12 11  2  0  0  0  0
 13 14  2  0  0  0  0
 13 12  1  0  0  0  0
 14 15  1  0  0  0  0
 15 10  2  0  0  0  0
 17 12  1  0  0  0  0
 18 14  1  0  0  0  0
 19 20  1  0  0  0  0
 21 19  1  0  0  0  0
 22 19  1  0  0  0  0
M  END
>  <minimizedAffinity>
-4.45525265

$$$$

 OpenBabel03272510103D

 22 23  0  0  0  0  0  0  0  0999 V2000
   36.8330   23.5180   32.1240 C   0  0  0  0  0  0  0  0  0  0  0  0
   35.9050   23.0480   31.2070 C   0  0  0  0  0  0  0  0  0  0  0  0
   35.3770   21.7780   31.1960 C   0  0  0  0  0  0  0  0  0  0  0  0
   35.7940   20.8800   32.1710 C   0  0  0  0  0  0  0  0  0  0  0  0
   36.7100   21.3590   33.0680 C   0  0  0  0  0  0  0  0  0  0  0  0
   37.2070   22.6080   33.0510 N   0  0  0  0  0  0  0  0  0  0  0  0
   35.5870   23.7690   30.4450 H   0  0  0  0  0  0  0  0  0  0  0  0
   34.6550   21.5060   30.4370 H   0  0  0  0  0  0  0  0  0  0  0  0
   37.0520   20.6720   33.8420 H   0  0  0  0  0  0  0  0  0  0  0  0
   37.2450   25.7680   33.1600 C   0  0  0  0  0  0  0  0  0  0  0  0
   37.3620   24.8610   32.0990 C   0  0  0  0  0  0  0  0  0  0  0  0
   38.0300   25.2750   30.9400 C   0  0  0  0  0  0  0  0  0  0  0  0
   38.5320   26.5440   30.9100 N   0  0  0  0  0  0  0  0  0  0  0  0
   38.3950   27.3880   31.9640 C   0  0  0  0  0  0  0  0  0  0  0  0
   37.7610   27.0160   33.0800 N   0  0  0  0  0  0  0  0  0  0  0  0
   36.7130   25.3410   34.0010 H   0  0  0  0  0  0  0  0  0  0  0  0
   38.1610   24.6360   30.0790 H   0  0  0  0  0  0  0  0  0  0  0  0
   38.8060   28.3950   31.9120 H   0  0  0  0  0  0  0  0  0  0  0  0
   35.2490   19.4940   32.1970 C   0  0  0  0  0  0  0  0  0  0  0  0
   33.8900   19.5800   31.8940 F   0  0  0  0  0  0  0  0  0  0  0  0
   35.8390   18.6930   31.2530 F   0  0  0  0  0  0  0  0  0  0  0  0
   35.3910   18.9810   33.4600 F   0  0  0  0  0  0  0  0  0  0  0  0
  1  6  1  0  0  0  0
  2  1  2  0  0  0  0
  3  2  1  0  0  0  0
  3  4  2  0  0  0  0
  4 19  1  0  0  0  0
  4  5  1  0  0  0  0
  5  9  1  0  0  0  0
  6  5  2  0  0  0  0
  7  2  1  0  0  0  0
  8  3  1  0  0  0  0
 10 16  1  0  0  0  0
 11  1  1  0  0  0  0
 11 10  2  0  0  0  0
 12 11  1  0  0  0  0
 13 12  2  0  0  0  0
 13 14  1  0  0  0  0
 14 15  2  0  0  0  0
 15 10  1  0  0  0  0
 17 12  1  0  0  0  0
 18 14  1  0  0  0  0
 19 22  1  0  0  0  0
 20 19  1  0  0  0  0
 21 19  1  0  0  0  0
M  END
>  <minimizedAffinity>
-4.37857819

$$$$
