
 OpenBabel03272505203D

 43 45  0  0  1  0  0  0  0  0999 V2000
   40.4780   22.5870   33.6360 C   0  0  0  0  0  0  0  0  0  0  0  0
   39.3970   21.7490   33.2770 C   0  0  0  0  0  0  0  0  0  0  0  0
   38.1070   22.2570   33.1490 C   0  0  0  0  0  0  0  0  0  0  0  0
   38.0360   23.5900   33.4010 N   0  0  0  0  0  0  0  0  0  0  0  0
   39.0420   24.3920   33.7390 C   0  0  0  0  0  0  0  0  0  0  0  0
   40.2750   23.8800   33.8560 N   0  0  0  0  0  0  0  0  0  0  0  0
   38.7900   25.7790   33.9690 N   0  0  0  0  0  0  0  0  0  0  0  0
   39.6060   26.5360   34.9020 C   0  0  0  0  0  0  0  0  0  0  0  0
   38.6270   27.0120   35.9850 C   0  0  0  0  0  0  0  0  0  0  0  0
   37.6370   27.9210   35.3230 C   0  0  0  0  0  0  0  0  0  0  0  0
   36.8510   27.1820   34.2620 C   0  0  0  0  0  0  0  0  0  0  0  0
   37.7240   26.4580   33.2840 C   0  0  1  0  0  0  0  0  0  0  0  0
   41.4780   22.1920   33.7360 H   0  0  0  0  0  0  0  0  0  0  0  0
   39.6730   20.7150   33.1210 H   0  0  0  0  0  0  0  0  0  0  0  0
   40.0230   27.4660   34.4770 H   0  0  0  0  0  0  0  0  0  0  0  0
   40.4410   25.9520   35.3180 H   0  0  0  0  0  0  0  0  0  0  0  0
   39.2180   27.5400   36.7300 H   0  0  0  0  0  0  0  0  0  0  0  0
   38.1340   26.1020   36.3380 H   0  0  0  0  0  0  0  0  0  0  0  0
   36.8770   28.1880   36.1140 H   0  0  0  0  0  0  0  0  0  0  0  0
   38.0880   28.8510   34.9750 H   0  0  0  0  0  0  0  0  0  0  0  0
   36.1720   26.4610   34.7300 H   0  0  0  0  0  0  0  0  0  0  0  0
   36.2310   27.9420   33.7400 H   0  0  0  0  0  0  0  0  0  0  0  0
   37.0780   25.6870   32.7810 H   0  0  0  0  0  0  0  0  0  0  0  0
   36.2620   20.8150   33.7460 C   0  0  0  0  0  0  0  0  0  0  0  0
   37.0760   21.3350   32.7830 C   0  0  0  0  0  0  0  0  0  0  0  0
   36.8400   20.9210   31.4890 C   0  0  0  0  0  0  0  0  0  0  0  0
   35.8780   20.0600   31.1510 C   0  0  0  0  0  0  0  0  0  0  0  0
   35.0360   19.5160   32.1130 C   0  0  0  0  0  0  0  0  0  0  0  0
   35.2540   19.9160   33.4110 C   0  0  0  0  0  0  0  0  0  0  0  0
   37.4840   21.3300   30.7130 H   0  0  0  0  0  0  0  0  0  0  0  0
   35.7470   19.7770   30.1170 H   0  0  0  0  0  0  0  0  0  0  0  0
   34.2570   18.8190   31.8360 H   0  0  0  0  0  0  0  0  0  0  0  0
   34.5720   19.4650   34.1260 H   0  0  0  0  0  0  0  0  0  0  0  0
   35.3740   20.6440   35.9590 N   0  0  0  0  0  0  0  0  0  0  0  0
   36.3160   21.0950   35.1530 C   0  0  0  0  0  0  0  0  0  0  0  0
   37.0480   21.7330   36.1580 N   0  0  0  0  0  0  0  0  0  0  0  0
   35.4180   20.8430   36.9820 H   0  0  0  0  0  0  0  0  0  0  0  0
   37.7660   21.2580   36.7670 H   0  0  0  0  0  0  0  0  0  0  0  0
   36.9490   22.7630   36.4040 H   0  0  0  0  0  0  0  0  0  0  0  0
   38.1790   27.3920   32.2020 C   0  0  0  0  0  0  0  0  0  0  0  0
   37.9950   26.7680   30.9640 F   0  0  0  0  0  0  0  0  0  0  0  0
   39.5530   27.6170   32.2830 F   0  0  0  0  0  0  0  0  0  0  0  0
   37.5310   28.5880   32.1830 F   0  0  0  0  0  0  0  0  0  0  0  0
  1 13  1  0  0  0  0
  1  6  1  0  0  0  0
  2  1  2  0  0  0  0
  3  2  1  0  0  0  0
  3  4  2  0  0  0  0
  4  5  1  0  0  0  0
  5  6  2  0  0  0  0
  5  7  1  0  0  0  0
  7  8  1  0  0  0  0
  8 16  1  0  0  0  0
  8  9  1  0  0  0  0
  9 18  1  0  0  0  0
  9 17  1  0  0  0  0
 10  9  1  0  0  0  0
 10 19  1  0  0  0  0
 11 21  1  0  0  0  0
 11 10  1  0  0  0  0
 12 23  1  6  0  0  0
 12  7  1  0  0  0  0
 12 11  1  0  0  0  0
 14  2  1  0  0  0  0
 15  8  1  0  0  0  0
 20 10  1  0  0  0  0
 22 11  1  0  0  0  0
 24 35  1  0  0  0  0
 25  3  1  0  0  0  0
 25 24  2  0  0  0  0
 26 25  1  0  0  0  0
 27 26  2  0  0  0  0
 27 28  1  0  0  0  0
 28 29  2  0  0  0  0
 29 24  1  0  0  0  0
 29 33  1  0  0  0  0
 30 26  1  0  0  0  0
 31 27  1  0  0  0  0
 32 28  1  0  0  0  0
 34 37  1  0  0  0  0
 35 34  2  0  0  0  0
 35 36  1  0  0  0  0
 36 39  1  0  0  0  0
 36 38  1  0  0  0  0
 40 42  1  0  0  0  0
 40 12  1  0  0  0  0
 41 40  1  0  0  0  0
 43 40  1  0  0  0  0
M  END
>  <minimizedAffinity>
-6.41810989

$$$$

 OpenBabel03272505203D

 43 45  0  0  1  0  0  0  0  0999 V2000
   35.2670   25.3580   30.9630 C   0  0  0  0  0  0  0  0  0  0  0  0
   35.2430   23.9440   31.0050 C   0  0  0  0  0  0  0  0  0  0  0  0
   36.1520   23.2330   31.7830 C   0  0  0  0  0  0  0  0  0  0  0  0
   37.0140   24.0370   32.4580 N   0  0  0  0  0  0  0  0  0  0  0  0
   37.0500   25.3670   32.4300 C   0  0  0  0  0  0  0  0  0  0  0  0
   36.1650   26.0300   31.6740 N   0  0  0  0  0  0  0  0  0  0  0  0
   38.0290   26.0610   33.2070 N   0  0  0  0  0  0  0  0  0  0  0  0
   38.5400   27.3500   32.7740 C   0  0  0  0  0  0  0  0  0  0  0  0
   40.0450   27.1260   32.5660 C   0  0  0  0  0  0  0  0  0  0  0  0
   40.6310   26.7680   33.8980 C   0  0  0  0  0  0  0  0  0  0  0  0
   40.0270   25.4860   34.4260 C   0  0  0  0  0  0  0  0  0  0  0  0
   38.5300   25.5010   34.4310 C   0  0  1  0  0  0  0  0  0  0  0  0
   34.5610   25.9080   30.3600 H   0  0  0  0  0  0  0  0  0  0  0  0
   34.4730   23.4990   30.3900 H   0  0  0  0  0  0  0  0  0  0  0  0
   38.4810   28.1350   33.5480 H   0  0  0  0  0  0  0  0  0  0  0  0
   38.0430   27.7300   31.8690 H   0  0  0  0  0  0  0  0  0  0  0  0
   40.4520   28.0630   32.1900 H   0  0  0  0  0  0  0  0  0  0  0  0
   40.1110   26.2780   31.8780 H   0  0  0  0  0  0  0  0  0  0  0  0
   41.7160   26.5220   33.7080 H   0  0  0  0  0  0  0  0  0  0  0  0
   40.6020   27.5970   34.6050 H   0  0  0  0  0  0  0  0  0  0  0  0
   40.3690   24.6340   33.8270 H   0  0  0  0  0  0  0  0  0  0  0  0
   40.4170   25.3520   35.4570 H   0  0  0  0  0  0  0  0  0  0  0  0
   38.1940   24.4300   34.4960 H   0  0  0  0  0  0  0  0  0  0  0  0
   37.0210   21.0700   31.1450 C   0  0  0  0  0  0  0  0  0  0  0  0
   36.0530   21.8060   31.7620 C   0  0  0  0  0  0  0  0  0  0  0  0
   35.0170   21.1000   32.3360 C   0  0  0  0  0  0  0  0  0  0  0  0
   34.9270   19.7680   32.3140 C   0  0  0  0  0  0  0  0  0  0  0  0
   35.9010   18.9970   31.6920 C   0  0  0  0  0  0  0  0  0  0  0  0
   36.9430   19.6820   31.1120 C   0  0  0  0  0  0  0  0  0  0  0  0
   34.2390   21.6770   32.8310 H   0  0  0  0  0  0  0  0  0  0  0  0
   34.0880   19.2780   32.7840 H   0  0  0  0  0  0  0  0  0  0  0  0
   35.8250   17.9180   31.6760 H   0  0  0  0  0  0  0  0  0  0  0  0
   37.6780   19.0370   30.6390 H   0  0  0  0  0  0  0  0  0  0  0  0
   38.7720   20.8800   29.5280 N   0  0  0  0  0  0  0  0  0  0  0  0
   38.1890   21.5800   30.4810 C   0  0  0  0  0  0  0  0  0  0  0  0
   39.0820   22.6520   30.4170 N   0  0  0  0  0  0  0  0  0  0  0  0
   39.6160   21.2540   29.0420 H   0  0  0  0  0  0  0  0  0  0  0  0
   39.0000   23.4590   29.7420 H   0  0  0  0  0  0  0  0  0  0  0  0
   39.9350   22.7550   31.0440 H   0  0  0  0  0  0  0  0  0  0  0  0
   38.0210   26.1730   35.6730 C   0  0  0  0  0  0  0  0  0  0  0  0
   37.8720   25.2100   36.6760 F   0  0  0  0  0  0  0  0  0  0  0  0
   36.7380   26.6790   35.4760 F   0  0  0  0  0  0  0  0  0  0  0  0
   38.8250   27.1650   36.1440 F   0  0  0  0  0  0  0  0  0  0  0  0
  1  2  2  0  0  0  0
  1  6  1  0  0  0  0
  2  3  1  0  0  0  0
  3  4  2  0  0  0  0
  5  4  1  0  0  0  0
  5  7  1  0  0  0  0
  6  5  2  0  0  0  0
  7 12  1  0  0  0  0
  8  7  1  0  0  0  0
  8 15  1  0  0  0  0
  9  8  1  0  0  0  0
  9 10  1  0  0  0  0
 10 11  1  0  0  0  0
 10 20  1  0  0  0  0
 11 12  1  0  0  0  0
 11 22  1  0  0  0  0
 12 23  1  1  0  0  0
 12 40  1  0  0  0  0
 13  1  1  0  0  0  0
 14  2  1  0  0  0  0
 16  8  1  0  0  0  0
 17  9  1  0  0  0  0
 18  9  1  0  0  0  0
 19 10  1  0  0  0  0
 21 11  1  0  0  0  0
 24 25  1  0  0  0  0
 25  3  1  0  0  0  0
 25 26  2  0  0  0  0
 26 30  1  0  0  0  0
 27 26  1  0  0  0  0
 27 31  1  0  0  0  0
 28 27  2  0  0  0  0
 29 24  2  0  0  0  0
 29 28  1  0  0  0  0
 32 28  1  0  0  0  0
 33 29  1  0  0  0  0
 34 35  2  0  0  0  0
 35 24  1  0  0  0  0
 36 35  1  0  0  0  0
 36 39  1  0  0  0  0
 37 34  1  0  0  0  0
 38 36  1  0  0  0  0
 40 43  1  0  0  0  0
 40 41  1  0  0  0  0
 42 40  1  0  0  0  0
M  END
>  <minimizedAffinity>
-6.23677874

$$$$

 OpenBabel03272505203D

 43 45  0  0  1  0  0  0  0  0999 V2000
   39.5330   23.9100   34.9990 C   0  0  0  0  0  0  0  0  0  0  0  0
   38.8650   25.1290   34.7390 C   0  0  0  0  0  0  0  0  0  0  0  0
   37.8370   25.1990   33.8030 C   0  0  0  0  0  0  0  0  0  0  0  0
   37.5790   24.0040   33.2110 N   0  0  0  0  0  0  0  0  0  0  0  0
   38.1970   22.8490   33.4440 C   0  0  0  0  0  0  0  0  0  0  0  0
   39.1840   22.8070   34.3490 N   0  0  0  0  0  0  0  0  0  0  0  0
   37.7970   21.6790   32.7280 N   0  0  0  0  0  0  0  0  0  0  0  0
   38.7510   20.6220   32.4430 C   0  0  0  0  0  0  0  0  0  0  0  0
   38.8130   20.5520   30.9100 C   0  0  0  0  0  0  0  0  0  0  0  0
   37.4520   20.1510   30.4270 C   0  0  0  0  0  0  0  0  0  0  0  0
   36.4170   21.1830   30.8140 C   0  0  0  0  0  0  0  0  0  0  0  0
   36.4430   21.5210   32.2730 C   0  0  1  0  0  0  0  0  0  0  0  0
   40.3310   23.8570   35.7250 H   0  0  0  0  0  0  0  0  0  0  0  0
   39.2290   25.9640   35.3230 H   0  0  0  0  0  0  0  0  0  0  0  0
   38.4110   19.6180   32.7530 H   0  0  0  0  0  0  0  0  0  0  0  0
   39.7390   20.7980   32.8950 H   0  0  0  0  0  0  0  0  0  0  0  0
   39.5610   19.8010   30.6610 H   0  0  0  0  0  0  0  0  0  0  0  0
   39.0480   21.5700   30.5900 H   0  0  0  0  0  0  0  0  0  0  0  0
   37.4950   20.1900   29.2990 H   0  0  0  0  0  0  0  0  0  0  0  0
   37.1900   19.1310   30.7080 H   0  0  0  0  0  0  0  0  0  0  0  0
   36.5670   22.1020   30.2370 H   0  0  0  0  0  0  0  0  0  0  0  0
   35.4280   20.7630   30.5310 H   0  0  0  0  0  0  0  0  0  0  0  0
   35.9120   22.5060   32.3880 H   0  0  0  0  0  0  0  0  0  0  0  0
   36.9600   26.9100   32.3400 C   0  0  0  0  0  0  0  0  0  0  0  0
   37.2200   26.4740   33.6050 C   0  0  0  0  0  0  0  0  0  0  0  0
   36.8600   27.3200   34.6330 C   0  0  0  0  0  0  0  0  0  0  0  0
   36.2860   28.5110   34.4450 C   0  0  0  0  0  0  0  0  0  0  0  0
   36.0100   28.9760   33.1660 C   0  0  0  0  0  0  0  0  0  0  0  0
   36.3610   28.1480   32.1260 C   0  0  0  0  0  0  0  0  0  0  0  0
   37.0630   26.9830   35.6470 H   0  0  0  0  0  0  0  0  0  0  0  0
   36.0290   29.1250   35.2960 H   0  0  0  0  0  0  0  0  0  0  0  0
   35.5440   29.9410   33.0170 H   0  0  0  0  0  0  0  0  0  0  0  0
   36.1270   28.5550   31.1460 H   0  0  0  0  0  0  0  0  0  0  0  0
   36.3490   25.3890   30.6000 N   0  0  0  0  0  0  0  0  0  0  0  0
   37.2430   26.2080   31.1190 C   0  0  0  0  0  0  0  0  0  0  0  0
   38.1980   26.0030   30.1210 N   0  0  0  0  0  0  0  0  0  0  0  0
   36.5530   24.8840   29.7090 H   0  0  0  0  0  0  0  0  0  0  0  0
   38.2240   26.5220   29.2030 H   0  0  0  0  0  0  0  0  0  0  0  0
   38.9940   25.3010   30.1930 H   0  0  0  0  0  0  0  0  0  0  0  0
   35.6410   20.5210   33.0520 C   0  0  0  0  0  0  0  0  0  0  0  0
   34.3260   20.5300   32.5750 F   0  0  0  0  0  0  0  0  0  0  0  0
   35.5340   20.9000   34.3890 F   0  0  0  0  0  0  0  0  0  0  0  0
   36.1140   19.2470   32.9860 F   0  0  0  0  0  0  0  0  0  0  0  0
  1 13  1  0  0  0  0
  2  1  1  0  0  0  0
  2 14  1  0  0  0  0
  3  2  2  0  0  0  0
  4  5  2  0  0  0  0
  4  3  1  0  0  0  0
  5  6  1  0  0  0  0
  6  1  2  0  0  0  0
  7  5  1  0  0  0  0
  8  7  1  0  0  0  0
  8 15  1  0  0  0  0
  8 16  1  0  0  0  0
  9  8  1  0  0  0  0
 10 20  1  0  0  0  0
 10 11  1  0  0  0  0
 10  9  1  0  0  0  0
 11 12  1  0  0  0  0
 12 23  1  1  0  0  0
 12  7  1  0  0  0  0
 12 40  1  0  0  0  0
 17  9  1  0  0  0  0
 18  9  1  0  0  0  0
 19 10  1  0  0  0  0
 21 11  1  0  0  0  0
 22 11  1  0  0  0  0
 24 25  1  0  0  0  0
 25  3  1  0  0  0  0
 25 26  2  0  0  0  0
 26 30  1  0  0  0  0
 27 26  1  0  0  0  0
 27 31  1  0  0  0  0
 28 27  2  0  0  0  0
 29 24  2  0  0  0  0
 29 28  1  0  0  0  0
 32 28  1  0  0  0  0
 33 29  1  0  0  0  0
 34 35  2  0  0  0  0
 35 24  1  0  0  0  0
 36 39  1  0  0  0  0
 36 35  1  0  0  0  0
 37 34  1  0  0  0  0
 38 36  1  0  0  0  0
 40 42  1  0  0  0  0
 41 40  1  0  0  0  0
 43 40  1  0  0  0  0
M  END
>  <minimizedAffinity>
-6.10735703

$$$$

 OpenBabel03272505203D

 43 45  0  0  1  0  0  0  0  0999 V2000
   35.4250   24.9600   31.3000 C   0  0  0  0  0  0  0  0  0  0  0  0
   35.4750   23.5490   31.2150 C   0  0  0  0  0  0  0  0  0  0  0  0
   36.4580   22.8240   31.8810 C   0  0  0  0  0  0  0  0  0  0  0  0
   37.3130   23.6130   32.5830 N   0  0  0  0  0  0  0  0  0  0  0  0
   37.2800   24.9400   32.6730 C   0  0  0  0  0  0  0  0  0  0  0  0
   36.3230   25.6170   32.0230 N   0  0  0  0  0  0  0  0  0  0  0  0
   38.2620   25.6170   33.4600 N   0  0  0  0  0  0  0  0  0  0  0  0
   38.6840   26.9650   33.1210 C   0  0  0  0  0  0  0  0  0  0  0  0
   40.1850   26.8430   32.8210 C   0  0  0  0  0  0  0  0  0  0  0  0
   40.8580   26.4040   34.0850 C   0  0  0  0  0  0  0  0  0  0  0  0
   40.3500   25.0490   34.5250 C   0  0  0  0  0  0  0  0  0  0  0  0
   38.8560   24.9810   34.6040 C   0  0  1  0  0  0  0  0  0  0  0  0
   34.6610   25.5210   30.7820 H   0  0  0  0  0  0  0  0  0  0  0  0
   34.6960   23.1170   30.6010 H   0  0  0  0  0  0  0  0  0  0  0  0
   38.6260   27.6760   33.9640 H   0  0  0  0  0  0  0  0  0  0  0  0
   38.1210   27.3940   32.2780 H   0  0  0  0  0  0  0  0  0  0  0  0
   40.5230   27.8300   32.5110 H   0  0  0  0  0  0  0  0  0  0  0  0
   40.2570   26.0640   32.0580 H   0  0  0  0  0  0  0  0  0  0  0  0
   41.9430   26.2360   33.8220 H   0  0  0  0  0  0  0  0  0  0  0  0
   40.8250   27.1650   34.8650 H   0  0  0  0  0  0  0  0  0  0  0  0
   40.7010   24.2730   33.8360 H   0  0  0  0  0  0  0  0  0  0  0  0
   40.8000   24.8480   35.5200 H   0  0  0  0  0  0  0  0  0  0  0  0
   38.5780   23.8910   34.5880 H   0  0  0  0  0  0  0  0  0  0  0  0
   36.4180   20.6090   32.8470 C   0  0  0  0  0  0  0  0  0  0  0  0
   36.4310   21.4010   31.7370 C   0  0  0  0  0  0  0  0  0  0  0  0
   36.4180   20.7540   30.5200 C   0  0  0  0  0  0  0  0  0  0  0  0
   36.3930   19.4250   30.3880 C   0  0  0  0  0  0  0  0  0  0  0  0
   36.3790   18.5980   31.5040 C   0  0  0  0  0  0  0  0  0  0  0  0
   36.3930   19.2230   32.7280 C   0  0  0  0  0  0  0  0  0  0  0  0
   36.4270   21.3760   29.6280 H   0  0  0  0  0  0  0  0  0  0  0  0
   36.3840   18.9820   29.4030 H   0  0  0  0  0  0  0  0  0  0  0  0
   36.3590   17.5220   31.3930 H   0  0  0  0  0  0  0  0  0  0  0  0
   36.3810   18.5350   33.5690 H   0  0  0  0  0  0  0  0  0  0  0  0
   35.4900   20.6540   35.0500 N   0  0  0  0  0  0  0  0  0  0  0  0
   36.4280   21.0530   34.2130 C   0  0  0  0  0  0  0  0  0  0  0  0
   37.1080   21.8360   35.1490 N   0  0  0  0  0  0  0  0  0  0  0  0
   35.5010   20.9720   36.0430 H   0  0  0  0  0  0  0  0  0  0  0  0
   37.8330   21.4680   35.8220 H   0  0  0  0  0  0  0  0  0  0  0  0
   36.9580   22.8810   35.2720 H   0  0  0  0  0  0  0  0  0  0  0  0
   38.3810   25.5140   35.9240 C   0  0  0  0  0  0  0  0  0  0  0  0
   38.6830   24.5790   36.9200 F   0  0  0  0  0  0  0  0  0  0  0  0
   36.9910   25.6190   35.9480 F   0  0  0  0  0  0  0  0  0  0  0  0
   38.9250   26.7100   36.2760 F   0  0  0  0  0  0  0  0  0  0  0  0
  1  6  1  0  0  0  0
  2  1  2  0  0  0  0
  2  3  1  0  0  0  0
  3  4  2  0  0  0  0
  4  5  1  0  0  0  0
  5  7  1  0  0  0  0
  6  5  2  0  0  0  0
  7 12  1  0  0  0  0
  8  7  1  0  0  0  0
  8 15  1  0  0  0  0
  9  8  1  0  0  0  0
  9 10  1  0  0  0  0
 10 11  1  0  0  0  0
 10 20  1  0  0  0  0
 11 12  1  0  0  0  0
 11 22  1  0  0  0  0
 12 23  1  6  0  0  0
 12 40  1  0  0  0  0
 13  1  1  0  0  0  0
 14  2  1  0  0  0  0
 16  8  1  0  0  0  0
 17  9  1  0  0  0  0
 18  9  1  0  0  0  0
 19 10  1  0  0  0  0
 21 11  1  0  0  0  0
 24 35  1  0  0  0  0
 25  3  1  0  0  0  0
 25 24  2  0  0  0  0
 26 25  1  0  0  0  0
 27 26  2  0  0  0  0
 27 28  1  0  0  0  0
 28 29  2  0  0  0  0
 29 24  1  0  0  0  0
 29 33  1  0  0  0  0
 30 26  1  0  0  0  0
 31 27  1  0  0  0  0
 32 28  1  0  0  0  0
 34 37  1  0  0  0  0
 35 34  2  0  0  0  0
 35 36  1  0  0  0  0
 36 39  1  0  0  0  0
 36 38  1  0  0  0  0
 40 42  1  0  0  0  0
 40 43  1  0  0  0  0
 40 41  1  0  0  0  0
M  END
>  <minimizedAffinity>
-6.05071306

$$$$

 OpenBabel03272505203D

 43 45  0  0  1  0  0  0  0  0999 V2000
   37.9790   25.8890   35.7130 C   0  0  0  0  0  0  0  0  0  0  0  0
   37.3810   27.0250   35.1200 C   0  0  0  0  0  0  0  0  0  0  0  0
   37.0130   27.0250   33.7780 C   0  0  0  0  0  0  0  0  0  0  0  0
   37.2920   25.8510   33.1530 N   0  0  0  0  0  0  0  0  0  0  0  0
   37.8530   24.7730   33.6950 C   0  0  0  0  0  0  0  0  0  0  0  0
   38.1990   24.7970   34.9900 N   0  0  0  0  0  0  0  0  0  0  0  0
   38.0760   23.6140   32.8900 N   0  0  0  0  0  0  0  0  0  0  0  0
   39.1800   22.7150   33.1740 C   0  0  0  0  0  0  0  0  0  0  0  0
   40.0590   22.7610   31.9160 C   0  0  0  0  0  0  0  0  0  0  0  0
   39.2430   22.2210   30.7810 C   0  0  0  0  0  0  0  0  0  0  0  0
   38.0210   23.0780   30.5390 C   0  0  0  0  0  0  0  0  0  0  0  0
   37.2140   23.3130   31.7790 C   0  0  1  0  0  0  0  0  0  0  0  0
   38.2640   25.8900   36.7540 H   0  0  0  0  0  0  0  0  0  0  0  0
   37.2480   27.8570   35.7990 H   0  0  0  0  0  0  0  0  0  0  0  0
   38.8800   21.6560   33.2640 H   0  0  0  0  0  0  0  0  0  0  0  0
   39.7350   22.9870   34.0840 H   0  0  0  0  0  0  0  0  0  0  0  0
   40.9260   22.1350   32.1170 H   0  0  0  0  0  0  0  0  0  0  0  0
   40.2740   23.8220   31.7620 H   0  0  0  0  0  0  0  0  0  0  0  0
   39.8740   22.3450   29.8530 H   0  0  0  0  0  0  0  0  0  0  0  0
   39.0260   21.1580   30.8890 H   0  0  0  0  0  0  0  0  0  0  0  0
   38.3170   24.0470   30.1230 H   0  0  0  0  0  0  0  0  0  0  0  0
   37.4110   22.5530   29.7740 H   0  0  0  0  0  0  0  0  0  0  0  0
   36.5640   24.2090   31.5800 H   0  0  0  0  0  0  0  0  0  0  0  0
   36.3140   28.3990   31.9170 C   0  0  0  0  0  0  0  0  0  0  0  0
   36.4150   28.2190   33.2650 C   0  0  0  0  0  0  0  0  0  0  0  0
   35.9210   29.2320   34.0590 C   0  0  0  0  0  0  0  0  0  0  0  0
   35.3640   30.3450   33.5770 C   0  0  0  0  0  0  0  0  0  0  0  0
   35.2490   30.5520   32.2090 C   0  0  0  0  0  0  0  0  0  0  0  0
   35.7370   29.5540   31.3980 C   0  0  0  0  0  0  0  0  0  0  0  0
   35.9960   29.0980   35.1360 H   0  0  0  0  0  0  0  0  0  0  0  0
   34.9960   31.1010   34.2570 H   0  0  0  0  0  0  0  0  0  0  0  0
   34.7970   31.4550   31.8220 H   0  0  0  0  0  0  0  0  0  0  0  0
   35.6250   29.7600   30.3370 H   0  0  0  0  0  0  0  0  0  0  0  0
   35.8990   26.6650   30.3240 N   0  0  0  0  0  0  0  0  0  0  0  0
   36.7550   27.4880   30.8980 C   0  0  0  0  0  0  0  0  0  0  0  0
   37.8620   27.0530   30.1640 N   0  0  0  0  0  0  0  0  0  0  0  0
   36.2200   26.0080   29.5800 H   0  0  0  0  0  0  0  0  0  0  0  0
   38.1230   27.4130   29.2070 H   0  0  0  0  0  0  0  0  0  0  0  0
   38.5480   26.3150   30.5030 H   0  0  0  0  0  0  0  0  0  0  0  0
   36.2790   22.1640   32.0170 C   0  0  0  0  0  0  0  0  0  0  0  0
   34.9690   22.6520   32.0560 F   0  0  0  0  0  0  0  0  0  0  0  0
   36.4860   21.6040   33.2770 F   0  0  0  0  0  0  0  0  0  0  0  0
   36.3450   21.1830   31.0770 F   0  0  0  0  0  0  0  0  0  0  0  0
  1 13  1  0  0  0  0
  2  1  1  0  0  0  0
  2 14  1  0  0  0  0
  3  2  2  0  0  0  0
  4  5  2  0  0  0  0
  4  3  1  0  0  0  0
  5  6  1  0  0  0  0
  6  1  2  0  0  0  0
  7  8  1  0  0  0  0
  7  5  1  0  0  0  0
  8 15  1  0  0  0  0
  8 16  1  0  0  0  0
  9 17  1  0  0  0  0
  9  8  1  0  0  0  0
 10 20  1  0  0  0  0
 10  9  1  0  0  0  0
 11 10  1  0  0  0  0
 11 12  1  0  0  0  0
 12 23  1  6  0  0  0
 12 40  1  0  0  0  0
 12  7  1  0  0  0  0
 18  9  1  0  0  0  0
 19 10  1  0  0  0  0
 21 11  1  0  0  0  0
 22 11  1  0  0  0  0
 24 25  1  0  0  0  0
 25  3  1  0  0  0  0
 25 26  2  0  0  0  0
 26 30  1  0  0  0  0
 27 26  1  0  0  0  0
 27 31  1  0  0  0  0
 28 27  2  0  0  0  0
 29 24  2  0  0  0  0
 29 28  1  0  0  0  0
 32 28  1  0  0  0  0
 33 29  1  0  0  0  0
 34 35  2  0  0  0  0
 35 24  1  0  0  0  0
 36 39  1  0  0  0  0
 36 35  1  0  0  0  0
 37 34  1  0  0  0  0
 38 36  1  0  0  0  0
 40 41  1  0  0  0  0
 40 42  1  0  0  0  0
 43 40  1  0  0  0  0
M  END
>  <minimizedAffinity>
-5.92464066

$$$$

 OpenBabel03272505203D

 43 45  0  0  1  0  0  0  0  0999 V2000
   37.4690   24.5260   32.4120 C   0  0  0  0  0  0  0  0  0  0  0  0
   36.8760   23.2790   32.1030 C   0  0  0  0  0  0  0  0  0  0  0  0
   37.1210   22.1540   32.8850 C   0  0  0  0  0  0  0  0  0  0  0  0
   37.9590   22.4040   33.9250 N   0  0  0  0  0  0  0  0  0  0  0  0
   38.5250   23.5700   34.2290 C   0  0  0  0  0  0  0  0  0  0  0  0
   38.2740   24.6390   33.4620 N   0  0  0  0  0  0  0  0  0  0  0  0
   39.3860   23.6590   35.3660 N   0  0  0  0  0  0  0  0  0  0  0  0
   40.4750   24.6180   35.3960 C   0  0  0  0  0  0  0  0  0  0  0  0
   41.7470   23.7650   35.5170 C   0  0  0  0  0  0  0  0  0  0  0  0
   41.6740   23.0370   36.8240 C   0  0  0  0  0  0  0  0  0  0  0  0
   40.4770   22.1140   36.8620 C   0  0  0  0  0  0  0  0  0  0  0  0
   39.1950   22.8010   36.5030 C   0  0  1  0  0  0  0  0  0  0  0  0
   37.2780   25.3980   31.8050 H   0  0  0  0  0  0  0  0  0  0  0  0
   36.2390   23.2990   31.2290 H   0  0  0  0  0  0  0  0  0  0  0  0
   40.4830   25.2550   36.2990 H   0  0  0  0  0  0  0  0  0  0  0  0
   40.4950   25.2780   34.5170 H   0  0  0  0  0  0  0  0  0  0  0  0
   42.5890   24.4540   35.4900 H   0  0  0  0  0  0  0  0  0  0  0  0
   41.6930   23.0600   34.6830 H   0  0  0  0  0  0  0  0  0  0  0  0
   42.5710   22.3520   36.8540 H   0  0  0  0  0  0  0  0  0  0  0  0
   41.7460   23.7060   37.6820 H   0  0  0  0  0  0  0  0  0  0  0  0
   40.6280   21.2720   36.1780 H   0  0  0  0  0  0  0  0  0  0  0  0
   40.4220   21.7060   37.8940 H   0  0  0  0  0  0  0  0  0  0  0  0
   38.4620   21.9960   36.2220 H   0  0  0  0  0  0  0  0  0  0  0  0
   37.2210   19.9160   31.9790 C   0  0  0  0  0  0  0  0  0  0  0  0
   36.4790   20.9370   32.4960 C   0  0  0  0  0  0  0  0  0  0  0  0
   35.1230   20.7150   32.6070 C   0  0  0  0  0  0  0  0  0  0  0  0
   34.5260   19.5770   32.2430 C   0  0  0  0  0  0  0  0  0  0  0  0
   35.2610   18.5240   31.7140 C   0  0  0  0  0  0  0  0  0  0  0  0
   36.6150   18.7240   31.5940 C   0  0  0  0  0  0  0  0  0  0  0  0
   34.5210   21.5220   33.0180 H   0  0  0  0  0  0  0  0  0  0  0  0
   33.4580   19.4690   32.3570 H   0  0  0  0  0  0  0  0  0  0  0  0
   34.7740   17.6030   31.4200 H   0  0  0  0  0  0  0  0  0  0  0  0
   37.1470   17.8730   31.1760 H   0  0  0  0  0  0  0  0  0  0  0  0
   39.1440   19.5220   30.6140 N   0  0  0  0  0  0  0  0  0  0  0  0
   38.6420   19.9140   31.7690 C   0  0  0  0  0  0  0  0  0  0  0  0
   39.8780   20.1920   32.3580 N   0  0  0  0  0  0  0  0  0  0  0  0
   40.1760   19.5280   30.4610 H   0  0  0  0  0  0  0  0  0  0  0  0
   40.4010   21.1030   32.2500 H   0  0  0  0  0  0  0  0  0  0  0  0
   40.4130   19.5080   32.9720 H   0  0  0  0  0  0  0  0  0  0  0  0
   38.6190   23.4880   37.7060 C   0  0  0  0  0  0  0  0  0  0  0  0
   37.3870   22.9010   38.0120 F   0  0  0  0  0  0  0  0  0  0  0  0
   38.3150   24.8190   37.4230 F   0  0  0  0  0  0  0  0  0  0  0  0
   39.4080   23.4370   38.8140 F   0  0  0  0  0  0  0  0  0  0  0  0
  1  6  1  0  0  0  0
  2  1  2  0  0  0  0
  2  3  1  0  0  0  0
  3  4  2  0  0  0  0
  4  5  1  0  0  0  0
  5  7  1  0  0  0  0
  6  5  2  0  0  0  0
  7  8  1  0  0  0  0
  7 12  1  0  0  0  0
  8  9  1  0  0  0  0
  8 15  1  0  0  0  0
  9 10  1  0  0  0  0
 10 19  1  0  0  0  0
 10 11  1  0  0  0  0
 10 20  1  0  0  0  0
 11 22  1  0  0  0  0
 12 23  1  6  0  0  0
 12 11  1  0  0  0  0
 12 40  1  0  0  0  0
 13  1  1  0  0  0  0
 14  2  1  0  0  0  0
 16  8  1  0  0  0  0
 17  9  1  0  0  0  0
 18  9  1  0  0  0  0
 21 11  1  0  0  0  0
 24 25  1  0  0  0  0
 25 26  2  0  0  0  0
 25  3  1  0  0  0  0
 26 30  1  0  0  0  0
 27 31  1  0  0  0  0
 27 26  1  0  0  0  0
 28 27  2  0  0  0  0
 29 28  1  0  0  0  0
 29 24  2  0  0  0  0
 32 28  1  0  0  0  0
 33 29  1  0  0  0  0
 34 35  2  0  0  0  0
 35 24  1  0  0  0  0
 35 36  1  0  0  0  0
 36 39  1  0  0  0  0
 37 34  1  0  0  0  0
 38 36  1  0  0  0  0
 40 41  1  0  0  0  0
 40 43  1  0  0  0  0
 42 40  1  0  0  0  0
M  END
>  <minimizedAffinity>
-5.91701221

$$$$

 OpenBabel03272505203D

 43 45  0  0  1  0  0  0  0  0999 V2000
   39.9170   24.2340   32.7650 C   0  0  0  0  0  0  0  0  0  0  0  0
   39.1730   25.4250   32.9320 C   0  0  0  0  0  0  0  0  0  0  0  0
   37.7810   25.4060   32.9510 C   0  0  0  0  0  0  0  0  0  0  0  0
   37.2670   24.1570   32.7950 N   0  0  0  0  0  0  0  0  0  0  0  0
   37.9520   23.0280   32.6380 C   0  0  0  0  0  0  0  0  0  0  0  0
   39.2910   23.0720   32.6230 N   0  0  0  0  0  0  0  0  0  0  0  0
   37.2490   21.7930   32.4870 N   0  0  0  0  0  0  0  0  0  0  0  0
   37.8200   20.7040   31.7150 C   0  0  0  0  0  0  0  0  0  0  0  0
   36.8270   20.4730   30.5670 C   0  0  0  0  0  0  0  0  0  0  0  0
   35.5310   20.0370   31.1780 C   0  0  0  0  0  0  0  0  0  0  0  0
   34.9720   21.1120   32.0820 C   0  0  0  0  0  0  0  0  0  0  0  0
   35.9610   21.6000   33.0950 C   0  0  1  0  0  0  0  0  0  0  0  0
   40.9960   24.2500   32.7510 H   0  0  0  0  0  0  0  0  0  0  0  0
   39.7810   26.3130   33.0390 H   0  0  0  0  0  0  0  0  0  0  0  0
   37.8480   19.7410   32.2550 H   0  0  0  0  0  0  0  0  0  0  0  0
   38.8370   20.9180   31.3530 H   0  0  0  0  0  0  0  0  0  0  0  0
   37.2530   19.6950   29.9360 H   0  0  0  0  0  0  0  0  0  0  0  0
   36.7150   21.4510   30.0900 H   0  0  0  0  0  0  0  0  0  0  0  0
   34.7920   19.9580   30.3280 H   0  0  0  0  0  0  0  0  0  0  0  0
   35.5970   19.0540   31.6460 H   0  0  0  0  0  0  0  0  0  0  0  0
   34.6280   21.9650   31.4860 H   0  0  0  0  0  0  0  0  0  0  0  0
   34.0840   20.6740   32.5870 H   0  0  0  0  0  0  0  0  0  0  0  0
   35.5880   22.5970   33.4610 H   0  0  0  0  0  0  0  0  0  0  0  0
   37.1500   27.2830   34.3360 C   0  0  0  0  0  0  0  0  0  0  0  0
   37.1130   26.6590   33.1240 C   0  0  0  0  0  0  0  0  0  0  0  0
   36.4130   27.2990   32.1240 C   0  0  0  0  0  0  0  0  0  0  0  0
   35.7900   28.4690   32.2890 C   0  0  0  0  0  0  0  0  0  0  0  0
   35.8130   29.1230   33.5140 C   0  0  0  0  0  0  0  0  0  0  0  0
   36.5060   28.5020   34.5250 C   0  0  0  0  0  0  0  0  0  0  0  0
   36.3770   26.8100   31.1530 H   0  0  0  0  0  0  0  0  0  0  0  0
   35.2580   28.9160   31.4620 H   0  0  0  0  0  0  0  0  0  0  0  0
   35.3080   30.0710   33.6440 H   0  0  0  0  0  0  0  0  0  0  0  0
   36.4960   29.0510   35.4630 H   0  0  0  0  0  0  0  0  0  0  0  0
   38.6220   27.6080   36.1920 N   0  0  0  0  0  0  0  0  0  0  0  0
   37.8140   26.8110   35.5200 C   0  0  0  0  0  0  0  0  0  0  0  0
   37.9810   25.7140   36.3680 N   0  0  0  0  0  0  0  0  0  0  0  0
   39.0980   27.2660   37.0560 H   0  0  0  0  0  0  0  0  0  0  0  0
   37.4350   25.5560   37.2560 H   0  0  0  0  0  0  0  0  0  0  0  0
   38.6800   24.9310   36.1970 H   0  0  0  0  0  0  0  0  0  0  0  0
   35.9710   20.6940   34.2910 C   0  0  0  0  0  0  0  0  0  0  0  0
   35.0200   21.1520   35.2090 F   0  0  0  0  0  0  0  0  0  0  0  0
   37.1850   20.7770   34.9690 F   0  0  0  0  0  0  0  0  0  0  0  0
   35.7050   19.3900   34.0090 F   0  0  0  0  0  0  0  0  0  0  0  0
  1  2  1  0  0  0  0
  2  3  2  0  0  0  0
  2 14  1  0  0  0  0
  3 25  1  0  0  0  0
  4  3  1  0  0  0  0
  5  4  2  0  0  0  0
  6  5  1  0  0  0  0
  6  1  2  0  0  0  0
  7  5  1  0  0  0  0
  7 12  1  0  0  0  0
  8 15  1  0  0  0  0
  8  7  1  0  0  0  0
  9 10  1  0  0  0  0
  9  8  1  0  0  0  0
 10 20  1  0  0  0  0
 10 11  1  0  0  0  0
 11 22  1  0  0  0  0
 11 12  1  0  0  0  0
 12 23  1  1  0  0  0
 12 40  1  0  0  0  0
 13  1  1  0  0  0  0
 16  8  1  0  0  0  0
 17  9  1  0  0  0  0
 18  9  1  0  0  0  0
 19 10  1  0  0  0  0
 21 11  1  0  0  0  0
 24 29  1  0  0  0  0
 24 35  1  0  0  0  0
 25 24  2  0  0  0  0
 26 27  2  0  0  0  0
 26 25  1  0  0  0  0
 27 28  1  0  0  0  0
 28 32  1  0  0  0  0
 28 29  2  0  0  0  0
 29 33  1  0  0  0  0
 30 26  1  0  0  0  0
 31 27  1  0  0  0  0
 34 37  1  0  0  0  0
 35 34  2  0  0  0  0
 35 36  1  0  0  0  0
 36 38  1  0  0  0  0
 39 36  1  0  0  0  0
 40 42  1  0  0  0  0
 40 41  1  0  0  0  0
 43 40  1  0  0  0  0
M  END
>  <minimizedAffinity>
-5.83021784

$$$$

 OpenBabel03272505203D

 43 45  0  0  1  0  0  0  0  0999 V2000
   38.5080   24.5940   33.1870 C   0  0  0  0  0  0  0  0  0  0  0  0
   39.4940   24.0770   34.0590 C   0  0  0  0  0  0  0  0  0  0  0  0
   39.6210   22.7060   34.2680 C   0  0  0  0  0  0  0  0  0  0  0  0
   38.7190   21.9780   33.5590 N   0  0  0  0  0  0  0  0  0  0  0  0
   37.7870   22.4480   32.7350 C   0  0  0  0  0  0  0  0  0  0  0  0
   37.6840   23.7710   32.5500 N   0  0  0  0  0  0  0  0  0  0  0  0
   36.9150   21.5360   32.0640 N   0  0  0  0  0  0  0  0  0  0  0  0
   35.5660   21.9310   31.7010 C   0  0  0  0  0  0  0  0  0  0  0  0
   34.6520   20.9680   32.4740 C   0  0  0  0  0  0  0  0  0  0  0  0
   34.9300   19.5860   31.9670 C   0  0  0  0  0  0  0  0  0  0  0  0
   36.3670   19.1940   32.2300 C   0  0  0  0  0  0  0  0  0  0  0  0
   37.3520   20.2070   31.7340 C   0  0  1  0  0  0  0  0  0  0  0  0
   38.4110   25.6570   33.0260 H   0  0  0  0  0  0  0  0  0  0  0  0
   40.1110   24.8330   34.5250 H   0  0  0  0  0  0  0  0  0  0  0  0
   35.3190   21.7540   30.6390 H   0  0  0  0  0  0  0  0  0  0  0  0
   35.3490   22.9860   31.9260 H   0  0  0  0  0  0  0  0  0  0  0  0
   33.6280   21.2720   32.2640 H   0  0  0  0  0  0  0  0  0  0  0  0
   34.9630   21.0630   33.5180 H   0  0  0  0  0  0  0  0  0  0  0  0
   34.3160   18.8870   32.6060 H   0  0  0  0  0  0  0  0  0  0  0  0
   34.6140   19.4460   30.9330 H   0  0  0  0  0  0  0  0  0  0  0  0
   36.5260   19.0430   33.3040 H   0  0  0  0  0  0  0  0  0  0  0  0
   36.5270   18.2170   31.7240 H   0  0  0  0  0  0  0  0  0  0  0  0
   38.3210   20.0090   32.2700 H   0  0  0  0  0  0  0  0  0  0  0  0
   40.3740   22.1670   36.5000 C   0  0  0  0  0  0  0  0  0  0  0  0
   40.6450   22.2750   35.1680 C   0  0  0  0  0  0  0  0  0  0  0  0
   41.9270   21.9530   34.7740 C   0  0  0  0  0  0  0  0  0  0  0  0
   42.8810   21.5510   35.6170 C   0  0  0  0  0  0  0  0  0  0  0  0
   42.6290   21.4330   36.9770 C   0  0  0  0  0  0  0  0  0  0  0  0
   41.3570   21.7500   37.3910 C   0  0  0  0  0  0  0  0  0  0  0  0
   42.1550   22.0360   33.7130 H   0  0  0  0  0  0  0  0  0  0  0  0
   43.8660   21.3140   35.2410 H   0  0  0  0  0  0  0  0  0  0  0  0
   43.4050   21.1070   37.6570 H   0  0  0  0  0  0  0  0  0  0  0  0
   41.2080   21.6430   38.4630 H   0  0  0  0  0  0  0  0  0  0  0  0
   39.0850   22.8000   38.4110 N   0  0  0  0  0  0  0  0  0  0  0  0
   39.1190   22.4460   37.1410 C   0  0  0  0  0  0  0  0  0  0  0  0
   37.7360   22.5070   36.9540 N   0  0  0  0  0  0  0  0  0  0  0  0
   38.1730   23.0090   38.8740 H   0  0  0  0  0  0  0  0  0  0  0  0
   37.2030   23.3860   36.7180 H   0  0  0  0  0  0  0  0  0  0  0  0
   37.0870   21.6680   37.0330 H   0  0  0  0  0  0  0  0  0  0  0  0
   37.6300   19.9920   30.2760 C   0  0  0  0  0  0  0  0  0  0  0  0
   38.6170   19.0090   30.1470 F   0  0  0  0  0  0  0  0  0  0  0  0
   38.1890   21.1310   29.7010 F   0  0  0  0  0  0  0  0  0  0  0  0
   36.5450   19.6110   29.5480 F   0  0  0  0  0  0  0  0  0  0  0  0
  1  2  1  0  0  0  0
  2  3  2  0  0  0  0
  2 14  1  0  0  0  0
  3 25  1  0  0  0  0
  4  3  1  0  0  0  0
  5  4  2  0  0  0  0
  6  5  1  0  0  0  0
  6  1  2  0  0  0  0
  7  5  1  0  0  0  0
  8 16  1  0  0  0  0
  8  7  1  0  0  0  0
  8  9  1  0  0  0  0
  9 18  1  0  0  0  0
 10 11  1  0  0  0  0
 10  9  1  0  0  0  0
 10 19  1  0  0  0  0
 11 21  1  0  0  0  0
 12  7  1  0  0  0  0
 12 11  1  0  0  0  0
 12 23  1  1  0  0  0
 13  1  1  0  0  0  0
 15  8  1  0  0  0  0
 17  9  1  0  0  0  0
 20 10  1  0  0  0  0
 22 11  1  0  0  0  0
 24 35  1  0  0  0  0
 24 29  1  0  0  0  0
 25 24  2  0  0  0  0
 26 25  1  0  0  0  0
 26 27  2  0  0  0  0
 27 28  1  0  0  0  0
 28 29  2  0  0  0  0
 28 32  1  0  0  0  0
 29 33  1  0  0  0  0
 30 26  1  0  0  0  0
 31 27  1  0  0  0  0
 34 37  1  0  0  0  0
 35 34  2  0  0  0  0
 36 39  1  0  0  0  0
 36 35  1  0  0  0  0
 38 36  1  0  0  0  0
 40 12  1  0  0  0  0
 41 40  1  0  0  0  0
 42 40  1  0  0  0  0
 43 40  1  0  0  0  0
M  END
>  <minimizedAffinity>
-5.7988534

$$$$

 OpenBabel03272505203D

 43 45  0  0  1  0  0  0  0  0999 V2000
   40.0110   22.3860   34.5340 C   0  0  0  0  0  0  0  0  0  0  0  0
   38.9270   21.6550   33.9950 C   0  0  0  0  0  0  0  0  0  0  0  0
   37.7760   22.3000   33.5500 C   0  0  0  0  0  0  0  0  0  0  0  0
   37.8360   23.6500   33.6970 N   0  0  0  0  0  0  0  0  0  0  0  0
   38.8470   24.3520   34.2010 C   0  0  0  0  0  0  0  0  0  0  0  0
   39.9450   23.7090   34.6220 N   0  0  0  0  0  0  0  0  0  0  0  0
   38.7450   25.7750   34.2820 N   0  0  0  0  0  0  0  0  0  0  0  0
   39.4380   26.5100   35.3250 C   0  0  0  0  0  0  0  0  0  0  0  0
   38.3250   27.1960   36.1300 C   0  0  0  0  0  0  0  0  0  0  0  0
   37.6330   28.1530   35.2080 C   0  0  0  0  0  0  0  0  0  0  0  0
   36.9990   27.4220   34.0470 C   0  0  0  0  0  0  0  0  0  0  0  0
   37.9520   26.5120   33.3360 C   0  0  1  0  0  0  0  0  0  0  0  0
   40.9030   21.8850   34.8780 H   0  0  0  0  0  0  0  0  0  0  0  0
   39.0860   20.5860   33.9690 H   0  0  0  0  0  0  0  0  0  0  0  0
   40.0590   27.3410   34.9470 H   0  0  0  0  0  0  0  0  0  0  0  0
   40.0770   25.8700   35.9520 H   0  0  0  0  0  0  0  0  0  0  0  0
   38.8100   27.7150   36.9540 H   0  0  0  0  0  0  0  0  0  0  0  0
   37.6490   26.3880   36.4200 H   0  0  0  0  0  0  0  0  0  0  0  0
   36.7660   28.5810   35.7910 H   0  0  0  0  0  0  0  0  0  0  0  0
   38.2710   28.9870   34.9130 H   0  0  0  0  0  0  0  0  0  0  0  0
   36.1430   26.8330   34.3950 H   0  0  0  0  0  0  0  0  0  0  0  0
   36.6150   28.1990   33.3530 H   0  0  0  0  0  0  0  0  0  0  0  0
   37.3290   25.7810   32.7500 H   0  0  0  0  0  0  0  0  0  0  0  0
   35.9840   21.9280   31.9730 C   0  0  0  0  0  0  0  0  0  0  0  0
   36.7310   21.4790   33.0220 C   0  0  0  0  0  0  0  0  0  0  0  0
   36.4140   20.2300   33.5120 C   0  0  0  0  0  0  0  0  0  0  0  0
   35.4370   19.4670   33.0170 C   0  0  0  0  0  0  0  0  0  0  0  0
   34.6630   19.9020   31.9490 C   0  0  0  0  0  0  0  0  0  0  0  0
   34.9620   21.1450   31.4450 C   0  0  0  0  0  0  0  0  0  0  0  0
   37.0040   19.8620   34.3490 H   0  0  0  0  0  0  0  0  0  0  0  0
   35.2410   18.4960   33.4490 H   0  0  0  0  0  0  0  0  0  0  0  0
   33.8720   19.2800   31.5500 H   0  0  0  0  0  0  0  0  0  0  0  0
   34.3300   21.4420   30.6120 H   0  0  0  0  0  0  0  0  0  0  0  0
   35.2080   24.1250   31.4350 N   0  0  0  0  0  0  0  0  0  0  0  0
   36.1270   23.1890   31.2990 C   0  0  0  0  0  0  0  0  0  0  0  0
   36.9440   23.9350   30.4460 N   0  0  0  0  0  0  0  0  0  0  0  0
   35.3170   25.0420   30.9510 H   0  0  0  0  0  0  0  0  0  0  0  0
   37.6680   24.6310   30.7690 H   0  0  0  0  0  0  0  0  0  0  0  0
   36.9120   23.8720   29.3850 H   0  0  0  0  0  0  0  0  0  0  0  0
   38.7520   27.2820   32.3270 C   0  0  0  0  0  0  0  0  0  0  0  0
   38.0080   28.3950   31.9200 F   0  0  0  0  0  0  0  0  0  0  0  0
   38.9380   26.5380   31.1640 F   0  0  0  0  0  0  0  0  0  0  0  0
   39.9600   27.7140   32.7790 F   0  0  0  0  0  0  0  0  0  0  0  0
  1  6  1  0  0  0  0
  1 13  1  0  0  0  0
  2  1  2  0  0  0  0
  3  4  2  0  0  0  0
  3  2  1  0  0  0  0
  4  5  1  0  0  0  0
  5  7  1  0  0  0  0
  5  6  2  0  0  0  0
  7  8  1  0  0  0  0
  8 16  1  0  0  0  0
  8  9  1  0  0  0  0
  9 18  1  0  0  0  0
  9 17  1  0  0  0  0
 10 19  1  0  0  0  0
 10  9  1  0  0  0  0
 11 21  1  0  0  0  0
 11 10  1  0  0  0  0
 12 23  1  6  0  0  0
 12 11  1  0  0  0  0
 12  7  1  0  0  0  0
 14  2  1  0  0  0  0
 15  8  1  0  0  0  0
 20 10  1  0  0  0  0
 22 11  1  0  0  0  0
 24 25  1  0  0  0  0
 25 26  2  0  0  0  0
 25  3  1  0  0  0  0
 26 30  1  0  0  0  0
 27 31  1  0  0  0  0
 27 26  1  0  0  0  0
 28 27  2  0  0  0  0
 29 28  1  0  0  0  0
 29 24  2  0  0  0  0
 32 28  1  0  0  0  0
 33 29  1  0  0  0  0
 35 34  2  0  0  0  0
 35 24  1  0  0  0  0
 36 38  1  0  0  0  0
 36 35  1  0  0  0  0
 37 34  1  0  0  0  0
 39 36  1  0  0  0  0
 40 43  1  0  0  0  0
 40 12  1  0  0  0  0
 41 40  1  0  0  0  0
 42 40  1  0  0  0  0
M  END
>  <minimizedAffinity>
-5.79195261

$$$$
