
 OpenBabel03272510163D

 23 24  0  0  0  0  0  0  0  0999 V2000
   37.2940   29.3260   51.0240 Br  0  0  0  0  0  0  0  0  0  0  0  0
   35.9480   29.3330   49.6620 C   0  0  0  0  0  0  0  0  0  0  0  0
   35.9860   30.2650   48.6490 C   0  0  0  0  0  0  0  0  0  0  0  0
   34.9800   30.2210   47.6900 C   0  0  0  0  0  0  0  0  0  0  0  0
   33.9610   29.2800   47.7280 C   0  0  0  0  0  0  0  0  0  0  0  0
   33.9610   28.3700   48.7530 C   0  0  0  0  0  0  0  0  0  0  0  0
   34.9570   28.4050   49.7140 C   0  0  0  0  0  0  0  0  0  0  0  0
   34.9960   30.9480   46.8860 H   0  0  0  0  0  0  0  0  0  0  0  0
   33.1600   27.6550   48.7550 H   0  0  0  0  0  0  0  0  0  0  0  0
   34.8770   27.6490   50.4860 H   0  0  0  0  0  0  0  0  0  0  0  0
   37.9880   33.1920   49.4670 C   0  0  0  0  0  0  0  0  0  0  0  0
   39.0210   33.1850   48.4940 C   0  0  0  0  0  0  0  0  0  0  0  0
   39.0130   32.1580   47.5560 C   0  0  0  0  0  0  0  0  0  0  0  0
   38.0210   31.2200   47.6210 N   0  0  0  0  0  0  0  0  0  0  0  0
   37.0450   31.2680   48.5800 C   0  0  0  0  0  0  0  0  0  0  0  0
   37.0370   32.2510   49.4930 N   0  0  0  0  0  0  0  0  0  0  0  0
   37.9310   33.9610   50.2290 H   0  0  0  0  0  0  0  0  0  0  0  0
   39.7570   33.9510   48.5100 H   0  0  0  0  0  0  0  0  0  0  0  0
   39.7770   32.1060   46.7920 H   0  0  0  0  0  0  0  0  0  0  0  0
   32.9340   29.3220   46.6510 C   0  0  0  0  0  0  0  0  0  0  0  0
   33.4810   28.7360   45.5250 F   0  0  0  0  0  0  0  0  0  0  0  0
   31.7790   28.6950   47.0750 F   0  0  0  0  0  0  0  0  0  0  0  0
   32.5660   30.6210   46.3440 F   0  0  0  0  0  0  0  0  0  0  0  0
  2  7  1  0  0  0  0
  2  1  1  0  0  0  0
  3  2  2  0  0  0  0
  4  5  2  0  0  0  0
  4  3  1  0  0  0  0
  5  6  1  0  0  0  0
  6  9  1  0  0  0  0
  6  7  2  0  0  0  0
  7 10  1  0  0  0  0
  8  4  1  0  0  0  0
 11 16  1  0  0  0  0
 11 17  1  0  0  0  0
 12 18  1  0  0  0  0
 12 11  2  0  0  0  0
 13 14  2  0  0  0  0
 13 12  1  0  0  0  0
 14 15  1  0  0  0  0
 15  3  1  0  0  0  0
 15 16  2  0  0  0  0
 19 13  1  0  0  0  0
 20 22  1  0  0  0  0
 20  5  1  0  0  0  0
 21 20  1  0  0  0  0
 23 20  1  0  0  0  0
M  END
>  <minimizedAffinity>
-5.77942181

>  <minimizedRMSD>
0.13091217

$$$$
