
 OpenBabel03272502203D

 23 24  0  0  0  0  0  0  0  0999 V2000
   38.5900   32.5210   48.2430 C   0  0  0  0  0  0  0  0  0  0  0  0
   39.4210   32.2140   47.1460 C   0  0  0  0  0  0  0  0  0  0  0  0
   39.0670   31.0890   46.3870 C   0  0  0  0  0  0  0  0  0  0  0  0
   37.9600   30.3580   46.7380 N   0  0  0  0  0  0  0  0  0  0  0  0
   37.1940   30.7050   47.8120 C   0  0  0  0  0  0  0  0  0  0  0  0
   37.5200   31.7860   48.5540 N   0  0  0  0  0  0  0  0  0  0  0  0
   40.2770   32.8020   46.8980 H   0  0  0  0  0  0  0  0  0  0  0  0
   39.6610   30.7990   45.5340 H   0  0  0  0  0  0  0  0  0  0  0  0
   37.4260   29.3700   50.6350 Br  0  0  0  0  0  0  0  0  0  0  0  0
   35.9660   29.2870   49.4150 C   0  0  0  0  0  0  0  0  0  0  0  0
   36.0200   29.9400   48.1930 C   0  0  0  0  0  0  0  0  0  0  0  0
   34.9240   29.8370   47.3550 C   0  0  0  0  0  0  0  0  0  0  0  0
   33.7820   29.1170   47.6790 C   0  0  0  0  0  0  0  0  0  0  0  0
   33.7600   28.4820   48.8980 C   0  0  0  0  0  0  0  0  0  0  0  0
   34.8500   28.5740   49.7490 C   0  0  0  0  0  0  0  0  0  0  0  0
   34.9140   30.3330   46.3790 H   0  0  0  0  0  0  0  0  0  0  0  0
   32.9310   29.0350   47.0310 H   0  0  0  0  0  0  0  0  0  0  0  0
   32.9260   27.8850   49.2720 H   0  0  0  0  0  0  0  0  0  0  0  0
   34.8330   28.0690   50.7180 H   0  0  0  0  0  0  0  0  0  0  0  0
   38.9970   33.7220   49.0250 C   0  0  0  0  0  0  0  0  0  0  0  0
   37.9120   34.5360   49.2620 F   0  0  0  0  0  0  0  0  0  0  0  0
   39.9740   34.4610   48.3510 F   0  0  0  0  0  0  0  0  0  0  0  0
   39.5300   33.4110   50.2540 F   0  0  0  0  0  0  0  0  0  0  0  0
  1  6  1  0  0  0  0
  1 20  1  0  0  0  0
  2  1  2  0  0  0  0
  3  4  2  0  0  0  0
  3  2  1  0  0  0  0
  4  5  1  0  0  0  0
  5 11  1  0  0  0  0
  5  6  2  0  0  0  0
  7  2  1  0  0  0  0
  8  3  1  0  0  0  0
 10 15  1  0  0  0  0
 10  9  1  0  0  0  0
 11 10  2  0  0  0  0
 12 13  2  0  0  0  0
 12 11  1  0  0  0  0
 13 14  1  0  0  0  0
 14 18  1  0  0  0  0
 14 15  2  0  0  0  0
 15 19  1  0  0  0  0
 16 12  1  0  0  0  0
 17 13  1  0  0  0  0
 20 21  1  0  0  0  0
 20 23  1  0  0  0  0
 22 20  1  0  0  0  0
M  END
>  <minimizedAffinity>
-6.1964283

>  <minimizedRMSD>
1.2361033

$$$$
