
 OpenBabel03272506463D

 37 39  0  0  1  0  0  0  0  0999 V2000
   32.3440   28.5200   47.2970 C   0  0  2  0  0  0  0  0  0  0  0  0
   33.5380   28.4610   48.2020 C   0  0  1  0  0  0  0  0  0  0  0  0
   34.0400   27.1940   48.1570 O   0  0  0  0  0  0  0  0  0  0  0  0
   33.4570   26.5080   47.0970 C   0  0  0  0  0  0  0  0  0  0  0  0
   32.8300   27.5340   46.1880 C   0  0  1  0  0  0  0  0  0  0  0  0
   31.4120   28.1480   47.7120 H   0  0  0  0  0  0  0  0  0  0  0  0
   33.2760   28.8220   49.2130 H   0  0  0  0  0  0  0  0  0  0  0  0
   32.7930   25.7760   47.5290 H   0  0  0  0  0  0  0  0  0  0  0  0
   34.2540   25.9250   46.5650 H   0  0  0  0  0  0  0  0  0  0  0  0
   33.5200   28.0870   45.5620 H   0  0  0  0  0  0  0  0  0  0  0  0
   32.2100   29.8050   46.7330 O   0  0  0  0  0  0  0  0  0  0  0  0
   31.3080   30.1560   46.8170 H   0  0  0  0  0  0  0  0  0  0  0  0
   34.8100   29.5980   47.5170 S   0  0  0  0  0  0  0  0  0  0  0  0
   37.2290   29.2830   50.6330 C   0  0  0  0  0  0  0  0  0  0  0  0
   37.7660   30.5620   50.8160 C   0  0  0  0  0  0  0  0  0  0  0  0
   37.3520   31.5670   49.9240 C   0  0  0  0  0  0  0  0  0  0  0  0
   36.4670   31.2480   48.9470 N   0  0  0  0  0  0  0  0  0  0  0  0
   35.9770   29.9950   48.8140 C   0  0  0  0  0  0  0  0  0  0  0  0
   36.3500   28.9940   49.6540 N   0  0  0  0  0  0  0  0  0  0  0  0
   37.5320   28.4970   51.3060 H   0  0  0  0  0  0  0  0  0  0  0  0
   38.4720   30.7880   51.6060 H   0  0  0  0  0  0  0  0  0  0  0  0
   37.7160   32.5710   49.9950 H   0  0  0  0  0  0  0  0  0  0  0  0
   31.7660   26.9620   45.5350 O   0  0  0  0  0  0  0  0  0  0  0  0
   30.2880   28.9240   43.9100 Cl  0  0  0  0  0  0  0  0  0  0  0  0
   29.6970   27.9230   45.2160 C   0  0  0  0  0  0  0  0  0  0  0  0
   30.4910   27.0290   45.8990 C   0  0  0  0  0  0  0  0  0  0  0  0
   29.8990   26.2660   46.9090 C   0  0  0  0  0  0  0  0  0  0  0  0
   28.5600   26.4120   47.2060 C   0  0  0  0  0  0  0  0  0  0  0  0
   27.7550   27.3100   46.5250 C   0  0  0  0  0  0  0  0  0  0  0  0
   28.3500   28.0670   45.5190 C   0  0  0  0  0  0  0  0  0  0  0  0
   30.4340   25.5380   47.4930 H   0  0  0  0  0  0  0  0  0  0  0  0
   28.0420   25.8560   47.9720 H   0  0  0  0  0  0  0  0  0  0  0  0
   26.7060   27.4330   46.7480 H   0  0  0  0  0  0  0  0  0  0  0  0
   27.4950   29.0340   44.7820 C   0  0  0  0  0  0  0  0  0  0  0  0
   27.5480   28.8330   43.4150 F   0  0  0  0  0  0  0  0  0  0  0  0
   28.0030   30.3100   45.0550 F   0  0  0  0  0  0  0  0  0  0  0  0
   26.2100   29.0440   45.2480 F   0  0  0  0  0  0  0  0  0  0  0  0
  1  6  1  1  0  0  0
  1  2  1  0  0  0  0
  2  7  1  1  0  0  0
  3  2  1  0  0  0  0
  4  8  1  0  0  0  0
  4  3  1  0  0  0  0
  5 10  1  6  0  0  0
  5  4  1  0  0  0  0
  5  1  1  0  0  0  0
  9  4  1  0  0  0  0
 11 12  1  0  0  0  0
 11  1  1  0  0  0  0
 13  2  1  0  0  0  0
 13 18  1  0  0  0  0
 14 15  1  0  0  0  0
 14 20  1  0  0  0  0
 15 21  1  0  0  0  0
 16 22  1  0  0  0  0
 16 15  2  0  0  0  0
 17 16  1  0  0  0  0
 18 17  2  0  0  0  0
 18 19  1  0  0  0  0
 19 14  2  0  0  0  0
 23 26  1  0  0  0  0
 23  5  1  0  0  0  0
 24 25  1  0  0  0  0
 25 30  2  0  0  0  0
 25 26  1  0  0  0  0
 26 27  2  0  0  0  0
 27 28  1  0  0  0  0
 27 31  1  0  0  0  0
 28 32  1  0  0  0  0
 29 33  1  0  0  0  0
 29 28  2  0  0  0  0
 30 29  1  0  0  0  0
 34 36  1  0  0  0  0
 34 37  1  0  0  0  0
 34 30  1  0  0  0  0
 35 34  1  0  0  0  0
M  END
>  <minimizedAffinity>
-4.7345438

>  <minimizedRMSD>
0.443744481

$$$$
