
 OpenBabel03272508143D

 23 24  0  0  0  0  0  0  0  0999 V2000
   36.6280   31.9440   50.1360 Cl  0  0  0  0  0  0  0  0  0  0  0  0
   37.3490   31.7720   48.5610 C   0  0  0  0  0  0  0  0  0  0  0  0
   36.7800   30.7930   47.7890 C   0  0  0  0  0  0  0  0  0  0  0  0
   37.2890   30.5730   46.4990 C   0  0  0  0  0  0  0  0  0  0  0  0
   38.3230   31.3020   46.0080 C   0  0  0  0  0  0  0  0  0  0  0  0
   38.8850   32.2820   46.7970 C   0  0  0  0  0  0  0  0  0  0  0  0
   40.2140   33.2390   46.1970 Cl  0  0  0  0  0  0  0  0  0  0  0  0
   38.3970   32.5030   48.0490 C   0  0  0  0  0  0  0  0  0  0  0  0
   36.9020   29.8230   45.8200 H   0  0  0  0  0  0  0  0  0  0  0  0
   38.7350   31.1550   45.0190 H   0  0  0  0  0  0  0  0  0  0  0  0
   35.8370   28.9800   49.1730 C   0  0  0  0  0  0  0  0  0  0  0  0
   35.6620   29.8880   48.1110 C   0  0  0  0  0  0  0  0  0  0  0  0
   34.4400   29.8760   47.4270 C   0  0  0  0  0  0  0  0  0  0  0  0
   33.4870   28.9940   47.8190 N   0  0  0  0  0  0  0  0  0  0  0  0
   33.6900   28.1330   48.8460 C   0  0  0  0  0  0  0  0  0  0  0  0
   34.8670   28.1290   49.5220 N   0  0  0  0  0  0  0  0  0  0  0  0
   36.7490   28.9470   49.7290 H   0  0  0  0  0  0  0  0  0  0  0  0
   34.3250   30.5790   46.6150 H   0  0  0  0  0  0  0  0  0  0  0  0
   32.8080   27.5220   48.9900 H   0  0  0  0  0  0  0  0  0  0  0  0
   38.9470   33.5440   48.9670 C   0  0  0  0  0  0  0  0  0  0  0  0
   39.9980   34.2320   48.4290 F   0  0  0  0  0  0  0  0  0  0  0  0
   37.8930   34.3660   49.3070 F   0  0  0  0  0  0  0  0  0  0  0  0
   39.4090   32.9680   50.1380 F   0  0  0  0  0  0  0  0  0  0  0  0
  2  1  1  0  0  0  0
  3 12  1  0  0  0  0
  3  2  2  0  0  0  0
  4  3  1  0  0  0  0
  5  4  2  0  0  0  0
  5  6  1  0  0  0  0
  6  8  2  0  0  0  0
  7  6  1  0  0  0  0
  8  2  1  0  0  0  0
  8 20  1  0  0  0  0
  9  4  1  0  0  0  0
 10  5  1  0  0  0  0
 11 16  1  0  0  0  0
 11 17  1  0  0  0  0
 12 11  2  0  0  0  0
 13 14  2  0  0  0  0
 13 12  1  0  0  0  0
 14 15  1  0  0  0  0
 15 19  1  0  0  0  0
 15 16  2  0  0  0  0
 18 13  1  0  0  0  0
 20 22  1  0  0  0  0
 20 23  1  0  0  0  0
 21 20  1  0  0  0  0
M  END
>  <minimizedAffinity>
-6.49106598

>  <minimizedRMSD>
2.14718914

$$$$
