
 OpenBabel03272506473D

 37 39  0  0  1  0  0  0  0  0999 V2000
   32.3100   28.5580   47.4260 C   0  0  2  0  0  0  0  0  0  0  0  0
   33.5760   28.2810   48.1820 C   0  0  1  0  0  0  0  0  0  0  0  0
   33.9110   26.9760   47.9810 O   0  0  0  0  0  0  0  0  0  0  0  0
   33.1430   26.4600   46.9430 C   0  0  0  0  0  0  0  0  0  0  0  0
   32.5550   27.6300   46.1950 C   0  0  1  0  0  0  0  0  0  0  0  0
   31.3870   28.2570   47.9140 H   0  0  0  0  0  0  0  0  0  0  0  0
   33.4650   28.5750   49.2420 H   0  0  0  0  0  0  0  0  0  0  0  0
   32.4420   25.7720   47.3870 H   0  0  0  0  0  0  0  0  0  0  0  0
   33.8020   25.8430   46.2790 H   0  0  0  0  0  0  0  0  0  0  0  0
   33.2390   28.1570   45.5410 H   0  0  0  0  0  0  0  0  0  0  0  0
   32.2770   29.8960   46.9850 O   0  0  0  0  0  0  0  0  0  0  0  0
   31.4390   30.3380   47.1980 H   0  0  0  0  0  0  0  0  0  0  0  0
   34.8990   29.3260   47.4500 S   0  0  0  0  0  0  0  0  0  0  0  0
   37.1770   29.3490   50.6850 C   0  0  0  0  0  0  0  0  0  0  0  0
   37.6590   30.6580   50.7900 C   0  0  0  0  0  0  0  0  0  0  0  0
   37.2530   31.5740   49.8030 C   0  0  0  0  0  0  0  0  0  0  0  0
   36.4280   31.1460   48.8160 N   0  0  0  0  0  0  0  0  0  0  0  0
   35.9890   29.8680   48.7620 C   0  0  0  0  0  0  0  0  0  0  0  0
   36.3560   28.9510   49.6950 N   0  0  0  0  0  0  0  0  0  0  0  0
   37.4750   28.6300   51.4320 H   0  0  0  0  0  0  0  0  0  0  0  0
   38.3190   30.9720   51.5900 H   0  0  0  0  0  0  0  0  0  0  0  0
   37.5780   32.5940   49.8100 H   0  0  0  0  0  0  0  0  0  0  0  0
   31.3670   27.2440   45.6240 O   0  0  0  0  0  0  0  0  0  0  0  0
   29.8550   29.5670   44.6270 Cl  0  0  0  0  0  0  0  0  0  0  0  0
   29.3660   28.3700   45.8030 C   0  0  0  0  0  0  0  0  0  0  0  0
   30.1650   27.3150   46.1830 C   0  0  0  0  0  0  0  0  0  0  0  0
   29.6550   26.4090   47.1160 C   0  0  0  0  0  0  0  0  0  0  0  0
   28.3870   26.5730   47.6350 C   0  0  0  0  0  0  0  0  0  0  0  0
   27.5770   27.6320   47.2580 C   0  0  0  0  0  0  0  0  0  0  0  0
   28.0910   28.5330   46.3280 C   0  0  0  0  0  0  0  0  0  0  0  0
   30.2000   25.5520   47.4700 H   0  0  0  0  0  0  0  0  0  0  0  0
   27.9340   25.9130   48.3560 H   0  0  0  0  0  0  0  0  0  0  0  0
   26.5830   27.7720   47.6560 H   0  0  0  0  0  0  0  0  0  0  0  0
   27.2290   29.6720   45.9180 C   0  0  0  0  0  0  0  0  0  0  0  0
   27.8730   30.8870   46.0670 F   0  0  0  0  0  0  0  0  0  0  0  0
   26.1170   29.6620   46.7690 F   0  0  0  0  0  0  0  0  0  0  0  0
   26.7280   29.5100   44.6560 F   0  0  0  0  0  0  0  0  0  0  0  0
  1  6  1  1  0  0  0
  1  2  1  0  0  0  0
  2  7  1  1  0  0  0
  3  2  1  0  0  0  0
  4  8  1  0  0  0  0
  4  3  1  0  0  0  0
  5 10  1  6  0  0  0
  5  4  1  0  0  0  0
  5  1  1  0  0  0  0
  9  4  1  0  0  0  0
 11 12  1  0  0  0  0
 11  1  1  0  0  0  0
 13  2  1  0  0  0  0
 13 18  1  0  0  0  0
 14 15  1  0  0  0  0
 14 20  1  0  0  0  0
 15 21  1  0  0  0  0
 16 22  1  0  0  0  0
 16 15  2  0  0  0  0
 17 16  1  0  0  0  0
 18 17  2  0  0  0  0
 18 19  1  0  0  0  0
 19 14  2  0  0  0  0
 23 26  1  0  0  0  0
 23  5  1  0  0  0  0
 24 25  1  0  0  0  0
 25 26  2  0  0  0  0
 25 30  1  0  0  0  0
 26 27  1  0  0  0  0
 27 31  1  0  0  0  0
 27 28  2  0  0  0  0
 28 32  1  0  0  0  0
 29 28  1  0  0  0  0
 29 33  1  0  0  0  0
 30 29  2  0  0  0  0
 34 35  1  0  0  0  0
 34 30  1  0  0  0  0
 34 36  1  0  0  0  0
 37 34  1  0  0  0  0
M  END
>  <minimizedAffinity>
-4.7663579

>  <minimizedRMSD>
0.559321344

$$$$
