
 OpenBabel03272505213D

 23 24  0  0  0  0  0  0  0  0999 V2000
   38.8070   32.4590   48.6040 Br  0  0  0  0  0  0  0  0  0  0  0  0
   38.2580   31.8030   46.9020 C   0  0  0  0  0  0  0  0  0  0  0  0
   37.2090   30.8940   46.8050 C   0  0  0  0  0  0  0  0  0  0  0  0
   36.8420   30.4430   45.5570 C   0  0  0  0  0  0  0  0  0  0  0  0
   37.5080   30.8930   44.4340 C   0  0  0  0  0  0  0  0  0  0  0  0
   38.5560   31.8020   44.5200 C   0  0  0  0  0  0  0  0  0  0  0  0
   38.9140   32.2450   45.7780 C   0  0  0  0  0  0  0  0  0  0  0  0
   36.0270   29.7370   45.4880 H   0  0  0  0  0  0  0  0  0  0  0  0
   37.2250   30.5460   43.4530 H   0  0  0  0  0  0  0  0  0  0  0  0
   39.1040   32.1810   43.6710 H   0  0  0  0  0  0  0  0  0  0  0  0
   36.6070   29.3650   50.2260 C   0  0  0  0  0  0  0  0  0  0  0  0
   37.2420   29.7460   49.0380 C   0  0  0  0  0  0  0  0  0  0  0  0
   36.5730   30.4820   48.0550 C   0  0  0  0  0  0  0  0  0  0  0  0
   35.2900   30.7820   48.3490 N   0  0  0  0  0  0  0  0  0  0  0  0
   34.6750   30.4200   49.4870 C   0  0  0  0  0  0  0  0  0  0  0  0
   35.3330   29.7180   50.4110 N   0  0  0  0  0  0  0  0  0  0  0  0
   37.2740   28.8080   50.8580 H   0  0  0  0  0  0  0  0  0  0  0  0
   38.2760   29.5070   48.7910 H   0  0  0  0  0  0  0  0  0  0  0  0
   33.6520   30.6590   49.7220 H   0  0  0  0  0  0  0  0  0  0  0  0
   40.0340   33.2230   45.9370 C   0  0  0  0  0  0  0  0  0  0  0  0
   41.2370   32.5610   45.8170 F   0  0  0  0  0  0  0  0  0  0  0  0
   39.9650   34.2060   44.9490 F   0  0  0  0  0  0  0  0  0  0  0  0
   39.9730   33.8540   47.1630 F   0  0  0  0  0  0  0  0  0  0  0  0
  2  1  1  0  0  0  0
  3  2  1  0  0  0  0
  3 13  1  0  0  0  0
  4  3  2  0  0  0  0
  5  6  2  0  0  0  0
  5  4  1  0  0  0  0
  6  7  1  0  0  0  0
  7 20  1  0  0  0  0
  7  2  2  0  0  0  0
  8  4  1  0  0  0  0
  9  5  1  0  0  0  0
 10  6  1  0  0  0  0
 11 16  1  0  0  0  0
 11 17  1  0  0  0  0
 12 11  2  0  0  0  0
 13 14  2  0  0  0  0
 13 12  1  0  0  0  0
 14 15  1  0  0  0  0
 15 19  1  0  0  0  0
 15 16  2  0  0  0  0
 18 12  1  0  0  0  0
 20 23  1  0  0  0  0
 21 20  1  0  0  0  0
 22 20  1  0  0  0  0
M  END
>  <minimizedAffinity>
-5.584342

>  <minimizedRMSD>
1.46175909

$$$$
