
 OpenBabel03272505073D

 28 29  0  0  1  0  0  0  0  0999 V2000
   37.3550   26.8660   32.5550 C   0  0  0  0  0  0  0  0  0  0  0  0
   37.8310   25.6430   33.0480 C   0  0  0  0  0  0  0  0  0  0  0  0
   37.8040   25.4550   34.4380 C   0  0  0  0  0  0  0  0  0  0  0  0
   37.3230   26.4560   35.2070 N   0  0  0  0  0  0  0  0  0  0  0  0
   36.8740   27.6130   34.6980 C   0  0  0  0  0  0  0  0  0  0  0  0
   36.8910   27.8200   33.3600 N   0  0  0  0  0  0  0  0  0  0  0  0
   38.2440   24.2860   35.1070 N   0  0  0  0  0  0  0  0  0  0  0  0
   37.9740   22.9530   34.7200 C   0  0  0  0  0  0  0  0  0  0  0  0
   39.1270   21.9980   34.7210 C   0  0  0  0  0  0  0  0  0  0  0  0
   40.0880   22.1440   35.8420 C   0  0  0  0  0  0  0  0  0  0  0  0
   40.3840   23.6100   36.0670 C   0  0  0  0  0  0  0  0  0  0  0  0
   39.0370   24.2730   36.2850 C   0  0  2  0  0  0  0  0  0  0  0  0
   37.4070   26.9390   31.4810 H   0  0  0  0  0  0  0  0  0  0  0  0
   38.2200   24.8250   32.4820 H   0  0  0  0  0  0  0  0  0  0  0  0
   36.5030   28.3690   35.3850 H   0  0  0  0  0  0  0  0  0  0  0  0
   37.1050   22.4650   35.2150 H   0  0  0  0  0  0  0  0  0  0  0  0
   37.6320   23.0100   33.6450 H   0  0  0  0  0  0  0  0  0  0  0  0
   39.7110   22.1410   33.7730 H   0  0  0  0  0  0  0  0  0  0  0  0
   38.7340   20.9710   34.6660 H   0  0  0  0  0  0  0  0  0  0  0  0
   41.0650   21.6820   35.5240 H   0  0  0  0  0  0  0  0  0  0  0  0
   39.8350   21.6460   36.7820 H   0  0  0  0  0  0  0  0  0  0  0  0
   40.7860   24.0300   35.1060 H   0  0  0  0  0  0  0  0  0  0  0  0
   41.0620   23.8000   36.9030 H   0  0  0  0  0  0  0  0  0  0  0  0
   39.3110   25.3510   36.4830 H   0  0  0  0  0  0  0  0  0  0  0  0
   38.3660   23.8100   37.5380 C   0  0  0  0  0  0  0  0  0  0  0  0
   39.3760   23.2680   38.3470 F   0  0  0  0  0  0  0  0  0  0  0  0
   37.3930   22.8810   37.4000 F   0  0  0  0  0  0  0  0  0  0  0  0
   37.8720   24.8840   38.2490 F   0  0  0  0  0  0  0  0  0  0  0  0
  1  2  2  0  0  0  0
  1  6  1  0  0  0  0
  2  3  1  0  0  0  0
  3  7  1  0  0  0  0
  3  4  2  0  0  0  0
  5  4  1  0  0  0  0
  5 15  1  0  0  0  0
  6  5  2  0  0  0  0
  7 12  1  0  0  0  0
  8  9  1  0  0  0  0
  8  7  1  0  0  0  0
  8 16  1  0  0  0  0
  9 10  1  0  0  0  0
 10 11  1  0  0  0  0
 10 21  1  0  0  0  0
 11 12  1  0  0  0  0
 11 23  1  0  0  0  0
 12 24  1  1  0  0  0
 12 25  1  0  0  0  0
 13  1  1  0  0  0  0
 14  2  1  0  0  0  0
 17  8  1  0  0  0  0
 18  9  1  0  0  0  0
 19  9  1  0  0  0  0
 20 10  1  0  0  0  0
 22 11  1  0  0  0  0
 25 28  1  0  0  0  0
 25 26  1  0  0  0  0
 27 25  1  0  0  0  0
M  END
>  <minimizedAffinity>
-4.59450388

$$$$

 OpenBabel03272505073D

 28 29  0  0  1  0  0  0  0  0999 V2000
   37.9370   23.4010   30.7320 C   0  0  0  0  0  0  0  0  0  0  0  0
   38.4330   24.3050   31.6820 C   0  0  0  0  0  0  0  0  0  0  0  0
   38.1820   24.0220   33.0330 C   0  0  0  0  0  0  0  0  0  0  0  0
   37.4840   22.9040   33.3310 N   0  0  0  0  0  0  0  0  0  0  0  0
   37.0260   22.0610   32.3930 C   0  0  0  0  0  0  0  0  0  0  0  0
   37.2540   22.3120   31.0820 N   0  0  0  0  0  0  0  0  0  0  0  0
   38.6070   24.8230   34.1210 N   0  0  0  0  0  0  0  0  0  0  0  0
   39.8840   25.4110   34.2750 C   0  0  0  0  0  0  0  0  0  0  0  0
   39.9250   26.8470   34.6950 C   0  0  0  0  0  0  0  0  0  0  0  0
   38.9200   27.2560   35.7070 C   0  0  0  0  0  0  0  0  0  0  0  0
   37.5760   26.6600   35.3530 C   0  0  0  0  0  0  0  0  0  0  0  0
   37.8030   25.1650   35.2410 C   0  0  2  0  0  0  0  0  0  0  0  0
   38.1670   23.6830   29.7180 H   0  0  0  0  0  0  0  0  0  0  0  0
   38.9880   25.1990   31.4960 H   0  0  0  0  0  0  0  0  0  0  0  0
   36.4730   21.1830   32.7150 H   0  0  0  0  0  0  0  0  0  0  0  0
   40.6170   24.8380   34.8860 H   0  0  0  0  0  0  0  0  0  0  0  0
   40.3590   25.3820   33.2510 H   0  0  0  0  0  0  0  0  0  0  0  0
   39.7530   27.4880   33.7900 H   0  0  0  0  0  0  0  0  0  0  0  0
   40.9460   27.0870   35.0290 H   0  0  0  0  0  0  0  0  0  0  0  0
   38.7870   28.3720   35.6330 H   0  0  0  0  0  0  0  0  0  0  0  0
   39.1680   27.0710   36.7560 H   0  0  0  0  0  0  0  0  0  0  0  0
   37.3060   27.0120   34.3210 H   0  0  0  0  0  0  0  0  0  0  0  0
   36.7870   26.8900   36.0750 H   0  0  0  0  0  0  0  0  0  0  0  0
   36.7730   24.7640   35.0140 H   0  0  0  0  0  0  0  0  0  0  0  0
   38.1780   24.5420   36.5490 C   0  0  0  0  0  0  0  0  0  0  0  0
   37.3200   23.4470   36.7210 F   0  0  0  0  0  0  0  0  0  0  0  0
   38.0850   25.3270   37.6460 F   0  0  0  0  0  0  0  0  0  0  0  0
   39.4450   24.0020   36.4830 F   0  0  0  0  0  0  0  0  0  0  0  0
  1  6  2  0  0  0  0
  1  2  1  0  0  0  0
  2  3  2  0  0  0  0
  3  4  1  0  0  0  0
  3  7  1  0  0  0  0
  5 15  1  0  0  0  0
  5  4  2  0  0  0  0
  6  5  1  0  0  0  0
  7  8  1  0  0  0  0
  7 12  1  0  0  0  0
  8  9  1  0  0  0  0
  8 16  1  0  0  0  0
  9 19  1  0  0  0  0
  9 10  1  0  0  0  0
 10 21  1  0  0  0  0
 11 10  1  0  0  0  0
 11 23  1  0  0  0  0
 12 24  1  6  0  0  0
 12 11  1  0  0  0  0
 12 25  1  0  0  0  0
 13  1  1  0  0  0  0
 14  2  1  0  0  0  0
 17  8  1  0  0  0  0
 18  9  1  0  0  0  0
 20 10  1  0  0  0  0
 22 11  1  0  0  0  0
 25 26  1  0  0  0  0
 25 27  1  0  0  0  0
 28 25  1  0  0  0  0
M  END
>  <minimizedAffinity>
-4.55404902

$$$$

 OpenBabel03272505073D

 28 29  0  0  1  0  0  0  0  0999 V2000
   35.5370   20.4550   34.2760 C   0  0  0  0  0  0  0  0  0  0  0  0
   36.2870   21.0920   35.2750 C   0  0  0  0  0  0  0  0  0  0  0  0
   37.3800   21.8690   34.8610 C   0  0  0  0  0  0  0  0  0  0  0  0
   37.6370   21.9540   33.5380 N   0  0  0  0  0  0  0  0  0  0  0  0
   36.8940   21.3300   32.6110 C   0  0  0  0  0  0  0  0  0  0  0  0
   35.8350   20.5730   32.9840 N   0  0  0  0  0  0  0  0  0  0  0  0
   38.2440   22.5800   35.7300 N   0  0  0  0  0  0  0  0  0  0  0  0
   37.8510   23.3640   36.8390 C   0  0  0  0  0  0  0  0  0  0  0  0
   38.6100   23.1680   38.1140 C   0  0  0  0  0  0  0  0  0  0  0  0
   40.0740   22.9700   37.9730 C   0  0  0  0  0  0  0  0  0  0  0  0
   40.3470   22.0150   36.8330 C   0  0  0  0  0  0  0  0  0  0  0  0
   39.6600   22.6130   35.6200 C   0  0  2  0  0  0  0  0  0  0  0  0
   34.7160   19.8770   34.6680 H   0  0  0  0  0  0  0  0  0  0  0  0
   36.1240   21.0540   36.3300 H   0  0  0  0  0  0  0  0  0  0  0  0
   37.1670   21.4490   31.5660 H   0  0  0  0  0  0  0  0  0  0  0  0
   37.7400   24.4550   36.6530 H   0  0  0  0  0  0  0  0  0  0  0  0
   36.7890   23.0550   37.0700 H   0  0  0  0  0  0  0  0  0  0  0  0
   38.2090   22.2560   38.6320 H   0  0  0  0  0  0  0  0  0  0  0  0
   38.3850   24.0060   38.7910 H   0  0  0  0  0  0  0  0  0  0  0  0
   40.4450   22.4490   38.9010 H   0  0  0  0  0  0  0  0  0  0  0  0
   40.6910   23.8680   37.8900 H   0  0  0  0  0  0  0  0  0  0  0  0
   39.8090   21.0540   37.0540 H   0  0  0  0  0  0  0  0  0  0  0  0
   41.4100   21.8450   36.6450 H   0  0  0  0  0  0  0  0  0  0  0  0
   39.9210   21.8890   34.7940 H   0  0  0  0  0  0  0  0  0  0  0  0
   40.2680   23.9130   35.2000 C   0  0  0  0  0  0  0  0  0  0  0  0
   41.6090   23.8680   35.6060 F   0  0  0  0  0  0  0  0  0  0  0  0
   39.7120   25.0370   35.7060 F   0  0  0  0  0  0  0  0  0  0  0  0
   40.3100   24.0060   33.8250 F   0  0  0  0  0  0  0  0  0  0  0  0
  1 13  1  0  0  0  0
  1  2  1  0  0  0  0
  2 14  1  0  0  0  0
  3  2  2  0  0  0  0
  3  7  1  0  0  0  0
  4  3  1  0  0  0  0
  5  6  1  0  0  0  0
  5  4  2  0  0  0  0
  6  1  2  0  0  0  0
  7  8  1  0  0  0  0
  8 17  1  0  0  0  0
  8  9  1  0  0  0  0
  9 18  1  0  0  0  0
  9 19  1  0  0  0  0
 10  9  1  0  0  0  0
 10 20  1  0  0  0  0
 11 22  1  0  0  0  0
 11 10  1  0  0  0  0
 12 24  1  6  0  0  0
 12  7  1  0  0  0  0
 12 11  1  0  0  0  0
 15  5  1  0  0  0  0
 16  8  1  0  0  0  0
 21 10  1  0  0  0  0
 23 11  1  0  0  0  0
 25 26  1  0  0  0  0
 25 12  1  0  0  0  0
 25 27  1  0  0  0  0
 28 25  1  0  0  0  0
M  END
>  <minimizedAffinity>
-4.46114635

$$$$

 OpenBabel03272505073D

 28 29  0  0  1  0  0  0  0  0999 V2000
   39.9830   23.9760   35.1980 C   0  0  0  0  0  0  0  0  0  0  0  0
   39.2270   23.5510   34.0960 C   0  0  0  0  0  0  0  0  0  0  0  0
   38.1980   22.6290   34.3390 C   0  0  0  0  0  0  0  0  0  0  0  0
   38.0010   22.2140   35.6100 N   0  0  0  0  0  0  0  0  0  0  0  0
   38.7460   22.6450   36.6400 C   0  0  0  0  0  0  0  0  0  0  0  0
   39.7460   23.5340   36.4310 N   0  0  0  0  0  0  0  0  0  0  0  0
   37.3390   22.0940   33.3490 N   0  0  0  0  0  0  0  0  0  0  0  0
   36.7150   22.8180   32.3070 C   0  0  0  0  0  0  0  0  0  0  0  0
   36.7770   22.2240   30.9340 C   0  0  0  0  0  0  0  0  0  0  0  0
   36.6170   20.7510   30.8580 C   0  0  0  0  0  0  0  0  0  0  0  0
   37.4340   20.0960   31.9490 C   0  0  0  0  0  0  0  0  0  0  0  0
   36.9670   20.7270   33.2470 C   0  0  2  0  0  0  0  0  0  0  0  0
   40.7540   24.6820   34.9350 H   0  0  0  0  0  0  0  0  0  0  0  0
   39.3450   23.8490   33.0770 H   0  0  0  0  0  0  0  0  0  0  0  0
   38.5240   22.2630   37.6320 H   0  0  0  0  0  0  0  0  0  0  0  0
   35.6740   23.1600   32.5020 H   0  0  0  0  0  0  0  0  0  0  0  0
   37.2750   23.7960   32.2370 H   0  0  0  0  0  0  0  0  0  0  0  0
   37.7780   22.4640   30.4860 H   0  0  0  0  0  0  0  0  0  0  0  0
   36.0430   22.7370   30.2940 H   0  0  0  0  0  0  0  0  0  0  0  0
   37.0720   20.4020   29.8880 H   0  0  0  0  0  0  0  0  0  0  0  0
   35.5950   20.3620   30.8440 H   0  0  0  0  0  0  0  0  0  0  0  0
   38.5030   20.4140   31.8150 H   0  0  0  0  0  0  0  0  0  0  0  0
   37.3400   19.0080   31.9790 H   0  0  0  0  0  0  0  0  0  0  0  0
   37.5740   20.1840   34.0290 H   0  0  0  0  0  0  0  0  0  0  0  0
   35.5440   20.3950   33.5670 C   0  0  0  0  0  0  0  0  0  0  0  0
   35.4410   18.9980   33.4930 F   0  0  0  0  0  0  0  0  0  0  0  0
   34.5990   20.9300   32.7620 F   0  0  0  0  0  0  0  0  0  0  0  0
   35.2550   20.7100   34.8780 F   0  0  0  0  0  0  0  0  0  0  0  0
  1  6  1  0  0  0  0
  2  3  1  0  0  0  0
  2  1  2  0  0  0  0
  3  4  2  0  0  0  0
  4  5  1  0  0  0  0
  5 15  1  0  0  0  0
  6  5  2  0  0  0  0
  7  3  1  0  0  0  0
  8 16  1  0  0  0  0
  8  7  1  0  0  0  0
  9  8  1  0  0  0  0
 10  9  1  0  0  0  0
 10 11  1  0  0  0  0
 11 23  1  0  0  0  0
 11 12  1  0  0  0  0
 12  7  1  0  0  0  0
 12 25  1  0  0  0  0
 12 24  1  1  0  0  0
 13  1  1  0  0  0  0
 14  2  1  0  0  0  0
 17  8  1  0  0  0  0
 18  9  1  0  0  0  0
 19  9  1  0  0  0  0
 20 10  1  0  0  0  0
 21 10  1  0  0  0  0
 22 11  1  0  0  0  0
 25 28  1  0  0  0  0
 26 25  1  0  0  0  0
 27 25  1  0  0  0  0
M  END
>  <minimizedAffinity>
-4.45170975

$$$$

 OpenBabel03272505073D

 28 29  0  0  1  0  0  0  0  0999 V2000
   37.3030   22.4960   31.7310 C   0  0  0  0  0  0  0  0  0  0  0  0
   37.4510   23.2640   32.8950 C   0  0  0  0  0  0  0  0  0  0  0  0
   38.3250   22.7790   33.8790 C   0  0  0  0  0  0  0  0  0  0  0  0
   38.9650   21.6120   33.6440 N   0  0  0  0  0  0  0  0  0  0  0  0
   38.7990   20.9060   32.5150 C   0  0  0  0  0  0  0  0  0  0  0  0
   37.9600   21.3520   31.5510 N   0  0  0  0  0  0  0  0  0  0  0  0
   38.5940   23.4210   35.1120 N   0  0  0  0  0  0  0  0  0  0  0  0
   38.8330   24.8020   35.2980 C   0  0  0  0  0  0  0  0  0  0  0  0
   38.1090   25.4720   36.4240 C   0  0  0  0  0  0  0  0  0  0  0  0
   37.9830   24.6830   37.6750 C   0  0  0  0  0  0  0  0  0  0  0  0
   37.6040   23.2590   37.3380 C   0  0  0  0  0  0  0  0  0  0  0  0
   38.6650   22.7670   36.3710 C   0  0  2  0  0  0  0  0  0  0  0  0
   36.6170   22.9300   31.0220 H   0  0  0  0  0  0  0  0  0  0  0  0
   36.9670   24.1890   33.1260 H   0  0  0  0  0  0  0  0  0  0  0  0
   39.3500   19.9770   32.4030 H   0  0  0  0  0  0  0  0  0  0  0  0
   39.9000   25.1170   35.3210 H   0  0  0  0  0  0  0  0  0  0  0  0
   38.4590   25.3060   34.3580 H   0  0  0  0  0  0  0  0  0  0  0  0
   37.0650   25.7110   36.0860 H   0  0  0  0  0  0  0  0  0  0  0  0
   38.5800   26.4480   36.6150 H   0  0  0  0  0  0  0  0  0  0  0  0
   37.1160   25.0980   38.2610 H   0  0  0  0  0  0  0  0  0  0  0  0
   38.8290   24.7120   38.3670 H   0  0  0  0  0  0  0  0  0  0  0  0
   36.6430   23.2880   36.7570 H   0  0  0  0  0  0  0  0  0  0  0  0
   37.5260   22.6050   38.2100 H   0  0  0  0  0  0  0  0  0  0  0  0
   38.3610   21.6970   36.1800 H   0  0  0  0  0  0  0  0  0  0  0  0
   40.0180   22.6760   37.0030 C   0  0  0  0  0  0  0  0  0  0  0  0
   40.4380   21.3480   36.8380 F   0  0  0  0  0  0  0  0  0  0  0  0
   40.0990   22.9840   38.3170 F   0  0  0  0  0  0  0  0  0  0  0  0
   40.9320   23.4340   36.3010 F   0  0  0  0  0  0  0  0  0  0  0  0
  1  2  1  0  0  0  0
  2 14  1  0  0  0  0
  2  3  2  0  0  0  0
  3  7  1  0  0  0  0
  4  3  1  0  0  0  0
  5  4  2  0  0  0  0
  6  1  2  0  0  0  0
  6  5  1  0  0  0  0
  7  8  1  0  0  0  0
  7 12  1  0  0  0  0
  8 16  1  0  0  0  0
  8  9  1  0  0  0  0
  9 19  1  0  0  0  0
  9 10  1  0  0  0  0
 10 20  1  0  0  0  0
 10 21  1  0  0  0  0
 11 10  1  0  0  0  0
 11 23  1  0  0  0  0
 12 24  1  6  0  0  0
 12 25  1  0  0  0  0
 12 11  1  0  0  0  0
 13  1  1  0  0  0  0
 15  5  1  0  0  0  0
 17  8  1  0  0  0  0
 18  9  1  0  0  0  0
 22 11  1  0  0  0  0
 25 27  1  0  0  0  0
 26 25  1  0  0  0  0
 28 25  1  0  0  0  0
M  END
>  <minimizedAffinity>
-4.43631554

$$$$

 OpenBabel03272505073D

 28 29  0  0  1  0  0  0  0  0999 V2000
   41.2340   22.6210   36.5050 C   0  0  0  0  0  0  0  0  0  0  0  0
   41.2020   23.7210   35.6370 C   0  0  0  0  0  0  0  0  0  0  0  0
   40.0290   24.4920   35.6170 C   0  0  0  0  0  0  0  0  0  0  0  0
   39.0140   24.1270   36.4300 N   0  0  0  0  0  0  0  0  0  0  0  0
   39.0820   23.0670   37.2490 C   0  0  0  0  0  0  0  0  0  0  0  0
   40.2020   22.3070   37.2870 N   0  0  0  0  0  0  0  0  0  0  0  0
   39.8230   25.6330   34.8040 N   0  0  0  0  0  0  0  0  0  0  0  0
   40.7510   26.6770   34.5830 C   0  0  0  0  0  0  0  0  0  0  0  0
   40.9430   27.1280   33.1690 C   0  0  0  0  0  0  0  0  0  0  0  0
   39.7160   27.1910   32.3360 C   0  0  0  0  0  0  0  0  0  0  0  0
   38.8770   25.9570   32.5770 C   0  0  0  0  0  0  0  0  0  0  0  0
   38.6360   25.9080   34.0740 C   0  0  2  0  0  0  0  0  0  0  0  0
   42.1640   22.0780   36.4670 H   0  0  0  0  0  0  0  0  0  0  0  0
   41.9770   24.0470   34.9770 H   0  0  0  0  0  0  0  0  0  0  0  0
   38.2210   22.8410   37.8720 H   0  0  0  0  0  0  0  0  0  0  0  0
   40.6440   27.5740   35.2330 H   0  0  0  0  0  0  0  0  0  0  0  0
   41.7530   26.2700   34.9080 H   0  0  0  0  0  0  0  0  0  0  0  0
   41.6440   26.4140   32.6580 H   0  0  0  0  0  0  0  0  0  0  0  0
   41.4700   28.0940   33.1750 H   0  0  0  0  0  0  0  0  0  0  0  0
   40.0280   27.1400   31.2540 H   0  0  0  0  0  0  0  0  0  0  0  0
   39.1110   28.0990   32.4110 H   0  0  0  0  0  0  0  0  0  0  0  0
   39.5090   25.0600   32.3340 H   0  0  0  0  0  0  0  0  0  0  0  0
   37.9360   25.9470   32.0210 H   0  0  0  0  0  0  0  0  0  0  0  0
   37.9810   24.9970   34.1990 H   0  0  0  0  0  0  0  0  0  0  0  0
   37.8030   27.0520   34.5580 C   0  0  0  0  0  0  0  0  0  0  0  0
   36.6940   26.4830   35.2030 F   0  0  0  0  0  0  0  0  0  0  0  0
   37.3480   27.9130   33.6210 F   0  0  0  0  0  0  0  0  0  0  0  0
   38.4690   27.7560   35.5380 F   0  0  0  0  0  0  0  0  0  0  0  0
  1  6  1  0  0  0  0
  2  1  2  0  0  0  0
  3  2  1  0  0  0  0
  3  4  2  0  0  0  0
  4  5  1  0  0  0  0
  5  6  2  0  0  0  0
  5 15  1  0  0  0  0
  7  3  1  0  0  0  0
  8  7  1  0  0  0  0
  8 17  1  0  0  0  0
  8 16  1  0  0  0  0
  9 19  1  0  0  0  0
  9  8  1  0  0  0  0
 10 21  1  0  0  0  0
 10 11  1  0  0  0  0
 10  9  1  0  0  0  0
 11 12  1  0  0  0  0
 12 24  1  1  0  0  0
 12 25  1  0  0  0  0
 12  7  1  0  0  0  0
 13  1  1  0  0  0  0
 14  2  1  0  0  0  0
 18  9  1  0  0  0  0
 20 10  1  0  0  0  0
 22 11  1  0  0  0  0
 23 11  1  0  0  0  0
 25 26  1  0  0  0  0
 25 28  1  0  0  0  0
 27 25  1  0  0  0  0
M  END
>  <minimizedAffinity>
-4.36418772

$$$$

 OpenBabel03272505073D

 28 29  0  0  1  0  0  0  0  0999 V2000
   30.8040   28.6370   34.9880 C   0  0  0  0  0  0  0  0  0  0  0  0
   31.9810   29.1100   34.3910 C   0  0  0  0  0  0  0  0  0  0  0  0
   32.8540   29.8600   35.1950 C   0  0  0  0  0  0  0  0  0  0  0  0
   32.5070   30.0760   36.4820 N   0  0  0  0  0  0  0  0  0  0  0  0
   31.3710   29.6050   37.0190 C   0  0  0  0  0  0  0  0  0  0  0  0
   30.5120   28.8800   36.2650 N   0  0  0  0  0  0  0  0  0  0  0  0
   34.0820   30.4140   34.7590 N   0  0  0  0  0  0  0  0  0  0  0  0
   35.0530   29.7650   33.9620 C   0  0  0  0  0  0  0  0  0  0  0  0
   35.6180   30.5390   32.8130 C   0  0  0  0  0  0  0  0  0  0  0  0
   35.8730   31.9800   33.0640 C   0  0  0  0  0  0  0  0  0  0  0  0
   34.7030   32.5770   33.8120 C   0  0  0  0  0  0  0  0  0  0  0  0
   34.5330   31.7280   35.0570 C   0  0  2  0  0  0  0  0  0  0  0  0
   30.1840   28.0710   34.3120 H   0  0  0  0  0  0  0  0  0  0  0  0
   32.2970   28.9670   33.3800 H   0  0  0  0  0  0  0  0  0  0  0  0
   31.1650   29.8220   38.0630 H   0  0  0  0  0  0  0  0  0  0  0  0
   35.8900   29.2760   34.5100 H   0  0  0  0  0  0  0  0  0  0  0  0
   34.5260   28.8800   33.4990 H   0  0  0  0  0  0  0  0  0  0  0  0
   34.8960   30.4840   31.9550 H   0  0  0  0  0  0  0  0  0  0  0  0
   36.5270   30.0310   32.4570 H   0  0  0  0  0  0  0  0  0  0  0  0
   35.8980   32.5070   32.0680 H   0  0  0  0  0  0  0  0  0  0  0  0
   36.8210   32.2400   33.5430 H   0  0  0  0  0  0  0  0  0  0  0  0
   33.7800   32.4120   33.1940 H   0  0  0  0  0  0  0  0  0  0  0  0
   34.8330   33.6330   34.0650 H   0  0  0  0  0  0  0  0  0  0  0  0
   33.6790   32.2310   35.5970 H   0  0  0  0  0  0  0  0  0  0  0  0
   35.6960   31.8390   35.9910 C   0  0  0  0  0  0  0  0  0  0  0  0
   35.1580   31.8760   37.2860 F   0  0  0  0  0  0  0  0  0  0  0  0
   36.4990   32.9160   35.8380 F   0  0  0  0  0  0  0  0  0  0  0  0
   36.4620   30.6930   35.9510 F   0  0  0  0  0  0  0  0  0  0  0  0
  1  6  1  0  0  0  0
  2  1  2  0  0  0  0
  2  3  1  0  0  0  0
  3  4  2  0  0  0  0
  4  5  1  0  0  0  0
  5 15  1  0  0  0  0
  6  5  2  0  0  0  0
  7 12  1  0  0  0  0
  7  3  1  0  0  0  0
  8 16  1  0  0  0  0
  8  7  1  0  0  0  0
  9 10  1  0  0  0  0
  9  8  1  0  0  0  0
 10 21  1  0  0  0  0
 10 11  1  0  0  0  0
 11 23  1  0  0  0  0
 11 12  1  0  0  0  0
 12 24  1  1  0  0  0
 12 25  1  0  0  0  0
 13  1  1  0  0  0  0
 14  2  1  0  0  0  0
 17  8  1  0  0  0  0
 18  9  1  0  0  0  0
 19  9  1  0  0  0  0
 20 10  1  0  0  0  0
 22 11  1  0  0  0  0
 25 26  1  0  0  0  0
 27 25  1  0  0  0  0
 28 25  1  0  0  0  0
M  END
>  <minimizedAffinity>
-4.35094309

$$$$

 OpenBabel03272505073D

 28 29  0  0  1  0  0  0  0  0999 V2000
   35.8960   23.5330   31.1480 C   0  0  0  0  0  0  0  0  0  0  0  0
   36.8330   23.3900   32.1810 C   0  0  0  0  0  0  0  0  0  0  0  0
   37.2380   24.5560   32.8490 C   0  0  0  0  0  0  0  0  0  0  0  0
   36.7020   25.7330   32.4570 N   0  0  0  0  0  0  0  0  0  0  0  0
   35.8060   25.8300   31.4640 C   0  0  0  0  0  0  0  0  0  0  0  0
   35.4000   24.7200   30.8030 N   0  0  0  0  0  0  0  0  0  0  0  0
   38.1720   24.5980   33.9120 N   0  0  0  0  0  0  0  0  0  0  0  0
   38.2240   23.7110   35.0120 C   0  0  0  0  0  0  0  0  0  0  0  0
   39.5670   23.1620   35.3800 C   0  0  0  0  0  0  0  0  0  0  0  0
   40.7040   24.1120   35.2860 C   0  0  0  0  0  0  0  0  0  0  0  0
   40.5920   24.9080   34.0060 C   0  0  0  0  0  0  0  0  0  0  0  0
   39.2180   25.5510   34.0380 C   0  0  2  0  0  0  0  0  0  0  0  0
   35.6330   22.5980   30.6810 H   0  0  0  0  0  0  0  0  0  0  0  0
   37.2840   22.4840   32.5240 H   0  0  0  0  0  0  0  0  0  0  0  0
   35.4220   26.8140   31.2100 H   0  0  0  0  0  0  0  0  0  0  0  0
   37.7090   24.0480   35.9390 H   0  0  0  0  0  0  0  0  0  0  0  0
   37.6050   22.8150   34.7110 H   0  0  0  0  0  0  0  0  0  0  0  0
   39.8040   22.3050   34.6940 H   0  0  0  0  0  0  0  0  0  0  0  0
   39.5030   22.7170   36.3850 H   0  0  0  0  0  0  0  0  0  0  0  0
   41.6510   23.5100   35.1890 H   0  0  0  0  0  0  0  0  0  0  0  0
   40.8750   24.7680   36.1440 H   0  0  0  0  0  0  0  0  0  0  0  0
   40.5750   24.1810   33.1500 H   0  0  0  0  0  0  0  0  0  0  0  0
   41.3790   25.6560   33.8810 H   0  0  0  0  0  0  0  0  0  0  0  0
   39.1970   26.1590   33.0870 H   0  0  0  0  0  0  0  0  0  0  0  0
   39.0800   26.5530   35.1390 C   0  0  0  0  0  0  0  0  0  0  0  0
   40.3530   27.1130   35.3220 F   0  0  0  0  0  0  0  0  0  0  0  0
   38.6480   26.0900   36.3340 F   0  0  0  0  0  0  0  0  0  0  0  0
   38.2780   27.6030   34.7420 F   0  0  0  0  0  0  0  0  0  0  0  0
  1  2  1  0  0  0  0
  2 14  1  0  0  0  0
  2  3  2  0  0  0  0
  3  7  1  0  0  0  0
  4  3  1  0  0  0  0
  5  4  2  0  0  0  0
  6  1  2  0  0  0  0
  6  5  1  0  0  0  0
  7 12  1  0  0  0  0
  7  8  1  0  0  0  0
  8  9  1  0  0  0  0
  8 16  1  0  0  0  0
  9 19  1  0  0  0  0
 10  9  1  0  0  0  0
 10 21  1  0  0  0  0
 11 12  1  0  0  0  0
 11 10  1  0  0  0  0
 12 24  1  6  0  0  0
 12 25  1  0  0  0  0
 13  1  1  0  0  0  0
 15  5  1  0  0  0  0
 17  8  1  0  0  0  0
 18  9  1  0  0  0  0
 20 10  1  0  0  0  0
 22 11  1  0  0  0  0
 23 11  1  0  0  0  0
 25 26  1  0  0  0  0
 25 27  1  0  0  0  0
 28 25  1  0  0  0  0
M  END
>  <minimizedAffinity>
-4.28734255

$$$$

 OpenBabel03272505073D

 28 29  0  0  1  0  0  0  0  0999 V2000
   35.8960   23.4080   31.1480 C   0  0  0  0  0  0  0  0  0  0  0  0
   36.6830   24.3240   31.8600 C   0  0  0  0  0  0  0  0  0  0  0  0
   37.4350   23.8280   32.9360 C   0  0  0  0  0  0  0  0  0  0  0  0
   37.3540   22.5080   33.2140 N   0  0  0  0  0  0  0  0  0  0  0  0
   36.5890   21.6610   32.5090 C   0  0  0  0  0  0  0  0  0  0  0  0
   35.8530   22.1160   31.4670 N   0  0  0  0  0  0  0  0  0  0  0  0
   38.2820   24.6070   33.7600 N   0  0  0  0  0  0  0  0  0  0  0  0
   39.1920   25.5970   33.3230 C   0  0  0  0  0  0  0  0  0  0  0  0
   39.1910   26.8980   34.0630 C   0  0  0  0  0  0  0  0  0  0  0  0
   39.0250   26.8050   35.5350 C   0  0  0  0  0  0  0  0  0  0  0  0
   37.9380   25.8050   35.8590 C   0  0  0  0  0  0  0  0  0  0  0  0
   38.3480   24.5150   35.1760 C   0  0  2  0  0  0  0  0  0  0  0  0
   35.3470   23.8600   30.3380 H   0  0  0  0  0  0  0  0  0  0  0  0
   36.7790   25.3730   31.6780 H   0  0  0  0  0  0  0  0  0  0  0  0
   36.5790   20.6140   32.7970 H   0  0  0  0  0  0  0  0  0  0  0  0
   40.2450   25.2670   33.1810 H   0  0  0  0  0  0  0  0  0  0  0  0
   38.8810   25.8520   32.2670 H   0  0  0  0  0  0  0  0  0  0  0  0
   38.3420   27.5260   33.6810 H   0  0  0  0  0  0  0  0  0  0  0  0
   40.1030   27.4540   33.8000 H   0  0  0  0  0  0  0  0  0  0  0  0
   38.6440   27.7990   35.9040 H   0  0  0  0  0  0  0  0  0  0  0  0
   39.9250   26.6130   36.1250 H   0  0  0  0  0  0  0  0  0  0  0  0
   36.9970   26.1440   35.3470 H   0  0  0  0  0  0  0  0  0  0  0  0
   37.7800   25.6570   36.9310 H   0  0  0  0  0  0  0  0  0  0  0  0
   37.5310   23.7950   35.4760 H   0  0  0  0  0  0  0  0  0  0  0  0
   39.6010   23.9350   35.7510 C   0  0  0  0  0  0  0  0  0  0  0  0
   39.4070   23.8810   37.1400 F   0  0  0  0  0  0  0  0  0  0  0  0
   40.7490   24.6080   35.5120 F   0  0  0  0  0  0  0  0  0  0  0  0
   39.7540   22.6220   35.3570 F   0  0  0  0  0  0  0  0  0  0  0  0
  1  6  2  0  0  0  0
  1  2  1  0  0  0  0
  2  3  2  0  0  0  0
  3  4  1  0  0  0  0
  3  7  1  0  0  0  0
  5 15  1  0  0  0  0
  5  4  2  0  0  0  0
  6  5  1  0  0  0  0
  7 12  1  0  0  0  0
  8  7  1  0  0  0  0
  8  9  1  0  0  0  0
  9 10  1  0  0  0  0
 10 11  1  0  0  0  0
 10 20  1  0  0  0  0
 10 21  1  0  0  0  0
 11 23  1  0  0  0  0
 12 24  1  1  0  0  0
 12 25  1  0  0  0  0
 12 11  1  0  0  0  0
 13  1  1  0  0  0  0
 14  2  1  0  0  0  0
 16  8  1  0  0  0  0
 17  8  1  0  0  0  0
 18  9  1  0  0  0  0
 19  9  1  0  0  0  0
 22 11  1  0  0  0  0
 25 26  1  0  0  0  0
 27 25  1  0  0  0  0
 28 25  1  0  0  0  0
M  END
>  <minimizedAffinity>
-4.25768995

$$$$
