
 OpenBabel03272509003D

 23 24  0  0  0  0  0  0  0  0999 V2000
   37.9650   23.6530   33.4690 Cl  0  0  0  0  0  0  0  0  0  0  0  0
   37.8260   25.2560   34.1110 C   0  0  0  0  0  0  0  0  0  0  0  0
   38.3750   25.5530   35.3390 C   0  0  0  0  0  0  0  0  0  0  0  0
   38.2860   26.8110   35.8910 C   0  0  0  0  0  0  0  0  0  0  0  0
   37.6320   27.8260   35.2170 C   0  0  0  0  0  0  0  0  0  0  0  0
   37.0660   27.5550   33.9730 C   0  0  0  0  0  0  0  0  0  0  0  0
   36.2110   28.7510   33.0160 Cl  0  0  0  0  0  0  0  0  0  0  0  0
   37.1840   26.2840   33.4660 C   0  0  0  0  0  0  0  0  0  0  0  0
   38.7120   27.0510   36.8510 H   0  0  0  0  0  0  0  0  0  0  0  0
   37.5330   28.8300   35.6040 H   0  0  0  0  0  0  0  0  0  0  0  0
   40.8690   23.0570   36.3530 C   0  0  0  0  0  0  0  0  0  0  0  0
   40.3220   22.5250   37.5200 C   0  0  0  0  0  0  0  0  0  0  0  0
   39.0710   23.0400   37.9600 C   0  0  0  0  0  0  0  0  0  0  0  0
   38.4910   24.0150   37.2150 N   0  0  0  0  0  0  0  0  0  0  0  0
   39.0730   24.5020   36.0770 C   0  0  0  0  0  0  0  0  0  0  0  0
   40.2500   24.0190   35.6600 N   0  0  0  0  0  0  0  0  0  0  0  0
   41.8220   22.6320   36.0600 H   0  0  0  0  0  0  0  0  0  0  0  0
   40.7750   21.7610   38.1020 H   0  0  0  0  0  0  0  0  0  0  0  0
   38.5900   22.6720   38.8570 H   0  0  0  0  0  0  0  0  0  0  0  0
   36.5840   25.9620   32.1280 C   0  0  0  0  0  0  0  0  0  0  0  0
   35.9450   24.7420   32.1430 F   0  0  0  0  0  0  0  0  0  0  0  0
   35.5750   26.9040   31.9060 F   0  0  0  0  0  0  0  0  0  0  0  0
   37.4990   26.1040   31.1280 F   0  0  0  0  0  0  0  0  0  0  0  0
  1  2  1  0  0  0  0
  2  3  1  0  0  0  0
  3  4  2  0  0  0  0
  3 15  1  0  0  0  0
  4  9  1  0  0  0  0
  5 10  1  0  0  0  0
  5  4  1  0  0  0  0
  6  5  2  0  0  0  0
  7  6  1  0  0  0  0
  8  6  1  0  0  0  0
  8  2  2  0  0  0  0
 11 12  1  0  0  0  0
 12 13  2  0  0  0  0
 12 18  1  0  0  0  0
 13 19  1  0  0  0  0
 14 13  1  0  0  0  0
 15 14  2  0  0  0  0
 16 15  1  0  0  0  0
 16 11  2  0  0  0  0
 17 11  1  0  0  0  0
 20 21  1  0  0  0  0
 20  8  1  0  0  0  0
 22 20  1  0  0  0  0
 23 20  1  0  0  0  0
M  END
>  <minimizedAffinity>
-5.04225349

$$$$

 OpenBabel03272509003D

 23 24  0  0  0  0  0  0  0  0999 V2000
   36.0220   20.9860   35.6840 Cl  0  0  0  0  0  0  0  0  0  0  0  0
   37.0530   21.5090   34.3940 C   0  0  0  0  0  0  0  0  0  0  0  0
   38.1320   22.3210   34.6640 C   0  0  0  0  0  0  0  0  0  0  0  0
   38.9760   22.7640   33.6720 C   0  0  0  0  0  0  0  0  0  0  0  0
   38.7600   22.4020   32.3550 C   0  0  0  0  0  0  0  0  0  0  0  0
   37.6750   21.5820   32.0500 C   0  0  0  0  0  0  0  0  0  0  0  0
   37.2900   21.0500   30.4240 Cl  0  0  0  0  0  0  0  0  0  0  0  0
   36.8640   21.1660   33.0770 C   0  0  0  0  0  0  0  0  0  0  0  0
   39.8230   23.4010   33.8750 H   0  0  0  0  0  0  0  0  0  0  0  0
   39.3910   22.7220   31.5380 H   0  0  0  0  0  0  0  0  0  0  0  0
   37.7740   23.8280   37.9930 C   0  0  0  0  0  0  0  0  0  0  0  0
   38.9440   23.4330   38.6420 C   0  0  0  0  0  0  0  0  0  0  0  0
   39.8680   22.6340   37.9140 C   0  0  0  0  0  0  0  0  0  0  0  0
   39.5520   22.3080   36.6350 N   0  0  0  0  0  0  0  0  0  0  0  0
   38.3890   22.7220   36.0460 C   0  0  0  0  0  0  0  0  0  0  0  0
   37.5160   23.4750   36.7290 N   0  0  0  0  0  0  0  0  0  0  0  0
   37.1020   24.4350   38.5890 H   0  0  0  0  0  0  0  0  0  0  0  0
   39.1910   23.6900   39.6420 H   0  0  0  0  0  0  0  0  0  0  0  0
   40.7950   22.2930   38.3560 H   0  0  0  0  0  0  0  0  0  0  0  0
   35.6880   20.2820   32.7800 C   0  0  0  0  0  0  0  0  0  0  0  0
   35.9490   19.4340   31.7260 F   0  0  0  0  0  0  0  0  0  0  0  0
   35.5230   19.4490   33.8910 F   0  0  0  0  0  0  0  0  0  0  0  0
   34.5430   21.0090   32.6440 F   0  0  0  0  0  0  0  0  0  0  0  0
  2  3  1  0  0  0  0
  2  1  1  0  0  0  0
  3 15  1  0  0  0  0
  4  9  1  0  0  0  0
  4  3  2  0  0  0  0
  5  4  1  0  0  0  0
  6  5  2  0  0  0  0
  6  8  1  0  0  0  0
  7  6  1  0  0  0  0
  8  2  2  0  0  0  0
 10  5  1  0  0  0  0
 11 17  1  0  0  0  0
 11 12  1  0  0  0  0
 12 18  1  0  0  0  0
 13 19  1  0  0  0  0
 13 12  2  0  0  0  0
 14 13  1  0  0  0  0
 15 14  2  0  0  0  0
 15 16  1  0  0  0  0
 16 11  2  0  0  0  0
 20  8  1  0  0  0  0
 20 22  1  0  0  0  0
 21 20  1  0  0  0  0
 23 20  1  0  0  0  0
M  END
>  <minimizedAffinity>
-5.03288507

$$$$

 OpenBabel03272509003D

 23 24  0  0  0  0  0  0  0  0999 V2000
   38.6370   23.6990   33.5270 Cl  0  0  0  0  0  0  0  0  0  0  0  0
   37.4450   22.4600   33.7400 C   0  0  0  0  0  0  0  0  0  0  0  0
   37.2370   21.9150   34.9880 C   0  0  0  0  0  0  0  0  0  0  0  0
   36.3040   20.9270   35.2050 C   0  0  0  0  0  0  0  0  0  0  0  0
   35.5380   20.4460   34.1600 C   0  0  0  0  0  0  0  0  0  0  0  0
   35.7260   20.9770   32.8850 C   0  0  0  0  0  0  0  0  0  0  0  0
   34.8210   20.4560   31.4760 Cl  0  0  0  0  0  0  0  0  0  0  0  0
   36.6680   21.9620   32.7230 C   0  0  0  0  0  0  0  0  0  0  0  0
   36.1370   20.4950   36.1790 H   0  0  0  0  0  0  0  0  0  0  0  0
   34.7930   19.6710   34.2750 H   0  0  0  0  0  0  0  0  0  0  0  0
   40.0290   22.5430   37.2880 C   0  0  0  0  0  0  0  0  0  0  0  0
   39.4550   23.3590   38.2620 C   0  0  0  0  0  0  0  0  0  0  0  0
   38.0810   23.6960   38.1180 C   0  0  0  0  0  0  0  0  0  0  0  0
   37.4170   23.2000   37.0420 N   0  0  0  0  0  0  0  0  0  0  0  0
   38.0310   22.4030   36.1150 C   0  0  0  0  0  0  0  0  0  0  0  0
   39.3250   22.0840   36.2480 N   0  0  0  0  0  0  0  0  0  0  0  0
   41.0780   22.3150   37.4430 H   0  0  0  0  0  0  0  0  0  0  0  0
   39.9740   23.7460   39.1040 H   0  0  0  0  0  0  0  0  0  0  0  0
   37.5720   24.3250   38.8360 H   0  0  0  0  0  0  0  0  0  0  0  0
   36.8930   22.5540   31.3620 C   0  0  0  0  0  0  0  0  0  0  0  0
   37.4790   21.6460   30.5080 F   0  0  0  0  0  0  0  0  0  0  0  0
   35.6280   22.8040   30.8210 F   0  0  0  0  0  0  0  0  0  0  0  0
   37.5440   23.7490   31.4420 F   0  0  0  0  0  0  0  0  0  0  0  0
  1  2  1  0  0  0  0
  2  3  1  0  0  0  0
  3  4  2  0  0  0  0
  3 15  1  0  0  0  0
  4  9  1  0  0  0  0
  5 10  1  0  0  0  0
  5  4  1  0  0  0  0
  6  5  2  0  0  0  0
  7  6  1  0  0  0  0
  8  6  1  0  0  0  0
  8  2  2  0  0  0  0
 11 17  1  0  0  0  0
 11 12  1  0  0  0  0
 12 18  1  0  0  0  0
 13 12  2  0  0  0  0
 13 19  1  0  0  0  0
 14 13  1  0  0  0  0
 15 16  1  0  0  0  0
 15 14  2  0  0  0  0
 16 11  2  0  0  0  0
 20 23  1  0  0  0  0
 20  8  1  0  0  0  0
 21 20  1  0  0  0  0
 22 20  1  0  0  0  0
M  END
>  <minimizedAffinity>
-4.99768543

$$$$

 OpenBabel03272509003D

 23 24  0  0  0  0  0  0  0  0999 V2000
   37.5620   22.5050   33.4790 Cl  0  0  0  0  0  0  0  0  0  0  0  0
   37.5650   24.2360   33.4010 C   0  0  0  0  0  0  0  0  0  0  0  0
   38.0830   24.9690   34.4460 C   0  0  0  0  0  0  0  0  0  0  0  0
   38.1030   26.3450   34.4310 C   0  0  0  0  0  0  0  0  0  0  0  0
   37.5950   27.0400   33.3500 C   0  0  0  0  0  0  0  0  0  0  0  0
   37.0640   26.3270   32.2770 C   0  0  0  0  0  0  0  0  0  0  0  0
   36.3890   27.0860   30.8470 Cl  0  0  0  0  0  0  0  0  0  0  0  0
   37.0690   24.9550   32.3410 C   0  0  0  0  0  0  0  0  0  0  0  0
   38.5060   26.9250   35.2460 H   0  0  0  0  0  0  0  0  0  0  0  0
   37.5860   28.1190   33.2870 H   0  0  0  0  0  0  0  0  0  0  0  0
   40.3310   23.0870   36.6570 C   0  0  0  0  0  0  0  0  0  0  0  0
   39.5800   22.9530   37.8250 C   0  0  0  0  0  0  0  0  0  0  0  0
   38.2780   23.5230   37.8440 C   0  0  0  0  0  0  0  0  0  0  0  0
   37.8490   24.1610   36.7240 N   0  0  0  0  0  0  0  0  0  0  0  0
   38.6280   24.2630   35.6050 C   0  0  0  0  0  0  0  0  0  0  0  0
   39.8550   23.7270   35.5830 N   0  0  0  0  0  0  0  0  0  0  0  0
   41.3160   22.6360   36.6920 H   0  0  0  0  0  0  0  0  0  0  0  0
   39.9160   22.4530   38.7000 H   0  0  0  0  0  0  0  0  0  0  0  0
   37.6420   23.4560   38.7170 H   0  0  0  0  0  0  0  0  0  0  0  0
   36.5030   24.1590   31.2020 C   0  0  0  0  0  0  0  0  0  0  0  0
   37.3770   24.1110   30.1370 F   0  0  0  0  0  0  0  0  0  0  0  0
   36.3970   22.8390   31.6500 F   0  0  0  0  0  0  0  0  0  0  0  0
   35.2480   24.5790   30.8770 F   0  0  0  0  0  0  0  0  0  0  0  0
  2  1  1  0  0  0  0
  2  3  1  0  0  0  0
  3 15  1  0  0  0  0
  4  3  2  0  0  0  0
  4  9  1  0  0  0  0
  5  4  1  0  0  0  0
  6  8  1  0  0  0  0
  6  5  2  0  0  0  0
  7  6  1  0  0  0  0
  8  2  2  0  0  0  0
 10  5  1  0  0  0  0
 11 17  1  0  0  0  0
 11 12  1  0  0  0  0
 12 13  2  0  0  0  0
 12 18  1  0  0  0  0
 13 19  1  0  0  0  0
 14 13  1  0  0  0  0
 15 14  2  0  0  0  0
 16 15  1  0  0  0  0
 16 11  2  0  0  0  0
 20 22  1  0  0  0  0
 20  8  1  0  0  0  0
 21 20  1  0  0  0  0
 23 20  1  0  0  0  0
M  END
>  <minimizedAffinity>
-4.73800755

$$$$

 OpenBabel03272509003D

 23 24  0  0  0  0  0  0  0  0999 V2000
   38.6770   26.7110   35.5930 Cl  0  0  0  0  0  0  0  0  0  0  0  0
   38.0400   25.6850   34.3510 C   0  0  0  0  0  0  0  0  0  0  0  0
   38.2800   24.3290   34.3910 C   0  0  0  0  0  0  0  0  0  0  0  0
   37.7980   23.4750   33.4250 C   0  0  0  0  0  0  0  0  0  0  0  0
   37.0500   23.9630   32.3700 C   0  0  0  0  0  0  0  0  0  0  0  0
   36.7910   25.3310   32.3020 C   0  0  0  0  0  0  0  0  0  0  0  0
   35.8560   26.0770   31.0190 Cl  0  0  0  0  0  0  0  0  0  0  0  0
   37.2930   26.1390   33.2920 C   0  0  0  0  0  0  0  0  0  0  0  0
   37.9830   22.4130   33.4500 H   0  0  0  0  0  0  0  0  0  0  0  0
   36.6480   23.3380   31.5850 H   0  0  0  0  0  0  0  0  0  0  0  0
   41.0710   23.0060   36.3770 C   0  0  0  0  0  0  0  0  0  0  0  0
   40.4810   22.7540   37.6150 C   0  0  0  0  0  0  0  0  0  0  0  0
   39.0980   23.0470   37.7620 C   0  0  0  0  0  0  0  0  0  0  0  0
   38.4400   23.5530   36.6870 N   0  0  0  0  0  0  0  0  0  0  0  0
   39.0680   23.7810   35.4940 C   0  0  0  0  0  0  0  0  0  0  0  0
   40.3710   23.5060   35.3520 N   0  0  0  0  0  0  0  0  0  0  0  0
   42.1260   22.7650   36.3150 H   0  0  0  0  0  0  0  0  0  0  0  0
   40.9960   22.3570   38.4550 H   0  0  0  0  0  0  0  0  0  0  0  0
   38.5770   22.8760   38.6950 H   0  0  0  0  0  0  0  0  0  0  0  0
   37.0310   27.6160   33.2450 C   0  0  0  0  0  0  0  0  0  0  0  0
   37.8300   28.2410   32.3120 F   0  0  0  0  0  0  0  0  0  0  0  0
   35.7240   27.7760   32.7770 F   0  0  0  0  0  0  0  0  0  0  0  0
   37.0860   28.1690   34.4900 F   0  0  0  0  0  0  0  0  0  0  0  0
  2  3  1  0  0  0  0
  2  1  1  0  0  0  0
  3 15  1  0  0  0  0
  4  9  1  0  0  0  0
  4  3  2  0  0  0  0
  5  4  1  0  0  0  0
  6  5  2  0  0  0  0
  6  8  1  0  0  0  0
  7  6  1  0  0  0  0
  8  2  2  0  0  0  0
 10  5  1  0  0  0  0
 11 12  1  0  0  0  0
 12 13  2  0  0  0  0
 12 18  1  0  0  0  0
 13 19  1  0  0  0  0
 14 13  1  0  0  0  0
 15 14  2  0  0  0  0
 16 15  1  0  0  0  0
 16 11  2  0  0  0  0
 17 11  1  0  0  0  0
 20  8  1  0  0  0  0
 20 23  1  0  0  0  0
 21 20  1  0  0  0  0
 22 20  1  0  0  0  0
M  END
>  <minimizedAffinity>
-4.73122883

$$$$

 OpenBabel03272509003D

 23 24  0  0  0  0  0  0  0  0999 V2000
   32.8640   29.2970   34.7590 Cl  0  0  0  0  0  0  0  0  0  0  0  0
   33.9000   30.5620   35.3340 C   0  0  0  0  0  0  0  0  0  0  0  0
   35.2040   30.6330   34.8960 C   0  0  0  0  0  0  0  0  0  0  0  0
   36.0640   31.6160   35.3280 C   0  0  0  0  0  0  0  0  0  0  0  0
   35.6370   32.5750   36.2270 C   0  0  0  0  0  0  0  0  0  0  0  0
   34.3220   32.5290   36.6890 C   0  0  0  0  0  0  0  0  0  0  0  0
   33.6550   33.6830   37.8290 Cl  0  0  0  0  0  0  0  0  0  0  0  0
   33.5040   31.5280   36.2260 C   0  0  0  0  0  0  0  0  0  0  0  0
   37.0860   31.6770   34.9900 H   0  0  0  0  0  0  0  0  0  0  0  0
   36.2700   33.3680   36.5980 H   0  0  0  0  0  0  0  0  0  0  0  0
   35.9920   28.8690   31.7740 C   0  0  0  0  0  0  0  0  0  0  0  0
   36.6240   27.7090   32.2210 C   0  0  0  0  0  0  0  0  0  0  0  0
   36.7770   27.5370   33.6240 C   0  0  0  0  0  0  0  0  0  0  0  0
   36.2980   28.5140   34.4370 N   0  0  0  0  0  0  0  0  0  0  0  0
   35.6870   29.6340   33.9440 C   0  0  0  0  0  0  0  0  0  0  0  0
   35.5410   29.7980   32.6230 N   0  0  0  0  0  0  0  0  0  0  0  0
   35.9000   28.9540   30.6960 H   0  0  0  0  0  0  0  0  0  0  0  0
   36.9970   26.9450   31.5840 H   0  0  0  0  0  0  0  0  0  0  0  0
   37.2570   26.6610   34.0400 H   0  0  0  0  0  0  0  0  0  0  0  0
   32.0840   31.4520   36.7050 C   0  0  0  0  0  0  0  0  0  0  0  0
   31.6550   32.6640   37.2030 F   0  0  0  0  0  0  0  0  0  0  0  0
   31.2930   31.2180   35.5760 F   0  0  0  0  0  0  0  0  0  0  0  0
   31.9010   30.4010   37.5530 F   0  0  0  0  0  0  0  0  0  0  0  0
  1  2  1  0  0  0  0
  2  8  1  0  0  0  0
  3  4  1  0  0  0  0
  3  2  2  0  0  0  0
  4  5  2  0  0  0  0
  5 10  1  0  0  0  0
  5  6  1  0  0  0  0
  6  7  1  0  0  0  0
  8  6  2  0  0  0  0
  8 20  1  0  0  0  0
  9  4  1  0  0  0  0
 11 12  2  0  0  0  0
 11 16  1  0  0  0  0
 12 13  1  0  0  0  0
 13 19  1  0  0  0  0
 13 14  2  0  0  0  0
 15 14  1  0  0  0  0
 15  3  1  0  0  0  0
 16 15  2  0  0  0  0
 17 11  1  0  0  0  0
 18 12  1  0  0  0  0
 20 21  1  0  0  0  0
 20 23  1  0  0  0  0
 22 20  1  0  0  0  0
M  END
>  <minimizedAffinity>
-4.68862247

$$$$

 OpenBabel03272509003D

 23 24  0  0  0  0  0  0  0  0999 V2000
   35.8890   30.9630   35.2580 Cl  0  0  0  0  0  0  0  0  0  0  0  0
   34.2680   30.4640   34.9050 C   0  0  0  0  0  0  0  0  0  0  0  0
   34.0100   29.7180   33.7760 C   0  0  0  0  0  0  0  0  0  0  0  0
   32.7380   29.3030   33.4530 C   0  0  0  0  0  0  0  0  0  0  0  0
   31.6680   29.6290   34.2650 C   0  0  0  0  0  0  0  0  0  0  0  0
   31.8970   30.3830   35.4140 C   0  0  0  0  0  0  0  0  0  0  0  0
   30.6290   30.8640   36.5260 Cl  0  0  0  0  0  0  0  0  0  0  0  0
   33.1850   30.7720   35.6920 C   0  0  0  0  0  0  0  0  0  0  0  0
   32.5280   28.7200   32.5700 H   0  0  0  0  0  0  0  0  0  0  0  0
   30.6500   29.3290   34.0570 H   0  0  0  0  0  0  0  0  0  0  0  0
   36.9630   28.0440   32.3790 C   0  0  0  0  0  0  0  0  0  0  0  0
   37.1840   28.7390   31.1900 C   0  0  0  0  0  0  0  0  0  0  0  0
   36.2950   29.8020   30.8710 C   0  0  0  0  0  0  0  0  0  0  0  0
   35.2910   30.0720   31.7440 N   0  0  0  0  0  0  0  0  0  0  0  0
   35.1200   29.3570   32.8970 C   0  0  0  0  0  0  0  0  0  0  0  0
   35.9550   28.3550   33.2010 N   0  0  0  0  0  0  0  0  0  0  0  0
   37.6670   27.2430   32.5780 H   0  0  0  0  0  0  0  0  0  0  0  0
   37.9700   28.5280   30.5090 H   0  0  0  0  0  0  0  0  0  0  0  0
   36.4080   30.3830   29.9650 H   0  0  0  0  0  0  0  0  0  0  0  0
   33.4630   31.5850   36.9220 C   0  0  0  0  0  0  0  0  0  0  0  0
   32.8430   32.8140   36.8650 F   0  0  0  0  0  0  0  0  0  0  0  0
   32.8560   30.9160   37.9890 F   0  0  0  0  0  0  0  0  0  0  0  0
   34.7990   31.6420   37.1870 F   0  0  0  0  0  0  0  0  0  0  0  0
  2  1  1  0  0  0  0
  2  8  1  0  0  0  0
  3  2  2  0  0  0  0
  4  3  1  0  0  0  0
  4  5  2  0  0  0  0
  5  6  1  0  0  0  0
  6  8  2  0  0  0  0
  6  7  1  0  0  0  0
  8 20  1  0  0  0  0
  9  4  1  0  0  0  0
 10  5  1  0  0  0  0
 11 17  1  0  0  0  0
 11 16  1  0  0  0  0
 12 11  2  0  0  0  0
 13 12  1  0  0  0  0
 13 14  2  0  0  0  0
 14 15  1  0  0  0  0
 15 16  2  0  0  0  0
 15  3  1  0  0  0  0
 18 12  1  0  0  0  0
 19 13  1  0  0  0  0
 20 23  1  0  0  0  0
 20 22  1  0  0  0  0
 21 20  1  0  0  0  0
M  END
>  <minimizedAffinity>
-4.66304111

$$$$

 OpenBabel03272509003D

 23 24  0  0  0  0  0  0  0  0999 V2000
   37.3820   25.5980   35.6450 Cl  0  0  0  0  0  0  0  0  0  0  0  0
   38.7550   24.5590   35.4500 C   0  0  0  0  0  0  0  0  0  0  0  0
   39.4280   24.5290   34.2490 C   0  0  0  0  0  0  0  0  0  0  0  0
   40.5200   23.7170   34.0470 C   0  0  0  0  0  0  0  0  0  0  0  0
   40.9790   22.8950   35.0590 C   0  0  0  0  0  0  0  0  0  0  0  0
   40.3180   22.9030   36.2860 C   0  0  0  0  0  0  0  0  0  0  0  0
   40.7970   21.9110   37.6510 Cl  0  0  0  0  0  0  0  0  0  0  0  0
   39.2340   23.7320   36.4370 C   0  0  0  0  0  0  0  0  0  0  0  0
   41.0510   23.6870   33.1090 H   0  0  0  0  0  0  0  0  0  0  0  0
   41.8310   22.2390   34.9540 H   0  0  0  0  0  0  0  0  0  0  0  0
   39.0000   27.3950   31.9940 C   0  0  0  0  0  0  0  0  0  0  0  0
   38.0530   26.9340   31.0800 C   0  0  0  0  0  0  0  0  0  0  0  0
   37.5570   25.6120   31.2490 C   0  0  0  0  0  0  0  0  0  0  0  0
   38.0370   24.8840   32.2900 N   0  0  0  0  0  0  0  0  0  0  0  0
   38.9680   25.3860   33.1580 C   0  0  0  0  0  0  0  0  0  0  0  0
   39.4370   26.6310   33.0010 N   0  0  0  0  0  0  0  0  0  0  0  0
   39.3470   28.4080   31.8220 H   0  0  0  0  0  0  0  0  0  0  0  0
   37.6770   27.5040   30.2660 H   0  0  0  0  0  0  0  0  0  0  0  0
   36.8210   25.1910   30.5770 H   0  0  0  0  0  0  0  0  0  0  0  0
   38.5020   23.7630   37.7470 C   0  0  0  0  0  0  0  0  0  0  0  0
   39.3310   23.4290   38.7950 F   0  0  0  0  0  0  0  0  0  0  0  0
   38.1410   25.0950   37.9720 F   0  0  0  0  0  0  0  0  0  0  0  0
   37.3510   23.0350   37.6890 F   0  0  0  0  0  0  0  0  0  0  0  0
  2  1  1  0  0  0  0
  2  8  1  0  0  0  0
  3  2  2  0  0  0  0
  4  3  1  0  0  0  0
  4  5  2  0  0  0  0
  5  6  1  0  0  0  0
  6  8  2  0  0  0  0
  6  7  1  0  0  0  0
  8 20  1  0  0  0  0
  9  4  1  0  0  0  0
 10  5  1  0  0  0  0
 11 16  1  0  0  0  0
 12 13  1  0  0  0  0
 12 11  2  0  0  0  0
 13 14  2  0  0  0  0
 14 15  1  0  0  0  0
 15  3  1  0  0  0  0
 16 15  2  0  0  0  0
 17 11  1  0  0  0  0
 18 12  1  0  0  0  0
 19 13  1  0  0  0  0
 20 22  1  0  0  0  0
 20 21  1  0  0  0  0
 23 20  1  0  0  0  0
M  END
>  <minimizedAffinity>
-4.6541605

$$$$

 OpenBabel03272509003D

 23 24  0  0  0  0  0  0  0  0999 V2000
   38.0590   23.3850   33.6220 Cl  0  0  0  0  0  0  0  0  0  0  0  0
   37.0860   24.4450   32.6580 C   0  0  0  0  0  0  0  0  0  0  0  0
   36.1870   23.9210   31.7560 C   0  0  0  0  0  0  0  0  0  0  0  0
   35.3960   24.7240   30.9660 C   0  0  0  0  0  0  0  0  0  0  0  0
   35.4840   26.1000   31.0570 C   0  0  0  0  0  0  0  0  0  0  0  0
   36.3850   26.6610   31.9610 C   0  0  0  0  0  0  0  0  0  0  0  0
   36.5950   28.3890   32.1740 Cl  0  0  0  0  0  0  0  0  0  0  0  0
   37.1500   25.8160   32.7260 C   0  0  0  0  0  0  0  0  0  0  0  0
   34.6910   24.3200   30.2570 H   0  0  0  0  0  0  0  0  0  0  0  0
   34.8870   26.7760   30.4610 H   0  0  0  0  0  0  0  0  0  0  0  0
   36.7810   20.4330   30.7770 C   0  0  0  0  0  0  0  0  0  0  0  0
   35.7830   19.7410   31.4620 C   0  0  0  0  0  0  0  0  0  0  0  0
   34.8920   20.4960   32.2740 C   0  0  0  0  0  0  0  0  0  0  0  0
   35.0710   21.8410   32.3290 N   0  0  0  0  0  0  0  0  0  0  0  0
   36.0690   22.4690   31.6350 C   0  0  0  0  0  0  0  0  0  0  0  0
   36.9100   21.7610   30.8700 N   0  0  0  0  0  0  0  0  0  0  0  0
   37.4350   19.8130   30.1720 H   0  0  0  0  0  0  0  0  0  0  0  0
   35.6420   18.6900   31.4180 H   0  0  0  0  0  0  0  0  0  0  0  0
   34.0950   20.0240   32.8320 H   0  0  0  0  0  0  0  0  0  0  0  0
   38.1300   26.3900   33.7080 C   0  0  0  0  0  0  0  0  0  0  0  0
   39.0320   25.4390   34.1340 F   0  0  0  0  0  0  0  0  0  0  0  0
   38.8900   27.3320   33.0100 F   0  0  0  0  0  0  0  0  0  0  0  0
   37.4930   27.0490   34.7160 F   0  0  0  0  0  0  0  0  0  0  0  0
  2  8  1  0  0  0  0
  2  1  1  0  0  0  0
  3  2  2  0  0  0  0
  4  5  2  0  0  0  0
  4  3  1  0  0  0  0
  5  6  1  0  0  0  0
  6  7  1  0  0  0  0
  6  8  2  0  0  0  0
  8 20  1  0  0  0  0
  9  4  1  0  0  0  0
 10  5  1  0  0  0  0
 11 16  2  0  0  0  0
 11 12  1  0  0  0  0
 12 13  2  0  0  0  0
 13 14  1  0  0  0  0
 13 19  1  0  0  0  0
 15  3  1  0  0  0  0
 15 14  2  0  0  0  0
 16 15  1  0  0  0  0
 17 11  1  0  0  0  0
 18 12  1  0  0  0  0
 20 21  1  0  0  0  0
 20 23  1  0  0  0  0
 22 20  1  0  0  0  0
M  END
>  <minimizedAffinity>
-4.61753273

$$$$
