
 OpenBabel03272508253D

 20 21  0  0  1  0  0  0  0  0999 V2000
   38.7250   24.6810   35.9880 C   0  0  1  0  0  0  0  0  0  0  0  0
   37.7600   24.1930   36.9670 C   0  0  1  0  0  0  0  0  0  0  0  0
   38.1130   23.2960   35.8190 C   0  0  0  0  0  0  0  0  0  0  0  0
   39.8140   24.6810   36.2780 H   0  0  0  0  0  0  0  0  0  0  0  0
   36.7190   24.6180   36.8660 H   0  0  0  0  0  0  0  0  0  0  0  0
   37.4090   23.1390   34.9910 H   0  0  0  0  0  0  0  0  0  0  0  0
   38.7860   22.4290   36.0100 H   0  0  0  0  0  0  0  0  0  0  0  0
   38.3140   25.6260   34.8840 C   0  0  0  0  0  0  0  0  0  0  0  0
   37.3170   26.5740   35.1730 C   0  0  0  0  0  0  0  0  0  0  0  0
   36.9690   27.3980   34.1180 C   0  0  0  0  0  0  0  0  0  0  0  0
   37.5690   27.2760   32.8920 N   0  0  0  0  0  0  0  0  0  0  0  0
   38.5220   26.3480   32.6670 C   0  0  0  0  0  0  0  0  0  0  0  0
   38.8950   25.5140   33.6830 N   0  0  0  0  0  0  0  0  0  0  0  0
   36.8510   26.6610   36.1430 H   0  0  0  0  0  0  0  0  0  0  0  0
   36.2110   28.1660   34.2290 H   0  0  0  0  0  0  0  0  0  0  0  0
   39.0230   26.2120   31.7200 H   0  0  0  0  0  0  0  0  0  0  0  0
   38.1320   23.8020   38.3560 C   0  0  0  0  0  0  0  0  0  0  0  0
   38.1060   24.9260   39.1770 F   0  0  0  0  0  0  0  0  0  0  0  0
   37.2780   22.8180   38.8490 F   0  0  0  0  0  0  0  0  0  0  0  0
   39.4200   23.3180   38.3680 F   0  0  0  0  0  0  0  0  0  0  0  0
  1  4  1  1  0  0  0
  1  2  1  0  0  0  0
  2  5  1  6  0  0  0
  2 17  1  0  0  0  0
  3  1  1  0  0  0  0
  3  7  1  0  0  0  0
  3  2  1  0  0  0  0
  6  3  1  0  0  0  0
  8  9  1  0  0  0  0
  8  1  1  0  0  0  0
  9 14  1  0  0  0  0
 10 15  1  0  0  0  0
 10  9  2  0  0  0  0
 11 10  1  0  0  0  0
 12 11  2  0  0  0  0
 12 13  1  0  0  0  0
 13  8  2  0  0  0  0
 16 12  1  0  0  0  0
 17 20  1  0  0  0  0
 17 19  1  0  0  0  0
 17 18  1  0  0  0  0
M  END
>  <minimizedAffinity>
-4.27455091

$$$$

 OpenBabel03272508253D

 20 21  0  0  1  0  0  0  0  0999 V2000
   38.7630   25.5280   34.9210 C   0  0  1  0  0  0  0  0  0  0  0  0
   38.0210   26.7840   34.9070 C   0  0  1  0  0  0  0  0  0  0  0  0
   39.5070   26.8470   35.0990 C   0  0  0  0  0  0  0  0  0  0  0  0
   38.9470   25.0160   33.9340 H   0  0  0  0  0  0  0  0  0  0  0  0
   37.4630   27.0200   35.8600 H   0  0  0  0  0  0  0  0  0  0  0  0
   39.9380   27.0690   36.0840 H   0  0  0  0  0  0  0  0  0  0  0  0
   40.1380   27.1810   34.2440 H   0  0  0  0  0  0  0  0  0  0  0  0
   38.8250   24.6660   36.1590 C   0  0  0  0  0  0  0  0  0  0  0  0
   39.7570   23.6140   36.1770 C   0  0  0  0  0  0  0  0  0  0  0  0
   39.7530   22.8480   37.3290 C   0  0  0  0  0  0  0  0  0  0  0  0
   38.8940   23.1180   38.3600 N   0  0  0  0  0  0  0  0  0  0  0  0
   38.0170   24.1420   38.2930 C   0  0  0  0  0  0  0  0  0  0  0  0
   37.9880   24.9230   37.1720 N   0  0  0  0  0  0  0  0  0  0  0  0
   40.4300   23.4100   35.3580 H   0  0  0  0  0  0  0  0  0  0  0  0
   40.4320   22.0110   37.4510 H   0  0  0  0  0  0  0  0  0  0  0  0
   37.3190   24.3940   39.0780 H   0  0  0  0  0  0  0  0  0  0  0  0
   37.4060   27.3570   33.6770 C   0  0  0  0  0  0  0  0  0  0  0  0
   36.6350   28.4650   34.0160 F   0  0  0  0  0  0  0  0  0  0  0  0
   38.3780   27.7060   32.7420 F   0  0  0  0  0  0  0  0  0  0  0  0
   36.5610   26.4300   33.1110 F   0  0  0  0  0  0  0  0  0  0  0  0
  1  4  1  6  0  0  0
  1  3  1  0  0  0  0
  1  8  1  0  0  0  0
  2  1  1  0  0  0  0
  2  3  1  0  0  0  0
  2  5  1  1  0  0  0
  3  6  1  0  0  0  0
  7  3  1  0  0  0  0
  8  9  2  0  0  0  0
  8 13  1  0  0  0  0
  9 10  1  0  0  0  0
 10 15  1  0  0  0  0
 10 11  2  0  0  0  0
 12 11  1  0  0  0  0
 12 16  1  0  0  0  0
 13 12  2  0  0  0  0
 14  9  1  0  0  0  0
 17 18  1  0  0  0  0
 17  2  1  0  0  0  0
 19 17  1  0  0  0  0
 20 17  1  0  0  0  0
M  END
>  <minimizedAffinity>
-4.02479649

$$$$

 OpenBabel03272508253D

 20 21  0  0  1  0  0  0  0  0999 V2000
   36.3190   22.2950   32.1880 C   0  0  1  0  0  0  0  0  0  0  0  0
   35.4520   21.3760   31.4580 C   0  0  1  0  0  0  0  0  0  0  0  0
   36.8910   21.4620   31.0470 C   0  0  0  0  0  0  0  0  0  0  0  0
   36.6670   21.9860   33.2140 H   0  0  0  0  0  0  0  0  0  0  0  0
   34.7680   21.8620   30.7020 H   0  0  0  0  0  0  0  0  0  0  0  0
   37.1820   21.9800   30.1230 H   0  0  0  0  0  0  0  0  0  0  0  0
   37.5760   20.6310   31.3330 H   0  0  0  0  0  0  0  0  0  0  0  0
   36.3330   23.7730   31.8790 C   0  0  0  0  0  0  0  0  0  0  0  0
   35.2120   24.3160   31.2280 C   0  0  0  0  0  0  0  0  0  0  0  0
   35.2910   25.6700   30.9550 C   0  0  0  0  0  0  0  0  0  0  0  0
   36.3940   26.4020   31.3040 N   0  0  0  0  0  0  0  0  0  0  0  0
   37.4470   25.8320   31.9290 C   0  0  0  0  0  0  0  0  0  0  0  0
   37.4080   24.4970   32.2170 N   0  0  0  0  0  0  0  0  0  0  0  0
   34.3480   23.7280   30.9570 H   0  0  0  0  0  0  0  0  0  0  0  0
   34.4820   26.1920   30.4560 H   0  0  0  0  0  0  0  0  0  0  0  0
   38.3380   26.3660   32.2230 H   0  0  0  0  0  0  0  0  0  0  0  0
   34.9220   20.1140   32.0440 C   0  0  0  0  0  0  0  0  0  0  0  0
   35.4550   19.0250   31.3610 F   0  0  0  0  0  0  0  0  0  0  0  0
   35.2130   20.0260   33.4040 F   0  0  0  0  0  0  0  0  0  0  0  0
   33.5560   20.0680   31.8810 F   0  0  0  0  0  0  0  0  0  0  0  0
  1  4  1  1  0  0  0
  2  5  1  6  0  0  0
  2 17  1  0  0  0  0
  2  1  1  0  0  0  0
  3  7  1  0  0  0  0
  3  2  1  0  0  0  0
  3  1  1  0  0  0  0
  6  3  1  0  0  0  0
  8  1  1  0  0  0  0
  8 13  1  0  0  0  0
  9  8  2  0  0  0  0
 10  9  1  0  0  0  0
 10 11  2  0  0  0  0
 11 12  1  0  0  0  0
 12 13  2  0  0  0  0
 12 16  1  0  0  0  0
 14  9  1  0  0  0  0
 15 10  1  0  0  0  0
 17 19  1  0  0  0  0
 18 17  1  0  0  0  0
 20 17  1  0  0  0  0
M  END
>  <minimizedAffinity>
-4.01627207

$$$$

 OpenBabel03272508253D

 20 21  0  0  1  0  0  0  0  0999 V2000
   39.3930   24.0020   36.0610 C   0  0  1  0  0  0  0  0  0  0  0  0
   38.2850   24.3240   36.9530 C   0  0  1  0  0  0  0  0  0  0  0  0
   38.0460   23.3170   35.8670 C   0  0  0  0  0  0  0  0  0  0  0  0
   40.2080   23.3310   36.4560 H   0  0  0  0  0  0  0  0  0  0  0  0
   37.7680   25.3050   36.7390 H   0  0  0  0  0  0  0  0  0  0  0  0
   37.4560   23.5780   34.9790 H   0  0  0  0  0  0  0  0  0  0  0  0
   37.9910   22.2400   36.1460 H   0  0  0  0  0  0  0  0  0  0  0  0
   39.7520   24.8980   34.8990 C   0  0  0  0  0  0  0  0  0  0  0  0
   39.5970   26.2840   35.0700 C   0  0  0  0  0  0  0  0  0  0  0  0
   39.9230   27.0500   33.9650 C   0  0  0  0  0  0  0  0  0  0  0  0
   40.3600   26.4730   32.8030 N   0  0  0  0  0  0  0  0  0  0  0  0
   40.4910   25.1340   32.6900 C   0  0  0  0  0  0  0  0  0  0  0  0
   40.1800   24.3410   33.7590 N   0  0  0  0  0  0  0  0  0  0  0  0
   39.2510   26.7280   35.9910 H   0  0  0  0  0  0  0  0  0  0  0  0
   39.8410   28.1320   33.9860 H   0  0  0  0  0  0  0  0  0  0  0  0
   40.8310   24.6320   31.7960 H   0  0  0  0  0  0  0  0  0  0  0  0
   38.2350   23.9020   38.3800 C   0  0  0  0  0  0  0  0  0  0  0  0
   37.2510   22.9310   38.5440 F   0  0  0  0  0  0  0  0  0  0  0  0
   39.4700   23.4200   38.8080 F   0  0  0  0  0  0  0  0  0  0  0  0
   37.8830   24.9760   39.1660 F   0  0  0  0  0  0  0  0  0  0  0  0
  1  4  1  1  0  0  0
  1  2  1  0  0  0  0
  2  5  1  6  0  0  0
  2 17  1  0  0  0  0
  3  1  1  0  0  0  0
  3  7  1  0  0  0  0
  3  2  1  0  0  0  0
  6  3  1  0  0  0  0
  8  9  1  0  0  0  0
  8  1  1  0  0  0  0
  9 14  1  0  0  0  0
 10 15  1  0  0  0  0
 10  9  2  0  0  0  0
 11 10  1  0  0  0  0
 12 11  2  0  0  0  0
 12 13  1  0  0  0  0
 13  8  2  0  0  0  0
 16 12  1  0  0  0  0
 17 18  1  0  0  0  0
 17 19  1  0  0  0  0
 17 20  1  0  0  0  0
M  END
>  <minimizedAffinity>
-4.00947046

$$$$

 OpenBabel03272508253D

 20 21  0  0  1  0  0  0  0  0999 V2000
   38.7420   25.4860   34.9280 C   0  0  1  0  0  0  0  0  0  0  0  0
   38.0490   26.7670   34.9980 C   0  0  1  0  0  0  0  0  0  0  0  0
   39.5460   26.7720   35.0840 C   0  0  0  0  0  0  0  0  0  0  0  0
   38.8370   24.9930   33.9190 H   0  0  0  0  0  0  0  0  0  0  0  0
   37.5690   26.9980   35.9930 H   0  0  0  0  0  0  0  0  0  0  0  0
   40.0540   26.9520   36.0400 H   0  0  0  0  0  0  0  0  0  0  0  0
   40.1280   27.1050   34.1940 H   0  0  0  0  0  0  0  0  0  0  0  0
   38.8590   24.5890   36.1380 C   0  0  0  0  0  0  0  0  0  0  0  0
   37.9510   24.7910   37.1910 C   0  0  0  0  0  0  0  0  0  0  0  0
   38.1190   23.9530   38.2780 C   0  0  0  0  0  0  0  0  0  0  0  0
   39.1080   23.0060   38.3000 N   0  0  0  0  0  0  0  0  0  0  0  0
   39.9550   22.8520   37.2610 C   0  0  0  0  0  0  0  0  0  0  0  0
   39.8230   23.6610   36.1670 N   0  0  0  0  0  0  0  0  0  0  0  0
   37.1750   25.5420   37.1630 H   0  0  0  0  0  0  0  0  0  0  0  0
   37.4730   24.0210   39.1470 H   0  0  0  0  0  0  0  0  0  0  0  0
   40.7500   22.1220   37.2310 H   0  0  0  0  0  0  0  0  0  0  0  0
   37.3710   27.3940   33.8290 C   0  0  0  0  0  0  0  0  0  0  0  0
   36.5280   26.4640   33.2270 F   0  0  0  0  0  0  0  0  0  0  0  0
   36.6560   28.5280   34.2080 F   0  0  0  0  0  0  0  0  0  0  0  0
   38.3120   27.7580   32.8920 F   0  0  0  0  0  0  0  0  0  0  0  0
  1  4  1  6  0  0  0
  1  2  1  0  0  0  0
  1  3  1  0  0  0  0
  1  8  1  0  0  0  0
  2  3  1  0  0  0  0
  2  5  1  1  0  0  0
  3  6  1  0  0  0  0
  7  3  1  0  0  0  0
  8 13  2  0  0  0  0
  8  9  1  0  0  0  0
  9 10  2  0  0  0  0
 10 11  1  0  0  0  0
 10 15  1  0  0  0  0
 12 11  2  0  0  0  0
 13 12  1  0  0  0  0
 14  9  1  0  0  0  0
 16 12  1  0  0  0  0
 17 19  1  0  0  0  0
 17  2  1  0  0  0  0
 18 17  1  0  0  0  0
 20 17  1  0  0  0  0
M  END
>  <minimizedAffinity>
-4.003932

$$$$

 OpenBabel03272508253D

 20 21  0  0  1  0  0  0  0  0999 V2000
   36.2290   22.2340   32.1970 C   0  0  1  0  0  0  0  0  0  0  0  0
   35.4160   21.2930   31.4350 C   0  0  1  0  0  0  0  0  0  0  0  0
   36.8620   21.4330   31.0650 C   0  0  0  0  0  0  0  0  0  0  0  0
   36.5600   21.9280   33.2290 H   0  0  0  0  0  0  0  0  0  0  0  0
   34.7370   21.7620   30.6640 H   0  0  0  0  0  0  0  0  0  0  0  0
   37.1610   21.9700   30.1550 H   0  0  0  0  0  0  0  0  0  0  0  0
   37.5670   20.6230   31.3630 H   0  0  0  0  0  0  0  0  0  0  0  0
   36.2010   23.7150   31.9010 C   0  0  0  0  0  0  0  0  0  0  0  0
   37.2140   24.5130   32.4600 C   0  0  0  0  0  0  0  0  0  0  0  0
   37.1240   25.8620   32.1700 C   0  0  0  0  0  0  0  0  0  0  0  0
   36.1100   26.3570   31.3940 N   0  0  0  0  0  0  0  0  0  0  0  0
   35.1590   25.5470   30.8810 C   0  0  0  0  0  0  0  0  0  0  0  0
   35.2120   24.2070   31.1440 N   0  0  0  0  0  0  0  0  0  0  0  0
   38.0090   24.1110   33.0710 H   0  0  0  0  0  0  0  0  0  0  0  0
   37.8540   26.5700   32.5480 H   0  0  0  0  0  0  0  0  0  0  0  0
   34.3400   25.8880   30.2650 H   0  0  0  0  0  0  0  0  0  0  0  0
   34.9140   20.0070   31.9950 C   0  0  0  0  0  0  0  0  0  0  0  0
   35.2550   19.9230   33.3420 F   0  0  0  0  0  0  0  0  0  0  0  0
   33.5360   19.8890   31.8320 F   0  0  0  0  0  0  0  0  0  0  0  0
   35.5270   18.9550   31.3520 F   0  0  0  0  0  0  0  0  0  0  0  0
  1  4  1  1  0  0  0
  2  5  1  6  0  0  0
  2 17  1  0  0  0  0
  2  1  1  0  0  0  0
  3  7  1  0  0  0  0
  3  2  1  0  0  0  0
  3  1  1  0  0  0  0
  6  3  1  0  0  0  0
  8  1  1  0  0  0  0
  8  9  1  0  0  0  0
  9 14  1  0  0  0  0
 10  9  2  0  0  0  0
 10 15  1  0  0  0  0
 11 10  1  0  0  0  0
 12 13  1  0  0  0  0
 12 11  2  0  0  0  0
 13  8  2  0  0  0  0
 16 12  1  0  0  0  0
 17 18  1  0  0  0  0
 19 17  1  0  0  0  0
 20 17  1  0  0  0  0
M  END
>  <minimizedAffinity>
-3.99307442

$$$$

 OpenBabel03272508253D

 20 21  0  0  1  0  0  0  0  0999 V2000
   37.3420   26.6620   35.3170 C   0  0  1  0  0  0  0  0  0  0  0  0
   38.1950   25.5110   35.5940 C   0  0  1  0  0  0  0  0  0  0  0  0
   38.8350   26.8660   35.5420 C   0  0  0  0  0  0  0  0  0  0  0  0
   36.6860   27.0430   36.1500 H   0  0  0  0  0  0  0  0  0  0  0  0
   38.4610   24.8850   34.6930 H   0  0  0  0  0  0  0  0  0  0  0  0
   39.4520   27.1640   34.6840 H   0  0  0  0  0  0  0  0  0  0  0  0
   39.1310   27.3500   36.5010 H   0  0  0  0  0  0  0  0  0  0  0  0
   36.9240   27.0080   33.9070 C   0  0  0  0  0  0  0  0  0  0  0  0
   36.3830   28.2850   33.6810 C   0  0  0  0  0  0  0  0  0  0  0  0
   36.0020   28.5360   32.3750 C   0  0  0  0  0  0  0  0  0  0  0  0
   36.1530   27.5910   31.3950 N   0  0  0  0  0  0  0  0  0  0  0  0
   36.6790   26.3780   31.6660 C   0  0  0  0  0  0  0  0  0  0  0  0
   37.0680   26.0900   32.9440 N   0  0  0  0  0  0  0  0  0  0  0  0
   36.2680   29.0220   34.4610 H   0  0  0  0  0  0  0  0  0  0  0  0
   35.5720   29.4900   32.0870 H   0  0  0  0  0  0  0  0  0  0  0  0
   36.8180   25.6000   30.9290 H   0  0  0  0  0  0  0  0  0  0  0  0
   38.1570   24.7570   36.8780 C   0  0  0  0  0  0  0  0  0  0  0  0
   39.2450   23.8910   36.9400 F   0  0  0  0  0  0  0  0  0  0  0  0
   38.1580   25.6210   37.9720 F   0  0  0  0  0  0  0  0  0  0  0  0
   37.0180   23.9850   36.9250 F   0  0  0  0  0  0  0  0  0  0  0  0
  1  3  1  0  0  0  0
  1  2  1  0  0  0  0
  1  4  1  1  0  0  0
  2  5  1  6  0  0  0
  2 17  1  0  0  0  0
  3  2  1  0  0  0  0
  3  7  1  0  0  0  0
  6  3  1  0  0  0  0
  8  1  1  0  0  0  0
  9  8  1  0  0  0  0
  9 14  1  0  0  0  0
 10  9  2  0  0  0  0
 11 12  2  0  0  0  0
 11 10  1  0  0  0  0
 12 13  1  0  0  0  0
 13  8  2  0  0  0  0
 15 10  1  0  0  0  0
 16 12  1  0  0  0  0
 17 20  1  0  0  0  0
 17 18  1  0  0  0  0
 17 19  1  0  0  0  0
M  END
>  <minimizedAffinity>
-3.98805571

$$$$

 OpenBabel03272508253D

 20 21  0  0  1  0  0  0  0  0999 V2000
   38.2640   25.3260   33.9750 C   0  0  1  0  0  0  0  0  0  0  0  0
   37.6460   26.0420   35.0850 C   0  0  1  0  0  0  0  0  0  0  0  0
   38.0930   24.6310   35.3210 C   0  0  0  0  0  0  0  0  0  0  0  0
   39.3300   25.5820   33.7120 H   0  0  0  0  0  0  0  0  0  0  0  0
   36.5210   26.1250   35.0330 H   0  0  0  0  0  0  0  0  0  0  0  0
   37.3630   23.8140   35.3920 H   0  0  0  0  0  0  0  0  0  0  0  0
   39.0210   24.4600   35.9130 H   0  0  0  0  0  0  0  0  0  0  0  0
   37.4290   24.6850   32.8910 C   0  0  0  0  0  0  0  0  0  0  0  0
   36.4940   25.4940   32.2230 C   0  0  0  0  0  0  0  0  0  0  0  0
   35.7460   24.8470   31.2550 C   0  0  0  0  0  0  0  0  0  0  0  0
   35.9260   23.5160   30.9900 N   0  0  0  0  0  0  0  0  0  0  0  0
   36.8390   22.7830   31.6610 C   0  0  0  0  0  0  0  0  0  0  0  0
   37.5980   23.3840   32.6260 N   0  0  0  0  0  0  0  0  0  0  0  0
   36.3620   26.5430   32.4410 H   0  0  0  0  0  0  0  0  0  0  0  0
   34.9960   25.3760   30.6770 H   0  0  0  0  0  0  0  0  0  0  0  0
   37.0160   21.7310   31.4900 H   0  0  0  0  0  0  0  0  0  0  0  0
   38.3120   27.1620   35.8060 C   0  0  0  0  0  0  0  0  0  0  0  0
   38.2700   26.9220   37.1770 F   0  0  0  0  0  0  0  0  0  0  0  0
   39.6290   27.3260   35.3800 F   0  0  0  0  0  0  0  0  0  0  0  0
   37.6250   28.3320   35.5760 F   0  0  0  0  0  0  0  0  0  0  0  0
  1  4  1  6  0  0  0
  1  2  1  0  0  0  0
  1  3  1  0  0  0  0
  2  5  1  6  0  0  0
  2  3  1  0  0  0  0
  2 17  1  0  0  0  0
  3  6  1  0  0  0  0
  3  7  1  0  0  0  0
  8  1  1  0  0  0  0
  9 14  1  0  0  0  0
  9  8  2  0  0  0  0
 10  9  1  0  0  0  0
 11 10  2  0  0  0  0
 11 12  1  0  0  0  0
 12 13  2  0  0  0  0
 13  8  1  0  0  0  0
 15 10  1  0  0  0  0
 16 12  1  0  0  0  0
 17 18  1  0  0  0  0
 19 17  1  0  0  0  0
 20 17  1  0  0  0  0
M  END
>  <minimizedAffinity>
-3.95753336

$$$$

 OpenBabel03272508253D

 20 21  0  0  1  0  0  0  0  0999 V2000
   40.2490   22.1700   37.4270 C   0  0  1  0  0  0  0  0  0  0  0  0
   39.4830   23.3940   37.2210 C   0  0  1  0  0  0  0  0  0  0  0  0
   39.2150   22.2330   36.3100 C   0  0  0  0  0  0  0  0  0  0  0  0
   39.9640   21.5100   38.2940 H   0  0  0  0  0  0  0  0  0  0  0  0
   40.0380   24.2240   36.6940 H   0  0  0  0  0  0  0  0  0  0  0  0
   39.5730   22.2390   35.2720 H   0  0  0  0  0  0  0  0  0  0  0  0
   38.2820   21.6430   36.4630 H   0  0  0  0  0  0  0  0  0  0  0  0
   41.6560   22.0260   36.8960 C   0  0  0  0  0  0  0  0  0  0  0  0
   42.3100   23.1890   36.4550 C   0  0  0  0  0  0  0  0  0  0  0  0
   43.5870   22.9920   35.9620 C   0  0  0  0  0  0  0  0  0  0  0  0
   44.1470   21.7430   35.9170 N   0  0  0  0  0  0  0  0  0  0  0  0
   43.4750   20.6560   36.3530 C   0  0  0  0  0  0  0  0  0  0  0  0
   42.2100   20.8090   36.8480 N   0  0  0  0  0  0  0  0  0  0  0  0
   41.8580   24.1690   36.4950 H   0  0  0  0  0  0  0  0  0  0  0  0
   44.1840   23.8200   35.5950 H   0  0  0  0  0  0  0  0  0  0  0  0
   43.8720   19.6520   36.3380 H   0  0  0  0  0  0  0  0  0  0  0  0
   38.4230   23.8620   38.1580 C   0  0  0  0  0  0  0  0  0  0  0  0
   38.0460   25.1590   37.8230 F   0  0  0  0  0  0  0  0  0  0  0  0
   37.3190   23.0120   38.1380 F   0  0  0  0  0  0  0  0  0  0  0  0
   38.9260   23.9020   39.4390 F   0  0  0  0  0  0  0  0  0  0  0  0
  1  4  1  1  0  0  0
  2  5  1  6  0  0  0
  2  1  1  0  0  0  0
  2 17  1  0  0  0  0
  3  7  1  0  0  0  0
  3  2  1  0  0  0  0
  3  1  1  0  0  0  0
  6  3  1  0  0  0  0
  8  1  1  0  0  0  0
  9 14  1  0  0  0  0
  9  8  2  0  0  0  0
 10  9  1  0  0  0  0
 11 10  2  0  0  0  0
 11 12  1  0  0  0  0
 12 13  2  0  0  0  0
 13  8  1  0  0  0  0
 15 10  1  0  0  0  0
 16 12  1  0  0  0  0
 17 20  1  0  0  0  0
 18 17  1  0  0  0  0
 19 17  1  0  0  0  0
M  END
>  <minimizedAffinity>
-3.90116978

$$$$
