
 OpenBabel03272509503D

 28 29  0  0  0  0  0  0  0  0999 V2000
   33.7070   28.5960   48.6900 C   0  0  0  0  0  0  0  0  0  0  0  0
   33.0620   29.4340   49.0850 H   0  0  0  0  0  0  0  0  0  0  0  0
   34.2410   28.9990   47.8230 H   0  0  0  0  0  0  0  0  0  0  0  0
   32.7850   27.4500   48.3770 C   0  0  0  0  0  0  0  0  0  0  0  0
   32.9270   26.6450   49.1440 H   0  0  0  0  0  0  0  0  0  0  0  0
   33.1000   26.9590   47.4120 H   0  0  0  0  0  0  0  0  0  0  0  0
   31.3590   27.8520   48.3670 C   0  0  0  0  0  0  0  0  0  0  0  0
   30.6640   27.7350   49.5470 C   0  0  0  0  0  0  0  0  0  0  0  0
   29.3400   28.0740   49.6680 C   0  0  0  0  0  0  0  0  0  0  0  0
   28.6850   28.5410   48.5980 N   0  0  0  0  0  0  0  0  0  0  0  0
   29.3680   28.6570   47.4400 C   0  0  0  0  0  0  0  0  0  0  0  0
   30.6670   28.3280   47.3080 N   0  0  0  0  0  0  0  0  0  0  0  0
   31.1420   27.3600   50.4580 H   0  0  0  0  0  0  0  0  0  0  0  0
   28.7750   27.9830   50.6090 H   0  0  0  0  0  0  0  0  0  0  0  0
   28.8770   29.0280   46.5540 H   0  0  0  0  0  0  0  0  0  0  0  0
   34.5750   28.2410   49.7540 O   0  0  0  0  0  0  0  0  0  0  0  0
   37.1800   30.1680   51.3680 C   0  0  0  0  0  0  0  0  0  0  0  0
   37.7160   30.8460   50.2650 C   0  0  0  0  0  0  0  0  0  0  0  0
   37.1350   30.5910   49.0240 C   0  0  0  0  0  0  0  0  0  0  0  0
   36.0960   29.7090   48.9640 N   0  0  0  0  0  0  0  0  0  0  0  0
   35.6170   29.0820   50.0440 C   0  0  0  0  0  0  0  0  0  0  0  0
   36.1670   29.3190   51.2460 N   0  0  0  0  0  0  0  0  0  0  0  0
   37.6540   30.3880   52.3200 H   0  0  0  0  0  0  0  0  0  0  0  0
   38.5410   31.5410   50.3450 H   0  0  0  0  0  0  0  0  0  0  0  0
   37.6370   31.2700   47.7770 C   0  0  0  0  0  0  0  0  0  0  0  0
   38.7980   30.5710   47.4200 F   0  0  0  0  0  0  0  0  0  0  0  0
   36.6790   31.1830   46.7730 F   0  0  0  0  0  0  0  0  0  0  0  0
   37.8910   32.5730   48.0880 F   0  0  0  0  0  0  0  0  0  0  0  0
  1  2  1  0  0  0  0
  1 16  1  0  0  0  0
  3  1  1  0  0  0  0
  4  1  1  0  0  0  0
  4  5  1  0  0  0  0
  6  4  1  0  0  0  0
  7  4  1  0  0  0  0
  7  8  1  0  0  0  0
  8  9  2  0  0  0  0
  8 13  1  0  0  0  0
  9 14  1  0  0  0  0
 10  9  1  0  0  0  0
 11 10  2  0  0  0  0
 12 11  1  0  0  0  0
 12  7  2  0  0  0  0
 15 11  1  0  0  0  0
 16 21  1  0  0  0  0
 17 23  1  0  0  0  0
 18 24  1  0  0  0  0
 18 17  2  0  0  0  0
 19 18  1  0  0  0  0
 20 19  2  0  0  0  0
 20 21  1  0  0  0  0
 21 22  2  0  0  0  0
 22 17  1  0  0  0  0
 25 28  1  0  0  0  0
 25 19  1  0  0  0  0
 26 25  1  0  0  0  0
 27 25  1  0  0  0  0
M  END
>  <minimizedAffinity>
-5.16205835

>  <minimizedRMSD>
0.424345404

$$$$
