
 OpenBabel03272501463D

 42 45  0  0  1  0  0  0  0  0999 V2000
   33.5760   28.6430   49.1380 C   0  0  0  0  0  0  0  0  0  0  0  0
   33.9690   29.3690   48.0140 C   0  0  0  0  0  0  0  0  0  0  0  0
   33.1300   29.3210   46.9050 C   0  0  0  0  0  0  0  0  0  0  0  0
   31.9890   28.5880   46.9580 N   0  0  0  0  0  0  0  0  0  0  0  0
   31.6400   27.8930   48.0740 C   0  0  0  0  0  0  0  0  0  0  0  0
   32.4410   27.9320   49.1480 N   0  0  0  0  0  0  0  0  0  0  0  0
   34.1770   28.6290   50.0460 H   0  0  0  0  0  0  0  0  0  0  0  0
   33.4440   29.8870   46.0380 H   0  0  0  0  0  0  0  0  0  0  0  0
   35.5720   30.5500   49.3740 C   0  0  0  0  0  0  0  0  0  0  0  0
   35.2070   30.0960   48.1130 C   0  0  0  0  0  0  0  0  0  0  0  0
   36.0730   30.3920   47.0830 C   0  0  0  0  0  0  0  0  0  0  0  0
   37.2430   31.1100   47.3310 C   0  0  0  0  0  0  0  0  0  0  0  0
   38.2300   31.5210   46.5310 N   0  0  0  0  0  0  0  0  0  0  0  0
   39.1400   32.1820   47.2600 C   0  0  0  0  0  0  0  0  0  0  0  0
   38.7350   32.2020   48.5570 N   0  0  0  0  0  0  0  0  0  0  0  0
   37.5640   31.5400   48.5980 C   0  0  0  0  0  0  0  0  0  0  0  0
   36.7230   31.2570   49.6260 C   0  0  0  0  0  0  0  0  0  0  0  0
   34.9290   30.3490   50.2350 H   0  0  0  0  0  0  0  0  0  0  0  0
   35.8050   30.0500   46.1110 H   0  0  0  0  0  0  0  0  0  0  0  0
   38.3100   31.3640   45.4930 H   0  0  0  0  0  0  0  0  0  0  0  0
   40.0720   32.6570   46.9620 H   0  0  0  0  0  0  0  0  0  0  0  0
   36.9570   31.5880   50.6380 H   0  0  0  0  0  0  0  0  0  0  0  0
   30.3710   27.1190   48.0390 C   0  0  0  0  0  0  0  0  0  0  0  0
   30.5200   26.1750   48.6110 H   0  0  0  0  0  0  0  0  0  0  0  0
   30.0970   26.8190   47.0070 H   0  0  0  0  0  0  0  0  0  0  0  0
   29.2340   27.8550   48.6650 C   0  0  1  0  0  0  0  0  0  0  0  0
   28.3360   28.3370   47.5310 C   0  0  0  0  0  0  0  0  0  0  0  0
   26.9790   27.7350   47.7490 C   0  0  0  0  0  0  0  0  0  0  0  0
   27.2500   26.5240   48.5760 C   0  0  0  0  0  0  0  0  0  0  0  0
   28.3370   27.0130   49.5130 C   0  0  2  0  0  0  0  0  0  0  0  0
   29.6230   28.7400   49.2330 H   0  0  0  0  0  0  0  0  0  0  0  0
   28.6920   27.9950   46.5330 H   0  0  0  0  0  0  0  0  0  0  0  0
   28.3340   29.4480   47.5240 H   0  0  0  0  0  0  0  0  0  0  0  0
   26.5410   27.3630   46.7780 H   0  0  0  0  0  0  0  0  0  0  0  0
   26.2260   28.4190   48.1650 H   0  0  0  0  0  0  0  0  0  0  0  0
   27.6240   25.7230   47.9240 H   0  0  0  0  0  0  0  0  0  0  0  0
   26.3930   26.1930   49.1980 H   0  0  0  0  0  0  0  0  0  0  0  0
   28.8710   26.1390   49.9440 H   0  0  0  0  0  0  0  0  0  0  0  0
   27.7670   27.8120   50.6450 C   0  0  0  0  0  0  0  0  0  0  0  0
   28.2170   29.1240   50.4620 F   0  0  0  0  0  0  0  0  0  0  0  0
   26.4020   27.8610   50.6360 F   0  0  0  0  0  0  0  0  0  0  0  0
   28.2630   27.3930   51.8610 F   0  0  0  0  0  0  0  0  0  0  0  0
  1  6  1  0  0  0  0
  1  7  1  0  0  0  0
  2 10  1  0  0  0  0
  2  1  2  0  0  0  0
  3  4  2  0  0  0  0
  3  2  1  0  0  0  0
  4  5  1  0  0  0  0
  5  6  2  0  0  0  0
  8  3  1  0  0  0  0
  9 17  1  0  0  0  0
  9 18  1  0  0  0  0
 10  9  2  0  0  0  0
 11 12  2  0  0  0  0
 11 10  1  0  0  0  0
 12 16  1  0  0  0  0
 13 14  1  0  0  0  0
 13 12  1  0  0  0  0
 14 15  2  0  0  0  0
 15 16  1  0  0  0  0
 16 17  2  0  0  0  0
 17 22  1  0  0  0  0
 19 11  1  0  0  0  0
 20 13  1  0  0  0  0
 21 14  1  0  0  0  0
 23  5  1  0  0  0  0
 23 24  1  0  0  0  0
 23 26  1  0  0  0  0
 25 23  1  0  0  0  0
 26 31  1  1  0  0  0
 26 30  1  0  0  0  0
 27 28  1  0  0  0  0
 27 26  1  0  0  0  0
 28 35  1  0  0  0  0
 28 29  1  0  0  0  0
 29 37  1  0  0  0  0
 29 30  1  0  0  0  0
 30 38  1  1  0  0  0
 30 39  1  0  0  0  0
 32 27  1  0  0  0  0
 33 27  1  0  0  0  0
 34 28  1  0  0  0  0
 36 29  1  0  0  0  0
 39 42  1  0  0  0  0
 40 39  1  0  0  0  0
 41 39  1  0  0  0  0
M  END
>  <minimizedAffinity>
-7.03160191

>  <minimizedRMSD>
1.62118518

$$$$
