
 OpenBabel03262520243D

 37 39  0  0  0  0  0  0  0  0999 V2000
   34.2320   28.9710   48.5080 C   0  0  0  0  0  0  0  0  0  0  0  0
   34.2730   28.7510   49.8900 C   0  0  0  0  0  0  0  0  0  0  0  0
   35.2500   29.1650   50.7330 C   0  0  0  0  0  0  0  0  0  0  0  0
   36.3090   29.8590   50.2620 C   0  0  0  0  0  0  0  0  0  0  0  0
   36.2770   30.0750   48.9260 C   0  0  0  0  0  0  0  0  0  0  0  0
   35.3020   29.6510   48.1490 N   0  0  0  0  0  0  0  0  0  0  0  0
   33.4370   28.1850   50.3680 H   0  0  0  0  0  0  0  0  0  0  0  0
   35.1800   28.9330   51.8210 H   0  0  0  0  0  0  0  0  0  0  0  0
   37.1190   30.2210   50.8530 H   0  0  0  0  0  0  0  0  0  0  0  0
   32.5970   27.2720   48.2960 C   0  0  0  0  0  0  0  0  0  0  0  0
   33.1070   28.4820   47.7160 C   0  0  0  0  0  0  0  0  0  0  0  0
   32.4770   28.9410   46.5990 C   0  0  0  0  0  0  0  0  0  0  0  0
   31.4120   28.2180   46.1210 N   0  0  0  0  0  0  0  0  0  0  0  0
   30.9480   27.0940   46.6720 C   0  0  0  0  0  0  0  0  0  0  0  0
   31.5650   26.6370   47.7720 N   0  0  0  0  0  0  0  0  0  0  0  0
   29.8450   26.5000   46.0480 N   0  0  0  0  0  0  0  0  0  0  0  0
   32.9940   26.7920   49.1790 H   0  0  0  0  0  0  0  0  0  0  0  0
   29.7010   26.3450   45.0300 H   0  0  0  0  0  0  0  0  0  0  0  0
   29.0960   26.1870   46.7150 H   0  0  0  0  0  0  0  0  0  0  0  0
   32.9530   30.1610   45.9660 C   0  0  0  0  0  0  0  0  0  0  0  0
   34.1900   29.9830   45.5270 F   0  0  0  0  0  0  0  0  0  0  0  0
   32.1690   30.6150   44.9180 F   0  0  0  0  0  0  0  0  0  0  0  0
   32.9850   31.2420   46.8970 F   0  0  0  0  0  0  0  0  0  0  0  0
   37.2860   32.4350   49.9680 F   0  0  0  0  0  0  0  0  0  0  0  0
   37.8610   32.0030   48.8010 C   0  0  0  0  0  0  0  0  0  0  0  0
   37.3690   30.8240   48.2680 C   0  0  0  0  0  0  0  0  0  0  0  0
   37.9760   30.4340   47.1060 C   0  0  0  0  0  0  0  0  0  0  0  0
   38.9900   31.1530   46.5170 C   0  0  0  0  0  0  0  0  0  0  0  0
   39.4330   32.3200   47.1000 C   0  0  0  0  0  0  0  0  0  0  0  0
   38.8660   32.7560   48.2570 C   0  0  0  0  0  0  0  0  0  0  0  0
   37.6360   29.5090   46.6300 H   0  0  0  0  0  0  0  0  0  0  0  0
   39.4270   30.7840   45.5930 H   0  0  0  0  0  0  0  0  0  0  0  0
   40.2250   32.9140   46.6730 H   0  0  0  0  0  0  0  0  0  0  0  0
   39.2870   34.0170   48.9620 C   0  0  0  0  0  0  0  0  0  0  0  0
   40.2510   34.6230   48.1470 F   0  0  0  0  0  0  0  0  0  0  0  0
   38.2460   34.9020   49.0580 F   0  0  0  0  0  0  0  0  0  0  0  0
   39.7560   33.7520   50.2200 F   0  0  0  0  0  0  0  0  0  0  0  0
  1  2  1  0  0  0  0
  2  7  1  0  0  0  0
  2  3  2  0  0  0  0
  3  8  1  0  0  0  0
  4  3  1  0  0  0  0
  4  9  1  0  0  0  0
  5  4  2  0  0  0  0
  6  1  2  0  0  0  0
  6  5  1  0  0  0  0
 10 17  1  0  0  0  0
 11 10  2  0  0  0  0
 11  1  1  0  0  0  0
 12 11  1  0  0  0  0
 13 12  2  0  0  0  0
 13 14  1  0  0  0  0
 14 15  2  0  0  0  0
 15 10  1  0  0  0  0
 16 14  1  0  0  0  0
 16 19  1  0  0  0  0
 18 16  1  0  0  0  0
 20 12  1  0  0  0  0
 20 23  1  0  0  0  0
 21 20  1  0  0  0  0
 22 20  1  0  0  0  0
 25 24  1  0  0  0  0
 26 25  1  0  0  0  0
 26  5  1  0  0  0  0
 27 26  2  0  0  0  0
 28 29  2  0  0  0  0
 28 27  1  0  0  0  0
 29 30  1  0  0  0  0
 30 25  2  0  0  0  0
 30 34  1  0  0  0  0
 31 27  1  0  0  0  0
 32 28  1  0  0  0  0
 33 29  1  0  0  0  0
 34 36  1  0  0  0  0
 34 37  1  0  0  0  0
 35 34  1  0  0  0  0
M  END
>  <minimizedAffinity>
-7.34184551

>  <minimizedRMSD>
2.20937467

$$$$
