
 OpenBabel03272510233D

 26 28  0  0  0  0  0  0  0  0999 V2000
   37.6430   30.1110   49.1470 C   0  0  0  0  0  0  0  0  0  0  0  0
   37.3680   30.5500   47.8740 C   0  0  0  0  0  0  0  0  0  0  0  0
   36.1600   30.2640   47.2810 C   0  0  0  0  0  0  0  0  0  0  0  0
   35.2480   29.5260   48.0130 C   0  0  0  0  0  0  0  0  0  0  0  0
   33.9950   29.1210   47.6410 N   0  0  0  0  0  0  0  0  0  0  0  0
   33.4830   28.4330   48.6700 C   0  0  0  0  0  0  0  0  0  0  0  0
   34.3610   28.3800   49.6880 N   0  0  0  0  0  0  0  0  0  0  0  0
   35.4740   29.0580   49.3030 C   0  0  0  0  0  0  0  0  0  0  0  0
   36.6990   29.3640   49.8670 C   0  0  0  0  0  0  0  0  0  0  0  0
   38.5660   30.2990   49.6710 H   0  0  0  0  0  0  0  0  0  0  0  0
   35.9500   30.6090   46.2880 H   0  0  0  0  0  0  0  0  0  0  0  0
   33.5150   29.3110   46.7190 H   0  0  0  0  0  0  0  0  0  0  0  0
   36.9060   29.0080   50.8810 H   0  0  0  0  0  0  0  0  0  0  0  0
   40.1300   31.6540   45.5570 C   0  0  0  0  0  0  0  0  0  0  0  0
   39.1440   30.8580   46.1310 C   0  0  0  0  0  0  0  0  0  0  0  0
   38.4180   31.3200   47.2130 C   0  0  0  0  0  0  0  0  0  0  0  0
   38.6940   32.5690   47.6930 N   0  0  0  0  0  0  0  0  0  0  0  0
   39.6710   33.3270   47.1040 C   0  0  0  0  0  0  0  0  0  0  0  0
   40.3690   32.8780   46.0640 N   0  0  0  0  0  0  0  0  0  0  0  0
   40.6730   31.2640   44.7200 H   0  0  0  0  0  0  0  0  0  0  0  0
   38.9420   29.8880   45.7440 H   0  0  0  0  0  0  0  0  0  0  0  0
   39.8060   34.3000   47.5680 H   0  0  0  0  0  0  0  0  0  0  0  0
   32.1170   27.8280   48.6330 C   0  0  0  0  0  0  0  0  0  0  0  0
   32.1240   26.4740   48.4680 F   0  0  0  0  0  0  0  0  0  0  0  0
   31.3900   28.4080   47.5970 F   0  0  0  0  0  0  0  0  0  0  0  0
   31.4170   28.1210   49.7900 F   0  0  0  0  0  0  0  0  0  0  0  0
  1 10  1  0  0  0  0
  1  9  1  0  0  0  0
  2  1  2  0  0  0  0
  3  2  1  0  0  0  0
  3  4  2  0  0  0  0
  4  8  1  0  0  0  0
  5  4  1  0  0  0  0
  5  6  1  0  0  0  0
  6  7  2  0  0  0  0
  8  7  1  0  0  0  0
  8  9  2  0  0  0  0
  9 13  1  0  0  0  0
 11  3  1  0  0  0  0
 12  5  1  0  0  0  0
 14 19  2  0  0  0  0
 14 15  1  0  0  0  0
 15 16  2  0  0  0  0
 16 17  1  0  0  0  0
 16  2  1  0  0  0  0
 18 22  1  0  0  0  0
 18 17  2  0  0  0  0
 19 18  1  0  0  0  0
 20 14  1  0  0  0  0
 21 15  1  0  0  0  0
 23  6  1  0  0  0  0
 23 26  1  0  0  0  0
 24 23  1  0  0  0  0
 25 23  1  0  0  0  0
M  END
>  <minimizedAffinity>
-5.78249454

>  <minimizedRMSD>
7.75757074

$$$$
