
 OpenBabel03272506473D

 37 39  0  0  1  0  0  0  0  0999 V2000
   32.2750   28.5360   47.2380 C   0  0  2  0  0  0  0  0  0  0  0  0
   33.4790   28.4070   48.1240 C   0  0  1  0  0  0  0  0  0  0  0  0
   33.9620   27.1390   47.9990 O   0  0  0  0  0  0  0  0  0  0  0  0
   33.3580   26.5250   46.9070 C   0  0  0  0  0  0  0  0  0  0  0  0
   32.7350   27.6120   46.0670 C   0  0  1  0  0  0  0  0  0  0  0  0
   31.3420   28.1530   47.6420 H   0  0  0  0  0  0  0  0  0  0  0  0
   33.2330   28.7110   49.1580 H   0  0  0  0  0  0  0  0  0  0  0  0
   32.6870   25.7780   47.3020 H   0  0  0  0  0  0  0  0  0  0  0  0
   34.1390   25.9640   46.3310 H   0  0  0  0  0  0  0  0  0  0  0  0
   33.4250   28.1920   45.4680 H   0  0  0  0  0  0  0  0  0  0  0  0
   32.1530   29.8540   46.7530 O   0  0  0  0  0  0  0  0  0  0  0  0
   31.2580   30.2120   46.8690 H   0  0  0  0  0  0  0  0  0  0  0  0
   34.7590   29.5660   47.4930 S   0  0  0  0  0  0  0  0  0  0  0  0
   37.1270   29.2300   50.6450 C   0  0  0  0  0  0  0  0  0  0  0  0
   37.5990   30.5240   50.8940 C   0  0  0  0  0  0  0  0  0  0  0  0
   37.1550   31.5460   50.0360 C   0  0  0  0  0  0  0  0  0  0  0  0
   36.3070   31.2290   49.0270 N   0  0  0  0  0  0  0  0  0  0  0  0
   35.8800   29.9610   48.8310 C   0  0  0  0  0  0  0  0  0  0  0  0
   36.2830   28.9430   49.6360 N   0  0  0  0  0  0  0  0  0  0  0  0
   37.4550   28.4310   51.2910 H   0  0  0  0  0  0  0  0  0  0  0  0
   38.2780   30.7490   51.7080 H   0  0  0  0  0  0  0  0  0  0  0  0
   37.4690   32.5620   50.1580 H   0  0  0  0  0  0  0  0  0  0  0  0
   31.6560   27.0940   45.3950 O   0  0  0  0  0  0  0  0  0  0  0  0
   30.0370   29.1630   44.0630 Cl  0  0  0  0  0  0  0  0  0  0  0  0
   29.5440   28.0070   45.2770 C   0  0  0  0  0  0  0  0  0  0  0  0
   30.3980   27.0740   45.8210 C   0  0  0  0  0  0  0  0  0  0  0  0
   29.8820   26.1850   46.7670 C   0  0  0  0  0  0  0  0  0  0  0  0
   28.5540   26.2470   47.1390 C   0  0  0  0  0  0  0  0  0  0  0  0
   27.6890   27.1830   46.5980 C   0  0  0  0  0  0  0  0  0  0  0  0
   28.2090   28.0660   45.6550 C   0  0  0  0  0  0  0  0  0  0  0  0
   30.4680   25.4190   47.2430 H   0  0  0  0  0  0  0  0  0  0  0  0
   28.0930   25.5930   47.8620 H   0  0  0  0  0  0  0  0  0  0  0  0
   26.6480   27.2420   46.8790 H   0  0  0  0  0  0  0  0  0  0  0  0
   27.2880   29.0740   45.0670 C   0  0  0  0  0  0  0  0  0  0  0  0
   27.6120   30.3600   45.4580 F   0  0  0  0  0  0  0  0  0  0  0  0
   26.0080   28.7800   45.5510 F   0  0  0  0  0  0  0  0  0  0  0  0
   27.2000   28.9600   43.7070 F   0  0  0  0  0  0  0  0  0  0  0  0
  1  6  1  1  0  0  0
  1  2  1  0  0  0  0
  2  7  1  1  0  0  0
  3  2  1  0  0  0  0
  4  8  1  0  0  0  0
  4  3  1  0  0  0  0
  5 10  1  6  0  0  0
  5  4  1  0  0  0  0
  5  1  1  0  0  0  0
  9  4  1  0  0  0  0
 11 12  1  0  0  0  0
 11  1  1  0  0  0  0
 13  2  1  0  0  0  0
 13 18  1  0  0  0  0
 14 15  1  0  0  0  0
 14 20  1  0  0  0  0
 15 21  1  0  0  0  0
 16 22  1  0  0  0  0
 16 15  2  0  0  0  0
 17 16  1  0  0  0  0
 18 17  2  0  0  0  0
 18 19  1  0  0  0  0
 19 14  2  0  0  0  0
 23 26  1  0  0  0  0
 23  5  1  0  0  0  0
 24 25  1  0  0  0  0
 25 30  2  0  0  0  0
 25 26  1  0  0  0  0
 26 27  2  0  0  0  0
 27 28  1  0  0  0  0
 27 31  1  0  0  0  0
 28 32  1  0  0  0  0
 29 33  1  0  0  0  0
 29 28  2  0  0  0  0
 30 29  1  0  0  0  0
 34 35  1  0  0  0  0
 34 36  1  0  0  0  0
 34 30  1  0  0  0  0
 37 34  1  0  0  0  0
M  END
>  <minimizedAffinity>
-4.76155519

>  <minimizedRMSD>
0.34563601

$$$$
