
 OpenBabel03272507253D

 28 29  0  0  0  0  0  0  0  0999 V2000
   36.8870   30.1520   49.2830 C   0  0  0  0  0  0  0  0  0  0  0  0
   37.8570   30.8080   48.5100 C   0  0  0  0  0  0  0  0  0  0  0  0
   37.5870   31.0530   47.1660 C   0  0  0  0  0  0  0  0  0  0  0  0
   36.4000   30.6460   46.6670 N   0  0  0  0  0  0  0  0  0  0  0  0
   35.4700   30.0130   47.4250 C   0  0  0  0  0  0  0  0  0  0  0  0
   35.7210   29.7730   48.7210 N   0  0  0  0  0  0  0  0  0  0  0  0
   38.5220   31.7070   46.3360 N   0  0  0  0  0  0  0  0  0  0  0  0
   39.5020   32.6870   46.8130 C   0  0  0  0  0  0  0  0  0  0  0  0
   40.0780   33.3480   45.6150 C   0  0  0  0  0  0  0  0  0  0  0  0
   39.1140   32.9930   44.5490 C   0  0  0  0  0  0  0  0  0  0  0  0
   38.7300   31.5920   44.9470 C   0  0  0  0  0  0  0  0  0  0  0  0
   37.1220   29.9750   50.3240 H   0  0  0  0  0  0  0  0  0  0  0  0
   38.7860   31.1200   48.9210 H   0  0  0  0  0  0  0  0  0  0  0  0
   34.5210   29.6980   46.9880 H   0  0  0  0  0  0  0  0  0  0  0  0
   40.2470   32.1520   47.4430 H   0  0  0  0  0  0  0  0  0  0  0  0
   38.9650   33.3670   47.4900 H   0  0  0  0  0  0  0  0  0  0  0  0
   41.1390   33.1750   45.4130 H   0  0  0  0  0  0  0  0  0  0  0  0
   39.9790   34.4610   45.7840 H   0  0  0  0  0  0  0  0  0  0  0  0
   38.1930   33.6010   44.6570 H   0  0  0  0  0  0  0  0  0  0  0  0
   39.5020   33.0770   43.5150 H   0  0  0  0  0  0  0  0  0  0  0  0
   37.5910   31.0780   44.1290 C   0  0  0  0  0  0  0  0  0  0  0  0
   36.5710   32.0150   44.2010 F   0  0  0  0  0  0  0  0  0  0  0  0
   37.0860   29.8710   44.4970 F   0  0  0  0  0  0  0  0  0  0  0  0
   38.0090   31.1210   42.8000 F   0  0  0  0  0  0  0  0  0  0  0  0
   39.8470   30.5880   44.7520 C   0  0  0  0  0  0  0  0  0  0  0  0
   40.5310   30.6080   45.9790 F   0  0  0  0  0  0  0  0  0  0  0  0
   39.4040   29.3020   44.5800 F   0  0  0  0  0  0  0  0  0  0  0  0
   40.7720   30.9830   43.8280 F   0  0  0  0  0  0  0  0  0  0  0  0
  1 12  1  0  0  0  0
  2 13  1  0  0  0  0
  2  1  2  0  0  0  0
  3  2  1  0  0  0  0
  4  3  2  0  0  0  0
  4  5  1  0  0  0  0
  5  6  2  0  0  0  0
  6  1  1  0  0  0  0
  7  8  1  0  0  0  0
  7  3  1  0  0  0  0
  8 15  1  0  0  0  0
  8 16  1  0  0  0  0
  9 18  1  0  0  0  0
  9  8  1  0  0  0  0
 10 19  1  0  0  0  0
 10 11  1  0  0  0  0
 10  9  1  0  0  0  0
 11  7  1  0  0  0  0
 14  5  1  0  0  0  0
 17  9  1  0  0  0  0
 20 10  1  0  0  0  0
 21 22  1  0  0  0  0
 21 23  1  0  0  0  0
 21 11  1  0  0  0  0
 24 21  1  0  0  0  0
 25 11  1  0  0  0  0
 25 26  1  0  0  0  0
 27 25  1  0  0  0  0
 28 25  1  0  0  0  0
M  END
>  <minimizedAffinity>
-5.22207308

>  <minimizedRMSD>
2.89675498

$$$$
