
 OpenBabel03272504313D

 27 28  0  0  0  0  0  0  0  0999 V2000
   37.9740   26.1160   34.3110 N   0  0  0  0  0  0  0  0  0  0  0  0
   37.6660   27.3400   35.0330 C   0  0  0  0  0  0  0  0  0  0  0  0
   36.5570   28.1470   34.4220 C   0  0  0  0  0  0  0  0  0  0  0  0
   36.4700   28.1150   33.0070 N   0  0  0  0  0  0  0  0  0  0  0  0
   36.6580   26.7710   32.4710 C   0  0  0  0  0  0  0  0  0  0  0  0
   38.0620   26.3770   32.9190 C   0  0  0  0  0  0  0  0  0  0  0  0
   37.3170   27.0060   36.0510 H   0  0  0  0  0  0  0  0  0  0  0  0
   38.5940   27.9050   35.2270 H   0  0  0  0  0  0  0  0  0  0  0  0
   36.7420   29.2080   34.7270 H   0  0  0  0  0  0  0  0  0  0  0  0
   35.5860   27.8740   34.8800 H   0  0  0  0  0  0  0  0  0  0  0  0
   37.0990   28.8060   32.5280 H   0  0  0  0  0  0  0  0  0  0  0  0
   36.5550   26.7960   31.3800 H   0  0  0  0  0  0  0  0  0  0  0  0
   35.9450   26.1090   32.9840 H   0  0  0  0  0  0  0  0  0  0  0  0
   38.4160   25.4810   32.3470 H   0  0  0  0  0  0  0  0  0  0  0  0
   38.7440   27.2420   32.6900 H   0  0  0  0  0  0  0  0  0  0  0  0
   38.1540   24.8560   34.9720 C   0  0  0  0  0  0  0  0  0  0  0  0
   38.4000   23.6700   34.2500 C   0  0  0  0  0  0  0  0  0  0  0  0
   38.5610   22.4910   34.9870 C   0  0  0  0  0  0  0  0  0  0  0  0
   38.4730   22.5560   36.3450 N   0  0  0  0  0  0  0  0  0  0  0  0
   38.2370   23.7170   36.9920 C   0  0  0  0  0  0  0  0  0  0  0  0
   38.0760   24.8670   36.3220 N   0  0  0  0  0  0  0  0  0  0  0  0
   38.4530   23.7150   33.1730 H   0  0  0  0  0  0  0  0  0  0  0  0
   38.7490   21.5750   34.4500 H   0  0  0  0  0  0  0  0  0  0  0  0
   38.1550   23.7010   38.4750 C   0  0  0  0  0  0  0  0  0  0  0  0
   37.3260   22.7080   38.9390 F   0  0  0  0  0  0  0  0  0  0  0  0
   37.8210   24.9440   38.9880 F   0  0  0  0  0  0  0  0  0  0  0  0
   39.4590   23.4400   38.9130 F   0  0  0  0  0  0  0  0  0  0  0  0
  1 16  1  0  0  0  0
  1  2  1  0  0  0  0
  2  8  1  0  0  0  0
  2  7  1  0  0  0  0
  3  9  1  0  0  0  0
  3 10  1  0  0  0  0
  3  2  1  0  0  0  0
  4  3  1  0  0  0  0
  5  6  1  0  0  0  0
  5 13  1  0  0  0  0
  5  4  1  0  0  0  0
  6  1  1  0  0  0  0
 11  4  1  0  0  0  0
 12  5  1  0  0  0  0
 14  6  1  0  0  0  0
 15  6  1  0  0  0  0
 16 21  1  0  0  0  0
 17 16  2  0  0  0  0
 17 18  1  0  0  0  0
 18 19  2  0  0  0  0
 19 20  1  0  0  0  0
 20 24  1  0  0  0  0
 21 20  2  0  0  0  0
 22 17  1  0  0  0  0
 23 18  1  0  0  0  0
 24 27  1  0  0  0  0
 24 25  1  0  0  0  0
 24 26  1  0  0  0  0
M  END
>  <minimizedAffinity>
-4.88867664

$$$$

 OpenBabel03272504313D

 27 28  0  0  0  0  0  0  0  0999 V2000
   38.3030   24.0830   36.3630 N   0  0  0  0  0  0  0  0  0  0  0  0
   37.7990   23.8700   37.7100 C   0  0  0  0  0  0  0  0  0  0  0  0
   38.8210   23.3340   38.6690 C   0  0  0  0  0  0  0  0  0  0  0  0
   39.7840   22.4470   38.1220 N   0  0  0  0  0  0  0  0  0  0  0  0
   40.2880   22.9050   36.8320 C   0  0  0  0  0  0  0  0  0  0  0  0
   39.0540   22.9570   35.9370 C   0  0  0  0  0  0  0  0  0  0  0  0
   37.4940   24.8910   38.0790 H   0  0  0  0  0  0  0  0  0  0  0  0
   36.8570   23.2950   37.6710 H   0  0  0  0  0  0  0  0  0  0  0  0
   38.2490   22.7740   39.4520 H   0  0  0  0  0  0  0  0  0  0  0  0
   39.3180   24.1670   39.2060 H   0  0  0  0  0  0  0  0  0  0  0  0
   39.4590   21.4500   38.0690 H   0  0  0  0  0  0  0  0  0  0  0  0
   41.0450   22.2010   36.4660 H   0  0  0  0  0  0  0  0  0  0  0  0
   40.6470   23.9370   36.9650 H   0  0  0  0  0  0  0  0  0  0  0  0
   39.3550   23.0370   34.8610 H   0  0  0  0  0  0  0  0  0  0  0  0
   38.4930   21.9920   36.0820 H   0  0  0  0  0  0  0  0  0  0  0  0
   38.0420   25.2840   35.6230 C   0  0  0  0  0  0  0  0  0  0  0  0
   38.2700   26.5600   36.1790 C   0  0  0  0  0  0  0  0  0  0  0  0
   37.9840   27.6700   35.3760 C   0  0  0  0  0  0  0  0  0  0  0  0
   37.5080   27.4570   34.1180 N   0  0  0  0  0  0  0  0  0  0  0  0
   37.3060   26.2150   33.6300 C   0  0  0  0  0  0  0  0  0  0  0  0
   37.5670   25.1270   34.3670 N   0  0  0  0  0  0  0  0  0  0  0  0
   38.6500   26.6310   37.1870 H   0  0  0  0  0  0  0  0  0  0  0  0
   38.1530   28.6530   35.7860 H   0  0  0  0  0  0  0  0  0  0  0  0
   36.7830   26.0700   32.2470 C   0  0  0  0  0  0  0  0  0  0  0  0
   37.7870   26.0780   31.3090 F   0  0  0  0  0  0  0  0  0  0  0  0
   35.7970   27.0030   31.9670 F   0  0  0  0  0  0  0  0  0  0  0  0
   36.1520   24.8200   32.2210 F   0  0  0  0  0  0  0  0  0  0  0  0
  1  2  1  0  0  0  0
  2  7  1  0  0  0  0
  2  3  1  0  0  0  0
  3 10  1  0  0  0  0
  3  9  1  0  0  0  0
  4  3  1  0  0  0  0
  5 13  1  0  0  0  0
  5  4  1  0  0  0  0
  6 15  1  0  0  0  0
  6  1  1  0  0  0  0
  6  5  1  0  0  0  0
  8  2  1  0  0  0  0
 11  4  1  0  0  0  0
 12  5  1  0  0  0  0
 14  6  1  0  0  0  0
 16 17  1  0  0  0  0
 16  1  1  0  0  0  0
 17 22  1  0  0  0  0
 18 23  1  0  0  0  0
 18 17  2  0  0  0  0
 19 18  1  0  0  0  0
 20 19  2  0  0  0  0
 20 21  1  0  0  0  0
 21 16  2  0  0  0  0
 24 20  1  0  0  0  0
 25 24  1  0  0  0  0
 26 24  1  0  0  0  0
 27 24  1  0  0  0  0
M  END
>  <minimizedAffinity>
-4.82847214

$$$$

 OpenBabel03272504313D

 27 28  0  0  0  0  0  0  0  0999 V2000
   38.7490   23.4480   35.8940 N   0  0  0  0  0  0  0  0  0  0  0  0
   40.0970   23.0430   36.2560 C   0  0  0  0  0  0  0  0  0  0  0  0
   40.2120   22.4580   37.6330 C   0  0  0  0  0  0  0  0  0  0  0  0
   39.3450   23.0020   38.6160 N   0  0  0  0  0  0  0  0  0  0  0  0
   37.9910   23.2000   38.1100 C   0  0  0  0  0  0  0  0  0  0  0  0
   38.1560   24.1820   36.9540 C   0  0  0  0  0  0  0  0  0  0  0  0
   40.3720   22.2330   35.5220 H   0  0  0  0  0  0  0  0  0  0  0  0
   40.8040   23.8640   36.0440 H   0  0  0  0  0  0  0  0  0  0  0  0
   41.2640   22.6480   37.9650 H   0  0  0  0  0  0  0  0  0  0  0  0
   40.1110   21.3550   37.5910 H   0  0  0  0  0  0  0  0  0  0  0  0
   39.7140   23.8760   39.0670 H   0  0  0  0  0  0  0  0  0  0  0  0
   37.3570   23.5970   38.9130 H   0  0  0  0  0  0  0  0  0  0  0  0
   37.6530   22.2420   37.6890 H   0  0  0  0  0  0  0  0  0  0  0  0
   37.1640   24.6120   36.6630 H   0  0  0  0  0  0  0  0  0  0  0  0
   38.8170   25.0180   37.3150 H   0  0  0  0  0  0  0  0  0  0  0  0
   38.1590   23.1220   34.6280 C   0  0  0  0  0  0  0  0  0  0  0  0
   38.4150   23.8890   33.4720 C   0  0  0  0  0  0  0  0  0  0  0  0
   37.7920   23.4890   32.2850 C   0  0  0  0  0  0  0  0  0  0  0  0
   36.9840   22.3930   32.3120 N   0  0  0  0  0  0  0  0  0  0  0  0
   36.7700   21.6900   33.4440 C   0  0  0  0  0  0  0  0  0  0  0  0
   37.3480   22.0410   34.6010 N   0  0  0  0  0  0  0  0  0  0  0  0
   39.0710   24.7430   33.5470 H   0  0  0  0  0  0  0  0  0  0  0  0
   37.9770   24.0650   31.3920 H   0  0  0  0  0  0  0  0  0  0  0  0
   35.8730   20.5060   33.3880 C   0  0  0  0  0  0  0  0  0  0  0  0
   35.4390   20.1250   34.6350 F   0  0  0  0  0  0  0  0  0  0  0  0
   36.4470   19.4560   32.6900 F   0  0  0  0  0  0  0  0  0  0  0  0
   34.7690   20.9170   32.6320 F   0  0  0  0  0  0  0  0  0  0  0  0
  1  2  1  0  0  0  0
  1  6  1  0  0  0  0
  2  3  1  0  0  0  0
  3  9  1  0  0  0  0
  3  4  1  0  0  0  0
  4 11  1  0  0  0  0
  5  4  1  0  0  0  0
  5 12  1  0  0  0  0
  6 15  1  0  0  0  0
  6  5  1  0  0  0  0
  7  2  1  0  0  0  0
  8  2  1  0  0  0  0
 10  3  1  0  0  0  0
 13  5  1  0  0  0  0
 14  6  1  0  0  0  0
 16  1  1  0  0  0  0
 17 22  1  0  0  0  0
 17 16  2  0  0  0  0
 18 19  2  0  0  0  0
 18 17  1  0  0  0  0
 19 20  1  0  0  0  0
 20 21  2  0  0  0  0
 21 16  1  0  0  0  0
 23 18  1  0  0  0  0
 24 20  1  0  0  0  0
 24 25  1  0  0  0  0
 26 24  1  0  0  0  0
 27 24  1  0  0  0  0
M  END
>  <minimizedAffinity>
-4.80822563

$$$$

 OpenBabel03272504313D

 27 28  0  0  0  0  0  0  0  0999 V2000
   38.7820   24.0820   36.1730 N   0  0  0  0  0  0  0  0  0  0  0  0
   37.8170   24.2530   37.2450 C   0  0  0  0  0  0  0  0  0  0  0  0
   38.2990   23.7770   38.5850 C   0  0  0  0  0  0  0  0  0  0  0  0
   39.1560   22.6470   38.5730 N   0  0  0  0  0  0  0  0  0  0  0  0
   40.1590   22.7240   37.5170 C   0  0  0  0  0  0  0  0  0  0  0  0
   39.3490   22.7820   36.2260 C   0  0  0  0  0  0  0  0  0  0  0  0
   37.6510   25.3650   37.3230 H   0  0  0  0  0  0  0  0  0  0  0  0
   36.8380   23.8450   36.9370 H   0  0  0  0  0  0  0  0  0  0  0  0
   37.3820   23.5030   39.1660 H   0  0  0  0  0  0  0  0  0  0  0  0
   38.7630   24.6130   39.1450 H   0  0  0  0  0  0  0  0  0  0  0  0
   38.6450   21.7290   38.5450 H   0  0  0  0  0  0  0  0  0  0  0  0
   40.8100   21.8430   37.5680 H   0  0  0  0  0  0  0  0  0  0  0  0
   40.6810   23.6860   37.6280 H   0  0  0  0  0  0  0  0  0  0  0  0
   40.0070   22.5750   35.3430 H   0  0  0  0  0  0  0  0  0  0  0  0
   38.5650   21.9770   36.2850 H   0  0  0  0  0  0  0  0  0  0  0  0
   39.0750   25.1190   35.2260 C   0  0  0  0  0  0  0  0  0  0  0  0
   40.4010   25.4540   34.8810 C   0  0  0  0  0  0  0  0  0  0  0  0
   40.5810   26.4810   33.9480 C   0  0  0  0  0  0  0  0  0  0  0  0
   39.4790   27.0910   33.4300 N   0  0  0  0  0  0  0  0  0  0  0  0
   38.2280   26.7340   33.7920 C   0  0  0  0  0  0  0  0  0  0  0  0
   38.0130   25.7560   34.6830 N   0  0  0  0  0  0  0  0  0  0  0  0
   41.2130   24.9150   35.3440 H   0  0  0  0  0  0  0  0  0  0  0  0
   41.5890   26.7500   33.6730 H   0  0  0  0  0  0  0  0  0  0  0  0
   37.0790   27.4510   33.1810 C   0  0  0  0  0  0  0  0  0  0  0  0
   36.3830   28.1970   34.1010 F   0  0  0  0  0  0  0  0  0  0  0  0
   36.2540   26.5930   32.4710 F   0  0  0  0  0  0  0  0  0  0  0  0
   37.6450   28.3150   32.2350 F   0  0  0  0  0  0  0  0  0  0  0  0
  1  6  1  0  0  0  0
  1  2  1  0  0  0  0
  2  7  1  0  0  0  0
  2  3  1  0  0  0  0
  3 10  1  0  0  0  0
  3  9  1  0  0  0  0
  4  3  1  0  0  0  0
  5 12  1  0  0  0  0
  5 13  1  0  0  0  0
  5  4  1  0  0  0  0
  6 15  1  0  0  0  0
  6  5  1  0  0  0  0
  8  2  1  0  0  0  0
 11  4  1  0  0  0  0
 14  6  1  0  0  0  0
 16  1  1  0  0  0  0
 17 16  1  0  0  0  0
 17 22  1  0  0  0  0
 18 17  2  0  0  0  0
 19 20  2  0  0  0  0
 19 18  1  0  0  0  0
 20 21  1  0  0  0  0
 21 16  2  0  0  0  0
 23 18  1  0  0  0  0
 24 20  1  0  0  0  0
 24 25  1  0  0  0  0
 26 24  1  0  0  0  0
 27 24  1  0  0  0  0
M  END
>  <minimizedAffinity>
-4.72387648

$$$$

 OpenBabel03272504313D

 27 28  0  0  0  0  0  0  0  0999 V2000
   38.3980   23.1070   35.9880 N   0  0  0  0  0  0  0  0  0  0  0  0
   37.7000   23.2390   37.2560 C   0  0  0  0  0  0  0  0  0  0  0  0
   38.6070   23.3310   38.4490 C   0  0  0  0  0  0  0  0  0  0  0  0
   39.8100   22.5820   38.3740 N   0  0  0  0  0  0  0  0  0  0  0  0
   40.4500   22.6920   37.0680 C   0  0  0  0  0  0  0  0  0  0  0  0
   39.4210   22.1290   36.0930 C   0  0  0  0  0  0  0  0  0  0  0  0
   37.1370   24.2130   37.1860 H   0  0  0  0  0  0  0  0  0  0  0  0
   36.9140   22.4680   37.3340 H   0  0  0  0  0  0  0  0  0  0  0  0
   38.0180   22.9420   39.3170 H   0  0  0  0  0  0  0  0  0  0  0  0
   38.8210   24.3910   38.6880 H   0  0  0  0  0  0  0  0  0  0  0  0
   39.7020   21.5780   38.6610 H   0  0  0  0  0  0  0  0  0  0  0  0
   41.3850   22.1190   37.0720 H   0  0  0  0  0  0  0  0  0  0  0  0
   40.5680   23.7630   36.8470 H   0  0  0  0  0  0  0  0  0  0  0  0
   39.8990   21.9150   35.1020 H   0  0  0  0  0  0  0  0  0  0  0  0
   39.0430   21.1610   36.5240 H   0  0  0  0  0  0  0  0  0  0  0  0
   38.0520   23.8830   34.8330 C   0  0  0  0  0  0  0  0  0  0  0  0
   37.9100   23.2930   33.5600 C   0  0  0  0  0  0  0  0  0  0  0  0
   37.5710   24.1350   32.4950 C   0  0  0  0  0  0  0  0  0  0  0  0
   37.3990   25.4630   32.7470 N   0  0  0  0  0  0  0  0  0  0  0  0
   37.5460   25.9820   33.9840 C   0  0  0  0  0  0  0  0  0  0  0  0
   37.8700   25.2080   35.0290 N   0  0  0  0  0  0  0  0  0  0  0  0
   38.0660   22.2290   33.4570 H   0  0  0  0  0  0  0  0  0  0  0  0
   37.4580   23.7000   31.5150 H   0  0  0  0  0  0  0  0  0  0  0  0
   37.3410   27.4410   34.1720 C   0  0  0  0  0  0  0  0  0  0  0  0
   36.1350   27.7230   34.7680 F   0  0  0  0  0  0  0  0  0  0  0  0
   37.5200   28.1450   32.9920 F   0  0  0  0  0  0  0  0  0  0  0  0
   38.3720   27.8500   35.0270 F   0  0  0  0  0  0  0  0  0  0  0  0
  1  6  1  0  0  0  0
  1  2  1  0  0  0  0
  2  8  1  0  0  0  0
  2  3  1  0  0  0  0
  3 10  1  0  0  0  0
  3  9  1  0  0  0  0
  4  3  1  0  0  0  0
  4 11  1  0  0  0  0
  5 12  1  0  0  0  0
  5  4  1  0  0  0  0
  6 15  1  0  0  0  0
  6  5  1  0  0  0  0
  7  2  1  0  0  0  0
 13  5  1  0  0  0  0
 14  6  1  0  0  0  0
 16 21  1  0  0  0  0
 16  1  1  0  0  0  0
 17 16  2  0  0  0  0
 18 19  2  0  0  0  0
 18 17  1  0  0  0  0
 19 20  1  0  0  0  0
 20 24  1  0  0  0  0
 20 21  2  0  0  0  0
 22 17  1  0  0  0  0
 23 18  1  0  0  0  0
 24 25  1  0  0  0  0
 24 27  1  0  0  0  0
 26 24  1  0  0  0  0
M  END
>  <minimizedAffinity>
-4.71715212

$$$$

 OpenBabel03272504313D

 27 28  0  0  0  0  0  0  0  0999 V2000
   37.4930   24.7850   32.9370 N   0  0  0  0  0  0  0  0  0  0  0  0
   36.6260   25.4370   31.9700 C   0  0  0  0  0  0  0  0  0  0  0  0
   35.6040   24.5280   31.3520 C   0  0  0  0  0  0  0  0  0  0  0  0
   36.0070   23.1830   31.1520 N   0  0  0  0  0  0  0  0  0  0  0  0
   36.7380   22.6480   32.2950 C   0  0  0  0  0  0  0  0  0  0  0  0
   37.9620   23.5490   32.4190 C   0  0  0  0  0  0  0  0  0  0  0  0
   36.0680   26.2240   32.5530 H   0  0  0  0  0  0  0  0  0  0  0  0
   37.2340   26.0060   31.2450 H   0  0  0  0  0  0  0  0  0  0  0  0
   35.3650   24.9640   30.3500 H   0  0  0  0  0  0  0  0  0  0  0  0
   34.6570   24.5700   31.9250 H   0  0  0  0  0  0  0  0  0  0  0  0
   36.5360   23.0280   30.2570 H   0  0  0  0  0  0  0  0  0  0  0  0
   37.0030   21.6010   32.1010 H   0  0  0  0  0  0  0  0  0  0  0  0
   36.1160   22.8050   33.1880 H   0  0  0  0  0  0  0  0  0  0  0  0
   38.7280   23.0780   33.0880 H   0  0  0  0  0  0  0  0  0  0  0  0
   38.4050   23.6590   31.3910 H   0  0  0  0  0  0  0  0  0  0  0  0
   37.7930   25.3610   34.2150 C   0  0  0  0  0  0  0  0  0  0  0  0
   38.0110   26.7460   34.3710 C   0  0  0  0  0  0  0  0  0  0  0  0
   38.2980   27.2110   35.6590 C   0  0  0  0  0  0  0  0  0  0  0  0
   38.3480   26.3090   36.6790 N   0  0  0  0  0  0  0  0  0  0  0  0
   38.1320   24.9920   36.4810 C   0  0  0  0  0  0  0  0  0  0  0  0
   37.8550   24.5080   35.2620 N   0  0  0  0  0  0  0  0  0  0  0  0
   37.9500   27.3850   33.5020 H   0  0  0  0  0  0  0  0  0  0  0  0
   38.4670   28.2670   35.7950 H   0  0  0  0  0  0  0  0  0  0  0  0
   38.2060   24.0750   37.6470 C   0  0  0  0  0  0  0  0  0  0  0  0
   39.4430   23.4890   37.7690 F   0  0  0  0  0  0  0  0  0  0  0  0
   37.1830   23.1410   37.6370 F   0  0  0  0  0  0  0  0  0  0  0  0
   37.9790   24.8850   38.7670 F   0  0  0  0  0  0  0  0  0  0  0  0
  1 16  1  0  0  0  0
  2  7  1  0  0  0  0
  2  1  1  0  0  0  0
  3 10  1  0  0  0  0
  3  2  1  0  0  0  0
  4  3  1  0  0  0  0
  4  5  1  0  0  0  0
  5  6  1  0  0  0  0
  5 13  1  0  0  0  0
  6  1  1  0  0  0  0
  6 14  1  0  0  0  0
  8  2  1  0  0  0  0
  9  3  1  0  0  0  0
 11  4  1  0  0  0  0
 12  5  1  0  0  0  0
 15  6  1  0  0  0  0
 16 17  2  0  0  0  0
 16 21  1  0  0  0  0
 17 18  1  0  0  0  0
 18 23  1  0  0  0  0
 18 19  2  0  0  0  0
 20 19  1  0  0  0  0
 20 24  1  0  0  0  0
 21 20  2  0  0  0  0
 22 17  1  0  0  0  0
 24 25  1  0  0  0  0
 24 27  1  0  0  0  0
 26 24  1  0  0  0  0
M  END
>  <minimizedAffinity>
-4.6081214

$$$$

 OpenBabel03272504313D

 27 28  0  0  0  0  0  0  0  0999 V2000
   37.6270   24.5250   33.2730 N   0  0  0  0  0  0  0  0  0  0  0  0
   37.0830   23.5890   32.3040 C   0  0  0  0  0  0  0  0  0  0  0  0
   37.1360   24.0760   30.8850 C   0  0  0  0  0  0  0  0  0  0  0  0
   36.9650   25.4720   30.6990 N   0  0  0  0  0  0  0  0  0  0  0  0
   37.7100   26.2560   31.6770 C   0  0  0  0  0  0  0  0  0  0  0  0
   37.1330   25.8320   33.0240 C   0  0  0  0  0  0  0  0  0  0  0  0
   37.7390   22.6750   32.3710 H   0  0  0  0  0  0  0  0  0  0  0  0
   36.0880   23.2430   32.6350 H   0  0  0  0  0  0  0  0  0  0  0  0
   36.3030   23.5560   30.3470 H   0  0  0  0  0  0  0  0  0  0  0  0
   38.0660   23.7270   30.3940 H   0  0  0  0  0  0  0  0  0  0  0  0
   35.9590   25.7730   30.6570 H   0  0  0  0  0  0  0  0  0  0  0  0
   37.5660   27.3240   31.4740 H   0  0  0  0  0  0  0  0  0  0  0  0
   38.7570   25.9190   31.6420 H   0  0  0  0  0  0  0  0  0  0  0  0
   37.4370   26.5550   33.8240 H   0  0  0  0  0  0  0  0  0  0  0  0
   36.0110   25.8520   32.9300 H   0  0  0  0  0  0  0  0  0  0  0  0
   38.5320   24.1220   34.3100 C   0  0  0  0  0  0  0  0  0  0  0  0
   39.8580   23.7340   34.0270 C   0  0  0  0  0  0  0  0  0  0  0  0
   40.6620   23.3570   35.1080 C   0  0  0  0  0  0  0  0  0  0  0  0
   40.1250   23.3880   36.3600 N   0  0  0  0  0  0  0  0  0  0  0  0
   38.8490   23.7680   36.5810 C   0  0  0  0  0  0  0  0  0  0  0  0
   38.0470   24.1350   35.5720 N   0  0  0  0  0  0  0  0  0  0  0  0
   40.1960   23.7410   33.0020 H   0  0  0  0  0  0  0  0  0  0  0  0
   41.6780   23.0570   34.9090 H   0  0  0  0  0  0  0  0  0  0  0  0
   38.3400   23.7730   37.9770 C   0  0  0  0  0  0  0  0  0  0  0  0
   37.2910   22.9020   38.1500 F   0  0  0  0  0  0  0  0  0  0  0  0
   38.0360   25.0530   38.4120 F   0  0  0  0  0  0  0  0  0  0  0  0
   39.4160   23.3420   38.7630 F   0  0  0  0  0  0  0  0  0  0  0  0
  1 16  1  0  0  0  0
  2  7  1  0  0  0  0
  2  8  1  0  0  0  0
  2  1  1  0  0  0  0
  3  2  1  0  0  0  0
  4  3  1  0  0  0  0
  4  5  1  0  0  0  0
  5  6  1  0  0  0  0
  6  1  1  0  0  0  0
  6 14  1  0  0  0  0
  9  3  1  0  0  0  0
 10  3  1  0  0  0  0
 11  4  1  0  0  0  0
 12  5  1  0  0  0  0
 13  5  1  0  0  0  0
 15  6  1  0  0  0  0
 16 21  1  0  0  0  0
 17 16  2  0  0  0  0
 17 18  1  0  0  0  0
 18 19  2  0  0  0  0
 19 20  1  0  0  0  0
 20 24  1  0  0  0  0
 21 20  2  0  0  0  0
 22 17  1  0  0  0  0
 23 18  1  0  0  0  0
 24 25  1  0  0  0  0
 24 26  1  0  0  0  0
 24 27  1  0  0  0  0
M  END
>  <minimizedAffinity>
-4.58255243

$$$$

 OpenBabel03272504313D

 27 28  0  0  0  0  0  0  0  0999 V2000
   38.3860   23.0150   35.9210 N   0  0  0  0  0  0  0  0  0  0  0  0
   37.5010   23.2180   37.0560 C   0  0  0  0  0  0  0  0  0  0  0  0
   38.2150   23.4140   38.3620 C   0  0  0  0  0  0  0  0  0  0  0  0
   39.4250   22.6920   38.5250 N   0  0  0  0  0  0  0  0  0  0  0  0
   40.2550   22.7260   37.3260 C   0  0  0  0  0  0  0  0  0  0  0  0
   39.3950   22.0720   36.2490 C   0  0  0  0  0  0  0  0  0  0  0  0
   36.9420   24.1710   36.8320 H   0  0  0  0  0  0  0  0  0  0  0  0
   36.7230   22.4350   37.0700 H   0  0  0  0  0  0  0  0  0  0  0  0
   37.5050   23.0720   39.1580 H   0  0  0  0  0  0  0  0  0  0  0  0
   38.3750   24.4930   38.5540 H   0  0  0  0  0  0  0  0  0  0  0  0
   39.2880   21.7080   38.8640 H   0  0  0  0  0  0  0  0  0  0  0  0
   41.1870   22.1790   37.5110 H   0  0  0  0  0  0  0  0  0  0  0  0
   40.3910   23.7820   37.0480 H   0  0  0  0  0  0  0  0  0  0  0  0
   40.0210   21.8020   35.3600 H   0  0  0  0  0  0  0  0  0  0  0  0
   38.9690   21.1270   36.6870 H   0  0  0  0  0  0  0  0  0  0  0  0
   38.2100   23.7010   34.6740 C   0  0  0  0  0  0  0  0  0  0  0  0
   37.7890   23.0240   33.5100 C   0  0  0  0  0  0  0  0  0  0  0  0
   37.6470   23.7820   32.3430 C   0  0  0  0  0  0  0  0  0  0  0  0
   37.9190   25.1160   32.3960 N   0  0  0  0  0  0  0  0  0  0  0  0
   38.3190   25.7190   33.5350 C   0  0  0  0  0  0  0  0  0  0  0  0
   38.4670   25.0280   34.6740 N   0  0  0  0  0  0  0  0  0  0  0  0
   37.5970   21.9630   33.5630 H   0  0  0  0  0  0  0  0  0  0  0  0
   37.3270   23.2800   31.4440 H   0  0  0  0  0  0  0  0  0  0  0  0
   38.5960   27.1780   33.5080 C   0  0  0  0  0  0  0  0  0  0  0  0
   37.7990   27.8410   32.6050 F   0  0  0  0  0  0  0  0  0  0  0  0
   39.9420   27.4450   33.3140 F   0  0  0  0  0  0  0  0  0  0  0  0
   38.2930   27.6350   34.7960 F   0  0  0  0  0  0  0  0  0  0  0  0
  1  6  1  0  0  0  0
  1  2  1  0  0  0  0
  2  8  1  0  0  0  0
  2  3  1  0  0  0  0
  3  4  1  0  0  0  0
  3 10  1  0  0  0  0
  3  9  1  0  0  0  0
  4 11  1  0  0  0  0
  5 12  1  0  0  0  0
  5  4  1  0  0  0  0
  6 15  1  0  0  0  0
  6  5  1  0  0  0  0
  7  2  1  0  0  0  0
 13  5  1  0  0  0  0
 14  6  1  0  0  0  0
 16  1  1  0  0  0  0
 17 22  1  0  0  0  0
 17 16  2  0  0  0  0
 18 19  2  0  0  0  0
 18 17  1  0  0  0  0
 19 20  1  0  0  0  0
 20 21  2  0  0  0  0
 21 16  1  0  0  0  0
 23 18  1  0  0  0  0
 24 20  1  0  0  0  0
 24 27  1  0  0  0  0
 25 24  1  0  0  0  0
 26 24  1  0  0  0  0
M  END
>  <minimizedAffinity>
-4.5691824

$$$$

 OpenBabel03272504313D

 27 28  0  0  0  0  0  0  0  0999 V2000
   38.3910   24.7610   35.3050 N   0  0  0  0  0  0  0  0  0  0  0  0
   39.4500   23.8020   35.0400 C   0  0  0  0  0  0  0  0  0  0  0  0
   39.2790   22.4890   35.7470 C   0  0  0  0  0  0  0  0  0  0  0  0
   38.6770   22.5460   37.0300 N   0  0  0  0  0  0  0  0  0  0  0  0
   37.5330   23.4500   37.0640 C   0  0  0  0  0  0  0  0  0  0  0  0
   38.1130   24.8120   36.6960 C   0  0  0  0  0  0  0  0  0  0  0  0
   39.3970   23.5980   33.9330 H   0  0  0  0  0  0  0  0  0  0  0  0
   40.4340   24.2800   35.1890 H   0  0  0  0  0  0  0  0  0  0  0  0
   40.3080   22.0670   35.8730 H   0  0  0  0  0  0  0  0  0  0  0  0
   38.7430   21.7700   35.0960 H   0  0  0  0  0  0  0  0  0  0  0  0
   39.3520   22.7590   37.8050 H   0  0  0  0  0  0  0  0  0  0  0  0
   37.0890   23.4390   38.0670 H   0  0  0  0  0  0  0  0  0  0  0  0
   36.8490   23.1490   36.2560 H   0  0  0  0  0  0  0  0  0  0  0  0
   37.3860   25.6270   36.9480 H   0  0  0  0  0  0  0  0  0  0  0  0
   39.0430   24.9590   37.3110 H   0  0  0  0  0  0  0  0  0  0  0  0
   37.7570   25.5170   34.2640 C   0  0  0  0  0  0  0  0  0  0  0  0
   37.7160   26.9270   34.2930 C   0  0  0  0  0  0  0  0  0  0  0  0
   37.0750   27.5730   33.2310 C   0  0  0  0  0  0  0  0  0  0  0  0
   36.5320   26.8120   32.2390 N   0  0  0  0  0  0  0  0  0  0  0  0
   36.5970   25.4640   32.2560 C   0  0  0  0  0  0  0  0  0  0  0  0
   37.2030   24.8080   33.2550 N   0  0  0  0  0  0  0  0  0  0  0  0
   38.1740   27.4460   35.1220 H   0  0  0  0  0  0  0  0  0  0  0  0
   37.0340   28.6500   33.2370 H   0  0  0  0  0  0  0  0  0  0  0  0
   35.9800   24.7080   31.1350 C   0  0  0  0  0  0  0  0  0  0  0  0
   36.9210   24.1110   30.3310 F   0  0  0  0  0  0  0  0  0  0  0  0
   35.0920   25.4890   30.4120 F   0  0  0  0  0  0  0  0  0  0  0  0
   35.2100   23.7100   31.7450 F   0  0  0  0  0  0  0  0  0  0  0  0
  1  6  1  0  0  0  0
  2  8  1  0  0  0  0
  2  1  1  0  0  0  0
  2  3  1  0  0  0  0
  3  9  1  0  0  0  0
  3  4  1  0  0  0  0
  4  5  1  0  0  0  0
  4 11  1  0  0  0  0
  5 12  1  0  0  0  0
  6 14  1  0  0  0  0
  6  5  1  0  0  0  0
  6 15  1  0  0  0  0
  7  2  1  0  0  0  0
 10  3  1  0  0  0  0
 13  5  1  0  0  0  0
 16 17  1  0  0  0  0
 16  1  1  0  0  0  0
 17 22  1  0  0  0  0
 18 23  1  0  0  0  0
 18 17  2  0  0  0  0
 19 20  2  0  0  0  0
 19 18  1  0  0  0  0
 20 21  1  0  0  0  0
 21 16  2  0  0  0  0
 24 27  1  0  0  0  0
 24 20  1  0  0  0  0
 25 24  1  0  0  0  0
 26 24  1  0  0  0  0
M  END
>  <minimizedAffinity>
-4.55936432

$$$$
