
 OpenBabel03272506523D

 29 30  0  0  1  0  0  0  0  0999 V2000
   38.6200   23.0210   34.4090 C   0  0  1  0  0  0  0  0  0  0  0  0
   38.1900   24.3700   34.7680 C   0  0  0  0  0  0  0  0  0  0  0  0
   37.9620   24.6460   36.2290 C   0  0  0  0  0  0  0  0  0  0  0  0
   38.9300   24.0050   37.1450 C   0  0  2  0  0  0  0  0  0  0  0  0
   39.3820   22.6240   36.7990 C   0  0  0  0  0  0  0  0  0  0  0  0
   39.6700   22.4930   35.3380 C   0  0  0  0  0  0  0  0  0  0  0  0
   39.1680   23.0810   33.4120 H   0  0  0  0  0  0  0  0  0  0  0  0
   39.0930   25.0270   34.5490 H   0  0  0  0  0  0  0  0  0  0  0  0
   37.4020   24.8510   34.2010 H   0  0  0  0  0  0  0  0  0  0  0  0
   36.9400   24.3010   36.5170 H   0  0  0  0  0  0  0  0  0  0  0  0
   37.9740   25.7350   36.3730 H   0  0  0  0  0  0  0  0  0  0  0  0
   39.8410   24.6610   37.1800 H   0  0  0  0  0  0  0  0  0  0  0  0
   40.3590   22.4640   37.3240 H   0  0  0  0  0  0  0  0  0  0  0  0
   38.6550   21.8490   37.1310 H   0  0  0  0  0  0  0  0  0  0  0  0
   40.5300   23.2280   35.1870 H   0  0  0  0  0  0  0  0  0  0  0  0
   40.1340   21.5510   35.0650 H   0  0  0  0  0  0  0  0  0  0  0  0
   36.6920   21.5350   35.1170 C   0  0  0  0  0  0  0  0  0  0  0  0
   37.5490   22.0410   34.1100 C   0  0  0  0  0  0  0  0  0  0  0  0
   37.3500   21.5990   32.8160 C   0  0  0  0  0  0  0  0  0  0  0  0
   36.3420   20.7020   32.5770 N   0  0  0  0  0  0  0  0  0  0  0  0
   35.5340   20.2340   33.5650 C   0  0  0  0  0  0  0  0  0  0  0  0
   35.7230   20.6620   34.8390 N   0  0  0  0  0  0  0  0  0  0  0  0
   36.8090   21.8460   36.1260 H   0  0  0  0  0  0  0  0  0  0  0  0
   37.9350   21.9100   31.9620 H   0  0  0  0  0  0  0  0  0  0  0  0
   34.7470   19.5270   33.3400 H   0  0  0  0  0  0  0  0  0  0  0  0
   38.3110   23.9310   38.5270 C   0  0  0  0  0  0  0  0  0  0  0  0
   39.3290   23.6090   39.3970 F   0  0  0  0  0  0  0  0  0  0  0  0
   37.7240   25.1420   38.8200 F   0  0  0  0  0  0  0  0  0  0  0  0
   37.3690   22.9170   38.4730 F   0  0  0  0  0  0  0  0  0  0  0  0
  1  7  1  6  0  0  0
  1  2  1  0  0  0  0
  1  6  1  0  0  0  0
  2  3  1  0  0  0  0
  3 11  1  0  0  0  0
  3 10  1  0  0  0  0
  3  4  1  0  0  0  0
  4 12  1  1  0  0  0
  4 26  1  0  0  0  0
  5 14  1  0  0  0  0
  5  4  1  0  0  0  0
  5 13  1  0  0  0  0
  6  5  1  0  0  0  0
  8  2  1  0  0  0  0
  9  2  1  0  0  0  0
 15  6  1  0  0  0  0
 16  6  1  0  0  0  0
 17 23  1  0  0  0  0
 18  1  1  0  0  0  0
 18 17  2  0  0  0  0
 19 18  1  0  0  0  0
 20 19  2  0  0  0  0
 20 21  1  0  0  0  0
 21 22  2  0  0  0  0
 22 17  1  0  0  0  0
 24 19  1  0  0  0  0
 25 21  1  0  0  0  0
 26 28  1  0  0  0  0
 26 27  1  0  0  0  0
 29 26  1  0  0  0  0
M  END
>  <minimizedAffinity>
-4.72870493

$$$$

 OpenBabel03272506523D

 29 30  0  0  1  0  0  0  0  0999 V2000
   39.1530   26.7640   35.2300 C   0  0  1  0  0  0  0  0  0  0  0  0
   39.6990   27.0040   33.8970 C   0  0  0  0  0  0  0  0  0  0  0  0
   38.7170   27.0470   32.7570 C   0  0  0  0  0  0  0  0  0  0  0  0
   37.4300   27.7070   33.0640 C   0  0  2  0  0  0  0  0  0  0  0  0
   36.8530   27.4740   34.4220 C   0  0  0  0  0  0  0  0  0  0  0  0
   37.9040   27.5500   35.4830 C   0  0  0  0  0  0  0  0  0  0  0  0
   39.8840   27.1960   35.9900 H   0  0  0  0  0  0  0  0  0  0  0  0
   40.0630   28.0820   33.9250 H   0  0  0  0  0  0  0  0  0  0  0  0
   40.5790   26.4630   33.5710 H   0  0  0  0  0  0  0  0  0  0  0  0
   38.4930   26.0050   32.4210 H   0  0  0  0  0  0  0  0  0  0  0  0
   39.2040   27.5480   31.9100 H   0  0  0  0  0  0  0  0  0  0  0  0
   37.5880   28.8130   32.9480 H   0  0  0  0  0  0  0  0  0  0  0  0
   36.1480   28.3220   34.6220 H   0  0  0  0  0  0  0  0  0  0  0  0
   36.2970   26.5120   34.4820 H   0  0  0  0  0  0  0  0  0  0  0  0
   38.2650   28.6290   35.3990 H   0  0  0  0  0  0  0  0  0  0  0  0
   37.5080   27.5270   36.4940 H   0  0  0  0  0  0  0  0  0  0  0  0
   38.1090   24.9200   36.6210 C   0  0  0  0  0  0  0  0  0  0  0  0
   39.0610   25.3500   35.6650 C   0  0  0  0  0  0  0  0  0  0  0  0
   39.9080   24.4000   35.1280 C   0  0  0  0  0  0  0  0  0  0  0  0
   39.7820   23.1000   35.5470 N   0  0  0  0  0  0  0  0  0  0  0  0
   38.8580   22.7170   36.4660 C   0  0  0  0  0  0  0  0  0  0  0  0
   38.0230   23.6440   36.9990 N   0  0  0  0  0  0  0  0  0  0  0  0
   37.4390   25.6170   37.0610 H   0  0  0  0  0  0  0  0  0  0  0  0
   40.6730   24.6000   34.3930 H   0  0  0  0  0  0  0  0  0  0  0  0
   38.7880   21.6810   36.7730 H   0  0  0  0  0  0  0  0  0  0  0  0
   36.3950   27.2390   32.0610 C   0  0  0  0  0  0  0  0  0  0  0  0
   36.1970   25.8970   32.2980 F   0  0  0  0  0  0  0  0  0  0  0  0
   35.2460   27.9820   32.2230 F   0  0  0  0  0  0  0  0  0  0  0  0
   36.9510   27.4430   30.8090 F   0  0  0  0  0  0  0  0  0  0  0  0
  1  6  1  0  0  0  0
  1 18  1  0  0  0  0
  1  7  1  1  0  0  0
  2  8  1  0  0  0  0
  2  1  1  0  0  0  0
  3  4  1  0  0  0  0
  3  2  1  0  0  0  0
  4 12  1  6  0  0  0
  4  5  1  0  0  0  0
  5 14  1  0  0  0  0
  5 13  1  0  0  0  0
  5  6  1  0  0  0  0
  6 16  1  0  0  0  0
  9  2  1  0  0  0  0
 10  3  1  0  0  0  0
 11  3  1  0  0  0  0
 15  6  1  0  0  0  0
 17 22  1  0  0  0  0
 17 23  1  0  0  0  0
 18 17  2  0  0  0  0
 19 20  2  0  0  0  0
 19 18  1  0  0  0  0
 20 21  1  0  0  0  0
 21 25  1  0  0  0  0
 21 22  2  0  0  0  0
 24 19  1  0  0  0  0
 26 28  1  0  0  0  0
 26 27  1  0  0  0  0
 26  4  1  0  0  0  0
 29 26  1  0  0  0  0
M  END
>  <minimizedAffinity>
-4.65149355

$$$$

 OpenBabel03272506523D

 29 30  0  0  1  0  0  0  0  0999 V2000
   39.2810   24.4780   34.4840 C   0  0  1  0  0  0  0  0  0  0  0  0
   39.0620   23.0820   34.8530 C   0  0  0  0  0  0  0  0  0  0  0  0
   38.7810   22.7980   36.3030 C   0  0  0  0  0  0  0  0  0  0  0  0
   37.9220   23.7940   36.9810 C   0  0  2  0  0  0  0  0  0  0  0  0
   38.1300   25.2280   36.6200 C   0  0  0  0  0  0  0  0  0  0  0  0
   38.3030   25.4010   35.1450 C   0  0  0  0  0  0  0  0  0  0  0  0
   39.0300   24.5920   33.3780 H   0  0  0  0  0  0  0  0  0  0  0  0
   38.0690   22.8090   34.3690 H   0  0  0  0  0  0  0  0  0  0  0  0
   39.7300   22.3170   34.4770 H   0  0  0  0  0  0  0  0  0  0  0  0
   39.7450   22.7400   36.8650 H   0  0  0  0  0  0  0  0  0  0  0  0
   38.3230   21.8010   36.3700 H   0  0  0  0  0  0  0  0  0  0  0  0
   36.8570   23.5340   36.7400 H   0  0  0  0  0  0  0  0  0  0  0  0
   37.1840   25.7670   36.8880 H   0  0  0  0  0  0  0  0  0  0  0  0
   38.9810   25.6810   37.1760 H   0  0  0  0  0  0  0  0  0  0  0  0
   37.3020   25.0420   34.7330 H   0  0  0  0  0  0  0  0  0  0  0  0
   38.3160   26.4380   34.8240 H   0  0  0  0  0  0  0  0  0  0  0  0
   41.7530   24.1310   34.9220 C   0  0  0  0  0  0  0  0  0  0  0  0
   40.6790   24.9670   34.5320 C   0  0  0  0  0  0  0  0  0  0  0  0
   40.9750   26.2700   34.1790 C   0  0  0  0  0  0  0  0  0  0  0  0
   42.2820   26.6800   34.2240 N   0  0  0  0  0  0  0  0  0  0  0  0
   43.2920   25.8530   34.6020 C   0  0  0  0  0  0  0  0  0  0  0  0
   43.0110   24.5730   34.9510 N   0  0  0  0  0  0  0  0  0  0  0  0
   41.5730   23.1220   35.2020 H   0  0  0  0  0  0  0  0  0  0  0  0
   40.2470   27.0030   33.8640 H   0  0  0  0  0  0  0  0  0  0  0  0
   44.3130   26.2120   34.6250 H   0  0  0  0  0  0  0  0  0  0  0  0
   38.1410   23.6810   38.4770 C   0  0  0  0  0  0  0  0  0  0  0  0
   37.9200   24.9350   39.0020 F   0  0  0  0  0  0  0  0  0  0  0  0
   37.2810   22.7330   38.9850 F   0  0  0  0  0  0  0  0  0  0  0  0
   39.4620   23.3010   38.6460 F   0  0  0  0  0  0  0  0  0  0  0  0
  1  7  1  6  0  0  0
  1 18  1  0  0  0  0
  1  2  1  0  0  0  0
  1  6  1  0  0  0  0
  2  3  1  0  0  0  0
  3 11  1  0  0  0  0
  3 10  1  0  0  0  0
  3  4  1  0  0  0  0
  4 12  1  6  0  0  0
  4 26  1  0  0  0  0
  5 13  1  0  0  0  0
  5  4  1  0  0  0  0
  5 14  1  0  0  0  0
  6  5  1  0  0  0  0
  8  2  1  0  0  0  0
  9  2  1  0  0  0  0
 15  6  1  0  0  0  0
 16  6  1  0  0  0  0
 17 22  1  0  0  0  0
 17 23  1  0  0  0  0
 18 17  2  0  0  0  0
 19 20  2  0  0  0  0
 19 18  1  0  0  0  0
 20 21  1  0  0  0  0
 21 25  1  0  0  0  0
 21 22  2  0  0  0  0
 24 19  1  0  0  0  0
 26 29  1  0  0  0  0
 26 28  1  0  0  0  0
 26 27  1  0  0  0  0
M  END
>  <minimizedAffinity>
-4.64196301

$$$$

 OpenBabel03272506523D

 29 30  0  0  1  0  0  0  0  0999 V2000
   39.1390   26.7880   35.2320 C   0  0  1  0  0  0  0  0  0  0  0  0
   39.7120   27.0320   33.9110 C   0  0  0  0  0  0  0  0  0  0  0  0
   38.7580   27.0490   32.7470 C   0  0  0  0  0  0  0  0  0  0  0  0
   37.4500   27.6840   33.0190 C   0  0  2  0  0  0  0  0  0  0  0  0
   36.8450   27.4460   34.3630 C   0  0  0  0  0  0  0  0  0  0  0  0
   37.8680   27.5490   35.4490 C   0  0  0  0  0  0  0  0  0  0  0  0
   39.8420   27.2390   36.0070 H   0  0  0  0  0  0  0  0  0  0  0  0
   40.0530   28.1170   33.9420 H   0  0  0  0  0  0  0  0  0  0  0  0
   40.6100   26.5080   33.6100 H   0  0  0  0  0  0  0  0  0  0  0  0
   38.5640   26.0010   32.4120 H   0  0  0  0  0  0  0  0  0  0  0  0
   39.2550   27.5560   31.9090 H   0  0  0  0  0  0  0  0  0  0  0  0
   37.5890   28.7920   32.9010 H   0  0  0  0  0  0  0  0  0  0  0  0
   36.1180   28.2800   34.5410 H   0  0  0  0  0  0  0  0  0  0  0  0
   36.3070   26.4730   34.4150 H   0  0  0  0  0  0  0  0  0  0  0  0
   38.2090   28.6350   35.3680 H   0  0  0  0  0  0  0  0  0  0  0  0
   37.4480   27.5240   36.4500 H   0  0  0  0  0  0  0  0  0  0  0  0
   39.9280   24.3810   35.1530 C   0  0  0  0  0  0  0  0  0  0  0  0
   39.0650   25.3750   35.6720 C   0  0  0  0  0  0  0  0  0  0  0  0
   38.1420   24.9900   36.6250 C   0  0  0  0  0  0  0  0  0  0  0  0
   38.1120   23.6760   37.0160 N   0  0  0  0  0  0  0  0  0  0  0  0
   38.9550   22.7440   36.5000 C   0  0  0  0  0  0  0  0  0  0  0  0
   39.8640   23.1130   35.5620 N   0  0  0  0  0  0  0  0  0  0  0  0
   40.6530   24.6310   34.4170 H   0  0  0  0  0  0  0  0  0  0  0  0
   37.4300   25.6520   37.0970 H   0  0  0  0  0  0  0  0  0  0  0  0
   38.9040   21.7150   36.8320 H   0  0  0  0  0  0  0  0  0  0  0  0
   36.4500   27.1890   31.9940 C   0  0  0  0  0  0  0  0  0  0  0  0
   35.3190   27.9600   32.1430 F   0  0  0  0  0  0  0  0  0  0  0  0
   37.0050   27.2990   30.7380 F   0  0  0  0  0  0  0  0  0  0  0  0
   36.1920   25.8670   32.3130 F   0  0  0  0  0  0  0  0  0  0  0  0
  1  6  1  0  0  0  0
  1 18  1  0  0  0  0
  1  7  1  1  0  0  0
  2  8  1  0  0  0  0
  2  1  1  0  0  0  0
  3  4  1  0  0  0  0
  3  2  1  0  0  0  0
  4 12  1  6  0  0  0
  4  5  1  0  0  0  0
  5 14  1  0  0  0  0
  5 13  1  0  0  0  0
  5  6  1  0  0  0  0
  6 16  1  0  0  0  0
  9  2  1  0  0  0  0
 10  3  1  0  0  0  0
 11  3  1  0  0  0  0
 15  6  1  0  0  0  0
 17 22  2  0  0  0  0
 17 18  1  0  0  0  0
 18 19  2  0  0  0  0
 19 20  1  0  0  0  0
 19 24  1  0  0  0  0
 21 25  1  0  0  0  0
 21 20  2  0  0  0  0
 22 21  1  0  0  0  0
 23 17  1  0  0  0  0
 26 27  1  0  0  0  0
 26 29  1  0  0  0  0
 26  4  1  0  0  0  0
 28 26  1  0  0  0  0
M  END
>  <minimizedAffinity>
-4.63828325

$$$$

 OpenBabel03272506523D

 29 30  0  0  1  0  0  0  0  0999 V2000
   38.3730   22.9980   35.8330 C   0  0  1  0  0  0  0  0  0  0  0  0
   37.8730   23.9370   36.8350 C   0  0  0  0  0  0  0  0  0  0  0  0
   38.1510   25.3960   36.5980 C   0  0  0  0  0  0  0  0  0  0  0  0
   38.0500   25.8320   35.1880 C   0  0  2  0  0  0  0  0  0  0  0  0
   38.5560   24.8890   34.1470 C   0  0  0  0  0  0  0  0  0  0  0  0
   38.1390   23.4820   34.4350 C   0  0  0  0  0  0  0  0  0  0  0  0
   37.7350   22.0560   35.8860 H   0  0  0  0  0  0  0  0  0  0  0  0
   36.7410   23.8980   36.7250 H   0  0  0  0  0  0  0  0  0  0  0  0
   38.0190   23.7260   37.8870 H   0  0  0  0  0  0  0  0  0  0  0  0
   39.1800   25.6420   36.9580 H   0  0  0  0  0  0  0  0  0  0  0  0
   37.4580   25.9770   37.2210 H   0  0  0  0  0  0  0  0  0  0  0  0
   36.9640   26.0210   34.9760 H   0  0  0  0  0  0  0  0  0  0  0  0
   38.0550   25.1720   33.1860 H   0  0  0  0  0  0  0  0  0  0  0  0
   39.6600   24.9580   34.0200 H   0  0  0  0  0  0  0  0  0  0  0  0
   37.0020   23.5430   34.3770 H   0  0  0  0  0  0  0  0  0  0  0  0
   38.3650   22.7860   33.6330 H   0  0  0  0  0  0  0  0  0  0  0  0
   40.5820   22.0990   34.9750 C   0  0  0  0  0  0  0  0  0  0  0  0
   39.7350   22.4570   36.0510 C   0  0  0  0  0  0  0  0  0  0  0  0
   40.2240   22.2970   37.3340 C   0  0  0  0  0  0  0  0  0  0  0  0
   41.4930   21.8050   37.4950 N   0  0  0  0  0  0  0  0  0  0  0  0
   42.2840   21.4710   36.4410 C   0  0  0  0  0  0  0  0  0  0  0  0
   41.8120   21.6240   35.1780 N   0  0  0  0  0  0  0  0  0  0  0  0
   40.2480   22.2050   33.9720 H   0  0  0  0  0  0  0  0  0  0  0  0
   39.6780   22.5330   38.2360 H   0  0  0  0  0  0  0  0  0  0  0  0
   43.2820   21.0860   36.6060 H   0  0  0  0  0  0  0  0  0  0  0  0
   38.8260   27.1240   35.0260 C   0  0  0  0  0  0  0  0  0  0  0  0
   38.1550   28.0800   35.7560 F   0  0  0  0  0  0  0  0  0  0  0  0
   40.1170   26.9290   35.4650 F   0  0  0  0  0  0  0  0  0  0  0  0
   38.7960   27.4240   33.6740 F   0  0  0  0  0  0  0  0  0  0  0  0
  1  7  1  1  0  0  0
  1 18  1  0  0  0  0
  1  2  1  0  0  0  0
  2  9  1  0  0  0  0
  3  2  1  0  0  0  0
  3 10  1  0  0  0  0
  3 11  1  0  0  0  0
  4 12  1  6  0  0  0
  4  3  1  0  0  0  0
  5  6  1  0  0  0  0
  5  4  1  0  0  0  0
  6  1  1  0  0  0  0
  8  2  1  0  0  0  0
 13  5  1  0  0  0  0
 14  5  1  0  0  0  0
 15  6  1  0  0  0  0
 16  6  1  0  0  0  0
 17 22  2  0  0  0  0
 17 18  1  0  0  0  0
 18 19  2  0  0  0  0
 19 20  1  0  0  0  0
 19 24  1  0  0  0  0
 21 25  1  0  0  0  0
 21 20  2  0  0  0  0
 22 21  1  0  0  0  0
 23 17  1  0  0  0  0
 26  4  1  0  0  0  0
 26 28  1  0  0  0  0
 26 27  1  0  0  0  0
 29 26  1  0  0  0  0
M  END
>  <minimizedAffinity>
-4.54154873

$$$$

 OpenBabel03272506523D

 29 30  0  0  1  0  0  0  0  0999 V2000
   39.0570   23.3370   33.4790 C   0  0  1  0  0  0  0  0  0  0  0  0
   39.7260   24.4230   34.1900 C   0  0  0  0  0  0  0  0  0  0  0  0
   39.3540   24.6230   35.6340 C   0  0  0  0  0  0  0  0  0  0  0  0
   39.1350   23.3780   36.4020 C   0  0  2  0  0  0  0  0  0  0  0  0
   38.4500   22.2540   35.6950 C   0  0  0  0  0  0  0  0  0  0  0  0
   38.9680   22.0890   34.3020 C   0  0  0  0  0  0  0  0  0  0  0  0
   39.7250   23.0220   32.6110 H   0  0  0  0  0  0  0  0  0  0  0  0
   40.8090   24.0840   34.2780 H   0  0  0  0  0  0  0  0  0  0  0  0
   39.8170   25.3950   33.7220 H   0  0  0  0  0  0  0  0  0  0  0  0
   38.4180   25.2300   35.6950 H   0  0  0  0  0  0  0  0  0  0  0  0
   40.1430   25.2220   36.1070 H   0  0  0  0  0  0  0  0  0  0  0  0
   40.1430   23.0080   36.7300 H   0  0  0  0  0  0  0  0  0  0  0  0
   38.7240   21.3160   36.2430 H   0  0  0  0  0  0  0  0  0  0  0  0
   37.3430   22.3710   35.6960 H   0  0  0  0  0  0  0  0  0  0  0  0
   40.0640   21.8230   34.4740 H   0  0  0  0  0  0  0  0  0  0  0  0
   38.6010   21.1980   33.8010 H   0  0  0  0  0  0  0  0  0  0  0  0
   37.3950   25.0190   32.5670 C   0  0  0  0  0  0  0  0  0  0  0  0
   37.7930   23.6780   32.7850 C   0  0  0  0  0  0  0  0  0  0  0  0
   36.9650   22.6770   32.3140 C   0  0  0  0  0  0  0  0  0  0  0  0
   35.8100   23.0320   31.6660 N   0  0  0  0  0  0  0  0  0  0  0  0
   35.4550   24.3300   31.4710 C   0  0  0  0  0  0  0  0  0  0  0  0
   36.2610   25.3190   31.9300 N   0  0  0  0  0  0  0  0  0  0  0  0
   38.0000   25.8200   32.9120 H   0  0  0  0  0  0  0  0  0  0  0  0
   37.1570   21.6190   32.4170 H   0  0  0  0  0  0  0  0  0  0  0  0
   34.5350   24.5730   30.9530 H   0  0  0  0  0  0  0  0  0  0  0  0
   38.2970   23.7040   37.6220 C   0  0  0  0  0  0  0  0  0  0  0  0
   38.0600   25.0600   37.5850 F   0  0  0  0  0  0  0  0  0  0  0  0
   37.1380   22.9610   37.5820 F   0  0  0  0  0  0  0  0  0  0  0  0
   39.0690   23.3680   38.7220 F   0  0  0  0  0  0  0  0  0  0  0  0
  1  7  1  6  0  0  0
  1  2  1  0  0  0  0
  1  6  1  0  0  0  0
  2  8  1  0  0  0  0
  2  3  1  0  0  0  0
  3 10  1  0  0  0  0
  3 11  1  0  0  0  0
  3  4  1  0  0  0  0
  4 12  1  1  0  0  0
  4 26  1  0  0  0  0
  5 14  1  0  0  0  0
  5 13  1  0  0  0  0
  5  4  1  0  0  0  0
  6 15  1  0  0  0  0
  6  5  1  0  0  0  0
  9  2  1  0  0  0  0
 16  6  1  0  0  0  0
 17 18  1  0  0  0  0
 17 23  1  0  0  0  0
 18  1  1  0  0  0  0
 19 24  1  0  0  0  0
 19 18  2  0  0  0  0
 20 19  1  0  0  0  0
 21 20  2  0  0  0  0
 21 22  1  0  0  0  0
 22 17  2  0  0  0  0
 25 21  1  0  0  0  0
 26 29  1  0  0  0  0
 27 26  1  0  0  0  0
 28 26  1  0  0  0  0
M  END
>  <minimizedAffinity>
-4.49272919

$$$$

 OpenBabel03272506523D

 29 30  0  0  1  0  0  0  0  0999 V2000
   40.7100   24.8820   34.2360 C   0  0  1  0  0  0  0  0  0  0  0  0
   39.6080   24.7530   33.2870 C   0  0  0  0  0  0  0  0  0  0  0  0
   38.3770   25.5730   33.5590 C   0  0  0  0  0  0  0  0  0  0  0  0
   38.6330   26.9340   34.0810 C   0  0  2  0  0  0  0  0  0  0  0  0
   39.7550   27.0880   35.0540 C   0  0  0  0  0  0  0  0  0  0  0  0
   40.9570   26.3050   34.6320 C   0  0  0  0  0  0  0  0  0  0  0  0
   41.6730   24.5970   33.6970 H   0  0  0  0  0  0  0  0  0  0  0  0
   39.9950   25.2320   32.3310 H   0  0  0  0  0  0  0  0  0  0  0  0
   39.2990   23.7700   32.9540 H   0  0  0  0  0  0  0  0  0  0  0  0
   37.7310   25.0410   34.3000 H   0  0  0  0  0  0  0  0  0  0  0  0
   37.7960   25.6320   32.6280 H   0  0  0  0  0  0  0  0  0  0  0  0
   38.8560   27.5910   33.1980 H   0  0  0  0  0  0  0  0  0  0  0  0
   40.0600   28.1660   35.0250 H   0  0  0  0  0  0  0  0  0  0  0  0
   39.4500   26.8200   36.0910 H   0  0  0  0  0  0  0  0  0  0  0  0
   41.2380   26.7960   33.6410 H   0  0  0  0  0  0  0  0  0  0  0  0
   41.8400   26.4990   35.2330 H   0  0  0  0  0  0  0  0  0  0  0  0
   39.5190   23.5480   36.0330 C   0  0  0  0  0  0  0  0  0  0  0  0
   40.7130   23.9410   35.3820 C   0  0  0  0  0  0  0  0  0  0  0  0
   41.9020   23.4070   35.8420 C   0  0  0  0  0  0  0  0  0  0  0  0
   41.8620   22.5310   36.8950 N   0  0  0  0  0  0  0  0  0  0  0  0
   40.7000   22.1710   37.5000 C   0  0  0  0  0  0  0  0  0  0  0  0
   39.5280   22.6910   37.0560 N   0  0  0  0  0  0  0  0  0  0  0  0
   38.5830   23.9340   35.7140 H   0  0  0  0  0  0  0  0  0  0  0  0
   42.8760   23.6270   35.4300 H   0  0  0  0  0  0  0  0  0  0  0  0
   40.7070   21.4760   38.3290 H   0  0  0  0  0  0  0  0  0  0  0  0
   37.3790   27.4300   34.7730 C   0  0  0  0  0  0  0  0  0  0  0  0
   36.7160   26.3140   35.2320 F   0  0  0  0  0  0  0  0  0  0  0  0
   37.7380   28.2890   35.7880 F   0  0  0  0  0  0  0  0  0  0  0  0
   36.6360   28.0820   33.8040 F   0  0  0  0  0  0  0  0  0  0  0  0
  1  7  1  6  0  0  0
  1  6  1  0  0  0  0
  1 18  1  0  0  0  0
  2  3  1  0  0  0  0
  2  1  1  0  0  0  0
  3  4  1  0  0  0  0
  3 10  1  0  0  0  0
  4 12  1  6  0  0  0
  4 26  1  0  0  0  0
  4  5  1  0  0  0  0
  5 14  1  0  0  0  0
  6  5  1  0  0  0  0
  6 16  1  0  0  0  0
  8  2  1  0  0  0  0
  9  2  1  0  0  0  0
 11  3  1  0  0  0  0
 13  5  1  0  0  0  0
 15  6  1  0  0  0  0
 17 22  1  0  0  0  0
 18 19  1  0  0  0  0
 18 17  2  0  0  0  0
 19 20  2  0  0  0  0
 20 21  1  0  0  0  0
 21 25  1  0  0  0  0
 22 21  2  0  0  0  0
 23 17  1  0  0  0  0
 24 19  1  0  0  0  0
 26 27  1  0  0  0  0
 26 28  1  0  0  0  0
 29 26  1  0  0  0  0
M  END
>  <minimizedAffinity>
-4.48833609

$$$$

 OpenBabel03272506523D

 29 30  0  0  1  0  0  0  0  0999 V2000
   39.2800   26.9440   34.8980 C   0  0  1  0  0  0  0  0  0  0  0  0
   38.4490   26.7910   36.0890 C   0  0  0  0  0  0  0  0  0  0  0  0
   37.9890   25.3980   36.4240 C   0  0  0  0  0  0  0  0  0  0  0  0
   38.9900   24.3350   36.1850 C   0  0  2  0  0  0  0  0  0  0  0  0
   39.8500   24.4700   34.9720 C   0  0  0  0  0  0  0  0  0  0  0  0
   40.3250   25.8760   34.7930 C   0  0  0  0  0  0  0  0  0  0  0  0
   39.8970   27.8940   35.0210 H   0  0  0  0  0  0  0  0  0  0  0  0
   39.1480   27.0160   36.9580 H   0  0  0  0  0  0  0  0  0  0  0  0
   37.6260   27.4740   36.2600 H   0  0  0  0  0  0  0  0  0  0  0  0
   37.0810   25.1510   35.8220 H   0  0  0  0  0  0  0  0  0  0  0  0
   37.6760   25.3890   37.4760 H   0  0  0  0  0  0  0  0  0  0  0  0
   39.6670   24.3090   37.0800 H   0  0  0  0  0  0  0  0  0  0  0  0
   40.7670   23.8530   35.1570 H   0  0  0  0  0  0  0  0  0  0  0  0
   39.3400   24.1030   34.0530 H   0  0  0  0  0  0  0  0  0  0  0  0
   40.9530   26.0480   35.7300 H   0  0  0  0  0  0  0  0  0  0  0  0
   41.0650   25.9920   34.0070 H   0  0  0  0  0  0  0  0  0  0  0  0
   37.1900   27.5120   33.5810 C   0  0  0  0  0  0  0  0  0  0  0  0
   38.5710   27.2040   33.6220 C   0  0  0  0  0  0  0  0  0  0  0  0
   39.2570   27.1620   32.4230 C   0  0  0  0  0  0  0  0  0  0  0  0
   38.5690   27.4200   31.2660 N   0  0  0  0  0  0  0  0  0  0  0  0
   37.2420   27.7150   31.2580 C   0  0  0  0  0  0  0  0  0  0  0  0
   36.5600   27.7570   32.4300 N   0  0  0  0  0  0  0  0  0  0  0  0
   36.6230   27.5540   34.4780 H   0  0  0  0  0  0  0  0  0  0  0  0
   40.3090   26.9400   32.3220 H   0  0  0  0  0  0  0  0  0  0  0  0
   36.7310   27.9140   30.3240 H   0  0  0  0  0  0  0  0  0  0  0  0
   38.2660   23.0090   36.0650 C   0  0  0  0  0  0  0  0  0  0  0  0
   39.1970   22.0270   36.3230 F   0  0  0  0  0  0  0  0  0  0  0  0
   37.2140   22.9900   36.9540 F   0  0  0  0  0  0  0  0  0  0  0  0
   37.8170   22.9310   34.7570 F   0  0  0  0  0  0  0  0  0  0  0  0
  1  7  1  1  0  0  0
  1  2  1  0  0  0  0
  2  9  1  0  0  0  0
  2  3  1  0  0  0  0
  2  8  1  0  0  0  0
  3 11  1  0  0  0  0
  4  3  1  0  0  0  0
  4 12  1  1  0  0  0
  5 13  1  0  0  0  0
  5  4  1  0  0  0  0
  6  1  1  0  0  0  0
  6  5  1  0  0  0  0
  6 15  1  0  0  0  0
 10  3  1  0  0  0  0
 14  5  1  0  0  0  0
 16  6  1  0  0  0  0
 17 18  1  0  0  0  0
 17 23  1  0  0  0  0
 18  1  1  0  0  0  0
 19 18  2  0  0  0  0
 20 19  1  0  0  0  0
 21 20  2  0  0  0  0
 21 22  1  0  0  0  0
 22 17  2  0  0  0  0
 24 19  1  0  0  0  0
 25 21  1  0  0  0  0
 26  4  1  0  0  0  0
 26 27  1  0  0  0  0
 26 28  1  0  0  0  0
 29 26  1  0  0  0  0
M  END
>  <minimizedAffinity>
-4.48820353

$$$$

 OpenBabel03272506523D

 29 30  0  0  1  0  0  0  0  0999 V2000
   38.7340   22.5350   35.7660 C   0  0  1  0  0  0  0  0  0  0  0  0
   39.6880   23.2630   34.9340 C   0  0  0  0  0  0  0  0  0  0  0  0
   39.3880   24.7120   34.6620 C   0  0  0  0  0  0  0  0  0  0  0  0
   38.8180   25.4570   35.8060 C   0  0  2  0  0  0  0  0  0  0  0  0
   37.8390   24.7330   36.6700 C   0  0  0  0  0  0  0  0  0  0  0  0
   38.2880   23.3340   36.9520 C   0  0  0  0  0  0  0  0  0  0  0  0
   39.2830   21.6570   36.2430 H   0  0  0  0  0  0  0  0  0  0  0  0
   40.6270   23.3400   35.5720 H   0  0  0  0  0  0  0  0  0  0  0  0
   40.0560   22.8120   34.0200 H   0  0  0  0  0  0  0  0  0  0  0  0
   38.6660   24.7890   33.8130 H   0  0  0  0  0  0  0  0  0  0  0  0
   40.3160   25.1930   34.3260 H   0  0  0  0  0  0  0  0  0  0  0  0
   39.6760   25.7730   36.4570 H   0  0  0  0  0  0  0  0  0  0  0  0
   37.8300   25.2610   37.6590 H   0  0  0  0  0  0  0  0  0  0  0  0
   36.8130   24.7410   36.2400 H   0  0  0  0  0  0  0  0  0  0  0  0
   39.2610   23.4960   37.5250 H   0  0  0  0  0  0  0  0  0  0  0  0
   37.6800   22.8190   37.6880 H   0  0  0  0  0  0  0  0  0  0  0  0
   37.6260   21.6680   33.6580 C   0  0  0  0  0  0  0  0  0  0  0  0
   37.6230   21.8530   35.0620 C   0  0  0  0  0  0  0  0  0  0  0  0
   36.5440   21.3620   35.7720 C   0  0  0  0  0  0  0  0  0  0  0  0
   35.5420   20.7260   35.0860 N   0  0  0  0  0  0  0  0  0  0  0  0
   35.5730   20.5620   33.7370 C   0  0  0  0  0  0  0  0  0  0  0  0
   36.6280   21.0420   33.0310 N   0  0  0  0  0  0  0  0  0  0  0  0
   38.4340   22.0290   33.0710 H   0  0  0  0  0  0  0  0  0  0  0  0
   36.4250   21.4390   36.8430 H   0  0  0  0  0  0  0  0  0  0  0  0
   34.7640   20.0540   33.2290 H   0  0  0  0  0  0  0  0  0  0  0  0
   38.1090   26.6870   35.2760 C   0  0  0  0  0  0  0  0  0  0  0  0
   38.8770   27.1680   34.2390 F   0  0  0  0  0  0  0  0  0  0  0  0
   36.8390   26.3350   34.8770 F   0  0  0  0  0  0  0  0  0  0  0  0
   38.0720   27.5930   36.3230 F   0  0  0  0  0  0  0  0  0  0  0  0
  1  7  1  1  0  0  0
  1  6  1  0  0  0  0
  2  8  1  0  0  0  0
  2  1  1  0  0  0  0
  3  2  1  0  0  0  0
  3  4  1  0  0  0  0
  4 12  1  1  0  0  0
  4  5  1  0  0  0  0
  5  6  1  0  0  0  0
  5 13  1  0  0  0  0
  6 15  1  0  0  0  0
  6 16  1  0  0  0  0
  9  2  1  0  0  0  0
 10  3  1  0  0  0  0
 11  3  1  0  0  0  0
 14  5  1  0  0  0  0
 17 18  1  0  0  0  0
 18  1  1  0  0  0  0
 18 19  2  0  0  0  0
 19 24  1  0  0  0  0
 20 19  1  0  0  0  0
 21 20  2  0  0  0  0
 22 17  2  0  0  0  0
 22 21  1  0  0  0  0
 23 17  1  0  0  0  0
 25 21  1  0  0  0  0
 26  4  1  0  0  0  0
 26 29  1  0  0  0  0
 27 26  1  0  0  0  0
 28 26  1  0  0  0  0
M  END
>  <minimizedAffinity>
-4.46171331

$$$$
