
 OpenBabel03272507113D

 22 23  0  0  0  0  0  0  0  0999 V2000
   38.2770   22.9960   33.5260 C   0  0  0  0  0  0  0  0  0  0  0  0
   39.2990   23.1630   32.8130 O   0  0  0  0  0  0  0  0  0  0  0  0
   37.1280   22.2180   33.0920 C   0  0  0  0  0  0  0  0  0  0  0  0
   36.6200   22.4970   31.8360 C   0  0  0  0  0  0  0  0  0  0  0  0
   35.5120   21.7630   31.3910 C   0  0  0  0  0  0  0  0  0  0  0  0
   35.0070   20.8110   32.2400 N   0  0  0  0  0  0  0  0  0  0  0  0
   35.5240   20.5690   33.4480 C   0  0  0  0  0  0  0  0  0  0  0  0
   36.5790   21.2700   33.8690 N   0  0  0  0  0  0  0  0  0  0  0  0
   37.0590   23.2610   31.2050 H   0  0  0  0  0  0  0  0  0  0  0  0
   35.1380   21.9970   30.4190 H   0  0  0  0  0  0  0  0  0  0  0  0
   35.0280   19.7950   34.0080 H   0  0  0  0  0  0  0  0  0  0  0  0
   38.2280   23.5950   34.8360 C   0  0  0  0  0  0  0  0  0  0  0  0
   38.1010   24.9380   35.0110 C   0  0  0  0  0  0  0  0  0  0  0  0
   38.0840   25.2040   36.3830 C   0  0  0  0  0  0  0  0  0  0  0  0
   38.2090   23.9430   36.9810 C   0  0  0  0  0  0  0  0  0  0  0  0
   38.2880   23.0540   36.0200 O   0  0  0  0  0  0  0  0  0  0  0  0
   38.0220   25.7150   34.2630 H   0  0  0  0  0  0  0  0  0  0  0  0
   37.9910   26.2180   36.8040 H   0  0  0  0  0  0  0  0  0  0  0  0
   38.2280   23.8400   38.4530 C   0  0  0  0  0  0  0  0  0  0  0  0
   37.3210   22.8600   38.8200 F   0  0  0  0  0  0  0  0  0  0  0  0
   37.8990   25.0170   39.0720 F   0  0  0  0  0  0  0  0  0  0  0  0
   39.4800   23.4460   38.8950 F   0  0  0  0  0  0  0  0  0  0  0  0
  1 12  1  0  0  0  0
  2  1  2  0  0  0  0
  3  1  1  0  0  0  0
  3  8  1  0  0  0  0
  4  3  2  0  0  0  0
  5  4  1  0  0  0  0
  5  6  2  0  0  0  0
  6  7  1  0  0  0  0
  7  8  2  0  0  0  0
  7 11  1  0  0  0  0
  9  4  1  0  0  0  0
 10  5  1  0  0  0  0
 12 13  2  0  0  0  0
 12 16  1  0  0  0  0
 13 14  1  0  0  0  0
 14 18  1  0  0  0  0
 14 15  2  0  0  0  0
 15 19  1  0  0  0  0
 16 15  1  0  0  0  0
 17 13  1  0  0  0  0
 19 20  1  0  0  0  0
 19 22  1  0  0  0  0
 19 21  1  0  0  0  0
M  END
>  <minimizedAffinity>
-5.01420689

$$$$

 OpenBabel03272507113D

 22 23  0  0  0  0  0  0  0  0999 V2000
   38.5020   25.0120   33.1130 C   0  0  0  0  0  0  0  0  0  0  0  0
   39.6420   24.9400   32.5880 O   0  0  0  0  0  0  0  0  0  0  0  0
   37.2730   25.0490   32.3370 C   0  0  0  0  0  0  0  0  0  0  0  0
   36.6830   23.8330   32.0390 C   0  0  0  0  0  0  0  0  0  0  0  0
   35.4970   23.8380   31.2910 C   0  0  0  0  0  0  0  0  0  0  0  0
   35.0020   25.0590   30.9060 N   0  0  0  0  0  0  0  0  0  0  0  0
   35.6010   26.2130   31.2130 C   0  0  0  0  0  0  0  0  0  0  0  0
   36.7300   26.2050   31.9250 N   0  0  0  0  0  0  0  0  0  0  0  0
   37.1170   22.8980   32.3690 H   0  0  0  0  0  0  0  0  0  0  0  0
   35.0610   22.8890   31.0740 H   0  0  0  0  0  0  0  0  0  0  0  0
   35.1040   27.0950   30.8460 H   0  0  0  0  0  0  0  0  0  0  0  0
   38.3920   25.0600   34.5500 C   0  0  0  0  0  0  0  0  0  0  0  0
   38.2840   26.2350   35.2260 C   0  0  0  0  0  0  0  0  0  0  0  0
   38.1960   25.9500   36.5920 C   0  0  0  0  0  0  0  0  0  0  0  0
   38.2600   24.5520   36.6590 C   0  0  0  0  0  0  0  0  0  0  0  0
   38.3740   24.1010   35.4320 O   0  0  0  0  0  0  0  0  0  0  0  0
   38.2640   27.2430   34.8350 H   0  0  0  0  0  0  0  0  0  0  0  0
   38.1000   26.7250   37.3690 H   0  0  0  0  0  0  0  0  0  0  0  0
   38.1950   23.8870   37.9750 C   0  0  0  0  0  0  0  0  0  0  0  0
   37.8450   24.8430   38.9140 F   0  0  0  0  0  0  0  0  0  0  0  0
   39.3830   23.3100   38.3360 F   0  0  0  0  0  0  0  0  0  0  0  0
   37.2130   22.9110   37.9760 F   0  0  0  0  0  0  0  0  0  0  0  0
  1 12  1  0  0  0  0
  2  1  2  0  0  0  0
  3  1  1  0  0  0  0
  4  3  1  0  0  0  0
  4  9  1  0  0  0  0
  5  4  2  0  0  0  0
  6  7  2  0  0  0  0
  6  5  1  0  0  0  0
  7  8  1  0  0  0  0
  8  3  2  0  0  0  0
 10  5  1  0  0  0  0
 11  7  1  0  0  0  0
 12 13  2  0  0  0  0
 12 16  1  0  0  0  0
 13 14  1  0  0  0  0
 14 15  2  0  0  0  0
 14 18  1  0  0  0  0
 15 19  1  0  0  0  0
 16 15  1  0  0  0  0
 17 13  1  0  0  0  0
 19 22  1  0  0  0  0
 19 21  1  0  0  0  0
 19 20  1  0  0  0  0
M  END
>  <minimizedAffinity>
-4.85813427

$$$$

 OpenBabel03272507113D

 22 23  0  0  0  0  0  0  0  0999 V2000
   38.5270   24.9230   33.2040 C   0  0  0  0  0  0  0  0  0  0  0  0
   39.6730   24.9000   32.6880 O   0  0  0  0  0  0  0  0  0  0  0  0
   37.3050   24.8810   32.4180 C   0  0  0  0  0  0  0  0  0  0  0  0
   36.8090   26.0900   31.9640 C   0  0  0  0  0  0  0  0  0  0  0  0
   35.6310   26.0790   31.2040 C   0  0  0  0  0  0  0  0  0  0  0  0
   35.0500   24.8600   30.9620 N   0  0  0  0  0  0  0  0  0  0  0  0
   35.5590   23.7120   31.4170 C   0  0  0  0  0  0  0  0  0  0  0  0
   36.6800   23.7250   32.1400 N   0  0  0  0  0  0  0  0  0  0  0  0
   37.3080   27.0250   32.1860 H   0  0  0  0  0  0  0  0  0  0  0  0
   35.2670   27.0250   30.8660 H   0  0  0  0  0  0  0  0  0  0  0  0
   35.0000   22.8300   31.1520 H   0  0  0  0  0  0  0  0  0  0  0  0
   38.4030   24.9940   34.6380 C   0  0  0  0  0  0  0  0  0  0  0  0
   38.2570   26.1770   35.2920 C   0  0  0  0  0  0  0  0  0  0  0  0
   38.1640   25.9140   36.6620 C   0  0  0  0  0  0  0  0  0  0  0  0
   38.2650   24.5200   36.7550 C   0  0  0  0  0  0  0  0  0  0  0  0
   38.4020   24.0510   35.5380 O   0  0  0  0  0  0  0  0  0  0  0  0
   38.2140   27.1780   34.8840 H   0  0  0  0  0  0  0  0  0  0  0  0
   38.0410   26.7010   37.4250 H   0  0  0  0  0  0  0  0  0  0  0  0
   38.2050   23.8770   38.0820 C   0  0  0  0  0  0  0  0  0  0  0  0
   37.8650   24.8490   39.0070 F   0  0  0  0  0  0  0  0  0  0  0  0
   39.3940   23.3010   38.4450 F   0  0  0  0  0  0  0  0  0  0  0  0
   37.2200   22.9050   38.1060 F   0  0  0  0  0  0  0  0  0  0  0  0
  1 12  1  0  0  0  0
  2  1  2  0  0  0  0
  3  1  1  0  0  0  0
  4  9  1  0  0  0  0
  4  3  2  0  0  0  0
  5  4  1  0  0  0  0
  6  5  2  0  0  0  0
  6  7  1  0  0  0  0
  7  8  2  0  0  0  0
  8  3  1  0  0  0  0
 10  5  1  0  0  0  0
 11  7  1  0  0  0  0
 12 13  2  0  0  0  0
 12 16  1  0  0  0  0
 13 14  1  0  0  0  0
 14 15  2  0  0  0  0
 14 18  1  0  0  0  0
 15 19  1  0  0  0  0
 16 15  1  0  0  0  0
 17 13  1  0  0  0  0
 19 22  1  0  0  0  0
 19 21  1  0  0  0  0
 19 20  1  0  0  0  0
M  END
>  <minimizedAffinity>
-4.85804605

$$$$

 OpenBabel03272507113D

 22 23  0  0  0  0  0  0  0  0999 V2000
   38.0390   26.1550   33.9790 C   0  0  0  0  0  0  0  0  0  0  0  0
   36.9080   26.5480   33.5970 O   0  0  0  0  0  0  0  0  0  0  0  0
   39.2820   26.6340   33.3950 C   0  0  0  0  0  0  0  0  0  0  0  0
   40.3410   26.8430   34.2600 C   0  0  0  0  0  0  0  0  0  0  0  0
   41.5520   27.3050   33.7250 C   0  0  0  0  0  0  0  0  0  0  0  0
   41.6000   27.5170   32.3700 N   0  0  0  0  0  0  0  0  0  0  0  0
   40.5550   27.3040   31.5660 C   0  0  0  0  0  0  0  0  0  0  0  0
   39.4030   26.8640   32.0780 N   0  0  0  0  0  0  0  0  0  0  0  0
   40.2480   26.6600   35.3230 H   0  0  0  0  0  0  0  0  0  0  0  0
   42.3540   27.4600   34.4120 H   0  0  0  0  0  0  0  0  0  0  0  0
   40.7330   27.5120   30.5250 H   0  0  0  0  0  0  0  0  0  0  0  0
   38.1250   25.1880   35.0440 C   0  0  0  0  0  0  0  0  0  0  0  0
   38.2830   23.8590   34.8010 C   0  0  0  0  0  0  0  0  0  0  0  0
   38.3310   23.1900   36.0270 C   0  0  0  0  0  0  0  0  0  0  0  0
   38.1910   24.2060   36.9820 C   0  0  0  0  0  0  0  0  0  0  0  0
   38.0760   25.3420   36.3380 O   0  0  0  0  0  0  0  0  0  0  0  0
   38.3640   23.3490   33.8510 H   0  0  0  0  0  0  0  0  0  0  0  0
   38.4530   22.0980   36.1190 H   0  0  0  0  0  0  0  0  0  0  0  0
   38.1960   23.8560   38.4160 C   0  0  0  0  0  0  0  0  0  0  0  0
   39.4610   23.3920   38.7330 F   0  0  0  0  0  0  0  0  0  0  0  0
   37.2690   22.8980   38.7310 F   0  0  0  0  0  0  0  0  0  0  0  0
   37.9500   24.9780   39.1890 F   0  0  0  0  0  0  0  0  0  0  0  0
  1 12  1  0  0  0  0
  2  1  2  0  0  0  0
  3  1  1  0  0  0  0
  3  4  1  0  0  0  0
  4  9  1  0  0  0  0
  5  4  2  0  0  0  0
  5 10  1  0  0  0  0
  6  5  1  0  0  0  0
  7  8  1  0  0  0  0
  7  6  2  0  0  0  0
  8  3  2  0  0  0  0
 11  7  1  0  0  0  0
 12 16  1  0  0  0  0
 13 12  2  0  0  0  0
 13 14  1  0  0  0  0
 14 18  1  0  0  0  0
 14 15  2  0  0  0  0
 15 19  1  0  0  0  0
 16 15  1  0  0  0  0
 17 13  1  0  0  0  0
 19 21  1  0  0  0  0
 19 20  1  0  0  0  0
 19 22  1  0  0  0  0
M  END
>  <minimizedAffinity>
-4.73484659

$$$$

 OpenBabel03272507113D

 22 23  0  0  0  0  0  0  0  0999 V2000
   38.7070   26.2690   33.7970 C   0  0  0  0  0  0  0  0  0  0  0  0
   39.5960   27.1430   33.6310 O   0  0  0  0  0  0  0  0  0  0  0  0
   37.5590   26.1310   32.9160 C   0  0  0  0  0  0  0  0  0  0  0  0
   36.9310   27.2970   32.5160 C   0  0  0  0  0  0  0  0  0  0  0  0
   35.8210   27.1940   31.6660 C   0  0  0  0  0  0  0  0  0  0  0  0
   35.4340   25.9330   31.2890 N   0  0  0  0  0  0  0  0  0  0  0  0
   36.0650   24.8290   31.6950 C   0  0  0  0  0  0  0  0  0  0  0  0
   37.1220   24.9300   32.5040 N   0  0  0  0  0  0  0  0  0  0  0  0
   37.2790   28.2680   32.8450 H   0  0  0  0  0  0  0  0  0  0  0  0
   35.3530   28.1070   31.3730 H   0  0  0  0  0  0  0  0  0  0  0  0
   35.6550   23.9060   31.3220 H   0  0  0  0  0  0  0  0  0  0  0  0
   38.8180   25.3560   34.9070 C   0  0  0  0  0  0  0  0  0  0  0  0
   39.6780   24.3020   34.8900 C   0  0  0  0  0  0  0  0  0  0  0  0
   39.5520   23.6130   36.1000 C   0  0  0  0  0  0  0  0  0  0  0  0
   38.5760   24.3280   36.8060 C   0  0  0  0  0  0  0  0  0  0  0  0
   38.1940   25.3300   36.0510 O   0  0  0  0  0  0  0  0  0  0  0  0
   40.3630   23.9980   34.1110 H   0  0  0  0  0  0  0  0  0  0  0  0
   40.1370   22.7130   36.3500 H   0  0  0  0  0  0  0  0  0  0  0  0
   38.1810   23.8750   38.1540 C   0  0  0  0  0  0  0  0  0  0  0  0
   37.1920   22.9180   38.0050 F   0  0  0  0  0  0  0  0  0  0  0  0
   37.7110   24.8950   38.9390 F   0  0  0  0  0  0  0  0  0  0  0  0
   39.2530   23.2820   38.8000 F   0  0  0  0  0  0  0  0  0  0  0  0
  1 12  1  0  0  0  0
  2  1  2  0  0  0  0
  3  1  1  0  0  0  0
  4  9  1  0  0  0  0
  4  3  1  0  0  0  0
  5  4  2  0  0  0  0
  6  5  1  0  0  0  0
  6  7  2  0  0  0  0
  7  8  1  0  0  0  0
  8  3  2  0  0  0  0
 10  5  1  0  0  0  0
 11  7  1  0  0  0  0
 12 16  1  0  0  0  0
 13 12  2  0  0  0  0
 13 14  1  0  0  0  0
 14 18  1  0  0  0  0
 14 15  2  0  0  0  0
 15 19  1  0  0  0  0
 16 15  1  0  0  0  0
 17 13  1  0  0  0  0
 19 22  1  0  0  0  0
 19 21  1  0  0  0  0
 20 19  1  0  0  0  0
M  END
>  <minimizedAffinity>
-4.71733856

$$$$

 OpenBabel03272507113D

 22 23  0  0  0  0  0  0  0  0999 V2000
   38.3000   26.3610   35.2940 C   0  0  0  0  0  0  0  0  0  0  0  0
   38.5050   27.4840   35.8210 O   0  0  0  0  0  0  0  0  0  0  0  0
   38.7460   25.1130   35.8910 C   0  0  0  0  0  0  0  0  0  0  0  0
   38.0310   24.6480   36.9800 C   0  0  0  0  0  0  0  0  0  0  0  0
   38.4400   23.4460   37.5760 C   0  0  0  0  0  0  0  0  0  0  0  0
   39.5280   22.8120   37.0310 N   0  0  0  0  0  0  0  0  0  0  0  0
   40.1940   23.2930   35.9770 C   0  0  0  0  0  0  0  0  0  0  0  0
   39.8030   24.4370   35.4120 N   0  0  0  0  0  0  0  0  0  0  0  0
   37.1790   25.1890   37.3700 H   0  0  0  0  0  0  0  0  0  0  0  0
   37.8730   23.1080   38.4150 H   0  0  0  0  0  0  0  0  0  0  0  0
   41.0280   22.6930   35.6550 H   0  0  0  0  0  0  0  0  0  0  0  0
   37.5900   26.2930   34.0410 C   0  0  0  0  0  0  0  0  0  0  0  0
   37.2740   27.4070   33.3290 C   0  0  0  0  0  0  0  0  0  0  0  0
   36.5940   27.0130   32.1730 C   0  0  0  0  0  0  0  0  0  0  0  0
   36.5380   25.6160   32.2640 C   0  0  0  0  0  0  0  0  0  0  0  0
   37.1370   25.2660   33.3770 O   0  0  0  0  0  0  0  0  0  0  0  0
   37.4850   28.4420   33.5600 H   0  0  0  0  0  0  0  0  0  0  0  0
   36.2220   27.7210   31.4150 H   0  0  0  0  0  0  0  0  0  0  0  0
   35.8760   24.8470   31.1920 C   0  0  0  0  0  0  0  0  0  0  0  0
   36.8640   24.3100   30.3850 F   0  0  0  0  0  0  0  0  0  0  0  0
   35.0360   25.6150   30.4300 F   0  0  0  0  0  0  0  0  0  0  0  0
   35.1470   23.7980   31.7270 F   0  0  0  0  0  0  0  0  0  0  0  0
  1  2  2  0  0  0  0
  1  3  1  0  0  0  0
  3  4  1  0  0  0  0
  4  9  1  0  0  0  0
  4  5  2  0  0  0  0
  5 10  1  0  0  0  0
  6  5  1  0  0  0  0
  7  6  2  0  0  0  0
  8  3  2  0  0  0  0
  8  7  1  0  0  0  0
 11  7  1  0  0  0  0
 12  1  1  0  0  0  0
 13 17  1  0  0  0  0
 13 12  2  0  0  0  0
 14 15  2  0  0  0  0
 14 13  1  0  0  0  0
 15 16  1  0  0  0  0
 16 12  1  0  0  0  0
 18 14  1  0  0  0  0
 19 22  1  0  0  0  0
 19 15  1  0  0  0  0
 20 19  1  0  0  0  0
 21 19  1  0  0  0  0
M  END
>  <minimizedAffinity>
-4.69161987

$$$$

 OpenBabel03272507113D

 22 23  0  0  0  0  0  0  0  0999 V2000
   38.4750   23.3680   34.5510 C   0  0  0  0  0  0  0  0  0  0  0  0
   39.1120   24.1130   33.7640 O   0  0  0  0  0  0  0  0  0  0  0  0
   38.6740   23.3840   35.9910 C   0  0  0  0  0  0  0  0  0  0  0  0
   37.7860   24.1370   36.7380 C   0  0  0  0  0  0  0  0  0  0  0  0
   37.9540   24.1700   38.1300 C   0  0  0  0  0  0  0  0  0  0  0  0
   38.9960   23.4480   38.6550 N   0  0  0  0  0  0  0  0  0  0  0  0
   39.8340   22.7320   37.9000 C   0  0  0  0  0  0  0  0  0  0  0  0
   39.6720   22.7020   36.5760 N   0  0  0  0  0  0  0  0  0  0  0  0
   36.9800   24.6890   36.2720 H   0  0  0  0  0  0  0  0  0  0  0  0
   37.2570   24.7590   38.6850 H   0  0  0  0  0  0  0  0  0  0  0  0
   40.6060   22.2140   38.4440 H   0  0  0  0  0  0  0  0  0  0  0  0
   37.4990   22.4520   34.0160 C   0  0  0  0  0  0  0  0  0  0  0  0
   36.8940   21.5110   34.7890 C   0  0  0  0  0  0  0  0  0  0  0  0
   36.0080   20.7860   33.9870 C   0  0  0  0  0  0  0  0  0  0  0  0
   36.1400   21.3620   32.7170 C   0  0  0  0  0  0  0  0  0  0  0  0
   37.0260   22.3250   32.8080 O   0  0  0  0  0  0  0  0  0  0  0  0
   37.0290   21.3090   35.8430 H   0  0  0  0  0  0  0  0  0  0  0  0
   35.3850   19.9580   34.3640 H   0  0  0  0  0  0  0  0  0  0  0  0
   35.3370   20.8350   31.5960 C   0  0  0  0  0  0  0  0  0  0  0  0
   36.0170   19.7560   31.0600 F   0  0  0  0  0  0  0  0  0  0  0  0
   35.1200   21.7670   30.6160 F   0  0  0  0  0  0  0  0  0  0  0  0
   34.1100   20.3820   32.0500 F   0  0  0  0  0  0  0  0  0  0  0  0
  1  3  1  0  0  0  0
  2  1  2  0  0  0  0
  3  8  2  0  0  0  0
  3  4  1  0  0  0  0
  4  5  2  0  0  0  0
  5  6  1  0  0  0  0
  5 10  1  0  0  0  0
  7 11  1  0  0  0  0
  7  6  2  0  0  0  0
  8  7  1  0  0  0  0
  9  4  1  0  0  0  0
 12  1  1  0  0  0  0
 12 13  2  0  0  0  0
 13 17  1  0  0  0  0
 14 18  1  0  0  0  0
 14 13  1  0  0  0  0
 15 16  1  0  0  0  0
 15 14  2  0  0  0  0
 16 12  1  0  0  0  0
 19 22  1  0  0  0  0
 19 15  1  0  0  0  0
 20 19  1  0  0  0  0
 21 19  1  0  0  0  0
M  END
>  <minimizedAffinity>
-4.6544733

$$$$

 OpenBabel03272507113D

 22 23  0  0  0  0  0  0  0  0999 V2000
   37.6920   26.8850   34.5440 C   0  0  0  0  0  0  0  0  0  0  0  0
   37.2230   27.9280   35.0660 O   0  0  0  0  0  0  0  0  0  0  0  0
   38.0160   26.7850   33.1300 C   0  0  0  0  0  0  0  0  0  0  0  0
   39.3090   27.1110   32.7580 C   0  0  0  0  0  0  0  0  0  0  0  0
   39.6500   27.0230   31.4010 C   0  0  0  0  0  0  0  0  0  0  0  0
   38.6690   26.6160   30.5320 N   0  0  0  0  0  0  0  0  0  0  0  0
   37.4310   26.3090   30.9280 C   0  0  0  0  0  0  0  0  0  0  0  0
   37.1090   26.3930   32.2210 N   0  0  0  0  0  0  0  0  0  0  0  0
   40.0440   27.4270   33.4870 H   0  0  0  0  0  0  0  0  0  0  0  0
   40.6520   27.2810   31.1390 H   0  0  0  0  0  0  0  0  0  0  0  0
   36.7630   26.0050   30.1400 H   0  0  0  0  0  0  0  0  0  0  0  0
   37.9260   25.7290   35.3720 C   0  0  0  0  0  0  0  0  0  0  0  0
   38.1250   24.4910   34.8430 C   0  0  0  0  0  0  0  0  0  0  0  0
   38.3220   23.5910   35.8940 C   0  0  0  0  0  0  0  0  0  0  0  0
   38.2240   24.3780   37.0490 C   0  0  0  0  0  0  0  0  0  0  0  0
   37.9930   25.6120   36.6680 O   0  0  0  0  0  0  0  0  0  0  0  0
   38.1410   24.1920   33.8050 H   0  0  0  0  0  0  0  0  0  0  0  0
   38.5060   22.5140   35.7450 H   0  0  0  0  0  0  0  0  0  0  0  0
   38.3830   23.7450   38.3720 C   0  0  0  0  0  0  0  0  0  0  0  0
   38.3550   24.7480   39.3260 F   0  0  0  0  0  0  0  0  0  0  0  0
   39.5530   23.0430   38.4870 F   0  0  0  0  0  0  0  0  0  0  0  0
   37.3280   22.8860   38.6280 F   0  0  0  0  0  0  0  0  0  0  0  0
  1  2  2  0  0  0  0
  1 12  1  0  0  0  0
  3  1  1  0  0  0  0
  4  3  1  0  0  0  0
  4  9  1  0  0  0  0
  5  4  2  0  0  0  0
  6  7  2  0  0  0  0
  6  5  1  0  0  0  0
  7  8  1  0  0  0  0
  8  3  2  0  0  0  0
 10  5  1  0  0  0  0
 11  7  1  0  0  0  0
 12 16  1  0  0  0  0
 13 12  2  0  0  0  0
 13 14  1  0  0  0  0
 14 15  2  0  0  0  0
 15 19  1  0  0  0  0
 16 15  1  0  0  0  0
 17 13  1  0  0  0  0
 18 14  1  0  0  0  0
 19 21  1  0  0  0  0
 19 22  1  0  0  0  0
 19 20  1  0  0  0  0
M  END
>  <minimizedAffinity>
-4.60815811

$$$$

 OpenBabel03272507113D

 22 23  0  0  0  0  0  0  0  0999 V2000
   38.8130   23.7270   34.3410 C   0  0  0  0  0  0  0  0  0  0  0  0
   39.5650   24.5020   33.6990 O   0  0  0  0  0  0  0  0  0  0  0  0
   38.8950   23.5580   35.7830 C   0  0  0  0  0  0  0  0  0  0  0  0
   37.8600   24.0820   36.5360 C   0  0  0  0  0  0  0  0  0  0  0  0
   37.9130   23.9340   37.9300 C   0  0  0  0  0  0  0  0  0  0  0  0
   38.9980   23.2740   38.4500 N   0  0  0  0  0  0  0  0  0  0  0  0
   39.9800   22.7810   37.6900 C   0  0  0  0  0  0  0  0  0  0  0  0
   39.9260   22.9230   36.3640 N   0  0  0  0  0  0  0  0  0  0  0  0
   37.0260   24.5950   36.0730 H   0  0  0  0  0  0  0  0  0  0  0  0
   37.1030   24.3470   38.4890 H   0  0  0  0  0  0  0  0  0  0  0  0
   40.7690   22.2870   38.2310 H   0  0  0  0  0  0  0  0  0  0  0  0
   37.8170   22.9650   33.6300 C   0  0  0  0  0  0  0  0  0  0  0  0
   37.2240   23.4310   32.4980 C   0  0  0  0  0  0  0  0  0  0  0  0
   36.3130   22.4700   32.0510 C   0  0  0  0  0  0  0  0  0  0  0  0
   36.4160   21.4330   32.9870 C   0  0  0  0  0  0  0  0  0  0  0  0
   37.3100   21.7900   33.8780 O   0  0  0  0  0  0  0  0  0  0  0  0
   37.3860   24.3690   31.9840 H   0  0  0  0  0  0  0  0  0  0  0  0
   35.6940   22.5940   31.1480 H   0  0  0  0  0  0  0  0  0  0  0  0
   35.5800   20.2280   32.8270 C   0  0  0  0  0  0  0  0  0  0  0  0
   34.3490   20.6300   32.3380 F   0  0  0  0  0  0  0  0  0  0  0  0
   35.4010   19.5470   34.0020 F   0  0  0  0  0  0  0  0  0  0  0  0
   36.1430   19.3660   31.9010 F   0  0  0  0  0  0  0  0  0  0  0  0
  1  3  1  0  0  0  0
  2  1  2  0  0  0  0
  3  8  2  0  0  0  0
  3  4  1  0  0  0  0
  4  5  2  0  0  0  0
  5  6  1  0  0  0  0
  5 10  1  0  0  0  0
  7 11  1  0  0  0  0
  7  6  2  0  0  0  0
  8  7  1  0  0  0  0
  9  4  1  0  0  0  0
 12 16  1  0  0  0  0
 12  1  1  0  0  0  0
 13 12  2  0  0  0  0
 14 13  1  0  0  0  0
 14 15  2  0  0  0  0
 15 16  1  0  0  0  0
 17 13  1  0  0  0  0
 18 14  1  0  0  0  0
 19 15  1  0  0  0  0
 19 21  1  0  0  0  0
 20 19  1  0  0  0  0
 22 19  1  0  0  0  0
M  END
>  <minimizedAffinity>
-4.54385519

$$$$
