
 OpenBabel03272506473D

 37 39  0  0  1  0  0  0  0  0999 V2000
   32.1130   28.5770   47.4470 C   0  0  2  0  0  0  0  0  0  0  0  0
   33.3670   28.2290   48.1940 C   0  0  1  0  0  0  0  0  0  0  0  0
   33.5930   26.8940   48.0410 O   0  0  0  0  0  0  0  0  0  0  0  0
   32.7660   26.4020   47.0370 C   0  0  0  0  0  0  0  0  0  0  0  0
   32.2600   27.5850   46.2510 C   0  0  1  0  0  0  0  0  0  0  0  0
   31.1790   28.3710   47.9610 H   0  0  0  0  0  0  0  0  0  0  0  0
   33.3000   28.5720   49.2420 H   0  0  0  0  0  0  0  0  0  0  0  0
   32.0210   25.7900   47.5200 H   0  0  0  0  0  0  0  0  0  0  0  0
   33.3620   25.7070   46.3880 H   0  0  0  0  0  0  0  0  0  0  0  0
   32.9710   28.0290   45.5650 H   0  0  0  0  0  0  0  0  0  0  0  0
   32.1780   29.8950   46.9520 O   0  0  0  0  0  0  0  0  0  0  0  0
   31.3820   30.4110   47.1600 H   0  0  0  0  0  0  0  0  0  0  0  0
   34.7550   29.1350   47.3980 S   0  0  0  0  0  0  0  0  0  0  0  0
   37.0330   29.3150   50.6290 C   0  0  0  0  0  0  0  0  0  0  0  0
   37.5260   30.6250   50.6620 C   0  0  0  0  0  0  0  0  0  0  0  0
   37.1260   31.4890   49.6270 C   0  0  0  0  0  0  0  0  0  0  0  0
   36.2980   31.0140   48.6650 N   0  0  0  0  0  0  0  0  0  0  0  0
   35.8490   29.7380   48.6800 C   0  0  0  0  0  0  0  0  0  0  0  0
   36.2100   28.8710   49.6610 N   0  0  0  0  0  0  0  0  0  0  0  0
   37.3270   28.6360   51.4140 H   0  0  0  0  0  0  0  0  0  0  0  0
   38.1880   30.9770   51.4450 H   0  0  0  0  0  0  0  0  0  0  0  0
   37.4590   32.5050   49.5790 H   0  0  0  0  0  0  0  0  0  0  0  0
   31.0340   27.2740   45.7150 O   0  0  0  0  0  0  0  0  0  0  0  0
   29.5740   29.6840   44.8590 Cl  0  0  0  0  0  0  0  0  0  0  0  0
   29.0870   28.4670   46.0150 C   0  0  0  0  0  0  0  0  0  0  0  0
   29.8590   27.3710   46.3260 C   0  0  0  0  0  0  0  0  0  0  0  0
   29.3530   26.4530   47.2500 C   0  0  0  0  0  0  0  0  0  0  0  0
   28.1150   26.6470   47.8270 C   0  0  0  0  0  0  0  0  0  0  0  0
   27.3320   27.7480   47.5200 C   0  0  0  0  0  0  0  0  0  0  0  0
   27.8430   28.6600   46.5990 C   0  0  0  0  0  0  0  0  0  0  0  0
   29.8780   25.5640   47.5520 H   0  0  0  0  0  0  0  0  0  0  0  0
   27.6660   25.9790   48.5440 H   0  0  0  0  0  0  0  0  0  0  0  0
   26.3620   27.9110   47.9640 H   0  0  0  0  0  0  0  0  0  0  0  0
   27.0100   29.8440   46.2630 C   0  0  0  0  0  0  0  0  0  0  0  0
   26.4790   29.7590   44.9900 F   0  0  0  0  0  0  0  0  0  0  0  0
   27.8580   30.9580   46.3100 F   0  0  0  0  0  0  0  0  0  0  0  0
   26.0460   30.0790   47.2040 F   0  0  0  0  0  0  0  0  0  0  0  0
  1  6  1  1  0  0  0
  1  2  1  0  0  0  0
  2  7  1  1  0  0  0
  3  2  1  0  0  0  0
  4  8  1  0  0  0  0
  4  3  1  0  0  0  0
  5 10  1  6  0  0  0
  5  4  1  0  0  0  0
  5  1  1  0  0  0  0
  9  4  1  0  0  0  0
 11 12  1  0  0  0  0
 11  1  1  0  0  0  0
 13  2  1  0  0  0  0
 13 18  1  0  0  0  0
 14 15  1  0  0  0  0
 14 20  1  0  0  0  0
 15 21  1  0  0  0  0
 16 15  2  0  0  0  0
 17 18  2  0  0  0  0
 17 16  1  0  0  0  0
 18 19  1  0  0  0  0
 19 14  2  0  0  0  0
 22 16  1  0  0  0  0
 23  5  1  0  0  0  0
 23 26  1  0  0  0  0
 24 25  1  0  0  0  0
 25 26  2  0  0  0  0
 25 30  1  0  0  0  0
 26 27  1  0  0  0  0
 27 31  1  0  0  0  0
 27 28  2  0  0  0  0
 28 32  1  0  0  0  0
 29 28  1  0  0  0  0
 29 33  1  0  0  0  0
 30 29  2  0  0  0  0
 34 36  1  0  0  0  0
 34 30  1  0  0  0  0
 34 37  1  0  0  0  0
 35 34  1  0  0  0  0
M  END
>  <minimizedAffinity>
-4.81910896

>  <minimizedRMSD>
0.711521149

$$$$
