
 OpenBabel03272506473D

 37 39  0  0  1  0  0  0  0  0999 V2000
   32.2920   28.5570   47.4450 C   0  0  2  0  0  0  0  0  0  0  0  0
   33.5520   28.2930   48.2150 C   0  0  1  0  0  0  0  0  0  0  0  0
   33.8860   26.9830   48.0430 O   0  0  0  0  0  0  0  0  0  0  0  0
   33.1240   26.4480   47.0100 C   0  0  0  0  0  0  0  0  0  0  0  0
   32.5440   27.6040   46.2340 C   0  0  1  0  0  0  0  0  0  0  0  0
   31.3650   28.2680   47.9320 H   0  0  0  0  0  0  0  0  0  0  0  0
   33.4340   28.6090   49.2680 H   0  0  0  0  0  0  0  0  0  0  0  0
   32.4180   25.7710   47.4630 H   0  0  0  0  0  0  0  0  0  0  0  0
   33.7870   25.8160   46.3630 H   0  0  0  0  0  0  0  0  0  0  0  0
   33.2330   28.1160   45.5740 H   0  0  0  0  0  0  0  0  0  0  0  0
   32.2640   29.8860   46.9760 O   0  0  0  0  0  0  0  0  0  0  0  0
   31.4260   30.3340   47.1740 H   0  0  0  0  0  0  0  0  0  0  0  0
   34.8820   29.3210   47.4710 S   0  0  0  0  0  0  0  0  0  0  0  0
   37.1770   29.3470   50.6940 C   0  0  0  0  0  0  0  0  0  0  0  0
   37.6620   30.6560   50.7930 C   0  0  0  0  0  0  0  0  0  0  0  0
   37.2530   31.5700   49.8060 C   0  0  0  0  0  0  0  0  0  0  0  0
   36.4210   31.1410   48.8250 N   0  0  0  0  0  0  0  0  0  0  0  0
   35.9800   29.8630   48.7760 C   0  0  0  0  0  0  0  0  0  0  0  0
   36.3510   28.9480   49.7090 N   0  0  0  0  0  0  0  0  0  0  0  0
   37.4790   28.6300   51.4410 H   0  0  0  0  0  0  0  0  0  0  0  0
   38.3270   30.9710   51.5890 H   0  0  0  0  0  0  0  0  0  0  0  0
   37.5790   32.5890   49.8090 H   0  0  0  0  0  0  0  0  0  0  0  0
   31.3590   27.2090   45.6630 O   0  0  0  0  0  0  0  0  0  0  0  0
   29.8740   29.5250   44.6110 Cl  0  0  0  0  0  0  0  0  0  0  0  0
   29.3650   28.3540   45.8040 C   0  0  0  0  0  0  0  0  0  0  0  0
   30.1520   27.2990   46.2090 C   0  0  0  0  0  0  0  0  0  0  0  0
   29.6260   26.4140   47.1530 C   0  0  0  0  0  0  0  0  0  0  0  0
   28.3550   26.5970   47.6570 C   0  0  0  0  0  0  0  0  0  0  0  0
   27.5570   27.6550   47.2550 C   0  0  0  0  0  0  0  0  0  0  0  0
   28.0870   28.5350   46.3140 C   0  0  0  0  0  0  0  0  0  0  0  0
   30.1610   25.5590   47.5270 H   0  0  0  0  0  0  0  0  0  0  0  0
   27.8900   25.9530   48.3860 H   0  0  0  0  0  0  0  0  0  0  0  0
   26.5610   27.8100   47.6410 H   0  0  0  0  0  0  0  0  0  0  0  0
   27.2380   29.6740   45.8760 C   0  0  0  0  0  0  0  0  0  0  0  0
   26.8320   29.5400   44.5610 F   0  0  0  0  0  0  0  0  0  0  0  0
   28.0310   30.8260   45.9720 F   0  0  0  0  0  0  0  0  0  0  0  0
   26.1830   29.8840   46.7190 F   0  0  0  0  0  0  0  0  0  0  0  0
  1  6  1  1  0  0  0
  1  2  1  0  0  0  0
  2  7  1  1  0  0  0
  3  2  1  0  0  0  0
  4  8  1  0  0  0  0
  4  3  1  0  0  0  0
  5 10  1  6  0  0  0
  5  4  1  0  0  0  0
  5  1  1  0  0  0  0
  9  4  1  0  0  0  0
 11 12  1  0  0  0  0
 11  1  1  0  0  0  0
 13  2  1  0  0  0  0
 13 18  1  0  0  0  0
 14 15  1  0  0  0  0
 14 20  1  0  0  0  0
 15 21  1  0  0  0  0
 16 22  1  0  0  0  0
 16 15  2  0  0  0  0
 17 16  1  0  0  0  0
 18 17  2  0  0  0  0
 18 19  1  0  0  0  0
 19 14  2  0  0  0  0
 23 26  1  0  0  0  0
 23  5  1  0  0  0  0
 24 25  1  0  0  0  0
 25 26  2  0  0  0  0
 25 30  1  0  0  0  0
 26 27  1  0  0  0  0
 27 31  1  0  0  0  0
 27 28  2  0  0  0  0
 28 32  1  0  0  0  0
 29 33  1  0  0  0  0
 29 28  1  0  0  0  0
 30 29  2  0  0  0  0
 34 36  1  0  0  0  0
 34 30  1  0  0  0  0
 34 37  1  0  0  0  0
 35 34  1  0  0  0  0
M  END
>  <minimizedAffinity>
-4.76275682

>  <minimizedRMSD>
0.363348901

$$$$
