
 OpenBabel03272502523D

 22 23  0  0  0  0  0  0  0  0999 V2000
   35.9850   30.3330   48.5670 C   0  0  0  0  0  0  0  0  0  0  0  0
   36.0140   29.3640   49.5650 C   0  0  0  0  0  0  0  0  0  0  0  0
   35.0330   28.3780   49.6100 C   0  0  0  0  0  0  0  0  0  0  0  0
   34.0700   28.4300   48.6330 C   0  0  0  0  0  0  0  0  0  0  0  0
   34.0310   29.3920   47.6330 C   0  0  0  0  0  0  0  0  0  0  0  0
   35.0190   30.3290   47.6440 N   0  0  0  0  0  0  0  0  0  0  0  0
   36.8110   29.3980   50.2960 H   0  0  0  0  0  0  0  0  0  0  0  0
   35.0500   27.6230   50.3830 H   0  0  0  0  0  0  0  0  0  0  0  0
   33.3080   27.6480   48.6850 H   0  0  0  0  0  0  0  0  0  0  0  0
   38.1350   33.1340   49.5600 C   0  0  0  0  0  0  0  0  0  0  0  0
   39.0210   33.2500   48.4790 C   0  0  0  0  0  0  0  0  0  0  0  0
   38.8670   32.3540   47.4120 C   0  0  0  0  0  0  0  0  0  0  0  0
   37.8640   31.4280   47.4930 N   0  0  0  0  0  0  0  0  0  0  0  0
   37.0300   31.3480   48.5530 C   0  0  0  0  0  0  0  0  0  0  0  0
   37.1830   32.2020   49.5630 N   0  0  0  0  0  0  0  0  0  0  0  0
   38.2280   33.8100   50.3990 H   0  0  0  0  0  0  0  0  0  0  0  0
   39.8050   33.9980   48.4500 H   0  0  0  0  0  0  0  0  0  0  0  0
   39.5190   32.3910   46.5470 H   0  0  0  0  0  0  0  0  0  0  0  0
   32.9550   29.3440   46.6470 C   0  0  0  0  0  0  0  0  0  0  0  0
   32.4270   30.6020   46.3340 F   0  0  0  0  0  0  0  0  0  0  0  0
   31.8960   28.6630   47.2620 F   0  0  0  0  0  0  0  0  0  0  0  0
   33.2880   28.7440   45.4720 F   0  0  0  0  0  0  0  0  0  0  0  0
  1  2  1  0  0  0  0
  2  3  2  0  0  0  0
  2  7  1  0  0  0  0
  3  8  1  0  0  0  0
  4  9  1  0  0  0  0
  4  3  1  0  0  0  0
  5  6  1  0  0  0  0
  5  4  2  0  0  0  0
  6  1  2  0  0  0  0
 10 15  1  0  0  0  0
 10 16  1  0  0  0  0
 11 10  2  0  0  0  0
 12 13  2  0  0  0  0
 12 11  1  0  0  0  0
 13 14  1  0  0  0  0
 14  1  1  0  0  0  0
 14 15  2  0  0  0  0
 17 11  1  0  0  0  0
 18 12  1  0  0  0  0
 19 21  1  0  0  0  0
 19  5  1  0  0  0  0
 20 19  1  0  0  0  0
 22 19  1  0  0  0  0
M  END
>  <minimizedAffinity>
-5.10086966

>  <minimizedRMSD>
0.146770135

$$$$
