
 OpenBabel03272502143D

 37 39  0  0  1  0  0  0  0  0999 V2000
   38.5250   32.5190   48.1650 C   0  0  0  0  0  0  0  0  0  0  0  0
   39.1400   33.5950   48.7960 C   0  0  0  0  0  0  0  0  0  0  0  0
   40.0680   34.4400   48.1620 C   0  0  0  0  0  0  0  0  0  0  0  0
   40.3570   34.1650   46.8560 N   0  0  0  0  0  0  0  0  0  0  0  0
   39.7650   33.1310   46.2540 C   0  0  0  0  0  0  0  0  0  0  0  0
   38.8850   32.3390   46.8790 N   0  0  0  0  0  0  0  0  0  0  0  0
   38.8910   33.7870   49.8310 H   0  0  0  0  0  0  0  0  0  0  0  0
   40.5080   35.2530   48.7010 H   0  0  0  0  0  0  0  0  0  0  0  0
   40.0930   32.8530   44.8460 C   0  0  2  0  0  0  0  0  0  0  0  0
   38.9590   33.0440   43.8850 C   0  0  0  0  0  0  0  0  0  0  0  0
   39.3360   32.1180   42.7180 C   0  0  0  0  0  0  0  0  0  0  0  0
   40.5090   31.2970   43.2040 C   0  0  0  0  0  0  0  0  0  0  0  0
   40.3090   31.3510   44.7080 C   0  0  1  0  0  0  0  0  0  0  0  0
   40.9920   33.4010   44.5080 H   0  0  0  0  0  0  0  0  0  0  0  0
   38.8790   34.0880   43.5280 H   0  0  0  0  0  0  0  0  0  0  0  0
   38.0190   32.6990   44.3670 H   0  0  0  0  0  0  0  0  0  0  0  0
   38.4890   31.4330   42.5470 H   0  0  0  0  0  0  0  0  0  0  0  0
   39.5660   32.6840   41.8060 H   0  0  0  0  0  0  0  0  0  0  0  0
   40.5200   30.2750   42.8250 H   0  0  0  0  0  0  0  0  0  0  0  0
   41.4290   31.8740   42.9480 H   0  0  0  0  0  0  0  0  0  0  0  0
   39.3770   30.8600   44.9880 H   0  0  0  0  0  0  0  0  0  0  0  0
   41.4630   30.8260   45.4910 C   0  0  0  0  0  0  0  0  0  0  0  0
   41.1350   30.6090   46.5150 H   0  0  0  0  0  0  0  0  0  0  0  0
   42.2760   31.5820   45.4570 H   0  0  0  0  0  0  0  0  0  0  0  0
   41.8640   29.9210   45.0210 H   0  0  0  0  0  0  0  0  0  0  0  0
   37.5830   31.3950   50.1980 C   0  0  0  0  0  0  0  0  0  0  0  0
   37.5870   31.6760   48.8380 C   0  0  0  0  0  0  0  0  0  0  0  0
   36.5910   31.0850   48.0860 C   0  0  0  0  0  0  0  0  0  0  0  0
   35.6790   30.2790   48.6890 N   0  0  0  0  0  0  0  0  0  0  0  0
   35.7230   30.0390   50.0190 C   0  0  0  0  0  0  0  0  0  0  0  0
   36.6750   30.6010   50.7560 N   0  0  0  0  0  0  0  0  0  0  0  0
   38.3590   31.8520   50.8050 H   0  0  0  0  0  0  0  0  0  0  0  0
   36.4640   31.2080   47.0170 H   0  0  0  0  0  0  0  0  0  0  0  0
   34.6980   29.1470   50.6250 C   0  0  0  0  0  0  0  0  0  0  0  0
   34.5450   27.9870   49.9020 F   0  0  0  0  0  0  0  0  0  0  0  0
   35.1240   28.8420   51.9040 F   0  0  0  0  0  0  0  0  0  0  0  0
   33.4560   29.7540   50.6590 F   0  0  0  0  0  0  0  0  0  0  0  0
  1  2  1  0  0  0  0
  1 27  1  0  0  0  0
  2  7  1  0  0  0  0
  3  8  1  0  0  0  0
  3  2  2  0  0  0  0
  4  3  1  0  0  0  0
  5  4  2  0  0  0  0
  5  6  1  0  0  0  0
  6  1  2  0  0  0  0
  9 14  1  6  0  0  0
  9  5  1  0  0  0  0
 10 16  1  0  0  0  0
 10  9  1  0  0  0  0
 11 12  1  0  0  0  0
 11 10  1  0  0  0  0
 12 13  1  0  0  0  0
 13  9  1  0  0  0  0
 13 21  1  1  0  0  0
 13 22  1  0  0  0  0
 15 10  1  0  0  0  0
 17 11  1  0  0  0  0
 18 11  1  0  0  0  0
 19 12  1  0  0  0  0
 20 12  1  0  0  0  0
 22 23  1  0  0  0  0
 24 22  1  0  0  0  0
 25 22  1  0  0  0  0
 26 31  1  0  0  0  0
 26 32  1  0  0  0  0
 27 26  2  0  0  0  0
 28 29  2  0  0  0  0
 28 27  1  0  0  0  0
 29 30  1  0  0  0  0
 30 34  1  0  0  0  0
 30 31  2  0  0  0  0
 33 28  1  0  0  0  0
 34 37  1  0  0  0  0
 34 36  1  0  0  0  0
 35 34  1  0  0  0  0
M  END
>  <minimizedAffinity>
-6.02244711

>  <minimizedRMSD>
0.940519214

$$$$
