
 OpenBabel03262523173D

 34 36  0  0  0  0  0  0  0  0999 V2000
   37.0070   27.2010   33.7410 C   0  0  0  0  0  0  0  0  0  0  0  0
   36.7060   27.0780   32.3990 C   0  0  0  0  0  0  0  0  0  0  0  0
   35.8800   28.0620   31.9160 C   0  0  0  0  0  0  0  0  0  0  0  0
   35.3940   29.0850   32.6960 C   0  0  0  0  0  0  0  0  0  0  0  0
   35.7420   29.1310   34.0190 C   0  0  0  0  0  0  0  0  0  0  0  0
   36.5510   28.1820   34.5290 N   0  0  0  0  0  0  0  0  0  0  0  0
   37.0830   26.2770   31.7730 H   0  0  0  0  0  0  0  0  0  0  0  0
   35.6080   28.0130   30.8530 H   0  0  0  0  0  0  0  0  0  0  0  0
   34.7570   29.8040   32.2050 H   0  0  0  0  0  0  0  0  0  0  0  0
   32.7560   29.2200   34.4920 Cl  0  0  0  0  0  0  0  0  0  0  0  0
   33.9200   30.3100   35.1710 C   0  0  0  0  0  0  0  0  0  0  0  0
   35.2580   30.1810   34.8920 C   0  0  0  0  0  0  0  0  0  0  0  0
   36.0690   31.1250   35.5080 C   0  0  0  0  0  0  0  0  0  0  0  0
   35.6200   32.1170   36.3320 C   0  0  0  0  0  0  0  0  0  0  0  0
   34.2690   32.2150   36.5920 C   0  0  0  0  0  0  0  0  0  0  0  0
   33.6340   33.4620   37.6380 Cl  0  0  0  0  0  0  0  0  0  0  0  0
   33.4210   31.3010   36.0020 C   0  0  0  0  0  0  0  0  0  0  0  0
   37.1350   31.0780   35.3270 H   0  0  0  0  0  0  0  0  0  0  0  0
   36.3120   32.8140   36.7750 H   0  0  0  0  0  0  0  0  0  0  0  0
   32.3680   31.4070   36.2270 H   0  0  0  0  0  0  0  0  0  0  0  0
   39.7810   24.8480   34.2880 C   0  0  0  0  0  0  0  0  0  0  0  0
   39.5110   24.3370   35.5710 C   0  0  0  0  0  0  0  0  0  0  0  0
   38.3780   24.8130   36.2190 C   0  0  0  0  0  0  0  0  0  0  0  0
   37.6240   25.7250   35.5790 N   0  0  0  0  0  0  0  0  0  0  0  0
   37.8850   26.2090   34.3590 C   0  0  0  0  0  0  0  0  0  0  0  0
   38.9770   25.7540   33.7260 N   0  0  0  0  0  0  0  0  0  0  0  0
   40.1930   23.6070   35.9800 H   0  0  0  0  0  0  0  0  0  0  0  0
   38.0880   24.2780   37.5700 C   0  0  0  0  0  0  0  0  0  0  0  0
   37.9580   25.2900   38.5180 F   0  0  0  0  0  0  0  0  0  0  0  0
   39.1440   23.4830   38.0280 F   0  0  0  0  0  0  0  0  0  0  0  0
   36.9860   23.4580   37.5800 F   0  0  0  0  0  0  0  0  0  0  0  0
   40.9200   24.4330   33.5200 N   0  0  0  0  0  0  0  0  0  0  0  0
   40.6200   23.9970   32.5980 H   0  0  0  0  0  0  0  0  0  0  0  0
   41.7500   24.6940   34.1220 H   0  0  0  0  0  0  0  0  0  0  0  0
  1 25  1  0  0  0  0
  1  6  1  0  0  0  0
  2  1  2  0  0  0  0
  3  2  1  0  0  0  0
  3  4  2  0  0  0  0
  4  5  1  0  0  0  0
  5  6  2  0  0  0  0
  5 12  1  0  0  0  0
  7  2  1  0  0  0  0
  8  3  1  0  0  0  0
  9  4  1  0  0  0  0
 10 11  1  0  0  0  0
 11 17  1  0  0  0  0
 12 11  2  0  0  0  0
 12 13  1  0  0  0  0
 13 14  2  0  0  0  0
 14 15  1  0  0  0  0
 14 19  1  0  0  0  0
 15 16  1  0  0  0  0
 17 20  1  0  0  0  0
 17 15  2  0  0  0  0
 18 13  1  0  0  0  0
 21 22  1  0  0  0  0
 22 27  1  0  0  0  0
 22 23  2  0  0  0  0
 23 28  1  0  0  0  0
 24 23  1  0  0  0  0
 25 24  2  0  0  0  0
 26 21  2  0  0  0  0
 26 25  1  0  0  0  0
 28 31  1  0  0  0  0
 28 30  1  0  0  0  0
 28 29  1  0  0  0  0
 32 34  1  0  0  0  0
 32 21  1  0  0  0  0
 33 32  1  0  0  0  0
M  END
>  <minimizedAffinity>
-6.64813614

$$$$

 OpenBabel03262523173D

 34 36  0  0  0  0  0  0  0  0999 V2000
   36.8950   27.3410   33.1360 C   0  0  0  0  0  0  0  0  0  0  0  0
   37.0650   27.6320   31.7970 C   0  0  0  0  0  0  0  0  0  0  0  0
   36.6040   28.8710   31.4280 C   0  0  0  0  0  0  0  0  0  0  0  0
   36.0240   29.7510   32.3110 C   0  0  0  0  0  0  0  0  0  0  0  0
   35.8940   29.3810   33.6230 C   0  0  0  0  0  0  0  0  0  0  0  0
   36.3340   28.1720   34.0220 N   0  0  0  0  0  0  0  0  0  0  0  0
   37.5210   26.9480   31.0900 H   0  0  0  0  0  0  0  0  0  0  0  0
   36.7160   29.1540   30.3730 H   0  0  0  0  0  0  0  0  0  0  0  0
   35.7050   30.6990   31.9080 H   0  0  0  0  0  0  0  0  0  0  0  0
   32.8740   29.3290   33.7930 Cl  0  0  0  0  0  0  0  0  0  0  0  0
   33.9240   30.3160   34.7570 C   0  0  0  0  0  0  0  0  0  0  0  0
   35.2870   30.2630   34.6000 C   0  0  0  0  0  0  0  0  0  0  0  0
   35.9980   31.1080   35.4420 C   0  0  0  0  0  0  0  0  0  0  0  0
   35.4330   31.9410   36.3640 C   0  0  0  0  0  0  0  0  0  0  0  0
   34.0600   31.9670   36.4960 C   0  0  0  0  0  0  0  0  0  0  0  0
   33.2790   33.0110   37.6590 Cl  0  0  0  0  0  0  0  0  0  0  0  0
   33.3090   31.1450   35.6810 C   0  0  0  0  0  0  0  0  0  0  0  0
   37.0770   31.1140   35.3660 H   0  0  0  0  0  0  0  0  0  0  0  0
   36.0520   32.5690   36.9840 H   0  0  0  0  0  0  0  0  0  0  0  0
   32.2360   31.1920   35.8110 H   0  0  0  0  0  0  0  0  0  0  0  0
   38.0240   23.8420   33.2640 C   0  0  0  0  0  0  0  0  0  0  0  0
   38.2280   23.6280   34.6390 C   0  0  0  0  0  0  0  0  0  0  0  0
   37.9710   24.6930   35.4930 C   0  0  0  0  0  0  0  0  0  0  0  0
   37.5480   25.8480   34.9480 N   0  0  0  0  0  0  0  0  0  0  0  0
   37.3550   26.0490   33.6390 C   0  0  0  0  0  0  0  0  0  0  0  0
   37.6010   25.0240   32.8080 N   0  0  0  0  0  0  0  0  0  0  0  0
   38.5700   22.6540   34.9560 H   0  0  0  0  0  0  0  0  0  0  0  0
   38.1830   24.4740   36.9430 C   0  0  0  0  0  0  0  0  0  0  0  0
   39.3480   23.7530   37.1990 F   0  0  0  0  0  0  0  0  0  0  0  0
   37.1500   23.7020   37.4870 F   0  0  0  0  0  0  0  0  0  0  0  0
   38.1710   25.6490   37.6560 F   0  0  0  0  0  0  0  0  0  0  0  0
   38.2540   22.8180   32.2840 N   0  0  0  0  0  0  0  0  0  0  0  0
   37.3650   22.6010   31.7440 H   0  0  0  0  0  0  0  0  0  0  0  0
   39.2780   22.5770   32.3960 H   0  0  0  0  0  0  0  0  0  0  0  0
  1 25  1  0  0  0  0
  1  6  1  0  0  0  0
  2  1  2  0  0  0  0
  3  2  1  0  0  0  0
  3  4  2  0  0  0  0
  4  5  1  0  0  0  0
  5  6  2  0  0  0  0
  5 12  1  0  0  0  0
  7  2  1  0  0  0  0
  8  3  1  0  0  0  0
  9  4  1  0  0  0  0
 10 11  1  0  0  0  0
 11 17  1  0  0  0  0
 12 11  2  0  0  0  0
 12 13  1  0  0  0  0
 13 14  2  0  0  0  0
 14 15  1  0  0  0  0
 14 19  1  0  0  0  0
 15 16  1  0  0  0  0
 17 20  1  0  0  0  0
 17 15  2  0  0  0  0
 18 13  1  0  0  0  0
 21 22  1  0  0  0  0
 22 27  1  0  0  0  0
 22 23  2  0  0  0  0
 23 28  1  0  0  0  0
 24 23  1  0  0  0  0
 25 24  2  0  0  0  0
 26 21  2  0  0  0  0
 26 25  1  0  0  0  0
 28 29  1  0  0  0  0
 28 30  1  0  0  0  0
 28 31  1  0  0  0  0
 32 34  1  0  0  0  0
 32 21  1  0  0  0  0
 33 32  1  0  0  0  0
M  END
>  <minimizedAffinity>
-6.40715456

$$$$

 OpenBabel03262523173D

 34 36  0  0  0  0  0  0  0  0999 V2000
   37.7490   23.6260   33.4140 C   0  0  0  0  0  0  0  0  0  0  0  0
   37.1030   22.6160   32.7280 C   0  0  0  0  0  0  0  0  0  0  0  0
   36.3900   23.0450   31.6360 C   0  0  0  0  0  0  0  0  0  0  0  0
   36.3230   24.3640   31.2530 C   0  0  0  0  0  0  0  0  0  0  0  0
   36.9940   25.3010   31.9920 C   0  0  0  0  0  0  0  0  0  0  0  0
   37.7040   24.9180   33.0700 N   0  0  0  0  0  0  0  0  0  0  0  0
   37.1480   21.5720   33.0180 H   0  0  0  0  0  0  0  0  0  0  0  0
   35.8580   22.2820   31.0530 H   0  0  0  0  0  0  0  0  0  0  0  0
   35.7370   24.5810   30.3740 H   0  0  0  0  0  0  0  0  0  0  0  0
   39.1620   26.2810   30.1240 Cl  0  0  0  0  0  0  0  0  0  0  0  0
   37.8960   27.2520   30.8010 C   0  0  0  0  0  0  0  0  0  0  0  0
   36.9570   26.7070   31.6410 C   0  0  0  0  0  0  0  0  0  0  0  0
   36.0050   27.6060   32.1030 C   0  0  0  0  0  0  0  0  0  0  0  0
   35.9650   28.9320   31.7770 C   0  0  0  0  0  0  0  0  0  0  0  0
   36.9240   29.4450   30.9280 C   0  0  0  0  0  0  0  0  0  0  0  0
   36.9240   31.1320   30.4740 Cl  0  0  0  0  0  0  0  0  0  0  0  0
   37.8930   28.5910   30.4420 C   0  0  0  0  0  0  0  0  0  0  0  0
   35.2370   27.2390   32.7710 H   0  0  0  0  0  0  0  0  0  0  0  0
   35.1930   29.5690   32.1760 H   0  0  0  0  0  0  0  0  0  0  0  0
   38.6280   29.0270   29.7810 H   0  0  0  0  0  0  0  0  0  0  0  0
   40.4340   22.3060   35.5530 C   0  0  0  0  0  0  0  0  0  0  0  0
   40.0050   22.6540   36.8470 C   0  0  0  0  0  0  0  0  0  0  0  0
   38.7980   23.3350   36.9550 C   0  0  0  0  0  0  0  0  0  0  0  0
   38.1290   23.6120   35.8200 N   0  0  0  0  0  0  0  0  0  0  0  0
   38.5420   23.2800   34.5910 C   0  0  0  0  0  0  0  0  0  0  0  0
   39.7060   22.6220   34.4800 N   0  0  0  0  0  0  0  0  0  0  0  0
   40.6300   22.3750   37.6820 H   0  0  0  0  0  0  0  0  0  0  0  0
   38.3400   23.7030   38.3150 C   0  0  0  0  0  0  0  0  0  0  0  0
   37.9560   25.0400   38.3950 F   0  0  0  0  0  0  0  0  0  0  0  0
   39.3760   23.5650   39.2440 F   0  0  0  0  0  0  0  0  0  0  0  0
   37.3360   22.8810   38.7670 F   0  0  0  0  0  0  0  0  0  0  0  0
   41.6620   21.6020   35.3150 N   0  0  0  0  0  0  0  0  0  0  0  0
   41.4810   20.6760   34.8250 H   0  0  0  0  0  0  0  0  0  0  0  0
   42.4080   22.2380   35.7120 H   0  0  0  0  0  0  0  0  0  0  0  0
  1 25  1  0  0  0  0
  2  7  1  0  0  0  0
  2  1  2  0  0  0  0
  3  2  1  0  0  0  0
  4  3  2  0  0  0  0
  4  5  1  0  0  0  0
  5  6  2  0  0  0  0
  6  1  1  0  0  0  0
  8  3  1  0  0  0  0
  9  4  1  0  0  0  0
 10 11  1  0  0  0  0
 11 12  1  0  0  0  0
 12  5  1  0  0  0  0
 12 13  2  0  0  0  0
 13 18  1  0  0  0  0
 14 13  1  0  0  0  0
 14 19  1  0  0  0  0
 15 14  2  0  0  0  0
 16 15  1  0  0  0  0
 17 11  2  0  0  0  0
 17 15  1  0  0  0  0
 20 17  1  0  0  0  0
 21 22  1  0  0  0  0
 22 23  2  0  0  0  0
 22 27  1  0  0  0  0
 23 28  1  0  0  0  0
 24 23  1  0  0  0  0
 25 24  2  0  0  0  0
 26 25  1  0  0  0  0
 26 21  2  0  0  0  0
 28 29  1  0  0  0  0
 28 31  1  0  0  0  0
 28 30  1  0  0  0  0
 32 21  1  0  0  0  0
 32 34  1  0  0  0  0
 33 32  1  0  0  0  0
M  END
>  <minimizedAffinity>
-6.28462934

$$$$

 OpenBabel03262523173D

 34 36  0  0  0  0  0  0  0  0999 V2000
   35.9960   28.6610   32.8700 C   0  0  0  0  0  0  0  0  0  0  0  0
   36.5630   29.1530   31.7110 C   0  0  0  0  0  0  0  0  0  0  0  0
   37.6410   28.4320   31.2620 C   0  0  0  0  0  0  0  0  0  0  0  0
   38.1180   27.3150   31.9060 C   0  0  0  0  0  0  0  0  0  0  0  0
   37.4970   26.8960   33.0510 C   0  0  0  0  0  0  0  0  0  0  0  0
   36.4350   27.5780   33.5220 N   0  0  0  0  0  0  0  0  0  0  0  0
   36.1950   30.0330   31.1930 H   0  0  0  0  0  0  0  0  0  0  0  0
   38.1290   28.7810   30.3420 H   0  0  0  0  0  0  0  0  0  0  0  0
   38.9690   26.8270   31.4560 H   0  0  0  0  0  0  0  0  0  0  0  0
   38.8550   27.4070   35.7050 Cl  0  0  0  0  0  0  0  0  0  0  0  0
   38.5870   25.8510   34.9890 C   0  0  0  0  0  0  0  0  0  0  0  0
   37.9570   25.7280   33.7760 C   0  0  0  0  0  0  0  0  0  0  0  0
   37.8120   24.4210   33.3310 C   0  0  0  0  0  0  0  0  0  0  0  0
   38.2420   23.3160   34.0080 C   0  0  0  0  0  0  0  0  0  0  0  0
   38.8700   23.4770   35.2270 C   0  0  0  0  0  0  0  0  0  0  0  0
   39.4420   22.1020   36.1410 Cl  0  0  0  0  0  0  0  0  0  0  0  0
   39.0390   24.7570   35.7120 C   0  0  0  0  0  0  0  0  0  0  0  0
   37.3240   24.2570   32.3790 H   0  0  0  0  0  0  0  0  0  0  0  0
   38.0930   22.3310   33.5990 H   0  0  0  0  0  0  0  0  0  0  0  0
   39.5350   24.8460   36.6690 H   0  0  0  0  0  0  0  0  0  0  0  0
   32.5630   29.8790   33.3810 C   0  0  0  0  0  0  0  0  0  0  0  0
   32.6790   30.6670   34.5420 C   0  0  0  0  0  0  0  0  0  0  0  0
   33.9380   30.7620   35.1220 C   0  0  0  0  0  0  0  0  0  0  0  0
   34.9520   30.0980   34.5370 N   0  0  0  0  0  0  0  0  0  0  0  0
   34.8370   29.3490   33.4340 C   0  0  0  0  0  0  0  0  0  0  0  0
   33.6250   29.2530   32.8680 N   0  0  0  0  0  0  0  0  0  0  0  0
   31.7910   31.1520   34.9160 H   0  0  0  0  0  0  0  0  0  0  0  0
   34.0660   31.5910   36.3440 C   0  0  0  0  0  0  0  0  0  0  0  0
   33.8060   32.9360   36.0940 F   0  0  0  0  0  0  0  0  0  0  0  0
   35.3770   31.5570   36.8330 F   0  0  0  0  0  0  0  0  0  0  0  0
   33.2840   31.1260   37.3730 F   0  0  0  0  0  0  0  0  0  0  0  0
   31.3160   29.7060   32.6920 N   0  0  0  0  0  0  0  0  0  0  0  0
   31.3820   30.0560   31.6910 H   0  0  0  0  0  0  0  0  0  0  0  0
   30.6800   29.2640   33.4120 H   0  0  0  0  0  0  0  0  0  0  0  0
  1 25  1  0  0  0  0
  1  6  1  0  0  0  0
  2  1  2  0  0  0  0
  3  2  1  0  0  0  0
  3  4  2  0  0  0  0
  4  5  1  0  0  0  0
  5  6  2  0  0  0  0
  5 12  1  0  0  0  0
  7  2  1  0  0  0  0
  8  3  1  0  0  0  0
  9  4  1  0  0  0  0
 11 10  1  0  0  0  0
 11 17  1  0  0  0  0
 12 11  2  0  0  0  0
 13 12  1  0  0  0  0
 13 14  2  0  0  0  0
 14 15  1  0  0  0  0
 15 17  2  0  0  0  0
 15 16  1  0  0  0  0
 17 20  1  0  0  0  0
 18 13  1  0  0  0  0
 19 14  1  0  0  0  0
 21 22  1  0  0  0  0
 22 27  1  0  0  0  0
 22 23  2  0  0  0  0
 23 28  1  0  0  0  0
 24 23  1  0  0  0  0
 25 24  2  0  0  0  0
 26 21  2  0  0  0  0
 26 25  1  0  0  0  0
 28 30  1  0  0  0  0
 28 31  1  0  0  0  0
 29 28  1  0  0  0  0
 32 21  1  0  0  0  0
 32 34  1  0  0  0  0
 33 32  1  0  0  0  0
M  END
>  <minimizedAffinity>
-6.11625862

$$$$

 OpenBabel03262523173D

 34 36  0  0  0  0  0  0  0  0999 V2000
   35.1710   30.0820   33.5400 C   0  0  0  0  0  0  0  0  0  0  0  0
   35.6700   31.0820   32.7280 C   0  0  0  0  0  0  0  0  0  0  0  0
   36.3630   30.6260   31.6350 C   0  0  0  0  0  0  0  0  0  0  0  0
   36.5460   29.2900   31.3660 C   0  0  0  0  0  0  0  0  0  0  0  0
   36.0180   28.3640   32.2250 C   0  0  0  0  0  0  0  0  0  0  0  0
   35.3310   28.7740   33.3090 N   0  0  0  0  0  0  0  0  0  0  0  0
   35.5310   32.1390   32.9290 H   0  0  0  0  0  0  0  0  0  0  0  0
   36.7810   31.3800   30.9550 H   0  0  0  0  0  0  0  0  0  0  0  0
   37.1030   29.0500   30.4740 H   0  0  0  0  0  0  0  0  0  0  0  0
   38.3560   27.0370   33.6120 Cl  0  0  0  0  0  0  0  0  0  0  0  0
   37.2110   26.2450   32.5790 C   0  0  0  0  0  0  0  0  0  0  0  0
   36.1820   26.9410   31.9970 C   0  0  0  0  0  0  0  0  0  0  0  0
   35.3450   26.1740   31.1970 C   0  0  0  0  0  0  0  0  0  0  0  0
   35.4930   24.8350   30.9780 C   0  0  0  0  0  0  0  0  0  0  0  0
   36.5390   24.1660   31.5810 C   0  0  0  0  0  0  0  0  0  0  0  0
   36.7790   22.4530   31.3390 Cl  0  0  0  0  0  0  0  0  0  0  0  0
   37.3990   24.8850   32.3850 C   0  0  0  0  0  0  0  0  0  0  0  0
   34.5140   26.6660   30.7080 H   0  0  0  0  0  0  0  0  0  0  0  0
   34.8020   24.3050   30.3440 H   0  0  0  0  0  0  0  0  0  0  0  0
   38.2070   24.3300   32.8410 H   0  0  0  0  0  0  0  0  0  0  0  0
   34.2050   31.6780   36.7110 C   0  0  0  0  0  0  0  0  0  0  0  0
   32.9320   31.1320   36.9610 C   0  0  0  0  0  0  0  0  0  0  0  0
   32.4350   30.2260   36.0340 C   0  0  0  0  0  0  0  0  0  0  0  0
   33.2010   29.9350   34.9660 N   0  0  0  0  0  0  0  0  0  0  0  0
   34.4110   30.4560   34.7300 C   0  0  0  0  0  0  0  0  0  0  0  0
   34.8970   31.3320   35.6230 N   0  0  0  0  0  0  0  0  0  0  0  0
   32.4140   31.4450   37.8560 H   0  0  0  0  0  0  0  0  0  0  0  0
   31.0960   29.6470   36.2930 C   0  0  0  0  0  0  0  0  0  0  0  0
   31.1650   28.4890   37.0640 F   0  0  0  0  0  0  0  0  0  0  0  0
   30.4830   29.2550   35.0990 F   0  0  0  0  0  0  0  0  0  0  0  0
   30.2360   30.5580   36.8590 F   0  0  0  0  0  0  0  0  0  0  0  0
   34.8240   32.6230   37.5960 N   0  0  0  0  0  0  0  0  0  0  0  0
   35.7470   32.2490   37.9670 H   0  0  0  0  0  0  0  0  0  0  0  0
   34.1530   33.4400   37.6160 H   0  0  0  0  0  0  0  0  0  0  0  0
  1 25  1  0  0  0  0
  2  7  1  0  0  0  0
  2  1  2  0  0  0  0
  3  2  1  0  0  0  0
  4  3  2  0  0  0  0
  4  5  1  0  0  0  0
  5  6  2  0  0  0  0
  6  1  1  0  0  0  0
  8  3  1  0  0  0  0
  9  4  1  0  0  0  0
 11 10  1  0  0  0  0
 12  5  1  0  0  0  0
 12 11  2  0  0  0  0
 13 12  1  0  0  0  0
 14 13  2  0  0  0  0
 14 15  1  0  0  0  0
 15 17  2  0  0  0  0
 16 15  1  0  0  0  0
 17 11  1  0  0  0  0
 17 20  1  0  0  0  0
 18 13  1  0  0  0  0
 19 14  1  0  0  0  0
 21 22  1  0  0  0  0
 21 32  1  0  0  0  0
 22 27  1  0  0  0  0
 23 28  1  0  0  0  0
 23 22  2  0  0  0  0
 24 23  1  0  0  0  0
 25 24  2  0  0  0  0
 25 26  1  0  0  0  0
 26 21  2  0  0  0  0
 28 31  1  0  0  0  0
 28 29  1  0  0  0  0
 30 28  1  0  0  0  0
 32 34  1  0  0  0  0
 32 33  1  0  0  0  0
M  END
>  <minimizedAffinity>
-6.10091448

$$$$

 OpenBabel03262523173D

 34 36  0  0  0  0  0  0  0  0999 V2000
   36.7570   27.3260   32.3940 C   0  0  0  0  0  0  0  0  0  0  0  0
   37.0080   27.7950   31.1190 C   0  0  0  0  0  0  0  0  0  0  0  0
   36.6350   29.1010   30.9170 C   0  0  0  0  0  0  0  0  0  0  0  0
   36.0620   29.8780   31.8960 C   0  0  0  0  0  0  0  0  0  0  0  0
   35.8480   29.3330   33.1330 C   0  0  0  0  0  0  0  0  0  0  0  0
   36.2020   28.0540   33.3690 N   0  0  0  0  0  0  0  0  0  0  0  0
   37.4590   27.1930   30.3390 H   0  0  0  0  0  0  0  0  0  0  0  0
   36.8120   29.5240   29.9200 H   0  0  0  0  0  0  0  0  0  0  0  0
   35.8160   30.8920   31.6230 H   0  0  0  0  0  0  0  0  0  0  0  0
   32.8290   29.2620   33.3060 Cl  0  0  0  0  0  0  0  0  0  0  0  0
   33.8830   30.1370   34.3690 C   0  0  0  0  0  0  0  0  0  0  0  0
   35.2440   30.1010   34.2040 C   0  0  0  0  0  0  0  0  0  0  0  0
   35.9580   30.8490   35.1310 C   0  0  0  0  0  0  0  0  0  0  0  0
   35.3970   31.5740   36.1420 C   0  0  0  0  0  0  0  0  0  0  0  0
   34.0230   31.5860   36.2800 C   0  0  0  0  0  0  0  0  0  0  0  0
   33.2470   32.4950   37.5540 Cl  0  0  0  0  0  0  0  0  0  0  0  0
   33.2700   30.8590   35.3810 C   0  0  0  0  0  0  0  0  0  0  0  0
   37.0370   30.8630   35.0540 H   0  0  0  0  0  0  0  0  0  0  0  0
   36.0170   32.1300   36.8250 H   0  0  0  0  0  0  0  0  0  0  0  0
   32.1980   30.8910   35.5190 H   0  0  0  0  0  0  0  0  0  0  0  0
   38.3970   24.4170   33.9370 C   0  0  0  0  0  0  0  0  0  0  0  0
   37.7680   23.3300   33.3040 C   0  0  0  0  0  0  0  0  0  0  0  0
   36.7940   23.6220   32.3570 C   0  0  0  0  0  0  0  0  0  0  0  0
   36.5210   24.9170   32.1150 N   0  0  0  0  0  0  0  0  0  0  0  0
   37.1210   25.9490   32.7210 C   0  0  0  0  0  0  0  0  0  0  0  0
   38.0630   25.6740   33.6350 N   0  0  0  0  0  0  0  0  0  0  0  0
   38.0750   22.3330   33.5840 H   0  0  0  0  0  0  0  0  0  0  0  0
   36.1280   22.4810   31.6860 C   0  0  0  0  0  0  0  0  0  0  0  0
   35.2910   22.8960   30.6530 F   0  0  0  0  0  0  0  0  0  0  0  0
   35.2960   21.7960   32.5770 F   0  0  0  0  0  0  0  0  0  0  0  0
   37.0280   21.5440   31.2380 F   0  0  0  0  0  0  0  0  0  0  0  0
   39.4190   24.2420   34.9300 N   0  0  0  0  0  0  0  0  0  0  0  0
   40.3280   24.7010   34.6260 H   0  0  0  0  0  0  0  0  0  0  0  0
   38.9450   23.6890   35.6970 H   0  0  0  0  0  0  0  0  0  0  0  0
  1 25  1  0  0  0  0
  1  6  1  0  0  0  0
  2  1  2  0  0  0  0
  3  2  1  0  0  0  0
  3  4  2  0  0  0  0
  4  5  1  0  0  0  0
  5  6  2  0  0  0  0
  5 12  1  0  0  0  0
  7  2  1  0  0  0  0
  8  3  1  0  0  0  0
  9  4  1  0  0  0  0
 10 11  1  0  0  0  0
 11 17  1  0  0  0  0
 12 11  2  0  0  0  0
 12 13  1  0  0  0  0
 13 14  2  0  0  0  0
 14 15  1  0  0  0  0
 14 19  1  0  0  0  0
 15 16  1  0  0  0  0
 17 20  1  0  0  0  0
 17 15  2  0  0  0  0
 18 13  1  0  0  0  0
 21 32  1  0  0  0  0
 22 27  1  0  0  0  0
 22 21  2  0  0  0  0
 23 22  1  0  0  0  0
 24 23  2  0  0  0  0
 24 25  1  0  0  0  0
 25 26  2  0  0  0  0
 26 21  1  0  0  0  0
 28 23  1  0  0  0  0
 28 30  1  0  0  0  0
 29 28  1  0  0  0  0
 31 28  1  0  0  0  0
 32 34  1  0  0  0  0
 33 32  1  0  0  0  0
M  END
>  <minimizedAffinity>
-6.06194115

$$$$

 OpenBabel03262523173D

 34 36  0  0  0  0  0  0  0  0999 V2000
   37.4160   24.9830   32.8230 C   0  0  0  0  0  0  0  0  0  0  0  0
   36.5510   24.0500   32.2840 C   0  0  0  0  0  0  0  0  0  0  0  0
   35.6920   24.5570   31.3420 C   0  0  0  0  0  0  0  0  0  0  0  0
   35.6880   25.8790   30.9630 C   0  0  0  0  0  0  0  0  0  0  0  0
   36.5790   26.7370   31.5490 C   0  0  0  0  0  0  0  0  0  0  0  0
   37.4380   26.2750   32.4780 N   0  0  0  0  0  0  0  0  0  0  0  0
   36.5450   23.0040   32.5740 H   0  0  0  0  0  0  0  0  0  0  0  0
   34.9830   23.8570   30.8810 H   0  0  0  0  0  0  0  0  0  0  0  0
   34.9700   26.1620   30.2090 H   0  0  0  0  0  0  0  0  0  0  0  0
   35.6690   28.6900   33.6730 Cl  0  0  0  0  0  0  0  0  0  0  0  0
   36.2270   29.1090   32.0860 C   0  0  0  0  0  0  0  0  0  0  0  0
   36.6200   28.1420   31.1950 C   0  0  0  0  0  0  0  0  0  0  0  0
   37.0430   28.6280   29.9650 C   0  0  0  0  0  0  0  0  0  0  0  0
   37.0850   29.9500   29.6240 C   0  0  0  0  0  0  0  0  0  0  0  0
   36.6840   30.8950   30.5460 C   0  0  0  0  0  0  0  0  0  0  0  0
   36.7160   32.6010   30.1690 Cl  0  0  0  0  0  0  0  0  0  0  0  0
   36.2540   30.4620   31.7830 C   0  0  0  0  0  0  0  0  0  0  0  0
   37.3650   27.9150   29.2170 H   0  0  0  0  0  0  0  0  0  0  0  0
   37.4270   30.2520   28.6480 H   0  0  0  0  0  0  0  0  0  0  0  0
   35.9480   31.2290   32.4800 H   0  0  0  0  0  0  0  0  0  0  0  0
   40.5480   23.9340   34.4400 C   0  0  0  0  0  0  0  0  0  0  0  0
   40.1590   23.7340   35.7780 C   0  0  0  0  0  0  0  0  0  0  0  0
   38.8260   23.9630   36.0930 C   0  0  0  0  0  0  0  0  0  0  0  0
   38.0050   24.3580   35.1030 N   0  0  0  0  0  0  0  0  0  0  0  0
   38.3790   24.5490   33.8320 C   0  0  0  0  0  0  0  0  0  0  0  0
   39.6650   24.3290   33.5200 N   0  0  0  0  0  0  0  0  0  0  0  0
   40.9120   23.4140   36.4820 H   0  0  0  0  0  0  0  0  0  0  0  0
   38.4100   23.7520   37.4990 C   0  0  0  0  0  0  0  0  0  0  0  0
   37.2530   22.9820   37.5950 F   0  0  0  0  0  0  0  0  0  0  0  0
   38.0900   24.9690   38.1120 F   0  0  0  0  0  0  0  0  0  0  0  0
   39.4160   23.2150   38.2660 F   0  0  0  0  0  0  0  0  0  0  0  0
   41.8970   23.7290   33.9940 N   0  0  0  0  0  0  0  0  0  0  0  0
   41.9380   22.9830   33.2370 H   0  0  0  0  0  0  0  0  0  0  0  0
   42.4680   24.4060   34.5710 H   0  0  0  0  0  0  0  0  0  0  0  0
  1 25  1  0  0  0  0
  2  7  1  0  0  0  0
  2  1  2  0  0  0  0
  3  2  1  0  0  0  0
  4  3  2  0  0  0  0
  4  5  1  0  0  0  0
  5  6  2  0  0  0  0
  6  1  1  0  0  0  0
  8  3  1  0  0  0  0
  9  4  1  0  0  0  0
 11 10  1  0  0  0  0
 12  5  1  0  0  0  0
 12 11  2  0  0  0  0
 13 12  1  0  0  0  0
 14 13  2  0  0  0  0
 14 15  1  0  0  0  0
 15 17  2  0  0  0  0
 16 15  1  0  0  0  0
 17 11  1  0  0  0  0
 17 20  1  0  0  0  0
 18 13  1  0  0  0  0
 19 14  1  0  0  0  0
 21 22  1  0  0  0  0
 22 23  2  0  0  0  0
 22 27  1  0  0  0  0
 23 28  1  0  0  0  0
 24 23  1  0  0  0  0
 25 24  2  0  0  0  0
 26 25  1  0  0  0  0
 26 21  2  0  0  0  0
 28 29  1  0  0  0  0
 28 30  1  0  0  0  0
 28 31  1  0  0  0  0
 32 21  1  0  0  0  0
 32 34  1  0  0  0  0
 33 32  1  0  0  0  0
M  END
>  <minimizedAffinity>
-6.00763512

$$$$

 OpenBabel03262523173D

 34 36  0  0  0  0  0  0  0  0999 V2000
   35.3170   29.2280   32.7530 C   0  0  0  0  0  0  0  0  0  0  0  0
   35.6200   29.6970   31.4890 C   0  0  0  0  0  0  0  0  0  0  0  0
   36.7560   29.1520   30.9450 C   0  0  0  0  0  0  0  0  0  0  0  0
   37.5280   28.2200   31.5960 C   0  0  0  0  0  0  0  0  0  0  0  0
   37.1550   27.8110   32.8480 C   0  0  0  0  0  0  0  0  0  0  0  0
   36.0460   28.3230   33.4150 N   0  0  0  0  0  0  0  0  0  0  0  0
   35.0180   30.4310   30.9640 H   0  0  0  0  0  0  0  0  0  0  0  0
   37.0420   29.4890   29.9400 H   0  0  0  0  0  0  0  0  0  0  0  0
   38.3960   27.8580   31.0670 H   0  0  0  0  0  0  0  0  0  0  0  0
   36.5870   24.9020   32.2430 Cl  0  0  0  0  0  0  0  0  0  0  0  0
   37.7500   25.4880   33.3870 C   0  0  0  0  0  0  0  0  0  0  0  0
   37.9310   26.8340   33.5870 C   0  0  0  0  0  0  0  0  0  0  0  0
   38.8970   27.1520   34.5330 C   0  0  0  0  0  0  0  0  0  0  0  0
   39.6310   26.2380   35.2320 C   0  0  0  0  0  0  0  0  0  0  0  0
   39.4240   24.8920   35.0040 C   0  0  0  0  0  0  0  0  0  0  0  0
   40.3330   23.6750   35.8670 Cl  0  0  0  0  0  0  0  0  0  0  0  0
   38.4730   24.5250   34.0730 C   0  0  0  0  0  0  0  0  0  0  0  0
   39.0870   28.1980   34.7370 H   0  0  0  0  0  0  0  0  0  0  0  0
   40.3650   26.5610   35.9510 H   0  0  0  0  0  0  0  0  0  0  0  0
   38.3370   23.4640   33.9210 H   0  0  0  0  0  0  0  0  0  0  0  0
   31.8270   30.1660   33.4430 C   0  0  0  0  0  0  0  0  0  0  0  0
   31.8990   30.7110   34.7380 C   0  0  0  0  0  0  0  0  0  0  0  0
   33.1480   30.7450   35.3450 C   0  0  0  0  0  0  0  0  0  0  0  0
   34.1960   30.2570   34.6560 N   0  0  0  0  0  0  0  0  0  0  0  0
   34.1230   29.7380   33.4240 C   0  0  0  0  0  0  0  0  0  0  0  0
   32.9200   29.7020   32.8320 N   0  0  0  0  0  0  0  0  0  0  0  0
   30.9860   31.0720   35.1880 H   0  0  0  0  0  0  0  0  0  0  0  0
   33.2300   31.3190   36.7090 C   0  0  0  0  0  0  0  0  0  0  0  0
   32.6040   30.5120   37.6560 F   0  0  0  0  0  0  0  0  0  0  0  0
   32.5610   32.5450   36.7750 F   0  0  0  0  0  0  0  0  0  0  0  0
   34.5240   31.5920   37.0820 F   0  0  0  0  0  0  0  0  0  0  0  0
   30.5940   30.0770   32.7140 N   0  0  0  0  0  0  0  0  0  0  0  0
   30.6500   30.6220   31.8040 H   0  0  0  0  0  0  0  0  0  0  0  0
   29.9750   29.4730   33.3230 H   0  0  0  0  0  0  0  0  0  0  0  0
  1  6  1  0  0  0  0
  1 25  1  0  0  0  0
  2  1  2  0  0  0  0
  3  2  1  0  0  0  0
  3  4  2  0  0  0  0
  4  5  1  0  0  0  0
  5  6  2  0  0  0  0
  5 12  1  0  0  0  0
  7  2  1  0  0  0  0
  8  3  1  0  0  0  0
  9  4  1  0  0  0  0
 10 11  1  0  0  0  0
 11 12  2  0  0  0  0
 11 17  1  0  0  0  0
 12 13  1  0  0  0  0
 13 18  1  0  0  0  0
 13 14  2  0  0  0  0
 14 19  1  0  0  0  0
 15 14  1  0  0  0  0
 15 16  1  0  0  0  0
 17 15  2  0  0  0  0
 20 17  1  0  0  0  0
 21 22  1  0  0  0  0
 22 27  1  0  0  0  0
 22 23  2  0  0  0  0
 23 28  1  0  0  0  0
 24 23  1  0  0  0  0
 25 24  2  0  0  0  0
 26 25  1  0  0  0  0
 26 21  2  0  0  0  0
 28 30  1  0  0  0  0
 28 31  1  0  0  0  0
 28 29  1  0  0  0  0
 32 34  1  0  0  0  0
 32 21  1  0  0  0  0
 33 32  1  0  0  0  0
M  END
>  <minimizedAffinity>
-5.94857073

$$$$

 OpenBabel03262523173D

 34 36  0  0  0  0  0  0  0  0999 V2000
   35.6950   29.2650   33.6120 C   0  0  0  0  0  0  0  0  0  0  0  0
   35.9690   29.8720   32.4010 C   0  0  0  0  0  0  0  0  0  0  0  0
   36.8250   29.1620   31.5980 C   0  0  0  0  0  0  0  0  0  0  0  0
   37.3660   27.9510   31.9610 C   0  0  0  0  0  0  0  0  0  0  0  0
   37.0430   27.4220   33.1810 C   0  0  0  0  0  0  0  0  0  0  0  0
   36.2040   28.0900   33.9970 N   0  0  0  0  0  0  0  0  0  0  0  0
   35.5480   30.8260   32.1030 H   0  0  0  0  0  0  0  0  0  0  0  0
   37.0760   29.5990   30.6220 H   0  0  0  0  0  0  0  0  0  0  0  0
   38.0230   27.4820   31.2450 H   0  0  0  0  0  0  0  0  0  0  0  0
   38.6920   27.4670   35.7160 Cl  0  0  0  0  0  0  0  0  0  0  0  0
   38.3470   26.0630   34.7590 C   0  0  0  0  0  0  0  0  0  0  0  0
   37.5840   26.1510   33.6220 C   0  0  0  0  0  0  0  0  0  0  0  0
   37.3920   24.9450   32.9600 C   0  0  0  0  0  0  0  0  0  0  0  0
   37.8990   23.7450   33.3690 C   0  0  0  0  0  0  0  0  0  0  0  0
   38.6610   23.6930   34.5190 C   0  0  0  0  0  0  0  0  0  0  0  0
   39.3350   22.1880   35.0930 Cl  0  0  0  0  0  0  0  0  0  0  0  0
   38.8810   24.8660   35.2120 C   0  0  0  0  0  0  0  0  0  0  0  0
   36.8000   24.9480   32.0550 H   0  0  0  0  0  0  0  0  0  0  0  0
   37.7060   22.8490   32.8030 H   0  0  0  0  0  0  0  0  0  0  0  0
   39.4820   24.7890   36.1070 H   0  0  0  0  0  0  0  0  0  0  0  0
   34.4200   31.4110   36.3140 C   0  0  0  0  0  0  0  0  0  0  0  0
   33.0340   31.1690   36.2790 C   0  0  0  0  0  0  0  0  0  0  0  0
   32.5690   30.2720   35.3260 C   0  0  0  0  0  0  0  0  0  0  0  0
   33.4720   29.7000   34.5080 N   0  0  0  0  0  0  0  0  0  0  0  0
   34.7890   29.9320   34.5440 C   0  0  0  0  0  0  0  0  0  0  0  0
   35.2450   30.7980   35.4620 N   0  0  0  0  0  0  0  0  0  0  0  0
   32.4100   31.6900   36.9900 H   0  0  0  0  0  0  0  0  0  0  0  0
   31.1110   30.0130   35.2840 C   0  0  0  0  0  0  0  0  0  0  0  0
   30.3700   31.1150   35.7070 F   0  0  0  0  0  0  0  0  0  0  0  0
   30.7630   28.9810   36.1620 F   0  0  0  0  0  0  0  0  0  0  0  0
   30.6910   29.5910   34.0460 F   0  0  0  0  0  0  0  0  0  0  0  0
   35.0180   32.3160   37.2540 N   0  0  0  0  0  0  0  0  0  0  0  0
   35.7240   31.8140   37.8700 H   0  0  0  0  0  0  0  0  0  0  0  0
   34.5630   33.2470   37.0450 H   0  0  0  0  0  0  0  0  0  0  0  0
  1  6  1  0  0  0  0
  1 25  1  0  0  0  0
  2  1  2  0  0  0  0
  3  4  2  0  0  0  0
  3  2  1  0  0  0  0
  4  5  1  0  0  0  0
  5 12  1  0  0  0  0
  5  6  2  0  0  0  0
  7  2  1  0  0  0  0
  8  3  1  0  0  0  0
  9  4  1  0  0  0  0
 11 17  1  0  0  0  0
 11 10  1  0  0  0  0
 12 11  2  0  0  0  0
 13 14  2  0  0  0  0
 13 12  1  0  0  0  0
 14 15  1  0  0  0  0
 15 16  1  0  0  0  0
 15 17  2  0  0  0  0
 17 20  1  0  0  0  0
 18 13  1  0  0  0  0
 19 14  1  0  0  0  0
 21 32  1  0  0  0  0
 22 21  1  0  0  0  0
 22 27  1  0  0  0  0
 23 22  2  0  0  0  0
 24 25  2  0  0  0  0
 24 23  1  0  0  0  0
 25 26  1  0  0  0  0
 26 21  2  0  0  0  0
 28 23  1  0  0  0  0
 28 29  1  0  0  0  0
 28 30  1  0  0  0  0
 31 28  1  0  0  0  0
 32 33  1  0  0  0  0
 34 32  1  0  0  0  0
M  END
>  <minimizedAffinity>
-5.93679905

$$$$
