
 OpenBabel03272509033D

 28 29  0  0  0  0  0  0  0  0999 V2000
   33.1930   27.5940   47.9900 C   0  0  0  0  0  0  0  0  0  0  0  0
   32.7380   27.0810   48.8650 H   0  0  0  0  0  0  0  0  0  0  0  0
   32.3740   28.2250   47.5560 H   0  0  0  0  0  0  0  0  0  0  0  0
   33.6270   26.5200   47.0420 C   0  0  0  0  0  0  0  0  0  0  0  0
   33.8320   25.1920   47.3740 C   0  0  0  0  0  0  0  0  0  0  0  0
   34.2310   24.2880   46.4100 C   0  0  0  0  0  0  0  0  0  0  0  0
   34.4350   24.6840   45.0930 C   0  0  0  0  0  0  0  0  0  0  0  0
   34.2340   25.9930   44.7560 C   0  0  0  0  0  0  0  0  0  0  0  0
   33.8350   26.9040   45.7120 C   0  0  0  0  0  0  0  0  0  0  0  0
   33.6540   24.9620   48.4170 H   0  0  0  0  0  0  0  0  0  0  0  0
   34.3510   23.2850   46.8230 H   0  0  0  0  0  0  0  0  0  0  0  0
   34.7450   23.8740   44.4440 H   0  0  0  0  0  0  0  0  0  0  0  0
   34.4040   26.2600   43.7200 H   0  0  0  0  0  0  0  0  0  0  0  0
   33.7100   27.9130   45.3170 H   0  0  0  0  0  0  0  0  0  0  0  0
   34.9260   28.3020   49.6330 C   0  0  0  0  0  0  0  0  0  0  0  0
   34.3130   28.3990   48.4960 C   0  0  0  0  0  0  0  0  0  0  0  0
   37.4700   30.2850   51.3520 C   0  0  0  0  0  0  0  0  0  0  0  0
   38.1260   30.9180   50.2750 C   0  0  0  0  0  0  0  0  0  0  0  0
   37.6620   30.6410   48.9730 C   0  0  0  0  0  0  0  0  0  0  0  0
   36.6040   29.7740   48.8240 N   0  0  0  0  0  0  0  0  0  0  0  0
   36.0310   29.2080   49.9060 C   0  0  0  0  0  0  0  0  0  0  0  0
   36.4570   29.4590   51.1650 N   0  0  0  0  0  0  0  0  0  0  0  0
   37.8500   30.5170   52.3420 H   0  0  0  0  0  0  0  0  0  0  0  0
   38.9510   31.5960   50.3730 H   0  0  0  0  0  0  0  0  0  0  0  0
   38.2900   31.2640   47.7840 C   0  0  0  0  0  0  0  0  0  0  0  0
   37.3740   31.9820   47.0340 F   0  0  0  0  0  0  0  0  0  0  0  0
   39.2750   32.1160   48.2060 F   0  0  0  0  0  0  0  0  0  0  0  0
   38.7950   30.3050   46.9150 F   0  0  0  0  0  0  0  0  0  0  0  0
  1 16  1  0  0  0  0
  1  2  1  0  0  0  0
  3  1  1  0  0  0  0
  4  5  1  0  0  0  0
  4  1  1  0  0  0  0
  5 10  1  0  0  0  0
  6 11  1  0  0  0  0
  6  5  2  0  0  0  0
  7  6  1  0  0  0  0
  8  7  2  0  0  0  0
  8  9  1  0  0  0  0
  9  4  2  0  0  0  0
 12  7  1  0  0  0  0
 13  8  1  0  0  0  0
 14  9  1  0  0  0  0
 15 21  1  0  0  0  0
 16 15  2  0  0  0  0
 17 23  1  0  0  0  0
 18 24  1  0  0  0  0
 18 17  2  0  0  0  0
 19 18  1  0  0  0  0
 20 19  2  0  0  0  0
 20 21  1  0  0  0  0
 21 22  2  0  0  0  0
 22 17  1  0  0  0  0
 25 27  1  0  0  0  0
 25 19  1  0  0  0  0
 26 25  1  0  0  0  0
 28 25  1  0  0  0  0
M  END
>  <minimizedAffinity>
-5.52893877

>  <minimizedRMSD>
0.384235531

$$$$
