
 OpenBabel03272504303D

 27 28  0  0  0  0  0  0  0  0999 V2000
   39.4800   31.9000   46.5970 N   0  0  0  0  0  0  0  0  0  0  0  0
   40.1290   33.0760   46.0430 C   0  0  0  0  0  0  0  0  0  0  0  0
   39.9770   33.2170   44.5560 C   0  0  0  0  0  0  0  0  0  0  0  0
   39.9480   32.0070   43.8170 N   0  0  0  0  0  0  0  0  0  0  0  0
   39.1220   30.9880   44.4550 C   0  0  0  0  0  0  0  0  0  0  0  0
   39.7810   30.7580   45.8110 C   0  0  0  0  0  0  0  0  0  0  0  0
   39.6080   33.9560   46.5190 H   0  0  0  0  0  0  0  0  0  0  0  0
   41.1690   33.1370   46.4080 H   0  0  0  0  0  0  0  0  0  0  0  0
   40.8630   33.8060   44.2090 H   0  0  0  0  0  0  0  0  0  0  0  0
   39.0950   33.8420   44.3180 H   0  0  0  0  0  0  0  0  0  0  0  0
   40.9000   31.6310   43.5820 H   0  0  0  0  0  0  0  0  0  0  0  0
   39.1110   30.0850   43.8330 H   0  0  0  0  0  0  0  0  0  0  0  0
   38.1320   31.4320   44.6370 H   0  0  0  0  0  0  0  0  0  0  0  0
   39.3970   29.8150   46.2770 H   0  0  0  0  0  0  0  0  0  0  0  0
   40.8860   30.6440   45.6320 H   0  0  0  0  0  0  0  0  0  0  0  0
   38.6630   31.9530   47.7750 C   0  0  0  0  0  0  0  0  0  0  0  0
   38.5340   33.1340   48.5340 C   0  0  0  0  0  0  0  0  0  0  0  0
   37.7140   33.0840   49.6670 C   0  0  0  0  0  0  0  0  0  0  0  0
   37.0920   31.9090   49.9680 N   0  0  0  0  0  0  0  0  0  0  0  0
   37.2470   30.8040   49.2090 C   0  0  0  0  0  0  0  0  0  0  0  0
   38.0240   30.8120   48.1170 N   0  0  0  0  0  0  0  0  0  0  0  0
   39.0660   34.0190   48.2180 H   0  0  0  0  0  0  0  0  0  0  0  0
   37.6050   33.9780   50.2590 H   0  0  0  0  0  0  0  0  0  0  0  0
   36.5340   29.5630   49.6070 C   0  0  0  0  0  0  0  0  0  0  0  0
   37.3530   28.6840   50.2740 F   0  0  0  0  0  0  0  0  0  0  0  0
   35.8920   28.9670   48.5320 F   0  0  0  0  0  0  0  0  0  0  0  0
   35.5210   29.9830   50.4780 F   0  0  0  0  0  0  0  0  0  0  0  0
  1 16  1  0  0  0  0
  2  8  1  0  0  0  0
  2  7  1  0  0  0  0
  2  1  1  0  0  0  0
  3  2  1  0  0  0  0
  4  5  1  0  0  0  0
  4  3  1  0  0  0  0
  5 13  1  0  0  0  0
  5  6  1  0  0  0  0
  6 14  1  0  0  0  0
  6  1  1  0  0  0  0
  9  3  1  0  0  0  0
 10  3  1  0  0  0  0
 11  4  1  0  0  0  0
 12  5  1  0  0  0  0
 15  6  1  0  0  0  0
 16 21  2  0  0  0  0
 16 17  1  0  0  0  0
 17 18  2  0  0  0  0
 18 19  1  0  0  0  0
 18 23  1  0  0  0  0
 20 24  1  0  0  0  0
 20 19  2  0  0  0  0
 21 20  1  0  0  0  0
 22 17  1  0  0  0  0
 24 25  1  0  0  0  0
 24 27  1  0  0  0  0
 26 24  1  0  0  0  0
M  END
>  <minimizedAffinity>
-5.4635582

>  <minimizedRMSD>
5.37718058

$$$$
