
 OpenBabel03272510333D

 23 24  0  0  0  0  0  0  0  0999 V2000
   36.1720   30.1270   48.4310 C   0  0  0  0  0  0  0  0  0  0  0  0
   35.1320   29.9140   47.5440 C   0  0  0  0  0  0  0  0  0  0  0  0
   34.0260   29.1720   47.9060 C   0  0  0  0  0  0  0  0  0  0  0  0
   33.9910   28.6440   49.1910 C   0  0  0  0  0  0  0  0  0  0  0  0
   35.0170   28.8460   50.0880 C   0  0  0  0  0  0  0  0  0  0  0  0
   36.1300   29.6010   49.7030 C   0  0  0  0  0  0  0  0  0  0  0  0
   35.1670   30.3290   46.5440 H   0  0  0  0  0  0  0  0  0  0  0  0
   33.2000   28.9810   47.2540 H   0  0  0  0  0  0  0  0  0  0  0  0
   33.1550   28.0520   49.5410 H   0  0  0  0  0  0  0  0  0  0  0  0
   34.9600   28.4230   51.0800 H   0  0  0  0  0  0  0  0  0  0  0  0
   38.5040   32.8980   48.1220 C   0  0  0  0  0  0  0  0  0  0  0  0
   39.3840   32.5180   47.1100 C   0  0  0  0  0  0  0  0  0  0  0  0
   39.1560   31.2630   46.5220 C   0  0  0  0  0  0  0  0  0  0  0  0
   38.1190   30.5040   46.9590 N   0  0  0  0  0  0  0  0  0  0  0  0
   37.2880   30.9170   47.9510 C   0  0  0  0  0  0  0  0  0  0  0  0
   37.5030   32.1140   48.5130 N   0  0  0  0  0  0  0  0  0  0  0  0
   38.6350   33.8630   48.6130 H   0  0  0  0  0  0  0  0  0  0  0  0
   40.1980   33.1460   46.7860 H   0  0  0  0  0  0  0  0  0  0  0  0
   39.8080   30.9040   45.7230 H   0  0  0  0  0  0  0  0  0  0  0  0
   37.2130   29.8080   50.6760 C   0  0  0  0  0  0  0  0  0  0  0  0
   38.4530   29.6000   50.1300 F   0  0  0  0  0  0  0  0  0  0  0  0
   37.0530   31.0410   51.2700 F   0  0  0  0  0  0  0  0  0  0  0  0
   37.1230   28.8690   51.7190 F   0  0  0  0  0  0  0  0  0  0  0  0
  1  6  1  0  0  0  0
  2  3  1  0  0  0  0
  2  1  2  0  0  0  0
  3  4  2  0  0  0  0
  4  9  1  0  0  0  0
  4  5  1  0  0  0  0
  5 10  1  0  0  0  0
  6  5  2  0  0  0  0
  6 20  1  0  0  0  0
  7  2  1  0  0  0  0
  8  3  1  0  0  0  0
 11 16  1  0  0  0  0
 11 17  1  0  0  0  0
 12 11  2  0  0  0  0
 13 14  2  0  0  0  0
 13 12  1  0  0  0  0
 14 15  1  0  0  0  0
 15  1  1  0  0  0  0
 15 16  2  0  0  0  0
 18 12  1  0  0  0  0
 19 13  1  0  0  0  0
 20 22  1  0  0  0  0
 20 23  1  0  0  0  0
 21 20  1  0  0  0  0
M  END
>  <minimizedAffinity>
-5.84653473

>  <minimizedRMSD>
0.912355721

$$$$
