
 OpenBabel03262521593D

 31 32  0  0  1  0  0  0  0  0999 V2000
   35.9080   29.9250   48.5850 N   0  0  0  0  0  0  0  0  0  0  0  0
   36.6050   28.9730   49.3790 C   0  0  0  0  0  0  0  0  0  0  0  0
   36.9540   29.3440   50.7580 C   0  0  0  0  0  0  0  0  0  0  0  0
   37.0630   30.7880   51.0950 C   0  0  0  0  0  0  0  0  0  0  0  0
   36.4110   31.7220   50.1250 C   0  0  0  0  0  0  0  0  0  0  0  0
   36.5610   31.1900   48.6900 C   0  0  1  0  0  0  0  0  0  0  0  0
   35.9210   28.0710   49.3780 H   0  0  0  0  0  0  0  0  0  0  0  0
   37.5150   28.5210   48.8810 H   0  0  0  0  0  0  0  0  0  0  0  0
   36.2670   28.7990   51.4730 H   0  0  0  0  0  0  0  0  0  0  0  0
   37.9540   28.9020   51.0550 H   0  0  0  0  0  0  0  0  0  0  0  0
   36.4700   30.9610   52.0430 H   0  0  0  0  0  0  0  0  0  0  0  0
   38.0770   31.1150   51.4530 H   0  0  0  0  0  0  0  0  0  0  0  0
   36.8310   32.7270   50.2210 H   0  0  0  0  0  0  0  0  0  0  0  0
   35.3130   31.7490   50.2830 H   0  0  0  0  0  0  0  0  0  0  0  0
   35.9280   31.8920   48.1020 H   0  0  0  0  0  0  0  0  0  0  0  0
   34.7330   29.6600   47.8000 C   0  0  0  0  0  0  0  0  0  0  0  0
   34.4990   30.1710   46.5250 C   0  0  0  0  0  0  0  0  0  0  0  0
   33.3070   29.8210   45.8930 C   0  0  0  0  0  0  0  0  0  0  0  0
   32.4440   28.9960   46.5680 N   0  0  0  0  0  0  0  0  0  0  0  0
   32.6970   28.5270   47.7800 C   0  0  0  0  0  0  0  0  0  0  0  0
   33.8350   28.8620   48.3830 N   0  0  0  0  0  0  0  0  0  0  0  0
   35.2560   30.8010   46.1190 H   0  0  0  0  0  0  0  0  0  0  0  0
   33.1280   30.2220   44.8980 H   0  0  0  0  0  0  0  0  0  0  0  0
   31.6990   27.6420   48.4260 C   0  0  0  0  0  0  0  0  0  0  0  0
   31.4950   28.0460   49.7110 F   0  0  0  0  0  0  0  0  0  0  0  0
   30.4930   27.6940   47.7270 F   0  0  0  0  0  0  0  0  0  0  0  0
   32.1410   26.3340   48.4050 F   0  0  0  0  0  0  0  0  0  0  0  0
   38.0030   31.2260   48.3180 C   0  0  0  0  0  0  0  0  0  0  0  0
   38.1590   32.3370   47.4760 F   0  0  0  0  0  0  0  0  0  0  0  0
   38.3150   30.1640   47.5090 F   0  0  0  0  0  0  0  0  0  0  0  0
   38.8800   31.4120   49.3290 F   0  0  0  0  0  0  0  0  0  0  0  0
  1  6  1  0  0  0  0
  1  2  1  0  0  0  0
  2  3  1  0  0  0  0
  3 10  1  0  0  0  0
  3  4  1  0  0  0  0
  3  9  1  0  0  0  0
  4 12  1  0  0  0  0
  4 11  1  0  0  0  0
  5 13  1  0  0  0  0
  5 14  1  0  0  0  0
  5  4  1  0  0  0  0
  6 15  1  6  0  0  0
  6  5  1  0  0  0  0
  7  2  1  0  0  0  0
  8  2  1  0  0  0  0
 16 21  1  0  0  0  0
 16  1  1  0  0  0  0
 17 16  2  0  0  0  0
 18 17  1  0  0  0  0
 18 19  2  0  0  0  0
 19 20  1  0  0  0  0
 20 21  2  0  0  0  0
 20 24  1  0  0  0  0
 22 17  1  0  0  0  0
 23 18  1  0  0  0  0
 24 25  1  0  0  0  0
 26 24  1  0  0  0  0
 27 24  1  0  0  0  0
 28  6  1  0  0  0  0
 28 31  1  0  0  0  0
 29 28  1  0  0  0  0
 30 28  1  0  0  0  0
M  END
>  <minimizedAffinity>
-5.43456173

>  <minimizedRMSD>
0.742412865

$$$$
