
 OpenBabel03272509553D

 38 40  0  0  0  0  0  0  0  0999 V2000
   36.3000   30.3900   31.5460 C   0  0  0  0  0  0  0  0  0  0  0  0
   35.6950   31.0670   32.6240 C   0  0  0  0  0  0  0  0  0  0  0  0
   35.4330   30.3520   33.7720 C   0  0  0  0  0  0  0  0  0  0  0  0
   35.7890   29.0240   33.7620 N   0  0  0  0  0  0  0  0  0  0  0  0
   36.3590   28.4110   32.7290 C   0  0  0  0  0  0  0  0  0  0  0  0
   36.6200   29.0990   31.6060 N   0  0  0  0  0  0  0  0  0  0  0  0
   36.4940   30.9800   30.6590 H   0  0  0  0  0  0  0  0  0  0  0  0
   35.4310   32.0890   32.6080 H   0  0  0  0  0  0  0  0  0  0  0  0
   36.6590   31.9530   35.8460 F   0  0  0  0  0  0  0  0  0  0  0  0
   35.3790   31.6170   35.9500 C   0  0  0  0  0  0  0  0  0  0  0  0
   34.8230   30.8680   34.9700 C   0  0  0  0  0  0  0  0  0  0  0  0
   33.4710   30.5800   35.1910 C   0  0  0  0  0  0  0  0  0  0  0  0
   32.7940   31.0180   36.2920 C   0  0  0  0  0  0  0  0  0  0  0  0
   33.3990   31.7720   37.2540 C   0  0  0  0  0  0  0  0  0  0  0  0
   34.7160   32.0700   37.0680 C   0  0  0  0  0  0  0  0  0  0  0  0
   32.9250   29.9760   34.4530 H   0  0  0  0  0  0  0  0  0  0  0  0
   31.7340   30.7470   36.3900 H   0  0  0  0  0  0  0  0  0  0  0  0
   32.8230   32.0970   38.1100 H   0  0  0  0  0  0  0  0  0  0  0  0
   35.2180   32.6700   37.8230 H   0  0  0  0  0  0  0  0  0  0  0  0
   36.6150   27.0890   32.9710 O   0  0  0  0  0  0  0  0  0  0  0  0
   37.9650   26.6570   33.0490 C   0  0  0  0  0  0  0  0  0  0  0  0
   38.6240   27.2400   32.3700 H   0  0  0  0  0  0  0  0  0  0  0  0
   38.0040   25.5990   32.7090 H   0  0  0  0  0  0  0  0  0  0  0  0
   38.4410   26.6780   34.4750 C   0  0  0  0  0  0  0  0  0  0  0  0
   39.5000   27.0080   34.4590 H   0  0  0  0  0  0  0  0  0  0  0  0
   37.9050   27.4380   35.0870 H   0  0  0  0  0  0  0  0  0  0  0  0
   38.3270   25.3610   35.1360 C   0  0  0  0  0  0  0  0  0  0  0  0
   38.2210   24.2340   34.3230 C   0  0  0  0  0  0  0  0  0  0  0  0
   38.1100   22.9720   34.8410 C   0  0  0  0  0  0  0  0  0  0  0  0
   38.1030   22.8080   36.1570 N   0  0  0  0  0  0  0  0  0  0  0  0
   38.2070   23.9130   36.9580 C   0  0  0  0  0  0  0  0  0  0  0  0
   38.3190   25.1820   36.4810 N   0  0  0  0  0  0  0  0  0  0  0  0
   38.2260   24.3620   33.2400 H   0  0  0  0  0  0  0  0  0  0  0  0
   38.0300   22.1190   34.1830 H   0  0  0  0  0  0  0  0  0  0  0  0
   38.2090   23.8330   38.4520 C   0  0  0  0  0  0  0  0  0  0  0  0
   37.2960   22.8450   38.8440 F   0  0  0  0  0  0  0  0  0  0  0  0
   37.8930   25.0260   39.0430 F   0  0  0  0  0  0  0  0  0  0  0  0
   39.4320   23.3980   38.9180 F   0  0  0  0  0  0  0  0  0  0  0  0
  1  6  2  0  0  0  0
  1  2  1  0  0  0  0
  2  3  2  0  0  0  0
  3 11  1  0  0  0  0
  4  3  1  0  0  0  0
  5 20  1  0  0  0  0
  5  4  2  0  0  0  0
  6  5  1  0  0  0  0
  7  1  1  0  0  0  0
  8  2  1  0  0  0  0
  9 10  1  0  0  0  0
 10 15  1  0  0  0  0
 11 12  1  0  0  0  0
 11 10  2  0  0  0  0
 12 13  2  0  0  0  0
 13 17  1  0  0  0  0
 13 14  1  0  0  0  0
 14 18  1  0  0  0  0
 15 14  2  0  0  0  0
 15 19  1  0  0  0  0
 16 12  1  0  0  0  0
 20 21  1  0  0  0  0
 21 24  1  0  0  0  0
 22 21  1  0  0  0  0
 23 21  1  0  0  0  0
 24 26  1  0  0  0  0
 24 27  1  0  0  0  0
 25 24  1  0  0  0  0
 27 32  1  0  0  0  0
 28 29  1  0  0  0  0
 28 27  2  0  0  0  0
 29 30  2  0  0  0  0
 30 31  1  0  0  0  0
 31 35  1  0  0  0  0
 32 31  2  0  0  0  0
 33 28  1  0  0  0  0
 34 29  1  0  0  0  0
 35 36  1  0  0  0  0
 35 38  1  0  0  0  0
 35 37  1  0  0  0  0
M  END
>  <minimizedAffinity>
-6.65243769

$$$$

 OpenBabel03272509553D

 38 40  0  0  0  0  0  0  0  0999 V2000
   43.5040   26.9020   33.8010 C   0  0  0  0  0  0  0  0  0  0  0  0
   42.1150   27.1230   33.7070 C   0  0  0  0  0  0  0  0  0  0  0  0
   41.2820   26.3390   34.4730 C   0  0  0  0  0  0  0  0  0  0  0  0
   41.8870   25.3980   35.2710 N   0  0  0  0  0  0  0  0  0  0  0  0
   43.2020   25.2100   35.3400 C   0  0  0  0  0  0  0  0  0  0  0  0
   44.0230   25.9700   34.5980 N   0  0  0  0  0  0  0  0  0  0  0  0
   44.1320   27.5350   33.1870 H   0  0  0  0  0  0  0  0  0  0  0  0
   41.6730   27.8540   33.0860 H   0  0  0  0  0  0  0  0  0  0  0  0
   39.3830   25.1110   32.6680 F   0  0  0  0  0  0  0  0  0  0  0  0
   38.9410   25.8520   33.6770 C   0  0  0  0  0  0  0  0  0  0  0  0
   39.8440   26.4180   34.5110 C   0  0  0  0  0  0  0  0  0  0  0  0
   39.2580   27.1730   35.5340 C   0  0  0  0  0  0  0  0  0  0  0  0
   37.9060   27.3160   35.6640 C   0  0  0  0  0  0  0  0  0  0  0  0
   37.0360   26.7240   34.7970 C   0  0  0  0  0  0  0  0  0  0  0  0
   37.5750   25.9820   33.7900 C   0  0  0  0  0  0  0  0  0  0  0  0
   39.9050   27.6760   36.2650 H   0  0  0  0  0  0  0  0  0  0  0  0
   37.5280   27.9270   36.4950 H   0  0  0  0  0  0  0  0  0  0  0  0
   35.9730   26.8650   34.9380 H   0  0  0  0  0  0  0  0  0  0  0  0
   36.8990   25.5020   33.0870 H   0  0  0  0  0  0  0  0  0  0  0  0
   43.5510   24.2130   36.2080 O   0  0  0  0  0  0  0  0  0  0  0  0
   43.5370   22.8700   35.7490 C   0  0  0  0  0  0  0  0  0  0  0  0
   44.5640   22.4570   35.6520 H   0  0  0  0  0  0  0  0  0  0  0  0
   43.0860   22.8610   34.7330 H   0  0  0  0  0  0  0  0  0  0  0  0
   42.6560   22.0240   36.6280 C   0  0  0  0  0  0  0  0  0  0  0  0
   42.8380   20.9670   36.3480 H   0  0  0  0  0  0  0  0  0  0  0  0
   42.9380   22.0990   37.7020 H   0  0  0  0  0  0  0  0  0  0  0  0
   41.2220   22.3520   36.4830 C   0  0  0  0  0  0  0  0  0  0  0  0
   40.6260   22.1260   35.2420 C   0  0  0  0  0  0  0  0  0  0  0  0
   39.3050   22.3980   35.0110 C   0  0  0  0  0  0  0  0  0  0  0  0
   38.5610   22.8900   35.9920 N   0  0  0  0  0  0  0  0  0  0  0  0
   39.1430   23.1120   37.2110 C   0  0  0  0  0  0  0  0  0  0  0  0
   40.4510   22.8550   37.4800 N   0  0  0  0  0  0  0  0  0  0  0  0
   41.2330   21.7220   34.4310 H   0  0  0  0  0  0  0  0  0  0  0  0
   38.8740   22.2120   34.0380 H   0  0  0  0  0  0  0  0  0  0  0  0
   38.3890   23.6640   38.3800 C   0  0  0  0  0  0  0  0  0  0  0  0
   39.2720   23.7800   39.4610 F   0  0  0  0  0  0  0  0  0  0  0  0
   37.3180   22.8870   38.7280 F   0  0  0  0  0  0  0  0  0  0  0  0
   37.9620   24.9500   38.1240 F   0  0  0  0  0  0  0  0  0  0  0  0
  1  6  1  0  0  0  0
  2  1  2  0  0  0  0
  2  3  1  0  0  0  0
  3 11  1  0  0  0  0
  3  4  2  0  0  0  0
  4  5  1  0  0  0  0
  5 20  1  0  0  0  0
  6  5  2  0  0  0  0
  7  1  1  0  0  0  0
  8  2  1  0  0  0  0
  9 10  1  0  0  0  0
 10 15  2  0  0  0  0
 10 11  1  0  0  0  0
 11 12  2  0  0  0  0
 12 13  1  0  0  0  0
 12 16  1  0  0  0  0
 13 17  1  0  0  0  0
 14 18  1  0  0  0  0
 14 13  2  0  0  0  0
 15 14  1  0  0  0  0
 19 15  1  0  0  0  0
 21 20  1  0  0  0  0
 21 24  1  0  0  0  0
 22 21  1  0  0  0  0
 23 21  1  0  0  0  0
 24 26  1  0  0  0  0
 25 24  1  0  0  0  0
 27 24  1  0  0  0  0
 27 32  1  0  0  0  0
 28 27  2  0  0  0  0
 29 28  1  0  0  0  0
 29 30  2  0  0  0  0
 30 31  1  0  0  0  0
 31 32  2  0  0  0  0
 31 35  1  0  0  0  0
 33 28  1  0  0  0  0
 34 29  1  0  0  0  0
 35 37  1  0  0  0  0
 35 36  1  0  0  0  0
 38 35  1  0  0  0  0
M  END
>  <minimizedAffinity>
-6.10437918

$$$$

 OpenBabel03272509553D

 38 40  0  0  0  0  0  0  0  0999 V2000
   35.7230   25.8330   31.3650 C   0  0  0  0  0  0  0  0  0  0  0  0
   35.4070   24.4730   31.1740 C   0  0  0  0  0  0  0  0  0  0  0  0
   36.2690   23.5290   31.6870 C   0  0  0  0  0  0  0  0  0  0  0  0
   37.3750   24.0050   32.3480 N   0  0  0  0  0  0  0  0  0  0  0  0
   37.6510   25.2950   32.5130 C   0  0  0  0  0  0  0  0  0  0  0  0
   36.8170   26.2230   32.0180 N   0  0  0  0  0  0  0  0  0  0  0  0
   35.0260   26.5490   30.9510 H   0  0  0  0  0  0  0  0  0  0  0  0
   34.5480   24.1320   30.6620 H   0  0  0  0  0  0  0  0  0  0  0  0
   37.9180   21.6510   30.2300 F   0  0  0  0  0  0  0  0  0  0  0  0
   36.8720   21.2070   30.9170 C   0  0  0  0  0  0  0  0  0  0  0  0
   36.1130   22.1000   31.5920 C   0  0  0  0  0  0  0  0  0  0  0  0
   35.0420   21.5130   32.2760 C   0  0  0  0  0  0  0  0  0  0  0  0
   34.8010   20.1700   32.2550 C   0  0  0  0  0  0  0  0  0  0  0  0
   35.5970   19.3080   31.5590 C   0  0  0  0  0  0  0  0  0  0  0  0
   36.6480   19.8490   30.8820 C   0  0  0  0  0  0  0  0  0  0  0  0
   34.3630   22.1520   32.8560 H   0  0  0  0  0  0  0  0  0  0  0  0
   33.9380   19.7900   32.8190 H   0  0  0  0  0  0  0  0  0  0  0  0
   35.3670   18.2520   31.5710 H   0  0  0  0  0  0  0  0  0  0  0  0
   37.2960   19.1810   30.3200 H   0  0  0  0  0  0  0  0  0  0  0  0
   38.8100   25.5060   33.2060 O   0  0  0  0  0  0  0  0  0  0  0  0
   38.7480   26.1750   34.4570 C   0  0  0  0  0  0  0  0  0  0  0  0
   38.5310   27.2580   34.3360 H   0  0  0  0  0  0  0  0  0  0  0  0
   39.7480   26.0960   34.9360 H   0  0  0  0  0  0  0  0  0  0  0  0
   37.7690   25.4880   35.3700 C   0  0  0  0  0  0  0  0  0  0  0  0
   37.2180   26.2840   35.9120 H   0  0  0  0  0  0  0  0  0  0  0  0
   36.9930   24.9240   34.8060 H   0  0  0  0  0  0  0  0  0  0  0  0
   38.4250   24.5760   36.3300 C   0  0  0  0  0  0  0  0  0  0  0  0
   37.8510   24.4410   37.5940 C   0  0  0  0  0  0  0  0  0  0  0  0
   38.3850   23.6200   38.5490 C   0  0  0  0  0  0  0  0  0  0  0  0
   39.4820   22.9290   38.2740 N   0  0  0  0  0  0  0  0  0  0  0  0
   40.0480   23.0600   37.0350 C   0  0  0  0  0  0  0  0  0  0  0  0
   39.5470   23.8640   36.0590 N   0  0  0  0  0  0  0  0  0  0  0  0
   36.9480   25.0070   37.8270 H   0  0  0  0  0  0  0  0  0  0  0  0
   37.9150   23.5380   39.5190 H   0  0  0  0  0  0  0  0  0  0  0  0
   41.2860   22.3230   36.6270 C   0  0  0  0  0  0  0  0  0  0  0  0
   41.4180   21.1940   37.4460 F   0  0  0  0  0  0  0  0  0  0  0  0
   42.4100   23.0980   36.7100 F   0  0  0  0  0  0  0  0  0  0  0  0
   41.1610   21.8270   35.3470 F   0  0  0  0  0  0  0  0  0  0  0  0
  1  6  1  0  0  0  0
  2  1  2  0  0  0  0
  2  3  1  0  0  0  0
  3  4  2  0  0  0  0
  4  5  1  0  0  0  0
  5 20  1  0  0  0  0
  6  5  2  0  0  0  0
  7  1  1  0  0  0  0
  8  2  1  0  0  0  0
  9 10  1  0  0  0  0
 10 11  1  0  0  0  0
 11  3  1  0  0  0  0
 11 12  2  0  0  0  0
 12 16  1  0  0  0  0
 13 12  1  0  0  0  0
 13 17  1  0  0  0  0
 14 18  1  0  0  0  0
 14 13  2  0  0  0  0
 15 10  2  0  0  0  0
 15 14  1  0  0  0  0
 19 15  1  0  0  0  0
 20 21  1  0  0  0  0
 21 23  1  0  0  0  0
 21 24  1  0  0  0  0
 22 21  1  0  0  0  0
 24 25  1  0  0  0  0
 24 27  1  0  0  0  0
 26 24  1  0  0  0  0
 27 28  1  0  0  0  0
 28 33  1  0  0  0  0
 28 29  2  0  0  0  0
 29 34  1  0  0  0  0
 30 29  1  0  0  0  0
 31 30  2  0  0  0  0
 32 27  2  0  0  0  0
 32 31  1  0  0  0  0
 35 37  1  0  0  0  0
 35 31  1  0  0  0  0
 35 36  1  0  0  0  0
 38 35  1  0  0  0  0
M  END
>  <minimizedAffinity>
-6.07631302

$$$$

 OpenBabel03272509553D

 38 40  0  0  0  0  0  0  0  0999 V2000
   35.5940   25.7720   31.2750 C   0  0  0  0  0  0  0  0  0  0  0  0
   35.2870   24.4010   31.1610 C   0  0  0  0  0  0  0  0  0  0  0  0
   36.2260   23.4900   31.5910 C   0  0  0  0  0  0  0  0  0  0  0  0
   37.3950   24.0060   32.0980 N   0  0  0  0  0  0  0  0  0  0  0  0
   37.6590   25.3060   32.1930 C   0  0  0  0  0  0  0  0  0  0  0  0
   36.7500   26.2030   31.7780 N   0  0  0  0  0  0  0  0  0  0  0  0
   34.8360   26.4620   30.9290 H   0  0  0  0  0  0  0  0  0  0  0  0
   34.3810   24.0280   30.7680 H   0  0  0  0  0  0  0  0  0  0  0  0
   37.8880   21.5800   30.1890 F   0  0  0  0  0  0  0  0  0  0  0  0
   36.8580   21.1490   30.9070 C   0  0  0  0  0  0  0  0  0  0  0  0
   36.0930   22.0560   31.5560 C   0  0  0  0  0  0  0  0  0  0  0  0
   35.0400   21.4810   32.2770 C   0  0  0  0  0  0  0  0  0  0  0  0
   34.8200   20.1340   32.3130 C   0  0  0  0  0  0  0  0  0  0  0  0
   35.6210   19.2580   31.6420 C   0  0  0  0  0  0  0  0  0  0  0  0
   36.6550   19.7870   30.9300 C   0  0  0  0  0  0  0  0  0  0  0  0
   34.3580   22.1320   32.8400 H   0  0  0  0  0  0  0  0  0  0  0  0
   33.9710   19.7640   32.9030 H   0  0  0  0  0  0  0  0  0  0  0  0
   35.4090   18.1990   31.6990 H   0  0  0  0  0  0  0  0  0  0  0  0
   37.3060   19.1070   30.3870 H   0  0  0  0  0  0  0  0  0  0  0  0
   38.8890   25.5600   32.7320 O   0  0  0  0  0  0  0  0  0  0  0  0
   39.7590   24.4700   32.9960 C   0  0  0  0  0  0  0  0  0  0  0  0
   40.2800   24.1260   32.0760 H   0  0  0  0  0  0  0  0  0  0  0  0
   39.1400   23.6190   33.3560 H   0  0  0  0  0  0  0  0  0  0  0  0
   40.7150   24.8180   34.1040 C   0  0  0  0  0  0  0  0  0  0  0  0
   41.7390   24.6420   33.7160 H   0  0  0  0  0  0  0  0  0  0  0  0
   40.6790   25.8990   34.3660 H   0  0  0  0  0  0  0  0  0  0  0  0
   40.4880   24.0190   35.3270 C   0  0  0  0  0  0  0  0  0  0  0  0
   41.5000   23.1490   35.7310 C   0  0  0  0  0  0  0  0  0  0  0  0
   41.3820   22.3690   36.8490 C   0  0  0  0  0  0  0  0  0  0  0  0
   40.2750   22.4350   37.5760 N   0  0  0  0  0  0  0  0  0  0  0  0
   39.2810   23.2880   37.1810 C   0  0  0  0  0  0  0  0  0  0  0  0
   39.3600   24.0800   36.0780 N   0  0  0  0  0  0  0  0  0  0  0  0
   42.4130   23.0890   35.1380 H   0  0  0  0  0  0  0  0  0  0  0  0
   42.1850   21.7050   37.1350 H   0  0  0  0  0  0  0  0  0  0  0  0
   37.9950   23.4370   37.9330 C   0  0  0  0  0  0  0  0  0  0  0  0
   38.1000   22.7230   39.1340 F   0  0  0  0  0  0  0  0  0  0  0  0
   36.9140   22.9970   37.2180 F   0  0  0  0  0  0  0  0  0  0  0  0
   37.7960   24.7480   38.3090 F   0  0  0  0  0  0  0  0  0  0  0  0
  1  6  1  0  0  0  0
  2  1  2  0  0  0  0
  2  3  1  0  0  0  0
  3  4  2  0  0  0  0
  4  5  1  0  0  0  0
  5 20  1  0  0  0  0
  6  5  2  0  0  0  0
  7  1  1  0  0  0  0
  8  2  1  0  0  0  0
  9 10  1  0  0  0  0
 10 15  2  0  0  0  0
 10 11  1  0  0  0  0
 11  3  1  0  0  0  0
 11 12  2  0  0  0  0
 12 13  1  0  0  0  0
 12 16  1  0  0  0  0
 13 17  1  0  0  0  0
 14 18  1  0  0  0  0
 14 13  2  0  0  0  0
 15 14  1  0  0  0  0
 19 15  1  0  0  0  0
 20 21  1  0  0  0  0
 21 23  1  0  0  0  0
 21 24  1  0  0  0  0
 22 21  1  0  0  0  0
 24 26  1  0  0  0  0
 24 27  1  0  0  0  0
 25 24  1  0  0  0  0
 27 28  2  0  0  0  0
 27 32  1  0  0  0  0
 28 29  1  0  0  0  0
 29 34  1  0  0  0  0
 29 30  2  0  0  0  0
 31 30  1  0  0  0  0
 31 35  1  0  0  0  0
 32 31  2  0  0  0  0
 33 28  1  0  0  0  0
 35 38  1  0  0  0  0
 35 36  1  0  0  0  0
 37 35  1  0  0  0  0
M  END
>  <minimizedAffinity>
-6.0748539

$$$$

 OpenBabel03272509553D

 38 40  0  0  0  0  0  0  0  0999 V2000
   35.4220   26.0230   31.0360 C   0  0  0  0  0  0  0  0  0  0  0  0
   36.5410   26.6300   31.6400 C   0  0  0  0  0  0  0  0  0  0  0  0
   37.4030   25.8300   32.3560 C   0  0  0  0  0  0  0  0  0  0  0  0
   37.0900   24.4940   32.4190 N   0  0  0  0  0  0  0  0  0  0  0  0
   36.0260   23.9470   31.8390 C   0  0  0  0  0  0  0  0  0  0  0  0
   35.1800   24.7170   31.1380 N   0  0  0  0  0  0  0  0  0  0  0  0
   34.7640   26.6790   30.4800 H   0  0  0  0  0  0  0  0  0  0  0  0
   36.7610   27.6610   31.5770 H   0  0  0  0  0  0  0  0  0  0  0  0
   37.9030   25.8880   35.2050 F   0  0  0  0  0  0  0  0  0  0  0  0
   38.8450   26.3030   34.3670 C   0  0  0  0  0  0  0  0  0  0  0  0
   38.5940   26.2680   33.0390 C   0  0  0  0  0  0  0  0  0  0  0  0
   39.6620   26.7290   32.2590 C   0  0  0  0  0  0  0  0  0  0  0  0
   40.8360   27.1670   32.8020 C   0  0  0  0  0  0  0  0  0  0  0  0
   41.0420   27.1820   34.1500 C   0  0  0  0  0  0  0  0  0  0  0  0
   40.0200   26.7400   34.9360 C   0  0  0  0  0  0  0  0  0  0  0  0
   39.5600   26.7420   31.1660 H   0  0  0  0  0  0  0  0  0  0  0  0
   41.6240   27.5130   32.1190 H   0  0  0  0  0  0  0  0  0  0  0  0
   41.9870   27.5380   34.5350 H   0  0  0  0  0  0  0  0  0  0  0  0
   40.1630   26.7440   36.0140 H   0  0  0  0  0  0  0  0  0  0  0  0
   35.9400   22.5990   32.0500 O   0  0  0  0  0  0  0  0  0  0  0  0
   37.0930   21.9020   32.4990 C   0  0  0  0  0  0  0  0  0  0  0  0
   38.0240   22.4790   32.3080 H   0  0  0  0  0  0  0  0  0  0  0  0
   37.1700   20.9590   31.9150 H   0  0  0  0  0  0  0  0  0  0  0  0
   36.9410   21.5130   33.9440 C   0  0  0  0  0  0  0  0  0  0  0  0
   35.9240   21.8220   34.2570 H   0  0  0  0  0  0  0  0  0  0  0  0
   36.9720   20.4090   34.0880 H   0  0  0  0  0  0  0  0  0  0  0  0
   37.9570   22.1400   34.8150 C   0  0  0  0  0  0  0  0  0  0  0  0
   39.2580   22.2470   34.3220 C   0  0  0  0  0  0  0  0  0  0  0  0
   40.2660   22.8120   35.0540 C   0  0  0  0  0  0  0  0  0  0  0  0
   40.0080   23.2760   36.2690 N   0  0  0  0  0  0  0  0  0  0  0  0
   38.7330   23.1720   36.7540 C   0  0  0  0  0  0  0  0  0  0  0  0
   37.7040   22.6180   36.0580 N   0  0  0  0  0  0  0  0  0  0  0  0
   39.4770   21.8670   33.3240 H   0  0  0  0  0  0  0  0  0  0  0  0
   41.2630   22.8800   34.6430 H   0  0  0  0  0  0  0  0  0  0  0  0
   38.3400   23.6660   38.1120 C   0  0  0  0  0  0  0  0  0  0  0  0
   37.2860   22.8720   38.5830 F   0  0  0  0  0  0  0  0  0  0  0  0
   37.9700   24.9830   38.1060 F   0  0  0  0  0  0  0  0  0  0  0  0
   39.3640   23.4790   39.0160 F   0  0  0  0  0  0  0  0  0  0  0  0
  1  6  2  0  0  0  0
  1  2  1  0  0  0  0
  2  3  2  0  0  0  0
  3  4  1  0  0  0  0
  3 11  1  0  0  0  0
  5 20  1  0  0  0  0
  5  4  2  0  0  0  0
  6  5  1  0  0  0  0
  7  1  1  0  0  0  0
  8  2  1  0  0  0  0
 10 15  1  0  0  0  0
 10  9  1  0  0  0  0
 11 10  2  0  0  0  0
 12 13  2  0  0  0  0
 12 11  1  0  0  0  0
 13 14  1  0  0  0  0
 14 18  1  0  0  0  0
 14 15  2  0  0  0  0
 15 19  1  0  0  0  0
 16 12  1  0  0  0  0
 17 13  1  0  0  0  0
 20 21  1  0  0  0  0
 21 24  1  0  0  0  0
 22 21  1  0  0  0  0
 23 21  1  0  0  0  0
 24 26  1  0  0  0  0
 24 25  1  0  0  0  0
 24 27  1  0  0  0  0
 27 32  1  0  0  0  0
 28 27  2  0  0  0  0
 28 29  1  0  0  0  0
 29 30  2  0  0  0  0
 30 31  1  0  0  0  0
 31 35  1  0  0  0  0
 32 31  2  0  0  0  0
 33 28  1  0  0  0  0
 34 29  1  0  0  0  0
 35 36  1  0  0  0  0
 35 38  1  0  0  0  0
 37 35  1  0  0  0  0
M  END
>  <minimizedAffinity>
-6.0179019

$$$$

 OpenBabel03272509553D

 38 40  0  0  0  0  0  0  0  0999 V2000
   36.5220   29.5020   31.4590 C   0  0  0  0  0  0  0  0  0  0  0  0
   35.8700   30.3050   32.4160 C   0  0  0  0  0  0  0  0  0  0  0  0
   35.6330   29.7650   33.6610 C   0  0  0  0  0  0  0  0  0  0  0  0
   36.0600   28.4740   33.8600 N   0  0  0  0  0  0  0  0  0  0  0  0
   36.6720   27.7380   32.9370 C   0  0  0  0  0  0  0  0  0  0  0  0
   36.9090   28.2550   31.7210 N   0  0  0  0  0  0  0  0  0  0  0  0
   36.6930   29.9560   30.4910 H   0  0  0  0  0  0  0  0  0  0  0  0
   35.5520   31.2960   32.2390 H   0  0  0  0  0  0  0  0  0  0  0  0
   32.8640   29.5700   34.4760 F   0  0  0  0  0  0  0  0  0  0  0  0
   33.6930   30.3500   35.1580 C   0  0  0  0  0  0  0  0  0  0  0  0
   34.9840   30.4290   34.7620 C   0  0  0  0  0  0  0  0  0  0  0  0
   35.7580   31.2810   35.5580 C   0  0  0  0  0  0  0  0  0  0  0  0
   35.2460   31.9600   36.6260 C   0  0  0  0  0  0  0  0  0  0  0  0
   33.9350   31.8480   36.9870 C   0  0  0  0  0  0  0  0  0  0  0  0
   33.1550   31.0250   36.2310 C   0  0  0  0  0  0  0  0  0  0  0  0
   36.8220   31.4150   35.3210 H   0  0  0  0  0  0  0  0  0  0  0  0
   35.9220   32.6100   37.1990 H   0  0  0  0  0  0  0  0  0  0  0  0
   33.5730   32.4050   37.8400 H   0  0  0  0  0  0  0  0  0  0  0  0
   32.1070   30.9210   36.5000 H   0  0  0  0  0  0  0  0  0  0  0  0
   36.9950   26.4860   33.3840 O   0  0  0  0  0  0  0  0  0  0  0  0
   38.3610   26.1000   33.4080 C   0  0  0  0  0  0  0  0  0  0  0  0
   38.9350   26.5610   32.5760 H   0  0  0  0  0  0  0  0  0  0  0  0
   38.4070   24.9990   33.2630 H   0  0  0  0  0  0  0  0  0  0  0  0
   38.9640   26.3900   34.7550 C   0  0  0  0  0  0  0  0  0  0  0  0
   40.0060   26.7270   34.5780 H   0  0  0  0  0  0  0  0  0  0  0  0
   38.4610   27.2420   35.2660 H   0  0  0  0  0  0  0  0  0  0  0  0
   38.9530   25.2160   35.6520 C   0  0  0  0  0  0  0  0  0  0  0  0
   37.8090   24.9950   36.4190 C   0  0  0  0  0  0  0  0  0  0  0  0
   37.7040   23.9350   37.2770 C   0  0  0  0  0  0  0  0  0  0  0  0
   38.7160   23.0870   37.3900 N   0  0  0  0  0  0  0  0  0  0  0  0
   39.8400   23.3010   36.6400 C   0  0  0  0  0  0  0  0  0  0  0  0
   39.9820   24.3410   35.7750 N   0  0  0  0  0  0  0  0  0  0  0  0
   36.9720   25.6900   36.3310 H   0  0  0  0  0  0  0  0  0  0  0  0
   36.8030   23.7930   37.8570 H   0  0  0  0  0  0  0  0  0  0  0  0
   41.0350   22.4010   36.6950 C   0  0  0  0  0  0  0  0  0  0  0  0
   40.9010   21.5560   37.8040 F   0  0  0  0  0  0  0  0  0  0  0  0
   42.2120   23.0950   36.7720 F   0  0  0  0  0  0  0  0  0  0  0  0
   41.0660   21.5600   35.6030 F   0  0  0  0  0  0  0  0  0  0  0  0
  1  6  2  0  0  0  0
  1  2  1  0  0  0  0
  2  3  2  0  0  0  0
  3  4  1  0  0  0  0
  3 11  1  0  0  0  0
  5 20  1  0  0  0  0
  5  4  2  0  0  0  0
  6  5  1  0  0  0  0
  7  1  1  0  0  0  0
  8  2  1  0  0  0  0
  9 10  1  0  0  0  0
 10 15  1  0  0  0  0
 11 10  2  0  0  0  0
 11 12  1  0  0  0  0
 12 13  2  0  0  0  0
 13 14  1  0  0  0  0
 13 17  1  0  0  0  0
 14 18  1  0  0  0  0
 15 19  1  0  0  0  0
 15 14  2  0  0  0  0
 16 12  1  0  0  0  0
 20 21  1  0  0  0  0
 21 24  1  0  0  0  0
 22 21  1  0  0  0  0
 23 21  1  0  0  0  0
 24 26  1  0  0  0  0
 24 27  1  0  0  0  0
 25 24  1  0  0  0  0
 27 32  2  0  0  0  0
 27 28  1  0  0  0  0
 28 29  2  0  0  0  0
 29 30  1  0  0  0  0
 29 34  1  0  0  0  0
 31 35  1  0  0  0  0
 31 30  2  0  0  0  0
 32 31  1  0  0  0  0
 33 28  1  0  0  0  0
 35 37  1  0  0  0  0
 35 36  1  0  0  0  0
 38 35  1  0  0  0  0
M  END
>  <minimizedAffinity>
-5.98035336

$$$$

 OpenBabel03272509553D

 38 40  0  0  0  0  0  0  0  0999 V2000
   37.4630   27.8950   35.0550 C   0  0  0  0  0  0  0  0  0  0  0  0
   38.1130   26.9520   35.8760 C   0  0  0  0  0  0  0  0  0  0  0  0
   38.2730   25.6730   35.3920 C   0  0  0  0  0  0  0  0  0  0  0  0
   37.7770   25.4270   34.1340 N   0  0  0  0  0  0  0  0  0  0  0  0
   37.1670   26.3370   33.3800 C   0  0  0  0  0  0  0  0  0  0  0  0
   37.0070   27.5870   33.8420 N   0  0  0  0  0  0  0  0  0  0  0  0
   37.3540   28.8910   35.4640 H   0  0  0  0  0  0  0  0  0  0  0  0
   38.4860   27.1660   36.8410 H   0  0  0  0  0  0  0  0  0  0  0  0
   37.4260   24.3780   37.8370 F   0  0  0  0  0  0  0  0  0  0  0  0
   38.5280   23.9620   37.2240 C   0  0  0  0  0  0  0  0  0  0  0  0
   38.9080   24.5800   36.0830 C   0  0  0  0  0  0  0  0  0  0  0  0
   40.0830   24.0540   35.5310 C   0  0  0  0  0  0  0  0  0  0  0  0
   40.7660   23.0190   36.1020 C   0  0  0  0  0  0  0  0  0  0  0  0
   40.3420   22.4280   37.2550 C   0  0  0  0  0  0  0  0  0  0  0  0
   39.2010   22.9180   37.8170 C   0  0  0  0  0  0  0  0  0  0  0  0
   40.4780   24.4860   34.6020 H   0  0  0  0  0  0  0  0  0  0  0  0
   41.6800   22.6660   35.6050 H   0  0  0  0  0  0  0  0  0  0  0  0
   40.9160   21.6110   37.6710 H   0  0  0  0  0  0  0  0  0  0  0  0
   38.8450   22.4610   38.7370 H   0  0  0  0  0  0  0  0  0  0  0  0
   36.7670   25.8410   32.1700 O   0  0  0  0  0  0  0  0  0  0  0  0
   36.4320   24.4650   32.0710 C   0  0  0  0  0  0  0  0  0  0  0  0
   35.3460   24.3180   31.8820 H   0  0  0  0  0  0  0  0  0  0  0  0
   36.6590   23.9880   33.0480 H   0  0  0  0  0  0  0  0  0  0  0  0
   37.2930   23.7880   31.0400 C   0  0  0  0  0  0  0  0  0  0  0  0
   36.9100   24.0940   30.0460 H   0  0  0  0  0  0  0  0  0  0  0  0
   38.3470   24.1450   31.0730 H   0  0  0  0  0  0  0  0  0  0  0  0
   37.2790   22.3150   31.1620 C   0  0  0  0  0  0  0  0  0  0  0  0
   38.2640   21.5980   30.4830 C   0  0  0  0  0  0  0  0  0  0  0  0
   38.3340   20.2330   30.5360 C   0  0  0  0  0  0  0  0  0  0  0  0
   37.4410   19.5630   31.2510 N   0  0  0  0  0  0  0  0  0  0  0  0
   36.4730   20.2640   31.9180 C   0  0  0  0  0  0  0  0  0  0  0  0
   36.3710   21.6200   31.8920 N   0  0  0  0  0  0  0  0  0  0  0  0
   39.0020   22.1430   29.8930 H   0  0  0  0  0  0  0  0  0  0  0  0
   39.1100   19.7070   29.9980 H   0  0  0  0  0  0  0  0  0  0  0  0
   35.4220   19.6010   32.7510 C   0  0  0  0  0  0  0  0  0  0  0  0
   35.2780   20.3260   33.9410 F   0  0  0  0  0  0  0  0  0  0  0  0
   35.7180   18.2940   33.0290 F   0  0  0  0  0  0  0  0  0  0  0  0
   34.1900   19.6730   32.1350 F   0  0  0  0  0  0  0  0  0  0  0  0
  1  7  1  0  0  0  0
  1  2  1  0  0  0  0
  2  8  1  0  0  0  0
  3  2  2  0  0  0  0
  3 11  1  0  0  0  0
  4  3  1  0  0  0  0
  5  6  1  0  0  0  0
  5  4  2  0  0  0  0
  6  1  2  0  0  0  0
 10 15  1  0  0  0  0
 10  9  1  0  0  0  0
 11 10  2  0  0  0  0
 12 11  1  0  0  0  0
 12 13  2  0  0  0  0
 13 14  1  0  0  0  0
 14 18  1  0  0  0  0
 14 15  2  0  0  0  0
 15 19  1  0  0  0  0
 16 12  1  0  0  0  0
 17 13  1  0  0  0  0
 20  5  1  0  0  0  0
 21 20  1  0  0  0  0
 21 23  1  0  0  0  0
 22 21  1  0  0  0  0
 24 26  1  0  0  0  0
 24 27  1  0  0  0  0
 24 21  1  0  0  0  0
 25 24  1  0  0  0  0
 27 32  1  0  0  0  0
 28 29  1  0  0  0  0
 28 27  2  0  0  0  0
 29 30  2  0  0  0  0
 30 31  1  0  0  0  0
 31 35  1  0  0  0  0
 32 31  2  0  0  0  0
 33 28  1  0  0  0  0
 34 29  1  0  0  0  0
 35 37  1  0  0  0  0
 35 36  1  0  0  0  0
 38 35  1  0  0  0  0
M  END
>  <minimizedAffinity>
-5.9354887

$$$$

 OpenBabel03272509553D

 38 40  0  0  0  0  0  0  0  0999 V2000
   35.9950   29.8300   31.7160 C   0  0  0  0  0  0  0  0  0  0  0  0
   35.3710   30.6190   32.7030 C   0  0  0  0  0  0  0  0  0  0  0  0
   35.3570   30.1460   33.9960 C   0  0  0  0  0  0  0  0  0  0  0  0
   35.9590   28.9300   34.2110 N   0  0  0  0  0  0  0  0  0  0  0  0
   36.5410   28.2050   33.2600 C   0  0  0  0  0  0  0  0  0  0  0  0
   36.5620   28.6580   31.9960 N   0  0  0  0  0  0  0  0  0  0  0  0
   35.9910   30.2300   30.7100 H   0  0  0  0  0  0  0  0  0  0  0  0
   34.9150   31.5530   32.5130 H   0  0  0  0  0  0  0  0  0  0  0  0
   36.6570   31.8770   35.9160 F   0  0  0  0  0  0  0  0  0  0  0  0
   35.3600   31.6200   36.0400 C   0  0  0  0  0  0  0  0  0  0  0  0
   34.7700   30.8090   35.1330 C   0  0  0  0  0  0  0  0  0  0  0  0
   33.4040   30.6130   35.3690 C   0  0  0  0  0  0  0  0  0  0  0  0
   32.7460   31.1920   36.4160 C   0  0  0  0  0  0  0  0  0  0  0  0
   33.3860   32.0040   37.3050 C   0  0  0  0  0  0  0  0  0  0  0  0
   34.7170   32.2140   37.1020 C   0  0  0  0  0  0  0  0  0  0  0  0
   32.8300   29.9700   34.6890 H   0  0  0  0  0  0  0  0  0  0  0  0
   31.6730   30.9870   36.5300 H   0  0  0  0  0  0  0  0  0  0  0  0
   32.8250   32.4400   38.1200 H   0  0  0  0  0  0  0  0  0  0  0  0
   35.2470   32.8580   37.8000 H   0  0  0  0  0  0  0  0  0  0  0  0
   37.0670   27.0340   33.7310 O   0  0  0  0  0  0  0  0  0  0  0  0
   38.3690   27.0480   34.2970 C   0  0  0  0  0  0  0  0  0  0  0  0
   38.8620   28.0370   34.1720 H   0  0  0  0  0  0  0  0  0  0  0  0
   38.9870   26.3050   33.7490 H   0  0  0  0  0  0  0  0  0  0  0  0
   38.3210   26.6050   35.7340 C   0  0  0  0  0  0  0  0  0  0  0  0
   39.2610   26.9490   36.2110 H   0  0  0  0  0  0  0  0  0  0  0  0
   37.5020   27.1030   36.3010 H   0  0  0  0  0  0  0  0  0  0  0  0
   38.1810   25.1400   35.8760 C   0  0  0  0  0  0  0  0  0  0  0  0
   37.9800   24.6280   37.1570 C   0  0  0  0  0  0  0  0  0  0  0  0
   37.8390   23.2880   37.3890 C   0  0  0  0  0  0  0  0  0  0  0  0
   37.8950   22.4420   36.3700 N   0  0  0  0  0  0  0  0  0  0  0  0
   38.0930   22.9410   35.1110 C   0  0  0  0  0  0  0  0  0  0  0  0
   38.2360   24.2660   34.8400 N   0  0  0  0  0  0  0  0  0  0  0  0
   37.9330   25.3190   38.0000 H   0  0  0  0  0  0  0  0  0  0  0  0
   37.6840   22.9230   38.3940 H   0  0  0  0  0  0  0  0  0  0  0  0
   38.1700   22.0700   33.8960 C   0  0  0  0  0  0  0  0  0  0  0  0
   38.1260   22.8890   32.7610 F   0  0  0  0  0  0  0  0  0  0  0  0
   37.1630   21.1450   33.8480 F   0  0  0  0  0  0  0  0  0  0  0  0
   39.3890   21.4280   33.8310 F   0  0  0  0  0  0  0  0  0  0  0  0
  1  6  2  0  0  0  0
  1  2  1  0  0  0  0
  2  3  2  0  0  0  0
  3  4  1  0  0  0  0
  3 11  1  0  0  0  0
  5 20  1  0  0  0  0
  5  4  2  0  0  0  0
  6  5  1  0  0  0  0
  7  1  1  0  0  0  0
  8  2  1  0  0  0  0
  9 10  1  0  0  0  0
 10 15  1  0  0  0  0
 11 12  1  0  0  0  0
 11 10  2  0  0  0  0
 12 13  2  0  0  0  0
 13 17  1  0  0  0  0
 13 14  1  0  0  0  0
 14 18  1  0  0  0  0
 15 14  2  0  0  0  0
 15 19  1  0  0  0  0
 16 12  1  0  0  0  0
 20 21  1  0  0  0  0
 21 24  1  0  0  0  0
 22 21  1  0  0  0  0
 23 21  1  0  0  0  0
 24 27  1  0  0  0  0
 24 25  1  0  0  0  0
 24 26  1  0  0  0  0
 27 28  1  0  0  0  0
 28 29  2  0  0  0  0
 28 33  1  0  0  0  0
 29 34  1  0  0  0  0
 30 29  1  0  0  0  0
 31 30  2  0  0  0  0
 32 31  1  0  0  0  0
 32 27  2  0  0  0  0
 35 31  1  0  0  0  0
 36 35  1  0  0  0  0
 37 35  1  0  0  0  0
 38 35  1  0  0  0  0
M  END
>  <minimizedAffinity>
-5.92540884

$$$$

 OpenBabel03272509553D

 38 40  0  0  0  0  0  0  0  0999 V2000
   36.8180   29.7220   29.9810 C   0  0  0  0  0  0  0  0  0  0  0  0
   36.1080   30.2840   31.0610 C   0  0  0  0  0  0  0  0  0  0  0  0
   35.6040   29.4320   32.0180 C   0  0  0  0  0  0  0  0  0  0  0  0
   35.8400   28.0910   31.8300 N   0  0  0  0  0  0  0  0  0  0  0  0
   36.5130   27.5870   30.8000 C   0  0  0  0  0  0  0  0  0  0  0  0
   37.0100   28.4090   29.8620 N   0  0  0  0  0  0  0  0  0  0  0  0
   37.2020   30.4180   29.2470 H   0  0  0  0  0  0  0  0  0  0  0  0
   35.9400   31.3200   31.1830 H   0  0  0  0  0  0  0  0  0  0  0  0
   32.8460   28.8280   32.6490 F   0  0  0  0  0  0  0  0  0  0  0  0
   33.5690   29.5470   33.4990 C   0  0  0  0  0  0  0  0  0  0  0  0
   34.8560   29.8190   33.1870 C   0  0  0  0  0  0  0  0  0  0  0  0
   35.5140   30.5830   34.1590 C   0  0  0  0  0  0  0  0  0  0  0  0
   34.9030   31.0040   35.3040 C   0  0  0  0  0  0  0  0  0  0  0  0
   33.6000   30.7030   35.5750 C   0  0  0  0  0  0  0  0  0  0  0  0
   32.9320   29.9610   34.6480 C   0  0  0  0  0  0  0  0  0  0  0  0
   36.5660   30.8590   34.0010 H   0  0  0  0  0  0  0  0  0  0  0  0
   35.4900   31.6000   36.0160 H   0  0  0  0  0  0  0  0  0  0  0  0
   33.1570   31.0580   36.4950 H   0  0  0  0  0  0  0  0  0  0  0  0
   31.8930   29.7100   34.8430 H   0  0  0  0  0  0  0  0  0  0  0  0
   36.6100   26.2240   30.8450 O   0  0  0  0  0  0  0  0  0  0  0  0
   36.4330   25.5660   32.0910 C   0  0  0  0  0  0  0  0  0  0  0  0
   35.7180   24.7190   32.0120 H   0  0  0  0  0  0  0  0  0  0  0  0
   35.9930   26.2970   32.8030 H   0  0  0  0  0  0  0  0  0  0  0  0
   37.7630   25.1480   32.6560 C   0  0  0  0  0  0  0  0  0  0  0  0
   37.8100   24.0420   32.5890 H   0  0  0  0  0  0  0  0  0  0  0  0
   38.6150   25.5170   32.0430 H   0  0  0  0  0  0  0  0  0  0  0  0
   37.9520   25.5840   34.0560 C   0  0  0  0  0  0  0  0  0  0  0  0
   38.1370   26.9460   34.2920 C   0  0  0  0  0  0  0  0  0  0  0  0
   38.3200   27.4450   35.5520 C   0  0  0  0  0  0  0  0  0  0  0  0
   38.3220   26.6160   36.5870 N   0  0  0  0  0  0  0  0  0  0  0  0
   38.1400   25.2790   36.3580 C   0  0  0  0  0  0  0  0  0  0  0  0
   37.9550   24.7440   35.1210 N   0  0  0  0  0  0  0  0  0  0  0  0
   38.1370   27.6330   33.4450 H   0  0  0  0  0  0  0  0  0  0  0  0
   38.4610   28.5060   35.7010 H   0  0  0  0  0  0  0  0  0  0  0  0
   38.1260   24.2630   37.4570 C   0  0  0  0  0  0  0  0  0  0  0  0
   39.3610   23.6020   37.4650 F   0  0  0  0  0  0  0  0  0  0  0  0
   37.1080   23.3580   37.3230 F   0  0  0  0  0  0  0  0  0  0  0  0
   38.0380   24.8770   38.6890 F   0  0  0  0  0  0  0  0  0  0  0  0
  1  2  1  0  0  0  0
  2  8  1  0  0  0  0
  2  3  2  0  0  0  0
  3 11  1  0  0  0  0
  4  3  1  0  0  0  0
  5 20  1  0  0  0  0
  5  4  2  0  0  0  0
  6  1  2  0  0  0  0
  6  5  1  0  0  0  0
  7  1  1  0  0  0  0
  9 10  1  0  0  0  0
 10 15  1  0  0  0  0
 11 10  2  0  0  0  0
 11 12  1  0  0  0  0
 12 13  2  0  0  0  0
 13 14  1  0  0  0  0
 13 17  1  0  0  0  0
 14 18  1  0  0  0  0
 15 19  1  0  0  0  0
 15 14  2  0  0  0  0
 16 12  1  0  0  0  0
 20 21  1  0  0  0  0
 21 24  1  0  0  0  0
 21 23  1  0  0  0  0
 22 21  1  0  0  0  0
 24 27  1  0  0  0  0
 25 24  1  0  0  0  0
 26 24  1  0  0  0  0
 27 28  2  0  0  0  0
 27 32  1  0  0  0  0
 28 29  1  0  0  0  0
 29 34  1  0  0  0  0
 29 30  2  0  0  0  0
 31 30  1  0  0  0  0
 31 35  1  0  0  0  0
 32 31  2  0  0  0  0
 33 28  1  0  0  0  0
 35 36  1  0  0  0  0
 35 38  1  0  0  0  0
 37 35  1  0  0  0  0
M  END
>  <minimizedAffinity>
-5.8471446

$$$$
