
 OpenBabel03272503213D

 30 32  0  0  0  0  0  0  0  0999 V2000
   37.7600   25.2060   33.8580 C   0  0  0  0  0  0  0  0  0  0  0  0
   37.2120   24.9350   32.6740 C   0  0  0  0  0  0  0  0  0  0  0  0
   36.6350   25.9090   31.9580 C   0  0  0  0  0  0  0  0  0  0  0  0
   36.6370   27.1820   32.4960 C   0  0  0  0  0  0  0  0  0  0  0  0
   37.5050   26.9250   34.0790 S   0  0  0  0  0  0  0  0  0  0  0  0
   37.2520   23.9010   32.3220 H   0  0  0  0  0  0  0  0  0  0  0  0
   36.1560   25.8270   30.9890 H   0  0  0  0  0  0  0  0  0  0  0  0
   38.2980   28.5500   30.3270 Cl  0  0  0  0  0  0  0  0  0  0  0  0
   36.8180   29.1210   31.0640 C   0  0  0  0  0  0  0  0  0  0  0  0
   36.1270   28.4540   32.0320 C   0  0  0  0  0  0  0  0  0  0  0  0
   34.9860   28.8490   32.6300 C   0  0  0  0  0  0  0  0  0  0  0  0
   34.4190   30.0690   32.2460 C   0  0  0  0  0  0  0  0  0  0  0  0
   35.0590   30.8000   31.2750 C   0  0  0  0  0  0  0  0  0  0  0  0
   34.4330   32.3420   30.7200 Cl  0  0  0  0  0  0  0  0  0  0  0  0
   36.2390   30.3420   30.6880 C   0  0  0  0  0  0  0  0  0  0  0  0
   34.4490   28.3020   33.4010 H   0  0  0  0  0  0  0  0  0  0  0  0
   33.5070   30.4490   32.6810 H   0  0  0  0  0  0  0  0  0  0  0  0
   36.7500   30.9250   29.9140 H   0  0  0  0  0  0  0  0  0  0  0  0
   40.0700   22.6910   35.4420 C   0  0  0  0  0  0  0  0  0  0  0  0
   39.4530   23.4690   34.4490 C   0  0  0  0  0  0  0  0  0  0  0  0
   38.4460   24.3610   34.8410 C   0  0  0  0  0  0  0  0  0  0  0  0
   38.1060   24.4460   36.1350 N   0  0  0  0  0  0  0  0  0  0  0  0
   38.7230   23.6800   37.0620 C   0  0  0  0  0  0  0  0  0  0  0  0
   39.6910   22.8160   36.7180 N   0  0  0  0  0  0  0  0  0  0  0  0
   40.8510   21.9910   35.1800 H   0  0  0  0  0  0  0  0  0  0  0  0
   39.7290   23.3970   33.4170 H   0  0  0  0  0  0  0  0  0  0  0  0
   38.2670   23.8540   38.4720 C   0  0  0  0  0  0  0  0  0  0  0  0
   37.8350   25.1350   38.7420 F   0  0  0  0  0  0  0  0  0  0  0  0
   39.3330   23.6120   39.3480 F   0  0  0  0  0  0  0  0  0  0  0  0
   37.3190   22.8930   38.8120 F   0  0  0  0  0  0  0  0  0  0  0  0
  1  5  1  0  0  0  0
  1 21  1  0  0  0  0
  2  1  2  0  0  0  0
  3  4  2  0  0  0  0
  3  2  1  0  0  0  0
  4  5  1  0  0  0  0
  6  2  1  0  0  0  0
  7  3  1  0  0  0  0
  8  9  1  0  0  0  0
  9 10  1  0  0  0  0
 10  4  1  0  0  0  0
 10 11  2  0  0  0  0
 11 16  1  0  0  0  0
 12 11  1  0  0  0  0
 12 17  1  0  0  0  0
 13 12  2  0  0  0  0
 14 13  1  0  0  0  0
 15  9  2  0  0  0  0
 15 13  1  0  0  0  0
 18 15  1  0  0  0  0
 19 24  1  0  0  0  0
 20 21  1  0  0  0  0
 20 19  2  0  0  0  0
 21 22  2  0  0  0  0
 22 23  1  0  0  0  0
 23 27  1  0  0  0  0
 24 23  2  0  0  0  0
 25 19  1  0  0  0  0
 26 20  1  0  0  0  0
 27 28  1  0  0  0  0
 27 30  1  0  0  0  0
 27 29  1  0  0  0  0
M  END
>  <minimizedAffinity>
-5.90270996

$$$$

 OpenBabel03272503213D

 30 32  0  0  0  0  0  0  0  0999 V2000
   37.9610   25.0510   33.7990 C   0  0  0  0  0  0  0  0  0  0  0  0
   37.1440   24.8020   32.7760 C   0  0  0  0  0  0  0  0  0  0  0  0
   36.7400   25.7970   31.9760 C   0  0  0  0  0  0  0  0  0  0  0  0
   37.2020   27.0680   32.2570 C   0  0  0  0  0  0  0  0  0  0  0  0
   38.2470   26.7780   33.7230 S   0  0  0  0  0  0  0  0  0  0  0  0
   36.8240   23.7680   32.6240 H   0  0  0  0  0  0  0  0  0  0  0  0
   36.0820   25.7340   31.1170 H   0  0  0  0  0  0  0  0  0  0  0  0
   35.3920   28.9880   33.7970 Cl  0  0  0  0  0  0  0  0  0  0  0  0
   36.1950   29.2660   32.2690 C   0  0  0  0  0  0  0  0  0  0  0  0
   36.9930   28.3580   31.6360 C   0  0  0  0  0  0  0  0  0  0  0  0
   37.6320   28.5240   30.4620 C   0  0  0  0  0  0  0  0  0  0  0  0
   37.4880   29.7410   29.7880 C   0  0  0  0  0  0  0  0  0  0  0  0
   36.6980   30.7060   30.3630 C   0  0  0  0  0  0  0  0  0  0  0  0
   36.4500   32.2670   29.6030 Cl  0  0  0  0  0  0  0  0  0  0  0  0
   36.0580   30.4820   31.5830 C   0  0  0  0  0  0  0  0  0  0  0  0
   38.2650   27.7870   29.9730 H   0  0  0  0  0  0  0  0  0  0  0  0
   37.9700   29.9440   28.8430 H   0  0  0  0  0  0  0  0  0  0  0  0
   35.4280   31.2520   32.0430 H   0  0  0  0  0  0  0  0  0  0  0  0
   40.0170   22.3940   35.4970 C   0  0  0  0  0  0  0  0  0  0  0  0
   39.4860   23.1930   34.4700 C   0  0  0  0  0  0  0  0  0  0  0  0
   38.5560   24.1810   34.8180 C   0  0  0  0  0  0  0  0  0  0  0  0
   38.2050   24.3360   36.1030 N   0  0  0  0  0  0  0  0  0  0  0  0
   38.7390   23.5490   37.0630 C   0  0  0  0  0  0  0  0  0  0  0  0
   39.6320   22.5920   36.7620 N   0  0  0  0  0  0  0  0  0  0  0  0
   40.7370   21.6210   35.2700 H   0  0  0  0  0  0  0  0  0  0  0  0
   39.7690   23.0640   33.4460 H   0  0  0  0  0  0  0  0  0  0  0  0
   38.2800   23.8060   38.4590 C   0  0  0  0  0  0  0  0  0  0  0  0
   37.8460   25.0990   38.6510 F   0  0  0  0  0  0  0  0  0  0  0  0
   39.3440   23.6180   39.3500 F   0  0  0  0  0  0  0  0  0  0  0  0
   37.3330   22.8650   38.8530 F   0  0  0  0  0  0  0  0  0  0  0  0
  1 21  1  0  0  0  0
  2  1  2  0  0  0  0
  3  4  2  0  0  0  0
  3  2  1  0  0  0  0
  4  5  1  0  0  0  0
  5  1  1  0  0  0  0
  6  2  1  0  0  0  0
  7  3  1  0  0  0  0
  9  8  1  0  0  0  0
 10  4  1  0  0  0  0
 10  9  1  0  0  0  0
 11 10  2  0  0  0  0
 12 13  2  0  0  0  0
 12 11  1  0  0  0  0
 13 15  1  0  0  0  0
 14 13  1  0  0  0  0
 15 18  1  0  0  0  0
 15  9  2  0  0  0  0
 16 11  1  0  0  0  0
 17 12  1  0  0  0  0
 19 24  1  0  0  0  0
 20 21  1  0  0  0  0
 20 19  2  0  0  0  0
 21 22  2  0  0  0  0
 22 23  1  0  0  0  0
 23 27  1  0  0  0  0
 24 23  2  0  0  0  0
 25 19  1  0  0  0  0
 26 20  1  0  0  0  0
 27 28  1  0  0  0  0
 27 30  1  0  0  0  0
 27 29  1  0  0  0  0
M  END
>  <minimizedAffinity>
-5.88185024

$$$$

 OpenBabel03272503213D

 30 32  0  0  0  0  0  0  0  0999 V2000
   38.0290   25.1000   34.9410 C   0  0  0  0  0  0  0  0  0  0  0  0
   37.7950   24.7060   33.6890 C   0  0  0  0  0  0  0  0  0  0  0  0
   37.3700   25.5850   32.7720 C   0  0  0  0  0  0  0  0  0  0  0  0
   37.1900   26.8930   33.1780 C   0  0  0  0  0  0  0  0  0  0  0  0
   37.6580   26.8130   34.9400 S   0  0  0  0  0  0  0  0  0  0  0  0
   37.9620   23.6530   33.4510 H   0  0  0  0  0  0  0  0  0  0  0  0
   37.1440   25.3990   31.7290 H   0  0  0  0  0  0  0  0  0  0  0  0
   38.8650   27.7010   30.7540 Cl  0  0  0  0  0  0  0  0  0  0  0  0
   37.4580   28.5120   31.4030 C   0  0  0  0  0  0  0  0  0  0  0  0
   36.7560   28.0920   32.4950 C   0  0  0  0  0  0  0  0  0  0  0  0
   35.6700   28.6790   33.0320 C   0  0  0  0  0  0  0  0  0  0  0  0
   35.1770   29.8460   32.4380 C   0  0  0  0  0  0  0  0  0  0  0  0
   35.8320   30.3310   31.3320 C   0  0  0  0  0  0  0  0  0  0  0  0
   35.3000   31.7860   30.5100 Cl  0  0  0  0  0  0  0  0  0  0  0  0
   36.9550   29.6820   30.8160 C   0  0  0  0  0  0  0  0  0  0  0  0
   35.1220   28.3280   33.9040 H   0  0  0  0  0  0  0  0  0  0  0  0
   34.3120   30.3700   32.8140 H   0  0  0  0  0  0  0  0  0  0  0  0
   37.4780   30.0690   29.9350 H   0  0  0  0  0  0  0  0  0  0  0  0
   38.2860   23.7430   38.4420 C   0  0  0  0  0  0  0  0  0  0  0  0
   37.7900   24.4610   37.3410 C   0  0  0  0  0  0  0  0  0  0  0  0
   38.4900   24.3780   36.1300 C   0  0  0  0  0  0  0  0  0  0  0  0
   39.5970   23.6250   36.0570 N   0  0  0  0  0  0  0  0  0  0  0  0
   40.0430   22.9470   37.1380 C   0  0  0  0  0  0  0  0  0  0  0  0
   39.3950   23.0070   38.3130 N   0  0  0  0  0  0  0  0  0  0  0  0
   37.7750   23.7800   39.3940 H   0  0  0  0  0  0  0  0  0  0  0  0
   36.9060   25.0610   37.4060 H   0  0  0  0  0  0  0  0  0  0  0  0
   41.2830   22.1410   36.9460 C   0  0  0  0  0  0  0  0  0  0  0  0
   41.5040   21.2450   37.9700 F   0  0  0  0  0  0  0  0  0  0  0  0
   42.4000   22.9870   36.9250 F   0  0  0  0  0  0  0  0  0  0  0  0
   41.2920   21.5290   35.6970 F   0  0  0  0  0  0  0  0  0  0  0  0
  1 21  1  0  0  0  0
  2  1  2  0  0  0  0
  3  4  2  0  0  0  0
  3  2  1  0  0  0  0
  4  5  1  0  0  0  0
  5  1  1  0  0  0  0
  6  2  1  0  0  0  0
  7  3  1  0  0  0  0
  8  9  1  0  0  0  0
  9 10  1  0  0  0  0
 10 11  2  0  0  0  0
 10  4  1  0  0  0  0
 11 16  1  0  0  0  0
 12 17  1  0  0  0  0
 12 11  1  0  0  0  0
 13 12  2  0  0  0  0
 14 13  1  0  0  0  0
 15 13  1  0  0  0  0
 15  9  2  0  0  0  0
 18 15  1  0  0  0  0
 19 25  1  0  0  0  0
 20 26  1  0  0  0  0
 20 19  2  0  0  0  0
 21 20  1  0  0  0  0
 22 21  2  0  0  0  0
 22 23  1  0  0  0  0
 23 24  2  0  0  0  0
 24 19  1  0  0  0  0
 27 23  1  0  0  0  0
 27 28  1  0  0  0  0
 29 27  1  0  0  0  0
 30 27  1  0  0  0  0
M  END
>  <minimizedAffinity>
-5.8148303

$$$$

 OpenBabel03272503213D

 30 32  0  0  0  0  0  0  0  0999 V2000
   36.6360   27.4650   32.8790 C   0  0  0  0  0  0  0  0  0  0  0  0
   35.9820   28.3440   32.1190 C   0  0  0  0  0  0  0  0  0  0  0  0
   35.4090   29.4210   32.6720 C   0  0  0  0  0  0  0  0  0  0  0  0
   35.5260   29.5730   34.0400 C   0  0  0  0  0  0  0  0  0  0  0  0
   36.4970   28.1010   34.5060 S   0  0  0  0  0  0  0  0  0  0  0  0
   35.9360   28.1480   31.0450 H   0  0  0  0  0  0  0  0  0  0  0  0
   34.8520   30.2060   32.1750 H   0  0  0  0  0  0  0  0  0  0  0  0
   32.5820   29.3560   34.8290 Cl  0  0  0  0  0  0  0  0  0  0  0  0
   33.7510   30.5420   35.3650 C   0  0  0  0  0  0  0  0  0  0  0  0
   35.0550   30.5780   34.9680 C   0  0  0  0  0  0  0  0  0  0  0  0
   35.9930   31.4670   35.3510 C   0  0  0  0  0  0  0  0  0  0  0  0
   35.6290   32.4770   36.2480 C   0  0  0  0  0  0  0  0  0  0  0  0
   34.3300   32.5060   36.6930 C   0  0  0  0  0  0  0  0  0  0  0  0
   33.7690   33.7290   37.8190 Cl  0  0  0  0  0  0  0  0  0  0  0  0
   33.3990   31.5590   36.2640 C   0  0  0  0  0  0  0  0  0  0  0  0
   37.0300   31.4790   35.0240 H   0  0  0  0  0  0  0  0  0  0  0  0
   36.3260   33.2230   36.5980 H   0  0  0  0  0  0  0  0  0  0  0  0
   32.3620   31.5820   36.6190 H   0  0  0  0  0  0  0  0  0  0  0  0
   39.3600   24.9290   32.3190 C   0  0  0  0  0  0  0  0  0  0  0  0
   38.7430   26.1500   32.6390 C   0  0  0  0  0  0  0  0  0  0  0  0
   37.3460   26.2240   32.5580 C   0  0  0  0  0  0  0  0  0  0  0  0
   36.6480   25.1410   32.1840 N   0  0  0  0  0  0  0  0  0  0  0  0
   37.2770   23.9840   31.8850 C   0  0  0  0  0  0  0  0  0  0  0  0
   38.6150   23.8820   31.9520 N   0  0  0  0  0  0  0  0  0  0  0  0
   40.4350   24.8310   32.3690 H   0  0  0  0  0  0  0  0  0  0  0  0
   39.3060   27.0100   32.9370 H   0  0  0  0  0  0  0  0  0  0  0  0
   36.4050   22.8430   31.4810 C   0  0  0  0  0  0  0  0  0  0  0  0
   37.0530   21.9320   30.6760 F   0  0  0  0  0  0  0  0  0  0  0  0
   35.3200   23.3180   30.7320 F   0  0  0  0  0  0  0  0  0  0  0  0
   35.8190   22.2450   32.5920 F   0  0  0  0  0  0  0  0  0  0  0  0
  1  5  1  0  0  0  0
  2  3  1  0  0  0  0
  2  1  2  0  0  0  0
  3  4  2  0  0  0  0
  4  5  1  0  0  0  0
  4 10  1  0  0  0  0
  6  2  1  0  0  0  0
  7  3  1  0  0  0  0
  8  9  1  0  0  0  0
  9 15  1  0  0  0  0
 10 11  1  0  0  0  0
 10  9  2  0  0  0  0
 11 12  2  0  0  0  0
 12 17  1  0  0  0  0
 12 13  1  0  0  0  0
 13 14  1  0  0  0  0
 15 18  1  0  0  0  0
 15 13  2  0  0  0  0
 16 11  1  0  0  0  0
 19 25  1  0  0  0  0
 19 20  1  0  0  0  0
 20 26  1  0  0  0  0
 21 20  2  0  0  0  0
 21  1  1  0  0  0  0
 22 21  1  0  0  0  0
 23 24  1  0  0  0  0
 23 22  2  0  0  0  0
 24 19  2  0  0  0  0
 27 23  1  0  0  0  0
 27 30  1  0  0  0  0
 28 27  1  0  0  0  0
 29 27  1  0  0  0  0
M  END
>  <minimizedAffinity>
-5.61027622

$$$$

 OpenBabel03272503213D

 30 32  0  0  0  0  0  0  0  0999 V2000
   37.4680   27.4540   34.0160 C   0  0  0  0  0  0  0  0  0  0  0  0
   37.7470   27.6600   35.3030 C   0  0  0  0  0  0  0  0  0  0  0  0
   38.4490   26.7540   35.9950 C   0  0  0  0  0  0  0  0  0  0  0  0
   38.8610   25.6180   35.3240 C   0  0  0  0  0  0  0  0  0  0  0  0
   38.1980   25.9040   33.6490 S   0  0  0  0  0  0  0  0  0  0  0  0
   37.3820   28.5840   35.7570 H   0  0  0  0  0  0  0  0  0  0  0  0
   38.7420   26.7950   37.0370 H   0  0  0  0  0  0  0  0  0  0  0  0
   37.4040   23.6840   37.1860 Cl  0  0  0  0  0  0  0  0  0  0  0  0
   39.0280   23.5440   36.5540 C   0  0  0  0  0  0  0  0  0  0  0  0
   39.6170   24.4520   35.7230 C   0  0  0  0  0  0  0  0  0  0  0  0
   40.8620   24.3900   35.2110 C   0  0  0  0  0  0  0  0  0  0  0  0
   41.6680   23.2960   35.5420 C   0  0  0  0  0  0  0  0  0  0  0  0
   41.1440   22.3380   36.3770 C   0  0  0  0  0  0  0  0  0  0  0  0
   42.0680   20.9270   36.8560 Cl  0  0  0  0  0  0  0  0  0  0  0  0
   39.8460   22.4520   36.8790 C   0  0  0  0  0  0  0  0  0  0  0  0
   41.3140   25.1240   34.5480 H   0  0  0  0  0  0  0  0  0  0  0  0
   42.6740   23.1800   35.1690 H   0  0  0  0  0  0  0  0  0  0  0  0
   39.4280   21.6890   37.5450 H   0  0  0  0  0  0  0  0  0  0  0  0
   34.8130   29.5130   32.3190 C   0  0  0  0  0  0  0  0  0  0  0  0
   35.4590   28.7560   33.3100 C   0  0  0  0  0  0  0  0  0  0  0  0
   36.7350   28.2510   33.0280 C   0  0  0  0  0  0  0  0  0  0  0  0
   37.2960   28.5040   31.8360 N   0  0  0  0  0  0  0  0  0  0  0  0
   36.6440   29.2370   30.9080 C   0  0  0  0  0  0  0  0  0  0  0  0
   35.4190   29.7340   31.1480 N   0  0  0  0  0  0  0  0  0  0  0  0
   33.8280   29.9200   32.4980 H   0  0  0  0  0  0  0  0  0  0  0  0
   35.0050   28.5580   34.2600 H   0  0  0  0  0  0  0  0  0  0  0  0
   37.3590   29.4570   29.6170 C   0  0  0  0  0  0  0  0  0  0  0  0
   38.7170   29.6270   29.7790 F   0  0  0  0  0  0  0  0  0  0  0  0
   36.8920   30.6300   29.0100 F   0  0  0  0  0  0  0  0  0  0  0  0
   37.0570   28.4530   28.7020 F   0  0  0  0  0  0  0  0  0  0  0  0
  1  2  2  0  0  0  0
  2  6  1  0  0  0  0
  2  3  1  0  0  0  0
  3  7  1  0  0  0  0
  4 10  1  0  0  0  0
  4  3  2  0  0  0  0
  5  1  1  0  0  0  0
  5  4  1  0  0  0  0
  9 15  1  0  0  0  0
  9  8  1  0  0  0  0
 10  9  2  0  0  0  0
 11 12  2  0  0  0  0
 11 10  1  0  0  0  0
 12 13  1  0  0  0  0
 13 14  1  0  0  0  0
 13 15  2  0  0  0  0
 15 18  1  0  0  0  0
 16 11  1  0  0  0  0
 17 12  1  0  0  0  0
 19 25  1  0  0  0  0
 19 20  1  0  0  0  0
 20 26  1  0  0  0  0
 21 20  2  0  0  0  0
 21  1  1  0  0  0  0
 22 21  1  0  0  0  0
 23 24  1  0  0  0  0
 23 22  2  0  0  0  0
 24 19  2  0  0  0  0
 27 28  1  0  0  0  0
 27 23  1  0  0  0  0
 29 27  1  0  0  0  0
 30 27  1  0  0  0  0
M  END
>  <minimizedAffinity>
-5.59962463

$$$$

 OpenBabel03272503213D

 30 32  0  0  0  0  0  0  0  0999 V2000
   37.4850   27.3600   34.1030 C   0  0  0  0  0  0  0  0  0  0  0  0
   37.8360   27.5950   35.3670 C   0  0  0  0  0  0  0  0  0  0  0  0
   38.5620   26.6960   36.0440 C   0  0  0  0  0  0  0  0  0  0  0  0
   38.9230   25.5380   35.3820 C   0  0  0  0  0  0  0  0  0  0  0  0
   38.1740   25.7910   33.7380 S   0  0  0  0  0  0  0  0  0  0  0  0
   37.5090   28.5350   35.8170 H   0  0  0  0  0  0  0  0  0  0  0  0
   38.9120   26.7600   37.0680 H   0  0  0  0  0  0  0  0  0  0  0  0
   37.4840   23.5950   37.2490 Cl  0  0  0  0  0  0  0  0  0  0  0  0
   39.1030   23.4600   36.6030 C   0  0  0  0  0  0  0  0  0  0  0  0
   39.6840   24.3710   35.7700 C   0  0  0  0  0  0  0  0  0  0  0  0
   40.9240   24.3130   35.2460 C   0  0  0  0  0  0  0  0  0  0  0  0
   41.7340   23.2180   35.5660 C   0  0  0  0  0  0  0  0  0  0  0  0
   41.2180   22.2570   36.4020 C   0  0  0  0  0  0  0  0  0  0  0  0
   42.1490   20.8450   36.8670 Cl  0  0  0  0  0  0  0  0  0  0  0  0
   39.9260   22.3680   36.9160 C   0  0  0  0  0  0  0  0  0  0  0  0
   41.3690   25.0500   34.5820 H   0  0  0  0  0  0  0  0  0  0  0  0
   42.7380   23.1050   35.1840 H   0  0  0  0  0  0  0  0  0  0  0  0
   39.5140   21.6010   37.5830 H   0  0  0  0  0  0  0  0  0  0  0  0
   36.3720   29.0790   30.9440 C   0  0  0  0  0  0  0  0  0  0  0  0
   37.1630   28.3170   31.8200 C   0  0  0  0  0  0  0  0  0  0  0  0
   36.7110   28.1430   33.1350 C   0  0  0  0  0  0  0  0  0  0  0  0
   35.5510   28.7000   33.5140 N   0  0  0  0  0  0  0  0  0  0  0  0
   34.8170   29.4260   32.6410 C   0  0  0  0  0  0  0  0  0  0  0  0
   35.2240   29.6110   31.3750 N   0  0  0  0  0  0  0  0  0  0  0  0
   36.6860   29.2360   29.9220 H   0  0  0  0  0  0  0  0  0  0  0  0
   38.0890   27.8750   31.5120 H   0  0  0  0  0  0  0  0  0  0  0  0
   33.5450   30.0000   33.1670 C   0  0  0  0  0  0  0  0  0  0  0  0
   33.1200   29.3900   34.3270 F   0  0  0  0  0  0  0  0  0  0  0  0
   32.5180   29.8120   32.2320 F   0  0  0  0  0  0  0  0  0  0  0  0
   33.6380   31.3820   33.2990 F   0  0  0  0  0  0  0  0  0  0  0  0
  1  2  2  0  0  0  0
  2  6  1  0  0  0  0
  2  3  1  0  0  0  0
  3  7  1  0  0  0  0
  4 10  1  0  0  0  0
  4  3  2  0  0  0  0
  5  1  1  0  0  0  0
  5  4  1  0  0  0  0
  9 15  1  0  0  0  0
  9  8  1  0  0  0  0
 10  9  2  0  0  0  0
 11 12  2  0  0  0  0
 11 10  1  0  0  0  0
 12 13  1  0  0  0  0
 13 14  1  0  0  0  0
 13 15  2  0  0  0  0
 15 18  1  0  0  0  0
 16 11  1  0  0  0  0
 17 12  1  0  0  0  0
 19 24  2  0  0  0  0
 19 20  1  0  0  0  0
 20 21  2  0  0  0  0
 21 22  1  0  0  0  0
 21  1  1  0  0  0  0
 23 27  1  0  0  0  0
 23 22  2  0  0  0  0
 24 23  1  0  0  0  0
 25 19  1  0  0  0  0
 26 20  1  0  0  0  0
 27 30  1  0  0  0  0
 27 28  1  0  0  0  0
 29 27  1  0  0  0  0
M  END
>  <minimizedAffinity>
-5.59392071

$$$$

 OpenBabel03272503213D

 30 32  0  0  0  0  0  0  0  0999 V2000
   36.3570   24.2660   31.5510 C   0  0  0  0  0  0  0  0  0  0  0  0
   35.2450   24.7390   30.9890 C   0  0  0  0  0  0  0  0  0  0  0  0
   34.9950   26.0550   30.9890 C   0  0  0  0  0  0  0  0  0  0  0  0
   35.9270   26.8810   31.5880 C   0  0  0  0  0  0  0  0  0  0  0  0
   37.1850   25.6870   32.1550 S   0  0  0  0  0  0  0  0  0  0  0  0
   34.5600   24.0180   30.5380 H   0  0  0  0  0  0  0  0  0  0  0  0
   34.1370   26.5680   30.5720 H   0  0  0  0  0  0  0  0  0  0  0  0
   37.1920   28.4460   29.2900 Cl  0  0  0  0  0  0  0  0  0  0  0  0
   36.5570   29.0740   30.7930 C   0  0  0  0  0  0  0  0  0  0  0  0
   36.0040   28.3120   31.7790 C   0  0  0  0  0  0  0  0  0  0  0  0
   35.5020   28.7470   32.9520 C   0  0  0  0  0  0  0  0  0  0  0  0
   35.5340   30.1190   33.2250 C   0  0  0  0  0  0  0  0  0  0  0  0
   36.0780   30.9520   32.2780 C   0  0  0  0  0  0  0  0  0  0  0  0
   36.1680   32.6870   32.5190 Cl  0  0  0  0  0  0  0  0  0  0  0  0
   36.5840   30.4470   31.0790 C   0  0  0  0  0  0  0  0  0  0  0  0
   35.0630   28.1230   33.7270 H   0  0  0  0  0  0  0  0  0  0  0  0
   35.1510   30.5390   34.1430 H   0  0  0  0  0  0  0  0  0  0  0  0
   37.0180   31.1120   30.3230 H   0  0  0  0  0  0  0  0  0  0  0  0
   38.6280   21.2660   31.4600 C   0  0  0  0  0  0  0  0  0  0  0  0
   38.1860   22.5880   31.2900 C   0  0  0  0  0  0  0  0  0  0  0  0
   36.8830   22.9060   31.6980 C   0  0  0  0  0  0  0  0  0  0  0  0
   36.1070   21.9510   32.2320 N   0  0  0  0  0  0  0  0  0  0  0  0
   36.5680   20.6900   32.3800 C   0  0  0  0  0  0  0  0  0  0  0  0
   37.8110   20.3540   31.9990 N   0  0  0  0  0  0  0  0  0  0  0  0
   39.6260   20.9800   31.1580 H   0  0  0  0  0  0  0  0  0  0  0  0
   38.8100   23.3450   30.8620 H   0  0  0  0  0  0  0  0  0  0  0  0
   35.6220   19.7080   32.9850 C   0  0  0  0  0  0  0  0  0  0  0  0
   36.0330   18.4020   32.8290 F   0  0  0  0  0  0  0  0  0  0  0  0
   34.3750   19.8000   32.3530 F   0  0  0  0  0  0  0  0  0  0  0  0
   35.3570   20.0240   34.3140 F   0  0  0  0  0  0  0  0  0  0  0  0
  1 21  1  0  0  0  0
  1  5  1  0  0  0  0
  2  3  1  0  0  0  0
  2  1  2  0  0  0  0
  3  4  2  0  0  0  0
  4 10  1  0  0  0  0
  4  5  1  0  0  0  0
  6  2  1  0  0  0  0
  7  3  1  0  0  0  0
  8  9  1  0  0  0  0
  9 15  2  0  0  0  0
  9 10  1  0  0  0  0
 10 11  2  0  0  0  0
 11 12  1  0  0  0  0
 11 16  1  0  0  0  0
 12 17  1  0  0  0  0
 13 14  1  0  0  0  0
 13 12  2  0  0  0  0
 15 13  1  0  0  0  0
 18 15  1  0  0  0  0
 19 24  1  0  0  0  0
 20 19  2  0  0  0  0
 20 21  1  0  0  0  0
 21 22  2  0  0  0  0
 22 23  1  0  0  0  0
 23 27  1  0  0  0  0
 24 23  2  0  0  0  0
 25 19  1  0  0  0  0
 26 20  1  0  0  0  0
 27 30  1  0  0  0  0
 28 27  1  0  0  0  0
 29 27  1  0  0  0  0
M  END
>  <minimizedAffinity>
-5.59017706

$$$$

 OpenBabel03272503213D

 30 32  0  0  0  0  0  0  0  0999 V2000
   37.1230   26.7540   33.4090 C   0  0  0  0  0  0  0  0  0  0  0  0
   37.0270   25.5600   32.8240 C   0  0  0  0  0  0  0  0  0  0  0  0
   37.6990   24.5110   33.3150 C   0  0  0  0  0  0  0  0  0  0  0  0
   38.4820   24.7220   34.4340 C   0  0  0  0  0  0  0  0  0  0  0  0
   38.2130   26.4970   34.7570 S   0  0  0  0  0  0  0  0  0  0  0  0
   36.3870   25.4800   31.9430 H   0  0  0  0  0  0  0  0  0  0  0  0
   37.7110   23.4950   32.9390 H   0  0  0  0  0  0  0  0  0  0  0  0
   37.4130   24.0280   37.2100 Cl  0  0  0  0  0  0  0  0  0  0  0  0
   38.9140   23.5080   36.4780 C   0  0  0  0  0  0  0  0  0  0  0  0
   39.3290   23.8590   35.2280 C   0  0  0  0  0  0  0  0  0  0  0  0
   40.4720   23.4860   34.6200 C   0  0  0  0  0  0  0  0  0  0  0  0
   41.3550   22.6500   35.3130 C   0  0  0  0  0  0  0  0  0  0  0  0
   41.0060   22.2530   36.5810 C   0  0  0  0  0  0  0  0  0  0  0  0
   42.0390   21.2070   37.5360 Cl  0  0  0  0  0  0  0  0  0  0  0  0
   39.8070   22.6700   37.1620 C   0  0  0  0  0  0  0  0  0  0  0  0
   40.7860   23.7770   33.6200 H   0  0  0  0  0  0  0  0  0  0  0  0
   42.2890   22.3120   34.8900 H   0  0  0  0  0  0  0  0  0  0  0  0
   39.5280   22.3530   38.1730 H   0  0  0  0  0  0  0  0  0  0  0  0
   35.7000   29.7030   31.5540 C   0  0  0  0  0  0  0  0  0  0  0  0
   36.2850   28.4460   31.7780 C   0  0  0  0  0  0  0  0  0  0  0  0
   36.5160   28.0530   33.1020 C   0  0  0  0  0  0  0  0  0  0  0  0
   36.1750   28.8750   34.1050 N   0  0  0  0  0  0  0  0  0  0  0  0
   35.6120   30.0770   33.8500 C   0  0  0  0  0  0  0  0  0  0  0  0
   35.3790   30.4830   32.5910 N   0  0  0  0  0  0  0  0  0  0  0  0
   35.5050   30.0440   30.5470 H   0  0  0  0  0  0  0  0  0  0  0  0
   36.5560   27.7940   30.9730 H   0  0  0  0  0  0  0  0  0  0  0  0
   35.2720   30.9120   35.0380 C   0  0  0  0  0  0  0  0  0  0  0  0
   36.2370   30.8660   36.0200 F   0  0  0  0  0  0  0  0  0  0  0  0
   34.0940   30.4370   35.6300 F   0  0  0  0  0  0  0  0  0  0  0  0
   34.9640   32.2160   34.6600 F   0  0  0  0  0  0  0  0  0  0  0  0
  1  5  1  0  0  0  0
  2  3  1  0  0  0  0
  2  1  2  0  0  0  0
  3  4  2  0  0  0  0
  4  5  1  0  0  0  0
  4 10  1  0  0  0  0
  6  2  1  0  0  0  0
  7  3  1  0  0  0  0
  9 15  1  0  0  0  0
  9  8  1  0  0  0  0
 10  9  2  0  0  0  0
 11 10  1  0  0  0  0
 11 12  2  0  0  0  0
 12 13  1  0  0  0  0
 13 15  2  0  0  0  0
 13 14  1  0  0  0  0
 15 18  1  0  0  0  0
 16 11  1  0  0  0  0
 17 12  1  0  0  0  0
 19 20  2  0  0  0  0
 19 24  1  0  0  0  0
 20 21  1  0  0  0  0
 21  1  1  0  0  0  0
 21 22  2  0  0  0  0
 23 22  1  0  0  0  0
 23 27  1  0  0  0  0
 24 23  2  0  0  0  0
 25 19  1  0  0  0  0
 26 20  1  0  0  0  0
 27 29  1  0  0  0  0
 27 28  1  0  0  0  0
 30 27  1  0  0  0  0
M  END
>  <minimizedAffinity>
-5.48942423

$$$$

 OpenBabel03272503213D

 30 32  0  0  0  0  0  0  0  0999 V2000
   36.4480   24.2630   31.5860 C   0  0  0  0  0  0  0  0  0  0  0  0
   35.2700   24.7530   31.2000 C   0  0  0  0  0  0  0  0  0  0  0  0
   35.1370   26.0580   30.9320 C   0  0  0  0  0  0  0  0  0  0  0  0
   36.2570   26.8550   31.0700 C   0  0  0  0  0  0  0  0  0  0  0  0
   37.5180   25.6500   31.6050 S   0  0  0  0  0  0  0  0  0  0  0  0
   34.4340   24.0550   31.1170 H   0  0  0  0  0  0  0  0  0  0  0  0
   34.2450   26.5840   30.6120 H   0  0  0  0  0  0  0  0  0  0  0  0
   35.5340   28.6490   33.4350 Cl  0  0  0  0  0  0  0  0  0  0  0  0
   36.1980   29.1280   31.8900 C   0  0  0  0  0  0  0  0  0  0  0  0
   36.4980   28.2680   30.8750 C   0  0  0  0  0  0  0  0  0  0  0  0
   37.0110   28.5860   29.6700 C   0  0  0  0  0  0  0  0  0  0  0  0
   37.2770   29.9310   29.3910 C   0  0  0  0  0  0  0  0  0  0  0  0
   37.0000   30.8590   30.3650 C   0  0  0  0  0  0  0  0  0  0  0  0
   37.2950   32.5700   30.1190 Cl  0  0  0  0  0  0  0  0  0  0  0  0
   36.4690   30.4730   31.5980 C   0  0  0  0  0  0  0  0  0  0  0  0
   37.2440   27.8850   28.8730 H   0  0  0  0  0  0  0  0  0  0  0  0
   37.6870   30.2590   28.4480 H   0  0  0  0  0  0  0  0  0  0  0  0
   36.2480   31.2130   32.3750 H   0  0  0  0  0  0  0  0  0  0  0  0
   38.5570   21.3270   32.6340 C   0  0  0  0  0  0  0  0  0  0  0  0
   38.2090   22.6470   32.3070 C   0  0  0  0  0  0  0  0  0  0  0  0
   36.8820   22.9080   31.9390 C   0  0  0  0  0  0  0  0  0  0  0  0
   35.9940   21.9020   31.9120 N   0  0  0  0  0  0  0  0  0  0  0  0
   36.3670   20.6440   32.2340 C   0  0  0  0  0  0  0  0  0  0  0  0
   37.6310   20.3630   32.5900 N   0  0  0  0  0  0  0  0  0  0  0  0
   39.5700   21.0840   32.9230 H   0  0  0  0  0  0  0  0  0  0  0  0
   38.9220   23.4460   32.3300 H   0  0  0  0  0  0  0  0  0  0  0  0
   35.3010   19.6030   32.1710 C   0  0  0  0  0  0  0  0  0  0  0  0
   34.0410   20.1350   32.0030 F   0  0  0  0  0  0  0  0  0  0  0  0
   35.2630   18.8890   33.3760 F   0  0  0  0  0  0  0  0  0  0  0  0
   35.6010   18.6400   31.2120 F   0  0  0  0  0  0  0  0  0  0  0  0
  1  5  1  0  0  0  0
  1 21  1  0  0  0  0
  2  1  2  0  0  0  0
  3  4  2  0  0  0  0
  3  2  1  0  0  0  0
  4  5  1  0  0  0  0
  6  2  1  0  0  0  0
  7  3  1  0  0  0  0
  9  8  1  0  0  0  0
 10  4  1  0  0  0  0
 10  9  2  0  0  0  0
 11 10  1  0  0  0  0
 12 11  2  0  0  0  0
 12 13  1  0  0  0  0
 13 15  2  0  0  0  0
 14 13  1  0  0  0  0
 15  9  1  0  0  0  0
 15 18  1  0  0  0  0
 16 11  1  0  0  0  0
 17 12  1  0  0  0  0
 19 25  1  0  0  0  0
 20 26  1  0  0  0  0
 20 19  2  0  0  0  0
 21 20  1  0  0  0  0
 22 21  2  0  0  0  0
 22 23  1  0  0  0  0
 23 24  2  0  0  0  0
 24 19  1  0  0  0  0
 27 23  1  0  0  0  0
 27 29  1  0  0  0  0
 28 27  1  0  0  0  0
 30 27  1  0  0  0  0
M  END
>  <minimizedAffinity>
-5.46288157

$$$$
