
 OpenBabel03272507403D

 29 30  0  0  0  0  0  0  0  0999 V2000
   38.1790   24.5230   35.5530 C   0  0  0  0  0  0  0  0  0  0  0  0
   38.1740   25.3200   34.4290 C   0  0  0  0  0  0  0  0  0  0  0  0
   38.2340   26.6970   34.5510 C   0  0  0  0  0  0  0  0  0  0  0  0
   38.3020   27.2730   35.8140 C   0  0  0  0  0  0  0  0  0  0  0  0
   38.3060   26.4570   36.9500 C   0  0  0  0  0  0  0  0  0  0  0  0
   38.2440   25.0950   36.7800 C   0  0  0  0  0  0  0  0  0  0  0  0
   38.2350   27.3840   33.7310 H   0  0  0  0  0  0  0  0  0  0  0  0
   38.3500   28.3470   35.9430 H   0  0  0  0  0  0  0  0  0  0  0  0
   38.3560   26.8510   37.9550 H   0  0  0  0  0  0  0  0  0  0  0  0
   38.2430   24.1370   37.9280 C   0  0  0  0  0  0  0  0  0  0  0  0
   39.3830   23.3960   38.0200 F   0  0  0  0  0  0  0  0  0  0  0  0
   38.1210   24.8660   39.1180 F   0  0  0  0  0  0  0  0  0  0  0  0
   37.0830   23.3510   37.9020 F   0  0  0  0  0  0  0  0  0  0  0  0
   38.0830   21.9800   35.1450 N   0  0  0  0  0  0  0  0  0  0  0  0
   38.1180   23.1080   35.3340 C   0  0  0  0  0  0  0  0  0  0  0  0
   38.1120   24.8920   33.1180 O   0  0  0  0  0  0  0  0  0  0  0  0
   37.0440   25.0720   32.2960 C   0  0  0  0  0  0  0  0  0  0  0  0
   36.5020   23.8550   31.8740 C   0  0  0  0  0  0  0  0  0  0  0  0
   35.4130   23.8290   31.0340 C   0  0  0  0  0  0  0  0  0  0  0  0
   34.8920   25.0370   30.6400 N   0  0  0  0  0  0  0  0  0  0  0  0
   35.4260   26.2030   31.0570 C   0  0  0  0  0  0  0  0  0  0  0  0
   36.4770   26.2110   31.8660 N   0  0  0  0  0  0  0  0  0  0  0  0
   34.9270   22.9420   30.6570 H   0  0  0  0  0  0  0  0  0  0  0  0
   34.9330   27.0800   30.6830 H   0  0  0  0  0  0  0  0  0  0  0  0
   37.8780   21.8860   31.4150 C   0  0  0  0  0  0  0  0  0  0  0  0
   38.3960   22.1050   30.2480 O   0  0  0  0  0  0  0  0  0  0  0  0
   36.9410   22.5810   32.2400 N   0  0  0  0  0  0  0  0  0  0  0  0
   38.5210   21.0220   31.3040 H   0  0  0  0  0  0  0  0  0  0  0  0
   36.8850   21.8080   32.9090 H   0  0  0  0  0  0  0  0  0  0  0  0
  1  6  1  0  0  0  0
  2  3  1  0  0  0  0
  2  1  2  0  0  0  0
  3  4  2  0  0  0  0
  4  8  1  0  0  0  0
  4  5  1  0  0  0  0
  5  9  1  0  0  0  0
  6  5  2  0  0  0  0
  6 10  1  0  0  0  0
  7  3  1  0  0  0  0
 10 11  1  0  0  0  0
 10 12  1  0  0  0  0
 13 10  1  0  0  0  0
 14 15  3  0  0  0  0
 15  1  1  0  0  0  0
 16  2  1  0  0  0  0
 17 16  1  0  0  0  0
 18 27  1  0  0  0  0
 18 17  1  0  0  0  0
 19 18  2  0  0  0  0
 20 19  1  0  0  0  0
 20 21  2  0  0  0  0
 21 22  1  0  0  0  0
 22 17  2  0  0  0  0
 23 19  1  0  0  0  0
 24 21  1  0  0  0  0
 25 27  1  0  0  0  0
 26 25  2  0  0  0  0
 27 29  1  0  0  0  0
 28 25  1  0  0  0  0
M  END
>  <minimizedAffinity>
-5.29729462

$$$$

 OpenBabel03272507403D

 29 30  0  0  0  0  0  0  0  0999 V2000
   37.4060   25.5340   33.4130 C   0  0  0  0  0  0  0  0  0  0  0  0
   37.9300   25.1970   34.6420 C   0  0  0  0  0  0  0  0  0  0  0  0
   38.0820   26.1590   35.6230 C   0  0  0  0  0  0  0  0  0  0  0  0
   37.7000   27.4700   35.3650 C   0  0  0  0  0  0  0  0  0  0  0  0
   37.1680   27.8050   34.1150 C   0  0  0  0  0  0  0  0  0  0  0  0
   37.0370   26.8150   33.1710 C   0  0  0  0  0  0  0  0  0  0  0  0
   38.4790   25.9790   36.6000 H   0  0  0  0  0  0  0  0  0  0  0  0
   37.8060   28.2470   36.1120 H   0  0  0  0  0  0  0  0  0  0  0  0
   36.8560   28.8070   33.8600 H   0  0  0  0  0  0  0  0  0  0  0  0
   36.4800   27.0700   31.8070 C   0  0  0  0  0  0  0  0  0  0  0  0
   35.3300   26.3860   31.5530 F   0  0  0  0  0  0  0  0  0  0  0  0
   36.1910   28.4350   31.6900 F   0  0  0  0  0  0  0  0  0  0  0  0
   37.4660   26.8560   30.8340 F   0  0  0  0  0  0  0  0  0  0  0  0
   37.1630   23.6200   31.7030 N   0  0  0  0  0  0  0  0  0  0  0  0
   37.2800   24.4730   32.4580 C   0  0  0  0  0  0  0  0  0  0  0  0
   38.3500   23.9430   35.0400 O   0  0  0  0  0  0  0  0  0  0  0  0
   39.5910   23.6590   35.5180 C   0  0  0  0  0  0  0  0  0  0  0  0
   39.5350   22.9790   36.7370 C   0  0  0  0  0  0  0  0  0  0  0  0
   40.6910   22.6040   37.3820 C   0  0  0  0  0  0  0  0  0  0  0  0
   41.8830   22.9250   36.7770 N   0  0  0  0  0  0  0  0  0  0  0  0
   41.9190   23.5810   35.6000 C   0  0  0  0  0  0  0  0  0  0  0  0
   40.7950   23.9360   34.9910 N   0  0  0  0  0  0  0  0  0  0  0  0
   40.7480   22.0780   38.3220 H   0  0  0  0  0  0  0  0  0  0  0  0
   42.9060   23.7750   35.2260 H   0  0  0  0  0  0  0  0  0  0  0  0
   37.7590   23.4780   38.3420 C   0  0  0  0  0  0  0  0  0  0  0  0
   38.0790   24.6260   38.8490 O   0  0  0  0  0  0  0  0  0  0  0  0
   38.3800   22.5850   37.4150 N   0  0  0  0  0  0  0  0  0  0  0  0
   36.9080   23.6700   38.9840 H   0  0  0  0  0  0  0  0  0  0  0  0
   37.6860   21.8510   37.5850 H   0  0  0  0  0  0  0  0  0  0  0  0
  1  2  1  0  0  0  0
  2 16  1  0  0  0  0
  2  3  2  0  0  0  0
  3  7  1  0  0  0  0
  4  3  1  0  0  0  0
  4  8  1  0  0  0  0
  5  4  2  0  0  0  0
  6  1  2  0  0  0  0
  6  5  1  0  0  0  0
  9  5  1  0  0  0  0
 10  6  1  0  0  0  0
 11 10  1  0  0  0  0
 12 10  1  0  0  0  0
 13 10  1  0  0  0  0
 14 15  3  0  0  0  0
 15  1  1  0  0  0  0
 16 17  1  0  0  0  0
 17 18  1  0  0  0  0
 18 19  2  0  0  0  0
 18 27  1  0  0  0  0
 19 23  1  0  0  0  0
 20 19  1  0  0  0  0
 21 20  2  0  0  0  0
 22 17  2  0  0  0  0
 22 21  1  0  0  0  0
 24 21  1  0  0  0  0
 25 26  2  0  0  0  0
 25 28  1  0  0  0  0
 27 29  1  0  0  0  0
 27 25  1  0  0  0  0
M  END
>  <minimizedAffinity>
-5.25264692

$$$$

 OpenBabel03272507403D

 29 30  0  0  0  0  0  0  0  0999 V2000
   38.2370   24.5310   35.3630 C   0  0  0  0  0  0  0  0  0  0  0  0
   38.2770   25.5090   34.3930 C   0  0  0  0  0  0  0  0  0  0  0  0
   38.3220   26.8450   34.7520 C   0  0  0  0  0  0  0  0  0  0  0  0
   38.3290   27.1950   36.0960 C   0  0  0  0  0  0  0  0  0  0  0  0
   38.2880   26.1960   37.0740 C   0  0  0  0  0  0  0  0  0  0  0  0
   38.2440   24.8840   36.6700 C   0  0  0  0  0  0  0  0  0  0  0  0
   38.3550   27.6620   34.0620 H   0  0  0  0  0  0  0  0  0  0  0  0
   38.3630   28.2310   36.4090 H   0  0  0  0  0  0  0  0  0  0  0  0
   38.2910   26.4120   38.1330 H   0  0  0  0  0  0  0  0  0  0  0  0
   38.1980   23.7430   37.6370 C   0  0  0  0  0  0  0  0  0  0  0  0
   37.1200   22.9290   37.4670 F   0  0  0  0  0  0  0  0  0  0  0  0
   39.3460   22.9600   37.4580 F   0  0  0  0  0  0  0  0  0  0  0  0
   38.3220   24.2170   38.9500 F   0  0  0  0  0  0  0  0  0  0  0  0
   38.1440   22.0910   34.5360 N   0  0  0  0  0  0  0  0  0  0  0  0
   38.1960   23.1750   34.9010 C   0  0  0  0  0  0  0  0  0  0  0  0
   38.2760   25.3120   33.0260 O   0  0  0  0  0  0  0  0  0  0  0  0
   37.1570   25.2050   32.2610 C   0  0  0  0  0  0  0  0  0  0  0  0
   36.8840   26.3880   31.5700 C   0  0  0  0  0  0  0  0  0  0  0  0
   35.7890   26.4770   30.7420 C   0  0  0  0  0  0  0  0  0  0  0  0
   34.9920   25.3630   30.6290 N   0  0  0  0  0  0  0  0  0  0  0  0
   35.2700   24.2290   31.3020 C   0  0  0  0  0  0  0  0  0  0  0  0
   36.3300   24.1590   32.0970 N   0  0  0  0  0  0  0  0  0  0  0  0
   35.4980   27.3450   30.1700 H   0  0  0  0  0  0  0  0  0  0  0  0
   34.5770   23.4270   31.1330 H   0  0  0  0  0  0  0  0  0  0  0  0
   38.6320   27.7910   30.5920 C   0  0  0  0  0  0  0  0  0  0  0  0
   39.1300   27.0820   29.6290 O   0  0  0  0  0  0  0  0  0  0  0  0
   37.6450   27.5590   31.5980 N   0  0  0  0  0  0  0  0  0  0  0  0
   39.3410   28.4880   30.1620 H   0  0  0  0  0  0  0  0  0  0  0  0
   37.8560   28.4400   32.0760 H   0  0  0  0  0  0  0  0  0  0  0  0
  1  6  1  0  0  0  0
  2  3  1  0  0  0  0
  2  1  2  0  0  0  0
  3  4  2  0  0  0  0
  4  8  1  0  0  0  0
  4  5  1  0  0  0  0
  5  9  1  0  0  0  0
  6  5  2  0  0  0  0
  6 10  1  0  0  0  0
  7  3  1  0  0  0  0
 10 13  1  0  0  0  0
 11 10  1  0  0  0  0
 12 10  1  0  0  0  0
 14 15  3  0  0  0  0
 15  1  1  0  0  0  0
 16  2  1  0  0  0  0
 17 16  1  0  0  0  0
 18 27  1  0  0  0  0
 18 17  2  0  0  0  0
 19 18  1  0  0  0  0
 20 19  2  0  0  0  0
 20 21  1  0  0  0  0
 21 22  2  0  0  0  0
 22 17  1  0  0  0  0
 23 19  1  0  0  0  0
 24 21  1  0  0  0  0
 25 27  1  0  0  0  0
 26 25  2  0  0  0  0
 27 29  1  0  0  0  0
 28 25  1  0  0  0  0
M  END
>  <minimizedAffinity>
-5.06484222

$$$$

 OpenBabel03272507403D

 29 30  0  0  0  0  0  0  0  0999 V2000
   37.3980   23.2560   32.8900 C   0  0  0  0  0  0  0  0  0  0  0  0
   37.5510   22.1310   33.6700 C   0  0  0  0  0  0  0  0  0  0  0  0
   36.6460   21.0890   33.5770 C   0  0  0  0  0  0  0  0  0  0  0  0
   35.5800   21.1820   32.6890 C   0  0  0  0  0  0  0  0  0  0  0  0
   35.4320   22.3270   31.9010 C   0  0  0  0  0  0  0  0  0  0  0  0
   36.3560   23.3370   32.0280 C   0  0  0  0  0  0  0  0  0  0  0  0
   36.6940   20.1850   34.1460 H   0  0  0  0  0  0  0  0  0  0  0  0
   34.8550   20.3840   32.5930 H   0  0  0  0  0  0  0  0  0  0  0  0
   34.6230   22.4530   31.1950 H   0  0  0  0  0  0  0  0  0  0  0  0
   36.2860   24.6000   31.2310 C   0  0  0  0  0  0  0  0  0  0  0  0
   37.3280   24.7570   30.3690 F   0  0  0  0  0  0  0  0  0  0  0  0
   35.1110   24.5830   30.4690 F   0  0  0  0  0  0  0  0  0  0  0  0
   36.1130   25.7000   32.0820 F   0  0  0  0  0  0  0  0  0  0  0  0
   39.1820   25.0930   33.1870 N   0  0  0  0  0  0  0  0  0  0  0  0
   38.3840   24.2840   33.0480 C   0  0  0  0  0  0  0  0  0  0  0  0
   38.5550   21.8990   34.5900 O   0  0  0  0  0  0  0  0  0  0  0  0
   38.5610   22.3770   35.8630 C   0  0  0  0  0  0  0  0  0  0  0  0
   39.8370   22.3290   36.4300 C   0  0  0  0  0  0  0  0  0  0  0  0
   40.0480   22.7690   37.7160 C   0  0  0  0  0  0  0  0  0  0  0  0
   38.9600   23.2520   38.4040 N   0  0  0  0  0  0  0  0  0  0  0  0
   37.7350   23.2930   37.8420 C   0  0  0  0  0  0  0  0  0  0  0  0
   37.5490   22.8630   36.6000 N   0  0  0  0  0  0  0  0  0  0  0  0
   40.9930   22.7710   38.2370 H   0  0  0  0  0  0  0  0  0  0  0  0
   36.9650   23.6910   38.4750 H   0  0  0  0  0  0  0  0  0  0  0  0
   41.9140   22.8280   35.2390 C   0  0  0  0  0  0  0  0  0  0  0  0
   41.8830   24.1070   35.0340 O   0  0  0  0  0  0  0  0  0  0  0  0
   41.0050   21.8840   35.8070 N   0  0  0  0  0  0  0  0  0  0  0  0
   42.8800   22.9910   34.7770 H   0  0  0  0  0  0  0  0  0  0  0  0
   41.5820   21.0860   35.5240 H   0  0  0  0  0  0  0  0  0  0  0  0
  1 15  1  0  0  0  0
  1  2  1  0  0  0  0
  2 16  1  0  0  0  0
  3  2  2  0  0  0  0
  3  7  1  0  0  0  0
  4  3  1  0  0  0  0
  5  6  1  0  0  0  0
  5  4  2  0  0  0  0
  6  1  2  0  0  0  0
  8  4  1  0  0  0  0
  9  5  1  0  0  0  0
 10  6  1  0  0  0  0
 10 13  1  0  0  0  0
 11 10  1  0  0  0  0
 12 10  1  0  0  0  0
 15 14  3  0  0  0  0
 16 17  1  0  0  0  0
 17 18  2  0  0  0  0
 17 22  1  0  0  0  0
 18 19  1  0  0  0  0
 19 23  1  0  0  0  0
 19 20  2  0  0  0  0
 21 20  1  0  0  0  0
 21 24  1  0  0  0  0
 22 21  2  0  0  0  0
 25 27  1  0  0  0  0
 26 25  2  0  0  0  0
 27 18  1  0  0  0  0
 28 25  1  0  0  0  0
 29 27  1  0  0  0  0
M  END
>  <minimizedAffinity>
-4.97445822

$$$$

 OpenBabel03272507403D

 29 30  0  0  0  0  0  0  0  0999 V2000
   38.2400   24.6680   34.8140 C   0  0  0  0  0  0  0  0  0  0  0  0
   38.1330   23.2950   34.7550 C   0  0  0  0  0  0  0  0  0  0  0  0
   37.9990   22.5560   35.9170 C   0  0  0  0  0  0  0  0  0  0  0  0
   37.9710   23.2050   37.1450 C   0  0  0  0  0  0  0  0  0  0  0  0
   38.0790   24.5990   37.1960 C   0  0  0  0  0  0  0  0  0  0  0  0
   38.2110   25.2910   36.0160 C   0  0  0  0  0  0  0  0  0  0  0  0
   37.9110   21.4910   35.9560 H   0  0  0  0  0  0  0  0  0  0  0  0
   37.8670   22.6550   38.0720 H   0  0  0  0  0  0  0  0  0  0  0  0
   38.0630   25.1540   38.1230 H   0  0  0  0  0  0  0  0  0  0  0  0
   38.3330   26.7800   35.9630 C   0  0  0  0  0  0  0  0  0  0  0  0
   37.3370   27.3830   35.2580 F   0  0  0  0  0  0  0  0  0  0  0  0
   38.2820   27.2800   37.2710 F   0  0  0  0  0  0  0  0  0  0  0  0
   39.6120   27.1450   35.5210 F   0  0  0  0  0  0  0  0  0  0  0  0
   38.4940   25.8970   32.5620 N   0  0  0  0  0  0  0  0  0  0  0  0
   38.3700   25.3530   33.5620 C   0  0  0  0  0  0  0  0  0  0  0  0
   38.1450   22.5180   33.6140 O   0  0  0  0  0  0  0  0  0  0  0  0
   37.0610   21.8740   33.1050 C   0  0  0  0  0  0  0  0  0  0  0  0
   36.7410   22.3270   31.8230 C   0  0  0  0  0  0  0  0  0  0  0  0
   35.6710   21.7960   31.1400 C   0  0  0  0  0  0  0  0  0  0  0  0
   34.9460   20.8130   31.7710 N   0  0  0  0  0  0  0  0  0  0  0  0
   35.2680   20.3870   33.0080 C   0  0  0  0  0  0  0  0  0  0  0  0
   36.3030   20.9100   33.6540 N   0  0  0  0  0  0  0  0  0  0  0  0
   35.3490   22.0810   30.1510 H   0  0  0  0  0  0  0  0  0  0  0  0
   34.6300   19.6160   33.3970 H   0  0  0  0  0  0  0  0  0  0  0  0
   38.4890   22.9080   30.2150 C   0  0  0  0  0  0  0  0  0  0  0  0
   39.1120   21.7970   29.9810 O   0  0  0  0  0  0  0  0  0  0  0  0
   37.4290   23.2970   31.0900 N   0  0  0  0  0  0  0  0  0  0  0  0
   39.1950   23.2180   29.4540 H   0  0  0  0  0  0  0  0  0  0  0  0
   37.5470   24.2900   30.8700 H   0  0  0  0  0  0  0  0  0  0  0  0
  1  6  1  0  0  0  0
  2  1  2  0  0  0  0
  2  3  1  0  0  0  0
  3  7  1  0  0  0  0
  3  4  2  0  0  0  0
  4  5  1  0  0  0  0
  4  8  1  0  0  0  0
  5  9  1  0  0  0  0
  6  5  2  0  0  0  0
 10  6  1  0  0  0  0
 10 12  1  0  0  0  0
 11 10  1  0  0  0  0
 13 10  1  0  0  0  0
 14 15  3  0  0  0  0
 15  1  1  0  0  0  0
 16  2  1  0  0  0  0
 17 16  1  0  0  0  0
 17 22  1  0  0  0  0
 18 17  2  0  0  0  0
 19 20  2  0  0  0  0
 19 18  1  0  0  0  0
 20 21  1  0  0  0  0
 21 24  1  0  0  0  0
 21 22  2  0  0  0  0
 23 19  1  0  0  0  0
 25 27  1  0  0  0  0
 26 25  2  0  0  0  0
 27 18  1  0  0  0  0
 28 25  1  0  0  0  0
 29 27  1  0  0  0  0
M  END
>  <minimizedAffinity>
-4.94938803

$$$$

 OpenBabel03272507403D

 29 30  0  0  0  0  0  0  0  0999 V2000
   37.4980   24.9280   32.9460 C   0  0  0  0  0  0  0  0  0  0  0  0
   38.1930   25.7040   33.8480 C   0  0  0  0  0  0  0  0  0  0  0  0
   37.9400   27.0610   33.9410 C   0  0  0  0  0  0  0  0  0  0  0  0
   36.9770   27.6380   33.1220 C   0  0  0  0  0  0  0  0  0  0  0  0
   36.2760   26.8430   32.2090 C   0  0  0  0  0  0  0  0  0  0  0  0
   36.5620   25.5000   32.1520 C   0  0  0  0  0  0  0  0  0  0  0  0
   38.4340   27.7300   34.6130 H   0  0  0  0  0  0  0  0  0  0  0  0
   36.7560   28.6960   33.1710 H   0  0  0  0  0  0  0  0  0  0  0  0
   35.5180   27.2390   31.5480 H   0  0  0  0  0  0  0  0  0  0  0  0
   35.8680   24.5670   31.2120 C   0  0  0  0  0  0  0  0  0  0  0  0
   35.1120   23.6250   31.8410 F   0  0  0  0  0  0  0  0  0  0  0  0
   35.0120   25.3120   30.3920 F   0  0  0  0  0  0  0  0  0  0  0  0
   36.7900   24.0140   30.3120 F   0  0  0  0  0  0  0  0  0  0  0  0
   38.0890   22.4190   32.8820 N   0  0  0  0  0  0  0  0  0  0  0  0
   37.8220   23.5320   32.9200 C   0  0  0  0  0  0  0  0  0  0  0  0
   39.1710   25.2710   34.7220 O   0  0  0  0  0  0  0  0  0  0  0  0
   38.9290   24.6850   35.9240 C   0  0  0  0  0  0  0  0  0  0  0  0
   39.6630   23.5070   36.0860 C   0  0  0  0  0  0  0  0  0  0  0  0
   39.5530   22.7670   37.2400 C   0  0  0  0  0  0  0  0  0  0  0  0
   38.7010   23.2370   38.2110 N   0  0  0  0  0  0  0  0  0  0  0  0
   38.0000   24.3760   38.0400 C   0  0  0  0  0  0  0  0  0  0  0  0
   38.1170   25.0780   36.9200 N   0  0  0  0  0  0  0  0  0  0  0  0
   40.0770   21.8490   37.4550 H   0  0  0  0  0  0  0  0  0  0  0  0
   37.3680   24.6420   38.8660 H   0  0  0  0  0  0  0  0  0  0  0  0
   41.9710   23.1930   35.3420 C   0  0  0  0  0  0  0  0  0  0  0  0
   42.6820   23.9330   36.1320 O   0  0  0  0  0  0  0  0  0  0  0  0
   40.5710   22.9640   35.1740 N   0  0  0  0  0  0  0  0  0  0  0  0
   42.9740   22.9560   35.0080 H   0  0  0  0  0  0  0  0  0  0  0  0
   40.7140   22.4140   34.3230 H   0  0  0  0  0  0  0  0  0  0  0  0
  1  2  1  0  0  0  0
  2  3  2  0  0  0  0
  2 16  1  0  0  0  0
  3  7  1  0  0  0  0
  4  8  1  0  0  0  0
  4  3  1  0  0  0  0
  5  4  2  0  0  0  0
  6  5  1  0  0  0  0
  6  1  2  0  0  0  0
  9  5  1  0  0  0  0
 10 11  1  0  0  0  0
 10  6  1  0  0  0  0
 12 10  1  0  0  0  0
 13 10  1  0  0  0  0
 14 15  3  0  0  0  0
 15  1  1  0  0  0  0
 16 17  1  0  0  0  0
 17 18  2  0  0  0  0
 17 22  1  0  0  0  0
 18 19  1  0  0  0  0
 19 23  1  0  0  0  0
 19 20  2  0  0  0  0
 21 20  1  0  0  0  0
 21 24  1  0  0  0  0
 22 21  2  0  0  0  0
 25 26  2  0  0  0  0
 27 25  1  0  0  0  0
 27 18  1  0  0  0  0
 28 25  1  0  0  0  0
 29 27  1  0  0  0  0
M  END
>  <minimizedAffinity>
-4.9204402

$$$$

 OpenBabel03272507403D

 29 30  0  0  0  0  0  0  0  0999 V2000
   38.1640   24.5940   35.2500 C   0  0  0  0  0  0  0  0  0  0  0  0
   38.1490   25.4080   34.1400 C   0  0  0  0  0  0  0  0  0  0  0  0
   38.1730   26.7840   34.2840 C   0  0  0  0  0  0  0  0  0  0  0  0
   38.2150   27.3410   35.5570 C   0  0  0  0  0  0  0  0  0  0  0  0
   38.2300   26.5060   36.6790 C   0  0  0  0  0  0  0  0  0  0  0  0
   38.2040   25.1460   36.4860 C   0  0  0  0  0  0  0  0  0  0  0  0
   38.1640   27.4830   33.4750 H   0  0  0  0  0  0  0  0  0  0  0  0
   38.2340   28.4140   35.7030 H   0  0  0  0  0  0  0  0  0  0  0  0
   38.2610   26.8860   37.6900 H   0  0  0  0  0  0  0  0  0  0  0  0
   38.2180   24.1700   37.6200 C   0  0  0  0  0  0  0  0  0  0  0  0
   39.3570   23.4260   37.6820 F   0  0  0  0  0  0  0  0  0  0  0  0
   38.1150   24.8800   38.8220 F   0  0  0  0  0  0  0  0  0  0  0  0
   37.0560   23.3870   37.5970 F   0  0  0  0  0  0  0  0  0  0  0  0
   38.1070   22.0550   34.8050 N   0  0  0  0  0  0  0  0  0  0  0  0
   38.1420   23.1810   35.0080 C   0  0  0  0  0  0  0  0  0  0  0  0
   38.1100   25.0000   32.8210 O   0  0  0  0  0  0  0  0  0  0  0  0
   39.0780   25.2590   31.9020 C   0  0  0  0  0  0  0  0  0  0  0  0
   38.5530   25.8320   30.7410 C   0  0  0  0  0  0  0  0  0  0  0  0
   39.3790   26.1660   29.6920 C   0  0  0  0  0  0  0  0  0  0  0  0
   40.7210   25.9150   29.8410 N   0  0  0  0  0  0  0  0  0  0  0  0
   41.2120   25.3620   30.9690 C   0  0  0  0  0  0  0  0  0  0  0  0
   40.4030   25.0450   31.9710 N   0  0  0  0  0  0  0  0  0  0  0  0
   39.0670   26.6100   28.7600 H   0  0  0  0  0  0  0  0  0  0  0  0
   42.2750   25.2150   30.9700 H   0  0  0  0  0  0  0  0  0  0  0  0
   36.7390   27.4710   30.7680 C   0  0  0  0  0  0  0  0  0  0  0  0
   37.2480   28.5250   31.3240 O   0  0  0  0  0  0  0  0  0  0  0  0
   37.2140   26.1500   30.5050 N   0  0  0  0  0  0  0  0  0  0  0  0
   35.9170   28.1710   30.6860 H   0  0  0  0  0  0  0  0  0  0  0  0
   36.2920   25.8270   30.2000 H   0  0  0  0  0  0  0  0  0  0  0  0
  1  6  1  0  0  0  0
  2  3  1  0  0  0  0
  2  1  2  0  0  0  0
  3  4  2  0  0  0  0
  4  8  1  0  0  0  0
  4  5  1  0  0  0  0
  5  9  1  0  0  0  0
  6  5  2  0  0  0  0
  6 10  1  0  0  0  0
  7  3  1  0  0  0  0
 10 11  1  0  0  0  0
 10 12  1  0  0  0  0
 13 10  1  0  0  0  0
 14 15  3  0  0  0  0
 15  1  1  0  0  0  0
 16  2  1  0  0  0  0
 17 22  1  0  0  0  0
 17 16  1  0  0  0  0
 18 17  2  0  0  0  0
 19 20  2  0  0  0  0
 19 18  1  0  0  0  0
 20 21  1  0  0  0  0
 21 24  1  0  0  0  0
 21 22  2  0  0  0  0
 23 19  1  0  0  0  0
 25 26  2  0  0  0  0
 27 18  1  0  0  0  0
 27 25  1  0  0  0  0
 28 25  1  0  0  0  0
 29 27  1  0  0  0  0
M  END
>  <minimizedAffinity>
-4.89070129

$$$$

 OpenBabel03272507403D

 29 30  0  0  0  0  0  0  0  0999 V2000
   36.9800   24.9880   32.2970 C   0  0  0  0  0  0  0  0  0  0  0  0
   37.7500   24.0590   32.9640 C   0  0  0  0  0  0  0  0  0  0  0  0
   37.4270   22.7150   32.9050 C   0  0  0  0  0  0  0  0  0  0  0  0
   36.3220   22.3060   32.1670 C   0  0  0  0  0  0  0  0  0  0  0  0
   35.5470   23.2550   31.4930 C   0  0  0  0  0  0  0  0  0  0  0  0
   35.9060   24.5780   31.5810 C   0  0  0  0  0  0  0  0  0  0  0  0
   37.9710   21.9340   33.3920 H   0  0  0  0  0  0  0  0  0  0  0  0
   36.0440   21.2620   32.1010 H   0  0  0  0  0  0  0  0  0  0  0  0
   34.6780   22.9920   30.9060 H   0  0  0  0  0  0  0  0  0  0  0  0
   35.1430   25.6690   30.8980 C   0  0  0  0  0  0  0  0  0  0  0  0
   34.6090   26.5800   31.7580 F   0  0  0  0  0  0  0  0  0  0  0  0
   36.0150   26.3580   30.0470 F   0  0  0  0  0  0  0  0  0  0  0  0
   34.1930   25.1210   30.0260 F   0  0  0  0  0  0  0  0  0  0  0  0
   37.7060   27.4550   32.4840 N   0  0  0  0  0  0  0  0  0  0  0  0
   37.3900   26.3570   32.4090 C   0  0  0  0  0  0  0  0  0  0  0  0
   38.8690   24.3170   33.7300 O   0  0  0  0  0  0  0  0  0  0  0  0
   39.1620   23.6950   34.9030 C   0  0  0  0  0  0  0  0  0  0  0  0
   38.4890   24.2740   35.9820 C   0  0  0  0  0  0  0  0  0  0  0  0
   38.6560   23.7830   37.2560 C   0  0  0  0  0  0  0  0  0  0  0  0
   39.5030   22.7130   37.4130 N   0  0  0  0  0  0  0  0  0  0  0  0
   40.1450   22.1640   36.3610 C   0  0  0  0  0  0  0  0  0  0  0  0
   39.9730   22.6500   35.1390 N   0  0  0  0  0  0  0  0  0  0  0  0
   38.1810   24.1630   38.1470 H   0  0  0  0  0  0  0  0  0  0  0  0
   40.7780   21.3330   36.6070 H   0  0  0  0  0  0  0  0  0  0  0  0
   38.0810   26.6830   35.8650 C   0  0  0  0  0  0  0  0  0  0  0  0
   39.2520   27.2260   35.9740 O   0  0  0  0  0  0  0  0  0  0  0  0
   37.5910   25.3420   35.9220 N   0  0  0  0  0  0  0  0  0  0  0  0
   37.8400   27.7310   35.7360 H   0  0  0  0  0  0  0  0  0  0  0  0
   36.6140   25.6480   35.9090 H   0  0  0  0  0  0  0  0  0  0  0  0
  1 15  1  0  0  0  0
  1  2  1  0  0  0  0
  2 16  1  0  0  0  0
  3  2  2  0  0  0  0
  3  7  1  0  0  0  0
  4  3  1  0  0  0  0
  5  6  1  0  0  0  0
  5  4  2  0  0  0  0
  6  1  2  0  0  0  0
  8  4  1  0  0  0  0
  9  5  1  0  0  0  0
 10  6  1  0  0  0  0
 10 11  1  0  0  0  0
 12 10  1  0  0  0  0
 13 10  1  0  0  0  0
 15 14  3  0  0  0  0
 16 17  1  0  0  0  0
 17 22  2  0  0  0  0
 17 18  1  0  0  0  0
 18 19  2  0  0  0  0
 19 20  1  0  0  0  0
 19 23  1  0  0  0  0
 21 24  1  0  0  0  0
 21 20  2  0  0  0  0
 22 21  1  0  0  0  0
 25 27  1  0  0  0  0
 25 26  2  0  0  0  0
 27 18  1  0  0  0  0
 28 25  1  0  0  0  0
 29 27  1  0  0  0  0
M  END
>  <minimizedAffinity>
-4.7770462

$$$$

 OpenBabel03272507403D

 29 30  0  0  0  0  0  0  0  0999 V2000
   37.3980   22.3210   33.2140 C   0  0  0  0  0  0  0  0  0  0  0  0
   37.6610   22.2150   34.5630 C   0  0  0  0  0  0  0  0  0  0  0  0
   36.8720   21.4120   35.3670 C   0  0  0  0  0  0  0  0  0  0  0  0
   35.8120   20.7100   34.8060 C   0  0  0  0  0  0  0  0  0  0  0  0
   35.5520   20.8220   33.4370 C   0  0  0  0  0  0  0  0  0  0  0  0
   36.3620   21.6320   32.6780 C   0  0  0  0  0  0  0  0  0  0  0  0
   37.0100   21.2770   36.4180 H   0  0  0  0  0  0  0  0  0  0  0  0
   35.1760   20.0730   35.4080 H   0  0  0  0  0  0  0  0  0  0  0  0
   34.7410   20.2990   32.9500 H   0  0  0  0  0  0  0  0  0  0  0  0
   36.1670   21.8190   31.2070 C   0  0  0  0  0  0  0  0  0  0  0  0
   37.2240   21.3950   30.4610 F   0  0  0  0  0  0  0  0  0  0  0  0
   35.0480   21.0780   30.8070 F   0  0  0  0  0  0  0  0  0  0  0  0
   35.8020   23.1440   30.9320 F   0  0  0  0  0  0  0  0  0  0  0  0
   38.9780   23.8450   31.8630 N   0  0  0  0  0  0  0  0  0  0  0  0
   38.2680   23.1710   32.4570 C   0  0  0  0  0  0  0  0  0  0  0  0
   38.6740   22.8500   35.2540 O   0  0  0  0  0  0  0  0  0  0  0  0
   38.5420   23.3920   36.4940 C   0  0  0  0  0  0  0  0  0  0  0  0
   38.1100   24.7200   36.4380 C   0  0  0  0  0  0  0  0  0  0  0  0
   37.9170   25.4420   37.5930 C   0  0  0  0  0  0  0  0  0  0  0  0
   38.1630   24.8030   38.7840 N   0  0  0  0  0  0  0  0  0  0  0  0
   38.5790   23.5200   38.8220 C   0  0  0  0  0  0  0  0  0  0  0  0
   38.7610   22.8380   37.6990 N   0  0  0  0  0  0  0  0  0  0  0  0
   37.5880   26.4670   37.6490 H   0  0  0  0  0  0  0  0  0  0  0  0
   38.7370   23.1300   39.8090 H   0  0  0  0  0  0  0  0  0  0  0  0
   38.7590   26.3720   34.7560 C   0  0  0  0  0  0  0  0  0  0  0  0
   39.8940   26.8420   35.1680 O   0  0  0  0  0  0  0  0  0  0  0  0
   37.8080   25.4450   35.2840 N   0  0  0  0  0  0  0  0  0  0  0  0
   39.0200   27.0370   33.9430 H   0  0  0  0  0  0  0  0  0  0  0  0
   37.1250   25.6550   34.5500 H   0  0  0  0  0  0  0  0  0  0  0  0
  1  2  1  0  0  0  0
  2 16  1  0  0  0  0
  2  3  2  0  0  0  0
  3  7  1  0  0  0  0
  4  3  1  0  0  0  0
  4  8  1  0  0  0  0
  5  4  2  0  0  0  0
  6  1  2  0  0  0  0
  6  5  1  0  0  0  0
  9  5  1  0  0  0  0
 10  6  1  0  0  0  0
 11 10  1  0  0  0  0
 12 10  1  0  0  0  0
 13 10  1  0  0  0  0
 14 15  3  0  0  0  0
 15  1  1  0  0  0  0
 16 17  1  0  0  0  0
 17 22  1  0  0  0  0
 18 17  2  0  0  0  0
 18 19  1  0  0  0  0
 19 23  1  0  0  0  0
 19 20  2  0  0  0  0
 20 21  1  0  0  0  0
 21 24  1  0  0  0  0
 22 21  2  0  0  0  0
 25 26  2  0  0  0  0
 25 27  1  0  0  0  0
 27 18  1  0  0  0  0
 28 25  1  0  0  0  0
 29 27  1  0  0  0  0
M  END
>  <minimizedAffinity>
-4.7075386

$$$$
