
 OpenBabel03272510223D

 26 28  0  0  0  0  0  0  0  0999 V2000
   36.2610   30.2380   46.1950 C   0  0  0  0  0  0  0  0  0  0  0  0
   37.2030   30.9190   46.9290 C   0  0  0  0  0  0  0  0  0  0  0  0
   38.0350   31.8320   46.3220 C   0  0  0  0  0  0  0  0  0  0  0  0
   37.8820   32.0300   44.9620 C   0  0  0  0  0  0  0  0  0  0  0  0
   38.5840   32.8760   44.1470 N   0  0  0  0  0  0  0  0  0  0  0  0
   38.0900   32.7300   42.9100 C   0  0  0  0  0  0  0  0  0  0  0  0
   37.0970   31.8210   42.9020 N   0  0  0  0  0  0  0  0  0  0  0  0
   36.9470   31.3680   44.1740 C   0  0  0  0  0  0  0  0  0  0  0  0
   36.1280   30.4580   44.8170 C   0  0  0  0  0  0  0  0  0  0  0  0
   35.5790   29.5100   46.6050 H   0  0  0  0  0  0  0  0  0  0  0  0
   38.7680   32.3610   46.8980 H   0  0  0  0  0  0  0  0  0  0  0  0
   39.3690   33.5240   44.4310 H   0  0  0  0  0  0  0  0  0  0  0  0
   35.3820   29.9220   44.2220 H   0  0  0  0  0  0  0  0  0  0  0  0
   38.0860   30.9150   50.5940 C   0  0  0  0  0  0  0  0  0  0  0  0
   38.0930   31.2630   49.2470 C   0  0  0  0  0  0  0  0  0  0  0  0
   37.2580   30.6160   48.3560 C   0  0  0  0  0  0  0  0  0  0  0  0
   36.4350   29.6350   48.8330 N   0  0  0  0  0  0  0  0  0  0  0  0
   36.4530   29.3170   50.1660 C   0  0  0  0  0  0  0  0  0  0  0  0
   37.2590   29.9420   51.0200 N   0  0  0  0  0  0  0  0  0  0  0  0
   38.7460   31.4370   51.2560 H   0  0  0  0  0  0  0  0  0  0  0  0
   38.7400   32.0300   48.8930 H   0  0  0  0  0  0  0  0  0  0  0  0
   35.7600   28.5240   50.4330 H   0  0  0  0  0  0  0  0  0  0  0  0
   38.6110   33.4980   41.7400 C   0  0  0  0  0  0  0  0  0  0  0  0
   39.1630   32.7100   40.7720 F   0  0  0  0  0  0  0  0  0  0  0  0
   39.5670   34.4100   42.1810 F   0  0  0  0  0  0  0  0  0  0  0  0
   37.6090   34.2570   41.1620 F   0  0  0  0  0  0  0  0  0  0  0  0
  1 10  1  0  0  0  0
  1  2  1  0  0  0  0
  2 16  1  0  0  0  0
  3 11  1  0  0  0  0
  3  2  2  0  0  0  0
  4  3  1  0  0  0  0
  5 12  1  0  0  0  0
  5  4  1  0  0  0  0
  6  5  1  0  0  0  0
  7  6  2  0  0  0  0
  7  8  1  0  0  0  0
  8  9  1  0  0  0  0
  8  4  2  0  0  0  0
  9  1  2  0  0  0  0
 13  9  1  0  0  0  0
 14 19  1  0  0  0  0
 14 20  1  0  0  0  0
 15 14  2  0  0  0  0
 16 17  2  0  0  0  0
 16 15  1  0  0  0  0
 17 18  1  0  0  0  0
 18 22  1  0  0  0  0
 18 19  2  0  0  0  0
 21 15  1  0  0  0  0
 23 25  1  0  0  0  0
 23  6  1  0  0  0  0
 24 23  1  0  0  0  0
 26 23  1  0  0  0  0
M  END
>  <minimizedAffinity>
-5.09545994

>  <minimizedRMSD>
2.30271912

$$$$
