
 OpenBabel03272505063D

 28 29  0  0  1  0  0  0  0  0999 V2000
   37.6630   30.1900   51.1300 C   0  0  0  0  0  0  0  0  0  0  0  0
   38.2640   30.9600   50.1250 C   0  0  0  0  0  0  0  0  0  0  0  0
   37.8020   30.7800   48.8120 C   0  0  0  0  0  0  0  0  0  0  0  0
   36.8140   29.8840   48.6020 N   0  0  0  0  0  0  0  0  0  0  0  0
   36.2610   29.1650   49.5910 C   0  0  0  0  0  0  0  0  0  0  0  0
   36.6900   29.3190   50.8660 N   0  0  0  0  0  0  0  0  0  0  0  0
   38.2940   31.4720   47.6780 N   0  0  0  0  0  0  0  0  0  0  0  0
   38.5750   32.8550   47.6010 C   0  0  0  0  0  0  0  0  0  0  0  0
   39.8750   33.2520   46.9750 C   0  0  0  0  0  0  0  0  0  0  0  0
   40.2920   32.4610   45.7910 C   0  0  0  0  0  0  0  0  0  0  0  0
   40.0530   30.9910   46.0550 C   0  0  0  0  0  0  0  0  0  0  0  0
   38.5870   30.8720   46.4240 C   0  0  2  0  0  0  0  0  0  0  0  0
   38.0680   30.3810   52.1100 H   0  0  0  0  0  0  0  0  0  0  0  0
   39.0470   31.6790   50.2410 H   0  0  0  0  0  0  0  0  0  0  0  0
   35.4700   28.4640   49.3390 H   0  0  0  0  0  0  0  0  0  0  0  0
   37.7660   33.4970   47.1860 H   0  0  0  0  0  0  0  0  0  0  0  0
   38.6340   33.2140   48.6710 H   0  0  0  0  0  0  0  0  0  0  0  0
   40.6890   33.1410   47.7410 H   0  0  0  0  0  0  0  0  0  0  0  0
   39.8410   34.3270   46.7430 H   0  0  0  0  0  0  0  0  0  0  0  0
   41.4070   32.5720   45.6750 H   0  0  0  0  0  0  0  0  0  0  0  0
   39.8780   32.7590   44.8240 H   0  0  0  0  0  0  0  0  0  0  0  0
   40.6300   30.7110   46.9770 H   0  0  0  0  0  0  0  0  0  0  0  0
   40.3060   30.3440   45.2110 H   0  0  0  0  0  0  0  0  0  0  0  0
   38.4500   29.7610   46.5750 H   0  0  0  0  0  0  0  0  0  0  0  0
   37.6790   31.2200   45.2870 C   0  0  0  0  0  0  0  0  0  0  0  0
   38.1780   30.5430   44.1650 F   0  0  0  0  0  0  0  0  0  0  0  0
   37.5720   32.5310   44.9740 F   0  0  0  0  0  0  0  0  0  0  0  0
   36.4200   30.6980   45.4950 F   0  0  0  0  0  0  0  0  0  0  0  0
  1 13  1  0  0  0  0
  2 14  1  0  0  0  0
  2  1  2  0  0  0  0
  3  2  1  0  0  0  0
  4  3  2  0  0  0  0
  4  5  1  0  0  0  0
  5  6  2  0  0  0  0
  6  1  1  0  0  0  0
  7  3  1  0  0  0  0
  8  7  1  0  0  0  0
  8 17  1  0  0  0  0
  9  8  1  0  0  0  0
  9 18  1  0  0  0  0
 10 11  1  0  0  0  0
 10  9  1  0  0  0  0
 11 12  1  0  0  0  0
 11 22  1  0  0  0  0
 12 24  1  1  0  0  0
 12  7  1  0  0  0  0
 15  5  1  0  0  0  0
 16  8  1  0  0  0  0
 19  9  1  0  0  0  0
 20 10  1  0  0  0  0
 21 10  1  0  0  0  0
 23 11  1  0  0  0  0
 25 28  1  0  0  0  0
 25 12  1  0  0  0  0
 26 25  1  0  0  0  0
 27 25  1  0  0  0  0
M  END
>  <minimizedAffinity>
-5.32421255

>  <minimizedRMSD>
1.35673428

$$$$
