
 OpenBabel03272509003D

 23 24  0  0  0  0  0  0  0  0999 V2000
   38.3690   31.6840   48.8390 Cl  0  0  0  0  0  0  0  0  0  0  0  0
   37.1650   30.9600   47.8250 C   0  0  0  0  0  0  0  0  0  0  0  0
   37.3370   30.9460   46.4580 C   0  0  0  0  0  0  0  0  0  0  0  0
   36.4070   30.3860   45.6130 C   0  0  0  0  0  0  0  0  0  0  0  0
   35.2550   29.8140   46.1200 C   0  0  0  0  0  0  0  0  0  0  0  0
   35.0520   29.8130   47.4990 C   0  0  0  0  0  0  0  0  0  0  0  0
   33.6370   29.1220   48.2700 Cl  0  0  0  0  0  0  0  0  0  0  0  0
   36.0120   30.3840   48.2990 C   0  0  0  0  0  0  0  0  0  0  0  0
   36.5340   30.3720   44.5420 H   0  0  0  0  0  0  0  0  0  0  0  0
   34.4920   29.3610   45.5020 H   0  0  0  0  0  0  0  0  0  0  0  0
   39.6430   33.2780   44.8080 C   0  0  0  0  0  0  0  0  0  0  0  0
   40.8580   32.5950   44.8450 C   0  0  0  0  0  0  0  0  0  0  0  0
   40.8760   31.3080   45.4500 C   0  0  0  0  0  0  0  0  0  0  0  0
   39.7100   30.8280   45.9520 N   0  0  0  0  0  0  0  0  0  0  0  0
   38.5450   31.5420   45.8900 C   0  0  0  0  0  0  0  0  0  0  0  0
   38.5240   32.7550   45.3210 N   0  0  0  0  0  0  0  0  0  0  0  0
   39.6810   34.2550   44.3370 H   0  0  0  0  0  0  0  0  0  0  0  0
   41.7700   32.9700   44.4510 H   0  0  0  0  0  0  0  0  0  0  0  0
   41.7840   30.7230   45.5120 H   0  0  0  0  0  0  0  0  0  0  0  0
   35.8220   30.3990   49.7870 C   0  0  0  0  0  0  0  0  0  0  0  0
   36.5010   31.4460   50.3710 F   0  0  0  0  0  0  0  0  0  0  0  0
   34.4680   30.6650   50.0150 F   0  0  0  0  0  0  0  0  0  0  0  0
   36.0930   29.1800   50.3340 F   0  0  0  0  0  0  0  0  0  0  0  0
  2  8  1  0  0  0  0
  2  1  1  0  0  0  0
  3  2  2  0  0  0  0
  4  5  2  0  0  0  0
  4  3  1  0  0  0  0
  5  6  1  0  0  0  0
  6  7  1  0  0  0  0
  6  8  2  0  0  0  0
  8 20  1  0  0  0  0
  9  4  1  0  0  0  0
 10  5  1  0  0  0  0
 11 12  2  0  0  0  0
 11 16  1  0  0  0  0
 12 13  1  0  0  0  0
 13 19  1  0  0  0  0
 13 14  2  0  0  0  0
 15 14  1  0  0  0  0
 15  3  1  0  0  0  0
 16 15  2  0  0  0  0
 17 11  1  0  0  0  0
 18 12  1  0  0  0  0
 20 22  1  0  0  0  0
 20 23  1  0  0  0  0
 20 21  1  0  0  0  0
M  END
>  <minimizedAffinity>
-6.05858374

>  <minimizedRMSD>
3.35038137

$$$$
