
 OpenBabel03272506473D

 37 39  0  0  1  0  0  0  0  0999 V2000
   32.3370   28.5500   47.4190 C   0  0  2  0  0  0  0  0  0  0  0  0
   33.5560   28.4470   48.2870 C   0  0  1  0  0  0  0  0  0  0  0  0
   33.9880   27.1550   48.2570 O   0  0  0  0  0  0  0  0  0  0  0  0
   33.3360   26.4780   47.2330 C   0  0  0  0  0  0  0  0  0  0  0  0
   32.7350   27.5160   46.3190 C   0  0  1  0  0  0  0  0  0  0  0  0
   31.4010   28.2390   47.8720 H   0  0  0  0  0  0  0  0  0  0  0  0
   33.3460   28.8440   49.2970 H   0  0  0  0  0  0  0  0  0  0  0  0
   32.6480   25.7930   47.7020 H   0  0  0  0  0  0  0  0  0  0  0  0
   34.0830   25.8410   46.6890 H   0  0  0  0  0  0  0  0  0  0  0  0
   33.4310   28.0180   45.6590 H   0  0  0  0  0  0  0  0  0  0  0  0
   32.2530   29.8280   46.8290 O   0  0  0  0  0  0  0  0  0  0  0  0
   31.3750   30.2290   46.9330 H   0  0  0  0  0  0  0  0  0  0  0  0
   34.8630   29.5000   47.5350 S   0  0  0  0  0  0  0  0  0  0  0  0
   37.3260   29.3150   50.6280 C   0  0  0  0  0  0  0  0  0  0  0  0
   37.8230   30.6140   50.7840 C   0  0  0  0  0  0  0  0  0  0  0  0
   37.3660   31.5900   49.8800 C   0  0  0  0  0  0  0  0  0  0  0  0
   36.4820   31.2260   48.9190 N   0  0  0  0  0  0  0  0  0  0  0  0
   36.0310   29.9550   48.8120 C   0  0  0  0  0  0  0  0  0  0  0  0
   36.4460   28.9820   49.6640 N   0  0  0  0  0  0  0  0  0  0  0  0
   37.6620   28.5510   51.3100 H   0  0  0  0  0  0  0  0  0  0  0  0
   38.5300   30.8760   51.5620 H   0  0  0  0  0  0  0  0  0  0  0  0
   37.6980   32.6070   49.9310 H   0  0  0  0  0  0  0  0  0  0  0  0
   31.6210   26.9870   45.7140 O   0  0  0  0  0  0  0  0  0  0  0  0
   30.1960   29.0280   44.1390 Cl  0  0  0  0  0  0  0  0  0  0  0  0
   29.5980   28.0600   45.4660 C   0  0  0  0  0  0  0  0  0  0  0  0
   30.3640   27.1230   46.1210 C   0  0  0  0  0  0  0  0  0  0  0  0
   29.7670   26.3930   47.1520 C   0  0  0  0  0  0  0  0  0  0  0  0
   28.4490   26.6100   47.4950 C   0  0  0  0  0  0  0  0  0  0  0  0
   27.6710   27.5510   46.8410 C   0  0  0  0  0  0  0  0  0  0  0  0
   28.2720   28.2770   45.8140 C   0  0  0  0  0  0  0  0  0  0  0  0
   30.2820   25.6360   47.7180 H   0  0  0  0  0  0  0  0  0  0  0  0
   27.9280   26.0830   48.2780 H   0  0  0  0  0  0  0  0  0  0  0  0
   26.6380   27.7310   47.0990 H   0  0  0  0  0  0  0  0  0  0  0  0
   27.4450   29.2890   45.1060 C   0  0  0  0  0  0  0  0  0  0  0  0
   26.1780   29.3930   45.6480 F   0  0  0  0  0  0  0  0  0  0  0  0
   27.3200   28.8510   43.7820 F   0  0  0  0  0  0  0  0  0  0  0  0
   28.0710   30.5030   45.0330 F   0  0  0  0  0  0  0  0  0  0  0  0
  1  6  1  1  0  0  0
  1  2  1  0  0  0  0
  2  7  1  1  0  0  0
  3  2  1  0  0  0  0
  4  8  1  0  0  0  0
  4  3  1  0  0  0  0
  5 10  1  6  0  0  0
  5  4  1  0  0  0  0
  5  1  1  0  0  0  0
  9  4  1  0  0  0  0
 11 12  1  0  0  0  0
 11  1  1  0  0  0  0
 13  2  1  0  0  0  0
 13 18  1  0  0  0  0
 14 15  1  0  0  0  0
 14 20  1  0  0  0  0
 15 21  1  0  0  0  0
 16 22  1  0  0  0  0
 16 15  2  0  0  0  0
 17 16  1  0  0  0  0
 18 17  2  0  0  0  0
 18 19  1  0  0  0  0
 19 14  2  0  0  0  0
 23 26  1  0  0  0  0
 23  5  1  0  0  0  0
 24 25  1  0  0  0  0
 25 30  2  0  0  0  0
 25 26  1  0  0  0  0
 26 27  2  0  0  0  0
 27 28  1  0  0  0  0
 27 31  1  0  0  0  0
 28 32  1  0  0  0  0
 29 33  1  0  0  0  0
 29 28  2  0  0  0  0
 30 29  1  0  0  0  0
 34 35  1  0  0  0  0
 34 30  1  0  0  0  0
 36 34  1  0  0  0  0
 37 34  1  0  0  0  0
M  END
>  <minimizedAffinity>
-4.71478081

>  <minimizedRMSD>
0.270434439

$$$$
