
 OpenBabel03272506463D

 37 39  0  0  1  0  0  0  0  0999 V2000
   32.3320   28.5590   47.4100 C   0  0  2  0  0  0  0  0  0  0  0  0
   33.5450   28.4660   48.2860 C   0  0  1  0  0  0  0  0  0  0  0  0
   33.9800   27.1740   48.2690 O   0  0  0  0  0  0  0  0  0  0  0  0
   33.3360   26.4880   47.2460 C   0  0  0  0  0  0  0  0  0  0  0  0
   32.7380   27.5180   46.3200 C   0  0  1  0  0  0  0  0  0  0  0  0
   31.3930   28.2490   47.8590 H   0  0  0  0  0  0  0  0  0  0  0  0
   33.3280   28.8700   49.2920 H   0  0  0  0  0  0  0  0  0  0  0  0
   32.6470   25.8050   47.7150 H   0  0  0  0  0  0  0  0  0  0  0  0
   34.0880   25.8490   46.7120 H   0  0  0  0  0  0  0  0  0  0  0  0
   33.4380   28.0160   45.6610 H   0  0  0  0  0  0  0  0  0  0  0  0
   32.2490   29.8320   46.8100 O   0  0  0  0  0  0  0  0  0  0  0  0
   31.3690   30.2320   46.9050 H   0  0  0  0  0  0  0  0  0  0  0  0
   34.8550   29.5150   47.5350 S   0  0  0  0  0  0  0  0  0  0  0  0
   37.3240   29.3130   50.6210 C   0  0  0  0  0  0  0  0  0  0  0  0
   37.8240   30.6110   50.7810 C   0  0  0  0  0  0  0  0  0  0  0  0
   37.3680   31.5910   49.8830 C   0  0  0  0  0  0  0  0  0  0  0  0
   36.4800   31.2330   48.9220 N   0  0  0  0  0  0  0  0  0  0  0  0
   36.0270   29.9640   48.8110 C   0  0  0  0  0  0  0  0  0  0  0  0
   36.4410   28.9860   49.6580 N   0  0  0  0  0  0  0  0  0  0  0  0
   37.6600   28.5460   51.3000 H   0  0  0  0  0  0  0  0  0  0  0  0
   38.5340   30.8680   51.5590 H   0  0  0  0  0  0  0  0  0  0  0  0
   37.7020   32.6070   49.9360 H   0  0  0  0  0  0  0  0  0  0  0  0
   31.6300   26.9820   45.7120 O   0  0  0  0  0  0  0  0  0  0  0  0
   30.1820   28.9750   44.0980 Cl  0  0  0  0  0  0  0  0  0  0  0  0
   29.5940   28.0250   45.4420 C   0  0  0  0  0  0  0  0  0  0  0  0
   30.3710   27.1100   46.1160 C   0  0  0  0  0  0  0  0  0  0  0  0
   29.7820   26.3920   47.1600 C   0  0  0  0  0  0  0  0  0  0  0  0
   28.4610   26.5990   47.4970 C   0  0  0  0  0  0  0  0  0  0  0  0
   27.6720   27.5180   46.8250 C   0  0  0  0  0  0  0  0  0  0  0  0
   28.2650   28.2320   45.7860 C   0  0  0  0  0  0  0  0  0  0  0  0
   30.3050   25.6530   47.7400 H   0  0  0  0  0  0  0  0  0  0  0  0
   27.9460   26.0800   48.2900 H   0  0  0  0  0  0  0  0  0  0  0  0
   26.6370   27.6900   47.0790 H   0  0  0  0  0  0  0  0  0  0  0  0
   27.4260   29.2200   45.0580 C   0  0  0  0  0  0  0  0  0  0  0  0
   26.1440   29.2890   45.5700 F   0  0  0  0  0  0  0  0  0  0  0  0
   27.3440   28.7780   43.7320 F   0  0  0  0  0  0  0  0  0  0  0  0
   28.0200   30.4520   44.9970 F   0  0  0  0  0  0  0  0  0  0  0  0
  1  6  1  1  0  0  0
  1  2  1  0  0  0  0
  2  7  1  1  0  0  0
  3  2  1  0  0  0  0
  4  8  1  0  0  0  0
  4  3  1  0  0  0  0
  5 10  1  6  0  0  0
  5  4  1  0  0  0  0
  5  1  1  0  0  0  0
  9  4  1  0  0  0  0
 11 12  1  0  0  0  0
 11  1  1  0  0  0  0
 13  2  1  0  0  0  0
 13 18  1  0  0  0  0
 14 15  1  0  0  0  0
 14 20  1  0  0  0  0
 15 21  1  0  0  0  0
 16 22  1  0  0  0  0
 16 15  2  0  0  0  0
 17 16  1  0  0  0  0
 18 17  2  0  0  0  0
 18 19  1  0  0  0  0
 19 14  2  0  0  0  0
 23 26  1  0  0  0  0
 23  5  1  0  0  0  0
 24 25  1  0  0  0  0
 25 30  2  0  0  0  0
 25 26  1  0  0  0  0
 26 27  2  0  0  0  0
 27 28  1  0  0  0  0
 27 31  1  0  0  0  0
 28 32  1  0  0  0  0
 29 33  1  0  0  0  0
 29 28  2  0  0  0  0
 30 29  1  0  0  0  0
 34 35  1  0  0  0  0
 34 30  1  0  0  0  0
 36 34  1  0  0  0  0
 37 34  1  0  0  0  0
M  END
>  <minimizedAffinity>
-4.71874762

>  <minimizedRMSD>
0.263268739

$$$$
