
 OpenBabel03272507213D

 38 41  0  0  1  0  0  0  0  0999 V2000
   37.8400   32.3440   49.1910 C   0  0  0  0  0  0  0  0  0  0  0  0
   38.4390   33.4250   49.7970 C   0  0  0  0  0  0  0  0  0  0  0  0
   39.4040   34.0830   49.0300 C   0  0  0  0  0  0  0  0  0  0  0  0
   39.7040   33.6520   47.7730 N   0  0  0  0  0  0  0  0  0  0  0  0
   39.0950   32.5840   47.2060 C   0  0  0  0  0  0  0  0  0  0  0  0
   38.1530   31.9310   47.9350 N   0  0  0  0  0  0  0  0  0  0  0  0
   38.1940   33.7440   50.7760 H   0  0  0  0  0  0  0  0  0  0  0  0
   39.9290   34.9430   49.4240 H   0  0  0  0  0  0  0  0  0  0  0  0
   39.7890   33.0870   44.9300 C   0  0  0  0  0  0  0  0  0  0  0  0
   39.4280   32.1320   45.8540 C   0  0  0  0  0  0  0  0  0  0  0  0
   39.3930   30.8000   45.4820 C   0  0  0  0  0  0  0  0  0  0  0  0
   39.7060   30.3590   44.2100 C   0  0  0  0  0  0  0  0  0  0  0  0
   39.7510   29.1580   43.6040 N   0  0  0  0  0  0  0  0  0  0  0  0
   40.1360   29.3950   42.3340 C   0  0  0  0  0  0  0  0  0  0  0  0
   40.3290   30.7220   42.1420 N   0  0  0  0  0  0  0  0  0  0  0  0
   40.0670   31.3530   43.3020 C   0  0  0  0  0  0  0  0  0  0  0  0
   40.1100   32.6920   43.6450 C   0  0  0  0  0  0  0  0  0  0  0  0
   39.8180   34.1310   45.2110 H   0  0  0  0  0  0  0  0  0  0  0  0
   39.1150   30.0540   46.1930 H   0  0  0  0  0  0  0  0  0  0  0  0
   39.5330   28.2550   44.0430 H   0  0  0  0  0  0  0  0  0  0  0  0
   40.2780   28.6550   41.5560 H   0  0  0  0  0  0  0  0  0  0  0  0
   40.3920   33.4490   42.9240 H   0  0  0  0  0  0  0  0  0  0  0  0
   36.7940   31.5980   49.9900 C   0  0  1  0  0  0  0  0  0  0  0  0
   35.7930   30.7860   49.3370 C   0  0  2  0  0  0  0  0  0  0  0  0
   37.0270   30.0910   49.9580 C   0  0  2  0  0  0  0  0  0  0  0  0
   36.5440   32.1090   50.9480 H   0  0  0  0  0  0  0  0  0  0  0  0
   34.9730   30.2840   49.9630 H   0  0  0  0  0  0  0  0  0  0  0  0
   37.7130   29.6800   49.2190 H   0  0  0  0  0  0  0  0  0  0  0  0
   36.9570   29.4300   51.2900 C   0  0  0  0  0  0  0  0  0  0  0  0
   37.8310   28.3390   51.3700 F   0  0  0  0  0  0  0  0  0  0  0  0
   37.3780   30.3360   52.2500 F   0  0  0  0  0  0  0  0  0  0  0  0
   35.6780   29.0500   51.6450 F   0  0  0  0  0  0  0  0  0  0  0  0
   35.7600   30.7230   47.9860 O   0  0  0  0  0  0  0  0  0  0  0  0
   34.9100   30.3730   47.0270 C   0  0  0  0  0  0  0  0  0  0  0  0
   35.4510   29.8750   45.9890 O   0  0  0  0  0  0  0  0  0  0  0  0
   33.5820   30.6000   47.2890 N   0  0  0  0  0  0  0  0  0  0  0  0
   32.9030   29.8310   47.5430 H   0  0  0  0  0  0  0  0  0  0  0  0
   33.2300   31.5870   47.2350 H   0  0  0  0  0  0  0  0  0  0  0  0
  1  2  1  0  0  0  0
  1 23  1  0  0  0  0
  2  7  1  0  0  0  0
  3  8  1  0  0  0  0
  3  2  2  0  0  0  0
  4  3  1  0  0  0  0
  5  4  2  0  0  0  0
  5  6  1  0  0  0  0
  6  1  2  0  0  0  0
  9 18  1  0  0  0  0
  9 10  1  0  0  0  0
 10  5  1  0  0  0  0
 11 10  2  0  0  0  0
 11 19  1  0  0  0  0
 12 11  1  0  0  0  0
 13 20  1  0  0  0  0
 13 12  1  0  0  0  0
 14 13  1  0  0  0  0
 15 14  2  0  0  0  0
 15 16  1  0  0  0  0
 16 17  1  0  0  0  0
 16 12  2  0  0  0  0
 17  9  2  0  0  0  0
 21 14  1  0  0  0  0
 22 17  1  0  0  0  0
 23 26  1  1  0  0  0
 24 25  1  0  0  0  0
 24 27  1  1  0  0  0
 24 23  1  0  0  0  0
 25 28  1  6  0  0  0
 25 23  1  0  0  0  0
 25 29  1  0  0  0  0
 29 30  1  0  0  0  0
 29 32  1  0  0  0  0
 29 31  1  0  0  0  0
 33 24  1  0  0  0  0
 34 36  1  0  0  0  0
 34 33  1  0  0  0  0
 35 34  2  0  0  0  0
 36 37  1  0  0  0  0
 38 36  1  0  0  0  0
M  END
>  <minimizedAffinity>
-7.7665

>  <minimizedRMSD>
1.49587357

$$$$
