
 OpenBabel03272502573D

 37 39  0  0  0  0  0  0  0  0999 V2000
   37.7840   26.3280   34.2560 C   0  0  0  0  0  0  0  0  0  0  0  0
   36.9030   27.1730   34.9010 C   0  0  0  0  0  0  0  0  0  0  0  0
   36.3250   28.2380   34.2250 C   0  0  0  0  0  0  0  0  0  0  0  0
   36.6870   28.3870   32.8980 C   0  0  0  0  0  0  0  0  0  0  0  0
   37.5650   27.5480   32.2500 C   0  0  0  0  0  0  0  0  0  0  0  0
   38.1050   26.5160   32.9580 N   0  0  0  0  0  0  0  0  0  0  0  0
   37.8650   27.7910   30.8920 N   0  0  0  0  0  0  0  0  0  0  0  0
   37.5010   29.0630   30.3270 C   0  0  0  0  0  0  0  0  0  0  0  0
   37.7970   28.9880   28.8460 C   0  0  0  0  0  0  0  0  0  0  0  0
   39.2700   28.6890   28.6340 C   0  0  0  0  0  0  0  0  0  0  0  0
   39.7120   27.4880   29.3950 C   0  0  0  0  0  0  0  0  0  0  0  0
   38.5220   26.8280   30.0290 C   0  0  0  0  0  0  0  0  0  0  0  0
   36.6820   26.9730   35.9470 H   0  0  0  0  0  0  0  0  0  0  0  0
   35.6360   28.8970   34.7360 H   0  0  0  0  0  0  0  0  0  0  0  0
   36.1920   29.2500   32.4260 H   0  0  0  0  0  0  0  0  0  0  0  0
   36.3950   29.2540   30.3970 H   0  0  0  0  0  0  0  0  0  0  0  0
   38.0770   29.9030   30.7410 H   0  0  0  0  0  0  0  0  0  0  0  0
   37.5450   29.9310   28.3380 H   0  0  0  0  0  0  0  0  0  0  0  0
   37.1860   28.1780   28.3780 H   0  0  0  0  0  0  0  0  0  0  0  0
   39.3490   28.4230   27.5400 H   0  0  0  0  0  0  0  0  0  0  0  0
   39.8960   29.5750   28.7610 H   0  0  0  0  0  0  0  0  0  0  0  0
   40.2730   26.7450   28.7700 H   0  0  0  0  0  0  0  0  0  0  0  0
   40.4090   27.7490   30.2210 H   0  0  0  0  0  0  0  0  0  0  0  0
   38.9030   25.9760   30.6460 H   0  0  0  0  0  0  0  0  0  0  0  0
   37.7840   26.4450   29.2940 H   0  0  0  0  0  0  0  0  0  0  0  0
   39.7440   23.3410   35.0870 C   0  0  0  0  0  0  0  0  0  0  0  0
   39.4510   23.1480   36.4470 C   0  0  0  0  0  0  0  0  0  0  0  0
   38.5900   24.0400   37.0540 C   0  0  0  0  0  0  0  0  0  0  0  0
   38.0770   25.0540   36.2980 N   0  0  0  0  0  0  0  0  0  0  0  0
   38.3700   25.2200   34.9990 C   0  0  0  0  0  0  0  0  0  0  0  0
   39.1960   24.3620   34.4260 N   0  0  0  0  0  0  0  0  0  0  0  0
   40.4160   22.6400   34.6220 H   0  0  0  0  0  0  0  0  0  0  0  0
   39.8630   22.3460   37.0250 H   0  0  0  0  0  0  0  0  0  0  0  0
   38.2490   23.8760   38.4920 C   0  0  0  0  0  0  0  0  0  0  0  0
   37.3020   22.9010   38.7030 F   0  0  0  0  0  0  0  0  0  0  0  0
   39.3830   23.5600   39.2380 F   0  0  0  0  0  0  0  0  0  0  0  0
   37.7750   25.0580   39.0350 F   0  0  0  0  0  0  0  0  0  0  0  0
  1  2  1  0  0  0  0
  1 30  1  0  0  0  0
  2 13  1  0  0  0  0
  3 14  1  0  0  0  0
  3  2  2  0  0  0  0
  4  3  1  0  0  0  0
  5  4  2  0  0  0  0
  5  6  1  0  0  0  0
  6  1  2  0  0  0  0
  7  5  1  0  0  0  0
  8 16  1  0  0  0  0
  8 17  1  0  0  0  0
  8  7  1  0  0  0  0
  9  8  1  0  0  0  0
 10 21  1  0  0  0  0
 10  9  1  0  0  0  0
 10 11  1  0  0  0  0
 11 12  1  0  0  0  0
 11 23  1  0  0  0  0
 12 24  1  0  0  0  0
 12  7  1  0  0  0  0
 15  4  1  0  0  0  0
 18  9  1  0  0  0  0
 19  9  1  0  0  0  0
 20 10  1  0  0  0  0
 22 11  1  0  0  0  0
 25 12  1  0  0  0  0
 26 27  1  0  0  0  0
 27 33  1  0  0  0  0
 27 28  2  0  0  0  0
 28 34  1  0  0  0  0
 29 28  1  0  0  0  0
 30 29  2  0  0  0  0
 31 30  1  0  0  0  0
 31 26  2  0  0  0  0
 32 26  1  0  0  0  0
 34 35  1  0  0  0  0
 34 37  1  0  0  0  0
 34 36  1  0  0  0  0
M  END
>  <minimizedAffinity>
-6.01253605

$$$$

 OpenBabel03272502573D

 37 39  0  0  0  0  0  0  0  0999 V2000
   38.1100   24.0700   33.6980 C   0  0  0  0  0  0  0  0  0  0  0  0
   37.9460   23.2810   32.5770 C   0  0  0  0  0  0  0  0  0  0  0  0
   37.3270   23.7890   31.4430 C   0  0  0  0  0  0  0  0  0  0  0  0
   36.9010   25.1030   31.5160 C   0  0  0  0  0  0  0  0  0  0  0  0
   37.0620   25.8940   32.6310 C   0  0  0  0  0  0  0  0  0  0  0  0
   37.6760   25.3490   33.7200 N   0  0  0  0  0  0  0  0  0  0  0  0
   36.5890   27.2240   32.5990 N   0  0  0  0  0  0  0  0  0  0  0  0
   35.6900   27.6050   31.5420 C   0  0  0  0  0  0  0  0  0  0  0  0
   35.4730   29.0960   31.6660 C   0  0  0  0  0  0  0  0  0  0  0  0
   34.8910   29.4170   33.0310 C   0  0  0  0  0  0  0  0  0  0  0  0
   35.7040   28.8360   34.1350 C   0  0  0  0  0  0  0  0  0  0  0  0
   36.9590   28.2330   33.5730 C   0  0  0  0  0  0  0  0  0  0  0  0
   38.3150   22.2590   32.6160 H   0  0  0  0  0  0  0  0  0  0  0  0
   37.2010   23.1660   30.5670 H   0  0  0  0  0  0  0  0  0  0  0  0
   36.4210   25.4370   30.5830 H   0  0  0  0  0  0  0  0  0  0  0  0
   36.1470   27.4570   30.5260 H   0  0  0  0  0  0  0  0  0  0  0  0
   34.7060   27.1180   31.6120 H   0  0  0  0  0  0  0  0  0  0  0  0
   34.7900   29.4690   30.8870 H   0  0  0  0  0  0  0  0  0  0  0  0
   36.4460   29.6330   31.5460 H   0  0  0  0  0  0  0  0  0  0  0  0
   34.9830   30.5390   33.1200 H   0  0  0  0  0  0  0  0  0  0  0  0
   33.8200   29.2110   33.0840 H   0  0  0  0  0  0  0  0  0  0  0  0
   35.9620   29.5760   34.9370 H   0  0  0  0  0  0  0  0  0  0  0  0
   35.1670   28.0190   34.6650 H   0  0  0  0  0  0  0  0  0  0  0  0
   37.5040   27.7470   34.4210 H   0  0  0  0  0  0  0  0  0  0  0  0
   37.6260   28.9720   33.0860 H   0  0  0  0  0  0  0  0  0  0  0  0
   40.4140   22.1590   35.8170 C   0  0  0  0  0  0  0  0  0  0  0  0
   39.9630   22.4610   37.1130 C   0  0  0  0  0  0  0  0  0  0  0  0
   38.8820   23.3090   37.2390 C   0  0  0  0  0  0  0  0  0  0  0  0
   38.3180   23.8040   36.0980 N   0  0  0  0  0  0  0  0  0  0  0  0
   38.7640   23.5030   34.8700 C   0  0  0  0  0  0  0  0  0  0  0  0
   39.8010   22.6900   34.7580 N   0  0  0  0  0  0  0  0  0  0  0  0
   41.2580   21.4960   35.7300 H   0  0  0  0  0  0  0  0  0  0  0  0
   40.4190   22.0630   37.9970 H   0  0  0  0  0  0  0  0  0  0  0  0
   38.3680   23.6570   38.5900 C   0  0  0  0  0  0  0  0  0  0  0  0
   37.4080   22.7760   39.0330 F   0  0  0  0  0  0  0  0  0  0  0  0
   39.4030   23.6870   39.5220 F   0  0  0  0  0  0  0  0  0  0  0  0
   37.8250   24.9290   38.6090 F   0  0  0  0  0  0  0  0  0  0  0  0
  1  6  1  0  0  0  0
  1 30  1  0  0  0  0
  2 13  1  0  0  0  0
  2  1  2  0  0  0  0
  3  4  2  0  0  0  0
  3  2  1  0  0  0  0
  4  5  1  0  0  0  0
  5  6  2  0  0  0  0
  7  5  1  0  0  0  0
  7 12  1  0  0  0  0
  8 17  1  0  0  0  0
  8  9  1  0  0  0  0
  8  7  1  0  0  0  0
  9 10  1  0  0  0  0
 10 21  1  0  0  0  0
 10 20  1  0  0  0  0
 10 11  1  0  0  0  0
 11 23  1  0  0  0  0
 11 22  1  0  0  0  0
 12 11  1  0  0  0  0
 12 24  1  0  0  0  0
 14  3  1  0  0  0  0
 15  4  1  0  0  0  0
 16  8  1  0  0  0  0
 18  9  1  0  0  0  0
 19  9  1  0  0  0  0
 25 12  1  0  0  0  0
 26 27  1  0  0  0  0
 27 28  2  0  0  0  0
 27 33  1  0  0  0  0
 28 34  1  0  0  0  0
 29 28  1  0  0  0  0
 30 29  2  0  0  0  0
 31 30  1  0  0  0  0
 31 26  2  0  0  0  0
 32 26  1  0  0  0  0
 34 37  1  0  0  0  0
 34 35  1  0  0  0  0
 34 36  1  0  0  0  0
M  END
>  <minimizedAffinity>
-5.91924191

$$$$

 OpenBabel03272502573D

 37 39  0  0  0  0  0  0  0  0999 V2000
   37.8930   25.5580   33.3790 C   0  0  0  0  0  0  0  0  0  0  0  0
   38.6180   25.5330   32.2050 C   0  0  0  0  0  0  0  0  0  0  0  0
   38.5960   26.6180   31.3400 C   0  0  0  0  0  0  0  0  0  0  0  0
   37.8180   27.6930   31.7300 C   0  0  0  0  0  0  0  0  0  0  0  0
   37.0930   27.7240   32.9000 C   0  0  0  0  0  0  0  0  0  0  0  0
   37.1470   26.6330   33.7150 N   0  0  0  0  0  0  0  0  0  0  0  0
   36.3310   28.8730   33.2010 N   0  0  0  0  0  0  0  0  0  0  0  0
   36.0870   29.8270   32.1520 C   0  0  0  0  0  0  0  0  0  0  0  0
   35.3900   31.0100   32.7860 C   0  0  0  0  0  0  0  0  0  0  0  0
   34.0950   30.5540   33.4330 C   0  0  0  0  0  0  0  0  0  0  0  0
   34.3070   29.4130   34.3650 C   0  0  0  0  0  0  0  0  0  0  0  0
   35.7780   29.1500   34.5130 C   0  0  0  0  0  0  0  0  0  0  0  0
   39.2000   24.6410   31.9860 H   0  0  0  0  0  0  0  0  0  0  0  0
   39.1660   26.5930   30.4200 H   0  0  0  0  0  0  0  0  0  0  0  0
   37.8480   28.5150   30.9980 H   0  0  0  0  0  0  0  0  0  0  0  0
   37.0420   30.2410   31.7280 H   0  0  0  0  0  0  0  0  0  0  0  0
   35.4320   29.4410   31.3570 H   0  0  0  0  0  0  0  0  0  0  0  0
   35.1660   31.7910   32.0430 H   0  0  0  0  0  0  0  0  0  0  0  0
   36.0490   31.4660   33.5650 H   0  0  0  0  0  0  0  0  0  0  0  0
   33.7710   31.4310   34.0660 H   0  0  0  0  0  0  0  0  0  0  0  0
   33.2940   30.4150   32.7030 H   0  0  0  0  0  0  0  0  0  0  0  0
   33.8440   29.5690   35.3740 H   0  0  0  0  0  0  0  0  0  0  0  0
   33.8520   28.4720   33.9860 H   0  0  0  0  0  0  0  0  0  0  0  0
   35.8920   28.2460   35.1610 H   0  0  0  0  0  0  0  0  0  0  0  0
   36.3360   29.9960   34.9640 H   0  0  0  0  0  0  0  0  0  0  0  0
   37.9140   22.0920   34.5800 C   0  0  0  0  0  0  0  0  0  0  0  0
   38.0380   22.2480   35.9710 C   0  0  0  0  0  0  0  0  0  0  0  0
   38.1110   23.5320   36.4720 C   0  0  0  0  0  0  0  0  0  0  0  0
   38.0590   24.5710   35.5870 N   0  0  0  0  0  0  0  0  0  0  0  0
   37.9410   24.3990   34.2620 C   0  0  0  0  0  0  0  0  0  0  0  0
   37.8720   23.1660   33.7900 N   0  0  0  0  0  0  0  0  0  0  0  0
   37.8580   21.0860   34.1990 H   0  0  0  0  0  0  0  0  0  0  0  0
   38.0770   21.4210   36.6500 H   0  0  0  0  0  0  0  0  0  0  0  0
   38.2410   23.7480   37.9370 C   0  0  0  0  0  0  0  0  0  0  0  0
   38.0730   25.0660   38.2940 F   0  0  0  0  0  0  0  0  0  0  0  0
   37.3110   22.9800   38.6360 F   0  0  0  0  0  0  0  0  0  0  0  0
   39.4760   23.3320   38.4000 F   0  0  0  0  0  0  0  0  0  0  0  0
  1  6  1  0  0  0  0
  1 30  1  0  0  0  0
  2  1  2  0  0  0  0
  3  4  2  0  0  0  0
  3  2  1  0  0  0  0
  4  5  1  0  0  0  0
  5  7  1  0  0  0  0
  5  6  2  0  0  0  0
  7 12  1  0  0  0  0
  8  9  1  0  0  0  0
  8  7  1  0  0  0  0
  9 10  1  0  0  0  0
  9 19  1  0  0  0  0
 10 20  1  0  0  0  0
 10 11  1  0  0  0  0
 11 12  1  0  0  0  0
 11 22  1  0  0  0  0
 12 25  1  0  0  0  0
 12 24  1  0  0  0  0
 13  2  1  0  0  0  0
 14  3  1  0  0  0  0
 15  4  1  0  0  0  0
 16  8  1  0  0  0  0
 17  8  1  0  0  0  0
 18  9  1  0  0  0  0
 21 10  1  0  0  0  0
 23 11  1  0  0  0  0
 26 27  1  0  0  0  0
 27 28  2  0  0  0  0
 27 33  1  0  0  0  0
 28 34  1  0  0  0  0
 29 28  1  0  0  0  0
 30 29  2  0  0  0  0
 31 30  1  0  0  0  0
 31 26  2  0  0  0  0
 32 26  1  0  0  0  0
 34 35  1  0  0  0  0
 34 37  1  0  0  0  0
 34 36  1  0  0  0  0
M  END
>  <minimizedAffinity>
-5.77900839

$$$$

 OpenBabel03272502573D

 37 39  0  0  0  0  0  0  0  0999 V2000
   37.4410   27.2530   33.6840 C   0  0  0  0  0  0  0  0  0  0  0  0
   38.4250   27.2590   32.7160 C   0  0  0  0  0  0  0  0  0  0  0  0
   39.4680   26.3440   32.7660 C   0  0  0  0  0  0  0  0  0  0  0  0
   39.4490   25.4550   33.8260 C   0  0  0  0  0  0  0  0  0  0  0  0
   38.4710   25.4450   34.7940 C   0  0  0  0  0  0  0  0  0  0  0  0
   37.4670   26.3630   34.7000 N   0  0  0  0  0  0  0  0  0  0  0  0
   38.5490   24.4930   35.8330 N   0  0  0  0  0  0  0  0  0  0  0  0
   39.7880   23.7870   36.0230 C   0  0  0  0  0  0  0  0  0  0  0  0
   39.5390   22.7400   37.0860 C   0  0  0  0  0  0  0  0  0  0  0  0
   39.0820   23.4110   38.3680 C   0  0  0  0  0  0  0  0  0  0  0  0
   37.9260   24.3220   38.1410 C   0  0  0  0  0  0  0  0  0  0  0  0
   37.4470   24.1840   36.7250 C   0  0  0  0  0  0  0  0  0  0  0  0
   38.3520   27.9980   31.9210 H   0  0  0  0  0  0  0  0  0  0  0  0
   40.2370   26.3540   32.0050 H   0  0  0  0  0  0  0  0  0  0  0  0
   40.3040   24.7620   33.8020 H   0  0  0  0  0  0  0  0  0  0  0  0
   40.0880   23.2090   35.1060 H   0  0  0  0  0  0  0  0  0  0  0  0
   40.6060   24.4310   36.3750 H   0  0  0  0  0  0  0  0  0  0  0  0
   40.4460   22.1520   37.2910 H   0  0  0  0  0  0  0  0  0  0  0  0
   38.7480   22.0300   36.7410 H   0  0  0  0  0  0  0  0  0  0  0  0
   38.7030   22.5650   39.0110 H   0  0  0  0  0  0  0  0  0  0  0  0
   39.9130   23.8470   38.9270 H   0  0  0  0  0  0  0  0  0  0  0  0
   37.0750   24.1480   38.8500 H   0  0  0  0  0  0  0  0  0  0  0  0
   38.2000   25.3900   38.2820 H   0  0  0  0  0  0  0  0  0  0  0  0
   36.6280   24.9320   36.5750 H   0  0  0  0  0  0  0  0  0  0  0  0
   37.0650   23.1710   36.4830 H   0  0  0  0  0  0  0  0  0  0  0  0
   34.4590   29.0560   32.5390 C   0  0  0  0  0  0  0  0  0  0  0  0
   34.3430   30.0920   33.4810 C   0  0  0  0  0  0  0  0  0  0  0  0
   35.2840   30.1550   34.4890 C   0  0  0  0  0  0  0  0  0  0  0  0
   36.2690   29.2090   34.5080 N   0  0  0  0  0  0  0  0  0  0  0  0
   36.3610   28.2280   33.5970 C   0  0  0  0  0  0  0  0  0  0  0  0
   35.4550   28.1750   32.6360 N   0  0  0  0  0  0  0  0  0  0  0  0
   33.7200   29.0160   31.7570 H   0  0  0  0  0  0  0  0  0  0  0  0
   33.5630   30.8250   33.4500 H   0  0  0  0  0  0  0  0  0  0  0  0
   35.2050   31.2330   35.5090 C   0  0  0  0  0  0  0  0  0  0  0  0
   34.1470   31.0670   36.3720 F   0  0  0  0  0  0  0  0  0  0  0  0
   36.3790   31.2950   36.2570 F   0  0  0  0  0  0  0  0  0  0  0  0
   35.0850   32.4780   34.9180 F   0  0  0  0  0  0  0  0  0  0  0  0
  1  6  1  0  0  0  0
  2  3  1  0  0  0  0
  2  1  2  0  0  0  0
  3  4  2  0  0  0  0
  4  5  1  0  0  0  0
  5  7  1  0  0  0  0
  6  5  2  0  0  0  0
  7  8  1  0  0  0  0
  7 12  1  0  0  0  0
  8 17  1  0  0  0  0
  8  9  1  0  0  0  0
  9 18  1  0  0  0  0
  9 10  1  0  0  0  0
 10 21  1  0  0  0  0
 10 20  1  0  0  0  0
 11 23  1  0  0  0  0
 11 10  1  0  0  0  0
 11 22  1  0  0  0  0
 12 11  1  0  0  0  0
 13  2  1  0  0  0  0
 14  3  1  0  0  0  0
 15  4  1  0  0  0  0
 16  8  1  0  0  0  0
 19  9  1  0  0  0  0
 24 12  1  0  0  0  0
 25 12  1  0  0  0  0
 26 31  2  0  0  0  0
 26 27  1  0  0  0  0
 27 28  2  0  0  0  0
 28 29  1  0  0  0  0
 28 34  1  0  0  0  0
 30  1  1  0  0  0  0
 30 29  2  0  0  0  0
 31 30  1  0  0  0  0
 32 26  1  0  0  0  0
 33 27  1  0  0  0  0
 34 36  1  0  0  0  0
 34 35  1  0  0  0  0
 37 34  1  0  0  0  0
M  END
>  <minimizedAffinity>
-5.76796103

$$$$

 OpenBabel03272502573D

 37 39  0  0  0  0  0  0  0  0999 V2000
   38.1430   23.4330   34.3660 C   0  0  0  0  0  0  0  0  0  0  0  0
   37.8030   22.3570   33.5700 C   0  0  0  0  0  0  0  0  0  0  0  0
   37.2130   22.5570   32.3290 C   0  0  0  0  0  0  0  0  0  0  0  0
   36.9960   23.8730   31.9620 C   0  0  0  0  0  0  0  0  0  0  0  0
   37.3320   24.9490   32.7510 C   0  0  0  0  0  0  0  0  0  0  0  0
   37.9100   24.7000   33.9610 N   0  0  0  0  0  0  0  0  0  0  0  0
   37.0660   26.2520   32.2780 N   0  0  0  0  0  0  0  0  0  0  0  0
   36.1830   26.4050   31.1530 C   0  0  0  0  0  0  0  0  0  0  0  0
   36.2020   27.8690   30.7740 C   0  0  0  0  0  0  0  0  0  0  0  0
   35.7460   28.7090   31.9530 C   0  0  0  0  0  0  0  0  0  0  0  0
   36.5160   28.3990   33.1900 C   0  0  0  0  0  0  0  0  0  0  0  0
   37.6340   27.4520   32.8640 C   0  0  0  0  0  0  0  0  0  0  0  0
   38.0140   21.3590   33.9470 H   0  0  0  0  0  0  0  0  0  0  0  0
   36.9490   21.7100   31.7100 H   0  0  0  0  0  0  0  0  0  0  0  0
   36.5260   23.9550   30.9690 H   0  0  0  0  0  0  0  0  0  0  0  0
   36.5600   25.8610   30.2440 H   0  0  0  0  0  0  0  0  0  0  0  0
   35.1420   26.1320   31.3770 H   0  0  0  0  0  0  0  0  0  0  0  0
   35.5460   28.0710   29.9140 H   0  0  0  0  0  0  0  0  0  0  0  0
   37.2390   28.1730   30.4850 H   0  0  0  0  0  0  0  0  0  0  0  0
   36.0120   29.7670   31.6660 H   0  0  0  0  0  0  0  0  0  0  0  0
   34.6610   28.7060   32.0690 H   0  0  0  0  0  0  0  0  0  0  0  0
   36.9240   29.3100   33.7020 H   0  0  0  0  0  0  0  0  0  0  0  0
   35.8880   27.8990   33.9590 H   0  0  0  0  0  0  0  0  0  0  0  0
   38.1410   27.1900   33.8260 H   0  0  0  0  0  0  0  0  0  0  0  0
   38.3810   27.8730   32.1610 H   0  0  0  0  0  0  0  0  0  0  0  0
   38.7330   23.3470   37.9850 C   0  0  0  0  0  0  0  0  0  0  0  0
   39.9690   22.6860   38.0800 C   0  0  0  0  0  0  0  0  0  0  0  0
   40.5770   22.2840   36.9080 C   0  0  0  0  0  0  0  0  0  0  0  0
   39.9420   22.5510   35.7300 N   0  0  0  0  0  0  0  0  0  0  0  0
   38.7610   23.1830   35.6610 C   0  0  0  0  0  0  0  0  0  0  0  0
   38.1850   23.5650   36.7880 N   0  0  0  0  0  0  0  0  0  0  0  0
   38.2670   23.6570   38.9040 H   0  0  0  0  0  0  0  0  0  0  0  0
   40.4530   22.4850   39.0140 H   0  0  0  0  0  0  0  0  0  0  0  0
   41.8870   21.5820   36.9580 C   0  0  0  0  0  0  0  0  0  0  0  0
   42.0230   20.7950   38.0780 F   0  0  0  0  0  0  0  0  0  0  0  0
   42.0630   20.7800   35.8310 F   0  0  0  0  0  0  0  0  0  0  0  0
   42.9400   22.4790   36.9330 F   0  0  0  0  0  0  0  0  0  0  0  0
  1 30  1  0  0  0  0
  2 13  1  0  0  0  0
  2  1  2  0  0  0  0
  3  2  1  0  0  0  0
  4  3  2  0  0  0  0
  4  5  1  0  0  0  0
  5  6  2  0  0  0  0
  6  1  1  0  0  0  0
  7  5  1  0  0  0  0
  7 12  1  0  0  0  0
  8 17  1  0  0  0  0
  8  7  1  0  0  0  0
  9  8  1  0  0  0  0
  9 10  1  0  0  0  0
 10 21  1  0  0  0  0
 10 11  1  0  0  0  0
 11 22  1  0  0  0  0
 11 23  1  0  0  0  0
 12 11  1  0  0  0  0
 12 24  1  0  0  0  0
 14  3  1  0  0  0  0
 15  4  1  0  0  0  0
 16  8  1  0  0  0  0
 18  9  1  0  0  0  0
 19  9  1  0  0  0  0
 20 10  1  0  0  0  0
 25 12  1  0  0  0  0
 26 27  1  0  0  0  0
 26 32  1  0  0  0  0
 27 33  1  0  0  0  0
 28 34  1  0  0  0  0
 28 27  2  0  0  0  0
 29 28  1  0  0  0  0
 30 29  2  0  0  0  0
 30 31  1  0  0  0  0
 31 26  2  0  0  0  0
 34 35  1  0  0  0  0
 36 34  1  0  0  0  0
 37 34  1  0  0  0  0
M  END
>  <minimizedAffinity>
-5.69483662

$$$$

 OpenBabel03272502573D

 37 39  0  0  0  0  0  0  0  0999 V2000
   37.7820   26.5980   33.8670 C   0  0  0  0  0  0  0  0  0  0  0  0
   36.8390   27.3470   34.5420 C   0  0  0  0  0  0  0  0  0  0  0  0
   36.2090   28.4150   33.9190 C   0  0  0  0  0  0  0  0  0  0  0  0
   36.5840   28.6660   32.6110 C   0  0  0  0  0  0  0  0  0  0  0  0
   37.5240   27.9230   31.9330 C   0  0  0  0  0  0  0  0  0  0  0  0
   38.1140   26.8840   32.5890 N   0  0  0  0  0  0  0  0  0  0  0  0
   37.8320   28.2660   30.5990 N   0  0  0  0  0  0  0  0  0  0  0  0
   37.4010   29.5470   30.1040 C   0  0  0  0  0  0  0  0  0  0  0  0
   37.7280   29.5810   28.6280 C   0  0  0  0  0  0  0  0  0  0  0  0
   39.2200   29.3850   28.4300 C   0  0  0  0  0  0  0  0  0  0  0  0
   39.7210   28.1680   29.1270 C   0  0  0  0  0  0  0  0  0  0  0  0
   38.5630   27.4000   29.6940 C   0  0  0  0  0  0  0  0  0  0  0  0
   36.6120   27.0710   35.5690 H   0  0  0  0  0  0  0  0  0  0  0  0
   35.4710   28.9990   34.4530 H   0  0  0  0  0  0  0  0  0  0  0  0
   36.0460   29.5250   32.1820 H   0  0  0  0  0  0  0  0  0  0  0  0
   36.2850   29.6660   30.1610 H   0  0  0  0  0  0  0  0  0  0  0  0
   37.9170   30.3930   30.5800 H   0  0  0  0  0  0  0  0  0  0  0  0
   37.4270   30.5360   28.1720 H   0  0  0  0  0  0  0  0  0  0  0  0
   37.1760   28.7660   28.0990 H   0  0  0  0  0  0  0  0  0  0  0  0
   39.3350   29.1920   27.3240 H   0  0  0  0  0  0  0  0  0  0  0  0
   39.7870   30.2980   28.6240 H   0  0  0  0  0  0  0  0  0  0  0  0
   40.3380   27.5000   28.4710 H   0  0  0  0  0  0  0  0  0  0  0  0
   40.3860   28.4190   29.9820 H   0  0  0  0  0  0  0  0  0  0  0  0
   38.9840   26.5360   30.2670 H   0  0  0  0  0  0  0  0  0  0  0  0
   37.8630   27.0190   28.9220 H   0  0  0  0  0  0  0  0  0  0  0  0
   39.9320   23.7110   34.5690 C   0  0  0  0  0  0  0  0  0  0  0  0
   39.6000   23.3950   35.8980 C   0  0  0  0  0  0  0  0  0  0  0  0
   38.6500   24.1730   36.5270 C   0  0  0  0  0  0  0  0  0  0  0  0
   38.0910   25.2000   35.8230 N   0  0  0  0  0  0  0  0  0  0  0  0
   38.4220   25.4840   34.5540 C   0  0  0  0  0  0  0  0  0  0  0  0
   39.3340   24.7350   33.9590 N   0  0  0  0  0  0  0  0  0  0  0  0
   40.6750   23.0980   34.0870 H   0  0  0  0  0  0  0  0  0  0  0  0
   40.0500   22.5850   36.4350 H   0  0  0  0  0  0  0  0  0  0  0  0
   38.2650   23.8770   37.9330 C   0  0  0  0  0  0  0  0  0  0  0  0
   37.8070   24.9890   38.6000 F   0  0  0  0  0  0  0  0  0  0  0  0
   37.2760   22.8950   37.9790 F   0  0  0  0  0  0  0  0  0  0  0  0
   39.3280   23.3550   38.6470 F   0  0  0  0  0  0  0  0  0  0  0  0
  1  2  1  0  0  0  0
  1 30  1  0  0  0  0
  2 13  1  0  0  0  0
  3 14  1  0  0  0  0
  3  2  2  0  0  0  0
  4  3  1  0  0  0  0
  5  6  1  0  0  0  0
  5  4  2  0  0  0  0
  6  1  2  0  0  0  0
  7  5  1  0  0  0  0
  8 16  1  0  0  0  0
  8 17  1  0  0  0  0
  8  7  1  0  0  0  0
  9  8  1  0  0  0  0
 10 21  1  0  0  0  0
 10  9  1  0  0  0  0
 10 11  1  0  0  0  0
 11 12  1  0  0  0  0
 11 23  1  0  0  0  0
 12 24  1  0  0  0  0
 12  7  1  0  0  0  0
 15  4  1  0  0  0  0
 18  9  1  0  0  0  0
 19  9  1  0  0  0  0
 20 10  1  0  0  0  0
 22 11  1  0  0  0  0
 25 12  1  0  0  0  0
 26 27  1  0  0  0  0
 27 33  1  0  0  0  0
 27 28  2  0  0  0  0
 28 34  1  0  0  0  0
 29 28  1  0  0  0  0
 30 29  2  0  0  0  0
 31 30  1  0  0  0  0
 31 26  2  0  0  0  0
 32 26  1  0  0  0  0
 34 36  1  0  0  0  0
 34 35  1  0  0  0  0
 34 37  1  0  0  0  0
M  END
>  <minimizedAffinity>
-5.69031572

$$$$

 OpenBabel03272502573D

 37 39  0  0  0  0  0  0  0  0999 V2000
   34.8880   29.4610   32.9710 C   0  0  0  0  0  0  0  0  0  0  0  0
   35.0310   29.7930   31.6390 C   0  0  0  0  0  0  0  0  0  0  0  0
   36.1150   29.3250   30.9080 C   0  0  0  0  0  0  0  0  0  0  0  0
   37.0130   28.5270   31.5930 C   0  0  0  0  0  0  0  0  0  0  0  0
   36.8760   28.1930   32.9210 C   0  0  0  0  0  0  0  0  0  0  0  0
   35.7940   28.6770   33.5950 N   0  0  0  0  0  0  0  0  0  0  0  0
   37.8530   27.3700   33.5230 N   0  0  0  0  0  0  0  0  0  0  0  0
   39.1000   27.1720   32.8330 C   0  0  0  0  0  0  0  0  0  0  0  0
   39.8790   26.1430   33.6210 C   0  0  0  0  0  0  0  0  0  0  0  0
   40.1030   26.6440   35.0360 C   0  0  0  0  0  0  0  0  0  0  0  0
   38.8310   27.0610   35.6890 C   0  0  0  0  0  0  0  0  0  0  0  0
   37.6720   26.7110   34.8020 C   0  0  0  0  0  0  0  0  0  0  0  0
   34.2710   30.4270   31.1890 H   0  0  0  0  0  0  0  0  0  0  0  0
   36.2220   29.5890   29.8640 H   0  0  0  0  0  0  0  0  0  0  0  0
   37.8450   28.1930   30.9530 H   0  0  0  0  0  0  0  0  0  0  0  0
   38.9510   26.7140   31.8170 H   0  0  0  0  0  0  0  0  0  0  0  0
   39.7140   28.0820   32.7740 H   0  0  0  0  0  0  0  0  0  0  0  0
   40.8540   25.9340   33.1550 H   0  0  0  0  0  0  0  0  0  0  0  0
   39.3100   25.1820   33.6570 H   0  0  0  0  0  0  0  0  0  0  0  0
   40.4720   25.7390   35.6010 H   0  0  0  0  0  0  0  0  0  0  0  0
   40.9150   27.3720   35.0940 H   0  0  0  0  0  0  0  0  0  0  0  0
   38.6830   26.6130   36.7060 H   0  0  0  0  0  0  0  0  0  0  0  0
   38.7860   28.1600   35.8530 H   0  0  0  0  0  0  0  0  0  0  0  0
   36.7460   27.1020   35.2930 H   0  0  0  0  0  0  0  0  0  0  0  0
   37.5600   25.6210   34.6290 H   0  0  0  0  0  0  0  0  0  0  0  0
   31.4580   30.4350   33.8320 C   0  0  0  0  0  0  0  0  0  0  0  0
   31.5990   30.9430   35.1340 C   0  0  0  0  0  0  0  0  0  0  0  0
   32.8610   30.9440   35.6930 C   0  0  0  0  0  0  0  0  0  0  0  0
   33.8940   30.4520   34.9480 N   0  0  0  0  0  0  0  0  0  0  0  0
   33.7370   29.9710   33.7050 C   0  0  0  0  0  0  0  0  0  0  0  0
   32.5250   29.9730   33.1780 N   0  0  0  0  0  0  0  0  0  0  0  0
   30.4700   30.4390   33.4050 H   0  0  0  0  0  0  0  0  0  0  0  0
   30.7770   31.3260   35.7040 H   0  0  0  0  0  0  0  0  0  0  0  0
   33.0610   31.4730   37.0680 C   0  0  0  0  0  0  0  0  0  0  0  0
   34.3790   31.7580   37.3380 F   0  0  0  0  0  0  0  0  0  0  0  0
   32.3090   32.6290   37.2690 F   0  0  0  0  0  0  0  0  0  0  0  0
   32.6120   30.5770   38.0220 F   0  0  0  0  0  0  0  0  0  0  0  0
  1  6  1  0  0  0  0
  1 30  1  0  0  0  0
  2  1  2  0  0  0  0
  3  4  2  0  0  0  0
  3  2  1  0  0  0  0
  4  5  1  0  0  0  0
  5  7  1  0  0  0  0
  5  6  2  0  0  0  0
  7 12  1  0  0  0  0
  8  7  1  0  0  0  0
  8  9  1  0  0  0  0
  9 19  1  0  0  0  0
  9 10  1  0  0  0  0
 10 21  1  0  0  0  0
 10 20  1  0  0  0  0
 10 11  1  0  0  0  0
 11 23  1  0  0  0  0
 11 22  1  0  0  0  0
 12 24  1  0  0  0  0
 12 11  1  0  0  0  0
 13  2  1  0  0  0  0
 14  3  1  0  0  0  0
 15  4  1  0  0  0  0
 16  8  1  0  0  0  0
 17  8  1  0  0  0  0
 18  9  1  0  0  0  0
 25 12  1  0  0  0  0
 26 27  1  0  0  0  0
 27 28  2  0  0  0  0
 27 33  1  0  0  0  0
 28 34  1  0  0  0  0
 29 28  1  0  0  0  0
 30 29  2  0  0  0  0
 31 30  1  0  0  0  0
 31 26  2  0  0  0  0
 32 26  1  0  0  0  0
 34 36  1  0  0  0  0
 34 35  1  0  0  0  0
 34 37  1  0  0  0  0
M  END
>  <minimizedAffinity>
-5.68964624

$$$$

 OpenBabel03272502573D

 37 39  0  0  0  0  0  0  0  0999 V2000
   38.2560   24.8520   35.6740 C   0  0  0  0  0  0  0  0  0  0  0  0
   37.5410   24.7560   36.8510 C   0  0  0  0  0  0  0  0  0  0  0  0
   37.9860   23.9380   37.8810 C   0  0  0  0  0  0  0  0  0  0  0  0
   39.1600   23.2460   37.6460 C   0  0  0  0  0  0  0  0  0  0  0  0
   39.8760   23.3370   36.4740 C   0  0  0  0  0  0  0  0  0  0  0  0
   39.3990   24.1540   35.4940 N   0  0  0  0  0  0  0  0  0  0  0  0
   41.0640   22.5860   36.3400 N   0  0  0  0  0  0  0  0  0  0  0  0
   41.3170   21.5290   37.2840 C   0  0  0  0  0  0  0  0  0  0  0  0
   42.7060   21.0070   36.9980 C   0  0  0  0  0  0  0  0  0  0  0  0
   42.7790   20.5020   35.5690 C   0  0  0  0  0  0  0  0  0  0  0  0
   42.3100   21.5220   34.5910 C   0  0  0  0  0  0  0  0  0  0  0  0
   42.0500   22.8190   35.3020 C   0  0  0  0  0  0  0  0  0  0  0  0
   36.6280   25.3410   36.9410 H   0  0  0  0  0  0  0  0  0  0  0  0
   37.4210   23.8670   38.8010 H   0  0  0  0  0  0  0  0  0  0  0  0
   39.4510   22.6190   38.5030 H   0  0  0  0  0  0  0  0  0  0  0  0
   41.3560   21.9090   38.3410 H   0  0  0  0  0  0  0  0  0  0  0  0
   40.6170   20.6860   37.1890 H   0  0  0  0  0  0  0  0  0  0  0  0
   42.9770   20.1890   37.6830 H   0  0  0  0  0  0  0  0  0  0  0  0
   43.4550   21.8250   37.1380 H   0  0  0  0  0  0  0  0  0  0  0  0
   43.8820   20.3570   35.3760 H   0  0  0  0  0  0  0  0  0  0  0  0
   42.3340   19.5110   35.4560 H   0  0  0  0  0  0  0  0  0  0  0  0
   43.0230   21.6890   33.7420 H   0  0  0  0  0  0  0  0  0  0  0  0
   41.3540   21.2280   34.1050 H   0  0  0  0  0  0  0  0  0  0  0  0
   41.6330   23.5340   34.5490 H   0  0  0  0  0  0  0  0  0  0  0  0
   42.9560   23.2610   35.7630 H   0  0  0  0  0  0  0  0  0  0  0  0
   37.4410   26.1850   32.3550 C   0  0  0  0  0  0  0  0  0  0  0  0
   36.7990   27.3970   32.6590 C   0  0  0  0  0  0  0  0  0  0  0  0
   36.6570   27.7360   33.9890 C   0  0  0  0  0  0  0  0  0  0  0  0
   37.1470   26.8750   34.9280 N   0  0  0  0  0  0  0  0  0  0  0  0
   37.7580   25.7210   34.6160 C   0  0  0  0  0  0  0  0  0  0  0  0
   37.8890   25.4040   33.3390 N   0  0  0  0  0  0  0  0  0  0  0  0
   37.5470   25.9290   31.3150 H   0  0  0  0  0  0  0  0  0  0  0  0
   36.4200   28.0610   31.9080 H   0  0  0  0  0  0  0  0  0  0  0  0
   35.9850   29.0100   34.3600 C   0  0  0  0  0  0  0  0  0  0  0  0
   34.6580   28.8340   34.6770 F   0  0  0  0  0  0  0  0  0  0  0  0
   36.6230   29.6090   35.4450 F   0  0  0  0  0  0  0  0  0  0  0  0
   36.0630   29.9370   33.3360 F   0  0  0  0  0  0  0  0  0  0  0  0
  1  2  1  0  0  0  0
  2 13  1  0  0  0  0
  2  3  2  0  0  0  0
  3 14  1  0  0  0  0
  4  3  1  0  0  0  0
  4 15  1  0  0  0  0
  5  4  2  0  0  0  0
  6  1  2  0  0  0  0
  6  5  1  0  0  0  0
  7  5  1  0  0  0  0
  7  8  1  0  0  0  0
  8 16  1  0  0  0  0
  9 19  1  0  0  0  0
  9  8  1  0  0  0  0
  9 18  1  0  0  0  0
 10  9  1  0  0  0  0
 11 12  1  0  0  0  0
 11 10  1  0  0  0  0
 12 25  1  0  0  0  0
 12  7  1  0  0  0  0
 17  8  1  0  0  0  0
 20 10  1  0  0  0  0
 21 10  1  0  0  0  0
 22 11  1  0  0  0  0
 23 11  1  0  0  0  0
 24 12  1  0  0  0  0
 26 27  2  0  0  0  0
 26 31  1  0  0  0  0
 27 28  1  0  0  0  0
 28 34  1  0  0  0  0
 28 29  2  0  0  0  0
 30 29  1  0  0  0  0
 30  1  1  0  0  0  0
 31 30  2  0  0  0  0
 32 26  1  0  0  0  0
 33 27  1  0  0  0  0
 34 35  1  0  0  0  0
 34 36  1  0  0  0  0
 37 34  1  0  0  0  0
M  END
>  <minimizedAffinity>
-5.6617012

$$$$

 OpenBabel03272502573D

 37 39  0  0  0  0  0  0  0  0999 V2000
   38.5690   24.6340   36.1640 C   0  0  0  0  0  0  0  0  0  0  0  0
   37.9930   24.4460   37.4040 C   0  0  0  0  0  0  0  0  0  0  0  0
   38.5420   23.5440   38.3060 C   0  0  0  0  0  0  0  0  0  0  0  0
   39.6720   22.8690   37.8820 C   0  0  0  0  0  0  0  0  0  0  0  0
   40.2500   23.0530   36.6470 C   0  0  0  0  0  0  0  0  0  0  0  0
   39.6740   23.9490   35.7970 N   0  0  0  0  0  0  0  0  0  0  0  0
   41.4050   22.3110   36.3160 N   0  0  0  0  0  0  0  0  0  0  0  0
   41.7500   21.1790   37.1360 C   0  0  0  0  0  0  0  0  0  0  0  0
   43.0900   20.6760   36.6500 C   0  0  0  0  0  0  0  0  0  0  0  0
   42.9920   20.2900   35.1860 C   0  0  0  0  0  0  0  0  0  0  0  0
   42.4270   21.3880   34.3540 C   0  0  0  0  0  0  0  0  0  0  0  0
   42.2680   22.6230   35.1930 C   0  0  0  0  0  0  0  0  0  0  0  0
   37.1040   25.0240   37.6450 H   0  0  0  0  0  0  0  0  0  0  0  0
   38.0860   23.4000   39.2760 H   0  0  0  0  0  0  0  0  0  0  0  0
   40.0510   22.1720   38.6460 H   0  0  0  0  0  0  0  0  0  0  0  0
   41.9150   21.4710   38.2090 H   0  0  0  0  0  0  0  0  0  0  0  0
   41.0330   20.3490   37.0550 H   0  0  0  0  0  0  0  0  0  0  0  0
   43.4270   19.8040   37.2310 H   0  0  0  0  0  0  0  0  0  0  0  0
   43.8610   21.4770   36.7680 H   0  0  0  0  0  0  0  0  0  0  0  0
   44.0640   20.1560   34.8570 H   0  0  0  0  0  0  0  0  0  0  0  0
   42.5240   19.3130   35.0460 H   0  0  0  0  0  0  0  0  0  0  0  0
   43.0400   21.6210   33.4450 H   0  0  0  0  0  0  0  0  0  0  0  0
   41.4180   21.1390   33.9610 H   0  0  0  0  0  0  0  0  0  0  0  0
   41.7770   23.3990   34.5540 H   0  0  0  0  0  0  0  0  0  0  0  0
   43.2270   23.0230   35.5810 H   0  0  0  0  0  0  0  0  0  0  0  0
   37.2090   27.7400   34.7630 C   0  0  0  0  0  0  0  0  0  0  0  0
   36.8240   27.3520   33.4690 C   0  0  0  0  0  0  0  0  0  0  0  0
   37.0350   26.0390   33.1000 C   0  0  0  0  0  0  0  0  0  0  0  0
   37.6050   25.1980   34.0120 N   0  0  0  0  0  0  0  0  0  0  0  0
   37.9650   25.5890   35.2440 C   0  0  0  0  0  0  0  0  0  0  0  0
   37.7600   26.8490   35.5900 N   0  0  0  0  0  0  0  0  0  0  0  0
   37.0400   28.7660   35.0420 H   0  0  0  0  0  0  0  0  0  0  0  0
   36.3780   28.0260   32.7660 H   0  0  0  0  0  0  0  0  0  0  0  0
   36.6430   25.5810   31.7410 C   0  0  0  0  0  0  0  0  0  0  0  0
   36.0660   26.5800   30.9920 F   0  0  0  0  0  0  0  0  0  0  0  0
   37.7460   25.0890   31.0460 F   0  0  0  0  0  0  0  0  0  0  0  0
   35.7530   24.5230   31.8030 F   0  0  0  0  0  0  0  0  0  0  0  0
  1  2  1  0  0  0  0
  2 13  1  0  0  0  0
  2  3  2  0  0  0  0
  3 14  1  0  0  0  0
  4  3  1  0  0  0  0
  4 15  1  0  0  0  0
  5  4  2  0  0  0  0
  6  1  2  0  0  0  0
  6  5  1  0  0  0  0
  7  5  1  0  0  0  0
  7  8  1  0  0  0  0
  8 16  1  0  0  0  0
  9 19  1  0  0  0  0
  9  8  1  0  0  0  0
  9 18  1  0  0  0  0
 10  9  1  0  0  0  0
 11 10  1  0  0  0  0
 11 12  1  0  0  0  0
 12 25  1  0  0  0  0
 12  7  1  0  0  0  0
 17  8  1  0  0  0  0
 20 10  1  0  0  0  0
 21 10  1  0  0  0  0
 22 11  1  0  0  0  0
 23 11  1  0  0  0  0
 24 12  1  0  0  0  0
 26 32  1  0  0  0  0
 26 31  1  0  0  0  0
 27 26  2  0  0  0  0
 28 27  1  0  0  0  0
 28 29  2  0  0  0  0
 29 30  1  0  0  0  0
 30 31  2  0  0  0  0
 30  1  1  0  0  0  0
 33 27  1  0  0  0  0
 34 37  1  0  0  0  0
 34 28  1  0  0  0  0
 35 34  1  0  0  0  0
 36 34  1  0  0  0  0
M  END
>  <minimizedAffinity>
-5.64940977

$$$$
