
 OpenBabel03272510033D

 16 16  0  0  0  0  0  0  0  0999 V2000
   38.1610   23.4440   34.6530 C   0  0  0  0  0  0  0  0  0  0  0  0
   38.2270   23.0670   36.0140 C   0  0  0  0  0  0  0  0  0  0  0  0
   38.1850   24.0720   36.9690 C   0  0  0  0  0  0  0  0  0  0  0  0
   38.0820   25.3610   36.5380 N   0  0  0  0  0  0  0  0  0  0  0  0
   38.0200   25.6930   35.2450 C   0  0  0  0  0  0  0  0  0  0  0  0
   38.0600   24.7330   34.3030 N   0  0  0  0  0  0  0  0  0  0  0  0
   38.1940   22.6660   33.9190 H   0  0  0  0  0  0  0  0  0  0  0  0
   38.3100   22.0370   36.3370 H   0  0  0  0  0  0  0  0  0  0  0  0
   37.9090   27.1320   34.8850 C   0  0  0  0  0  0  0  0  0  0  0  0
   36.6060   27.5940   34.9180 F   0  0  0  0  0  0  0  0  0  0  0  0
   38.6370   27.9150   35.7670 F   0  0  0  0  0  0  0  0  0  0  0  0
   38.4090   27.4060   33.6350 F   0  0  0  0  0  0  0  0  0  0  0  0
   38.2500   23.7620   38.4160 C   0  0  0  0  0  0  0  0  0  0  0  0
   39.5070   23.3700   38.8210 F   0  0  0  0  0  0  0  0  0  0  0  0
   37.2970   22.8360   38.7900 F   0  0  0  0  0  0  0  0  0  0  0  0
   37.9340   24.9200   39.1240 F   0  0  0  0  0  0  0  0  0  0  0  0
  1  2  1  0  0  0  0
  2  8  1  0  0  0  0
  2  3  2  0  0  0  0
  3 13  1  0  0  0  0
  4  3  1  0  0  0  0
  5  4  2  0  0  0  0
  6  1  2  0  0  0  0
  6  5  1  0  0  0  0
  7  1  1  0  0  0  0
  9 10  1  0  0  0  0
  9  5  1  0  0  0  0
  9 11  1  0  0  0  0
 12  9  1  0  0  0  0
 13 15  1  0  0  0  0
 13 14  1  0  0  0  0
 13 16  1  0  0  0  0
M  END
>  <minimizedAffinity>
-4.84764338

$$$$

 OpenBabel03272510033D

 16 16  0  0  0  0  0  0  0  0999 V2000
   38.1730   23.3960   34.7130 C   0  0  0  0  0  0  0  0  0  0  0  0
   38.0840   24.7360   34.2730 C   0  0  0  0  0  0  0  0  0  0  0  0
   38.0410   25.7340   35.2360 C   0  0  0  0  0  0  0  0  0  0  0  0
   38.0880   25.3610   36.5470 N   0  0  0  0  0  0  0  0  0  0  0  0
   38.1730   24.0870   36.9370 C   0  0  0  0  0  0  0  0  0  0  0  0
   38.2160   23.1040   36.0190 N   0  0  0  0  0  0  0  0  0  0  0  0
   38.2050   22.6280   33.9670 H   0  0  0  0  0  0  0  0  0  0  0  0
   38.0470   25.0120   33.2270 H   0  0  0  0  0  0  0  0  0  0  0  0
   38.2180   23.7920   38.3950 C   0  0  0  0  0  0  0  0  0  0  0  0
   39.4610   23.3560   38.8170 F   0  0  0  0  0  0  0  0  0  0  0  0
   37.9170   24.9250   39.1340 F   0  0  0  0  0  0  0  0  0  0  0  0
   37.3010   22.8400   38.7720 F   0  0  0  0  0  0  0  0  0  0  0  0
   37.9460   27.1630   34.8600 C   0  0  0  0  0  0  0  0  0  0  0  0
   36.6580   27.6460   34.9210 F   0  0  0  0  0  0  0  0  0  0  0  0
   38.5100   27.4110   33.6240 F   0  0  0  0  0  0  0  0  0  0  0  0
   38.7050   27.9030   35.7650 F   0  0  0  0  0  0  0  0  0  0  0  0
  1  6  1  0  0  0  0
  2  1  2  0  0  0  0
  2  3  1  0  0  0  0
  3  4  2  0  0  0  0
  4  5  1  0  0  0  0
  5  9  1  0  0  0  0
  6  5  2  0  0  0  0
  7  1  1  0  0  0  0
  8  2  1  0  0  0  0
  9 12  1  0  0  0  0
  9 10  1  0  0  0  0
  9 11  1  0  0  0  0
 13 14  1  0  0  0  0
 13  3  1  0  0  0  0
 13 16  1  0  0  0  0
 15 13  1  0  0  0  0
M  END
>  <minimizedAffinity>
-4.82359171

$$$$

 OpenBabel03272510033D

 16 16  0  0  0  0  0  0  0  0999 V2000
   39.4480   22.6070   35.0380 C   0  0  0  0  0  0  0  0  0  0  0  0
   38.6880   23.1960   36.0750 C   0  0  0  0  0  0  0  0  0  0  0  0
   39.1630   23.0800   37.3730 C   0  0  0  0  0  0  0  0  0  0  0  0
   40.3310   22.4060   37.5700 N   0  0  0  0  0  0  0  0  0  0  0  0
   41.0310   21.8590   36.5740 C   0  0  0  0  0  0  0  0  0  0  0  0
   40.5890   21.9590   35.3070 N   0  0  0  0  0  0  0  0  0  0  0  0
   39.0780   22.6970   34.0370 H   0  0  0  0  0  0  0  0  0  0  0  0
   37.7620   23.7260   35.8980 H   0  0  0  0  0  0  0  0  0  0  0  0
   42.2950   21.1450   36.9010 C   0  0  0  0  0  0  0  0  0  0  0  0
   42.5690   20.1090   36.0280 F   0  0  0  0  0  0  0  0  0  0  0  0
   43.3750   22.0120   36.8490 F   0  0  0  0  0  0  0  0  0  0  0  0
   42.2940   20.6190   38.1710 F   0  0  0  0  0  0  0  0  0  0  0  0
   38.4260   23.6680   38.5160 C   0  0  0  0  0  0  0  0  0  0  0  0
   39.2310   23.8830   39.6130 F   0  0  0  0  0  0  0  0  0  0  0  0
   37.3160   22.9220   38.8550 F   0  0  0  0  0  0  0  0  0  0  0  0
   37.9290   24.9080   38.1220 F   0  0  0  0  0  0  0  0  0  0  0  0
  1  6  2  0  0  0  0
  1  2  1  0  0  0  0
  2  3  2  0  0  0  0
  3  4  1  0  0  0  0
  3 13  1  0  0  0  0
  5  9  1  0  0  0  0
  5  4  2  0  0  0  0
  6  5  1  0  0  0  0
  7  1  1  0  0  0  0
  8  2  1  0  0  0  0
  9 12  1  0  0  0  0
 10  9  1  0  0  0  0
 11  9  1  0  0  0  0
 13 15  1  0  0  0  0
 13 14  1  0  0  0  0
 16 13  1  0  0  0  0
M  END
>  <minimizedAffinity>
-4.56873608

$$$$

 OpenBabel03272510033D

 16 16  0  0  0  0  0  0  0  0999 V2000
   40.1210   24.1260   34.7800 C   0  0  0  0  0  0  0  0  0  0  0  0
   39.8180   23.6690   36.0830 C   0  0  0  0  0  0  0  0  0  0  0  0
   38.6900   24.1830   36.7050 C   0  0  0  0  0  0  0  0  0  0  0  0
   37.9420   25.0960   36.0230 N   0  0  0  0  0  0  0  0  0  0  0  0
   38.2490   25.5120   34.7910 C   0  0  0  0  0  0  0  0  0  0  0  0
   39.3390   25.0260   34.1700 N   0  0  0  0  0  0  0  0  0  0  0  0
   40.9930   23.7270   34.3030 H   0  0  0  0  0  0  0  0  0  0  0  0
   40.4250   22.9430   36.6090 H   0  0  0  0  0  0  0  0  0  0  0  0
   37.3630   26.5130   34.1380 C   0  0  0  0  0  0  0  0  0  0  0  0
   36.5870   25.9670   33.1310 F   0  0  0  0  0  0  0  0  0  0  0  0
   36.4920   27.0720   35.0590 F   0  0  0  0  0  0  0  0  0  0  0  0
   38.0610   27.5630   33.5910 F   0  0  0  0  0  0  0  0  0  0  0  0
   38.3020   23.7580   38.0710 C   0  0  0  0  0  0  0  0  0  0  0  0
   39.3580   23.2360   38.7850 F   0  0  0  0  0  0  0  0  0  0  0  0
   37.2340   22.8840   38.0560 F   0  0  0  0  0  0  0  0  0  0  0  0
   37.8510   24.8790   38.7640 F   0  0  0  0  0  0  0  0  0  0  0  0
  1  2  1  0  0  0  0
  2  8  1  0  0  0  0
  2  3  2  0  0  0  0
  3 13  1  0  0  0  0
  4  3  1  0  0  0  0
  5  4  2  0  0  0  0
  6  1  2  0  0  0  0
  6  5  1  0  0  0  0
  7  1  1  0  0  0  0
  9  5  1  0  0  0  0
  9 11  1  0  0  0  0
 10  9  1  0  0  0  0
 12  9  1  0  0  0  0
 13 16  1  0  0  0  0
 13 14  1  0  0  0  0
 15 13  1  0  0  0  0
M  END
>  <minimizedAffinity>
-4.24452972

$$$$

 OpenBabel03272510033D

 16 16  0  0  0  0  0  0  0  0999 V2000
   38.0250   25.8590   35.1640 C   0  0  0  0  0  0  0  0  0  0  0  0
   38.1120   25.5520   36.5420 C   0  0  0  0  0  0  0  0  0  0  0  0
   38.1770   24.2150   36.9060 C   0  0  0  0  0  0  0  0  0  0  0  0
   38.1510   23.2790   35.9150 N   0  0  0  0  0  0  0  0  0  0  0  0
   38.0690   23.5940   34.6200 C   0  0  0  0  0  0  0  0  0  0  0  0
   38.0060   24.8850   34.2450 N   0  0  0  0  0  0  0  0  0  0  0  0
   37.9750   26.8920   34.8870 H   0  0  0  0  0  0  0  0  0  0  0  0
   38.1300   26.3090   37.3150 H   0  0  0  0  0  0  0  0  0  0  0  0
   38.0490   22.4920   33.6200 C   0  0  0  0  0  0  0  0  0  0  0  0
   38.8210   21.4090   33.9990 F   0  0  0  0  0  0  0  0  0  0  0  0
   36.7580   22.0220   33.4350 F   0  0  0  0  0  0  0  0  0  0  0  0
   38.4870   22.8920   32.3800 F   0  0  0  0  0  0  0  0  0  0  0  0
   38.2690   23.8080   38.3280 C   0  0  0  0  0  0  0  0  0  0  0  0
   39.5200   23.3450   38.6680 F   0  0  0  0  0  0  0  0  0  0  0  0
   37.2920   22.8940   38.6680 F   0  0  0  0  0  0  0  0  0  0  0  0
   38.0160   24.9270   39.1180 F   0  0  0  0  0  0  0  0  0  0  0  0
  1  2  1  0  0  0  0
  2  3  2  0  0  0  0
  2  8  1  0  0  0  0
  3 13  1  0  0  0  0
  4  3  1  0  0  0  0
  5  4  2  0  0  0  0
  6  5  1  0  0  0  0
  6  1  2  0  0  0  0
  7  1  1  0  0  0  0
  9 10  1  0  0  0  0
  9  5  1  0  0  0  0
 11  9  1  0  0  0  0
 12  9  1  0  0  0  0
 13 14  1  0  0  0  0
 13 15  1  0  0  0  0
 13 16  1  0  0  0  0
M  END
>  <minimizedAffinity>
-4.1679616

$$$$

 OpenBabel03272510033D

 16 16  0  0  0  0  0  0  0  0999 V2000
   40.4820   22.9690   35.2570 C   0  0  0  0  0  0  0  0  0  0  0  0
   39.5630   22.3910   34.3510 C   0  0  0  0  0  0  0  0  0  0  0  0
   38.2500   22.2370   34.7690 C   0  0  0  0  0  0  0  0  0  0  0  0
   37.9250   22.6510   36.0270 N   0  0  0  0  0  0  0  0  0  0  0  0
   38.8120   23.1950   36.8650 C   0  0  0  0  0  0  0  0  0  0  0  0
   40.0910   23.3530   36.4790 N   0  0  0  0  0  0  0  0  0  0  0  0
   41.4960   23.0860   34.9320 H   0  0  0  0  0  0  0  0  0  0  0  0
   39.8410   22.0680   33.3560 H   0  0  0  0  0  0  0  0  0  0  0  0
   38.3500   23.6120   38.2160 C   0  0  0  0  0  0  0  0  0  0  0  0
   39.3460   23.5380   39.1710 F   0  0  0  0  0  0  0  0  0  0  0  0
   37.9060   24.9250   38.1980 F   0  0  0  0  0  0  0  0  0  0  0  0
   37.2910   22.8620   38.6700 F   0  0  0  0  0  0  0  0  0  0  0  0
   37.2240   21.6400   33.8820 C   0  0  0  0  0  0  0  0  0  0  0  0
   36.1420   21.1480   34.5750 F   0  0  0  0  0  0  0  0  0  0  0  0
   37.7590   20.6780   33.0480 F   0  0  0  0  0  0  0  0  0  0  0  0
   36.7500   22.6380   33.0330 F   0  0  0  0  0  0  0  0  0  0  0  0
  1  6  1  0  0  0  0
  2  3  1  0  0  0  0
  2  1  2  0  0  0  0
  3  4  2  0  0  0  0
  4  5  1  0  0  0  0
  5  9  1  0  0  0  0
  6  5  2  0  0  0  0
  7  1  1  0  0  0  0
  8  2  1  0  0  0  0
  9 12  1  0  0  0  0
  9 10  1  0  0  0  0
 11  9  1  0  0  0  0
 13 14  1  0  0  0  0
 13  3  1  0  0  0  0
 15 13  1  0  0  0  0
 16 13  1  0  0  0  0
M  END
>  <minimizedAffinity>
-4.13372183

$$$$

 OpenBabel03272510033D

 16 16  0  0  0  0  0  0  0  0999 V2000
   39.4170   22.6920   33.8390 C   0  0  0  0  0  0  0  0  0  0  0  0
   39.4720   23.1470   35.1770 C   0  0  0  0  0  0  0  0  0  0  0  0
   38.4030   22.8460   36.0080 C   0  0  0  0  0  0  0  0  0  0  0  0
   37.3660   22.1320   35.4860 N   0  0  0  0  0  0  0  0  0  0  0  0
   37.3370   21.7130   34.2180 C   0  0  0  0  0  0  0  0  0  0  0  0
   38.3640   21.9940   33.3940 N   0  0  0  0  0  0  0  0  0  0  0  0
   40.2430   22.9260   33.1990 H   0  0  0  0  0  0  0  0  0  0  0  0
   40.3040   23.7130   35.5730 H   0  0  0  0  0  0  0  0  0  0  0  0
   36.1550   20.9400   33.7510 C   0  0  0  0  0  0  0  0  0  0  0  0
   35.2950   21.6920   32.9720 F   0  0  0  0  0  0  0  0  0  0  0  0
   36.5500   19.8560   32.9840 F   0  0  0  0  0  0  0  0  0  0  0  0
   35.4170   20.4210   34.7880 F   0  0  0  0  0  0  0  0  0  0  0  0
   38.3820   23.2850   37.4230 C   0  0  0  0  0  0  0  0  0  0  0  0
   39.5170   22.9190   38.1110 F   0  0  0  0  0  0  0  0  0  0  0  0
   37.2450   22.8590   38.0800 F   0  0  0  0  0  0  0  0  0  0  0  0
   38.3190   24.6770   37.4460 F   0  0  0  0  0  0  0  0  0  0  0  0
  1  2  1  0  0  0  0
  2  8  1  0  0  0  0
  2  3  2  0  0  0  0
  3 13  1  0  0  0  0
  4  3  1  0  0  0  0
  5  4  2  0  0  0  0
  6  1  2  0  0  0  0
  6  5  1  0  0  0  0
  7  1  1  0  0  0  0
  9  5  1  0  0  0  0
  9 12  1  0  0  0  0
 10  9  1  0  0  0  0
 11  9  1  0  0  0  0
 13 16  1  0  0  0  0
 13 15  1  0  0  0  0
 13 14  1  0  0  0  0
M  END
>  <minimizedAffinity>
-4.07438755

$$$$

 OpenBabel03272510033D

 16 16  0  0  0  0  0  0  0  0999 V2000
   37.8050   24.0890   33.3440 C   0  0  0  0  0  0  0  0  0  0  0  0
   37.0020   24.6580   32.3290 C   0  0  0  0  0  0  0  0  0  0  0  0
   36.6800   26.0030   32.4340 C   0  0  0  0  0  0  0  0  0  0  0  0
   37.1580   26.6940   33.5070 N   0  0  0  0  0  0  0  0  0  0  0  0
   37.9160   26.1340   34.4530 C   0  0  0  0  0  0  0  0  0  0  0  0
   38.2400   24.8310   34.3710 N   0  0  0  0  0  0  0  0  0  0  0  0
   38.0510   23.0500   33.2610 H   0  0  0  0  0  0  0  0  0  0  0  0
   36.6310   24.0920   31.4850 H   0  0  0  0  0  0  0  0  0  0  0  0
   38.3850   26.9820   35.5830 C   0  0  0  0  0  0  0  0  0  0  0  0
   39.7300   27.2920   35.5010 F   0  0  0  0  0  0  0  0  0  0  0  0
   37.6960   28.1840   35.6120 F   0  0  0  0  0  0  0  0  0  0  0  0
   38.1750   26.3970   36.8090 F   0  0  0  0  0  0  0  0  0  0  0  0
   35.8420   26.6760   31.4140 C   0  0  0  0  0  0  0  0  0  0  0  0
   34.9090   25.8330   30.8520 F   0  0  0  0  0  0  0  0  0  0  0  0
   36.6060   27.2890   30.4410 F   0  0  0  0  0  0  0  0  0  0  0  0
   35.1430   27.7070   32.0360 F   0  0  0  0  0  0  0  0  0  0  0  0
  1  6  1  0  0  0  0
  2  3  1  0  0  0  0
  2  1  2  0  0  0  0
  3  4  2  0  0  0  0
  4  5  1  0  0  0  0
  5  9  1  0  0  0  0
  6  5  2  0  0  0  0
  7  1  1  0  0  0  0
  8  2  1  0  0  0  0
  9 11  1  0  0  0  0
  9 12  1  0  0  0  0
 10  9  1  0  0  0  0
 13 16  1  0  0  0  0
 13  3  1  0  0  0  0
 14 13  1  0  0  0  0
 15 13  1  0  0  0  0
M  END
>  <minimizedAffinity>
-4.04260111

$$$$

 OpenBabel03272510033D

 16 16  0  0  0  0  0  0  0  0999 V2000
   39.4690   22.1510   33.7400 C   0  0  0  0  0  0  0  0  0  0  0  0
   38.2890   21.5190   33.2840 C   0  0  0  0  0  0  0  0  0  0  0  0
   37.2040   21.4710   34.1470 C   0  0  0  0  0  0  0  0  0  0  0  0
   37.3400   22.0360   35.3800 N   0  0  0  0  0  0  0  0  0  0  0  0
   38.4660   22.6280   35.7880 C   0  0  0  0  0  0  0  0  0  0  0  0
   39.5300   22.6860   34.9670 N   0  0  0  0  0  0  0  0  0  0  0  0
   40.3050   22.1860   33.0720 H   0  0  0  0  0  0  0  0  0  0  0  0
   38.2000   21.0750   32.3010 H   0  0  0  0  0  0  0  0  0  0  0  0
   38.5060   23.2130   37.1550 C   0  0  0  0  0  0  0  0  0  0  0  0
   38.5430   24.5950   37.1480 F   0  0  0  0  0  0  0  0  0  0  0  0
   37.3830   22.8440   37.8790 F   0  0  0  0  0  0  0  0  0  0  0  0
   39.5870   22.7800   37.8860 F   0  0  0  0  0  0  0  0  0  0  0  0
   35.9310   20.8270   33.7470 C   0  0  0  0  0  0  0  0  0  0  0  0
   36.1200   19.6070   33.1370 F   0  0  0  0  0  0  0  0  0  0  0  0
   35.1540   21.6570   32.9650 F   0  0  0  0  0  0  0  0  0  0  0  0
   35.1790   20.5980   34.8980 F   0  0  0  0  0  0  0  0  0  0  0  0
  1  6  1  0  0  0  0
  2  1  2  0  0  0  0
  2  3  1  0  0  0  0
  3  4  2  0  0  0  0
  4  5  1  0  0  0  0
  5  9  1  0  0  0  0
  6  5  2  0  0  0  0
  7  1  1  0  0  0  0
  8  2  1  0  0  0  0
  9 11  1  0  0  0  0
  9 12  1  0  0  0  0
 10  9  1  0  0  0  0
 13  3  1  0  0  0  0
 13 16  1  0  0  0  0
 14 13  1  0  0  0  0
 15 13  1  0  0  0  0
M  END
>  <minimizedAffinity>
-4.03611708

$$$$
