
 OpenBabel03272507023D

 41 43  0  0  1  0  0  0  0  0999 V2000
   37.8940   26.0500   33.2090 C   0  0  2  0  0  0  0  0  0  0  0  0
   38.4660   24.9110   33.9800 C   0  0  0  0  0  0  0  0  0  0  0  0
   38.1100   24.9560   35.4480 C   0  0  2  0  0  0  0  0  0  0  0  0
   38.6320   26.2330   36.0330 C   0  0  0  0  0  0  0  0  0  0  0  0
   38.0440   27.4120   35.3360 C   0  0  0  0  0  0  0  0  0  0  0  0
   37.3110   27.1270   34.0790 C   0  0  0  0  0  0  0  0  0  0  0  0
   38.6450   26.5850   32.5550 H   0  0  0  0  0  0  0  0  0  0  0  0
   39.5950   25.0460   33.9080 H   0  0  0  0  0  0  0  0  0  0  0  0
   38.2240   23.8990   33.6720 H   0  0  0  0  0  0  0  0  0  0  0  0
   37.0210   24.9370   35.5420 H   0  0  0  0  0  0  0  0  0  0  0  0
   39.6940   26.3250   35.7480 H   0  0  0  0  0  0  0  0  0  0  0  0
   38.4610   26.3180   37.1200 H   0  0  0  0  0  0  0  0  0  0  0  0
   38.7410   28.2490   35.1280 H   0  0  0  0  0  0  0  0  0  0  0  0
   37.2800   27.8860   36.0250 H   0  0  0  0  0  0  0  0  0  0  0  0
   36.2540   26.8120   34.3110 H   0  0  0  0  0  0  0  0  0  0  0  0
   37.2120   28.0540   33.4810 H   0  0  0  0  0  0  0  0  0  0  0  0
   38.6820   23.8660   36.1560 N   0  0  1  0  0  0  0  0  0  0  0  0
   39.8060   23.3160   35.3830 C   0  0  0  0  0  0  0  0  0  0  0  0
   40.1820   22.1240   36.2440 C   0  0  0  0  0  0  0  0  0  0  0  0
   40.0150   22.7130   37.6080 C   0  0  0  0  0  0  0  0  0  0  0  0
   39.0740   23.9430   37.4470 C   0  0  2  0  0  0  0  0  0  0  0  0
   40.6440   24.0270   35.3310 H   0  0  0  0  0  0  0  0  0  0  0  0
   39.4070   22.9640   34.4330 H   0  0  0  0  0  0  0  0  0  0  0  0
   39.6070   21.2350   36.0180 H   0  0  0  0  0  0  0  0  0  0  0  0
   41.2850   21.9950   36.0790 H   0  0  0  0  0  0  0  0  0  0  0  0
   39.5520   21.9250   38.2260 H   0  0  0  0  0  0  0  0  0  0  0  0
   40.9470   22.9870   38.0970 H   0  0  0  0  0  0  0  0  0  0  0  0
   39.8070   24.8170   37.5940 H   0  0  0  0  0  0  0  0  0  0  0  0
   38.2800   23.8960   38.6830 C   0  0  0  0  0  0  0  0  0  0  0  0
   37.6750   22.6900   38.9830 F   0  0  0  0  0  0  0  0  0  0  0  0
   39.2320   23.8850   39.7940 F   0  0  0  0  0  0  0  0  0  0  0  0
   37.6070   25.0170   39.0780 F   0  0  0  0  0  0  0  0  0  0  0  0
   36.8220   25.6210   32.2790 C   0  0  0  0  0  0  0  0  0  0  0  0
   36.7580   24.2450   32.0500 C   0  0  0  0  0  0  0  0  0  0  0  0
   35.7490   23.7890   31.1860 C   0  0  0  0  0  0  0  0  0  0  0  0
   34.8880   24.7040   30.6150 N   0  0  0  0  0  0  0  0  0  0  0  0
   34.9960   26.0350   30.8730 C   0  0  0  0  0  0  0  0  0  0  0  0
   35.9460   26.4610   31.6870 N   0  0  0  0  0  0  0  0  0  0  0  0
   37.2700   23.3460   32.3280 H   0  0  0  0  0  0  0  0  0  0  0  0
   35.4830   22.8160   30.8480 H   0  0  0  0  0  0  0  0  0  0  0  0
   34.3330   26.7530   30.4340 H   0  0  0  0  0  0  0  0  0  0  0  0
  1  7  1  6  0  0  0
  1  2  1  0  0  0  0
  1  6  1  0  0  0  0
  2  3  1  0  0  0  0
  3 10  1  1  0  0  0
  3  4  1  0  0  0  0
  3 17  1  0  0  0  0
  4 12  1  0  0  0  0
  5 14  1  0  0  0  0
  5  4  1  0  0  0  0
  6 15  1  0  0  0  0
  6  5  1  0  0  0  0
  8  2  1  0  0  0  0
  9  2  1  0  0  0  0
 11  4  1  0  0  0  0
 13  5  1  0  0  0  0
 16  6  1  0  0  0  0
 17 18  1  6  0  0  0
 17 21  1  0  0  0  0
 18 19  1  0  0  0  0
 19 20  1  0  0  0  0
 20 27  1  0  0  0  0
 20 26  1  0  0  0  0
 21 28  1  1  0  0  0
 21 20  1  0  0  0  0
 21 29  1  0  0  0  0
 22 18  1  0  0  0  0
 23 18  1  0  0  0  0
 24 19  1  0  0  0  0
 25 19  1  0  0  0  0
 29 30  1  0  0  0  0
 29 32  1  0  0  0  0
 29 31  1  0  0  0  0
 33  1  1  0  0  0  0
 34 33  1  0  0  0  0
 34 39  1  0  0  0  0
 35 34  2  0  0  0  0
 36 37  2  0  0  0  0
 36 35  1  0  0  0  0
 37 38  1  0  0  0  0
 38 33  2  0  0  0  0
 40 35  1  0  0  0  0
 41 37  1  0  0  0  0
M  END
>  <minimizedAffinity>
-5.96250868

$$$$

 OpenBabel03272507023D

 41 43  0  0  1  0  0  0  0  0999 V2000
   36.7190   23.0240   31.4970 C   0  0  2  0  0  0  0  0  0  0  0  0
   37.7250   23.6560   32.3950 C   0  0  0  0  0  0  0  0  0  0  0  0
   37.2020   24.8940   33.0870 C   0  0  2  0  0  0  0  0  0  0  0  0
   36.8010   25.8950   32.0470 C   0  0  0  0  0  0  0  0  0  0  0  0
   35.7470   25.3350   31.1530 C   0  0  0  0  0  0  0  0  0  0  0  0
   35.5040   23.8760   31.2680 C   0  0  0  0  0  0  0  0  0  0  0  0
   37.1080   22.7950   30.4610 H   0  0  0  0  0  0  0  0  0  0  0  0
   38.5650   23.9920   31.7030 H   0  0  0  0  0  0  0  0  0  0  0  0
   38.1590   23.0620   33.1930 H   0  0  0  0  0  0  0  0  0  0  0  0
   36.3240   24.6180   33.6760 H   0  0  0  0  0  0  0  0  0  0  0  0
   37.6430   26.0050   31.3420 H   0  0  0  0  0  0  0  0  0  0  0  0
   36.4580   26.8540   32.4720 H   0  0  0  0  0  0  0  0  0  0  0  0
   35.8560   25.5660   30.0730 H   0  0  0  0  0  0  0  0  0  0  0  0
   34.7610   25.8240   31.4180 H   0  0  0  0  0  0  0  0  0  0  0  0
   34.8020   23.6690   32.1250 H   0  0  0  0  0  0  0  0  0  0  0  0
   34.9750   23.5100   30.3670 H   0  0  0  0  0  0  0  0  0  0  0  0
   38.1890   25.4790   33.9230 N   0  0  1  0  0  0  0  0  0  0  0  0
   38.6440   26.7460   33.3310 C   0  0  0  0  0  0  0  0  0  0  0  0
   39.7470   27.1280   34.3000 C   0  0  0  0  0  0  0  0  0  0  0  0
   39.1210   26.7250   35.5950 C   0  0  0  0  0  0  0  0  0  0  0  0
   38.0110   25.6890   35.2470 C   0  0  2  0  0  0  0  0  0  0  0  0
   37.8470   27.5050   33.3430 H   0  0  0  0  0  0  0  0  0  0  0  0
   39.0810   26.5140   32.3600 H   0  0  0  0  0  0  0  0  0  0  0  0
   40.7040   26.6840   34.0560 H   0  0  0  0  0  0  0  0  0  0  0  0
   39.7600   28.2510   34.2820 H   0  0  0  0  0  0  0  0  0  0  0  0
   39.9280   26.2690   36.1950 H   0  0  0  0  0  0  0  0  0  0  0  0
   38.7230   27.5500   36.1800 H   0  0  0  0  0  0  0  0  0  0  0  0
   37.0560   26.3010   35.4330 H   0  0  0  0  0  0  0  0  0  0  0  0
   38.0920   24.7500   36.3740 C   0  0  0  0  0  0  0  0  0  0  0  0
   37.4370   23.5430   36.2210 F   0  0  0  0  0  0  0  0  0  0  0  0
   39.4490   24.2040   36.3700 F   0  0  0  0  0  0  0  0  0  0  0  0
   38.1380   25.2480   37.6460 F   0  0  0  0  0  0  0  0  0  0  0  0
   36.2380   21.7210   32.0160 C   0  0  0  0  0  0  0  0  0  0  0  0
   36.0070   20.7490   31.0400 C   0  0  0  0  0  0  0  0  0  0  0  0
   35.5640   19.4930   31.4840 C   0  0  0  0  0  0  0  0  0  0  0  0
   35.3800   19.2830   32.8360 N   0  0  0  0  0  0  0  0  0  0  0  0
   35.6200   20.2670   33.7440 C   0  0  0  0  0  0  0  0  0  0  0  0
   36.0380   21.4480   33.3230 N   0  0  0  0  0  0  0  0  0  0  0  0
   36.0490   20.6340   29.9760 H   0  0  0  0  0  0  0  0  0  0  0  0
   35.3180   18.5970   30.9650 H   0  0  0  0  0  0  0  0  0  0  0  0
   35.4800   20.1140   34.7950 H   0  0  0  0  0  0  0  0  0  0  0  0
  1  7  1  6  0  0  0
  1 33  1  0  0  0  0
  1  2  1  0  0  0  0
  2  3  1  0  0  0  0
  2  9  1  0  0  0  0
  3 10  1  1  0  0  0
  3 17  1  0  0  0  0
  4 12  1  0  0  0  0
  4  3  1  0  0  0  0
  5  6  1  0  0  0  0
  5 14  1  0  0  0  0
  5  4  1  0  0  0  0
  6  1  1  0  0  0  0
  6 15  1  0  0  0  0
  8  2  1  0  0  0  0
 11  4  1  0  0  0  0
 13  5  1  0  0  0  0
 16  6  1  0  0  0  0
 17 18  1  6  0  0  0
 17 21  1  0  0  0  0
 18 22  1  0  0  0  0
 18 19  1  0  0  0  0
 19 20  1  0  0  0  0
 20 27  1  0  0  0  0
 20 26  1  0  0  0  0
 21 28  1  1  0  0  0
 21 20  1  0  0  0  0
 21 29  1  0  0  0  0
 23 18  1  0  0  0  0
 24 19  1  0  0  0  0
 25 19  1  0  0  0  0
 29 32  1  0  0  0  0
 30 29  1  0  0  0  0
 31 29  1  0  0  0  0
 33 38  1  0  0  0  0
 34 35  1  0  0  0  0
 34 33  2  0  0  0  0
 35 36  2  0  0  0  0
 36 37  1  0  0  0  0
 37 41  1  0  0  0  0
 38 37  2  0  0  0  0
 39 34  1  0  0  0  0
 40 35  1  0  0  0  0
M  END
>  <minimizedAffinity>
-5.61004877

$$$$

 OpenBabel03272507023D

 41 43  0  0  1  0  0  0  0  0999 V2000
   36.6420   23.6930   31.4940 C   0  0  2  0  0  0  0  0  0  0  0  0
   37.5600   24.4800   32.3640 C   0  0  0  0  0  0  0  0  0  0  0  0
   36.9150   25.7260   32.9250 C   0  0  2  0  0  0  0  0  0  0  0  0
   36.4780   26.5980   31.7870 C   0  0  0  0  0  0  0  0  0  0  0  0
   35.5070   25.8780   30.9140 C   0  0  0  0  0  0  0  0  0  0  0  0
   35.3740   24.4210   31.1510 C   0  0  0  0  0  0  0  0  0  0  0  0
   37.0880   23.4070   30.4950 H   0  0  0  0  0  0  0  0  0  0  0  0
   38.3970   24.8220   31.6720 H   0  0  0  0  0  0  0  0  0  0  0  0
   38.0070   23.9940   33.2250 H   0  0  0  0  0  0  0  0  0  0  0  0
   36.0390   25.4320   33.5080 H   0  0  0  0  0  0  0  0  0  0  0  0
   37.3360   26.7140   31.1020 H   0  0  0  0  0  0  0  0  0  0  0  0
   36.0450   27.5580   32.1140 H   0  0  0  0  0  0  0  0  0  0  0  0
   35.6390   26.0230   29.8210 H   0  0  0  0  0  0  0  0  0  0  0  0
   34.4760   26.3070   31.1020 H   0  0  0  0  0  0  0  0  0  0  0  0
   34.6580   24.2320   32.0000 H   0  0  0  0  0  0  0  0  0  0  0  0
   34.9110   23.9360   30.2700 H   0  0  0  0  0  0  0  0  0  0  0  0
   37.8200   26.4600   33.7360 N   0  0  1  0  0  0  0  0  0  0  0  0
   37.4100   26.3560   35.1450 C   0  0  0  0  0  0  0  0  0  0  0  0
   38.4170   27.2830   35.8000 C   0  0  0  0  0  0  0  0  0  0  0  0
   39.6460   26.9380   35.0220 C   0  0  0  0  0  0  0  0  0  0  0  0
   39.1610   26.2940   33.6900 C   0  0  2  0  0  0  0  0  0  0  0  0
   37.5330   25.3300   35.5250 H   0  0  0  0  0  0  0  0  0  0  0  0
   36.4140   26.7890   35.2280 H   0  0  0  0  0  0  0  0  0  0  0  0
   38.1080   28.3200   35.7980 H   0  0  0  0  0  0  0  0  0  0  0  0
   38.5580   26.8610   36.8310 H   0  0  0  0  0  0  0  0  0  0  0  0
   40.1720   27.8930   34.8440 H   0  0  0  0  0  0  0  0  0  0  0  0
   40.3440   26.2890   35.5450 H   0  0  0  0  0  0  0  0  0  0  0  0
   39.4370   25.1900   33.8520 H   0  0  0  0  0  0  0  0  0  0  0  0
   40.1440   26.7980   32.7200 C   0  0  0  0  0  0  0  0  0  0  0  0
   40.5310   25.9230   31.7220 F   0  0  0  0  0  0  0  0  0  0  0  0
   39.4340   27.7370   31.8510 F   0  0  0  0  0  0  0  0  0  0  0  0
   41.0970   27.6810   33.1440 F   0  0  0  0  0  0  0  0  0  0  0  0
   36.2450   22.4050   32.1120 C   0  0  0  0  0  0  0  0  0  0  0  0
   35.3820   21.6240   31.3390 C   0  0  0  0  0  0  0  0  0  0  0  0
   34.9890   20.3870   31.8770 C   0  0  0  0  0  0  0  0  0  0  0  0
   35.4620   20.0110   33.1170 N   0  0  0  0  0  0  0  0  0  0  0  0
   36.3010   20.8130   33.8280 C   0  0  0  0  0  0  0  0  0  0  0  0
   36.6700   21.9750   33.3190 N   0  0  0  0  0  0  0  0  0  0  0  0
   34.8690   21.6590   30.3990 H   0  0  0  0  0  0  0  0  0  0  0  0
   34.3550   19.6160   31.5070 H   0  0  0  0  0  0  0  0  0  0  0  0
   36.6730   20.5300   34.7920 H   0  0  0  0  0  0  0  0  0  0  0  0
  1  7  1  6  0  0  0
  1 33  1  0  0  0  0
  1  2  1  0  0  0  0
  2  3  1  0  0  0  0
  2  9  1  0  0  0  0
  3 10  1  1  0  0  0
  3 17  1  0  0  0  0
  4 12  1  0  0  0  0
  4  3  1  0  0  0  0
  5 14  1  0  0  0  0
  5  6  1  0  0  0  0
  5  4  1  0  0  0  0
  6  1  1  0  0  0  0
  6 15  1  0  0  0  0
  8  2  1  0  0  0  0
 11  4  1  0  0  0  0
 13  5  1  0  0  0  0
 16  6  1  0  0  0  0
 17 18  1  1  0  0  0
 18 23  1  0  0  0  0
 18 22  1  0  0  0  0
 18 19  1  0  0  0  0
 19 25  1  0  0  0  0
 20 27  1  0  0  0  0
 20 19  1  0  0  0  0
 21 17  1  0  0  0  0
 21 28  1  1  0  0  0
 21 20  1  0  0  0  0
 24 19  1  0  0  0  0
 26 20  1  0  0  0  0
 29 32  1  0  0  0  0
 29 21  1  0  0  0  0
 30 29  1  0  0  0  0
 31 29  1  0  0  0  0
 33 38  1  0  0  0  0
 34 35  1  0  0  0  0
 34 33  2  0  0  0  0
 35 36  2  0  0  0  0
 36 37  1  0  0  0  0
 37 41  1  0  0  0  0
 38 37  2  0  0  0  0
 39 34  1  0  0  0  0
 40 35  1  0  0  0  0
M  END
>  <minimizedAffinity>
-5.4369812

$$$$

 OpenBabel03272507023D

 41 43  0  0  1  0  0  0  0  0999 V2000
   36.4820   23.0650   31.2000 C   0  0  2  0  0  0  0  0  0  0  0  0
   37.6980   23.6700   31.8100 C   0  0  0  0  0  0  0  0  0  0  0  0
   37.3960   24.9060   32.6250 C   0  0  2  0  0  0  0  0  0  0  0  0
   36.7560   25.9270   31.7340 C   0  0  0  0  0  0  0  0  0  0  0  0
   35.4960   25.3940   31.1410 C   0  0  0  0  0  0  0  0  0  0  0  0
   35.2650   23.9380   31.3030 C   0  0  0  0  0  0  0  0  0  0  0  0
   36.5840   22.8430   30.0960 H   0  0  0  0  0  0  0  0  0  0  0  0
   38.3350   24.0020   30.9260 H   0  0  0  0  0  0  0  0  0  0  0  0
   38.3140   23.0580   32.4630 H   0  0  0  0  0  0  0  0  0  0  0  0
   36.6970   24.6350   33.4200 H   0  0  0  0  0  0  0  0  0  0  0  0
   37.3870   26.0330   30.8350 H   0  0  0  0  0  0  0  0  0  0  0  0
   36.5530   26.8840   32.2420 H   0  0  0  0  0  0  0  0  0  0  0  0
   35.3230   25.6370   30.0720 H   0  0  0  0  0  0  0  0  0  0  0  0
   34.6220   25.8940   31.6580 H   0  0  0  0  0  0  0  0  0  0  0  0
   34.8070   23.7300   32.3110 H   0  0  0  0  0  0  0  0  0  0  0  0
   34.5130   23.5910   30.5680 H   0  0  0  0  0  0  0  0  0  0  0  0
   38.5770   25.4650   33.1800 N   0  0  1  0  0  0  0  0  0  0  0  0
   39.6160   25.5460   32.1420 C   0  0  0  0  0  0  0  0  0  0  0  0
   40.7910   26.0480   32.9590 C   0  0  0  0  0  0  0  0  0  0  0  0
   40.1010   27.0290   33.8510 C   0  0  0  0  0  0  0  0  0  0  0  0
   38.5950   26.6300   33.8650 C   0  0  2  0  0  0  0  0  0  0  0  0
   39.3510   26.2790   31.3650 H   0  0  0  0  0  0  0  0  0  0  0  0
   39.8180   24.5310   31.8040 H   0  0  0  0  0  0  0  0  0  0  0  0
   41.3490   25.2540   33.4390 H   0  0  0  0  0  0  0  0  0  0  0  0
   41.4040   26.6460   32.2330 H   0  0  0  0  0  0  0  0  0  0  0  0
   40.5610   26.9120   34.8480 H   0  0  0  0  0  0  0  0  0  0  0  0
   40.2330   28.0690   33.5650 H   0  0  0  0  0  0  0  0  0  0  0  0
   38.1260   27.4730   33.2400 H   0  0  0  0  0  0  0  0  0  0  0  0
   38.2060   26.9190   35.2530 C   0  0  0  0  0  0  0  0  0  0  0  0
   39.1820   27.4590   36.0690 F   0  0  0  0  0  0  0  0  0  0  0  0
   37.3500   28.1050   35.2120 F   0  0  0  0  0  0  0  0  0  0  0  0
   37.2970   26.1040   35.8670 F   0  0  0  0  0  0  0  0  0  0  0  0
   36.1300   21.7620   31.8140 C   0  0  0  0  0  0  0  0  0  0  0  0
   36.0250   20.6980   30.9170 C   0  0  0  0  0  0  0  0  0  0  0  0
   35.7070   19.4390   31.4540 C   0  0  0  0  0  0  0  0  0  0  0  0
   35.5150   19.3180   32.8160 N   0  0  0  0  0  0  0  0  0  0  0  0
   35.6290   20.3900   33.6450 C   0  0  0  0  0  0  0  0  0  0  0  0
   35.9290   21.5720   33.1370 N   0  0  0  0  0  0  0  0  0  0  0  0
   36.1040   20.5040   29.8660 H   0  0  0  0  0  0  0  0  0  0  0  0
   35.5700   18.4840   31.0050 H   0  0  0  0  0  0  0  0  0  0  0  0
   35.4810   20.3060   34.7030 H   0  0  0  0  0  0  0  0  0  0  0  0
  1  7  1  6  0  0  0
  1  6  1  0  0  0  0
  1  2  1  0  0  0  0
  1 33  1  0  0  0  0
  2  9  1  0  0  0  0
  2  3  1  0  0  0  0
  3 17  1  0  0  0  0
  3 10  1  1  0  0  0
  4 12  1  0  0  0  0
  4  3  1  0  0  0  0
  5  6  1  0  0  0  0
  5 14  1  0  0  0  0
  5  4  1  0  0  0  0
  6 15  1  0  0  0  0
  8  2  1  0  0  0  0
 11  4  1  0  0  0  0
 13  5  1  0  0  0  0
 16  6  1  0  0  0  0
 17 18  1  6  0  0  0
 17 21  1  0  0  0  0
 18 19  1  0  0  0  0
 19 24  1  0  0  0  0
 19 20  1  0  0  0  0
 20 21  1  0  0  0  0
 20 26  1  0  0  0  0
 21 28  1  6  0  0  0
 21 29  1  0  0  0  0
 22 18  1  0  0  0  0
 23 18  1  0  0  0  0
 25 19  1  0  0  0  0
 27 20  1  0  0  0  0
 29 32  1  0  0  0  0
 29 30  1  0  0  0  0
 31 29  1  0  0  0  0
 33 38  1  0  0  0  0
 34 35  1  0  0  0  0
 34 33  2  0  0  0  0
 35 36  2  0  0  0  0
 36 37  1  0  0  0  0
 37 41  1  0  0  0  0
 38 37  2  0  0  0  0
 39 34  1  0  0  0  0
 40 35  1  0  0  0  0
M  END
>  <minimizedAffinity>
-5.38763857

$$$$

 OpenBabel03272507023D

 41 43  0  0  1  0  0  0  0  0999 V2000
   36.8950   28.0580   32.2660 C   0  0  2  0  0  0  0  0  0  0  0  0
   36.0000   28.6950   33.2710 C   0  0  0  0  0  0  0  0  0  0  0  0
   35.0400   29.6890   32.6590 C   0  0  2  0  0  0  0  0  0  0  0  0
   35.8290   30.7660   31.9790 C   0  0  0  0  0  0  0  0  0  0  0  0
   36.7020   30.1900   30.9160 C   0  0  0  0  0  0  0  0  0  0  0  0
   36.8380   28.7130   30.9160 C   0  0  0  0  0  0  0  0  0  0  0  0
   37.9900   28.0780   32.5480 H   0  0  0  0  0  0  0  0  0  0  0  0
   36.6970   29.2830   33.9530 H   0  0  0  0  0  0  0  0  0  0  0  0
   35.3750   28.0590   33.8900 H   0  0  0  0  0  0  0  0  0  0  0  0
   34.4280   29.1700   31.9170 H   0  0  0  0  0  0  0  0  0  0  0  0
   36.5820   31.1370   32.6960 H   0  0  0  0  0  0  0  0  0  0  0  0
   35.2000   31.5650   31.5520 H   0  0  0  0  0  0  0  0  0  0  0  0
   37.7250   30.6140   30.8470 H   0  0  0  0  0  0  0  0  0  0  0  0
   36.2530   30.4490   29.9100 H   0  0  0  0  0  0  0  0  0  0  0  0
   35.9700   28.2460   30.3710 H   0  0  0  0  0  0  0  0  0  0  0  0
   37.7350   28.4170   30.3370 H   0  0  0  0  0  0  0  0  0  0  0  0
   34.2120   30.2880   33.6450 N   0  0  1  0  0  0  0  0  0  0  0  0
   32.8700   29.6890   33.5870 C   0  0  0  0  0  0  0  0  0  0  0  0
   32.1410   30.5340   34.6150 C   0  0  0  0  0  0  0  0  0  0  0  0
   33.2030   30.6650   35.6590 C   0  0  0  0  0  0  0  0  0  0  0  0
   34.5590   30.3820   34.9480 C   0  0  2  0  0  0  0  0  0  0  0  0
   32.8850   28.6350   33.9020 H   0  0  0  0  0  0  0  0  0  0  0  0
   32.4640   29.8940   32.5970 H   0  0  0  0  0  0  0  0  0  0  0  0
   31.7370   31.4510   34.2050 H   0  0  0  0  0  0  0  0  0  0  0  0
   31.3560   29.8500   35.0350 H   0  0  0  0  0  0  0  0  0  0  0  0
   33.1440   31.7050   36.0240 H   0  0  0  0  0  0  0  0  0  0  0  0
   33.0660   30.0200   36.5240 H   0  0  0  0  0  0  0  0  0  0  0  0
   34.8300   29.3480   35.3690 H   0  0  0  0  0  0  0  0  0  0  0  0
   35.4680   31.3220   35.6200 C   0  0  0  0  0  0  0  0  0  0  0  0
   35.1630   31.6490   36.9280 F   0  0  0  0  0  0  0  0  0  0  0  0
   36.6940   30.5800   35.9170 F   0  0  0  0  0  0  0  0  0  0  0  0
   36.0660   32.3040   34.8820 F   0  0  0  0  0  0  0  0  0  0  0  0
   36.5850   26.6230   32.0610 C   0  0  0  0  0  0  0  0  0  0  0  0
   35.5100   26.3700   31.2060 C   0  0  0  0  0  0  0  0  0  0  0  0
   35.1870   25.0240   30.9690 C   0  0  0  0  0  0  0  0  0  0  0  0
   35.9300   24.0360   31.5830 N   0  0  0  0  0  0  0  0  0  0  0  0
   36.9660   24.3390   32.4090 C   0  0  0  0  0  0  0  0  0  0  0  0
   37.2690   25.6070   32.6280 N   0  0  0  0  0  0  0  0  0  0  0  0
   34.7830   26.9040   30.6280 H   0  0  0  0  0  0  0  0  0  0  0  0
   34.4340   24.5640   30.3740 H   0  0  0  0  0  0  0  0  0  0  0  0
   37.5490   23.5790   32.8890 H   0  0  0  0  0  0  0  0  0  0  0  0
  1  7  1  1  0  0  0
  1  2  1  0  0  0  0
  2  9  1  0  0  0  0
  2  8  1  0  0  0  0
  3 10  1  6  0  0  0
  3  2  1  0  0  0  0
  3 17  1  0  0  0  0
  4  3  1  0  0  0  0
  4 11  1  0  0  0  0
  5  6  1  0  0  0  0
  5  4  1  0  0  0  0
  6  1  1  0  0  0  0
 12  4  1  0  0  0  0
 13  5  1  0  0  0  0
 14  5  1  0  0  0  0
 15  6  1  0  0  0  0
 16  6  1  0  0  0  0
 17 18  1  1  0  0  0
 17 21  1  0  0  0  0
 18 22  1  0  0  0  0
 18 19  1  0  0  0  0
 19 25  1  0  0  0  0
 19 20  1  0  0  0  0
 20 26  1  0  0  0  0
 20 27  1  0  0  0  0
 21 28  1  1  0  0  0
 21 29  1  0  0  0  0
 21 20  1  0  0  0  0
 23 18  1  0  0  0  0
 24 19  1  0  0  0  0
 29 31  1  0  0  0  0
 29 30  1  0  0  0  0
 32 29  1  0  0  0  0
 33  1  1  0  0  0  0
 33 38  1  0  0  0  0
 34 33  2  0  0  0  0
 35 34  1  0  0  0  0
 35 36  2  0  0  0  0
 36 37  1  0  0  0  0
 37 38  2  0  0  0  0
 37 41  1  0  0  0  0
 39 34  1  0  0  0  0
 40 35  1  0  0  0  0
M  END
>  <minimizedAffinity>
-5.38614798

$$$$

 OpenBabel03272507023D

 41 43  0  0  1  0  0  0  0  0999 V2000
   37.8350   26.3590   33.2430 C   0  0  2  0  0  0  0  0  0  0  0  0
   38.7350   25.4480   34.0030 C   0  0  0  0  0  0  0  0  0  0  0  0
   38.4440   25.4350   35.4860 C   0  0  2  0  0  0  0  0  0  0  0  0
   38.6140   26.8240   36.0230 C   0  0  0  0  0  0  0  0  0  0  0  0
   37.6890   27.7720   35.3370 C   0  0  0  0  0  0  0  0  0  0  0  0
   37.0120   27.2560   34.1220 C   0  0  0  0  0  0  0  0  0  0  0  0
   38.3780   27.0630   32.5430 H   0  0  0  0  0  0  0  0  0  0  0  0
   39.7770   25.8900   33.8730 H   0  0  0  0  0  0  0  0  0  0  0  0
   38.7730   24.4000   33.7240 H   0  0  0  0  0  0  0  0  0  0  0  0
   37.4090   25.1170   35.6340 H   0  0  0  0  0  0  0  0  0  0  0  0
   39.5940   27.1990   35.6840 H   0  0  0  0  0  0  0  0  0  0  0  0
   38.4720   26.8900   37.1150 H   0  0  0  0  0  0  0  0  0  0  0  0
   38.1160   28.7630   35.0800 H   0  0  0  0  0  0  0  0  0  0  0  0
   36.8540   28.0340   36.0550 H   0  0  0  0  0  0  0  0  0  0  0  0
   36.0960   26.6670   34.4120 H   0  0  0  0  0  0  0  0  0  0  0  0
   36.6320   28.1010   33.5150 H   0  0  0  0  0  0  0  0  0  0  0  0
   39.3280   24.5690   36.1820 N   0  0  1  0  0  0  0  0  0  0  0  0
   38.5480   23.6080   36.9770 C   0  0  0  0  0  0  0  0  0  0  0  0
   39.6600   22.8800   37.7070 C   0  0  0  0  0  0  0  0  0  0  0  0
   40.6780   22.7790   36.6180 C   0  0  0  0  0  0  0  0  0  0  0  0
   40.3240   23.8830   35.5780 C   0  0  2  0  0  0  0  0  0  0  0  0
   37.9940   22.9090   36.3320 H   0  0  0  0  0  0  0  0  0  0  0  0
   37.9590   24.1800   37.6930 H   0  0  0  0  0  0  0  0  0  0  0  0
   39.9640   23.3710   38.6220 H   0  0  0  0  0  0  0  0  0  0  0  0
   39.2570   21.8440   37.8710 H   0  0  0  0  0  0  0  0  0  0  0  0
   41.6550   22.9690   37.0950 H   0  0  0  0  0  0  0  0  0  0  0  0
   40.7430   21.8000   36.1500 H   0  0  0  0  0  0  0  0  0  0  0  0
   39.9120   23.2570   34.7060 H   0  0  0  0  0  0  0  0  0  0  0  0
   41.6510   24.3340   35.1340 C   0  0  0  0  0  0  0  0  0  0  0  0
   41.8810   24.3280   33.7710 F   0  0  0  0  0  0  0  0  0  0  0  0
   41.6770   25.7880   35.2990 F   0  0  0  0  0  0  0  0  0  0  0  0
   42.7350   24.0770   35.9250 F   0  0  0  0  0  0  0  0  0  0  0  0
   36.8870   25.6220   32.3740 C   0  0  0  0  0  0  0  0  0  0  0  0
   37.0850   24.2400   32.3270 C   0  0  0  0  0  0  0  0  0  0  0  0
   36.2020   23.4960   31.5280 C   0  0  0  0  0  0  0  0  0  0  0  0
   35.2020   24.1530   30.8400 N   0  0  0  0  0  0  0  0  0  0  0  0
   35.0550   25.5020   30.9210 C   0  0  0  0  0  0  0  0  0  0  0  0
   35.8870   26.1990   31.6740 N   0  0  0  0  0  0  0  0  0  0  0  0
   37.7470   23.4960   32.7230 H   0  0  0  0  0  0  0  0  0  0  0  0
   36.1300   22.4550   31.3200 H   0  0  0  0  0  0  0  0  0  0  0  0
   34.2820   26.0210   30.3900 H   0  0  0  0  0  0  0  0  0  0  0  0
  1  7  1  6  0  0  0
  1  2  1  0  0  0  0
  1  6  1  0  0  0  0
  2  3  1  0  0  0  0
  3 10  1  1  0  0  0
  3  4  1  0  0  0  0
  3 17  1  0  0  0  0
  4 12  1  0  0  0  0
  5  4  1  0  0  0  0
  5 14  1  0  0  0  0
  6 15  1  0  0  0  0
  6  5  1  0  0  0  0
  8  2  1  0  0  0  0
  9  2  1  0  0  0  0
 11  4  1  0  0  0  0
 13  5  1  0  0  0  0
 16  6  1  0  0  0  0
 17 18  1  6  0  0  0
 18 23  1  0  0  0  0
 18 19  1  0  0  0  0
 19 25  1  0  0  0  0
 19 24  1  0  0  0  0
 20 26  1  0  0  0  0
 20 19  1  0  0  0  0
 21 28  1  6  0  0  0
 21 17  1  0  0  0  0
 21 20  1  0  0  0  0
 22 18  1  0  0  0  0
 27 20  1  0  0  0  0
 29 31  1  0  0  0  0
 29 21  1  0  0  0  0
 29 32  1  0  0  0  0
 30 29  1  0  0  0  0
 33  1  1  0  0  0  0
 34 33  1  0  0  0  0
 34 39  1  0  0  0  0
 35 34  2  0  0  0  0
 36 37  2  0  0  0  0
 36 35  1  0  0  0  0
 37 38  1  0  0  0  0
 38 33  2  0  0  0  0
 40 35  1  0  0  0  0
 41 37  1  0  0  0  0
M  END
>  <minimizedAffinity>
-5.38231945

$$$$

 OpenBabel03272507023D

 41 43  0  0  1  0  0  0  0  0999 V2000
   38.6980   26.2810   35.4680 C   0  0  2  0  0  0  0  0  0  0  0  0
   37.6550   26.1500   34.4140 C   0  0  0  0  0  0  0  0  0  0  0  0
   38.2290   25.8420   33.0510 C   0  0  2  0  0  0  0  0  0  0  0  0
   39.1610   26.9490   32.6590 C   0  0  0  0  0  0  0  0  0  0  0  0
   40.2650   27.0860   33.6520 C   0  0  0  0  0  0  0  0  0  0  0  0
   40.0960   26.3380   34.9210 C   0  0  0  0  0  0  0  0  0  0  0  0
   38.5990   27.2140   36.0990 H   0  0  0  0  0  0  0  0  0  0  0  0
   37.1740   27.1800   34.3470 H   0  0  0  0  0  0  0  0  0  0  0  0
   36.8670   25.4150   34.5480 H   0  0  0  0  0  0  0  0  0  0  0  0
   38.7910   24.9070   33.1130 H   0  0  0  0  0  0  0  0  0  0  0  0
   38.6270   27.9050   32.8000 H   0  0  0  0  0  0  0  0  0  0  0  0
   39.5820   26.8270   31.6470 H   0  0  0  0  0  0  0  0  0  0  0  0
   40.5500   28.1250   33.9170 H   0  0  0  0  0  0  0  0  0  0  0  0
   41.2120   26.6750   33.1870 H   0  0  0  0  0  0  0  0  0  0  0  0
   40.4300   25.2700   34.7870 H   0  0  0  0  0  0  0  0  0  0  0  0
   40.7670   26.7550   35.6970 H   0  0  0  0  0  0  0  0  0  0  0  0
   37.2100   25.7380   32.0680 N   0  0  1  0  0  0  0  0  0  0  0  0
   36.7760   24.3370   31.9590 C   0  0  0  0  0  0  0  0  0  0  0  0
   35.7970   24.4350   30.8040 C   0  0  0  0  0  0  0  0  0  0  0  0
   35.1300   25.7340   31.1250 C   0  0  0  0  0  0  0  0  0  0  0  0
   36.1000   26.5090   32.0640 C   0  0  2  0  0  0  0  0  0  0  0  0
   36.2570   24.0050   32.8710 H   0  0  0  0  0  0  0  0  0  0  0  0
   37.6400   23.7500   31.6510 H   0  0  0  0  0  0  0  0  0  0  0  0
   36.2700   24.3520   29.8340 H   0  0  0  0  0  0  0  0  0  0  0  0
   35.0440   23.6270   31.0040 H   0  0  0  0  0  0  0  0  0  0  0  0
   34.9950   26.2540   30.1610 H   0  0  0  0  0  0  0  0  0  0  0  0
   34.1420   25.6360   31.5700 H   0  0  0  0  0  0  0  0  0  0  0  0
   35.5550   26.4360   33.0740 H   0  0  0  0  0  0  0  0  0  0  0  0
   35.9160   27.9010   31.6280 C   0  0  0  0  0  0  0  0  0  0  0  0
   34.7050   28.4900   31.9380 F   0  0  0  0  0  0  0  0  0  0  0  0
   36.7350   28.7310   32.5120 F   0  0  0  0  0  0  0  0  0  0  0  0
   36.4980   28.3100   30.4610 F   0  0  0  0  0  0  0  0  0  0  0  0
   38.6630   25.1630   36.4410 C   0  0  0  0  0  0  0  0  0  0  0  0
   39.4080   24.0400   36.0730 C   0  0  0  0  0  0  0  0  0  0  0  0
   39.4160   22.9590   36.9710 C   0  0  0  0  0  0  0  0  0  0  0  0
   38.7020   23.0560   38.1470 N   0  0  0  0  0  0  0  0  0  0  0  0
   37.9920   24.1750   38.4550 C   0  0  0  0  0  0  0  0  0  0  0  0
   37.9860   25.1900   37.6090 N   0  0  0  0  0  0  0  0  0  0  0  0
   40.0180   23.6940   35.2640 H   0  0  0  0  0  0  0  0  0  0  0  0
   39.8900   22.0070   36.9380 H   0  0  0  0  0  0  0  0  0  0  0  0
   37.4340   24.2590   39.3660 H   0  0  0  0  0  0  0  0  0  0  0  0
  1  7  1  1  0  0  0
  1 33  1  0  0  0  0
  2  9  1  0  0  0  0
  2  1  1  0  0  0  0
  3 10  1  1  0  0  0
  3  2  1  0  0  0  0
  4 11  1  0  0  0  0
  4  3  1  0  0  0  0
  4  5  1  0  0  0  0
  5 13  1  0  0  0  0
  5  6  1  0  0  0  0
  6  1  1  0  0  0  0
  6 16  1  0  0  0  0
  8  2  1  0  0  0  0
 12  4  1  0  0  0  0
 14  5  1  0  0  0  0
 15  6  1  0  0  0  0
 17 18  1  1  0  0  0
 17  3  1  0  0  0  0
 18 22  1  0  0  0  0
 19 25  1  0  0  0  0
 19 20  1  0  0  0  0
 19 18  1  0  0  0  0
 20 27  1  0  0  0  0
 20 21  1  0  0  0  0
 21 17  1  0  0  0  0
 21 28  1  1  0  0  0
 23 18  1  0  0  0  0
 24 19  1  0  0  0  0
 26 20  1  0  0  0  0
 29 30  1  0  0  0  0
 29 21  1  0  0  0  0
 29 31  1  0  0  0  0
 32 29  1  0  0  0  0
 33 38  1  0  0  0  0
 34 33  2  0  0  0  0
 34 35  1  0  0  0  0
 35 36  2  0  0  0  0
 36 37  1  0  0  0  0
 37 41  1  0  0  0  0
 38 37  2  0  0  0  0
 39 34  1  0  0  0  0
 40 35  1  0  0  0  0
M  END
>  <minimizedAffinity>
-5.29946709

$$$$

 OpenBabel03272507023D

 41 43  0  0  1  0  0  0  0  0999 V2000
   35.3810   30.1600   32.7520 C   0  0  2  0  0  0  0  0  0  0  0  0
   35.6960   28.8020   33.2760 C   0  0  0  0  0  0  0  0  0  0  0  0
   36.8890   28.1700   32.5970 C   0  0  2  0  0  0  0  0  0  0  0  0
   36.6040   28.0560   31.1300 C   0  0  0  0  0  0  0  0  0  0  0  0
   36.3410   29.3990   30.5380 C   0  0  0  0  0  0  0  0  0  0  0  0
   36.1380   30.5070   31.5020 C   0  0  0  0  0  0  0  0  0  0  0  0
   34.2940   30.3060   32.4790 H   0  0  0  0  0  0  0  0  0  0  0  0
   34.7880   28.1680   33.0110 H   0  0  0  0  0  0  0  0  0  0  0  0
   35.8940   28.6850   34.3370 H   0  0  0  0  0  0  0  0  0  0  0  0
   37.7560   28.8180   32.7450 H   0  0  0  0  0  0  0  0  0  0  0  0
   35.6180   27.5740   31.0140 H   0  0  0  0  0  0  0  0  0  0  0  0
   37.4080   27.5520   30.5670 H   0  0  0  0  0  0  0  0  0  0  0  0
   35.5130   29.4490   29.8000 H   0  0  0  0  0  0  0  0  0  0  0  0
   37.2440   29.6990   29.9240 H   0  0  0  0  0  0  0  0  0  0  0  0
   37.1340   30.9160   31.8350 H   0  0  0  0  0  0  0  0  0  0  0  0
   35.6310   31.3550   31.0010 H   0  0  0  0  0  0  0  0  0  0  0  0
   37.1520   26.8720   33.1090 N   0  0  1  0  0  0  0  0  0  0  0  0
   37.1880   25.9060   32.0010 C   0  0  0  0  0  0  0  0  0  0  0  0
   37.3610   24.6070   32.7670 C   0  0  0  0  0  0  0  0  0  0  0  0
   38.3190   25.0450   33.8280 C   0  0  0  0  0  0  0  0  0  0  0  0
   38.1930   26.5940   33.9260 C   0  0  2  0  0  0  0  0  0  0  0  0
   38.0550   26.0800   31.3450 H   0  0  0  0  0  0  0  0  0  0  0  0
   36.2080   25.9180   31.5260 H   0  0  0  0  0  0  0  0  0  0  0  0
   36.4240   24.1770   33.0960 H   0  0  0  0  0  0  0  0  0  0  0  0
   37.9350   23.9430   32.0670 H   0  0  0  0  0  0  0  0  0  0  0  0
   37.9900   24.5510   34.7580 H   0  0  0  0  0  0  0  0  0  0  0  0
   39.3490   24.7410   33.6590 H   0  0  0  0  0  0  0  0  0  0  0  0
   39.1810   26.9380   33.4510 H   0  0  0  0  0  0  0  0  0  0  0  0
   38.3560   26.8320   35.3670 C   0  0  0  0  0  0  0  0  0  0  0  0
   38.3540   25.7170   36.1820 F   0  0  0  0  0  0  0  0  0  0  0  0
   39.7590   27.1900   35.5780 F   0  0  0  0  0  0  0  0  0  0  0  0
   37.8320   27.9710   35.9110 F   0  0  0  0  0  0  0  0  0  0  0  0
   35.6690   31.2280   33.7390 C   0  0  0  0  0  0  0  0  0  0  0  0
   35.6170   30.8230   35.0750 C   0  0  0  0  0  0  0  0  0  0  0  0
   35.8970   31.7980   36.0470 C   0  0  0  0  0  0  0  0  0  0  0  0
   36.2010   33.0820   35.6450 N   0  0  0  0  0  0  0  0  0  0  0  0
   36.2360   33.4220   34.3290 C   0  0  0  0  0  0  0  0  0  0  0  0
   35.9740   32.5030   33.4160 N   0  0  0  0  0  0  0  0  0  0  0  0
   35.4090   29.9470   35.6560 H   0  0  0  0  0  0  0  0  0  0  0  0
   35.9270   31.7580   37.1100 H   0  0  0  0  0  0  0  0  0  0  0  0
   36.4710   34.4160   34.0060 H   0  0  0  0  0  0  0  0  0  0  0  0
  1  7  1  6  0  0  0
  1  2  1  0  0  0  0
  1 33  1  0  0  0  0
  2  9  1  0  0  0  0
  3 10  1  1  0  0  0
  3 17  1  0  0  0  0
  3  2  1  0  0  0  0
  4  3  1  0  0  0  0
  5  4  1  0  0  0  0
  5  6  1  0  0  0  0
  6 15  1  0  0  0  0
  6  1  1  0  0  0  0
  8  2  1  0  0  0  0
 11  4  1  0  0  0  0
 12  4  1  0  0  0  0
 13  5  1  0  0  0  0
 14  5  1  0  0  0  0
 16  6  1  0  0  0  0
 17 18  1  6  0  0  0
 17 21  1  0  0  0  0
 18 19  1  0  0  0  0
 19 24  1  0  0  0  0
 19 20  1  0  0  0  0
 20 21  1  0  0  0  0
 20 26  1  0  0  0  0
 21 28  1  6  0  0  0
 21 29  1  0  0  0  0
 22 18  1  0  0  0  0
 23 18  1  0  0  0  0
 25 19  1  0  0  0  0
 27 20  1  0  0  0  0
 29 31  1  0  0  0  0
 29 32  1  0  0  0  0
 29 30  1  0  0  0  0
 33 34  1  0  0  0  0
 34 39  1  0  0  0  0
 34 35  2  0  0  0  0
 35 40  1  0  0  0  0
 36 35  1  0  0  0  0
 37 36  2  0  0  0  0
 38 33  2  0  0  0  0
 38 37  1  0  0  0  0
 41 37  1  0  0  0  0
M  END
>  <minimizedAffinity>
-5.2394228

$$$$

 OpenBabel03272507023D

 41 43  0  0  1  0  0  0  0  0999 V2000
   36.9090   27.9140   32.1610 C   0  0  2  0  0  0  0  0  0  0  0  0
   36.3710   28.4810   33.4290 C   0  0  0  0  0  0  0  0  0  0  0  0
   35.2600   29.4800   33.2020 C   0  0  2  0  0  0  0  0  0  0  0  0
   35.7890   30.6080   32.3670 C   0  0  0  0  0  0  0  0  0  0  0  0
   36.2880   30.1040   31.0560 C   0  0  0  0  0  0  0  0  0  0  0  0
   36.4260   28.6320   30.9340 C   0  0  0  0  0  0  0  0  0  0  0  0
   38.0370   27.9450   32.0870 H   0  0  0  0  0  0  0  0  0  0  0  0
   37.2430   29.0510   33.8890 H   0  0  0  0  0  0  0  0  0  0  0  0
   35.9760   27.8010   34.1780 H   0  0  0  0  0  0  0  0  0  0  0  0
   34.4500   28.9840   32.6630 H   0  0  0  0  0  0  0  0  0  0  0  0
   36.7260   30.9600   32.8310 H   0  0  0  0  0  0  0  0  0  0  0  0
   35.0510   31.4110   32.2020 H   0  0  0  0  0  0  0  0  0  0  0  0
   37.2340   30.5550   30.6920 H   0  0  0  0  0  0  0  0  0  0  0  0
   35.5430   30.4010   30.2560 H   0  0  0  0  0  0  0  0  0  0  0  0
   35.4330   28.1720   30.6640 H   0  0  0  0  0  0  0  0  0  0  0  0
   37.0970   28.3860   30.0880 H   0  0  0  0  0  0  0  0  0  0  0  0
   34.7800   30.0110   34.4290 N   0  0  1  0  0  0  0  0  0  0  0  0
   35.6450   31.1220   34.8540 C   0  0  0  0  0  0  0  0  0  0  0  0
   35.0340   31.4530   36.2030 C   0  0  0  0  0  0  0  0  0  0  0  0
   33.5820   31.2960   35.8880 C   0  0  0  0  0  0  0  0  0  0  0  0
   33.4980   30.3970   34.6190 C   0  0  2  0  0  0  0  0  0  0  0  0
   35.5560   31.9840   34.1740 H   0  0  0  0  0  0  0  0  0  0  0  0
   36.6460   30.7190   34.9990 H   0  0  0  0  0  0  0  0  0  0  0  0
   35.4310   30.8510   37.0100 H   0  0  0  0  0  0  0  0  0  0  0  0
   35.2210   32.5520   36.3340 H   0  0  0  0  0  0  0  0  0  0  0  0
   33.1300   30.8030   36.7660 H   0  0  0  0  0  0  0  0  0  0  0  0
   33.0470   32.2320   35.7460 H   0  0  0  0  0  0  0  0  0  0  0  0
   33.1830   31.1570   33.8160 H   0  0  0  0  0  0  0  0  0  0  0  0
   32.2960   29.5930   34.8810 C   0  0  0  0  0  0  0  0  0  0  0  0
   31.9090   28.7180   33.8840 F   0  0  0  0  0  0  0  0  0  0  0  0
   32.6780   28.5730   35.8580 F   0  0  0  0  0  0  0  0  0  0  0  0
   31.2870   30.1380   35.6240 F   0  0  0  0  0  0  0  0  0  0  0  0
   36.5590   26.4840   31.9880 C   0  0  0  0  0  0  0  0  0  0  0  0
   35.4460   26.2450   31.1800 C   0  0  0  0  0  0  0  0  0  0  0  0
   35.0840   24.9030   30.9750 C   0  0  0  0  0  0  0  0  0  0  0  0
   35.8300   23.9060   31.5700 N   0  0  0  0  0  0  0  0  0  0  0  0
   36.9060   24.1960   32.3480 C   0  0  0  0  0  0  0  0  0  0  0  0
   37.2450   25.4590   32.5390 N   0  0  0  0  0  0  0  0  0  0  0  0
   34.7070   26.7870   30.6260 H   0  0  0  0  0  0  0  0  0  0  0  0
   34.2970   24.4520   30.4170 H   0  0  0  0  0  0  0  0  0  0  0  0
   37.4920   23.4300   32.8150 H   0  0  0  0  0  0  0  0  0  0  0  0
  1  7  1  1  0  0  0
  1  2  1  0  0  0  0
  2  8  1  0  0  0  0
  2  9  1  0  0  0  0
  3 10  1  6  0  0  0
  3  2  1  0  0  0  0
  3 17  1  0  0  0  0
  4 11  1  0  0  0  0
  4  3  1  0  0  0  0
  5  4  1  0  0  0  0
  6  5  1  0  0  0  0
  6  1  1  0  0  0  0
 12  4  1  0  0  0  0
 13  5  1  0  0  0  0
 14  5  1  0  0  0  0
 15  6  1  0  0  0  0
 16  6  1  0  0  0  0
 17 21  1  0  0  0  0
 17 18  1  6  0  0  0
 18 23  1  0  0  0  0
 18 19  1  0  0  0  0
 19 25  1  0  0  0  0
 19 24  1  0  0  0  0
 20 19  1  0  0  0  0
 20 26  1  0  0  0  0
 21 28  1  6  0  0  0
 21 29  1  0  0  0  0
 21 20  1  0  0  0  0
 22 18  1  0  0  0  0
 27 20  1  0  0  0  0
 29 32  1  0  0  0  0
 29 31  1  0  0  0  0
 30 29  1  0  0  0  0
 33  1  1  0  0  0  0
 33 38  1  0  0  0  0
 34 33  2  0  0  0  0
 35 34  1  0  0  0  0
 35 36  2  0  0  0  0
 36 37  1  0  0  0  0
 37 38  2  0  0  0  0
 37 41  1  0  0  0  0
 39 34  1  0  0  0  0
 40 35  1  0  0  0  0
M  END
>  <minimizedAffinity>
-5.16425371

$$$$
