
 OpenBabel03272509503D

 28 29  0  0  0  0  0  0  0  0999 V2000
   33.7650   28.5990   49.1380 C   0  0  0  0  0  0  0  0  0  0  0  0
   33.2320   28.7400   50.1230 H   0  0  0  0  0  0  0  0  0  0  0  0
   33.7880   29.5810   48.6550 H   0  0  0  0  0  0  0  0  0  0  0  0
   33.0020   27.5490   48.3770 C   0  0  0  0  0  0  0  0  0  0  0  0
   33.0590   26.5790   48.9360 H   0  0  0  0  0  0  0  0  0  0  0  0
   33.5240   27.3280   47.4030 H   0  0  0  0  0  0  0  0  0  0  0  0
   31.5770   27.9070   48.1870 C   0  0  0  0  0  0  0  0  0  0  0  0
   30.7190   27.6500   49.2300 C   0  0  0  0  0  0  0  0  0  0  0  0
   29.3780   27.9350   49.1780 C   0  0  0  0  0  0  0  0  0  0  0  0
   28.8700   28.4880   48.0690 N   0  0  0  0  0  0  0  0  0  0  0  0
   29.7130   28.7400   47.0460 C   0  0  0  0  0  0  0  0  0  0  0  0
   31.0310   28.4660   47.0840 N   0  0  0  0  0  0  0  0  0  0  0  0
   31.0720   27.2000   50.1630 H   0  0  0  0  0  0  0  0  0  0  0  0
   28.6830   27.7330   50.0080 H   0  0  0  0  0  0  0  0  0  0  0  0
   29.3430   29.1840   46.1350 H   0  0  0  0  0  0  0  0  0  0  0  0
   35.0580   28.1170   49.4620 O   0  0  0  0  0  0  0  0  0  0  0  0
   37.3030   30.2470   51.3410 C   0  0  0  0  0  0  0  0  0  0  0  0
   37.9620   30.9080   50.2950 C   0  0  0  0  0  0  0  0  0  0  0  0
   37.5820   30.5710   48.9970 C   0  0  0  0  0  0  0  0  0  0  0  0
   36.6070   29.6320   48.8300 N   0  0  0  0  0  0  0  0  0  0  0  0
   36.0050   29.0240   49.8590 C   0  0  0  0  0  0  0  0  0  0  0  0
   36.3610   29.3400   51.1150 N   0  0  0  0  0  0  0  0  0  0  0  0
   37.6220   30.5310   52.3390 H   0  0  0  0  0  0  0  0  0  0  0  0
   38.7320   31.6490   50.4600 H   0  0  0  0  0  0  0  0  0  0  0  0
   38.2280   31.2250   47.8050 C   0  0  0  0  0  0  0  0  0  0  0  0
   38.6930   30.1680   47.0130 F   0  0  0  0  0  0  0  0  0  0  0  0
   37.2890   31.9840   47.1150 F   0  0  0  0  0  0  0  0  0  0  0  0
   39.2410   32.0150   48.2630 F   0  0  0  0  0  0  0  0  0  0  0  0
  1 16  1  0  0  0  0
  1  2  1  0  0  0  0
  3  1  1  0  0  0  0
  4  5  1  0  0  0  0
  4  1  1  0  0  0  0
  6  4  1  0  0  0  0
  7  4  1  0  0  0  0
  7  8  1  0  0  0  0
  8 13  1  0  0  0  0
  9  8  2  0  0  0  0
  9 14  1  0  0  0  0
 10  9  1  0  0  0  0
 11 12  1  0  0  0  0
 11 10  2  0  0  0  0
 12  7  2  0  0  0  0
 15 11  1  0  0  0  0
 16 21  1  0  0  0  0
 17 23  1  0  0  0  0
 18 24  1  0  0  0  0
 18 17  2  0  0  0  0
 19 18  1  0  0  0  0
 20 19  2  0  0  0  0
 20 21  1  0  0  0  0
 21 22  2  0  0  0  0
 22 17  1  0  0  0  0
 25 28  1  0  0  0  0
 25 19  1  0  0  0  0
 26 25  1  0  0  0  0
 27 25  1  0  0  0  0
M  END
>  <minimizedAffinity>
-5.20873499

>  <minimizedRMSD>
0.463629901

$$$$
