
 OpenBabel03272510163D

 23 24  0  0  0  0  0  0  0  0999 V2000
   37.2090   29.5620   51.2220 Br  0  0  0  0  0  0  0  0  0  0  0  0
   36.0130   29.3430   49.7430 C   0  0  0  0  0  0  0  0  0  0  0  0
   36.1160   30.1570   48.6370 C   0  0  0  0  0  0  0  0  0  0  0  0
   35.2180   29.9520   47.5950 C   0  0  0  0  0  0  0  0  0  0  0  0
   34.2420   28.9660   47.6430 C   0  0  0  0  0  0  0  0  0  0  0  0
   34.1750   28.1780   48.7620 C   0  0  0  0  0  0  0  0  0  0  0  0
   35.0630   28.3740   49.8050 C   0  0  0  0  0  0  0  0  0  0  0  0
   35.2860   30.5840   46.7180 H   0  0  0  0  0  0  0  0  0  0  0  0
   33.4090   27.4240   48.7680 H   0  0  0  0  0  0  0  0  0  0  0  0
   34.9360   27.7050   50.6490 H   0  0  0  0  0  0  0  0  0  0  0  0
   37.9840   33.1840   49.4110 C   0  0  0  0  0  0  0  0  0  0  0  0
   39.0250   33.2000   48.4470 C   0  0  0  0  0  0  0  0  0  0  0  0
   39.0690   32.1550   47.5310 C   0  0  0  0  0  0  0  0  0  0  0  0
   38.1180   31.1770   47.6070 N   0  0  0  0  0  0  0  0  0  0  0  0
   37.1310   31.2030   48.5570 C   0  0  0  0  0  0  0  0  0  0  0  0
   37.0730   32.2030   49.4480 N   0  0  0  0  0  0  0  0  0  0  0  0
   37.8860   33.9650   50.1560 H   0  0  0  0  0  0  0  0  0  0  0  0
   39.7270   33.9970   48.4530 H   0  0  0  0  0  0  0  0  0  0  0  0
   39.8420   32.1200   46.7750 H   0  0  0  0  0  0  0  0  0  0  0  0
   33.3320   28.8310   46.4720 C   0  0  0  0  0  0  0  0  0  0  0  0
   32.0430   29.0580   46.9120 F   0  0  0  0  0  0  0  0  0  0  0  0
   33.7180   29.7030   45.4710 F   0  0  0  0  0  0  0  0  0  0  0  0
   33.4000   27.5670   45.9130 F   0  0  0  0  0  0  0  0  0  0  0  0
  2  7  1  0  0  0  0
  2  1  1  0  0  0  0
  3  2  2  0  0  0  0
  4  5  2  0  0  0  0
  4  3  1  0  0  0  0
  5  6  1  0  0  0  0
  6  9  1  0  0  0  0
  6  7  2  0  0  0  0
  7 10  1  0  0  0  0
  8  4  1  0  0  0  0
 11 16  1  0  0  0  0
 11 17  1  0  0  0  0
 12 18  1  0  0  0  0
 12 11  2  0  0  0  0
 13 14  2  0  0  0  0
 13 12  1  0  0  0  0
 14 15  1  0  0  0  0
 15  3  1  0  0  0  0
 15 16  2  0  0  0  0
 19 13  1  0  0  0  0
 20 21  1  0  0  0  0
 20  5  1  0  0  0  0
 22 20  1  0  0  0  0
 23 20  1  0  0  0  0
M  END
>  <minimizedAffinity>
-5.7070756

>  <minimizedRMSD>
0.324903399

$$$$
