
 OpenBabel03272501483D

 15 15  0  0  0  0  0  0  0  0999 V2000
   37.4390   30.2740   51.3090 C   0  0  0  0  0  0  0  0  0  0  0  0
   38.1100   30.9030   50.2650 C   0  0  0  0  0  0  0  0  0  0  0  0
   37.6850   30.6260   48.9510 C   0  0  0  0  0  0  0  0  0  0  0  0
   36.6330   29.7530   48.7840 N   0  0  0  0  0  0  0  0  0  0  0  0
   36.0260   29.1760   49.8320 C   0  0  0  0  0  0  0  0  0  0  0  0
   36.4140   29.4230   51.1160 N   0  0  0  0  0  0  0  0  0  0  0  0
   34.9470   28.2900   49.4990 N   0  0  0  0  0  0  0  0  0  0  0  0
   37.8080   30.5230   52.2940 H   0  0  0  0  0  0  0  0  0  0  0  0
   38.9250   31.5820   50.3660 H   0  0  0  0  0  0  0  0  0  0  0  0
   34.0150   28.7480   49.3870 H   0  0  0  0  0  0  0  0  0  0  0  0
   35.0910   27.2530   49.3760 H   0  0  0  0  0  0  0  0  0  0  0  0
   38.3130   31.2290   47.7510 C   0  0  0  0  0  0  0  0  0  0  0  0
   38.8180   30.3010   46.8960 F   0  0  0  0  0  0  0  0  0  0  0  0
   37.3650   31.9800   47.0790 F   0  0  0  0  0  0  0  0  0  0  0  0
   39.2690   32.1310   48.2230 F   0  0  0  0  0  0  0  0  0  0  0  0
  1  8  1  0  0  0  0
  2  9  1  0  0  0  0
  2  1  2  0  0  0  0
  3  2  1  0  0  0  0
  4  3  2  0  0  0  0
  4  5  1  0  0  0  0
  5  6  2  0  0  0  0
  6  1  1  0  0  0  0
  7  5  1  0  0  0  0
 10  7  1  0  0  0  0
 11  7  1  0  0  0  0
 12 15  1  0  0  0  0
 12  3  1  0  0  0  0
 13 12  1  0  0  0  0
 14 12  1  0  0  0  0
M  END
>  <minimizedAffinity>
-4.34854698

>  <minimizedRMSD>
0.582012951

$$$$
