
 OpenBabel03272510333D

 23 24  0  0  0  0  0  0  0  0999 V2000
   36.2600   30.4040   48.7480 C   0  0  0  0  0  0  0  0  0  0  0  0
   35.2180   30.3640   47.8380 C   0  0  0  0  0  0  0  0  0  0  0  0
   34.2140   29.4210   47.9460 C   0  0  0  0  0  0  0  0  0  0  0  0
   34.2840   28.5150   48.9970 C   0  0  0  0  0  0  0  0  0  0  0  0
   35.3140   28.5410   49.9120 C   0  0  0  0  0  0  0  0  0  0  0  0
   36.3220   29.5030   49.7870 C   0  0  0  0  0  0  0  0  0  0  0  0
   35.1710   31.0730   47.0220 H   0  0  0  0  0  0  0  0  0  0  0  0
   33.3910   29.3520   47.2670 H   0  0  0  0  0  0  0  0  0  0  0  0
   33.5310   27.7500   49.1400 H   0  0  0  0  0  0  0  0  0  0  0  0
   35.3400   27.8230   50.7180 H   0  0  0  0  0  0  0  0  0  0  0  0
   38.1890   33.4400   49.2750 C   0  0  0  0  0  0  0  0  0  0  0  0
   39.1320   33.4510   48.2500 C   0  0  0  0  0  0  0  0  0  0  0  0
   39.0940   32.3710   47.3540 C   0  0  0  0  0  0  0  0  0  0  0  0
   38.1640   31.3960   47.5270 N   0  0  0  0  0  0  0  0  0  0  0  0
   37.2640   31.4290   48.5440 C   0  0  0  0  0  0  0  0  0  0  0  0
   37.2990   32.4590   49.4000 N   0  0  0  0  0  0  0  0  0  0  0  0
   38.1740   34.2550   49.9990 H   0  0  0  0  0  0  0  0  0  0  0  0
   39.8570   34.2410   48.1390 H   0  0  0  0  0  0  0  0  0  0  0  0
   39.8050   32.3170   46.5260 H   0  0  0  0  0  0  0  0  0  0  0  0
   37.4100   29.5170   50.7760 C   0  0  0  0  0  0  0  0  0  0  0  0
   37.4670   28.3580   51.5070 F   0  0  0  0  0  0  0  0  0  0  0  0
   38.5880   29.8470   50.1430 F   0  0  0  0  0  0  0  0  0  0  0  0
   37.1940   30.5270   51.7300 F   0  0  0  0  0  0  0  0  0  0  0  0
  1  6  1  0  0  0  0
  2  3  1  0  0  0  0
  2  1  2  0  0  0  0
  3  4  2  0  0  0  0
  4  9  1  0  0  0  0
  4  5  1  0  0  0  0
  5 10  1  0  0  0  0
  6  5  2  0  0  0  0
  6 20  1  0  0  0  0
  7  2  1  0  0  0  0
  8  3  1  0  0  0  0
 11 16  1  0  0  0  0
 11 17  1  0  0  0  0
 12 11  2  0  0  0  0
 13 14  2  0  0  0  0
 13 12  1  0  0  0  0
 14 15  1  0  0  0  0
 15  1  1  0  0  0  0
 15 16  2  0  0  0  0
 18 12  1  0  0  0  0
 19 13  1  0  0  0  0
 20 21  1  0  0  0  0
 20 23  1  0  0  0  0
 22 20  1  0  0  0  0
M  END
>  <minimizedAffinity>
-5.98712254

>  <minimizedRMSD>
0.514805794

$$$$
