
 OpenBabel03272505473D

 29 31  0  0  0  0  0  0  0  0999 V2000
   37.2620   30.8370   46.1800 C   0  0  0  0  0  0  0  0  0  0  0  0
   36.6650   29.6530   45.5300 C   0  0  0  0  0  0  0  0  0  0  0  0
   36.0330   30.9990   45.3370 C   0  0  0  0  0  0  0  0  0  0  0  0
   37.1760   29.2160   44.6410 H   0  0  0  0  0  0  0  0  0  0  0  0
   36.0640   28.9870   46.1900 H   0  0  0  0  0  0  0  0  0  0  0  0
   35.1020   31.2620   45.8750 H   0  0  0  0  0  0  0  0  0  0  0  0
   36.1670   31.5690   44.4100 H   0  0  0  0  0  0  0  0  0  0  0  0
   39.5900   33.2350   44.5950 C   0  0  0  0  0  0  0  0  0  0  0  0
   40.8390   32.6030   44.7600 C   0  0  0  0  0  0  0  0  0  0  0  0
   40.8750   31.3490   45.4160 C   0  0  0  0  0  0  0  0  0  0  0  0
   39.6990   30.8170   45.8510 N   0  0  0  0  0  0  0  0  0  0  0  0
   38.5050   31.4580   45.6730 C   0  0  0  0  0  0  0  0  0  0  0  0
   38.4540   32.6480   45.0530 N   0  0  0  0  0  0  0  0  0  0  0  0
   39.6380   34.1790   44.0920 H   0  0  0  0  0  0  0  0  0  0  0  0
   41.7640   33.0430   44.4080 H   0  0  0  0  0  0  0  0  0  0  0  0
   41.7920   30.8110   45.5760 H   0  0  0  0  0  0  0  0  0  0  0  0
   37.1180   30.9930   47.6650 C   0  0  0  0  0  0  0  0  0  0  0  0
   37.8230   31.9300   48.3460 C   0  0  0  0  0  0  0  0  0  0  0  0
   37.6740   32.0790   49.7160 C   0  0  0  0  0  0  0  0  0  0  0  0
   36.7800   31.2380   50.3730 C   0  0  0  0  0  0  0  0  0  0  0  0
   36.0570   30.2730   49.6690 C   0  0  0  0  0  0  0  0  0  0  0  0
   36.2600   30.1950   48.3420 N   0  0  0  0  0  0  0  0  0  0  0  0
   38.5570   32.6320   48.0050 H   0  0  0  0  0  0  0  0  0  0  0  0
   38.1740   32.7830   50.3630 H   0  0  0  0  0  0  0  0  0  0  0  0
   36.5720   31.2500   51.4320 H   0  0  0  0  0  0  0  0  0  0  0  0
   35.0950   29.3560   50.3420 C   0  0  0  0  0  0  0  0  0  0  0  0
   35.0390   28.1100   49.7470 F   0  0  0  0  0  0  0  0  0  0  0  0
   33.8180   29.8770   50.4050 F   0  0  0  0  0  0  0  0  0  0  0  0
   35.4820   29.1010   51.6570 F   0  0  0  0  0  0  0  0  0  0  0  0
  1 17  1  0  0  0  0
  2  1  1  0  0  0  0
  2  5  1  0  0  0  0
  3  2  1  0  0  0  0
  3  6  1  0  0  0  0
  3  1  1  0  0  0  0
  4  2  1  0  0  0  0
  7  3  1  0  0  0  0
  8  9  2  0  0  0  0
  8 13  1  0  0  0  0
  9 10  1  0  0  0  0
 10 16  1  0  0  0  0
 10 11  2  0  0  0  0
 12 11  1  0  0  0  0
 12  1  1  0  0  0  0
 13 12  2  0  0  0  0
 14  8  1  0  0  0  0
 15  9  1  0  0  0  0
 17 22  2  0  0  0  0
 17 18  1  0  0  0  0
 18 19  2  0  0  0  0
 19 24  1  0  0  0  0
 19 20  1  0  0  0  0
 20 25  1  0  0  0  0
 21 26  1  0  0  0  0
 21 20  2  0  0  0  0
 22 21  1  0  0  0  0
 23 18  1  0  0  0  0
 26 28  1  0  0  0  0
 26 29  1  0  0  0  0
 27 26  1  0  0  0  0
M  END
>  <minimizedAffinity>
-5.48752403

>  <minimizedRMSD>
2.43625045

$$$$
