
 OpenBabel03272506173D

 29 30  0  0  0  0  0  0  0  0999 V2000
   35.5250   30.3120   49.8470 C   0  0  0  0  0  0  0  0  0  0  0  0
   36.4620   31.2420   49.1020 C   0  0  0  0  0  0  0  0  0  0  0  0
   37.9030   30.8630   49.2590 C   0  0  0  0  0  0  0  0  0  0  0  0
   38.3350   30.7100   50.6850 C   0  0  0  0  0  0  0  0  0  0  0  0
   37.3040   30.0610   51.5610 C   0  0  0  0  0  0  0  0  0  0  0  0
   36.2330   29.3580   50.7530 C   0  0  0  0  0  0  0  0  0  0  0  0
   34.7880   30.8860   50.4300 H   0  0  0  0  0  0  0  0  0  0  0  0
   36.2440   31.3110   48.0220 H   0  0  0  0  0  0  0  0  0  0  0  0
   36.3170   32.2520   49.5260 H   0  0  0  0  0  0  0  0  0  0  0  0
   38.1230   29.9770   48.6350 H   0  0  0  0  0  0  0  0  0  0  0  0
   38.5060   31.6920   48.8300 H   0  0  0  0  0  0  0  0  0  0  0  0
   39.2230   30.0110   50.6830 H   0  0  0  0  0  0  0  0  0  0  0  0
   38.7390   31.6660   51.1220 H   0  0  0  0  0  0  0  0  0  0  0  0
   37.7070   29.4380   52.3560 H   0  0  0  0  0  0  0  0  0  0  0  0
   36.7680   30.9190   52.0640 H   0  0  0  0  0  0  0  0  0  0  0  0
   35.5000   28.9310   51.4600 H   0  0  0  0  0  0  0  0  0  0  0  0
   36.6350   28.5140   50.1720 H   0  0  0  0  0  0  0  0  0  0  0  0
   34.7360   29.5000   48.8700 C   0  0  0  0  0  0  0  0  0  0  0  0
   34.1870   30.2160   47.7890 C   0  0  0  0  0  0  0  0  0  0  0  0
   33.4300   29.4720   46.8640 C   0  0  0  0  0  0  0  0  0  0  0  0
   33.2690   28.1200   47.0550 N   0  0  0  0  0  0  0  0  0  0  0  0
   33.8280   27.4810   48.1260 C   0  0  0  0  0  0  0  0  0  0  0  0
   34.5460   28.1670   49.0100 N   0  0  0  0  0  0  0  0  0  0  0  0
   34.2930   31.2750   47.6100 H   0  0  0  0  0  0  0  0  0  0  0  0
   33.6450   26.4220   48.1880 H   0  0  0  0  0  0  0  0  0  0  0  0
   32.7870   30.0800   45.6730 C   0  0  0  0  0  0  0  0  0  0  0  0
   33.7670   30.4650   44.7690 F   0  0  0  0  0  0  0  0  0  0  0  0
   31.8480   29.2380   45.1360 F   0  0  0  0  0  0  0  0  0  0  0  0
   32.1450   31.2560   46.0660 F   0  0  0  0  0  0  0  0  0  0  0  0
  1  7  1  0  0  0  0
  1  6  1  0  0  0  0
  2  3  1  0  0  0  0
  2  9  1  0  0  0  0
  2  1  1  0  0  0  0
  3  4  1  0  0  0  0
  4 13  1  0  0  0  0
  4  5  1  0  0  0  0
  5 15  1  0  0  0  0
  5 14  1  0  0  0  0
  6 16  1  0  0  0  0
  6  5  1  0  0  0  0
  8  2  1  0  0  0  0
 10  3  1  0  0  0  0
 11  3  1  0  0  0  0
 12  4  1  0  0  0  0
 17  6  1  0  0  0  0
 18 23  1  0  0  0  0
 18  1  1  0  0  0  0
 19 18  2  0  0  0  0
 20 21  2  0  0  0  0
 20 19  1  0  0  0  0
 21 22  1  0  0  0  0
 22 25  1  0  0  0  0
 22 23  2  0  0  0  0
 24 19  1  0  0  0  0
 26 29  1  0  0  0  0
 26 20  1  0  0  0  0
 27 26  1  0  0  0  0
 28 26  1  0  0  0  0
M  END
>  <minimizedAffinity>
-5.09152699

>  <minimizedRMSD>
0.473564774

$$$$
