
 OpenBabel03272508533D

 33 35  0  0  1  0  0  0  0  0999 V2000
   38.4010   31.8510   44.5290 C   0  0  0  0  0  0  0  0  0  0  0  0
   37.2910   32.4500   44.4180 O   0  0  0  0  0  0  0  0  0  0  0  0
   38.9350   31.5470   45.8260 N   0  0  0  0  0  0  0  0  0  0  0  0
   39.9070   31.2060   45.9900 H   0  0  0  0  0  0  0  0  0  0  0  0
   39.1650   31.4580   43.3370 C   0  0  0  0  0  0  0  0  0  0  0  0
   40.1660   30.5370   43.4890 C   0  0  0  0  0  0  0  0  0  0  0  0
   40.8860   30.1590   42.3650 C   0  0  0  0  0  0  0  0  0  0  0  0
   40.5570   30.7300   41.1670 C   0  0  0  0  0  0  0  0  0  0  0  0
   39.5470   31.6600   41.0080 C   0  0  0  0  0  0  0  0  0  0  0  0
   38.8980   31.9750   42.1320 N   0  0  0  0  0  0  0  0  0  0  0  0
   40.4630   30.0600   44.4140 H   0  0  0  0  0  0  0  0  0  0  0  0
   41.7030   29.4310   42.3870 H   0  0  0  0  0  0  0  0  0  0  0  0
   41.1210   30.4350   40.2810 H   0  0  0  0  0  0  0  0  0  0  0  0
   39.1680   32.2900   39.7400 C   0  0  0  0  0  0  0  0  0  0  0  0
   40.1460   32.2080   38.7800 F   0  0  0  0  0  0  0  0  0  0  0  0
   37.9530   31.8060   39.2710 F   0  0  0  0  0  0  0  0  0  0  0  0
   38.9600   33.6350   40.0080 F   0  0  0  0  0  0  0  0  0  0  0  0
   38.4330   31.1170   48.2210 C   0  0  2  0  0  0  0  0  0  0  0  0
   38.6930   32.5600   48.1100 C   0  0  0  0  0  0  0  0  0  0  0  0
   38.0540   31.7280   46.9690 C   0  0  1  0  0  0  0  0  0  0  0  0
   39.3540   30.5070   48.3140 H   0  0  0  0  0  0  0  0  0  0  0  0
   39.7280   32.9190   47.9480 H   0  0  0  0  0  0  0  0  0  0  0  0
   38.0610   33.3180   48.6120 H   0  0  0  0  0  0  0  0  0  0  0  0
   37.0070   32.0610   46.7660 H   0  0  0  0  0  0  0  0  0  0  0  0
   35.0890   30.2160   49.5390 C   0  0  0  0  0  0  0  0  0  0  0  0
   35.4180   29.5450   50.7610 C   0  0  0  0  0  0  0  0  0  0  0  0
   36.8190   29.4300   51.1020 C   0  0  0  0  0  0  0  0  0  0  0  0
   37.7510   29.9540   50.2630 N   0  0  0  0  0  0  0  0  0  0  0  0
   37.3510   30.5800   49.1130 C   0  0  0  0  0  0  0  0  0  0  0  0
   36.0360   30.7300   48.7200 N   0  0  0  0  0  0  0  0  0  0  0  0
   34.0380   30.2710   49.3410 H   0  0  0  0  0  0  0  0  0  0  0  0
   34.6560   29.1490   51.3890 H   0  0  0  0  0  0  0  0  0  0  0  0
   37.0470   28.9280   52.0140 H   0  0  0  0  0  0  0  0  0  0  0  0
  1  3  1  0  0  0  0
  2  1  2  0  0  0  0
  3  4  1  0  0  0  0
  3 20  1  0  0  0  0
  5  6  1  0  0  0  0
  5  1  1  0  0  0  0
  6 11  1  0  0  0  0
  7 12  1  0  0  0  0
  7  6  2  0  0  0  0
  8  7  1  0  0  0  0
  9  8  2  0  0  0  0
  9 10  1  0  0  0  0
 10  5  2  0  0  0  0
 13  8  1  0  0  0  0
 14 17  1  0  0  0  0
 14  9  1  0  0  0  0
 15 14  1  0  0  0  0
 16 14  1  0  0  0  0
 18 21  1  6  0  0  0
 18 29  1  0  0  0  0
 19 18  1  0  0  0  0
 19 23  1  0  0  0  0
 20 24  1  6  0  0  0
 20 19  1  0  0  0  0
 20 18  1  0  0  0  0
 22 19  1  0  0  0  0
 25 26  1  0  0  0  0
 26 27  2  0  0  0  0
 26 32  1  0  0  0  0
 27 33  1  0  0  0  0
 28 27  1  0  0  0  0
 29 28  2  0  0  0  0
 30 29  1  0  0  0  0
 30 25  2  0  0  0  0
 31 25  1  0  0  0  0
M  END
>  <minimizedAffinity>
-5.13284206

>  <minimizedRMSD>
0.0917745754

$$$$
