
 OpenBabel03262520263D

 37 39  0  0  0  0  0  0  0  0999 V2000
   37.1760   25.3490   32.5750 C   0  0  0  0  0  0  0  0  0  0  0  0
   36.6940   24.3110   31.7690 C   0  0  0  0  0  0  0  0  0  0  0  0
   36.8800   22.9860   31.9830 C   0  0  0  0  0  0  0  0  0  0  0  0
   37.5870   22.5600   33.0530 C   0  0  0  0  0  0  0  0  0  0  0  0
   38.0570   23.5590   33.8370 C   0  0  0  0  0  0  0  0  0  0  0  0
   37.8480   24.8340   33.5860 N   0  0  0  0  0  0  0  0  0  0  0  0
   36.0980   24.5700   30.8610 H   0  0  0  0  0  0  0  0  0  0  0  0
   36.4490   22.2430   31.2730 H   0  0  0  0  0  0  0  0  0  0  0  0
   37.7800   21.5400   33.2950 H   0  0  0  0  0  0  0  0  0  0  0  0
   36.6890   26.8630   30.8210 C   0  0  0  0  0  0  0  0  0  0  0  0
   36.8880   26.7410   32.2380 C   0  0  0  0  0  0  0  0  0  0  0  0
   36.7650   27.8780   32.9770 C   0  0  0  0  0  0  0  0  0  0  0  0
   36.4620   29.0420   32.3150 N   0  0  0  0  0  0  0  0  0  0  0  0
   36.2780   29.1410   30.9960 C   0  0  0  0  0  0  0  0  0  0  0  0
   36.3980   28.0240   30.2630 N   0  0  0  0  0  0  0  0  0  0  0  0
   35.9660   30.4130   30.5010 N   0  0  0  0  0  0  0  0  0  0  0  0
   36.7540   26.0500   30.1130 H   0  0  0  0  0  0  0  0  0  0  0  0
   36.4150   31.3170   30.7490 H   0  0  0  0  0  0  0  0  0  0  0  0
   35.1820   30.4170   29.8010 H   0  0  0  0  0  0  0  0  0  0  0  0
   36.9600   27.8140   34.4160 C   0  0  0  0  0  0  0  0  0  0  0  0
   36.6120   28.9670   34.9660 F   0  0  0  0  0  0  0  0  0  0  0  0
   36.2720   26.7920   35.0500 F   0  0  0  0  0  0  0  0  0  0  0  0
   38.3320   27.5880   34.7370 F   0  0  0  0  0  0  0  0  0  0  0  0
   37.2110   24.2640   36.3790 F   0  0  0  0  0  0  0  0  0  0  0  0
   38.4100   23.6040   36.3100 C   0  0  0  0  0  0  0  0  0  0  0  0
   38.8460   23.2430   35.0470 C   0  0  0  0  0  0  0  0  0  0  0  0
   40.0460   22.5860   35.0300 C   0  0  0  0  0  0  0  0  0  0  0  0
   40.7590   22.3080   36.1730 C   0  0  0  0  0  0  0  0  0  0  0  0
   40.2690   22.6960   37.4010 C   0  0  0  0  0  0  0  0  0  0  0  0
   39.0800   23.3530   37.4770 C   0  0  0  0  0  0  0  0  0  0  0  0
   40.4510   22.2710   34.0640 H   0  0  0  0  0  0  0  0  0  0  0  0
   41.7070   21.7830   36.0870 H   0  0  0  0  0  0  0  0  0  0  0  0
   40.7940   22.4990   38.3220 H   0  0  0  0  0  0  0  0  0  0  0  0
   38.4680   23.8130   38.7730 C   0  0  0  0  0  0  0  0  0  0  0  0
   37.4690   22.8830   39.0890 F   0  0  0  0  0  0  0  0  0  0  0  0
   39.3790   23.7670   39.7940 F   0  0  0  0  0  0  0  0  0  0  0  0
   37.9830   25.0880   38.6720 F   0  0  0  0  0  0  0  0  0  0  0  0
  1  6  1  0  0  0  0
  2  3  1  0  0  0  0
  2  1  2  0  0  0  0
  3  4  2  0  0  0  0
  4  9  1  0  0  0  0
  4  5  1  0  0  0  0
  5 26  1  0  0  0  0
  6  5  2  0  0  0  0
  7  2  1  0  0  0  0
  8  3  1  0  0  0  0
 10 11  1  0  0  0  0
 11  1  1  0  0  0  0
 11 12  2  0  0  0  0
 12 20  1  0  0  0  0
 13 12  1  0  0  0  0
 14 13  2  0  0  0  0
 15 10  2  0  0  0  0
 15 14  1  0  0  0  0
 16 18  1  0  0  0  0
 16 14  1  0  0  0  0
 17 10  1  0  0  0  0
 19 16  1  0  0  0  0
 20 23  1  0  0  0  0
 20 21  1  0  0  0  0
 20 22  1  0  0  0  0
 25 24  1  0  0  0  0
 25 30  1  0  0  0  0
 26 25  2  0  0  0  0
 27 26  1  0  0  0  0
 27 28  2  0  0  0  0
 28 29  1  0  0  0  0
 29 30  2  0  0  0  0
 29 33  1  0  0  0  0
 30 34  1  0  0  0  0
 31 27  1  0  0  0  0
 32 28  1  0  0  0  0
 34 35  1  0  0  0  0
 34 36  1  0  0  0  0
 37 34  1  0  0  0  0
M  END
>  <minimizedAffinity>
-7.03645229

$$$$

 OpenBabel03262520263D

 37 39  0  0  0  0  0  0  0  0999 V2000
   38.0590   22.2680   31.9340 C   0  0  0  0  0  0  0  0  0  0  0  0
   38.2270   23.5420   31.3780 C   0  0  0  0  0  0  0  0  0  0  0  0
   38.8100   24.6040   31.9860 C   0  0  0  0  0  0  0  0  0  0  0  0
   39.2940   24.4910   33.2420 C   0  0  0  0  0  0  0  0  0  0  0  0
   39.1350   23.2610   33.7860 C   0  0  0  0  0  0  0  0  0  0  0  0
   38.5610   22.2600   33.1530 N   0  0  0  0  0  0  0  0  0  0  0  0
   37.8560   23.7280   30.3420 H   0  0  0  0  0  0  0  0  0  0  0  0
   38.8910   25.5770   31.4480 H   0  0  0  0  0  0  0  0  0  0  0  0
   39.7660   25.2730   33.7920 H   0  0  0  0  0  0  0  0  0  0  0  0
   38.3170   20.7620   30.1250 C   0  0  0  0  0  0  0  0  0  0  0  0
   37.4250   21.2030   31.1610 C   0  0  0  0  0  0  0  0  0  0  0  0
   36.2200   20.5760   31.2420 C   0  0  0  0  0  0  0  0  0  0  0  0
   35.9550   19.5780   30.3370 N   0  0  0  0  0  0  0  0  0  0  0  0
   36.7940   19.1770   29.3800 C   0  0  0  0  0  0  0  0  0  0  0  0
   37.9830   19.7920   29.2940 N   0  0  0  0  0  0  0  0  0  0  0  0
   36.3520   18.1370   28.5540 N   0  0  0  0  0  0  0  0  0  0  0  0
   39.3020   21.1660   29.9410 H   0  0  0  0  0  0  0  0  0  0  0  0
   35.4170   18.0330   28.1120 H   0  0  0  0  0  0  0  0  0  0  0  0
   37.0730   17.3920   28.3840 H   0  0  0  0  0  0  0  0  0  0  0  0
   35.2750   20.9840   32.2690 C   0  0  0  0  0  0  0  0  0  0  0  0
   34.1030   20.4060   32.0530 F   0  0  0  0  0  0  0  0  0  0  0  0
   35.6750   20.7100   33.5680 F   0  0  0  0  0  0  0  0  0  0  0  0
   35.0640   22.3950   32.2390 F   0  0  0  0  0  0  0  0  0  0  0  0
   37.7450   24.0830   36.0370 F   0  0  0  0  0  0  0  0  0  0  0  0
   38.9140   23.4060   36.2700 C   0  0  0  0  0  0  0  0  0  0  0  0
   39.6190   22.9870   35.1560 C   0  0  0  0  0  0  0  0  0  0  0  0
   40.7760   22.3150   35.4410 C   0  0  0  0  0  0  0  0  0  0  0  0
   41.2020   22.0770   36.7260 C   0  0  0  0  0  0  0  0  0  0  0  0
   40.4530   22.5220   37.7930 C   0  0  0  0  0  0  0  0  0  0  0  0
   39.2920   23.1960   37.5690 C   0  0  0  0  0  0  0  0  0  0  0  0
   41.3840   21.9540   34.6060 H   0  0  0  0  0  0  0  0  0  0  0  0
   42.1330   21.5360   36.8800 H   0  0  0  0  0  0  0  0  0  0  0  0
   40.7490   22.3570   38.8160 H   0  0  0  0  0  0  0  0  0  0  0  0
   38.4110   23.7180   38.6710 C   0  0  0  0  0  0  0  0  0  0  0  0
   39.2430   23.9240   39.7780 F   0  0  0  0  0  0  0  0  0  0  0  0
   37.8840   24.9400   38.3480 F   0  0  0  0  0  0  0  0  0  0  0  0
   37.3850   22.8540   38.9410 F   0  0  0  0  0  0  0  0  0  0  0  0
  1  6  1  0  0  0  0
  2  1  2  0  0  0  0
  2  3  1  0  0  0  0
  3  4  2  0  0  0  0
  4  5  1  0  0  0  0
  4  9  1  0  0  0  0
  5 26  1  0  0  0  0
  6  5  2  0  0  0  0
  7  2  1  0  0  0  0
  8  3  1  0  0  0  0
 10 11  1  0  0  0  0
 11 12  2  0  0  0  0
 11  1  1  0  0  0  0
 12 20  1  0  0  0  0
 13 12  1  0  0  0  0
 14 13  2  0  0  0  0
 15 14  1  0  0  0  0
 15 10  2  0  0  0  0
 16 14  1  0  0  0  0
 17 10  1  0  0  0  0
 18 16  1  0  0  0  0
 19 16  1  0  0  0  0
 20 22  1  0  0  0  0
 21 20  1  0  0  0  0
 23 20  1  0  0  0  0
 24 25  1  0  0  0  0
 25 30  1  0  0  0  0
 26 27  1  0  0  0  0
 26 25  2  0  0  0  0
 27 28  2  0  0  0  0
 28 32  1  0  0  0  0
 28 29  1  0  0  0  0
 29 33  1  0  0  0  0
 30 29  2  0  0  0  0
 30 34  1  0  0  0  0
 31 27  1  0  0  0  0
 34 37  1  0  0  0  0
 34 35  1  0  0  0  0
 36 34  1  0  0  0  0
M  END
>  <minimizedAffinity>
-6.95916224

$$$$

 OpenBabel03262520263D

 37 39  0  0  0  0  0  0  0  0999 V2000
   37.8050   24.8100   33.5970 C   0  0  0  0  0  0  0  0  0  0  0  0
   37.2850   23.9750   32.6010 C   0  0  0  0  0  0  0  0  0  0  0  0
   36.5270   24.3680   31.5490 C   0  0  0  0  0  0  0  0  0  0  0  0
   36.2070   25.6710   31.3870 C   0  0  0  0  0  0  0  0  0  0  0  0
   36.7060   26.4850   32.3470 C   0  0  0  0  0  0  0  0  0  0  0  0
   37.4390   26.0520   33.3510 N   0  0  0  0  0  0  0  0  0  0  0  0
   37.5000   22.8800   32.6540 H   0  0  0  0  0  0  0  0  0  0  0  0
   36.1650   23.6130   30.8130 H   0  0  0  0  0  0  0  0  0  0  0  0
   35.6170   26.0640   30.5910 H   0  0  0  0  0  0  0  0  0  0  0  0
   37.9630   23.1180   35.2460 C   0  0  0  0  0  0  0  0  0  0  0  0
   38.6240   24.2570   34.6720 C   0  0  0  0  0  0  0  0  0  0  0  0
   39.8370   24.5910   35.1930 C   0  0  0  0  0  0  0  0  0  0  0  0
   40.3290   23.8190   36.2160 N   0  0  0  0  0  0  0  0  0  0  0  0
   39.7040   22.7620   36.7400 C   0  0  0  0  0  0  0  0  0  0  0  0
   38.5080   22.4280   36.2320 N   0  0  0  0  0  0  0  0  0  0  0  0
   40.3660   22.0920   37.7750 N   0  0  0  0  0  0  0  0  0  0  0  0
   37.0010   22.7390   34.9360 H   0  0  0  0  0  0  0  0  0  0  0  0
   40.8530   22.5110   38.5920 H   0  0  0  0  0  0  0  0  0  0  0  0
   40.3510   21.0450   37.6820 H   0  0  0  0  0  0  0  0  0  0  0  0
   40.5500   25.7370   34.6530 C   0  0  0  0  0  0  0  0  0  0  0  0
   40.6670   25.6120   33.3400 F   0  0  0  0  0  0  0  0  0  0  0  0
   39.9730   26.9650   34.9350 F   0  0  0  0  0  0  0  0  0  0  0  0
   41.8690   25.8190   35.1910 F   0  0  0  0  0  0  0  0  0  0  0  0
   35.9650   27.9260   34.5940 F   0  0  0  0  0  0  0  0  0  0  0  0
   36.0690   28.6440   33.4310 C   0  0  0  0  0  0  0  0  0  0  0  0
   36.4400   27.9380   32.2990 C   0  0  0  0  0  0  0  0  0  0  0  0
   36.5310   28.6980   31.1650 C   0  0  0  0  0  0  0  0  0  0  0  0
   36.2750   30.0490   31.1510 C   0  0  0  0  0  0  0  0  0  0  0  0
   35.9090   30.6920   32.3140 C   0  0  0  0  0  0  0  0  0  0  0  0
   35.8020   29.9850   33.4720 C   0  0  0  0  0  0  0  0  0  0  0  0
   36.8210   28.2040   30.2330 H   0  0  0  0  0  0  0  0  0  0  0  0
   36.3670   30.5920   30.2140 H   0  0  0  0  0  0  0  0  0  0  0  0
   35.7000   31.7490   32.3480 H   0  0  0  0  0  0  0  0  0  0  0  0
   35.4100   30.6040   34.7870 C   0  0  0  0  0  0  0  0  0  0  0  0
   35.1470   31.9540   34.5250 F   0  0  0  0  0  0  0  0  0  0  0  0
   34.2430   30.0650   35.2580 F   0  0  0  0  0  0  0  0  0  0  0  0
   36.3860   30.4340   35.7290 F   0  0  0  0  0  0  0  0  0  0  0  0
  1 11  1  0  0  0  0
  2  7  1  0  0  0  0
  2  1  2  0  0  0  0
  3  2  1  0  0  0  0
  4  3  2  0  0  0  0
  4  5  1  0  0  0  0
  5  6  2  0  0  0  0
  6  1  1  0  0  0  0
  8  3  1  0  0  0  0
  9  4  1  0  0  0  0
 10 15  1  0  0  0  0
 11 12  1  0  0  0  0
 11 10  2  0  0  0  0
 12 13  2  0  0  0  0
 13 14  1  0  0  0  0
 14 16  1  0  0  0  0
 15 14  2  0  0  0  0
 16 18  1  0  0  0  0
 17 10  1  0  0  0  0
 19 16  1  0  0  0  0
 20 22  1  0  0  0  0
 20 23  1  0  0  0  0
 20 12  1  0  0  0  0
 21 20  1  0  0  0  0
 25 30  1  0  0  0  0
 25 24  1  0  0  0  0
 26  5  1  0  0  0  0
 26 25  2  0  0  0  0
 27 26  1  0  0  0  0
 28 27  2  0  0  0  0
 28 29  1  0  0  0  0
 29 33  1  0  0  0  0
 29 30  2  0  0  0  0
 30 34  1  0  0  0  0
 31 27  1  0  0  0  0
 32 28  1  0  0  0  0
 34 36  1  0  0  0  0
 34 37  1  0  0  0  0
 35 34  1  0  0  0  0
M  END
>  <minimizedAffinity>
-6.68908262

$$$$

 OpenBabel03262520263D

 37 39  0  0  0  0  0  0  0  0999 V2000
   35.3110   29.2630   33.7810 C   0  0  0  0  0  0  0  0  0  0  0  0
   35.1650   29.3450   32.3910 C   0  0  0  0  0  0  0  0  0  0  0  0
   35.9500   28.7320   31.4720 C   0  0  0  0  0  0  0  0  0  0  0  0
   36.9850   27.9580   31.8650 C   0  0  0  0  0  0  0  0  0  0  0  0
   37.1330   27.8750   33.2090 C   0  0  0  0  0  0  0  0  0  0  0  0
   36.3410   28.4900   34.0620 N   0  0  0  0  0  0  0  0  0  0  0  0
   34.3340   29.9640   31.9750 H   0  0  0  0  0  0  0  0  0  0  0  0
   35.7420   28.8670   30.3850 H   0  0  0  0  0  0  0  0  0  0  0  0
   37.6500   27.4420   31.2110 H   0  0  0  0  0  0  0  0  0  0  0  0
   33.0940   29.3290   34.6100 C   0  0  0  0  0  0  0  0  0  0  0  0
   34.3810   29.9630   34.6630 C   0  0  0  0  0  0  0  0  0  0  0  0
   34.5040   31.0370   35.4920 C   0  0  0  0  0  0  0  0  0  0  0  0
   33.3970   31.4240   36.2070 N   0  0  0  0  0  0  0  0  0  0  0  0
   32.2050   30.8240   36.1470 C   0  0  0  0  0  0  0  0  0  0  0  0
   32.0780   29.7670   35.3320 N   0  0  0  0  0  0  0  0  0  0  0  0
   31.1950   31.3570   36.9570 N   0  0  0  0  0  0  0  0  0  0  0  0
   32.8500   28.4720   34.0000 H   0  0  0  0  0  0  0  0  0  0  0  0
   30.9520   32.3580   37.0900 H   0  0  0  0  0  0  0  0  0  0  0  0
   30.6390   30.6320   37.4750 H   0  0  0  0  0  0  0  0  0  0  0  0
   35.7830   31.7210   35.5840 C   0  0  0  0  0  0  0  0  0  0  0  0
   36.6950   30.8970   36.0770 F   0  0  0  0  0  0  0  0  0  0  0  0
   36.2510   32.2390   34.3870 F   0  0  0  0  0  0  0  0  0  0  0  0
   35.7030   32.8410   36.4630 F   0  0  0  0  0  0  0  0  0  0  0  0
   36.6920   26.0530   35.2490 F   0  0  0  0  0  0  0  0  0  0  0  0
   37.9860   26.1540   34.8070 C   0  0  0  0  0  0  0  0  0  0  0  0
   38.2220   27.0590   33.7870 C   0  0  0  0  0  0  0  0  0  0  0  0
   39.5270   27.1220   33.3790 C   0  0  0  0  0  0  0  0  0  0  0  0
   40.5200   26.3520   33.9380 C   0  0  0  0  0  0  0  0  0  0  0  0
   40.2170   25.4700   34.9520 C   0  0  0  0  0  0  0  0  0  0  0  0
   38.9360   25.3650   35.3970 C   0  0  0  0  0  0  0  0  0  0  0  0
   39.7850   27.8180   32.5750 H   0  0  0  0  0  0  0  0  0  0  0  0
   41.5360   26.4540   33.5650 H   0  0  0  0  0  0  0  0  0  0  0  0
   40.9640   24.8470   35.4180 H   0  0  0  0  0  0  0  0  0  0  0  0
   38.5150   24.4300   36.4980 C   0  0  0  0  0  0  0  0  0  0  0  0
   39.6710   23.7500   36.9020 F   0  0  0  0  0  0  0  0  0  0  0  0
   38.0680   25.1220   37.5920 F   0  0  0  0  0  0  0  0  0  0  0  0
   37.5270   23.5800   36.0810 F   0  0  0  0  0  0  0  0  0  0  0  0
  1  6  1  0  0  0  0
  1 11  1  0  0  0  0
  2  1  2  0  0  0  0
  3  4  2  0  0  0  0
  3  2  1  0  0  0  0
  4  5  1  0  0  0  0
  5 26  1  0  0  0  0
  5  6  2  0  0  0  0
  7  2  1  0  0  0  0
  8  3  1  0  0  0  0
  9  4  1  0  0  0  0
 10 11  2  0  0  0  0
 10 15  1  0  0  0  0
 11 12  1  0  0  0  0
 12 20  1  0  0  0  0
 12 13  2  0  0  0  0
 14 13  1  0  0  0  0
 14 16  1  0  0  0  0
 15 14  2  0  0  0  0
 16 18  1  0  0  0  0
 16 19  1  0  0  0  0
 17 10  1  0  0  0  0
 20 21  1  0  0  0  0
 20 23  1  0  0  0  0
 22 20  1  0  0  0  0
 25 24  1  0  0  0  0
 25 30  1  0  0  0  0
 26 25  2  0  0  0  0
 27 26  1  0  0  0  0
 27 28  2  0  0  0  0
 28 29  1  0  0  0  0
 29 30  2  0  0  0  0
 29 33  1  0  0  0  0
 30 34  1  0  0  0  0
 31 27  1  0  0  0  0
 32 28  1  0  0  0  0
 34 35  1  0  0  0  0
 34 36  1  0  0  0  0
 37 34  1  0  0  0  0
M  END
>  <minimizedAffinity>
-6.64146852

$$$$

 OpenBabel03262520263D

 37 39  0  0  0  0  0  0  0  0999 V2000
   36.9820   27.6710   32.9740 C   0  0  0  0  0  0  0  0  0  0  0  0
   37.0330   28.2700   31.7100 C   0  0  0  0  0  0  0  0  0  0  0  0
   36.5330   29.4870   31.3860 C   0  0  0  0  0  0  0  0  0  0  0  0
   35.9180   30.2440   32.3200 C   0  0  0  0  0  0  0  0  0  0  0  0
   35.8650   29.6710   33.5460 C   0  0  0  0  0  0  0  0  0  0  0  0
   36.3670   28.4830   33.8110 N   0  0  0  0  0  0  0  0  0  0  0  0
   37.5240   27.7150   30.8740 H   0  0  0  0  0  0  0  0  0  0  0  0
   36.6290   29.8670   30.3420 H   0  0  0  0  0  0  0  0  0  0  0  0
   35.4980   31.2090   32.1510 H   0  0  0  0  0  0  0  0  0  0  0  0
   36.7860   25.3530   32.5350 C   0  0  0  0  0  0  0  0  0  0  0  0
   37.5760   26.3550   33.1930 C   0  0  0  0  0  0  0  0  0  0  0  0
   38.6860   25.9260   33.8550 C   0  0  0  0  0  0  0  0  0  0  0  0
   38.9610   24.5810   33.8400 N   0  0  0  0  0  0  0  0  0  0  0  0
   38.2170   23.6600   33.2230 C   0  0  0  0  0  0  0  0  0  0  0  0
   37.1230   24.0760   32.5690 N   0  0  0  0  0  0  0  0  0  0  0  0
   38.6610   22.3360   33.3110 N   0  0  0  0  0  0  0  0  0  0  0  0
   35.8830   25.5450   31.9730 H   0  0  0  0  0  0  0  0  0  0  0  0
   39.0060   21.8380   34.1560 H   0  0  0  0  0  0  0  0  0  0  0  0
   38.6290   21.8140   32.3990 H   0  0  0  0  0  0  0  0  0  0  0  0
   39.5210   26.8970   34.5430 C   0  0  0  0  0  0  0  0  0  0  0  0
   40.0770   27.7130   33.6610 F   0  0  0  0  0  0  0  0  0  0  0  0
   38.8640   27.6540   35.5000 F   0  0  0  0  0  0  0  0  0  0  0  0
   40.5800   26.2520   35.2500 F   0  0  0  0  0  0  0  0  0  0  0  0
   33.1720   29.3870   34.1320 F   0  0  0  0  0  0  0  0  0  0  0  0
   33.8760   30.2330   34.9500 C   0  0  0  0  0  0  0  0  0  0  0  0
   35.2230   30.3840   34.6710 C   0  0  0  0  0  0  0  0  0  0  0  0
   35.8820   31.2360   35.5150 C   0  0  0  0  0  0  0  0  0  0  0  0
   35.2570   31.8870   36.5530 C   0  0  0  0  0  0  0  0  0  0  0  0
   33.9110   31.6930   36.7760 C   0  0  0  0  0  0  0  0  0  0  0  0
   33.2060   30.8570   35.9670 C   0  0  0  0  0  0  0  0  0  0  0  0
   36.9510   31.4020   35.3530 H   0  0  0  0  0  0  0  0  0  0  0  0
   35.8410   32.5510   37.1850 H   0  0  0  0  0  0  0  0  0  0  0  0
   33.3810   32.1830   37.5770 H   0  0  0  0  0  0  0  0  0  0  0  0
   31.7350   30.5840   36.1370 C   0  0  0  0  0  0  0  0  0  0  0  0
   31.2730   31.4960   37.0940 F   0  0  0  0  0  0  0  0  0  0  0  0
   31.0460   30.8490   34.9830 F   0  0  0  0  0  0  0  0  0  0  0  0
   31.5070   29.2850   36.4980 F   0  0  0  0  0  0  0  0  0  0  0  0
  1 11  1  0  0  0  0
  1  6  1  0  0  0  0
  2  1  2  0  0  0  0
  3  2  1  0  0  0  0
  3  4  2  0  0  0  0
  4  5  1  0  0  0  0
  5  6  2  0  0  0  0
  5 26  1  0  0  0  0
  7  2  1  0  0  0  0
  8  3  1  0  0  0  0
  9  4  1  0  0  0  0
 10 15  2  0  0  0  0
 10 11  1  0  0  0  0
 11 12  2  0  0  0  0
 12 20  1  0  0  0  0
 13 12  1  0  0  0  0
 14 16  1  0  0  0  0
 14 13  2  0  0  0  0
 15 14  1  0  0  0  0
 16 18  1  0  0  0  0
 17 10  1  0  0  0  0
 19 16  1  0  0  0  0
 20 23  1  0  0  0  0
 20 22  1  0  0  0  0
 21 20  1  0  0  0  0
 24 25  1  0  0  0  0
 25 30  1  0  0  0  0
 26 25  2  0  0  0  0
 26 27  1  0  0  0  0
 27 28  2  0  0  0  0
 28 29  1  0  0  0  0
 28 32  1  0  0  0  0
 29 33  1  0  0  0  0
 30 34  1  0  0  0  0
 30 29  2  0  0  0  0
 31 27  1  0  0  0  0
 34 37  1  0  0  0  0
 34 35  1  0  0  0  0
 36 34  1  0  0  0  0
M  END
>  <minimizedAffinity>
-6.43325138

$$$$

 OpenBabel03262520263D

 37 39  0  0  0  0  0  0  0  0999 V2000
   35.3790   29.7060   34.3820 C   0  0  0  0  0  0  0  0  0  0  0  0
   34.8350   29.5860   33.0970 C   0  0  0  0  0  0  0  0  0  0  0  0
   35.2450   28.7210   32.1390 C   0  0  0  0  0  0  0  0  0  0  0  0
   36.2660   27.8690   32.3780 C   0  0  0  0  0  0  0  0  0  0  0  0
   36.7970   27.9800   33.6190 C   0  0  0  0  0  0  0  0  0  0  0  0
   36.3610   28.8390   34.5170 N   0  0  0  0  0  0  0  0  0  0  0  0
   33.9850   30.2520   32.8110 H   0  0  0  0  0  0  0  0  0  0  0  0
   34.7370   28.7110   31.1460 H   0  0  0  0  0  0  0  0  0  0  0  0
   36.6500   27.1590   31.6820 H   0  0  0  0  0  0  0  0  0  0  0  0
   35.8340   31.6430   35.6670 C   0  0  0  0  0  0  0  0  0  0  0  0
   34.8290   30.6730   35.3290 C   0  0  0  0  0  0  0  0  0  0  0  0
   33.6070   30.8280   35.9080 C   0  0  0  0  0  0  0  0  0  0  0  0
   33.4320   31.8900   36.7600 N   0  0  0  0  0  0  0  0  0  0  0  0
   34.3750   32.7840   37.0650 C   0  0  0  0  0  0  0  0  0  0  0  0
   35.5810   32.6370   36.4980 N   0  0  0  0  0  0  0  0  0  0  0  0
   34.0070   33.8050   37.9490 N   0  0  0  0  0  0  0  0  0  0  0  0
   36.8450   31.6460   35.2860 H   0  0  0  0  0  0  0  0  0  0  0  0
   33.4690   33.7140   38.8340 H   0  0  0  0  0  0  0  0  0  0  0  0
   34.3280   34.7610   37.6520 H   0  0  0  0  0  0  0  0  0  0  0  0
   32.5520   29.8740   35.6050 C   0  0  0  0  0  0  0  0  0  0  0  0
   32.0450   30.1330   34.4100 F   0  0  0  0  0  0  0  0  0  0  0  0
   32.9430   28.5450   35.6450 F   0  0  0  0  0  0  0  0  0  0  0  0
   31.4870   29.9720   36.5490 F   0  0  0  0  0  0  0  0  0  0  0  0
   36.5500   26.0940   35.6330 F   0  0  0  0  0  0  0  0  0  0  0  0
   37.7810   26.1720   35.0350 C   0  0  0  0  0  0  0  0  0  0  0  0
   37.9200   27.1090   34.0260 C   0  0  0  0  0  0  0  0  0  0  0  0
   39.1650   27.1480   33.4590 C   0  0  0  0  0  0  0  0  0  0  0  0
   40.1910   26.3250   33.8610 C   0  0  0  0  0  0  0  0  0  0  0  0
   39.9870   25.4140   34.8730 C   0  0  0  0  0  0  0  0  0  0  0  0
   38.7680   25.3320   35.4730 C   0  0  0  0  0  0  0  0  0  0  0  0
   39.3450   27.8650   32.6540 H   0  0  0  0  0  0  0  0  0  0  0  0
   41.1560   26.4100   33.3670 H   0  0  0  0  0  0  0  0  0  0  0  0
   40.7630   24.7500   35.2190 H   0  0  0  0  0  0  0  0  0  0  0  0
   38.4550   24.3670   36.5850 C   0  0  0  0  0  0  0  0  0  0  0  0
   39.6490   23.6920   36.8700 F   0  0  0  0  0  0  0  0  0  0  0  0
   38.0990   25.0290   37.7290 F   0  0  0  0  0  0  0  0  0  0  0  0
   37.4430   23.5150   36.2360 F   0  0  0  0  0  0  0  0  0  0  0  0
  1  6  1  0  0  0  0
  1 11  1  0  0  0  0
  2  1  2  0  0  0  0
  3  4  2  0  0  0  0
  3  2  1  0  0  0  0
  4  5  1  0  0  0  0
  5 26  1  0  0  0  0
  5  6  2  0  0  0  0
  7  2  1  0  0  0  0
  8  3  1  0  0  0  0
  9  4  1  0  0  0  0
 10 15  1  0  0  0  0
 11 10  2  0  0  0  0
 11 12  1  0  0  0  0
 12 13  2  0  0  0  0
 13 14  1  0  0  0  0
 14 16  1  0  0  0  0
 15 14  2  0  0  0  0
 16 18  1  0  0  0  0
 17 10  1  0  0  0  0
 19 16  1  0  0  0  0
 20 22  1  0  0  0  0
 20 12  1  0  0  0  0
 20 23  1  0  0  0  0
 21 20  1  0  0  0  0
 25 30  1  0  0  0  0
 25 24  1  0  0  0  0
 26 25  2  0  0  0  0
 27 28  2  0  0  0  0
 27 26  1  0  0  0  0
 28 29  1  0  0  0  0
 29 33  1  0  0  0  0
 29 30  2  0  0  0  0
 30 34  1  0  0  0  0
 31 27  1  0  0  0  0
 32 28  1  0  0  0  0
 34 35  1  0  0  0  0
 34 36  1  0  0  0  0
 37 34  1  0  0  0  0
M  END
>  <minimizedAffinity>
-6.34963226

$$$$

 OpenBabel03262520263D

 37 39  0  0  0  0  0  0  0  0999 V2000
   34.9620   29.8340   33.6240 C   0  0  0  0  0  0  0  0  0  0  0  0
   35.3870   30.5850   32.5220 C   0  0  0  0  0  0  0  0  0  0  0  0
   36.2740   30.1830   31.5800 C   0  0  0  0  0  0  0  0  0  0  0  0
   36.8390   28.9580   31.6520 C   0  0  0  0  0  0  0  0  0  0  0  0
   36.4330   28.2260   32.7170 C   0  0  0  0  0  0  0  0  0  0  0  0
   35.5650   28.6630   33.6050 N   0  0  0  0  0  0  0  0  0  0  0  0
   34.9720   31.6130   32.3820 H   0  0  0  0  0  0  0  0  0  0  0  0
   36.5420   30.8670   30.7410 H   0  0  0  0  0  0  0  0  0  0  0  0
   37.5440   28.5640   30.9570 H   0  0  0  0  0  0  0  0  0  0  0  0
   32.6710   29.9070   34.2180 C   0  0  0  0  0  0  0  0  0  0  0  0
   33.9830   30.3830   34.5590 C   0  0  0  0  0  0  0  0  0  0  0  0
   34.0780   31.2040   35.6410 C   0  0  0  0  0  0  0  0  0  0  0  0
   32.9220   31.5090   36.3170 N   0  0  0  0  0  0  0  0  0  0  0  0
   31.7080   31.0580   35.9890 C   0  0  0  0  0  0  0  0  0  0  0  0
   31.6090   30.2500   34.9240 N   0  0  0  0  0  0  0  0  0  0  0  0
   30.6470   31.4710   36.8030 N   0  0  0  0  0  0  0  0  0  0  0  0
   32.4450   29.2530   33.3900 H   0  0  0  0  0  0  0  0  0  0  0  0
   30.4590   32.4290   37.1620 H   0  0  0  0  0  0  0  0  0  0  0  0
   29.9850   30.6980   37.0630 H   0  0  0  0  0  0  0  0  0  0  0  0
   35.3810   31.7180   36.0300 C   0  0  0  0  0  0  0  0  0  0  0  0
   35.2950   32.3040   37.2140 F   0  0  0  0  0  0  0  0  0  0  0  0
   36.3900   30.7700   36.0730 F   0  0  0  0  0  0  0  0  0  0  0  0
   35.8400   32.7010   35.1030 F   0  0  0  0  0  0  0  0  0  0  0  0
   38.1990   27.6240   34.7650 F   0  0  0  0  0  0  0  0  0  0  0  0
   37.8470   26.5780   33.9520 C   0  0  0  0  0  0  0  0  0  0  0  0
   36.9640   26.8620   32.9250 C   0  0  0  0  0  0  0  0  0  0  0  0
   36.6430   25.7860   32.1430 C   0  0  0  0  0  0  0  0  0  0  0  0
   37.1550   24.5280   32.3600 C   0  0  0  0  0  0  0  0  0  0  0  0
   38.0310   24.3130   33.4010 C   0  0  0  0  0  0  0  0  0  0  0  0
   38.3860   25.3470   34.2110 C   0  0  0  0  0  0  0  0  0  0  0  0
   35.9490   25.9390   31.3120 H   0  0  0  0  0  0  0  0  0  0  0  0
   36.8570   23.7180   31.7000 H   0  0  0  0  0  0  0  0  0  0  0  0
   38.4560   23.3430   33.6080 H   0  0  0  0  0  0  0  0  0  0  0  0
   39.3340   25.2040   35.3710 C   0  0  0  0  0  0  0  0  0  0  0  0
   38.5900   25.4780   36.5250 F   0  0  0  0  0  0  0  0  0  0  0  0
   39.7780   23.9140   35.4920 F   0  0  0  0  0  0  0  0  0  0  0  0
   40.4160   26.0300   35.2370 F   0  0  0  0  0  0  0  0  0  0  0  0
  1 11  1  0  0  0  0
  2  1  2  0  0  0  0
  3  4  2  0  0  0  0
  3  2  1  0  0  0  0
  4  5  1  0  0  0  0
  5 26  1  0  0  0  0
  5  6  2  0  0  0  0
  6  1  1  0  0  0  0
  7  2  1  0  0  0  0
  8  3  1  0  0  0  0
  9  4  1  0  0  0  0
 10 11  2  0  0  0  0
 10 15  1  0  0  0  0
 11 12  1  0  0  0  0
 12 20  1  0  0  0  0
 12 13  2  0  0  0  0
 14 13  1  0  0  0  0
 14 16  1  0  0  0  0
 15 14  2  0  0  0  0
 16 19  1  0  0  0  0
 16 18  1  0  0  0  0
 17 10  1  0  0  0  0
 20 22  1  0  0  0  0
 20 21  1  0  0  0  0
 23 20  1  0  0  0  0
 25 30  1  0  0  0  0
 25 24  1  0  0  0  0
 26 25  2  0  0  0  0
 27 28  2  0  0  0  0
 27 26  1  0  0  0  0
 28 29  1  0  0  0  0
 29 33  1  0  0  0  0
 29 30  2  0  0  0  0
 30 34  1  0  0  0  0
 31 27  1  0  0  0  0
 32 28  1  0  0  0  0
 34 36  1  0  0  0  0
 34 35  1  0  0  0  0
 37 34  1  0  0  0  0
M  END
>  <minimizedAffinity>
-6.29464626

$$$$

 OpenBabel03262520263D

 37 39  0  0  0  0  0  0  0  0999 V2000
   34.9770   29.8030   33.6420 C   0  0  0  0  0  0  0  0  0  0  0  0
   35.3230   30.5680   32.5210 C   0  0  0  0  0  0  0  0  0  0  0  0
   36.2200   30.2200   31.5680 C   0  0  0  0  0  0  0  0  0  0  0  0
   36.8770   29.0420   31.6450 C   0  0  0  0  0  0  0  0  0  0  0  0
   36.5480   28.2970   32.7270 C   0  0  0  0  0  0  0  0  0  0  0  0
   35.6670   28.6800   33.6270 N   0  0  0  0  0  0  0  0  0  0  0  0
   34.8290   31.5590   32.3760 H   0  0  0  0  0  0  0  0  0  0  0  0
   36.4190   30.9100   30.7150 H   0  0  0  0  0  0  0  0  0  0  0  0
   37.5960   28.6920   30.9410 H   0  0  0  0  0  0  0  0  0  0  0  0
   32.6900   29.7470   34.2540 C   0  0  0  0  0  0  0  0  0  0  0  0
   33.9770   30.2900   34.5890 C   0  0  0  0  0  0  0  0  0  0  0  0
   34.0360   31.1070   35.6770 C   0  0  0  0  0  0  0  0  0  0  0  0
   32.8710   31.3430   36.3640 N   0  0  0  0  0  0  0  0  0  0  0  0
   31.6810   30.8300   36.0420 C   0  0  0  0  0  0  0  0  0  0  0  0
   31.6160   30.0260   34.9710 N   0  0  0  0  0  0  0  0  0  0  0  0
   30.6050   31.1780   36.8670 N   0  0  0  0  0  0  0  0  0  0  0  0
   32.4930   29.0880   33.4220 H   0  0  0  0  0  0  0  0  0  0  0  0
   30.3680   32.1210   37.2350 H   0  0  0  0  0  0  0  0  0  0  0  0
   29.9870   30.3680   37.1260 H   0  0  0  0  0  0  0  0  0  0  0  0
   35.3120   31.6880   36.0600 C   0  0  0  0  0  0  0  0  0  0  0  0
   35.2040   32.2560   37.2510 F   0  0  0  0  0  0  0  0  0  0  0  0
   36.3720   30.7960   36.0860 F   0  0  0  0  0  0  0  0  0  0  0  0
   35.7090   32.7040   35.1400 F   0  0  0  0  0  0  0  0  0  0  0  0
   35.6380   25.9950   31.4820 F   0  0  0  0  0  0  0  0  0  0  0  0
   36.7170   25.8390   32.3140 C   0  0  0  0  0  0  0  0  0  0  0  0
   37.1840   26.9800   32.9420 C   0  0  0  0  0  0  0  0  0  0  0  0
   38.2620   26.7730   33.7590 C   0  0  0  0  0  0  0  0  0  0  0  0
   38.8310   25.5350   33.9410 C   0  0  0  0  0  0  0  0  0  0  0  0
   38.3170   24.4380   33.2860 C   0  0  0  0  0  0  0  0  0  0  0  0
   37.2450   24.5850   32.4600 C   0  0  0  0  0  0  0  0  0  0  0  0
   38.6830   27.6330   34.2880 H   0  0  0  0  0  0  0  0  0  0  0  0
   39.6860   25.4420   34.6060 H   0  0  0  0  0  0  0  0  0  0  0  0
   38.7320   23.4490   33.3990 H   0  0  0  0  0  0  0  0  0  0  0  0
   36.6190   23.4440   31.7040 C   0  0  0  0  0  0  0  0  0  0  0  0
   36.9120   23.6600   30.3520 F   0  0  0  0  0  0  0  0  0  0  0  0
   37.1960   22.2490   32.0420 F   0  0  0  0  0  0  0  0  0  0  0  0
   35.2740   23.3660   31.9420 F   0  0  0  0  0  0  0  0  0  0  0  0
  1 11  1  0  0  0  0
  2  1  2  0  0  0  0
  3  4  2  0  0  0  0
  3  2  1  0  0  0  0
  4  5  1  0  0  0  0
  5 26  1  0  0  0  0
  5  6  2  0  0  0  0
  6  1  1  0  0  0  0
  7  2  1  0  0  0  0
  8  3  1  0  0  0  0
  9  4  1  0  0  0  0
 10 11  2  0  0  0  0
 10 15  1  0  0  0  0
 11 12  1  0  0  0  0
 12 20  1  0  0  0  0
 12 13  2  0  0  0  0
 14 13  1  0  0  0  0
 14 16  1  0  0  0  0
 15 14  2  0  0  0  0
 16 19  1  0  0  0  0
 16 18  1  0  0  0  0
 17 10  1  0  0  0  0
 20 22  1  0  0  0  0
 20 21  1  0  0  0  0
 23 20  1  0  0  0  0
 24 25  1  0  0  0  0
 25 30  2  0  0  0  0
 25 26  1  0  0  0  0
 26 27  2  0  0  0  0
 27 28  1  0  0  0  0
 27 31  1  0  0  0  0
 28 32  1  0  0  0  0
 29 33  1  0  0  0  0
 29 28  2  0  0  0  0
 30 29  1  0  0  0  0
 34 37  1  0  0  0  0
 34 36  1  0  0  0  0
 34 30  1  0  0  0  0
 35 34  1  0  0  0  0
M  END
>  <minimizedAffinity>
-6.29157639

$$$$

 OpenBabel03262520263D

 37 39  0  0  0  0  0  0  0  0999 V2000
   36.7300   26.8180   32.5950 C   0  0  0  0  0  0  0  0  0  0  0  0
   36.1410   25.9540   31.6640 C   0  0  0  0  0  0  0  0  0  0  0  0
   36.3050   24.6100   31.6120 C   0  0  0  0  0  0  0  0  0  0  0  0
   37.0950   23.9830   32.5100 C   0  0  0  0  0  0  0  0  0  0  0  0
   37.6680   24.8130   33.4140 C   0  0  0  0  0  0  0  0  0  0  0  0
   37.4770   26.1150   33.4220 N   0  0  0  0  0  0  0  0  0  0  0  0
   35.4710   26.3860   30.8810 H   0  0  0  0  0  0  0  0  0  0  0  0
   35.7850   24.0170   30.8230 H   0  0  0  0  0  0  0  0  0  0  0  0
   37.2780   22.9330   32.5410 H   0  0  0  0  0  0  0  0  0  0  0  0
   35.7160   28.6400   33.7180 C   0  0  0  0  0  0  0  0  0  0  0  0
   36.4550   28.2520   32.5490 C   0  0  0  0  0  0  0  0  0  0  0  0
   36.7630   29.2370   31.6610 C   0  0  0  0  0  0  0  0  0  0  0  0
   36.3490   30.5140   31.9510 N   0  0  0  0  0  0  0  0  0  0  0  0
   35.6630   30.8610   33.0430 C   0  0  0  0  0  0  0  0  0  0  0  0
   35.3560   29.8940   33.9210 N   0  0  0  0  0  0  0  0  0  0  0  0
   35.3350   32.2150   33.1720 N   0  0  0  0  0  0  0  0  0  0  0  0
   35.4030   27.9690   34.5040 H   0  0  0  0  0  0  0  0  0  0  0  0
   34.9550   32.8470   32.4390 H   0  0  0  0  0  0  0  0  0  0  0  0
   35.5060   32.6050   34.1330 H   0  0  0  0  0  0  0  0  0  0  0  0
   37.5070   28.9010   30.4570 C   0  0  0  0  0  0  0  0  0  0  0  0
   36.7200   28.2510   29.6140 F   0  0  0  0  0  0  0  0  0  0  0  0
   38.0660   29.9850   29.7990 F   0  0  0  0  0  0  0  0  0  0  0  0
   38.6080   28.0450   30.7580 F   0  0  0  0  0  0  0  0  0  0  0  0
   36.9700   24.8200   36.0950 F   0  0  0  0  0  0  0  0  0  0  0  0
   38.1950   24.2800   35.7980 C   0  0  0  0  0  0  0  0  0  0  0  0
   38.5580   24.2670   34.4620 C   0  0  0  0  0  0  0  0  0  0  0  0
   39.7860   23.7180   34.2160 C   0  0  0  0  0  0  0  0  0  0  0  0
   40.5920   23.2200   35.2130 C   0  0  0  0  0  0  0  0  0  0  0  0
   40.1710   23.2640   36.5240 C   0  0  0  0  0  0  0  0  0  0  0  0
   38.9580   23.8000   36.8270 C   0  0  0  0  0  0  0  0  0  0  0  0
   40.1360   23.6750   33.1810 H   0  0  0  0  0  0  0  0  0  0  0  0
   41.5580   22.7970   34.9460 H   0  0  0  0  0  0  0  0  0  0  0  0
   40.7710   22.8850   37.3360 H   0  0  0  0  0  0  0  0  0  0  0  0
   38.4180   23.8870   38.2290 C   0  0  0  0  0  0  0  0  0  0  0  0
   37.3430   22.9920   38.2940 F   0  0  0  0  0  0  0  0  0  0  0  0
   39.3410   23.4550   39.1430 F   0  0  0  0  0  0  0  0  0  0  0  0
   38.0520   25.1670   38.5430 F   0  0  0  0  0  0  0  0  0  0  0  0
  1  6  1  0  0  0  0
  2  1  2  0  0  0  0
  3  2  1  0  0  0  0
  3  4  2  0  0  0  0
  4  9  1  0  0  0  0
  4  5  1  0  0  0  0
  5  6  2  0  0  0  0
  5 26  1  0  0  0  0
  7  2  1  0  0  0  0
  8  3  1  0  0  0  0
 10 15  1  0  0  0  0
 10 17  1  0  0  0  0
 11  1  1  0  0  0  0
 11 10  2  0  0  0  0
 12 13  2  0  0  0  0
 12 11  1  0  0  0  0
 13 14  1  0  0  0  0
 14 16  1  0  0  0  0
 14 15  2  0  0  0  0
 16 19  1  0  0  0  0
 18 16  1  0  0  0  0
 20 23  1  0  0  0  0
 20 12  1  0  0  0  0
 21 20  1  0  0  0  0
 22 20  1  0  0  0  0
 25 24  1  0  0  0  0
 25 30  1  0  0  0  0
 26 25  2  0  0  0  0
 27 26  1  0  0  0  0
 27 28  2  0  0  0  0
 28 29  1  0  0  0  0
 29 30  2  0  0  0  0
 29 33  1  0  0  0  0
 30 34  1  0  0  0  0
 31 27  1  0  0  0  0
 32 28  1  0  0  0  0
 34 35  1  0  0  0  0
 34 37  1  0  0  0  0
 34 36  1  0  0  0  0
M  END
>  <minimizedAffinity>
-6.25684977

$$$$
