
 OpenBabel03272509533D

 38 40  0  0  0  0  0  0  0  0999 V2000
   37.3760   30.1600   51.6110 C   0  0  0  0  0  0  0  0  0  0  0  0
   38.1010   30.8150   50.5960 C   0  0  0  0  0  0  0  0  0  0  0  0
   37.6720   30.6670   49.2960 C   0  0  0  0  0  0  0  0  0  0  0  0
   36.5610   29.8830   49.1020 N   0  0  0  0  0  0  0  0  0  0  0  0
   35.8950   29.2750   50.0800 C   0  0  0  0  0  0  0  0  0  0  0  0
   36.3040   29.4140   51.3510 N   0  0  0  0  0  0  0  0  0  0  0  0
   37.7380   30.2970   52.6220 H   0  0  0  0  0  0  0  0  0  0  0  0
   38.9530   31.4140   50.7700 H   0  0  0  0  0  0  0  0  0  0  0  0
   38.9520   33.2530   49.0710 F   0  0  0  0  0  0  0  0  0  0  0  0
   38.8830   32.4620   48.0070 C   0  0  0  0  0  0  0  0  0  0  0  0
   38.2810   31.2570   48.1310 C   0  0  0  0  0  0  0  0  0  0  0  0
   38.2720   30.5160   46.9430 C   0  0  0  0  0  0  0  0  0  0  0  0
   38.8200   30.9780   45.7810 C   0  0  0  0  0  0  0  0  0  0  0  0
   39.4170   32.2020   45.7060 C   0  0  0  0  0  0  0  0  0  0  0  0
   39.4430   32.9480   46.8470 C   0  0  0  0  0  0  0  0  0  0  0  0
   37.8060   29.5220   46.9370 H   0  0  0  0  0  0  0  0  0  0  0  0
   38.7700   30.3340   44.8930 H   0  0  0  0  0  0  0  0  0  0  0  0
   39.8380   32.5270   44.7650 H   0  0  0  0  0  0  0  0  0  0  0  0
   39.9130   33.9270   46.8090 H   0  0  0  0  0  0  0  0  0  0  0  0
   34.8250   28.5540   49.6260 O   0  0  0  0  0  0  0  0  0  0  0  0
   34.5390   28.5580   48.2350 C   0  0  0  0  0  0  0  0  0  0  0  0
   35.4670   28.5630   47.6230 H   0  0  0  0  0  0  0  0  0  0  0  0
   33.9910   29.4960   48.0020 H   0  0  0  0  0  0  0  0  0  0  0  0
   33.6230   27.4160   47.8860 C   0  0  0  0  0  0  0  0  0  0  0  0
   33.9740   27.0040   46.9170 H   0  0  0  0  0  0  0  0  0  0  0  0
   33.7040   26.5750   48.6110 H   0  0  0  0  0  0  0  0  0  0  0  0
   32.2080   27.8290   47.7830 C   0  0  0  0  0  0  0  0  0  0  0  0
   31.3250   27.3660   48.7580 C   0  0  0  0  0  0  0  0  0  0  0  0
   29.9960   27.6940   48.7480 C   0  0  0  0  0  0  0  0  0  0  0  0
   29.5260   28.4750   47.7860 N   0  0  0  0  0  0  0  0  0  0  0  0
   30.3910   28.9310   46.8280 C   0  0  0  0  0  0  0  0  0  0  0  0
   31.7170   28.6290   46.8040 N   0  0  0  0  0  0  0  0  0  0  0  0
   31.7040   26.7220   49.5520 H   0  0  0  0  0  0  0  0  0  0  0  0
   29.3380   27.3180   49.5180 H   0  0  0  0  0  0  0  0  0  0  0  0
   29.9590   29.8180   45.7020 C   0  0  0  0  0  0  0  0  0  0  0  0
   30.9240   30.8180   45.5300 F   0  0  0  0  0  0  0  0  0  0  0  0
   28.7310   30.3820   45.9200 F   0  0  0  0  0  0  0  0  0  0  0  0
   29.9410   29.1240   44.5110 F   0  0  0  0  0  0  0  0  0  0  0  0
  1  7  1  0  0  0  0
  2  8  1  0  0  0  0
  2  1  2  0  0  0  0
  3  2  1  0  0  0  0
  4  3  2  0  0  0  0
  4  5  1  0  0  0  0
  5  6  2  0  0  0  0
  6  1  1  0  0  0  0
 10 11  1  0  0  0  0
 10  9  1  0  0  0  0
 11  3  1  0  0  0  0
 12 11  2  0  0  0  0
 13 12  1  0  0  0  0
 14 13  2  0  0  0  0
 14 15  1  0  0  0  0
 15 10  2  0  0  0  0
 16 12  1  0  0  0  0
 17 13  1  0  0  0  0
 18 14  1  0  0  0  0
 19 15  1  0  0  0  0
 20  5  1  0  0  0  0
 21 20  1  0  0  0  0
 22 21  1  0  0  0  0
 23 21  1  0  0  0  0
 24 21  1  0  0  0  0
 24 26  1  0  0  0  0
 25 24  1  0  0  0  0
 27 24  1  0  0  0  0
 27 28  1  0  0  0  0
 28 33  1  0  0  0  0
 29 28  2  0  0  0  0
 29 34  1  0  0  0  0
 30 29  1  0  0  0  0
 31 30  2  0  0  0  0
 32 31  1  0  0  0  0
 32 27  2  0  0  0  0
 35 37  1  0  0  0  0
 35 31  1  0  0  0  0
 36 35  1  0  0  0  0
 38 35  1  0  0  0  0
M  END
>  <minimizedAffinity>
-6.36154413

>  <minimizedRMSD>
0.466739058

$$$$
