
 OpenBabel03272510163D

 23 24  0  0  0  0  0  0  0  0999 V2000
   37.3070   29.3470   51.0640 Br  0  0  0  0  0  0  0  0  0  0  0  0
   35.9580   29.3300   49.7060 C   0  0  0  0  0  0  0  0  0  0  0  0
   35.9910   30.2450   48.6780 C   0  0  0  0  0  0  0  0  0  0  0  0
   34.9840   30.1840   47.7220 C   0  0  0  0  0  0  0  0  0  0  0  0
   33.9670   29.2410   47.7770 C   0  0  0  0  0  0  0  0  0  0  0  0
   33.9710   28.3480   48.8170 C   0  0  0  0  0  0  0  0  0  0  0  0
   34.9680   28.4000   49.7750 C   0  0  0  0  0  0  0  0  0  0  0  0
   34.9960   30.8980   46.9060 H   0  0  0  0  0  0  0  0  0  0  0  0
   33.1710   27.6310   48.8320 H   0  0  0  0  0  0  0  0  0  0  0  0
   34.8920   27.6560   50.5590 H   0  0  0  0  0  0  0  0  0  0  0  0
   37.9890   33.1900   49.4440 C   0  0  0  0  0  0  0  0  0  0  0  0
   39.0200   33.1680   48.4690 C   0  0  0  0  0  0  0  0  0  0  0  0
   39.0130   32.1260   47.5480 C   0  0  0  0  0  0  0  0  0  0  0  0
   38.0230   31.1860   47.6300 N   0  0  0  0  0  0  0  0  0  0  0  0
   37.0480   31.2490   48.5900 C   0  0  0  0  0  0  0  0  0  0  0  0
   37.0390   32.2470   49.4860 N   0  0  0  0  0  0  0  0  0  0  0  0
   37.9310   33.9710   50.1920 H   0  0  0  0  0  0  0  0  0  0  0  0
   39.7540   33.9360   48.4710 H   0  0  0  0  0  0  0  0  0  0  0  0
   39.7760   32.0630   46.7850 H   0  0  0  0  0  0  0  0  0  0  0  0
   32.9380   29.2640   46.7010 C   0  0  0  0  0  0  0  0  0  0  0  0
   32.6940   30.5840   46.3790 F   0  0  0  0  0  0  0  0  0  0  0  0
   33.3690   28.5190   45.6200 F   0  0  0  0  0  0  0  0  0  0  0  0
   31.7530   28.6780   47.1120 F   0  0  0  0  0  0  0  0  0  0  0  0
  2  7  1  0  0  0  0
  2  1  1  0  0  0  0
  3  2  2  0  0  0  0
  4  5  2  0  0  0  0
  4  3  1  0  0  0  0
  5  6  1  0  0  0  0
  6  9  1  0  0  0  0
  6  7  2  0  0  0  0
  7 10  1  0  0  0  0
  8  4  1  0  0  0  0
 11 16  1  0  0  0  0
 11 17  1  0  0  0  0
 12 18  1  0  0  0  0
 12 11  2  0  0  0  0
 13 14  2  0  0  0  0
 13 12  1  0  0  0  0
 14 15  1  0  0  0  0
 15  3  1  0  0  0  0
 15 16  2  0  0  0  0
 19 13  1  0  0  0  0
 20 23  1  0  0  0  0
 20  5  1  0  0  0  0
 21 20  1  0  0  0  0
 22 20  1  0  0  0  0
M  END
>  <minimizedAffinity>
-5.7822628

>  <minimizedRMSD>
0.096228689

$$$$
