
 OpenBabel03272506473D

 37 39  0  0  1  0  0  0  0  0999 V2000
   32.2700   28.4130   47.2760 C   0  0  2  0  0  0  0  0  0  0  0  0
   33.4700   28.3410   48.1740 C   0  0  1  0  0  0  0  0  0  0  0  0
   33.9940   27.0870   48.0810 O   0  0  0  0  0  0  0  0  0  0  0  0
   33.4190   26.4300   46.9970 C   0  0  0  0  0  0  0  0  0  0  0  0
   32.7700   27.4790   46.1290 C   0  0  1  0  0  0  0  0  0  0  0  0
   31.3470   28.0090   47.6800 H   0  0  0  0  0  0  0  0  0  0  0  0
   33.2040   28.6590   49.1990 H   0  0  0  0  0  0  0  0  0  0  0  0
   32.7700   25.6710   47.4030 H   0  0  0  0  0  0  0  0  0  0  0  0
   34.2240   25.8820   46.4410 H   0  0  0  0  0  0  0  0  0  0  0  0
   33.4470   28.0670   45.5230 H   0  0  0  0  0  0  0  0  0  0  0  0
   32.1110   29.7150   46.7610 O   0  0  0  0  0  0  0  0  0  0  0  0
   31.2040   30.0470   46.8610 H   0  0  0  0  0  0  0  0  0  0  0  0
   34.7180   29.5270   47.5280 S   0  0  0  0  0  0  0  0  0  0  0  0
   37.1260   29.2270   50.6540 C   0  0  0  0  0  0  0  0  0  0  0  0
   37.5880   30.5270   50.8910 C   0  0  0  0  0  0  0  0  0  0  0  0
   37.1250   31.5410   50.0340 C   0  0  0  0  0  0  0  0  0  0  0  0
   36.2680   31.2110   49.0370 N   0  0  0  0  0  0  0  0  0  0  0  0
   35.8510   29.9380   48.8510 C   0  0  0  0  0  0  0  0  0  0  0  0
   36.2730   28.9280   49.6560 N   0  0  0  0  0  0  0  0  0  0  0  0
   37.4690   28.4340   51.2990 H   0  0  0  0  0  0  0  0  0  0  0  0
   38.2750   30.7610   51.6960 H   0  0  0  0  0  0  0  0  0  0  0  0
   37.4310   32.5600   50.1480 H   0  0  0  0  0  0  0  0  0  0  0  0
   31.7140   26.9120   45.4590 O   0  0  0  0  0  0  0  0  0  0  0  0
   30.2410   28.9080   43.8710 Cl  0  0  0  0  0  0  0  0  0  0  0  0
   29.6440   27.8740   45.1480 C   0  0  0  0  0  0  0  0  0  0  0  0
   30.4360   26.9650   45.8140 C   0  0  0  0  0  0  0  0  0  0  0  0
   29.8400   26.1760   46.8010 C   0  0  0  0  0  0  0  0  0  0  0  0
   28.4970   26.3100   47.0920 C   0  0  0  0  0  0  0  0  0  0  0  0
   27.6950   27.2220   46.4260 C   0  0  0  0  0  0  0  0  0  0  0  0
   28.2950   28.0060   45.4440 C   0  0  0  0  0  0  0  0  0  0  0  0
   30.3730   25.4360   47.3710 H   0  0  0  0  0  0  0  0  0  0  0  0
   27.9760   25.7340   47.8390 H   0  0  0  0  0  0  0  0  0  0  0  0
   26.6430   27.3360   46.6440 H   0  0  0  0  0  0  0  0  0  0  0  0
   27.4410   28.9870   44.7240 C   0  0  0  0  0  0  0  0  0  0  0  0
   27.5050   28.8200   43.3530 F   0  0  0  0  0  0  0  0  0  0  0  0
   27.9440   30.2580   45.0310 F   0  0  0  0  0  0  0  0  0  0  0  0
   26.1530   28.9820   45.1800 F   0  0  0  0  0  0  0  0  0  0  0  0
  1  6  1  1  0  0  0
  1  2  1  0  0  0  0
  2  7  1  1  0  0  0
  3  2  1  0  0  0  0
  4  8  1  0  0  0  0
  4  3  1  0  0  0  0
  5 10  1  6  0  0  0
  5  4  1  0  0  0  0
  5  1  1  0  0  0  0
  9  4  1  0  0  0  0
 11 12  1  0  0  0  0
 11  1  1  0  0  0  0
 13  2  1  0  0  0  0
 13 18  1  0  0  0  0
 14 15  1  0  0  0  0
 14 20  1  0  0  0  0
 15 21  1  0  0  0  0
 16 22  1  0  0  0  0
 16 15  2  0  0  0  0
 17 16  1  0  0  0  0
 18 17  2  0  0  0  0
 18 19  1  0  0  0  0
 19 14  2  0  0  0  0
 23 26  1  0  0  0  0
 23  5  1  0  0  0  0
 24 25  1  0  0  0  0
 25 30  2  0  0  0  0
 25 26  1  0  0  0  0
 26 27  2  0  0  0  0
 27 28  1  0  0  0  0
 27 31  1  0  0  0  0
 28 32  1  0  0  0  0
 29 33  1  0  0  0  0
 29 28  2  0  0  0  0
 30 29  1  0  0  0  0
 34 36  1  0  0  0  0
 34 37  1  0  0  0  0
 34 30  1  0  0  0  0
 35 34  1  0  0  0  0
M  END
>  <minimizedAffinity>
-4.73865652

>  <minimizedRMSD>
0.492951512

$$$$
