
 OpenBabel03272506043D

 33 35  0  0  0  0  0  0  0  0999 V2000
   37.1960   30.6960   44.5240 Cl  0  0  0  0  0  0  0  0  0  0  0  0
   38.3660   31.7820   45.2330 C   0  0  0  0  0  0  0  0  0  0  0  0
   38.3980   31.8980   46.5880 C   0  0  0  0  0  0  0  0  0  0  0  0
   39.3620   32.7850   47.0820 C   0  0  0  0  0  0  0  0  0  0  0  0
   40.2080   33.4820   46.2400 C   0  0  0  0  0  0  0  0  0  0  0  0
   40.1250   33.3210   44.8780 C   0  0  0  0  0  0  0  0  0  0  0  0
   39.1730   32.4420   44.3630 C   0  0  0  0  0  0  0  0  0  0  0  0
   39.4190   32.9070   48.1680 H   0  0  0  0  0  0  0  0  0  0  0  0
   40.9100   34.1360   46.7200 H   0  0  0  0  0  0  0  0  0  0  0  0
   40.7910   33.8730   44.2600 H   0  0  0  0  0  0  0  0  0  0  0  0
   40.8880   30.2950   43.3180 Cl  0  0  0  0  0  0  0  0  0  0  0  0
   39.9270   31.3550   42.3250 C   0  0  0  0  0  0  0  0  0  0  0  0
   39.1560   32.3350   42.9320 C   0  0  0  0  0  0  0  0  0  0  0  0
   38.3950   33.1730   42.1400 C   0  0  0  0  0  0  0  0  0  0  0  0
   38.4170   33.0230   40.7480 C   0  0  0  0  0  0  0  0  0  0  0  0
   39.2050   32.0270   40.1720 C   0  0  0  0  0  0  0  0  0  0  0  0
   39.2030   31.8720   38.4200 Cl  0  0  0  0  0  0  0  0  0  0  0  0
   39.9650   31.1860   40.9460 C   0  0  0  0  0  0  0  0  0  0  0  0
   37.7860   33.9470   42.6130 H   0  0  0  0  0  0  0  0  0  0  0  0
   37.8180   33.6840   40.1260 H   0  0  0  0  0  0  0  0  0  0  0  0
   40.5710   30.4210   40.4930 H   0  0  0  0  0  0  0  0  0  0  0  0
   37.9150   30.9480   48.8340 C   0  0  0  0  0  0  0  0  0  0  0  0
   37.5320   31.1890   47.5210 C   0  0  0  0  0  0  0  0  0  0  0  0
   36.2710   30.7270   47.1040 C   0  0  0  0  0  0  0  0  0  0  0  0
   35.5020   30.0710   48.0140 N   0  0  0  0  0  0  0  0  0  0  0  0
   35.8920   29.8530   49.2650 C   0  0  0  0  0  0  0  0  0  0  0  0
   37.0880   30.2860   49.6790 N   0  0  0  0  0  0  0  0  0  0  0  0
   38.8820   31.2880   49.1990 H   0  0  0  0  0  0  0  0  0  0  0  0
   35.9300   30.8920   46.0890 H   0  0  0  0  0  0  0  0  0  0  0  0
   35.0330   29.1330   50.2440 C   0  0  0  0  0  0  0  0  0  0  0  0
   34.7090   27.8570   49.8200 F   0  0  0  0  0  0  0  0  0  0  0  0
   35.6400   29.0660   51.4890 F   0  0  0  0  0  0  0  0  0  0  0  0
   33.8410   29.8230   50.4600 F   0  0  0  0  0  0  0  0  0  0  0  0
  1  2  1  0  0  0  0
  2  3  1  0  0  0  0
  3  4  2  0  0  0  0
  3 23  1  0  0  0  0
  4  8  1  0  0  0  0
  5  9  1  0  0  0  0
  5  4  1  0  0  0  0
  6  5  2  0  0  0  0
  7  6  1  0  0  0  0
  7  2  2  0  0  0  0
 10  6  1  0  0  0  0
 12 13  1  0  0  0  0
 12 11  1  0  0  0  0
 13  7  1  0  0  0  0
 14 19  1  0  0  0  0
 14 13  2  0  0  0  0
 15 14  1  0  0  0  0
 16 15  2  0  0  0  0
 16 18  1  0  0  0  0
 17 16  1  0  0  0  0
 18 12  2  0  0  0  0
 20 15  1  0  0  0  0
 21 18  1  0  0  0  0
 22 28  1  0  0  0  0
 22 27  1  0  0  0  0
 23 22  2  0  0  0  0
 24 23  1  0  0  0  0
 24 25  2  0  0  0  0
 25 26  1  0  0  0  0
 26 27  2  0  0  0  0
 26 30  1  0  0  0  0
 29 24  1  0  0  0  0
 30 33  1  0  0  0  0
 30 32  1  0  0  0  0
 31 30  1  0  0  0  0
M  END
>  <minimizedAffinity>
-6.74236536

>  <minimizedRMSD>
2.20887375

$$$$
