
 OpenBabel03262523093D

 15 15  0  0  0  0  0  0  0  0999 V2000
   37.3350   30.0670   50.9660 C   0  0  0  0  0  0  0  0  0  0  0  0
   37.8230   31.1270   50.1750 C   0  0  0  0  0  0  0  0  0  0  0  0
   37.1150   31.4460   49.0260 C   0  0  0  0  0  0  0  0  0  0  0  0
   36.0100   30.7290   48.7380 N   0  0  0  0  0  0  0  0  0  0  0  0
   35.5600   29.7220   49.5020 C   0  0  0  0  0  0  0  0  0  0  0  0
   36.2240   29.3960   50.6110 N   0  0  0  0  0  0  0  0  0  0  0  0
   38.7330   31.6480   50.5000 H   0  0  0  0  0  0  0  0  0  0  0  0
   37.4790   32.2660   48.4020 H   0  0  0  0  0  0  0  0  0  0  0  0
   34.3170   28.9540   49.1300 C   0  0  0  0  0  0  0  0  0  0  0  0
   33.7650   29.3740   47.9560 F   0  0  0  0  0  0  0  0  0  0  0  0
   33.3620   29.1070   50.1440 F   0  0  0  0  0  0  0  0  0  0  0  0
   34.5800   27.5820   49.0830 F   0  0  0  0  0  0  0  0  0  0  0  0
   37.9960   29.6550   52.1770 N   0  0  0  0  0  0  0  0  0  0  0  0
   37.7600   29.8560   53.1940 H   0  0  0  0  0  0  0  0  0  0  0  0
   38.8040   29.0840   51.7960 H   0  0  0  0  0  0  0  0  0  0  0  0
  1 13  1  0  0  0  0
  2  7  1  0  0  0  0
  2  1  2  0  0  0  0
  3  2  1  0  0  0  0
  4  3  2  0  0  0  0
  4  5  1  0  0  0  0
  5  6  2  0  0  0  0
  6  1  1  0  0  0  0
  8  3  1  0  0  0  0
  9  5  1  0  0  0  0
  9 11  1  0  0  0  0
 10  9  1  0  0  0  0
 12  9  1  0  0  0  0
 13 14  1  0  0  0  0
 15 13  1  0  0  0  0
M  END
>  <minimizedAffinity>
-4.30817747

>  <minimizedRMSD>
0.875611246

$$$$
