
 OpenBabel03272507153D

 35 38  0  0  0  0  0  0  0  0999 V2000
   37.8380   27.2030   34.0490 C   0  0  0  0  0  0  0  0  0  0  0  0
   37.3440   27.3640   32.8000 C   0  0  0  0  0  0  0  0  0  0  0  0
   36.3310   28.3220   32.8800 C   0  0  0  0  0  0  0  0  0  0  0  0
   36.2720   28.6970   34.2230 C   0  0  0  0  0  0  0  0  0  0  0  0
   37.1820   28.0010   34.8480 O   0  0  0  0  0  0  0  0  0  0  0  0
   37.6430   26.8670   31.8750 H   0  0  0  0  0  0  0  0  0  0  0  0
   35.7660   28.6460   32.0300 H   0  0  0  0  0  0  0  0  0  0  0  0
   34.0390   29.8010   34.2540 C   0  0  0  0  0  0  0  0  0  0  0  0
   35.3310   29.6890   34.7300 C   0  0  0  0  0  0  0  0  0  0  0  0
   35.8100   30.5260   35.7320 C   0  0  0  0  0  0  0  0  0  0  0  0
   34.9540   31.4760   36.2380 C   0  0  0  0  0  0  0  0  0  0  0  0
   35.1320   32.3990   37.1840 N   0  0  0  0  0  0  0  0  0  0  0  0
   33.9980   33.0880   37.3190 N   0  0  0  0  0  0  0  0  0  0  0  0
   33.0930   32.5950   36.4490 C   0  0  0  0  0  0  0  0  0  0  0  0
   33.6690   31.5640   35.7430 C   0  0  0  0  0  0  0  0  0  0  0  0
   33.1790   30.7300   34.7380 C   0  0  0  0  0  0  0  0  0  0  0  0
   33.7110   29.1280   33.4730 H   0  0  0  0  0  0  0  0  0  0  0  0
   36.8150   30.4870   36.1490 H   0  0  0  0  0  0  0  0  0  0  0  0
   36.0010   32.5790   37.7450 H   0  0  0  0  0  0  0  0  0  0  0  0
   32.0780   32.9900   36.3630 H   0  0  0  0  0  0  0  0  0  0  0  0
   32.1620   30.8390   34.3820 H   0  0  0  0  0  0  0  0  0  0  0  0
   38.9190   26.2680   34.3330 C   0  0  0  0  0  0  0  0  0  0  0  0
   40.0830   26.5640   33.9880 O   0  0  0  0  0  0  0  0  0  0  0  0
   38.5660   25.0330   35.0100 C   0  0  0  0  0  0  0  0  0  0  0  0
   38.3060   23.9280   34.2190 C   0  0  0  0  0  0  0  0  0  0  0  0
   37.9640   22.7200   34.8160 C   0  0  0  0  0  0  0  0  0  0  0  0
   37.9060   22.7120   36.1830 N   0  0  0  0  0  0  0  0  0  0  0  0
   38.1600   23.7870   36.9290 C   0  0  0  0  0  0  0  0  0  0  0  0
   38.4900   24.9490   36.3400 N   0  0  0  0  0  0  0  0  0  0  0  0
   38.3580   23.9570   33.1450 H   0  0  0  0  0  0  0  0  0  0  0  0
   37.7500   21.8260   34.2810 H   0  0  0  0  0  0  0  0  0  0  0  0
   38.0960   23.7720   38.4100 C   0  0  0  0  0  0  0  0  0  0  0  0
   37.7130   24.9820   38.9160 F   0  0  0  0  0  0  0  0  0  0  0  0
   37.2790   22.7440   38.8640 F   0  0  0  0  0  0  0  0  0  0  0  0
   39.3610   23.4860   38.9350 F   0  0  0  0  0  0  0  0  0  0  0  0
  1 22  1  0  0  0  0
  1  5  1  0  0  0  0
  2  3  1  0  0  0  0
  2  1  2  0  0  0  0
  3  4  2  0  0  0  0
  4  9  1  0  0  0  0
  4  5  1  0  0  0  0
  6  2  1  0  0  0  0
  7  3  1  0  0  0  0
  8  9  2  0  0  0  0
  8 16  1  0  0  0  0
  9 10  1  0  0  0  0
 10 18  1  0  0  0  0
 10 11  2  0  0  0  0
 11 12  1  0  0  0  0
 12 13  1  0  0  0  0
 12 19  1  0  0  0  0
 14 13  2  0  0  0  0
 15 11  1  0  0  0  0
 15 14  1  0  0  0  0
 16 15  2  0  0  0  0
 17  8  1  0  0  0  0
 20 14  1  0  0  0  0
 21 16  1  0  0  0  0
 22 24  1  0  0  0  0
 23 22  2  0  0  0  0
 24 29  1  0  0  0  0
 25 26  1  0  0  0  0
 25 24  2  0  0  0  0
 26 27  2  0  0  0  0
 27 28  1  0  0  0  0
 28 32  1  0  0  0  0
 29 28  2  0  0  0  0
 30 25  1  0  0  0  0
 31 26  1  0  0  0  0
 32 34  1  0  0  0  0
 32 33  1  0  0  0  0
 32 35  1  0  0  0  0
M  END
>  <minimizedAffinity>
-6.7138381

$$$$

 OpenBabel03272507153D

 35 38  0  0  0  0  0  0  0  0999 V2000
   37.8870   27.3510   33.9650 C   0  0  0  0  0  0  0  0  0  0  0  0
   37.7890   27.5130   32.6260 C   0  0  0  0  0  0  0  0  0  0  0  0
   36.6590   28.2990   32.3890 C   0  0  0  0  0  0  0  0  0  0  0  0
   36.1230   28.5760   33.6470 C   0  0  0  0  0  0  0  0  0  0  0  0
   36.8930   27.9890   34.5220 O   0  0  0  0  0  0  0  0  0  0  0  0
   38.4390   27.1250   31.8390 H   0  0  0  0  0  0  0  0  0  0  0  0
   36.3430   28.5850   31.4050 H   0  0  0  0  0  0  0  0  0  0  0  0
   34.8270   30.3630   34.8040 C   0  0  0  0  0  0  0  0  0  0  0  0
   34.9210   29.3810   33.8370 C   0  0  0  0  0  0  0  0  0  0  0  0
   33.8610   29.1030   32.9790 C   0  0  0  0  0  0  0  0  0  0  0  0
   32.7090   29.8380   33.1240 C   0  0  0  0  0  0  0  0  0  0  0  0
   31.5530   29.7940   32.4610 N   0  0  0  0  0  0  0  0  0  0  0  0
   30.7360   30.7140   32.9760 N   0  0  0  0  0  0  0  0  0  0  0  0
   31.3820   31.3460   33.9770 C   0  0  0  0  0  0  0  0  0  0  0  0
   32.6450   30.8130   34.1000 C   0  0  0  0  0  0  0  0  0  0  0  0
   33.7010   31.1000   34.9640 C   0  0  0  0  0  0  0  0  0  0  0  0
   35.6770   30.5430   35.4480 H   0  0  0  0  0  0  0  0  0  0  0  0
   33.8740   28.3430   32.1990 H   0  0  0  0  0  0  0  0  0  0  0  0
   31.2980   29.1580   31.6650 H   0  0  0  0  0  0  0  0  0  0  0  0
   30.9250   32.1470   34.5620 H   0  0  0  0  0  0  0  0  0  0  0  0
   33.6010   31.8750   35.7140 H   0  0  0  0  0  0  0  0  0  0  0  0
   38.9620   26.5760   34.5690 C   0  0  0  0  0  0  0  0  0  0  0  0
   40.1230   27.0390   34.5590 O   0  0  0  0  0  0  0  0  0  0  0  0
   38.6090   25.2950   35.1520 C   0  0  0  0  0  0  0  0  0  0  0  0
   38.3560   24.2490   34.2810 C   0  0  0  0  0  0  0  0  0  0  0  0
   38.0140   23.0010   34.7870 C   0  0  0  0  0  0  0  0  0  0  0  0
   37.9480   22.8930   36.1490 N   0  0  0  0  0  0  0  0  0  0  0  0
   38.1940   23.9110   36.9730 C   0  0  0  0  0  0  0  0  0  0  0  0
   38.5250   25.1140   36.4720 N   0  0  0  0  0  0  0  0  0  0  0  0
   38.4150   24.3570   33.2130 H   0  0  0  0  0  0  0  0  0  0  0  0
   37.8050   22.1480   34.1870 H   0  0  0  0  0  0  0  0  0  0  0  0
   38.1220   23.7900   38.4480 C   0  0  0  0  0  0  0  0  0  0  0  0
   37.7930   24.9750   39.0430 F   0  0  0  0  0  0  0  0  0  0  0  0
   37.2540   22.7700   38.8230 F   0  0  0  0  0  0  0  0  0  0  0  0
   39.3690   23.4050   38.9540 F   0  0  0  0  0  0  0  0  0  0  0  0
  1  5  1  0  0  0  0
  1 22  1  0  0  0  0
  2  1  2  0  0  0  0
  3  2  1  0  0  0  0
  3  4  2  0  0  0  0
  4  9  1  0  0  0  0
  4  5  1  0  0  0  0
  6  2  1  0  0  0  0
  7  3  1  0  0  0  0
  8 16  1  0  0  0  0
  8 17  1  0  0  0  0
  9  8  2  0  0  0  0
 10 11  2  0  0  0  0
 10  9  1  0  0  0  0
 11 15  1  0  0  0  0
 12 13  1  0  0  0  0
 12 11  1  0  0  0  0
 13 14  2  0  0  0  0
 14 15  1  0  0  0  0
 14 20  1  0  0  0  0
 15 16  2  0  0  0  0
 16 21  1  0  0  0  0
 18 10  1  0  0  0  0
 19 12  1  0  0  0  0
 22 24  1  0  0  0  0
 23 22  2  0  0  0  0
 24 29  1  0  0  0  0
 25 26  1  0  0  0  0
 25 24  2  0  0  0  0
 26 27  2  0  0  0  0
 27 28  1  0  0  0  0
 28 32  1  0  0  0  0
 29 28  2  0  0  0  0
 30 25  1  0  0  0  0
 31 26  1  0  0  0  0
 32 34  1  0  0  0  0
 32 35  1  0  0  0  0
 32 33  1  0  0  0  0
M  END
>  <minimizedAffinity>
-6.56884146

$$$$

 OpenBabel03272507153D

 35 38  0  0  0  0  0  0  0  0999 V2000
   38.0390   24.7380   33.2290 C   0  0  0  0  0  0  0  0  0  0  0  0
   38.9940   25.3230   32.4710 C   0  0  0  0  0  0  0  0  0  0  0  0
   38.5950   26.6450   32.2580 C   0  0  0  0  0  0  0  0  0  0  0  0
   37.3780   26.7830   32.9260 C   0  0  0  0  0  0  0  0  0  0  0  0
   37.1140   25.6280   33.4710 O   0  0  0  0  0  0  0  0  0  0  0  0
   39.9160   24.8920   32.0770 H   0  0  0  0  0  0  0  0  0  0  0  0
   39.1720   27.3430   31.6850 H   0  0  0  0  0  0  0  0  0  0  0  0
   36.1600   28.6030   34.1150 C   0  0  0  0  0  0  0  0  0  0  0  0
   36.6220   28.0310   32.9460 C   0  0  0  0  0  0  0  0  0  0  0  0
   36.3910   28.6220   31.7080 C   0  0  0  0  0  0  0  0  0  0  0  0
   35.6820   29.8000   31.6820 C   0  0  0  0  0  0  0  0  0  0  0  0
   35.3130   30.5770   30.6640 N   0  0  0  0  0  0  0  0  0  0  0  0
   34.6360   31.6180   31.1510 N   0  0  0  0  0  0  0  0  0  0  0  0
   34.5750   31.4960   32.4920 C   0  0  0  0  0  0  0  0  0  0  0  0
   35.2330   30.3470   32.8670 C   0  0  0  0  0  0  0  0  0  0  0  0
   35.4590   29.7620   34.1140 C   0  0  0  0  0  0  0  0  0  0  0  0
   36.3640   28.1060   35.0550 H   0  0  0  0  0  0  0  0  0  0  0  0
   36.7280   28.2210   30.7530 H   0  0  0  0  0  0  0  0  0  0  0  0
   35.5080   30.4260   29.6430 H   0  0  0  0  0  0  0  0  0  0  0  0
   34.0700   32.2260   33.1300 H   0  0  0  0  0  0  0  0  0  0  0  0
   35.0850   30.2310   35.0150 H   0  0  0  0  0  0  0  0  0  0  0  0
   38.1350   23.3450   33.6440 C   0  0  0  0  0  0  0  0  0  0  0  0
   37.6380   22.4590   32.9150 O   0  0  0  0  0  0  0  0  0  0  0  0
   38.8120   23.0710   34.8990 C   0  0  0  0  0  0  0  0  0  0  0  0
   40.0050   22.3710   34.8360 C   0  0  0  0  0  0  0  0  0  0  0  0
   40.6950   22.0830   36.0070 C   0  0  0  0  0  0  0  0  0  0  0  0
   40.1280   22.5230   37.1720 N   0  0  0  0  0  0  0  0  0  0  0  0
   38.9790   23.1970   37.2140 C   0  0  0  0  0  0  0  0  0  0  0  0
   38.3210   23.4700   36.0740 N   0  0  0  0  0  0  0  0  0  0  0  0
   40.4320   22.0340   33.9080 H   0  0  0  0  0  0  0  0  0  0  0  0
   41.6150   21.5510   36.0450 H   0  0  0  0  0  0  0  0  0  0  0  0
   38.3690   23.6730   38.4780 C   0  0  0  0  0  0  0  0  0  0  0  0
   37.2910   22.9170   38.8410 F   0  0  0  0  0  0  0  0  0  0  0  0
   39.3150   23.7390   39.4940 F   0  0  0  0  0  0  0  0  0  0  0  0
   37.9180   24.9880   38.3200 F   0  0  0  0  0  0  0  0  0  0  0  0
  1  5  1  0  0  0  0
  1 22  1  0  0  0  0
  2  1  2  0  0  0  0
  3  2  1  0  0  0  0
  3  4  2  0  0  0  0
  4  9  1  0  0  0  0
  4  5  1  0  0  0  0
  6  2  1  0  0  0  0
  7  3  1  0  0  0  0
  8 17  1  0  0  0  0
  9  8  2  0  0  0  0
 10  9  1  0  0  0  0
 11 10  2  0  0  0  0
 11 15  1  0  0  0  0
 12 13  1  0  0  0  0
 12 11  1  0  0  0  0
 13 14  2  0  0  0  0
 14 15  1  0  0  0  0
 14 20  1  0  0  0  0
 15 16  2  0  0  0  0
 16  8  1  0  0  0  0
 16 21  1  0  0  0  0
 18 10  1  0  0  0  0
 19 12  1  0  0  0  0
 22 24  1  0  0  0  0
 23 22  2  0  0  0  0
 24 29  1  0  0  0  0
 25 24  2  0  0  0  0
 25 26  1  0  0  0  0
 26 31  1  0  0  0  0
 26 27  2  0  0  0  0
 27 28  1  0  0  0  0
 28 32  1  0  0  0  0
 29 28  2  0  0  0  0
 30 25  1  0  0  0  0
 32 33  1  0  0  0  0
 32 34  1  0  0  0  0
 35 32  1  0  0  0  0
M  END
>  <minimizedAffinity>
-6.37379551

$$$$

 OpenBabel03272507153D

 35 38  0  0  0  0  0  0  0  0999 V2000
   36.9140   28.0560   32.5000 C   0  0  0  0  0  0  0  0  0  0  0  0
   38.0060   27.8100   31.7420 C   0  0  0  0  0  0  0  0  0  0  0  0
   38.7500   26.8270   32.4000 C   0  0  0  0  0  0  0  0  0  0  0  0
   38.0350   26.5280   33.5600 C   0  0  0  0  0  0  0  0  0  0  0  0
   36.9720   27.2850   33.5530 O   0  0  0  0  0  0  0  0  0  0  0  0
   38.2970   28.2620   30.7920 H   0  0  0  0  0  0  0  0  0  0  0  0
   39.6720   26.4390   32.0170 H   0  0  0  0  0  0  0  0  0  0  0  0
   39.4720   24.6150   34.2580 C   0  0  0  0  0  0  0  0  0  0  0  0
   38.4810   25.5370   34.5340 C   0  0  0  0  0  0  0  0  0  0  0  0
   37.8480   25.5740   35.7720 C   0  0  0  0  0  0  0  0  0  0  0  0
   38.2390   24.6580   36.7190 C   0  0  0  0  0  0  0  0  0  0  0  0
   37.8180   24.4570   37.9690 N   0  0  0  0  0  0  0  0  0  0  0  0
   38.5100   23.4410   38.4880 N   0  0  0  0  0  0  0  0  0  0  0  0
   39.3760   22.9950   37.5570 C   0  0  0  0  0  0  0  0  0  0  0  0
   39.2320   23.7490   36.4150 C   0  0  0  0  0  0  0  0  0  0  0  0
   39.8730   23.7030   35.1760 C   0  0  0  0  0  0  0  0  0  0  0  0
   39.9360   24.6250   33.2810 H   0  0  0  0  0  0  0  0  0  0  0  0
   37.0620   26.2750   36.0500 H   0  0  0  0  0  0  0  0  0  0  0  0
   37.0750   24.9880   38.4850 H   0  0  0  0  0  0  0  0  0  0  0  0
   40.0620   22.1630   37.7370 H   0  0  0  0  0  0  0  0  0  0  0  0
   40.6460   22.9700   34.9860 H   0  0  0  0  0  0  0  0  0  0  0  0
   35.9120   29.0380   32.1080 C   0  0  0  0  0  0  0  0  0  0  0  0
   35.8180   29.3620   30.9050 O   0  0  0  0  0  0  0  0  0  0  0  0
   35.0730   29.5840   33.1590 C   0  0  0  0  0  0  0  0  0  0  0  0
   33.7370   29.2180   33.1590 C   0  0  0  0  0  0  0  0  0  0  0  0
   32.8890   29.7120   34.1440 C   0  0  0  0  0  0  0  0  0  0  0  0
   33.4520   30.5500   35.0670 N   0  0  0  0  0  0  0  0  0  0  0  0
   34.7400   30.8930   35.0510 C   0  0  0  0  0  0  0  0  0  0  0  0
   35.5500   30.4080   34.0950 N   0  0  0  0  0  0  0  0  0  0  0  0
   33.3170   28.5560   32.4230 H   0  0  0  0  0  0  0  0  0  0  0  0
   31.8540   29.4790   34.2140 H   0  0  0  0  0  0  0  0  0  0  0  0
   35.3440   31.8010   36.0540 C   0  0  0  0  0  0  0  0  0  0  0  0
   34.7480   31.6810   37.2770 F   0  0  0  0  0  0  0  0  0  0  0  0
   36.7190   31.6130   36.1330 F   0  0  0  0  0  0  0  0  0  0  0  0
   35.1860   33.1300   35.6450 F   0  0  0  0  0  0  0  0  0  0  0  0
  1  5  1  0  0  0  0
  2  3  1  0  0  0  0
  2  1  2  0  0  0  0
  3  4  2  0  0  0  0
  4  9  1  0  0  0  0
  5  4  1  0  0  0  0
  6  2  1  0  0  0  0
  7  3  1  0  0  0  0
  8  9  2  0  0  0  0
  8 16  1  0  0  0  0
  9 10  1  0  0  0  0
 10 18  1  0  0  0  0
 10 11  2  0  0  0  0
 11 12  1  0  0  0  0
 12 19  1  0  0  0  0
 12 13  1  0  0  0  0
 14 20  1  0  0  0  0
 14 13  2  0  0  0  0
 15 11  1  0  0  0  0
 15 14  1  0  0  0  0
 16 15  2  0  0  0  0
 17  8  1  0  0  0  0
 21 16  1  0  0  0  0
 22  1  1  0  0  0  0
 22 24  1  0  0  0  0
 23 22  2  0  0  0  0
 24 25  2  0  0  0  0
 24 29  1  0  0  0  0
 25 26  1  0  0  0  0
 26 31  1  0  0  0  0
 26 27  2  0  0  0  0
 28 27  1  0  0  0  0
 28 32  1  0  0  0  0
 29 28  2  0  0  0  0
 30 25  1  0  0  0  0
 32 34  1  0  0  0  0
 32 33  1  0  0  0  0
 35 32  1  0  0  0  0
M  END
>  <minimizedAffinity>
-6.26938009

$$$$

 OpenBabel03272507153D

 35 38  0  0  0  0  0  0  0  0999 V2000
   36.2170   28.4780   33.3090 C   0  0  0  0  0  0  0  0  0  0  0  0
   37.0620   28.2180   32.2860 C   0  0  0  0  0  0  0  0  0  0  0  0
   37.8910   27.1710   32.6940 C   0  0  0  0  0  0  0  0  0  0  0  0
   37.4800   26.8480   33.9880 C   0  0  0  0  0  0  0  0  0  0  0  0
   36.4970   27.6540   34.2830 O   0  0  0  0  0  0  0  0  0  0  0  0
   37.1270   28.7030   31.3100 H   0  0  0  0  0  0  0  0  0  0  0  0
   38.6600   26.7580   32.0720 H   0  0  0  0  0  0  0  0  0  0  0  0
   39.0990   24.9750   34.2770 C   0  0  0  0  0  0  0  0  0  0  0  0
   38.1020   25.7910   34.7780 C   0  0  0  0  0  0  0  0  0  0  0  0
   37.6320   25.6470   36.0800 C   0  0  0  0  0  0  0  0  0  0  0  0
   38.1920   24.6630   36.8580 C   0  0  0  0  0  0  0  0  0  0  0  0
   37.9480   24.2980   38.1180 N   0  0  0  0  0  0  0  0  0  0  0  0
   38.7550   23.2820   38.4260 N   0  0  0  0  0  0  0  0  0  0  0  0
   39.5180   23.0010   37.3500 C   0  0  0  0  0  0  0  0  0  0  0  0
   39.1860   23.8630   36.3310 C   0  0  0  0  0  0  0  0  0  0  0  0
   39.6640   23.9990   35.0270 C   0  0  0  0  0  0  0  0  0  0  0  0
   39.4310   25.1240   33.2590 H   0  0  0  0  0  0  0  0  0  0  0  0
   36.8510   26.2580   36.5310 H   0  0  0  0  0  0  0  0  0  0  0  0
   37.2480   24.7170   38.7790 H   0  0  0  0  0  0  0  0  0  0  0  0
   40.2650   22.2040   37.3470 H   0  0  0  0  0  0  0  0  0  0  0  0
   40.4460   23.3460   34.6590 H   0  0  0  0  0  0  0  0  0  0  0  0
   35.2070   29.5250   33.2250 C   0  0  0  0  0  0  0  0  0  0  0  0
   34.6260   29.7200   32.1350 O   0  0  0  0  0  0  0  0  0  0  0  0
   34.9360   30.2840   34.4320 C   0  0  0  0  0  0  0  0  0  0  0  0
   35.9580   31.0760   34.9260 C   0  0  0  0  0  0  0  0  0  0  0  0
   35.7520   31.8240   36.0790 C   0  0  0  0  0  0  0  0  0  0  0  0
   34.5180   31.7180   36.6600 N   0  0  0  0  0  0  0  0  0  0  0  0
   33.5450   30.9500   36.1710 C   0  0  0  0  0  0  0  0  0  0  0  0
   33.7560   30.2320   35.0550 N   0  0  0  0  0  0  0  0  0  0  0  0
   36.9210   31.1440   34.4520 H   0  0  0  0  0  0  0  0  0  0  0  0
   36.4840   32.4560   36.5220 H   0  0  0  0  0  0  0  0  0  0  0  0
   32.2100   30.8400   36.8040 C   0  0  0  0  0  0  0  0  0  0  0  0
   31.2590   30.4180   35.9190 F   0  0  0  0  0  0  0  0  0  0  0  0
   32.2580   30.0270   37.9310 F   0  0  0  0  0  0  0  0  0  0  0  0
   31.8070   32.0920   37.2800 F   0  0  0  0  0  0  0  0  0  0  0  0
  1  5  1  0  0  0  0
  2  3  1  0  0  0  0
  2  1  2  0  0  0  0
  3  4  2  0  0  0  0
  4  5  1  0  0  0  0
  4  9  1  0  0  0  0
  6  2  1  0  0  0  0
  7  3  1  0  0  0  0
  8  9  2  0  0  0  0
  8 16  1  0  0  0  0
  9 10  1  0  0  0  0
 10 18  1  0  0  0  0
 10 11  2  0  0  0  0
 11 12  1  0  0  0  0
 12 13  1  0  0  0  0
 12 19  1  0  0  0  0
 14 13  2  0  0  0  0
 15 11  1  0  0  0  0
 15 14  1  0  0  0  0
 16 15  2  0  0  0  0
 17  8  1  0  0  0  0
 20 14  1  0  0  0  0
 21 16  1  0  0  0  0
 22  1  1  0  0  0  0
 22 24  1  0  0  0  0
 23 22  2  0  0  0  0
 24 25  2  0  0  0  0
 24 29  1  0  0  0  0
 25 26  1  0  0  0  0
 26 31  1  0  0  0  0
 26 27  2  0  0  0  0
 28 27  1  0  0  0  0
 28 32  1  0  0  0  0
 29 28  2  0  0  0  0
 30 25  1  0  0  0  0
 32 35  1  0  0  0  0
 32 34  1  0  0  0  0
 33 32  1  0  0  0  0
M  END
>  <minimizedAffinity>
-6.25461864

$$$$

 OpenBabel03272507153D

 35 38  0  0  0  0  0  0  0  0999 V2000
   36.5460   27.5660   33.0960 C   0  0  0  0  0  0  0  0  0  0  0  0
   36.5360   28.4770   32.0970 C   0  0  0  0  0  0  0  0  0  0  0  0
   36.0180   29.6610   32.6270 C   0  0  0  0  0  0  0  0  0  0  0  0
   35.7360   29.3830   33.9650 C   0  0  0  0  0  0  0  0  0  0  0  0
   36.0690   28.1380   34.1690 O   0  0  0  0  0  0  0  0  0  0  0  0
   36.8590   28.3610   31.0610 H   0  0  0  0  0  0  0  0  0  0  0  0
   35.8980   30.5560   32.0490 H   0  0  0  0  0  0  0  0  0  0  0  0
   35.9570   31.2310   35.6230 C   0  0  0  0  0  0  0  0  0  0  0  0
   35.1720   30.3710   34.8790 C   0  0  0  0  0  0  0  0  0  0  0  0
   33.7840   30.4030   34.9590 C   0  0  0  0  0  0  0  0  0  0  0  0
   33.2120   31.3190   35.8090 C   0  0  0  0  0  0  0  0  0  0  0  0
   31.9330   31.5740   36.0890 N   0  0  0  0  0  0  0  0  0  0  0  0
   31.8860   32.5620   36.9830 N   0  0  0  0  0  0  0  0  0  0  0  0
   33.1490   32.9370   37.2710 C   0  0  0  0  0  0  0  0  0  0  0  0
   34.0210   32.1650   36.5400 C   0  0  0  0  0  0  0  0  0  0  0  0
   35.4150   32.1420   36.4660 C   0  0  0  0  0  0  0  0  0  0  0  0
   37.0330   31.1690   35.5270 H   0  0  0  0  0  0  0  0  0  0  0  0
   33.1120   29.7530   34.4000 H   0  0  0  0  0  0  0  0  0  0  0  0
   31.0860   31.0980   35.6920 H   0  0  0  0  0  0  0  0  0  0  0  0
   33.3820   33.7340   37.9820 H   0  0  0  0  0  0  0  0  0  0  0  0
   36.0060   32.8260   37.0610 H   0  0  0  0  0  0  0  0  0  0  0  0
   37.0280   26.2070   32.8920 C   0  0  0  0  0  0  0  0  0  0  0  0
   36.5450   25.5250   31.9620 O   0  0  0  0  0  0  0  0  0  0  0  0
   38.0560   25.7250   33.7960 C   0  0  0  0  0  0  0  0  0  0  0  0
   39.3730   25.8650   33.3920 C   0  0  0  0  0  0  0  0  0  0  0  0
   40.3970   25.4210   34.2200 C   0  0  0  0  0  0  0  0  0  0  0  0
   40.0190   24.8600   35.4090 N   0  0  0  0  0  0  0  0  0  0  0  0
   38.7450   24.7320   35.7820 C   0  0  0  0  0  0  0  0  0  0  0  0
   37.7640   25.1660   34.9730 N   0  0  0  0  0  0  0  0  0  0  0  0
   39.6470   26.3110   32.4530 H   0  0  0  0  0  0  0  0  0  0  0  0
   41.4320   25.4930   33.9840 H   0  0  0  0  0  0  0  0  0  0  0  0
   38.3400   24.1230   37.0710 C   0  0  0  0  0  0  0  0  0  0  0  0
   38.0750   25.0680   38.0210 F   0  0  0  0  0  0  0  0  0  0  0  0
   37.2680   23.2550   36.8980 F   0  0  0  0  0  0  0  0  0  0  0  0
   39.3770   23.3220   37.5620 F   0  0  0  0  0  0  0  0  0  0  0  0
  1  5  1  0  0  0  0
  2  3  1  0  0  0  0
  2  1  2  0  0  0  0
  3  4  2  0  0  0  0
  4  5  1  0  0  0  0
  4  9  1  0  0  0  0
  6  2  1  0  0  0  0
  7  3  1  0  0  0  0
  8 16  1  0  0  0  0
  9 10  1  0  0  0  0
  9  8  2  0  0  0  0
 10 11  2  0  0  0  0
 11 12  1  0  0  0  0
 11 15  1  0  0  0  0
 12 13  1  0  0  0  0
 13 14  2  0  0  0  0
 14 20  1  0  0  0  0
 15 14  1  0  0  0  0
 16 15  2  0  0  0  0
 16 21  1  0  0  0  0
 17  8  1  0  0  0  0
 18 10  1  0  0  0  0
 19 12  1  0  0  0  0
 22  1  1  0  0  0  0
 22 24  1  0  0  0  0
 23 22  2  0  0  0  0
 24 29  1  0  0  0  0
 25 24  2  0  0  0  0
 25 26  1  0  0  0  0
 26 27  2  0  0  0  0
 27 28  1  0  0  0  0
 28 32  1  0  0  0  0
 29 28  2  0  0  0  0
 30 25  1  0  0  0  0
 31 26  1  0  0  0  0
 32 35  1  0  0  0  0
 32 33  1  0  0  0  0
 34 32  1  0  0  0  0
M  END
>  <minimizedAffinity>
-6.19198418

$$$$

 OpenBabel03272507153D

 35 38  0  0  0  0  0  0  0  0999 V2000
   37.7150   26.8390   34.1560 C   0  0  0  0  0  0  0  0  0  0  0  0
   37.9050   27.6250   35.2390 C   0  0  0  0  0  0  0  0  0  0  0  0
   36.9440   28.6380   35.1850 C   0  0  0  0  0  0  0  0  0  0  0  0
   36.2020   28.3920   34.0290 C   0  0  0  0  0  0  0  0  0  0  0  0
   36.7100   27.3240   33.4770 O   0  0  0  0  0  0  0  0  0  0  0  0
   38.6500   27.5320   36.0310 H   0  0  0  0  0  0  0  0  0  0  0  0
   36.8640   29.4070   35.9270 H   0  0  0  0  0  0  0  0  0  0  0  0
   34.0000   29.4910   34.4170 C   0  0  0  0  0  0  0  0  0  0  0  0
   35.0890   29.2340   33.6070 C   0  0  0  0  0  0  0  0  0  0  0  0
   35.1850   29.7730   32.3280 C   0  0  0  0  0  0  0  0  0  0  0  0
   34.1570   30.5730   31.8900 C   0  0  0  0  0  0  0  0  0  0  0  0
   33.9760   31.2130   30.7340 N   0  0  0  0  0  0  0  0  0  0  0  0
   32.8130   31.8630   30.7890 N   0  0  0  0  0  0  0  0  0  0  0  0
   32.2510   31.6310   31.9930 C   0  0  0  0  0  0  0  0  0  0  0  0
   33.0820   30.8110   32.7220 C   0  0  0  0  0  0  0  0  0  0  0  0
   32.9750   30.2760   34.0070 C   0  0  0  0  0  0  0  0  0  0  0  0
   33.9690   29.0490   35.4040 H   0  0  0  0  0  0  0  0  0  0  0  0
   36.0160   29.6080   31.6430 H   0  0  0  0  0  0  0  0  0  0  0  0
   34.6200   31.2240   29.9050 H   0  0  0  0  0  0  0  0  0  0  0  0
   31.2880   32.0540   32.2870 H   0  0  0  0  0  0  0  0  0  0  0  0
   32.1110   30.4930   34.6210 H   0  0  0  0  0  0  0  0  0  0  0  0
   38.5520   25.6750   33.8950 C   0  0  0  0  0  0  0  0  0  0  0  0
   39.4030   25.7330   32.9810 O   0  0  0  0  0  0  0  0  0  0  0  0
   38.3380   24.5050   34.7270 C   0  0  0  0  0  0  0  0  0  0  0  0
   38.0680   23.3090   34.0820 C   0  0  0  0  0  0  0  0  0  0  0  0
   37.8570   22.1580   34.8320 C   0  0  0  0  0  0  0  0  0  0  0  0
   37.9300   22.2940   36.1910 N   0  0  0  0  0  0  0  0  0  0  0  0
   38.1910   23.4540   36.7940 C   0  0  0  0  0  0  0  0  0  0  0  0
   38.3950   24.5600   36.0590 N   0  0  0  0  0  0  0  0  0  0  0  0
   38.0160   23.2260   33.0120 H   0  0  0  0  0  0  0  0  0  0  0  0
   37.6450   21.2030   34.4150 H   0  0  0  0  0  0  0  0  0  0  0  0
   38.2710   23.5950   38.2670 C   0  0  0  0  0  0  0  0  0  0  0  0
   39.4980   23.2380   38.7490 F   0  0  0  0  0  0  0  0  0  0  0  0
   37.9180   24.8800   38.6650 F   0  0  0  0  0  0  0  0  0  0  0  0
   37.3270   22.7590   38.8750 F   0  0  0  0  0  0  0  0  0  0  0  0
  1  2  2  0  0  0  0
  2  6  1  0  0  0  0
  3  2  1  0  0  0  0
  3  7  1  0  0  0  0
  4  3  2  0  0  0  0
  5  4  1  0  0  0  0
  5  1  1  0  0  0  0
  8 17  1  0  0  0  0
  9  4  1  0  0  0  0
  9  8  2  0  0  0  0
 10  9  1  0  0  0  0
 11 10  2  0  0  0  0
 11 15  1  0  0  0  0
 12 13  1  0  0  0  0
 12 11  1  0  0  0  0
 13 14  2  0  0  0  0
 14 20  1  0  0  0  0
 14 15  1  0  0  0  0
 15 16  2  0  0  0  0
 16  8  1  0  0  0  0
 16 21  1  0  0  0  0
 18 10  1  0  0  0  0
 19 12  1  0  0  0  0
 22  1  1  0  0  0  0
 22 24  1  0  0  0  0
 23 22  2  0  0  0  0
 24 29  1  0  0  0  0
 25 24  2  0  0  0  0
 25 26  1  0  0  0  0
 26 27  2  0  0  0  0
 27 28  1  0  0  0  0
 28 32  1  0  0  0  0
 29 28  2  0  0  0  0
 30 25  1  0  0  0  0
 31 26  1  0  0  0  0
 32 34  1  0  0  0  0
 32 33  1  0  0  0  0
 32 35  1  0  0  0  0
M  END
>  <minimizedAffinity>
-6.17382002

$$$$

 OpenBabel03272507153D

 35 38  0  0  0  0  0  0  0  0999 V2000
   38.1140   25.3270   35.4700 C   0  0  0  0  0  0  0  0  0  0  0  0
   38.5170   26.3710   36.2290 C   0  0  0  0  0  0  0  0  0  0  0  0
   38.0470   27.5320   35.6130 C   0  0  0  0  0  0  0  0  0  0  0  0
   37.3610   27.1040   34.4750 C   0  0  0  0  0  0  0  0  0  0  0  0
   37.4420   25.8020   34.4550 O   0  0  0  0  0  0  0  0  0  0  0  0
   39.0980   26.3620   37.1530 H   0  0  0  0  0  0  0  0  0  0  0  0
   38.2230   28.5140   36.0060 H   0  0  0  0  0  0  0  0  0  0  0  0
   36.9840   28.0300   32.1920 C   0  0  0  0  0  0  0  0  0  0  0  0
   36.7120   28.0240   33.5470 C   0  0  0  0  0  0  0  0  0  0  0  0
   35.7920   28.9040   34.1060 C   0  0  0  0  0  0  0  0  0  0  0  0
   35.1570   29.7880   33.2660 C   0  0  0  0  0  0  0  0  0  0  0  0
   34.2470   30.7310   33.5130 N   0  0  0  0  0  0  0  0  0  0  0  0
   33.9370   31.3290   32.3620 N   0  0  0  0  0  0  0  0  0  0  0  0
   34.6590   30.7590   31.3770 C   0  0  0  0  0  0  0  0  0  0  0  0
   35.4500   29.7710   31.9170 C   0  0  0  0  0  0  0  0  0  0  0  0
   36.3710   28.8920   31.3460 C   0  0  0  0  0  0  0  0  0  0  0  0
   37.7080   27.3270   31.8030 H   0  0  0  0  0  0  0  0  0  0  0  0
   35.5350   28.9480   35.1640 H   0  0  0  0  0  0  0  0  0  0  0  0
   33.8250   30.9830   34.4410 H   0  0  0  0  0  0  0  0  0  0  0  0
   34.5870   31.0730   30.3320 H   0  0  0  0  0  0  0  0  0  0  0  0
   36.5660   28.9180   30.2810 H   0  0  0  0  0  0  0  0  0  0  0  0
   38.4340   23.9510   35.8230 C   0  0  0  0  0  0  0  0  0  0  0  0
   38.8020   23.6940   36.9890 O   0  0  0  0  0  0  0  0  0  0  0  0
   38.3020   22.9510   34.7790 C   0  0  0  0  0  0  0  0  0  0  0  0
   39.3800   22.7780   33.9260 C   0  0  0  0  0  0  0  0  0  0  0  0
   39.3070   21.8330   32.9100 C   0  0  0  0  0  0  0  0  0  0  0  0
   38.1410   21.1230   32.8210 N   0  0  0  0  0  0  0  0  0  0  0  0
   37.1130   21.3030   33.6500 C   0  0  0  0  0  0  0  0  0  0  0  0
   37.1960   22.2190   34.6300 N   0  0  0  0  0  0  0  0  0  0  0  0
   40.2870   23.3470   34.0150 H   0  0  0  0  0  0  0  0  0  0  0  0
   40.0880   21.6390   32.2150 H   0  0  0  0  0  0  0  0  0  0  0  0
   35.8520   20.5310   33.5500 C   0  0  0  0  0  0  0  0  0  0  0  0
   36.0510   19.2990   32.9940 F   0  0  0  0  0  0  0  0  0  0  0  0
   35.2230   20.4400   34.7870 F   0  0  0  0  0  0  0  0  0  0  0  0
   34.9430   21.2120   32.7330 F   0  0  0  0  0  0  0  0  0  0  0  0
  1 22  1  0  0  0  0
  1  2  2  0  0  0  0
  2  6  1  0  0  0  0
  3  7  1  0  0  0  0
  3  2  1  0  0  0  0
  4  3  2  0  0  0  0
  5  4  1  0  0  0  0
  5  1  1  0  0  0  0
  8  9  1  0  0  0  0
  9 10  2  0  0  0  0
  9  4  1  0  0  0  0
 10 18  1  0  0  0  0
 11 12  1  0  0  0  0
 11 10  1  0  0  0  0
 12 19  1  0  0  0  0
 13 12  1  0  0  0  0
 14 15  1  0  0  0  0
 14 13  2  0  0  0  0
 15 11  2  0  0  0  0
 16 15  1  0  0  0  0
 16  8  2  0  0  0  0
 17  8  1  0  0  0  0
 20 14  1  0  0  0  0
 21 16  1  0  0  0  0
 22 23  2  0  0  0  0
 24 22  1  0  0  0  0
 25 30  1  0  0  0  0
 25 24  2  0  0  0  0
 26 25  1  0  0  0  0
 27 26  2  0  0  0  0
 27 28  1  0  0  0  0
 28 29  2  0  0  0  0
 29 24  1  0  0  0  0
 31 26  1  0  0  0  0
 32 28  1  0  0  0  0
 32 34  1  0  0  0  0
 33 32  1  0  0  0  0
 35 32  1  0  0  0  0
M  END
>  <minimizedAffinity>
-6.12412071

$$$$

 OpenBabel03272507153D

 35 38  0  0  0  0  0  0  0  0999 V2000
   38.0660   25.0520   33.7750 C   0  0  0  0  0  0  0  0  0  0  0  0
   39.1240   25.7050   33.2450 C   0  0  0  0  0  0  0  0  0  0  0  0
   38.7050   27.0080   32.9660 C   0  0  0  0  0  0  0  0  0  0  0  0
   37.3680   27.0650   33.3600 C   0  0  0  0  0  0  0  0  0  0  0  0
   37.0610   25.8850   33.8240 O   0  0  0  0  0  0  0  0  0  0  0  0
   40.1320   25.3330   33.0510 H   0  0  0  0  0  0  0  0  0  0  0  0
   39.3490   27.7490   32.5370 H   0  0  0  0  0  0  0  0  0  0  0  0
   35.9840   28.9030   34.3210 C   0  0  0  0  0  0  0  0  0  0  0  0
   36.5540   28.2700   33.2330 C   0  0  0  0  0  0  0  0  0  0  0  0
   36.3830   28.7540   31.9400 C   0  0  0  0  0  0  0  0  0  0  0  0
   35.6230   29.8870   31.7750 C   0  0  0  0  0  0  0  0  0  0  0  0
   35.2910   30.5670   30.6770 N   0  0  0  0  0  0  0  0  0  0  0  0
   34.5330   31.6030   31.0350 N   0  0  0  0  0  0  0  0  0  0  0  0
   34.3830   31.5790   32.3750 C   0  0  0  0  0  0  0  0  0  0  0  0
   35.0660   30.4970   32.8810 C   0  0  0  0  0  0  0  0  0  0  0  0
   35.2320   30.0200   34.1820 C   0  0  0  0  0  0  0  0  0  0  0  0
   36.1450   28.4890   35.3070 H   0  0  0  0  0  0  0  0  0  0  0  0
   36.8050   28.3010   31.0440 H   0  0  0  0  0  0  0  0  0  0  0  0
   35.5630   30.3500   29.6860 H   0  0  0  0  0  0  0  0  0  0  0  0
   33.8010   32.3270   32.9190 H   0  0  0  0  0  0  0  0  0  0  0  0
   34.7740   30.5350   35.0170 H   0  0  0  0  0  0  0  0  0  0  0  0
   38.1510   23.6570   34.1850 C   0  0  0  0  0  0  0  0  0  0  0  0
   37.7460   22.7690   33.4040 O   0  0  0  0  0  0  0  0  0  0  0  0
   38.7090   23.3840   35.4970 C   0  0  0  0  0  0  0  0  0  0  0  0
   37.9690   23.7830   36.5970 C   0  0  0  0  0  0  0  0  0  0  0  0
   38.4570   23.5460   37.8770 C   0  0  0  0  0  0  0  0  0  0  0  0
   39.6700   22.9190   37.9590 N   0  0  0  0  0  0  0  0  0  0  0  0
   40.3700   22.5410   36.8890 C   0  0  0  0  0  0  0  0  0  0  0  0
   39.8870   22.7760   35.6560 N   0  0  0  0  0  0  0  0  0  0  0  0
   37.0170   24.2740   36.5090 H   0  0  0  0  0  0  0  0  0  0  0  0
   37.9510   23.8190   38.7710 H   0  0  0  0  0  0  0  0  0  0  0  0
   41.6830   21.8620   36.9830 C   0  0  0  0  0  0  0  0  0  0  0  0
   42.7200   22.7510   36.9590 F   0  0  0  0  0  0  0  0  0  0  0  0
   41.7400   21.0380   38.1010 F   0  0  0  0  0  0  0  0  0  0  0  0
   41.8500   21.0010   35.8920 F   0  0  0  0  0  0  0  0  0  0  0  0
  1  5  1  0  0  0  0
  1 22  1  0  0  0  0
  2  1  2  0  0  0  0
  3  2  1  0  0  0  0
  3  4  2  0  0  0  0
  4  5  1  0  0  0  0
  6  2  1  0  0  0  0
  7  3  1  0  0  0  0
  8 17  1  0  0  0  0
  9  4  1  0  0  0  0
  9  8  2  0  0  0  0
 10  9  1  0  0  0  0
 11 10  2  0  0  0  0
 11 15  1  0  0  0  0
 12 13  1  0  0  0  0
 12 11  1  0  0  0  0
 13 14  2  0  0  0  0
 14 15  1  0  0  0  0
 14 20  1  0  0  0  0
 15 16  2  0  0  0  0
 16  8  1  0  0  0  0
 16 21  1  0  0  0  0
 18 10  1  0  0  0  0
 19 12  1  0  0  0  0
 22 24  1  0  0  0  0
 23 22  2  0  0  0  0
 24 29  2  0  0  0  0
 24 25  1  0  0  0  0
 25 26  2  0  0  0  0
 26 27  1  0  0  0  0
 26 31  1  0  0  0  0
 28 32  1  0  0  0  0
 28 27  2  0  0  0  0
 29 28  1  0  0  0  0
 30 25  1  0  0  0  0
 32 34  1  0  0  0  0
 33 32  1  0  0  0  0
 35 32  1  0  0  0  0
M  END
>  <minimizedAffinity>
-6.10398006

$$$$
