
 OpenBabel03272510233D

 26 28  0  0  0  0  0  0  0  0999 V2000
   37.7470   25.3720   32.5610 C   0  0  0  0  0  0  0  0  0  0  0  0
   37.3610   26.5620   33.1310 C   0  0  0  0  0  0  0  0  0  0  0  0
   37.3410   26.7070   34.4990 C   0  0  0  0  0  0  0  0  0  0  0  0
   37.7220   25.6200   35.2630 C   0  0  0  0  0  0  0  0  0  0  0  0
   37.7830   25.5240   36.6260 N   0  0  0  0  0  0  0  0  0  0  0  0
   38.2040   24.2850   36.9150 C   0  0  0  0  0  0  0  0  0  0  0  0
   38.4140   23.5830   35.7870 N   0  0  0  0  0  0  0  0  0  0  0  0
   38.1210   24.3950   34.7380 C   0  0  0  0  0  0  0  0  0  0  0  0
   38.1280   24.2850   33.3600 C   0  0  0  0  0  0  0  0  0  0  0  0
   37.7850   25.1890   31.4990 H   0  0  0  0  0  0  0  0  0  0  0  0
   37.0400   27.6380   34.9390 H   0  0  0  0  0  0  0  0  0  0  0  0
   37.5450   26.2790   37.3270 H   0  0  0  0  0  0  0  0  0  0  0  0
   38.4370   23.3320   32.9180 H   0  0  0  0  0  0  0  0  0  0  0  0
   36.0000   29.7540   31.6570 C   0  0  0  0  0  0  0  0  0  0  0  0
   36.3240   28.7820   32.5970 C   0  0  0  0  0  0  0  0  0  0  0  0
   36.9840   27.6300   32.2100 C   0  0  0  0  0  0  0  0  0  0  0  0
   37.3040   27.4800   30.8910 N   0  0  0  0  0  0  0  0  0  0  0  0
   36.9700   28.4570   29.9900 C   0  0  0  0  0  0  0  0  0  0  0  0
   36.3340   29.5630   30.3670 N   0  0  0  0  0  0  0  0  0  0  0  0
   35.4890   30.6340   31.9930 H   0  0  0  0  0  0  0  0  0  0  0  0
   36.0680   28.9160   33.6210 H   0  0  0  0  0  0  0  0  0  0  0  0
   37.2720   28.2320   28.9720 H   0  0  0  0  0  0  0  0  0  0  0  0
   38.3940   23.8060   38.3180 C   0  0  0  0  0  0  0  0  0  0  0  0
   39.5990   23.2030   38.5300 F   0  0  0  0  0  0  0  0  0  0  0  0
   37.3770   22.9100   38.6350 F   0  0  0  0  0  0  0  0  0  0  0  0
   38.2660   24.8500   39.2170 F   0  0  0  0  0  0  0  0  0  0  0  0
  1  2  2  0  0  0  0
  1  9  1  0  0  0  0
  2  3  1  0  0  0  0
  3 11  1  0  0  0  0
  3  4  2  0  0  0  0
  4  5  1  0  0  0  0
  5  6  1  0  0  0  0
  5 12  1  0  0  0  0
  6 23  1  0  0  0  0
  7  6  2  0  0  0  0
  8  4  1  0  0  0  0
  8  7  1  0  0  0  0
  9  8  2  0  0  0  0
 10  1  1  0  0  0  0
 13  9  1  0  0  0  0
 14 20  1  0  0  0  0
 14 15  1  0  0  0  0
 15 21  1  0  0  0  0
 16 15  2  0  0  0  0
 16  2  1  0  0  0  0
 17 16  1  0  0  0  0
 18 19  1  0  0  0  0
 18 17  2  0  0  0  0
 19 14  2  0  0  0  0
 22 18  1  0  0  0  0
 23 24  1  0  0  0  0
 23 25  1  0  0  0  0
 23 26  1  0  0  0  0
M  END
>  <minimizedAffinity>
-5.44723368

$$$$

 OpenBabel03272510233D

 26 28  0  0  0  0  0  0  0  0999 V2000
   37.8000   25.3220   32.5260 C   0  0  0  0  0  0  0  0  0  0  0  0
   37.4470   26.5310   33.0760 C   0  0  0  0  0  0  0  0  0  0  0  0
   37.4250   26.6970   34.4420 C   0  0  0  0  0  0  0  0  0  0  0  0
   37.7720   25.6100   35.2240 C   0  0  0  0  0  0  0  0  0  0  0  0
   37.8240   25.5320   36.5880 N   0  0  0  0  0  0  0  0  0  0  0  0
   38.2080   24.2870   36.8970 C   0  0  0  0  0  0  0  0  0  0  0  0
   38.4020   23.5620   35.7800 N   0  0  0  0  0  0  0  0  0  0  0  0
   38.1370   24.3670   34.7190 C   0  0  0  0  0  0  0  0  0  0  0  0
   38.1460   24.2360   33.3420 C   0  0  0  0  0  0  0  0  0  0  0  0
   37.8380   25.1220   31.4670 H   0  0  0  0  0  0  0  0  0  0  0  0
   37.1490   27.6420   34.8670 H   0  0  0  0  0  0  0  0  0  0  0  0
   37.6050   26.3050   37.2760 H   0  0  0  0  0  0  0  0  0  0  0  0
   38.4290   23.2680   32.9160 H   0  0  0  0  0  0  0  0  0  0  0  0
   37.1260   28.6600   29.9820 C   0  0  0  0  0  0  0  0  0  0  0  0
   37.4940   27.6070   30.8120 C   0  0  0  0  0  0  0  0  0  0  0  0
   37.1040   27.5960   32.1380 C   0  0  0  0  0  0  0  0  0  0  0  0
   36.3550   28.6400   32.6020 N   0  0  0  0  0  0  0  0  0  0  0  0
   36.0100   29.6620   31.7570 C   0  0  0  0  0  0  0  0  0  0  0  0
   36.3880   29.6690   30.4820 N   0  0  0  0  0  0  0  0  0  0  0  0
   37.4460   28.6360   28.9600 H   0  0  0  0  0  0  0  0  0  0  0  0
   38.0780   26.8010   30.4340 H   0  0  0  0  0  0  0  0  0  0  0  0
   35.4150   30.4370   32.2320 H   0  0  0  0  0  0  0  0  0  0  0  0
   38.3780   23.8230   38.3070 C   0  0  0  0  0  0  0  0  0  0  0  0
   39.5940   23.2570   38.5530 F   0  0  0  0  0  0  0  0  0  0  0  0
   37.3800   22.9000   38.6070 F   0  0  0  0  0  0  0  0  0  0  0  0
   38.1980   24.8690   39.1950 F   0  0  0  0  0  0  0  0  0  0  0  0
  1  2  2  0  0  0  0
  1  9  1  0  0  0  0
  2  3  1  0  0  0  0
  3 11  1  0  0  0  0
  3  4  2  0  0  0  0
  4  5  1  0  0  0  0
  5  6  1  0  0  0  0
  5 12  1  0  0  0  0
  6 23  1  0  0  0  0
  7  6  2  0  0  0  0
  8  4  1  0  0  0  0
  8  7  1  0  0  0  0
  9  8  2  0  0  0  0
 10  1  1  0  0  0  0
 13  9  1  0  0  0  0
 14 19  2  0  0  0  0
 14 15  1  0  0  0  0
 15 16  2  0  0  0  0
 16 17  1  0  0  0  0
 16  2  1  0  0  0  0
 18 22  1  0  0  0  0
 18 17  2  0  0  0  0
 19 18  1  0  0  0  0
 20 14  1  0  0  0  0
 21 15  1  0  0  0  0
 23 24  1  0  0  0  0
 23 25  1  0  0  0  0
 23 26  1  0  0  0  0
M  END
>  <minimizedAffinity>
-5.41410065

$$$$

 OpenBabel03272510233D

 26 28  0  0  0  0  0  0  0  0999 V2000
   37.6740   24.9120   36.5380 C   0  0  0  0  0  0  0  0  0  0  0  0
   38.2190   25.1290   35.2950 C   0  0  0  0  0  0  0  0  0  0  0  0
   39.3620   24.4660   34.9080 C   0  0  0  0  0  0  0  0  0  0  0  0
   39.9270   23.5850   35.8110 C   0  0  0  0  0  0  0  0  0  0  0  0
   41.0510   22.8200   35.6560 N   0  0  0  0  0  0  0  0  0  0  0  0
   41.2130   22.1260   36.7910 C   0  0  0  0  0  0  0  0  0  0  0  0
   40.2360   22.4190   37.6680 N   0  0  0  0  0  0  0  0  0  0  0  0
   39.4170   23.3300   37.0790 C   0  0  0  0  0  0  0  0  0  0  0  0
   38.2690   24.0130   37.4350 C   0  0  0  0  0  0  0  0  0  0  0  0
   36.7840   25.3960   36.9050 H   0  0  0  0  0  0  0  0  0  0  0  0
   39.7830   24.6380   33.9370 H   0  0  0  0  0  0  0  0  0  0  0  0
   41.6770   22.7780   34.8060 H   0  0  0  0  0  0  0  0  0  0  0  0
   37.8450   23.8320   38.4280 H   0  0  0  0  0  0  0  0  0  0  0  0
   36.4660   28.1940   33.9740 C   0  0  0  0  0  0  0  0  0  0  0  0
   37.1270   27.3410   34.8520 C   0  0  0  0  0  0  0  0  0  0  0  0
   37.5230   26.0830   34.4380 C   0  0  0  0  0  0  0  0  0  0  0  0
   37.2490   25.7080   33.1530 N   0  0  0  0  0  0  0  0  0  0  0  0
   36.5960   26.5720   32.3130 C   0  0  0  0  0  0  0  0  0  0  0  0
   36.2160   27.7810   32.7170 N   0  0  0  0  0  0  0  0  0  0  0  0
   36.1740   29.1610   34.3280 H   0  0  0  0  0  0  0  0  0  0  0  0
   37.3330   27.6500   35.8490 H   0  0  0  0  0  0  0  0  0  0  0  0
   36.4300   26.1690   31.3180 H   0  0  0  0  0  0  0  0  0  0  0  0
   42.3460   21.1730   36.9950 C   0  0  0  0  0  0  0  0  0  0  0  0
   42.3340   20.5670   38.2170 F   0  0  0  0  0  0  0  0  0  0  0  0
   43.5490   21.8550   36.8390 F   0  0  0  0  0  0  0  0  0  0  0  0
   42.3440   20.1900   36.0220 F   0  0  0  0  0  0  0  0  0  0  0  0
  1 10  1  0  0  0  0
  1  9  1  0  0  0  0
  2  1  2  0  0  0  0
  3  2  1  0  0  0  0
  3  4  2  0  0  0  0
  4  8  1  0  0  0  0
  5  4  1  0  0  0  0
  5  6  1  0  0  0  0
  6 23  1  0  0  0  0
  6  7  2  0  0  0  0
  8  9  2  0  0  0  0
  8  7  1  0  0  0  0
  9 13  1  0  0  0  0
 11  3  1  0  0  0  0
 12  5  1  0  0  0  0
 14 20  1  0  0  0  0
 14 15  1  0  0  0  0
 15 21  1  0  0  0  0
 16 15  2  0  0  0  0
 16  2  1  0  0  0  0
 17 16  1  0  0  0  0
 18 19  1  0  0  0  0
 18 17  2  0  0  0  0
 19 14  2  0  0  0  0
 22 18  1  0  0  0  0
 23 24  1  0  0  0  0
 25 23  1  0  0  0  0
 26 23  1  0  0  0  0
M  END
>  <minimizedAffinity>
-5.1702857

$$$$

 OpenBabel03272510233D

 26 28  0  0  0  0  0  0  0  0999 V2000
   38.0640   24.5380   33.6970 C   0  0  0  0  0  0  0  0  0  0  0  0
   37.9730   25.1530   34.9240 C   0  0  0  0  0  0  0  0  0  0  0  0
   37.4490   26.4200   35.0320 C   0  0  0  0  0  0  0  0  0  0  0  0
   37.0240   27.0380   33.8710 C   0  0  0  0  0  0  0  0  0  0  0  0
   36.4740   28.2830   33.7270 N   0  0  0  0  0  0  0  0  0  0  0  0
   36.2200   28.4520   32.4230 C   0  0  0  0  0  0  0  0  0  0  0  0
   36.5870   27.3620   31.7240 N   0  0  0  0  0  0  0  0  0  0  0  0
   37.0920   26.4620   32.6070 C   0  0  0  0  0  0  0  0  0  0  0  0
   37.6250   25.1880   32.5350 C   0  0  0  0  0  0  0  0  0  0  0  0
   38.4630   23.5480   33.5400 H   0  0  0  0  0  0  0  0  0  0  0  0
   37.3810   26.8960   35.9910 H   0  0  0  0  0  0  0  0  0  0  0  0
   36.2840   28.9840   34.4950 H   0  0  0  0  0  0  0  0  0  0  0  0
   37.6920   24.7090   31.5530 H   0  0  0  0  0  0  0  0  0  0  0  0
   39.9650   22.8710   37.1690 C   0  0  0  0  0  0  0  0  0  0  0  0
   39.5670   23.5660   36.0310 C   0  0  0  0  0  0  0  0  0  0  0  0
   38.4580   24.3900   36.0700 C   0  0  0  0  0  0  0  0  0  0  0  0
   37.7740   24.5000   37.2470 N   0  0  0  0  0  0  0  0  0  0  0  0
   38.1930   23.8020   38.3490 C   0  0  0  0  0  0  0  0  0  0  0  0
   39.2600   23.0090   38.3070 N   0  0  0  0  0  0  0  0  0  0  0  0
   40.8290   22.2420   37.1020 H   0  0  0  0  0  0  0  0  0  0  0  0
   40.1120   23.4680   35.1220 H   0  0  0  0  0  0  0  0  0  0  0  0
   37.5750   23.9640   39.2280 H   0  0  0  0  0  0  0  0  0  0  0  0
   35.6120   29.7030   31.8780 C   0  0  0  0  0  0  0  0  0  0  0  0
   36.2270   30.8420   32.3100 F   0  0  0  0  0  0  0  0  0  0  0  0
   34.2680   29.7510   32.2370 F   0  0  0  0  0  0  0  0  0  0  0  0
   35.6290   29.6980   30.4940 F   0  0  0  0  0  0  0  0  0  0  0  0
  1  2  1  0  0  0  0
  2  3  2  0  0  0  0
  2 16  1  0  0  0  0
  3 11  1  0  0  0  0
  4  3  1  0  0  0  0
  5  4  1  0  0  0  0
  5 12  1  0  0  0  0
  6  5  1  0  0  0  0
  7  6  2  0  0  0  0
  7  8  1  0  0  0  0
  8  4  2  0  0  0  0
  9  8  1  0  0  0  0
  9  1  2  0  0  0  0
 10  1  1  0  0  0  0
 13  9  1  0  0  0  0
 14 19  1  0  0  0  0
 15 16  1  0  0  0  0
 15 14  2  0  0  0  0
 16 17  2  0  0  0  0
 17 18  1  0  0  0  0
 18 22  1  0  0  0  0
 19 18  2  0  0  0  0
 20 14  1  0  0  0  0
 21 15  1  0  0  0  0
 23 25  1  0  0  0  0
 23 24  1  0  0  0  0
 23  6  1  0  0  0  0
 26 23  1  0  0  0  0
M  END
>  <minimizedAffinity>
-5.00814581

$$$$

 OpenBabel03272510233D

 26 28  0  0  0  0  0  0  0  0999 V2000
   38.3000   27.1540   32.9380 C   0  0  0  0  0  0  0  0  0  0  0  0
   37.2440   27.3620   33.7940 C   0  0  0  0  0  0  0  0  0  0  0  0
   37.1160   26.6120   34.9400 C   0  0  0  0  0  0  0  0  0  0  0  0
   38.0830   25.6550   35.1890 C   0  0  0  0  0  0  0  0  0  0  0  0
   38.1690   24.7970   36.2510 N   0  0  0  0  0  0  0  0  0  0  0  0
   39.2690   24.0540   36.0680 C   0  0  0  0  0  0  0  0  0  0  0  0
   39.8900   24.4030   34.9270 N   0  0  0  0  0  0  0  0  0  0  0  0
   39.1690   25.4040   34.3580 C   0  0  0  0  0  0  0  0  0  0  0  0
   39.2650   26.1760   33.2150 C   0  0  0  0  0  0  0  0  0  0  0  0
   38.4610   27.7030   32.0240 H   0  0  0  0  0  0  0  0  0  0  0  0
   36.2910   26.7780   35.6050 H   0  0  0  0  0  0  0  0  0  0  0  0
   37.4990   24.7260   37.0660 H   0  0  0  0  0  0  0  0  0  0  0  0
   40.1100   26.0000   32.5410 H   0  0  0  0  0  0  0  0  0  0  0  0
   35.1770   29.8280   31.8310 C   0  0  0  0  0  0  0  0  0  0  0  0
   36.1020   28.8280   32.1120 C   0  0  0  0  0  0  0  0  0  0  0  0
   36.2950   28.4030   33.4130 C   0  0  0  0  0  0  0  0  0  0  0  0
   35.5570   28.9890   34.4020 N   0  0  0  0  0  0  0  0  0  0  0  0
   34.6540   29.9720   34.0910 C   0  0  0  0  0  0  0  0  0  0  0  0
   34.4720   30.3780   32.8380 N   0  0  0  0  0  0  0  0  0  0  0  0
   35.0530   30.1330   30.8110 H   0  0  0  0  0  0  0  0  0  0  0  0
   36.6680   28.3830   31.3290 H   0  0  0  0  0  0  0  0  0  0  0  0
   34.1260   30.3660   34.9540 H   0  0  0  0  0  0  0  0  0  0  0  0
   39.6950   22.9960   37.0330 C   0  0  0  0  0  0  0  0  0  0  0  0
   41.0140   23.0640   37.3710 F   0  0  0  0  0  0  0  0  0  0  0  0
   39.4320   21.7440   36.4830 F   0  0  0  0  0  0  0  0  0  0  0  0
   38.9450   23.0570   38.1950 F   0  0  0  0  0  0  0  0  0  0  0  0
  1  9  2  0  0  0  0
  1  2  1  0  0  0  0
  2  3  2  0  0  0  0
  3  4  1  0  0  0  0
  3 11  1  0  0  0  0
  4  5  1  0  0  0  0
  5 12  1  0  0  0  0
  6  5  1  0  0  0  0
  6 23  1  0  0  0  0
  7  6  2  0  0  0  0
  8  7  1  0  0  0  0
  8  4  2  0  0  0  0
  9  8  1  0  0  0  0
 10  1  1  0  0  0  0
 13  9  1  0  0  0  0
 14 15  2  0  0  0  0
 14 19  1  0  0  0  0
 15 16  1  0  0  0  0
 16  2  1  0  0  0  0
 16 17  2  0  0  0  0
 18 17  1  0  0  0  0
 18 22  1  0  0  0  0
 19 18  2  0  0  0  0
 20 14  1  0  0  0  0
 21 15  1  0  0  0  0
 23 24  1  0  0  0  0
 23 26  1  0  0  0  0
 25 23  1  0  0  0  0
M  END
>  <minimizedAffinity>
-4.92119789

$$$$

 OpenBabel03272510233D

 26 28  0  0  0  0  0  0  0  0999 V2000
   37.8500   27.0100   32.6540 C   0  0  0  0  0  0  0  0  0  0  0  0
   37.0580   27.4650   33.6810 C   0  0  0  0  0  0  0  0  0  0  0  0
   37.1000   26.8600   34.9160 C   0  0  0  0  0  0  0  0  0  0  0  0
   37.9620   25.7900   35.0760 C   0  0  0  0  0  0  0  0  0  0  0  0
   38.1760   25.0370   36.1970 N   0  0  0  0  0  0  0  0  0  0  0  0
   39.0950   24.1150   35.8820 C   0  0  0  0  0  0  0  0  0  0  0  0
   39.4780   24.2480   34.5990 N   0  0  0  0  0  0  0  0  0  0  0  0
   38.7840   25.2910   34.0710 C   0  0  0  0  0  0  0  0  0  0  0  0
   38.7150   25.9230   32.8430 C   0  0  0  0  0  0  0  0  0  0  0  0
   37.8680   27.4360   31.6640 H   0  0  0  0  0  0  0  0  0  0  0  0
   36.4800   27.2180   35.7150 H   0  0  0  0  0  0  0  0  0  0  0  0
   37.7090   25.1530   37.1380 H   0  0  0  0  0  0  0  0  0  0  0  0
   39.3510   25.5510   32.0330 H   0  0  0  0  0  0  0  0  0  0  0  0
   34.7900   30.4620   33.9740 C   0  0  0  0  0  0  0  0  0  0  0  0
   35.6020   29.3950   34.3440 C   0  0  0  0  0  0  0  0  0  0  0  0
   36.1930   28.6020   33.3790 C   0  0  0  0  0  0  0  0  0  0  0  0
   35.9590   28.8960   32.0660 N   0  0  0  0  0  0  0  0  0  0  0  0
   35.1540   29.9540   31.7350 C   0  0  0  0  0  0  0  0  0  0  0  0
   34.5860   30.7140   32.6670 N   0  0  0  0  0  0  0  0  0  0  0  0
   34.3480   31.0560   34.7480 H   0  0  0  0  0  0  0  0  0  0  0  0
   35.7740   29.1810   35.3720 H   0  0  0  0  0  0  0  0  0  0  0  0
   35.0370   30.0940   30.6640 H   0  0  0  0  0  0  0  0  0  0  0  0
   39.5880   23.1010   36.8630 C   0  0  0  0  0  0  0  0  0  0  0  0
   39.0520   23.2430   38.1090 F   0  0  0  0  0  0  0  0  0  0  0  0
   40.9740   23.1910   36.9530 F   0  0  0  0  0  0  0  0  0  0  0  0
   39.3240   21.8170   36.4200 F   0  0  0  0  0  0  0  0  0  0  0  0
  1  9  2  0  0  0  0
  1  2  1  0  0  0  0
  2  3  2  0  0  0  0
  3  4  1  0  0  0  0
  3 11  1  0  0  0  0
  4  5  1  0  0  0  0
  5 12  1  0  0  0  0
  6  5  1  0  0  0  0
  6 23  1  0  0  0  0
  7  6  2  0  0  0  0
  8  7  1  0  0  0  0
  8  4  2  0  0  0  0
  9  8  1  0  0  0  0
 10  1  1  0  0  0  0
 13  9  1  0  0  0  0
 14 15  1  0  0  0  0
 14 20  1  0  0  0  0
 15 21  1  0  0  0  0
 16  2  1  0  0  0  0
 16 15  2  0  0  0  0
 17 16  1  0  0  0  0
 18 17  2  0  0  0  0
 18 19  1  0  0  0  0
 19 14  2  0  0  0  0
 22 18  1  0  0  0  0
 23 25  1  0  0  0  0
 23 24  1  0  0  0  0
 26 23  1  0  0  0  0
M  END
>  <minimizedAffinity>
-4.89347219

$$$$

 OpenBabel03272510233D

 26 28  0  0  0  0  0  0  0  0999 V2000
   37.0960   27.6210   33.6400 C   0  0  0  0  0  0  0  0  0  0  0  0
   37.8840   27.0760   32.6540 C   0  0  0  0  0  0  0  0  0  0  0  0
   38.6620   25.9710   32.9130 C   0  0  0  0  0  0  0  0  0  0  0  0
   38.6160   25.4410   34.1890 C   0  0  0  0  0  0  0  0  0  0  0  0
   39.2920   24.3580   34.6800 N   0  0  0  0  0  0  0  0  0  0  0  0
   38.9350   24.2190   35.9640 C   0  0  0  0  0  0  0  0  0  0  0  0
   38.0550   25.1750   36.3140 N   0  0  0  0  0  0  0  0  0  0  0  0
   37.8370   25.9520   35.2210 C   0  0  0  0  0  0  0  0  0  0  0  0
   37.0690   27.0630   34.9260 C   0  0  0  0  0  0  0  0  0  0  0  0
   36.4630   28.4840   33.5070 H   0  0  0  0  0  0  0  0  0  0  0  0
   39.2750   25.5500   32.1400 H   0  0  0  0  0  0  0  0  0  0  0  0
   39.9710   23.7420   34.1530 H   0  0  0  0  0  0  0  0  0  0  0  0
   36.4450   27.4880   35.7200 H   0  0  0  0  0  0  0  0  0  0  0  0
   36.9290   29.2680   29.7390 C   0  0  0  0  0  0  0  0  0  0  0  0
   36.9040   28.6880   31.0030 C   0  0  0  0  0  0  0  0  0  0  0  0
   37.8400   27.7330   31.3510 C   0  0  0  0  0  0  0  0  0  0  0  0
   38.7800   27.3800   30.4250 N   0  0  0  0  0  0  0  0  0  0  0  0
   38.7770   27.9700   29.1890 C   0  0  0  0  0  0  0  0  0  0  0  0
   37.8740   28.8890   28.8580 N   0  0  0  0  0  0  0  0  0  0  0  0
   36.1880   30.0050   29.5040 H   0  0  0  0  0  0  0  0  0  0  0  0
   36.1640   28.9750   31.7130 H   0  0  0  0  0  0  0  0  0  0  0  0
   39.5670   27.6130   28.5340 H   0  0  0  0  0  0  0  0  0  0  0  0
   39.4750   23.1340   36.8370 C   0  0  0  0  0  0  0  0  0  0  0  0
   38.9890   23.1670   38.1110 F   0  0  0  0  0  0  0  0  0  0  0  0
   40.8630   23.2300   36.8780 F   0  0  0  0  0  0  0  0  0  0  0  0
   39.2020   21.8880   36.3000 F   0  0  0  0  0  0  0  0  0  0  0  0
  1  9  1  0  0  0  0
  2  3  1  0  0  0  0
  2  1  2  0  0  0  0
  3  4  2  0  0  0  0
  4  5  1  0  0  0  0
  4  8  1  0  0  0  0
  5  6  1  0  0  0  0
  6  7  2  0  0  0  0
  6 23  1  0  0  0  0
  8  7  1  0  0  0  0
  9  8  2  0  0  0  0
  9 13  1  0  0  0  0
 10  1  1  0  0  0  0
 11  3  1  0  0  0  0
 12  5  1  0  0  0  0
 14 15  1  0  0  0  0
 15 16  2  0  0  0  0
 15 21  1  0  0  0  0
 16  2  1  0  0  0  0
 17 16  1  0  0  0  0
 18 17  2  0  0  0  0
 19 18  1  0  0  0  0
 19 14  2  0  0  0  0
 20 14  1  0  0  0  0
 22 18  1  0  0  0  0
 23 25  1  0  0  0  0
 23 24  1  0  0  0  0
 26 23  1  0  0  0  0
M  END
>  <minimizedAffinity>
-4.85046101

$$$$

 OpenBabel03272510233D

 26 28  0  0  0  0  0  0  0  0999 V2000
   37.3580   26.5370   35.3200 C   0  0  0  0  0  0  0  0  0  0  0  0
   38.3180   25.6170   34.9710 C   0  0  0  0  0  0  0  0  0  0  0  0
   38.8580   25.6170   33.7050 C   0  0  0  0  0  0  0  0  0  0  0  0
   38.3980   26.5700   32.8140 C   0  0  0  0  0  0  0  0  0  0  0  0
   38.7790   26.7660   31.5150 N   0  0  0  0  0  0  0  0  0  0  0  0
   38.0660   27.8000   31.0480 C   0  0  0  0  0  0  0  0  0  0  0  0
   37.2410   28.2730   32.0000 N   0  0  0  0  0  0  0  0  0  0  0  0
   37.4300   27.5210   33.1160 C   0  0  0  0  0  0  0  0  0  0  0  0
   36.9100   27.4910   34.3970 C   0  0  0  0  0  0  0  0  0  0  0  0
   36.8940   26.5930   36.2920 H   0  0  0  0  0  0  0  0  0  0  0  0
   39.6070   24.8980   33.4370 H   0  0  0  0  0  0  0  0  0  0  0  0
   39.4980   26.2110   30.9740 H   0  0  0  0  0  0  0  0  0  0  0  0
   36.1460   28.2290   34.6630 H   0  0  0  0  0  0  0  0  0  0  0  0
   38.4760   23.5710   38.1330 C   0  0  0  0  0  0  0  0  0  0  0  0
   38.0330   24.4990   37.1970 C   0  0  0  0  0  0  0  0  0  0  0  0
   38.7150   24.6670   36.0060 C   0  0  0  0  0  0  0  0  0  0  0  0
   39.8240   23.9020   35.7810 N   0  0  0  0  0  0  0  0  0  0  0  0
   40.2330   22.9970   36.7250 C   0  0  0  0  0  0  0  0  0  0  0  0
   39.5740   22.8390   37.8700 N   0  0  0  0  0  0  0  0  0  0  0  0
   37.9230   23.4670   39.0450 H   0  0  0  0  0  0  0  0  0  0  0  0
   37.1670   25.0870   37.3880 H   0  0  0  0  0  0  0  0  0  0  0  0
   41.1250   22.4450   36.4410 H   0  0  0  0  0  0  0  0  0  0  0  0
   38.2100   28.3110   29.6510 C   0  0  0  0  0  0  0  0  0  0  0  0
   37.0180   28.5250   29.0240 F   0  0  0  0  0  0  0  0  0  0  0  0
   38.9570   27.4010   28.9080 F   0  0  0  0  0  0  0  0  0  0  0  0
   38.9310   29.4920   29.6310 F   0  0  0  0  0  0  0  0  0  0  0  0
  1 10  1  0  0  0  0
  2  1  1  0  0  0  0
  2 16  1  0  0  0  0
  3  2  2  0  0  0  0
  4  8  2  0  0  0  0
  4  3  1  0  0  0  0
  5  4  1  0  0  0  0
  6  5  1  0  0  0  0
  6  7  2  0  0  0  0
  7  8  1  0  0  0  0
  8  9  1  0  0  0  0
  9 13  1  0  0  0  0
  9  1  2  0  0  0  0
 11  3  1  0  0  0  0
 12  5  1  0  0  0  0
 14 20  1  0  0  0  0
 15 21  1  0  0  0  0
 15 14  2  0  0  0  0
 16 15  1  0  0  0  0
 17 16  2  0  0  0  0
 17 18  1  0  0  0  0
 18 19  2  0  0  0  0
 19 14  1  0  0  0  0
 22 18  1  0  0  0  0
 23  6  1  0  0  0  0
 24 23  1  0  0  0  0
 25 23  1  0  0  0  0
 26 23  1  0  0  0  0
M  END
>  <minimizedAffinity>
-4.84460878

$$$$

 OpenBabel03272510233D

 26 28  0  0  0  0  0  0  0  0999 V2000
   37.6570   25.4820   32.4290 C   0  0  0  0  0  0  0  0  0  0  0  0
   36.5520   25.8060   31.6780 C   0  0  0  0  0  0  0  0  0  0  0  0
   35.6560   24.8320   31.2980 C   0  0  0  0  0  0  0  0  0  0  0  0
   35.9140   23.5350   31.7000 C   0  0  0  0  0  0  0  0  0  0  0  0
   35.1770   22.4100   31.4490 N   0  0  0  0  0  0  0  0  0  0  0  0
   35.8110   21.3850   32.0350 C   0  0  0  0  0  0  0  0  0  0  0  0
   36.9280   21.8120   32.6530 N   0  0  0  0  0  0  0  0  0  0  0  0
   37.0150   23.1540   32.4590 C   0  0  0  0  0  0  0  0  0  0  0  0
   37.8940   24.1580   32.8220 C   0  0  0  0  0  0  0  0  0  0  0  0
   38.3970   26.1930   32.7590 H   0  0  0  0  0  0  0  0  0  0  0  0
   34.7950   25.0900   30.7130 H   0  0  0  0  0  0  0  0  0  0  0  0
   34.2770   22.3510   30.8970 H   0  0  0  0  0  0  0  0  0  0  0  0
   38.7700   23.8880   33.4200 H   0  0  0  0  0  0  0  0  0  0  0  0
   35.5090   29.4280   31.6140 C   0  0  0  0  0  0  0  0  0  0  0  0
   35.6020   28.1010   32.0190 C   0  0  0  0  0  0  0  0  0  0  0  0
   36.3990   27.2130   31.3210 C   0  0  0  0  0  0  0  0  0  0  0  0
   37.0850   27.6750   30.2340 N   0  0  0  0  0  0  0  0  0  0  0  0
   36.9710   28.9890   29.8620 C   0  0  0  0  0  0  0  0  0  0  0  0
   36.2030   29.8400   30.5360 N   0  0  0  0  0  0  0  0  0  0  0  0
   34.8830   30.0880   32.1790 H   0  0  0  0  0  0  0  0  0  0  0  0
   35.0610   27.7580   32.8690 H   0  0  0  0  0  0  0  0  0  0  0  0
   37.5590   29.2450   28.9840 H   0  0  0  0  0  0  0  0  0  0  0  0
   35.3000   19.9830   31.9750 C   0  0  0  0  0  0  0  0  0  0  0  0
   33.9400   19.9000   31.9070 F   0  0  0  0  0  0  0  0  0  0  0  0
   35.7400   19.2890   33.0990 F   0  0  0  0  0  0  0  0  0  0  0  0
   35.8310   19.3100   30.8890 F   0  0  0  0  0  0  0  0  0  0  0  0
  1 10  1  0  0  0  0
  1  9  1  0  0  0  0
  2  1  2  0  0  0  0
  3  2  1  0  0  0  0
  3  4  2  0  0  0  0
  4  8  1  0  0  0  0
  5  4  1  0  0  0  0
  5  6  1  0  0  0  0
  6  7  2  0  0  0  0
  8  7  1  0  0  0  0
  8  9  2  0  0  0  0
  9 13  1  0  0  0  0
 11  3  1  0  0  0  0
 12  5  1  0  0  0  0
 14 15  1  0  0  0  0
 14 20  1  0  0  0  0
 15 21  1  0  0  0  0
 16  2  1  0  0  0  0
 16 15  2  0  0  0  0
 17 16  1  0  0  0  0
 18 17  2  0  0  0  0
 18 19  1  0  0  0  0
 19 14  2  0  0  0  0
 22 18  1  0  0  0  0
 23  6  1  0  0  0  0
 23 25  1  0  0  0  0
 24 23  1  0  0  0  0
 26 23  1  0  0  0  0
M  END
>  <minimizedAffinity>
-4.81314611

$$$$
