
 OpenBabel03272506473D

 37 39  0  0  1  0  0  0  0  0999 V2000
   32.2420   28.3960   47.4540 C   0  0  2  0  0  0  0  0  0  0  0  0
   33.4640   28.3750   48.3240 C   0  0  1  0  0  0  0  0  0  0  0  0
   33.9590   27.1050   48.3260 O   0  0  0  0  0  0  0  0  0  0  0  0
   33.3410   26.3710   47.3200 C   0  0  0  0  0  0  0  0  0  0  0  0
   32.6890   27.3550   46.3810 C   0  0  1  0  0  0  0  0  0  0  0  0
   31.3220   28.0510   47.9160 H   0  0  0  0  0  0  0  0  0  0  0  0
   33.2350   28.7870   49.3240 H   0  0  0  0  0  0  0  0  0  0  0  0
   32.6870   25.6650   47.8080 H   0  0  0  0  0  0  0  0  0  0  0  0
   34.1170   25.7580   46.7930 H   0  0  0  0  0  0  0  0  0  0  0  0
   33.3610   27.8730   45.7080 H   0  0  0  0  0  0  0  0  0  0  0  0
   32.0950   29.6530   46.8320 O   0  0  0  0  0  0  0  0  0  0  0  0
   31.1990   30.0130   46.9270 H   0  0  0  0  0  0  0  0  0  0  0  0
   34.7180   29.4710   47.5440 S   0  0  0  0  0  0  0  0  0  0  0  0
   37.2770   29.3080   50.5580 C   0  0  0  0  0  0  0  0  0  0  0  0
   37.7580   30.6140   50.7070 C   0  0  0  0  0  0  0  0  0  0  0  0
   37.2580   31.5870   49.8240 C   0  0  0  0  0  0  0  0  0  0  0  0
   36.3510   31.2150   48.8880 N   0  0  0  0  0  0  0  0  0  0  0  0
   35.9180   29.9380   48.7870 C   0  0  0  0  0  0  0  0  0  0  0  0
   36.3740   28.9660   49.6200 N   0  0  0  0  0  0  0  0  0  0  0  0
   37.6470   28.5460   51.2250 H   0  0  0  0  0  0  0  0  0  0  0  0
   38.4850   30.8830   51.4650 H   0  0  0  0  0  0  0  0  0  0  0  0
   37.5750   32.6090   49.8710 H   0  0  0  0  0  0  0  0  0  0  0  0
   31.6030   26.7570   45.7910 O   0  0  0  0  0  0  0  0  0  0  0  0
   30.1980   28.4740   43.8540 Cl  0  0  0  0  0  0  0  0  0  0  0  0
   29.5700   27.7240   45.3030 C   0  0  0  0  0  0  0  0  0  0  0  0
   30.3300   26.9270   46.1290 C   0  0  0  0  0  0  0  0  0  0  0  0
   29.7110   26.3630   47.2470 C   0  0  0  0  0  0  0  0  0  0  0  0
   28.3760   26.6010   47.5060 C   0  0  0  0  0  0  0  0  0  0  0  0
   27.6050   27.4020   46.6800 C   0  0  0  0  0  0  0  0  0  0  0  0
   28.2280   27.9620   45.5670 C   0  0  0  0  0  0  0  0  0  0  0  0
   30.2180   25.7230   47.9470 H   0  0  0  0  0  0  0  0  0  0  0  0
   27.8380   26.1980   48.3490 H   0  0  0  0  0  0  0  0  0  0  0  0
   26.5610   27.5970   46.8710 H   0  0  0  0  0  0  0  0  0  0  0  0
   27.4090   28.8230   44.6750 C   0  0  0  0  0  0  0  0  0  0  0  0
   27.4210   28.3710   43.3670 F   0  0  0  0  0  0  0  0  0  0  0  0
   27.9900   30.0980   44.7010 F   0  0  0  0  0  0  0  0  0  0  0  0
   26.1370   28.9900   45.1460 F   0  0  0  0  0  0  0  0  0  0  0  0
  1  6  1  1  0  0  0
  1  2  1  0  0  0  0
  2  3  1  0  0  0  0
  2  7  1  1  0  0  0
  4  8  1  0  0  0  0
  4  3  1  0  0  0  0
  5 10  1  6  0  0  0
  5  4  1  0  0  0  0
  5  1  1  0  0  0  0
  9  4  1  0  0  0  0
 11 12  1  0  0  0  0
 11  1  1  0  0  0  0
 13  2  1  0  0  0  0
 13 18  1  0  0  0  0
 14 15  1  0  0  0  0
 14 20  1  0  0  0  0
 15 21  1  0  0  0  0
 16 22  1  0  0  0  0
 16 15  2  0  0  0  0
 17 16  1  0  0  0  0
 18 17  2  0  0  0  0
 18 19  1  0  0  0  0
 19 14  2  0  0  0  0
 23 26  1  0  0  0  0
 23  5  1  0  0  0  0
 24 25  1  0  0  0  0
 25 30  2  0  0  0  0
 25 26  1  0  0  0  0
 26 27  2  0  0  0  0
 27 28  1  0  0  0  0
 27 31  1  0  0  0  0
 28 32  1  0  0  0  0
 29 33  1  0  0  0  0
 29 28  2  0  0  0  0
 30 29  1  0  0  0  0
 34 36  1  0  0  0  0
 34 37  1  0  0  0  0
 34 30  1  0  0  0  0
 35 34  1  0  0  0  0
M  END
>  <minimizedAffinity>
-4.75788879

>  <minimizedRMSD>
0.582281947

$$$$
