
 OpenBabel03262521143D

 26 27  0  0  0  0  0  0  0  0999 V2000
   40.0390   23.4800   31.8970 O   0  0  0  0  0  0  0  0  0  0  0  0
   39.3190   23.5390   33.2400 P   0  0  1  0  0  0  0  0  0  0  0  0
   39.5950   25.0340   34.0090 O   0  0  0  0  0  0  0  0  0  0  0  0
   39.0320   24.9960   34.8310 H   0  0  0  0  0  0  0  0  0  0  0  0
   37.6290   23.3640   33.0860 O   0  0  0  0  0  0  0  0  0  0  0  0
   36.8560   24.2880   32.3970 C   0  0  0  0  0  0  0  0  0  0  0  0
   35.8340   23.9890   31.4800 C   0  0  0  0  0  0  0  0  0  0  0  0
   35.1740   25.0450   30.8930 C   0  0  0  0  0  0  0  0  0  0  0  0
   35.5110   26.3190   31.1990 N   0  0  0  0  0  0  0  0  0  0  0  0
   36.5210   26.5820   32.1050 C   0  0  0  0  0  0  0  0  0  0  0  0
   37.1770   25.5620   32.6880 N   0  0  0  0  0  0  0  0  0  0  0  0
   35.6510   22.9560   31.3130 H   0  0  0  0  0  0  0  0  0  0  0  0
   34.3840   24.8190   30.1840 H   0  0  0  0  0  0  0  0  0  0  0  0
   36.7490   27.6230   32.3120 H   0  0  0  0  0  0  0  0  0  0  0  0
   39.9510   22.2720   34.1690 O   0  0  0  0  0  0  0  0  0  0  0  0
   39.8570   22.3980   35.5590 C   0  0  0  0  0  0  0  0  0  0  0  0
   40.6300   21.8520   36.5630 C   0  0  0  0  0  0  0  0  0  0  0  0
   40.1630   22.2520   37.7340 N   0  0  0  0  0  0  0  0  0  0  0  0
   39.1010   23.0490   37.5520 C   0  0  0  0  0  0  0  0  0  0  0  0
   38.9200   23.1320   36.2020 N   0  0  0  0  0  0  0  0  0  0  0  0
   41.4740   21.2070   36.3810 H   0  0  0  0  0  0  0  0  0  0  0  0
   40.5890   21.9660   38.6470 H   0  0  0  0  0  0  0  0  0  0  0  0
   38.3490   23.6620   38.6590 C   0  0  0  0  0  0  0  0  0  0  0  0
   37.9520   24.9170   38.2200 F   0  0  0  0  0  0  0  0  0  0  0  0
   37.3060   22.8900   39.0940 F   0  0  0  0  0  0  0  0  0  0  0  0
   39.2430   23.8910   39.7130 F   0  0  0  0  0  0  0  0  0  0  0  0
  2  1  2  6  0  0  0
  2  3  1  0  0  0  0
  2 15  1  0  0  0  0
  3  4  1  0  0  0  0
  5  2  1  0  0  0  0
  6 11  1  0  0  0  0
  6  5  1  0  0  0  0
  7  6  2  0  0  0  0
  8  9  2  0  0  0  0
  8  7  1  0  0  0  0
  9 10  1  0  0  0  0
 10 14  1  0  0  0  0
 10 11  2  0  0  0  0
 12  7  1  0  0  0  0
 13  8  1  0  0  0  0
 15 16  1  0  0  0  0
 16 20  1  0  0  0  0
 16 17  2  0  0  0  0
 17 18  1  0  0  0  0
 18 22  1  0  0  0  0
 19 18  1  0  0  0  0
 19 23  1  0  0  0  0
 20 19  2  0  0  0  0
 21 17  1  0  0  0  0
 23 25  1  0  0  0  0
 23 26  1  0  0  0  0
 24 23  1  0  0  0  0
M  END
>  <minimizedAffinity>
-5.12741804

$$$$

 OpenBabel03262521143D

 26 27  0  0  0  0  0  0  0  0999 V2000
   38.5350   24.9650   31.3680 O   0  0  0  0  0  0  0  0  0  0  0  0
   37.6620   24.4190   32.4930 P   0  0  1  0  0  0  0  0  0  0  0  0
   37.2390   25.6550   33.5870 O   0  0  0  0  0  0  0  0  0  0  0  0
   36.6210   25.2130   34.2320 H   0  0  0  0  0  0  0  0  0  0  0  0
   36.2040   23.7420   31.9210 O   0  0  0  0  0  0  0  0  0  0  0  0
   36.0530   22.3740   31.7390 C   0  0  0  0  0  0  0  0  0  0  0  0
   35.0790   21.5630   32.3440 C   0  0  0  0  0  0  0  0  0  0  0  0
   35.0860   20.2210   32.0390 C   0  0  0  0  0  0  0  0  0  0  0  0
   36.0060   19.7180   31.1840 N   0  0  0  0  0  0  0  0  0  0  0  0
   36.9510   20.5400   30.6030 C   0  0  0  0  0  0  0  0  0  0  0  0
   36.9600   21.8550   30.8910 N   0  0  0  0  0  0  0  0  0  0  0  0
   34.4060   22.0600   32.9990 H   0  0  0  0  0  0  0  0  0  0  0  0
   34.3360   19.5900   32.5050 H   0  0  0  0  0  0  0  0  0  0  0  0
   37.6650   20.0820   29.9260 H   0  0  0  0  0  0  0  0  0  0  0  0
   38.5860   23.2320   33.2710 O   0  0  0  0  0  0  0  0  0  0  0  0
   38.2600   22.9470   34.6010 C   0  0  0  0  0  0  0  0  0  0  0  0
   37.5610   21.8900   35.1460 C   0  0  0  0  0  0  0  0  0  0  0  0
   37.4990   22.0430   36.4590 N   0  0  0  0  0  0  0  0  0  0  0  0
   38.1340   23.1670   36.8150 C   0  0  0  0  0  0  0  0  0  0  0  0
   38.6010   23.7190   35.6580 N   0  0  0  0  0  0  0  0  0  0  0  0
   37.1450   21.0850   34.5610 H   0  0  0  0  0  0  0  0  0  0  0  0
   37.0170   21.3610   37.0910 H   0  0  0  0  0  0  0  0  0  0  0  0
   38.2470   23.6260   38.2100 C   0  0  0  0  0  0  0  0  0  0  0  0
   39.5180   23.2710   38.6410 F   0  0  0  0  0  0  0  0  0  0  0  0
   37.9800   24.9590   38.3610 F   0  0  0  0  0  0  0  0  0  0  0  0
   37.3570   22.8710   38.9860 F   0  0  0  0  0  0  0  0  0  0  0  0
  2  1  2  6  0  0  0
  2 15  1  0  0  0  0
  2  3  1  0  0  0  0
  3  4  1  0  0  0  0
  5  2  1  0  0  0  0
  6  5  1  0  0  0  0
  6  7  1  0  0  0  0
  7 12  1  0  0  0  0
  8  7  2  0  0  0  0
  8 13  1  0  0  0  0
  9  8  1  0  0  0  0
 10 11  1  0  0  0  0
 10  9  2  0  0  0  0
 11  6  2  0  0  0  0
 14 10  1  0  0  0  0
 15 16  1  0  0  0  0
 16 17  2  0  0  0  0
 16 20  1  0  0  0  0
 17 18  1  0  0  0  0
 18 19  1  0  0  0  0
 18 22  1  0  0  0  0
 19 23  1  0  0  0  0
 20 19  2  0  0  0  0
 21 17  1  0  0  0  0
 23 25  1  0  0  0  0
 23 24  1  0  0  0  0
 23 26  1  0  0  0  0
M  END
>  <minimizedAffinity>
-5.12425518

$$$$

 OpenBabel03262521143D

 26 27  0  0  0  0  0  0  0  0999 V2000
   39.0540   26.7120   36.0330 O   0  0  0  0  0  0  0  0  0  0  0  0
   37.9310   25.9770   35.3090 P   0  0  1  0  0  0  0  0  0  0  0  0
   36.6610   27.0440   34.9200 O   0  0  0  0  0  0  0  0  0  0  0  0
   36.0220   26.4860   34.3960 H   0  0  0  0  0  0  0  0  0  0  0  0
   38.4490   25.2680   33.8460 O   0  0  0  0  0  0  0  0  0  0  0  0
   37.5830   24.5500   33.0330 C   0  0  0  0  0  0  0  0  0  0  0  0
   37.5500   23.1520   32.8930 C   0  0  0  0  0  0  0  0  0  0  0  0
   36.6150   22.6180   32.0350 C   0  0  0  0  0  0  0  0  0  0  0  0
   35.7670   23.4270   31.3580 N   0  0  0  0  0  0  0  0  0  0  0  0
   35.8240   24.7980   31.5160 C   0  0  0  0  0  0  0  0  0  0  0  0
   36.7310   25.3360   32.3500 N   0  0  0  0  0  0  0  0  0  0  0  0
   38.2600   22.6130   33.4700 H   0  0  0  0  0  0  0  0  0  0  0  0
   36.5860   21.5400   31.9230 H   0  0  0  0  0  0  0  0  0  0  0  0
   35.1190   25.3970   30.9470 H   0  0  0  0  0  0  0  0  0  0  0  0
   37.3900   24.7780   36.3760 O   0  0  0  0  0  0  0  0  0  0  0  0
   38.3660   23.9760   36.9740 C   0  0  0  0  0  0  0  0  0  0  0  0
   38.4940   23.5390   38.2760 C   0  0  0  0  0  0  0  0  0  0  0  0
   39.5850   22.7970   38.3790 N   0  0  0  0  0  0  0  0  0  0  0  0
   40.1950   22.7190   37.1890 C   0  0  0  0  0  0  0  0  0  0  0  0
   39.4330   23.4530   36.3270 N   0  0  0  0  0  0  0  0  0  0  0  0
   37.7950   23.7860   39.0580 H   0  0  0  0  0  0  0  0  0  0  0  0
   39.8910   22.3520   39.2770 H   0  0  0  0  0  0  0  0  0  0  0  0
   41.4390   21.9640   36.9640 C   0  0  0  0  0  0  0  0  0  0  0  0
   41.5970   21.1280   38.0600 F   0  0  0  0  0  0  0  0  0  0  0  0
   41.4550   21.2960   35.7700 F   0  0  0  0  0  0  0  0  0  0  0  0
   42.5080   22.8690   37.0180 F   0  0  0  0  0  0  0  0  0  0  0  0
  2  1  2  1  0  0  0
  2 15  1  0  0  0  0
  3  2  1  0  0  0  0
  4  3  1  0  0  0  0
  5  2  1  0  0  0  0
  6  5  1  0  0  0  0
  7  6  1  0  0  0  0
  7 12  1  0  0  0  0
  8  7  2  0  0  0  0
  9 10  2  0  0  0  0
  9  8  1  0  0  0  0
 10 11  1  0  0  0  0
 11  6  2  0  0  0  0
 13  8  1  0  0  0  0
 14 10  1  0  0  0  0
 15 16  1  0  0  0  0
 16 17  2  0  0  0  0
 17 18  1  0  0  0  0
 17 21  1  0  0  0  0
 18 22  1  0  0  0  0
 19 18  1  0  0  0  0
 20 16  1  0  0  0  0
 20 19  2  0  0  0  0
 23 26  1  0  0  0  0
 23 19  1  0  0  0  0
 23 24  1  0  0  0  0
 25 23  1  0  0  0  0
M  END
>  <minimizedAffinity>
-5.10092211

$$$$

 OpenBabel03262521143D

 26 27  0  0  0  0  0  0  0  0999 V2000
   36.8310   28.0220   34.9060 O   0  0  0  0  0  0  0  0  0  0  0  0
   37.8580   26.9090   35.0890 P   0  0  1  0  0  0  0  0  0  0  0  0
   39.1910   27.4590   35.9950 O   0  0  0  0  0  0  0  0  0  0  0  0
   39.7590   26.6490   36.1150 H   0  0  0  0  0  0  0  0  0  0  0  0
   37.2200   25.5590   35.9140 O   0  0  0  0  0  0  0  0  0  0  0  0
   38.0320   24.6760   36.6120 C   0  0  0  0  0  0  0  0  0  0  0  0
   37.8470   24.2580   37.9410 C   0  0  0  0  0  0  0  0  0  0  0  0
   38.7610   23.3720   38.4650 C   0  0  0  0  0  0  0  0  0  0  0  0
   39.7950   22.9300   37.7120 N   0  0  0  0  0  0  0  0  0  0  0  0
   39.9510   23.3580   36.4080 C   0  0  0  0  0  0  0  0  0  0  0  0
   39.0670   24.2240   35.8800 N   0  0  0  0  0  0  0  0  0  0  0  0
   37.0030   24.6670   38.4400 H   0  0  0  0  0  0  0  0  0  0  0  0
   38.6220   23.0470   39.4900 H   0  0  0  0  0  0  0  0  0  0  0  0
   40.7990   22.9700   35.8520 H   0  0  0  0  0  0  0  0  0  0  0  0
   38.3470   26.4600   33.5310 O   0  0  0  0  0  0  0  0  0  0  0  0
   37.4670   25.6570   32.7990 C   0  0  0  0  0  0  0  0  0  0  0  0
   36.4390   26.0000   31.9450 C   0  0  0  0  0  0  0  0  0  0  0  0
   35.8780   24.8960   31.4780 N   0  0  0  0  0  0  0  0  0  0  0  0
   36.4940   23.8220   31.9890 C   0  0  0  0  0  0  0  0  0  0  0  0
   37.4750   24.3040   32.8050 N   0  0  0  0  0  0  0  0  0  0  0  0
   36.1670   27.0180   31.7200 H   0  0  0  0  0  0  0  0  0  0  0  0
   35.0730   24.9040   30.8080 H   0  0  0  0  0  0  0  0  0  0  0  0
   36.1090   22.4380   31.6670 C   0  0  0  0  0  0  0  0  0  0  0  0
   37.2470   21.8140   31.1760 F   0  0  0  0  0  0  0  0  0  0  0  0
   35.5460   21.7760   32.7250 F   0  0  0  0  0  0  0  0  0  0  0  0
   35.2050   22.4790   30.5960 F   0  0  0  0  0  0  0  0  0  0  0  0
  2  1  2  6  0  0  0
  2  5  1  0  0  0  0
  2  3  1  0  0  0  0
  3  4  1  0  0  0  0
  5  6  1  0  0  0  0
  6  7  1  0  0  0  0
  7 12  1  0  0  0  0
  7  8  2  0  0  0  0
  8 13  1  0  0  0  0
  9  8  1  0  0  0  0
 10  9  2  0  0  0  0
 11 10  1  0  0  0  0
 11  6  2  0  0  0  0
 14 10  1  0  0  0  0
 15  2  1  0  0  0  0
 16 20  1  0  0  0  0
 16 15  1  0  0  0  0
 17 16  2  0  0  0  0
 18 17  1  0  0  0  0
 18 19  1  0  0  0  0
 19 20  2  0  0  0  0
 21 17  1  0  0  0  0
 22 18  1  0  0  0  0
 23 19  1  0  0  0  0
 23 25  1  0  0  0  0
 24 23  1  0  0  0  0
 26 23  1  0  0  0  0
M  END
>  <minimizedAffinity>
-5.05098534

$$$$

 OpenBabel03262521143D

 26 27  0  0  0  0  0  0  0  0999 V2000
   39.1540   27.1170   33.5760 O   0  0  0  0  0  0  0  0  0  0  0  0
   37.9360   26.2000   33.5520 P   0  0  1  0  0  0  0  0  0  0  0  0
   36.9160   26.5130   34.8790 O   0  0  0  0  0  0  0  0  0  0  0  0
   36.1290   25.9190   34.7310 H   0  0  0  0  0  0  0  0  0  0  0  0
   36.9950   26.3990   32.1430 O   0  0  0  0  0  0  0  0  0  0  0  0
   36.5720   27.6490   31.7140 C   0  0  0  0  0  0  0  0  0  0  0  0
   37.0240   28.3260   30.5680 C   0  0  0  0  0  0  0  0  0  0  0  0
   36.4850   29.5640   30.3040 C   0  0  0  0  0  0  0  0  0  0  0  0
   35.5540   30.0970   31.1300 N   0  0  0  0  0  0  0  0  0  0  0  0
   35.1300   29.4080   32.2490 C   0  0  0  0  0  0  0  0  0  0  0  0
   35.6460   28.1960   32.5230 N   0  0  0  0  0  0  0  0  0  0  0  0
   37.7560   27.8170   29.9910 H   0  0  0  0  0  0  0  0  0  0  0  0
   36.8300   30.0900   29.4210 H   0  0  0  0  0  0  0  0  0  0  0  0
   34.3810   29.8840   32.8760 H   0  0  0  0  0  0  0  0  0  0  0  0
   38.5370   24.6180   33.6290 O   0  0  0  0  0  0  0  0  0  0  0  0
   38.3490   23.9280   34.8310 C   0  0  0  0  0  0  0  0  0  0  0  0
   37.9780   22.6200   35.0660 C   0  0  0  0  0  0  0  0  0  0  0  0
   37.9280   22.4120   36.3720 N   0  0  0  0  0  0  0  0  0  0  0  0
   38.2550   23.5370   37.0230 C   0  0  0  0  0  0  0  0  0  0  0  0
   38.5130   24.4680   36.0600 N   0  0  0  0  0  0  0  0  0  0  0  0
   37.7690   21.9100   34.2820 H   0  0  0  0  0  0  0  0  0  0  0  0
   37.6690   21.4900   36.7940 H   0  0  0  0  0  0  0  0  0  0  0  0
   38.2960   23.6390   38.4910 C   0  0  0  0  0  0  0  0  0  0  0  0
   37.3370   22.7600   38.9760 F   0  0  0  0  0  0  0  0  0  0  0  0
   39.5420   23.4170   39.0120 F   0  0  0  0  0  0  0  0  0  0  0  0
   37.8520   24.9200   38.8470 F   0  0  0  0  0  0  0  0  0  0  0  0
  2  1  2  6  0  0  0
  2 15  1  0  0  0  0
  2  3  1  0  0  0  0
  4  3  1  0  0  0  0
  5  2  1  0  0  0  0
  6  5  1  0  0  0  0
  6 11  1  0  0  0  0
  7  6  2  0  0  0  0
  8  7  1  0  0  0  0
  8  9  2  0  0  0  0
  9 10  1  0  0  0  0
 10 11  2  0  0  0  0
 10 14  1  0  0  0  0
 12  7  1  0  0  0  0
 13  8  1  0  0  0  0
 15 16  1  0  0  0  0
 16 17  2  0  0  0  0
 16 20  1  0  0  0  0
 17 18  1  0  0  0  0
 18 22  1  0  0  0  0
 18 19  1  0  0  0  0
 19 23  1  0  0  0  0
 20 19  2  0  0  0  0
 21 17  1  0  0  0  0
 23 26  1  0  0  0  0
 23 24  1  0  0  0  0
 23 25  1  0  0  0  0
M  END
>  <minimizedAffinity>
-5.00285482

$$$$

 OpenBabel03262521143D

 26 27  0  0  0  0  0  0  0  0999 V2000
   36.8530   21.8180   33.6830 O   0  0  0  0  0  0  0  0  0  0  0  0
   38.0570   21.9520   32.7580 P   0  0  1  0  0  0  0  0  0  0  0  0
   38.7240   20.4250   32.4060 O   0  0  0  0  0  0  0  0  0  0  0  0
   39.4490   20.6170   31.7490 H   0  0  0  0  0  0  0  0  0  0  0  0
   37.6600   22.6760   31.2650 O   0  0  0  0  0  0  0  0  0  0  0  0
   37.0740   23.9320   31.1920 C   0  0  0  0  0  0  0  0  0  0  0  0
   37.7510   25.1630   31.2250 C   0  0  0  0  0  0  0  0  0  0  0  0
   36.9960   26.3100   31.1400 C   0  0  0  0  0  0  0  0  0  0  0  0
   35.6490   26.2370   31.0300 N   0  0  0  0  0  0  0  0  0  0  0  0
   35.0100   25.0120   31.0000 C   0  0  0  0  0  0  0  0  0  0  0  0
   35.7330   23.8810   31.0820 N   0  0  0  0  0  0  0  0  0  0  0  0
   38.8080   25.1050   31.3140 H   0  0  0  0  0  0  0  0  0  0  0  0
   37.5140   27.2630   31.1650 H   0  0  0  0  0  0  0  0  0  0  0  0
   33.9280   25.0140   30.9100 H   0  0  0  0  0  0  0  0  0  0  0  0
   39.1810   22.9110   33.5860 O   0  0  0  0  0  0  0  0  0  0  0  0
   38.7340   23.5520   34.7450 C   0  0  0  0  0  0  0  0  0  0  0  0
   38.0770   24.7540   34.9090 C   0  0  0  0  0  0  0  0  0  0  0  0
   37.8540   24.9530   36.1980 N   0  0  0  0  0  0  0  0  0  0  0  0
   38.3380   23.9250   36.9070 C   0  0  0  0  0  0  0  0  0  0  0  0
   38.8800   23.0640   35.9990 N   0  0  0  0  0  0  0  0  0  0  0  0
   37.8070   25.4010   34.0910 H   0  0  0  0  0  0  0  0  0  0  0  0
   37.3660   25.8030   36.5680 H   0  0  0  0  0  0  0  0  0  0  0  0
   38.2490   23.8400   38.3740 C   0  0  0  0  0  0  0  0  0  0  0  0
   39.4700   23.3520   38.8170 F   0  0  0  0  0  0  0  0  0  0  0  0
   37.8980   25.0250   38.9610 F   0  0  0  0  0  0  0  0  0  0  0  0
   37.3060   22.8530   38.6930 F   0  0  0  0  0  0  0  0  0  0  0  0
  2 15  1  0  0  0  0
  2  1  2  1  0  0  0
  3  2  1  0  0  0  0
  4  3  1  0  0  0  0
  5  2  1  0  0  0  0
  6  7  1  0  0  0  0
  6  5  1  0  0  0  0
  7 12  1  0  0  0  0
  8 13  1  0  0  0  0
  8  7  2  0  0  0  0
  9  8  1  0  0  0  0
 10  9  2  0  0  0  0
 10 11  1  0  0  0  0
 11  6  2  0  0  0  0
 14 10  1  0  0  0  0
 15 16  1  0  0  0  0
 16 17  2  0  0  0  0
 16 20  1  0  0  0  0
 17 18  1  0  0  0  0
 18 22  1  0  0  0  0
 18 19  1  0  0  0  0
 19 23  1  0  0  0  0
 20 19  2  0  0  0  0
 21 17  1  0  0  0  0
 23 26  1  0  0  0  0
 23 24  1  0  0  0  0
 23 25  1  0  0  0  0
M  END
>  <minimizedAffinity>
-4.87516737

$$$$

 OpenBabel03262521143D

 26 27  0  0  0  0  0  0  0  0999 V2000
   42.1830   24.1820   32.6050 O   0  0  0  0  0  0  0  0  0  0  0  0
   41.1590   24.7580   33.5770 P   0  0  1  0  0  0  0  0  0  0  0  0
   41.9050   25.2270   35.0350 O   0  0  0  0  0  0  0  0  0  0  0  0
   41.1720   25.6480   35.5630 H   0  0  0  0  0  0  0  0  0  0  0  0
   40.3700   26.1370   32.9570 O   0  0  0  0  0  0  0  0  0  0  0  0
   39.2660   26.6960   33.5860 C   0  0  0  0  0  0  0  0  0  0  0  0
   38.0250   26.9730   32.9860 C   0  0  0  0  0  0  0  0  0  0  0  0
   37.0450   27.5300   33.7760 C   0  0  0  0  0  0  0  0  0  0  0  0
   37.2850   27.7950   35.0810 N   0  0  0  0  0  0  0  0  0  0  0  0
   38.5140   27.5110   35.6430 C   0  0  0  0  0  0  0  0  0  0  0  0
   39.4840   26.9670   34.8860 N   0  0  0  0  0  0  0  0  0  0  0  0
   37.9450   26.7250   31.9560 H   0  0  0  0  0  0  0  0  0  0  0  0
   36.0860   27.7450   33.3170 H   0  0  0  0  0  0  0  0  0  0  0  0
   38.6500   27.7450   36.6940 H   0  0  0  0  0  0  0  0  0  0  0  0
   40.0340   23.5240   33.8600 O   0  0  0  0  0  0  0  0  0  0  0  0
   39.7850   23.1880   35.1950 C   0  0  0  0  0  0  0  0  0  0  0  0
   40.1710   22.0870   35.9300 C   0  0  0  0  0  0  0  0  0  0  0  0
   39.7000   22.2010   37.1610 N   0  0  0  0  0  0  0  0  0  0  0  0
   39.0090   23.3430   37.2780 C   0  0  0  0  0  0  0  0  0  0  0  0
   39.0670   23.9460   36.0560 N   0  0  0  0  0  0  0  0  0  0  0  0
   40.7640   21.2810   35.5280 H   0  0  0  0  0  0  0  0  0  0  0  0
   39.8650   21.4820   37.9040 H   0  0  0  0  0  0  0  0  0  0  0  0
   38.3540   23.7680   38.5270 C   0  0  0  0  0  0  0  0  0  0  0  0
   39.3060   23.6550   39.5310 F   0  0  0  0  0  0  0  0  0  0  0  0
   37.8030   25.0170   38.4460 F   0  0  0  0  0  0  0  0  0  0  0  0
   37.3610   22.8280   38.8350 F   0  0  0  0  0  0  0  0  0  0  0  0
  2  1  2  6  0  0  0
  2 15  1  0  0  0  0
  2  3  1  0  0  0  0
  3  4  1  0  0  0  0
  5  2  1  0  0  0  0
  5  6  1  0  0  0  0
  6 11  1  0  0  0  0
  7  6  2  0  0  0  0
  7  8  1  0  0  0  0
  8  9  2  0  0  0  0
  9 10  1  0  0  0  0
 10 14  1  0  0  0  0
 11 10  2  0  0  0  0
 12  7  1  0  0  0  0
 13  8  1  0  0  0  0
 15 16  1  0  0  0  0
 16 17  2  0  0  0  0
 16 20  1  0  0  0  0
 17 18  1  0  0  0  0
 18 19  1  0  0  0  0
 18 22  1  0  0  0  0
 19 23  1  0  0  0  0
 20 19  2  0  0  0  0
 21 17  1  0  0  0  0
 23 26  1  0  0  0  0
 23 24  1  0  0  0  0
 25 23  1  0  0  0  0
M  END
>  <minimizedAffinity>
-4.80013514

$$$$

 OpenBabel03262521143D

 26 27  0  0  0  0  0  0  0  0999 V2000
   36.7930   25.8180   33.0050 O   0  0  0  0  0  0  0  0  0  0  0  0
   37.3690   27.1600   33.4410 P   0  0  1  0  0  0  0  0  0  0  0  0
   37.6150   28.1790   32.0990 O   0  0  0  0  0  0  0  0  0  0  0  0
   37.9220   29.0410   32.4960 H   0  0  0  0  0  0  0  0  0  0  0  0
   36.3410   27.9960   34.5170 O   0  0  0  0  0  0  0  0  0  0  0  0
   35.6190   29.1130   34.1220 C   0  0  0  0  0  0  0  0  0  0  0  0
   35.5880   30.3530   34.7830 C   0  0  0  0  0  0  0  0  0  0  0  0
   34.8100   31.3480   34.2380 C   0  0  0  0  0  0  0  0  0  0  0  0
   34.1060   31.1230   33.1040 N   0  0  0  0  0  0  0  0  0  0  0  0
   34.1570   29.8950   32.4760 C   0  0  0  0  0  0  0  0  0  0  0  0
   34.9120   28.9100   32.9960 N   0  0  0  0  0  0  0  0  0  0  0  0
   36.1770   30.4200   35.6650 H   0  0  0  0  0  0  0  0  0  0  0  0
   34.7820   32.3070   34.7450 H   0  0  0  0  0  0  0  0  0  0  0  0
   33.5710   29.7710   31.5690 H   0  0  0  0  0  0  0  0  0  0  0  0
   38.8440   26.8150   34.1990 O   0  0  0  0  0  0  0  0  0  0  0  0
   38.8770   25.6980   35.0400 C   0  0  0  0  0  0  0  0  0  0  0  0
   39.4100   24.4410   34.8420 C   0  0  0  0  0  0  0  0  0  0  0  0
   39.2020   23.7070   35.9240 N   0  0  0  0  0  0  0  0  0  0  0  0
   38.5470   24.4290   36.8430 C   0  0  0  0  0  0  0  0  0  0  0  0
   38.3500   25.6590   36.2860 N   0  0  0  0  0  0  0  0  0  0  0  0
   39.9110   24.1430   33.9360 H   0  0  0  0  0  0  0  0  0  0  0  0
   39.5200   22.7130   36.0090 H   0  0  0  0  0  0  0  0  0  0  0  0
   38.1620   23.9010   38.1620 C   0  0  0  0  0  0  0  0  0  0  0  0
   37.7910   24.9950   38.9330 F   0  0  0  0  0  0  0  0  0  0  0  0
   37.1930   22.9370   38.0950 F   0  0  0  0  0  0  0  0  0  0  0  0
   39.3120   23.3790   38.7700 F   0  0  0  0  0  0  0  0  0  0  0  0
  2  1  2  6  0  0  0
  2 15  1  0  0  0  0
  2  5  1  0  0  0  0
  3  4  1  0  0  0  0
  3  2  1  0  0  0  0
  6  5  1  0  0  0  0
  6  7  1  0  0  0  0
  7 12  1  0  0  0  0
  8 13  1  0  0  0  0
  8  7  2  0  0  0  0
  9  8  1  0  0  0  0
 10 11  1  0  0  0  0
 10  9  2  0  0  0  0
 11  6  2  0  0  0  0
 14 10  1  0  0  0  0
 15 16  1  0  0  0  0
 16 20  1  0  0  0  0
 17 16  2  0  0  0  0
 17 18  1  0  0  0  0
 18 22  1  0  0  0  0
 18 19  1  0  0  0  0
 19 23  1  0  0  0  0
 20 19  2  0  0  0  0
 21 17  1  0  0  0  0
 23 26  1  0  0  0  0
 23 24  1  0  0  0  0
 25 23  1  0  0  0  0
M  END
>  <minimizedAffinity>
-4.77512789

$$$$

 OpenBabel03262521143D

 26 27  0  0  0  0  0  0  0  0999 V2000
   39.8320   26.5450   34.0620 O   0  0  0  0  0  0  0  0  0  0  0  0
   38.8280   26.3230   35.1880 P   0  0  1  0  0  0  0  0  0  0  0  0
   38.8480   27.6280   36.2830 O   0  0  0  0  0  0  0  0  0  0  0  0
   38.1170   27.4190   36.9280 H   0  0  0  0  0  0  0  0  0  0  0  0
   37.2270   26.1760   34.6180 O   0  0  0  0  0  0  0  0  0  0  0  0
   36.8560   26.6110   33.3530 C   0  0  0  0  0  0  0  0  0  0  0  0
   36.6970   27.9480   32.9540 C   0  0  0  0  0  0  0  0  0  0  0  0
   36.3220   28.1850   31.6500 C   0  0  0  0  0  0  0  0  0  0  0  0
   36.1180   27.1540   30.7980 N   0  0  0  0  0  0  0  0  0  0  0  0
   36.2830   25.8490   31.2200 C   0  0  0  0  0  0  0  0  0  0  0  0
   36.6480   25.5990   32.4910 N   0  0  0  0  0  0  0  0  0  0  0  0
   36.8820   28.6790   33.7020 H   0  0  0  0  0  0  0  0  0  0  0  0
   36.1980   29.2160   31.3370 H   0  0  0  0  0  0  0  0  0  0  0  0
   36.1050   25.0620   30.4930 H   0  0  0  0  0  0  0  0  0  0  0  0
   39.3010   24.8940   35.9640 O   0  0  0  0  0  0  0  0  0  0  0  0
   38.5390   23.7500   35.7040 C   0  0  0  0  0  0  0  0  0  0  0  0
   37.9190   22.8700   36.5670 C   0  0  0  0  0  0  0  0  0  0  0  0
   37.3080   21.9310   35.8620 N   0  0  0  0  0  0  0  0  0  0  0  0
   37.4960   22.1510   34.5540 C   0  0  0  0  0  0  0  0  0  0  0  0
   38.2590   23.2790   34.4670 N   0  0  0  0  0  0  0  0  0  0  0  0
   37.9510   22.9660   37.6400 H   0  0  0  0  0  0  0  0  0  0  0  0
   36.7670   21.1490   36.3010 H   0  0  0  0  0  0  0  0  0  0  0  0
   36.9440   21.2840   33.5000 C   0  0  0  0  0  0  0  0  0  0  0  0
   36.2320   22.1090   32.6410 F   0  0  0  0  0  0  0  0  0  0  0  0
   37.8980   20.5380   32.8620 F   0  0  0  0  0  0  0  0  0  0  0  0
   35.9950   20.4380   34.0900 F   0  0  0  0  0  0  0  0  0  0  0  0
  2  1  2  6  0  0  0
  2 15  1  0  0  0  0
  2  3  1  0  0  0  0
  3  4  1  0  0  0  0
  5  2  1  0  0  0  0
  6  5  1  0  0  0  0
  7  6  1  0  0  0  0
  7 12  1  0  0  0  0
  8  7  2  0  0  0  0
  9 10  2  0  0  0  0
  9  8  1  0  0  0  0
 10 11  1  0  0  0  0
 11  6  2  0  0  0  0
 13  8  1  0  0  0  0
 14 10  1  0  0  0  0
 16 15  1  0  0  0  0
 16 17  2  0  0  0  0
 17 21  1  0  0  0  0
 18 22  1  0  0  0  0
 18 17  1  0  0  0  0
 19 18  1  0  0  0  0
 20 19  2  0  0  0  0
 20 16  1  0  0  0  0
 23 26  1  0  0  0  0
 23 19  1  0  0  0  0
 24 23  1  0  0  0  0
 25 23  1  0  0  0  0
M  END
>  <minimizedAffinity>
-4.74402475

$$$$
