
 OpenBabel03272506063D

 25 26  0  0  0  0  0  0  0  0999 V2000
   35.6900   28.8300   49.3250 C   0  0  0  0  0  0  0  0  0  0  0  0
   36.5280   28.7120   48.6150 H   0  0  0  0  0  0  0  0  0  0  0  0
   35.8130   28.0120   50.0700 H   0  0  0  0  0  0  0  0  0  0  0  0
   34.3980   28.6500   48.5760 C   0  0  0  0  0  0  0  0  0  0  0  0
   34.3600   29.0040   47.1760 C   0  0  0  0  0  0  0  0  0  0  0  0
   32.6790   28.6260   46.7640 S   0  0  0  0  0  0  0  0  0  0  0  0
   32.2460   28.0470   48.4970 C   0  0  0  0  0  0  0  0  0  0  0  0
   33.2820   28.1960   49.0770 N   0  0  0  0  0  0  0  0  0  0  0  0
   35.1570   29.3880   46.5930 H   0  0  0  0  0  0  0  0  0  0  0  0
   30.9050   27.5510   48.9080 C   0  0  0  0  0  0  0  0  0  0  0  0
   30.5570   28.0540   50.1650 F   0  0  0  0  0  0  0  0  0  0  0  0
   30.9320   26.1760   48.8910 F   0  0  0  0  0  0  0  0  0  0  0  0
   30.0090   28.0260   47.9930 F   0  0  0  0  0  0  0  0  0  0  0  0
   35.7280   30.1380   50.0240 C   0  0  0  0  0  0  0  0  0  0  0  0
   34.7680   30.6820   49.8340 H   0  0  0  0  0  0  0  0  0  0  0  0
   35.8620   30.0790   51.1160 H   0  0  0  0  0  0  0  0  0  0  0  0
   37.9810   33.0080   49.3040 C   0  0  0  0  0  0  0  0  0  0  0  0
   38.7070   32.5520   48.1910 C   0  0  0  0  0  0  0  0  0  0  0  0
   38.4130   31.2710   47.7060 C   0  0  0  0  0  0  0  0  0  0  0  0
   37.4530   30.5530   48.3350 N   0  0  0  0  0  0  0  0  0  0  0  0
   36.7860   31.0350   49.3980 C   0  0  0  0  0  0  0  0  0  0  0  0
   37.0440   32.2470   49.8800 N   0  0  0  0  0  0  0  0  0  0  0  0
   38.2210   34.0020   49.6670 H   0  0  0  0  0  0  0  0  0  0  0  0
   39.4640   33.1650   47.7240 H   0  0  0  0  0  0  0  0  0  0  0  0
   38.9560   30.8880   46.8460 H   0  0  0  0  0  0  0  0  0  0  0  0
  1 14  1  0  0  0  0
  1  3  1  0  0  0  0
  2  1  1  0  0  0  0
  4  8  1  0  0  0  0
  4  1  1  0  0  0  0
  5  4  2  0  0  0  0
  6  5  1  0  0  0  0
  6  7  1  0  0  0  0
  7 10  1  0  0  0  0
  7  8  2  0  0  0  0
  9  5  1  0  0  0  0
 10 11  1  0  0  0  0
 12 10  1  0  0  0  0
 13 10  1  0  0  0  0
 14 16  1  0  0  0  0
 15 14  1  0  0  0  0
 17 23  1  0  0  0  0
 17 22  1  0  0  0  0
 18 17  2  0  0  0  0
 19 18  1  0  0  0  0
 19 20  2  0  0  0  0
 20 21  1  0  0  0  0
 21 22  2  0  0  0  0
 21 14  1  0  0  0  0
 24 18  1  0  0  0  0
 25 19  1  0  0  0  0
M  END
>  <minimizedAffinity>
-4.9466095

>  <minimizedRMSD>
0.687739849

$$$$
