
 OpenBabel03272506113D

 39 41  0  0  1  0  0  0  0  0999 V2000
   37.3330   30.9340   48.2570 C   0  0  1  0  0  0  0  0  0  0  0  0
   37.0180   29.5070   48.8290 C   0  0  0  0  0  0  0  0  0  0  0  0
   36.3480   29.6150   50.1970 C   0  0  0  0  0  0  0  0  0  0  0  0
   37.0660   30.6050   51.0570 C   0  0  0  0  0  0  0  0  0  0  0  0
   38.4250   30.8300   50.5130 C   0  0  0  0  0  0  0  0  0  0  0  0
   38.3230   31.5510   49.1980 C   0  0  2  0  0  0  0  0  0  0  0  0
   36.4460   31.4040   48.5410 H   0  0  0  0  0  0  0  0  0  0  0  0
   37.9690   28.9660   48.9480 H   0  0  0  0  0  0  0  0  0  0  0  0
   36.3930   28.9830   48.1030 H   0  0  0  0  0  0  0  0  0  0  0  0
   35.2620   29.8770   50.0540 H   0  0  0  0  0  0  0  0  0  0  0  0
   36.3480   28.6090   50.6270 H   0  0  0  0  0  0  0  0  0  0  0  0
   36.4180   31.4720   51.1700 H   0  0  0  0  0  0  0  0  0  0  0  0
   37.1210   30.1430   52.0830 H   0  0  0  0  0  0  0  0  0  0  0  0
   38.9690   29.8960   50.4620 H   0  0  0  0  0  0  0  0  0  0  0  0
   38.9500   31.5200   51.2050 H   0  0  0  0  0  0  0  0  0  0  0  0
   39.3480   31.5570   48.8030 H   0  0  0  0  0  0  0  0  0  0  0  0
   36.9050   30.4500   45.9000 C   0  0  0  0  0  0  0  0  0  0  0  0
   37.4010   30.3650   44.5950 C   0  0  0  0  0  0  0  0  0  0  0  0
   38.7360   30.5240   44.2720 C   0  0  0  0  0  0  0  0  0  0  0  0
   39.6600   30.7830   45.2930 C   0  0  0  0  0  0  0  0  0  0  0  0
   39.1450   30.8630   46.5740 C   0  0  0  0  0  0  0  0  0  0  0  0
   37.8120   30.7110   46.9170 C   0  0  0  0  0  0  0  0  0  0  0  0
   36.7320   30.1680   43.7490 H   0  0  0  0  0  0  0  0  0  0  0  0
   39.0260   30.4450   43.2340 H   0  0  0  0  0  0  0  0  0  0  0  0
   40.6650   30.8920   44.9720 H   0  0  0  0  0  0  0  0  0  0  0  0
   39.9730   31.0500   47.2430 H   0  0  0  0  0  0  0  0  0  0  0  0
   34.9020   29.3980   44.9840 C   0  0  0  0  0  0  0  0  0  0  0  0
   35.5200   30.1550   46.0420 C   0  0  0  0  0  0  0  0  0  0  0  0
   34.7190   30.5030   47.0910 C   0  0  0  0  0  0  0  0  0  0  0  0
   33.4200   30.1290   47.0980 N   0  0  0  0  0  0  0  0  0  0  0  0
   32.8590   29.4060   46.0760 C   0  0  0  0  0  0  0  0  0  0  0  0
   33.6130   29.0270   44.9840 N   0  0  0  0  0  0  0  0  0  0  0  0
   35.4090   29.0540   44.0950 H   0  0  0  0  0  0  0  0  0  0  0  0
   34.8890   31.0990   47.9330 H   0  0  0  0  0  0  0  0  0  0  0  0
   31.8050   29.1060   46.0870 H   0  0  0  0  0  0  0  0  0  0  0  0
   38.0500   33.0400   49.3970 C   0  0  0  0  0  0  0  0  0  0  0  0
   36.8710   33.3210   49.9910 F   0  0  0  0  0  0  0  0  0  0  0  0
   39.0990   33.5350   50.1670 F   0  0  0  0  0  0  0  0  0  0  0  0
   38.1480   33.5920   48.1240 F   0  0  0  0  0  0  0  0  0  0  0  0
  1  7  1  6  0  0  0
  1  2  1  0  0  0  0
  1  6  1  0  0  0  0
  2  8  1  0  0  0  0
  2  3  1  0  0  0  0
  3 11  1  0  0  0  0
  3  4  1  0  0  0  0
  4 12  1  0  0  0  0
  4 13  1  0  0  0  0
  5  4  1  0  0  0  0
  5 15  1  0  0  0  0
  6 16  1  6  0  0  0
  6 36  1  0  0  0  0
  6  5  1  0  0  0  0
  9  2  1  0  0  0  0
 10  3  1  0  0  0  0
 14  5  1  0  0  0  0
 17 28  1  0  0  0  0
 17 22  1  0  0  0  0
 18 17  2  0  0  0  0
 19 18  1  0  0  0  0
 19 20  2  0  0  0  0
 20 21  1  0  0  0  0
 21 22  2  0  0  0  0
 21 26  1  0  0  0  0
 22  1  1  0  0  0  0
 23 18  1  0  0  0  0
 24 19  1  0  0  0  0
 25 20  1  0  0  0  0
 27 28  1  0  0  0  0
 28 29  2  0  0  0  0
 29 30  1  0  0  0  0
 29 34  1  0  0  0  0
 31 35  1  0  0  0  0
 31 30  2  0  0  0  0
 32 27  2  0  0  0  0
 32 31  1  0  0  0  0
 33 27  1  0  0  0  0
 36 37  1  0  0  0  0
 36 38  1  0  0  0  0
 39 36  1  0  0  0  0
M  END
>  <minimizedAffinity>
-6.43733883

>  <minimizedRMSD>
2.03726768

$$$$
