
 OpenBabel03272510163D

 23 24  0  0  0  0  0  0  0  0999 V2000
   37.3010   29.3350   51.0330 Br  0  0  0  0  0  0  0  0  0  0  0  0
   35.9560   29.3360   49.6710 C   0  0  0  0  0  0  0  0  0  0  0  0
   35.9920   30.2650   48.6550 C   0  0  0  0  0  0  0  0  0  0  0  0
   34.9870   30.2160   47.6960 C   0  0  0  0  0  0  0  0  0  0  0  0
   33.9700   29.2730   47.7360 C   0  0  0  0  0  0  0  0  0  0  0  0
   33.9710   28.3670   48.7640 C   0  0  0  0  0  0  0  0  0  0  0  0
   34.9660   28.4060   49.7250 C   0  0  0  0  0  0  0  0  0  0  0  0
   35.0020   30.9410   46.8900 H   0  0  0  0  0  0  0  0  0  0  0  0
   33.1700   27.6500   48.7680 H   0  0  0  0  0  0  0  0  0  0  0  0
   34.8870   27.6520   50.5000 H   0  0  0  0  0  0  0  0  0  0  0  0
   37.9910   33.1960   49.4670 C   0  0  0  0  0  0  0  0  0  0  0  0
   39.0220   33.1890   48.4920 C   0  0  0  0  0  0  0  0  0  0  0  0
   39.0140   32.1610   47.5550 C   0  0  0  0  0  0  0  0  0  0  0  0
   38.0240   31.2210   47.6230 N   0  0  0  0  0  0  0  0  0  0  0  0
   37.0490   31.2700   48.5840 C   0  0  0  0  0  0  0  0  0  0  0  0
   37.0400   32.2540   49.4950 N   0  0  0  0  0  0  0  0  0  0  0  0
   37.9330   33.9660   50.2280 H   0  0  0  0  0  0  0  0  0  0  0  0
   39.7560   33.9570   48.5060 H   0  0  0  0  0  0  0  0  0  0  0  0
   39.7770   32.1100   46.7910 H   0  0  0  0  0  0  0  0  0  0  0  0
   32.9430   29.3100   46.6580 C   0  0  0  0  0  0  0  0  0  0  0  0
   32.6690   30.6350   46.3820 F   0  0  0  0  0  0  0  0  0  0  0  0
   33.3940   28.6140   45.5520 F   0  0  0  0  0  0  0  0  0  0  0  0
   31.7720   28.6820   47.0440 F   0  0  0  0  0  0  0  0  0  0  0  0
  2  7  1  0  0  0  0
  2  1  1  0  0  0  0
  3  2  2  0  0  0  0
  4  5  2  0  0  0  0
  4  3  1  0  0  0  0
  5  6  1  0  0  0  0
  6  9  1  0  0  0  0
  6  7  2  0  0  0  0
  7 10  1  0  0  0  0
  8  4  1  0  0  0  0
 11 16  1  0  0  0  0
 11 17  1  0  0  0  0
 12 18  1  0  0  0  0
 12 11  2  0  0  0  0
 13 14  2  0  0  0  0
 13 12  1  0  0  0  0
 14 15  1  0  0  0  0
 15  3  1  0  0  0  0
 15 16  2  0  0  0  0
 19 13  1  0  0  0  0
 20 23  1  0  0  0  0
 20  5  1  0  0  0  0
 21 20  1  0  0  0  0
 22 20  1  0  0  0  0
M  END
>  <minimizedAffinity>
-5.78304195

>  <minimizedRMSD>
0.119863823

$$$$
