
 OpenBabel03272508323D

 40 43  0  0  1  0  0  0  0  0999 V2000
   34.6160   29.9900   45.9290 N   0  0  0  0  0  0  0  0  0  0  0  0
   33.2130   30.3470   45.9220 C   0  0  0  0  0  0  0  0  0  0  0  0
   32.5650   30.1130   44.6050 C   0  0  0  0  0  0  0  0  0  0  0  0
   33.2880   29.1090   43.8630 N   0  0  0  0  0  0  0  0  0  0  0  0
   34.5750   29.6950   43.4980 C   0  0  0  0  0  0  0  0  0  0  0  0
   35.4130   29.6510   44.7330 C   0  0  1  0  0  0  0  0  0  0  0  0
   32.7060   29.8060   46.7350 H   0  0  0  0  0  0  0  0  0  0  0  0
   33.1650   31.4290   46.2190 H   0  0  0  0  0  0  0  0  0  0  0  0
   31.4970   29.9030   44.6970 H   0  0  0  0  0  0  0  0  0  0  0  0
   32.6500   31.0660   44.0180 H   0  0  0  0  0  0  0  0  0  0  0  0
   33.4490   28.2700   44.4460 H   0  0  0  0  0  0  0  0  0  0  0  0
   35.0050   29.0800   42.6980 H   0  0  0  0  0  0  0  0  0  0  0  0
   34.3570   30.7430   43.1930 H   0  0  0  0  0  0  0  0  0  0  0  0
   35.7430   28.6180   44.9290 H   0  0  0  0  0  0  0  0  0  0  0  0
   36.6350   31.8120   44.2000 C   0  0  0  0  0  0  0  0  0  0  0  0
   36.6360   30.4790   44.6270 C   0  0  0  0  0  0  0  0  0  0  0  0
   37.8120   29.8720   45.0210 C   0  0  0  0  0  0  0  0  0  0  0  0
   38.9640   30.6270   44.9830 C   0  0  0  0  0  0  0  0  0  0  0  0
   38.9530   31.9760   44.5490 C   0  0  0  0  0  0  0  0  0  0  0  0
   37.7630   32.5990   44.1430 C   0  0  0  0  0  0  0  0  0  0  0  0
   40.2540   32.5030   44.6050 O   0  0  0  0  0  0  0  0  0  0  0  0
   40.9900   31.6390   45.4350 C   0  0  0  0  0  0  0  0  0  0  0  0
   40.3050   30.3920   45.3010 O   0  0  0  0  0  0  0  0  0  0  0  0
   35.7040   32.2630   43.8940 H   0  0  0  0  0  0  0  0  0  0  0  0
   38.0930   28.8870   45.2990 H   0  0  0  0  0  0  0  0  0  0  0  0
   37.7520   33.6220   43.8120 H   0  0  0  0  0  0  0  0  0  0  0  0
   40.7830   31.9450   46.5010 H   0  0  0  0  0  0  0  0  0  0  0  0
   42.0550   31.5680   45.2220 H   0  0  0  0  0  0  0  0  0  0  0  0
   35.0880   28.8690   48.0730 C   0  0  0  0  0  0  0  0  0  0  0  0
   35.2960   29.9480   47.1860 C   0  0  0  0  0  0  0  0  0  0  0  0
   36.1830   30.9310   47.5750 C   0  0  0  0  0  0  0  0  0  0  0  0
   36.8150   30.8130   48.7910 N   0  0  0  0  0  0  0  0  0  0  0  0
   36.5830   29.7690   49.5940 C   0  0  0  0  0  0  0  0  0  0  0  0
   35.7290   28.7910   49.2600 N   0  0  0  0  0  0  0  0  0  0  0  0
   34.3740   28.1170   47.7190 H   0  0  0  0  0  0  0  0  0  0  0  0
   36.3650   31.7690   46.9260 H   0  0  0  0  0  0  0  0  0  0  0  0
   37.3130   29.7210   50.8950 C   0  0  0  0  0  0  0  0  0  0  0  0
   38.2140   30.7440   51.0430 F   0  0  0  0  0  0  0  0  0  0  0  0
   37.9780   28.4960   51.0100 F   0  0  0  0  0  0  0  0  0  0  0  0
   36.3540   29.7360   51.8910 F   0  0  0  0  0  0  0  0  0  0  0  0
  1 30  1  0  0  0  0
  2  1  1  0  0  0  0
  2  8  1  0  0  0  0
  2  7  1  0  0  0  0
  3  9  1  0  0  0  0
  3  2  1  0  0  0  0
  4 11  1  0  0  0  0
  4  3  1  0  0  0  0
  5  4  1  0  0  0  0
  5  6  1  0  0  0  0
  6 14  1  1  0  0  0
  6  1  1  0  0  0  0
 10  3  1  0  0  0  0
 12  5  1  0  0  0  0
 13  5  1  0  0  0  0
 15 16  1  0  0  0  0
 16  6  1  0  0  0  0
 16 17  2  0  0  0  0
 17 25  1  0  0  0  0
 18 17  1  0  0  0  0
 18 23  1  0  0  0  0
 19 21  1  0  0  0  0
 19 18  2  0  0  0  0
 20 15  2  0  0  0  0
 20 19  1  0  0  0  0
 21 22  1  0  0  0  0
 22 27  1  0  0  0  0
 23 22  1  0  0  0  0
 24 15  1  0  0  0  0
 26 20  1  0  0  0  0
 28 22  1  0  0  0  0
 29 34  1  0  0  0  0
 30 31  1  0  0  0  0
 30 29  2  0  0  0  0
 31 32  2  0  0  0  0
 32 33  1  0  0  0  0
 33 37  1  0  0  0  0
 34 33  2  0  0  0  0
 35 29  1  0  0  0  0
 36 31  1  0  0  0  0
 37 39  1  0  0  0  0
 37 38  1  0  0  0  0
 37 40  1  0  0  0  0
M  END
>  <minimizedAffinity>
-5.36874914

>  <minimizedRMSD>
2.5292213

$$$$
