
 OpenBabel03272508203D

 36 38  0  0  0  0  0  0  0  0999 V2000
   39.0340   23.6340   32.8180 C   0  0  0  0  0  0  0  0  0  0  0  0
   39.0830   23.1530   31.8560 H   0  0  0  0  0  0  0  0  0  0  0  0
   40.1400   23.8700   33.0340 H   0  0  0  0  0  0  0  0  0  0  0  0
   37.3230   25.3000   32.1360 C   0  0  0  0  0  0  0  0  0  0  0  0
   38.3810   24.9110   32.9420 C   0  0  0  0  0  0  0  0  0  0  0  0
   38.7670   25.8810   33.8120 C   0  0  0  0  0  0  0  0  0  0  0  0
   38.1960   27.0900   33.8930 N   0  0  0  0  0  0  0  0  0  0  0  0
   37.1810   27.4530   33.1120 C   0  0  0  0  0  0  0  0  0  0  0  0
   36.7400   26.5580   32.2290 N   0  0  0  0  0  0  0  0  0  0  0  0
   39.5820   25.7330   34.5110 H   0  0  0  0  0  0  0  0  0  0  0  0
   36.6210   28.3540   33.0430 H   0  0  0  0  0  0  0  0  0  0  0  0
   36.7030   24.2650   31.1980 C   0  0  0  0  0  0  0  0  0  0  0  0
   35.7030   23.3740   31.6010 C   0  0  0  0  0  0  0  0  0  0  0  0
   35.1790   24.6760   31.0270 C   0  0  0  0  0  0  0  0  0  0  0  0
   37.1440   24.1580   30.1850 H   0  0  0  0  0  0  0  0  0  0  0  0
   35.4630   23.2670   32.7010 H   0  0  0  0  0  0  0  0  0  0  0  0
   35.4730   22.4440   31.0720 H   0  0  0  0  0  0  0  0  0  0  0  0
   34.7680   25.4180   31.6990 H   0  0  0  0  0  0  0  0  0  0  0  0
   34.8290   24.6720   29.9930 H   0  0  0  0  0  0  0  0  0  0  0  0
   38.6730   22.5950   33.8040 C   0  0  0  0  0  0  0  0  0  0  0  0
   38.8090   21.5910   33.3040 H   0  0  0  0  0  0  0  0  0  0  0  0
   37.5890   22.5890   34.0770 H   0  0  0  0  0  0  0  0  0  0  0  0
   37.4220   23.5630   36.0410 F   0  0  0  0  0  0  0  0  0  0  0  0
   38.7020   23.0610   36.1380 C   0  0  0  0  0  0  0  0  0  0  0  0
   39.4100   22.5560   35.0570 C   0  0  0  0  0  0  0  0  0  0  0  0
   40.6850   22.0850   35.2890 C   0  0  0  0  0  0  0  0  0  0  0  0
   41.2330   22.1160   36.5560 C   0  0  0  0  0  0  0  0  0  0  0  0
   40.5050   22.6270   37.6260 C   0  0  0  0  0  0  0  0  0  0  0  0
   39.2410   23.0970   37.4100 C   0  0  0  0  0  0  0  0  0  0  0  0
   41.2620   21.6910   34.4780 H   0  0  0  0  0  0  0  0  0  0  0  0
   42.2360   21.7380   36.7000 H   0  0  0  0  0  0  0  0  0  0  0  0
   40.9560   22.6390   38.6020 H   0  0  0  0  0  0  0  0  0  0  0  0
   38.4570   23.6490   38.5710 C   0  0  0  0  0  0  0  0  0  0  0  0
   38.0620   24.9230   38.1370 F   0  0  0  0  0  0  0  0  0  0  0  0
   39.2790   23.8220   39.6570 F   0  0  0  0  0  0  0  0  0  0  0  0
   37.3430   22.9010   38.8060 F   0  0  0  0  0  0  0  0  0  0  0  0
  1  5  1  0  0  0  0
  1  3  1  0  0  0  0
  1 20  1  0  0  0  0
  2  1  1  0  0  0  0
  4  9  2  0  0  0  0
  4  5  1  0  0  0  0
  5  6  2  0  0  0  0
  6  7  1  0  0  0  0
  6 10  1  0  0  0  0
  8  7  2  0  0  0  0
  9  8  1  0  0  0  0
 11  8  1  0  0  0  0
 12 13  1  0  0  0  0
 12  4  1  0  0  0  0
 13 16  1  0  0  0  0
 14 12  1  0  0  0  0
 14 13  1  0  0  0  0
 14 18  1  0  0  0  0
 15 12  1  0  0  0  0
 17 13  1  0  0  0  0
 19 14  1  0  0  0  0
 20 22  1  0  0  0  0
 20 25  1  0  0  0  0
 21 20  1  0  0  0  0
 23 24  1  0  0  0  0
 24 29  1  0  0  0  0
 25 26  1  0  0  0  0
 25 24  2  0  0  0  0
 26 27  2  0  0  0  0
 27 31  1  0  0  0  0
 27 28  1  0  0  0  0
 28 32  1  0  0  0  0
 29 28  2  0  0  0  0
 29 33  1  0  0  0  0
 30 26  1  0  0  0  0
 33 36  1  0  0  0  0
 33 35  1  0  0  0  0
 34 33  1  0  0  0  0
M  END
>  <minimizedAffinity>
-5.63529444

$$$$

 OpenBabel03272508203D

 36 38  0  0  0  0  0  0  0  0999 V2000
   36.8610   27.2840   34.7830 C   0  0  0  0  0  0  0  0  0  0  0  0
   36.0540   27.3940   35.4860 H   0  0  0  0  0  0  0  0  0  0  0  0
   36.8070   26.1650   34.5140 H   0  0  0  0  0  0  0  0  0  0  0  0
   36.0750   29.1150   33.3000 C   0  0  0  0  0  0  0  0  0  0  0  0
   36.7880   27.9440   33.5060 C   0  0  0  0  0  0  0  0  0  0  0  0
   37.3550   27.4650   32.3680 C   0  0  0  0  0  0  0  0  0  0  0  0
   37.2430   28.0490   31.1670 N   0  0  0  0  0  0  0  0  0  0  0  0
   36.5540   29.1720   30.9830 C   0  0  0  0  0  0  0  0  0  0  0  0
   35.9660   29.7100   32.0500 N   0  0  0  0  0  0  0  0  0  0  0  0
   37.9460   26.5570   32.3600 H   0  0  0  0  0  0  0  0  0  0  0  0
   36.3640   29.7590   30.1160 H   0  0  0  0  0  0  0  0  0  0  0  0
   35.4900   29.8340   34.5160 C   0  0  0  0  0  0  0  0  0  0  0  0
   34.6160   30.9210   34.4110 C   0  0  0  0  0  0  0  0  0  0  0  0
   33.9250   29.5730   34.4750 C   0  0  0  0  0  0  0  0  0  0  0  0
   35.8600   29.5350   35.5190 H   0  0  0  0  0  0  0  0  0  0  0  0
   34.4740   31.4250   33.4080 H   0  0  0  0  0  0  0  0  0  0  0  0
   34.4390   31.6340   35.2220 H   0  0  0  0  0  0  0  0  0  0  0  0
   33.4950   29.1590   33.5720 H   0  0  0  0  0  0  0  0  0  0  0  0
   33.4980   29.2650   35.4320 H   0  0  0  0  0  0  0  0  0  0  0  0
   38.1200   27.4270   35.5430 C   0  0  0  0  0  0  0  0  0  0  0  0
   37.8500   27.4810   36.6390 H   0  0  0  0  0  0  0  0  0  0  0  0
   38.6440   28.3980   35.3700 H   0  0  0  0  0  0  0  0  0  0  0  0
   37.5880   24.9820   36.6600 F   0  0  0  0  0  0  0  0  0  0  0  0
   38.7750   25.1830   35.9890 C   0  0  0  0  0  0  0  0  0  0  0  0
   39.1270   26.3870   35.3990 C   0  0  0  0  0  0  0  0  0  0  0  0
   40.3460   26.4560   34.7590 C   0  0  0  0  0  0  0  0  0  0  0  0
   41.1840   25.3590   34.7090 C   0  0  0  0  0  0  0  0  0  0  0  0
   40.8100   24.1600   35.3080 C   0  0  0  0  0  0  0  0  0  0  0  0
   39.6050   24.0790   35.9450 C   0  0  0  0  0  0  0  0  0  0  0  0
   40.6530   27.3700   34.2940 H   0  0  0  0  0  0  0  0  0  0  0  0
   42.1320   25.4500   34.1980 H   0  0  0  0  0  0  0  0  0  0  0  0
   41.4820   23.3220   35.2530 H   0  0  0  0  0  0  0  0  0  0  0  0
   39.2060   22.7780   36.5920 C   0  0  0  0  0  0  0  0  0  0  0  0
   39.0930   23.0990   37.9530 F   0  0  0  0  0  0  0  0  0  0  0  0
   40.2170   21.8590   36.4690 F   0  0  0  0  0  0  0  0  0  0  0  0
   37.9910   22.3620   36.1380 F   0  0  0  0  0  0  0  0  0  0  0  0
  1  2  1  0  0  0  0
  1 20  1  0  0  0  0
  3  1  1  0  0  0  0
  4  5  1  0  0  0  0
  4 12  1  0  0  0  0
  5  1  1  0  0  0  0
  6  5  2  0  0  0  0
  7  6  1  0  0  0  0
  8  7  2  0  0  0  0
  8  9  1  0  0  0  0
  9  4  2  0  0  0  0
 10  6  1  0  0  0  0
 11  8  1  0  0  0  0
 12 15  1  0  0  0  0
 13 14  1  0  0  0  0
 13 12  1  0  0  0  0
 13 17  1  0  0  0  0
 14 12  1  0  0  0  0
 14 19  1  0  0  0  0
 16 13  1  0  0  0  0
 18 14  1  0  0  0  0
 20 21  1  0  0  0  0
 22 20  1  0  0  0  0
 24 23  1  0  0  0  0
 25 20  1  0  0  0  0
 25 24  2  0  0  0  0
 26 25  1  0  0  0  0
 27 26  2  0  0  0  0
 27 28  1  0  0  0  0
 28 29  2  0  0  0  0
 29 24  1  0  0  0  0
 29 33  1  0  0  0  0
 30 26  1  0  0  0  0
 31 27  1  0  0  0  0
 32 28  1  0  0  0  0
 33 34  1  0  0  0  0
 35 33  1  0  0  0  0
 36 33  1  0  0  0  0
M  END
>  <minimizedAffinity>
-5.4719677

$$$$

 OpenBabel03272508203D

 36 38  0  0  0  0  0  0  0  0999 V2000
   38.8430   24.0920   32.0580 C   0  0  0  0  0  0  0  0  0  0  0  0
   38.9110   23.1070   32.4880 H   0  0  0  0  0  0  0  0  0  0  0  0
   39.3650   23.9550   31.0410 H   0  0  0  0  0  0  0  0  0  0  0  0
   36.3870   23.8810   31.7570 C   0  0  0  0  0  0  0  0  0  0  0  0
   37.5530   24.6280   31.7100 C   0  0  0  0  0  0  0  0  0  0  0  0
   37.3540   25.8910   31.2480 C   0  0  0  0  0  0  0  0  0  0  0  0
   36.1630   26.3750   30.8730 N   0  0  0  0  0  0  0  0  0  0  0  0
   35.0500   25.6470   30.9210 C   0  0  0  0  0  0  0  0  0  0  0  0
   35.1580   24.3950   31.3630 N   0  0  0  0  0  0  0  0  0  0  0  0
   38.1660   26.6000   31.1520 H   0  0  0  0  0  0  0  0  0  0  0  0
   34.0410   25.8680   30.6650 H   0  0  0  0  0  0  0  0  0  0  0  0
   36.4410   22.4840   32.3750 C   0  0  0  0  0  0  0  0  0  0  0  0
   35.3740   21.5820   32.3140 C   0  0  0  0  0  0  0  0  0  0  0  0
   36.3550   21.4600   31.1650 C   0  0  0  0  0  0  0  0  0  0  0  0
   37.3340   22.2230   32.9810 H   0  0  0  0  0  0  0  0  0  0  0  0
   34.3590   21.9440   31.9700 H   0  0  0  0  0  0  0  0  0  0  0  0
   35.2620   20.7320   32.9940 H   0  0  0  0  0  0  0  0  0  0  0  0
   36.0720   21.8370   30.1900 H   0  0  0  0  0  0  0  0  0  0  0  0
   37.0920   20.6550   31.2080 H   0  0  0  0  0  0  0  0  0  0  0  0
   39.7490   24.9660   32.8310 C   0  0  0  0  0  0  0  0  0  0  0  0
   40.0720   25.8070   32.1490 H   0  0  0  0  0  0  0  0  0  0  0  0
   40.7190   24.4830   33.1020 H   0  0  0  0  0  0  0  0  0  0  0  0
   39.1600   23.3000   34.9240 F   0  0  0  0  0  0  0  0  0  0  0  0
   38.9720   24.6580   35.0590 C   0  0  0  0  0  0  0  0  0  0  0  0
   39.2390   25.5720   34.0500 C   0  0  0  0  0  0  0  0  0  0  0  0
   39.0050   26.9050   34.3140 C   0  0  0  0  0  0  0  0  0  0  0  0
   38.5220   27.3110   35.5420 C   0  0  0  0  0  0  0  0  0  0  0  0
   38.2610   26.3770   36.5390 C   0  0  0  0  0  0  0  0  0  0  0  0
   38.4880   25.0540   36.2920 C   0  0  0  0  0  0  0  0  0  0  0  0
   39.1970   27.6390   33.5580 H   0  0  0  0  0  0  0  0  0  0  0  0
   38.3510   28.3650   35.7130 H   0  0  0  0  0  0  0  0  0  0  0  0
   37.8850   26.7210   37.4870 H   0  0  0  0  0  0  0  0  0  0  0  0
   38.2040   24.0460   37.3750 C   0  0  0  0  0  0  0  0  0  0  0  0
   37.8340   24.8300   38.4770 F   0  0  0  0  0  0  0  0  0  0  0  0
   39.3540   23.3790   37.7130 F   0  0  0  0  0  0  0  0  0  0  0  0
   37.1540   23.2470   37.0330 F   0  0  0  0  0  0  0  0  0  0  0  0
  1  2  1  0  0  0  0
  1 20  1  0  0  0  0
  3  1  1  0  0  0  0
  4 12  1  0  0  0  0
  5  4  1  0  0  0  0
  5  1  1  0  0  0  0
  6  5  2  0  0  0  0
  7  8  2  0  0  0  0
  7  6  1  0  0  0  0
  8  9  1  0  0  0  0
  9  4  2  0  0  0  0
 10  6  1  0  0  0  0
 11  8  1  0  0  0  0
 12 15  1  0  0  0  0
 13 12  1  0  0  0  0
 13 17  1  0  0  0  0
 14 19  1  0  0  0  0
 14 13  1  0  0  0  0
 14 12  1  0  0  0  0
 16 13  1  0  0  0  0
 18 14  1  0  0  0  0
 20 22  1  0  0  0  0
 20 25  1  0  0  0  0
 21 20  1  0  0  0  0
 23 24  1  0  0  0  0
 24 29  1  0  0  0  0
 25 26  1  0  0  0  0
 25 24  2  0  0  0  0
 26 27  2  0  0  0  0
 27 31  1  0  0  0  0
 27 28  1  0  0  0  0
 28 32  1  0  0  0  0
 29 28  2  0  0  0  0
 29 33  1  0  0  0  0
 30 26  1  0  0  0  0
 33 35  1  0  0  0  0
 33 34  1  0  0  0  0
 36 33  1  0  0  0  0
M  END
>  <minimizedAffinity>
-5.4685359

$$$$

 OpenBabel03272508203D

 36 38  0  0  0  0  0  0  0  0999 V2000
   38.8880   23.1820   32.3200 C   0  0  0  0  0  0  0  0  0  0  0  0
   39.5940   22.9470   31.5420 H   0  0  0  0  0  0  0  0  0  0  0  0
   38.5450   24.2430   32.0320 H   0  0  0  0  0  0  0  0  0  0  0  0
   36.4560   22.9030   31.9010 C   0  0  0  0  0  0  0  0  0  0  0  0
   37.6580   22.4400   32.4120 C   0  0  0  0  0  0  0  0  0  0  0  0
   37.5350   21.2480   33.0540 C   0  0  0  0  0  0  0  0  0  0  0  0
   36.3800   20.5810   33.1870 N   0  0  0  0  0  0  0  0  0  0  0  0
   35.2320   21.0380   32.6930 C   0  0  0  0  0  0  0  0  0  0  0  0
   35.2650   22.2020   32.0480 N   0  0  0  0  0  0  0  0  0  0  0  0
   38.3830   20.7520   33.5090 H   0  0  0  0  0  0  0  0  0  0  0  0
   34.2430   20.6470   32.7080 H   0  0  0  0  0  0  0  0  0  0  0  0
   36.4690   24.1700   31.0460 C   0  0  0  0  0  0  0  0  0  0  0  0
   35.3360   24.9650   30.8440 C   0  0  0  0  0  0  0  0  0  0  0  0
   36.1780   25.3770   32.0360 C   0  0  0  0  0  0  0  0  0  0  0  0
   37.3980   24.4040   30.4850 H   0  0  0  0  0  0  0  0  0  0  0  0
   34.3210   24.5750   31.1550 H   0  0  0  0  0  0  0  0  0  0  0  0
   35.2320   25.6700   30.0130 H   0  0  0  0  0  0  0  0  0  0  0  0
   35.8240   25.1500   33.0330 H   0  0  0  0  0  0  0  0  0  0  0  0
   36.8520   26.2280   31.9130 H   0  0  0  0  0  0  0  0  0  0  0  0
   39.6610   23.3620   33.5670 C   0  0  0  0  0  0  0  0  0  0  0  0
   40.6940   23.7130   33.2770 H   0  0  0  0  0  0  0  0  0  0  0  0
   39.8680   22.4080   34.1100 H   0  0  0  0  0  0  0  0  0  0  0  0
   39.1550   22.3920   36.0780 F   0  0  0  0  0  0  0  0  0  0  0  0
   38.9270   23.7220   35.8020 C   0  0  0  0  0  0  0  0  0  0  0  0
   39.1500   24.2950   34.5580 C   0  0  0  0  0  0  0  0  0  0  0  0
   38.8790   25.6390   34.4130 C   0  0  0  0  0  0  0  0  0  0  0  0
   38.4020   26.3850   35.4730 C   0  0  0  0  0  0  0  0  0  0  0  0
   38.1850   25.7900   36.7110 C   0  0  0  0  0  0  0  0  0  0  0  0
   38.4500   24.4600   36.8690 C   0  0  0  0  0  0  0  0  0  0  0  0
   39.0360   26.1150   33.4670 H   0  0  0  0  0  0  0  0  0  0  0  0
   38.2000   27.4360   35.3210 H   0  0  0  0  0  0  0  0  0  0  0  0
   37.8130   26.3950   37.5200 H   0  0  0  0  0  0  0  0  0  0  0  0
   38.2130   23.8200   38.2120 C   0  0  0  0  0  0  0  0  0  0  0  0
   37.7940   24.8840   39.0240 F   0  0  0  0  0  0  0  0  0  0  0  0
   39.3960   23.3520   38.7270 F   0  0  0  0  0  0  0  0  0  0  0  0
   37.2110   22.8990   38.1430 F   0  0  0  0  0  0  0  0  0  0  0  0
  1  5  1  0  0  0  0
  1 20  1  0  0  0  0
  2  1  1  0  0  0  0
  3  1  1  0  0  0  0
  4  9  2  0  0  0  0
  4  5  1  0  0  0  0
  5  6  2  0  0  0  0
  6  7  1  0  0  0  0
  6 10  1  0  0  0  0
  8 11  1  0  0  0  0
  8  7  2  0  0  0  0
  9  8  1  0  0  0  0
 12  4  1  0  0  0  0
 12 14  1  0  0  0  0
 13 12  1  0  0  0  0
 13 16  1  0  0  0  0
 13 14  1  0  0  0  0
 14 18  1  0  0  0  0
 15 12  1  0  0  0  0
 17 13  1  0  0  0  0
 19 14  1  0  0  0  0
 20 22  1  0  0  0  0
 20 25  1  0  0  0  0
 21 20  1  0  0  0  0
 24 23  1  0  0  0  0
 24 29  1  0  0  0  0
 25 24  2  0  0  0  0
 26 25  1  0  0  0  0
 26 27  2  0  0  0  0
 27 28  1  0  0  0  0
 28 29  2  0  0  0  0
 28 32  1  0  0  0  0
 29 33  1  0  0  0  0
 30 26  1  0  0  0  0
 31 27  1  0  0  0  0
 33 35  1  0  0  0  0
 33 34  1  0  0  0  0
 36 33  1  0  0  0  0
M  END
>  <minimizedAffinity>
-5.40371656

$$$$

 OpenBabel03272508203D

 36 38  0  0  0  0  0  0  0  0999 V2000
   36.3770   28.7140   32.9100 C   0  0  0  0  0  0  0  0  0  0  0  0
   37.1030   29.3350   33.4050 H   0  0  0  0  0  0  0  0  0  0  0  0
   36.4250   29.0950   31.8240 H   0  0  0  0  0  0  0  0  0  0  0  0
   37.2580   26.5540   33.7620 C   0  0  0  0  0  0  0  0  0  0  0  0
   36.6160   27.3000   32.7860 C   0  0  0  0  0  0  0  0  0  0  0  0
   36.2930   26.5670   31.6880 C   0  0  0  0  0  0  0  0  0  0  0  0
   36.5630   25.2620   31.5480 N   0  0  0  0  0  0  0  0  0  0  0  0
   37.1820   24.5570   32.4920 C   0  0  0  0  0  0  0  0  0  0  0  0
   37.5330   25.2010   33.6040 N   0  0  0  0  0  0  0  0  0  0  0  0
   35.7870   27.0040   30.8360 H   0  0  0  0  0  0  0  0  0  0  0  0
   37.4700   23.5350   32.5450 H   0  0  0  0  0  0  0  0  0  0  0  0
   37.5660   27.2200   35.1020 C   0  0  0  0  0  0  0  0  0  0  0  0
   38.2340   26.5660   36.1430 C   0  0  0  0  0  0  0  0  0  0  0  0
   39.1480   27.3190   35.1960 C   0  0  0  0  0  0  0  0  0  0  0  0
   37.1480   28.2330   35.2830 H   0  0  0  0  0  0  0  0  0  0  0  0
   38.3920   25.4470   36.0860 H   0  0  0  0  0  0  0  0  0  0  0  0
   38.1890   26.8890   37.1880 H   0  0  0  0  0  0  0  0  0  0  0  0
   39.7410   26.7610   34.4840 H   0  0  0  0  0  0  0  0  0  0  0  0
   39.5160   28.2970   35.5140 H   0  0  0  0  0  0  0  0  0  0  0  0
   35.0460   29.1320   33.3960 C   0  0  0  0  0  0  0  0  0  0  0  0
   34.4990   28.2010   33.7270 H   0  0  0  0  0  0  0  0  0  0  0  0
   34.3810   29.5370   32.5950 H   0  0  0  0  0  0  0  0  0  0  0  0
   32.6040   29.5800   34.5540 F   0  0  0  0  0  0  0  0  0  0  0  0
   33.7160   30.2440   35.0260 C   0  0  0  0  0  0  0  0  0  0  0  0
   34.9870   30.0810   34.4960 C   0  0  0  0  0  0  0  0  0  0  0  0
   36.0150   30.8070   35.0590 C   0  0  0  0  0  0  0  0  0  0  0  0
   35.7810   31.6650   36.1160 C   0  0  0  0  0  0  0  0  0  0  0  0
   34.4980   31.8130   36.6320 C   0  0  0  0  0  0  0  0  0  0  0  0
   33.4710   31.1000   36.0830 C   0  0  0  0  0  0  0  0  0  0  0  0
   37.0090   30.7100   34.6740 H   0  0  0  0  0  0  0  0  0  0  0  0
   36.6120   32.2180   36.5320 H   0  0  0  0  0  0  0  0  0  0  0  0
   34.3440   32.4890   37.4550 H   0  0  0  0  0  0  0  0  0  0  0  0
   32.0830   31.2640   36.6450 C   0  0  0  0  0  0  0  0  0  0  0  0
   32.2030   32.3430   37.5320 F   0  0  0  0  0  0  0  0  0  0  0  0
   31.7400   30.1600   37.3850 F   0  0  0  0  0  0  0  0  0  0  0  0
   31.1970   31.5980   35.6650 F   0  0  0  0  0  0  0  0  0  0  0  0
  1 20  1  0  0  0  0
  1  2  1  0  0  0  0
  3  1  1  0  0  0  0
  4 12  1  0  0  0  0
  5  1  1  0  0  0  0
  5  4  2  0  0  0  0
  6  5  1  0  0  0  0
  7  6  2  0  0  0  0
  7  8  1  0  0  0  0
  8 11  1  0  0  0  0
  8  9  2  0  0  0  0
  9  4  1  0  0  0  0
 10  6  1  0  0  0  0
 12 14  1  0  0  0  0
 12 15  1  0  0  0  0
 12 13  1  0  0  0  0
 13 17  1  0  0  0  0
 14 19  1  0  0  0  0
 14 13  1  0  0  0  0
 16 13  1  0  0  0  0
 18 14  1  0  0  0  0
 20 21  1  0  0  0  0
 20 25  1  0  0  0  0
 22 20  1  0  0  0  0
 23 24  1  0  0  0  0
 24 29  1  0  0  0  0
 25 24  2  0  0  0  0
 25 26  1  0  0  0  0
 26 27  2  0  0  0  0
 27 31  1  0  0  0  0
 27 28  1  0  0  0  0
 28 32  1  0  0  0  0
 29 28  2  0  0  0  0
 29 33  1  0  0  0  0
 30 26  1  0  0  0  0
 33 35  1  0  0  0  0
 33 34  1  0  0  0  0
 36 33  1  0  0  0  0
M  END
>  <minimizedAffinity>
-5.39709854

$$$$

 OpenBabel03272508203D

 36 38  0  0  0  0  0  0  0  0999 V2000
   39.1590   25.7540   31.5850 C   0  0  0  0  0  0  0  0  0  0  0  0
   39.8940   25.5940   30.8140 H   0  0  0  0  0  0  0  0  0  0  0  0
   39.1970   26.8960   31.7310 H   0  0  0  0  0  0  0  0  0  0  0  0
   36.8210   26.4940   31.1910 C   0  0  0  0  0  0  0  0  0  0  0  0
   37.7710   25.4910   31.3100 C   0  0  0  0  0  0  0  0  0  0  0  0
   37.2400   24.2460   31.1970 C   0  0  0  0  0  0  0  0  0  0  0  0
   35.9390   23.9970   30.9940 N   0  0  0  0  0  0  0  0  0  0  0  0
   35.0370   24.9690   30.8840 C   0  0  0  0  0  0  0  0  0  0  0  0
   35.4750   26.2230   30.9820 N   0  0  0  0  0  0  0  0  0  0  0  0
   37.8510   23.3540   31.2670 H   0  0  0  0  0  0  0  0  0  0  0  0
   33.9850   24.9520   30.7260 H   0  0  0  0  0  0  0  0  0  0  0  0
   37.2960   27.9470   31.1710 C   0  0  0  0  0  0  0  0  0  0  0  0
   36.4330   29.0280   30.9630 C   0  0  0  0  0  0  0  0  0  0  0  0
   36.6170   28.6530   32.4210 C   0  0  0  0  0  0  0  0  0  0  0  0
   38.3890   28.1330   31.2260 H   0  0  0  0  0  0  0  0  0  0  0  0
   35.3770   28.8350   30.6050 H   0  0  0  0  0  0  0  0  0  0  0  0
   36.7700   30.0160   30.6350 H   0  0  0  0  0  0  0  0  0  0  0  0
   35.8190   28.1330   32.9340 H   0  0  0  0  0  0  0  0  0  0  0  0
   37.3020   29.2570   33.0190 H   0  0  0  0  0  0  0  0  0  0  0  0
   39.7150   25.1970   32.8350 C   0  0  0  0  0  0  0  0  0  0  0  0
   40.8340   25.3520   32.8080 H   0  0  0  0  0  0  0  0  0  0  0  0
   39.6220   24.0870   32.9140 H   0  0  0  0  0  0  0  0  0  0  0  0
   39.0480   23.4160   34.8070 F   0  0  0  0  0  0  0  0  0  0  0  0
   38.9250   24.7680   35.0390 C   0  0  0  0  0  0  0  0  0  0  0  0
   39.2350   25.7380   34.0970 C   0  0  0  0  0  0  0  0  0  0  0  0
   39.0650   27.0590   34.4550 C   0  0  0  0  0  0  0  0  0  0  0  0
   38.6030   27.3980   35.7120 C   0  0  0  0  0  0  0  0  0  0  0  0
   38.2990   26.4100   36.6410 C   0  0  0  0  0  0  0  0  0  0  0  0
   38.4620   25.0980   36.2990 C   0  0  0  0  0  0  0  0  0  0  0  0
   39.2910   27.8340   33.7530 H   0  0  0  0  0  0  0  0  0  0  0  0
   38.4830   28.4450   35.9570 H   0  0  0  0  0  0  0  0  0  0  0  0
   37.9410   26.7030   37.6130 H   0  0  0  0  0  0  0  0  0  0  0  0
   38.1300   24.0300   37.3090 C   0  0  0  0  0  0  0  0  0  0  0  0
   37.7860   24.7510   38.4610 F   0  0  0  0  0  0  0  0  0  0  0  0
   39.2510   23.2950   37.6040 F   0  0  0  0  0  0  0  0  0  0  0  0
   37.0520   23.3010   36.9100 F   0  0  0  0  0  0  0  0  0  0  0  0
  1  3  1  0  0  0  0
  1 20  1  0  0  0  0
  2  1  1  0  0  0  0
  4  5  1  0  0  0  0
  5  1  1  0  0  0  0
  6 10  1  0  0  0  0
  6  5  2  0  0  0  0
  7  6  1  0  0  0  0
  8  9  1  0  0  0  0
  8  7  2  0  0  0  0
  9  4  2  0  0  0  0
 11  8  1  0  0  0  0
 12  4  1  0  0  0  0
 12 15  1  0  0  0  0
 12 14  1  0  0  0  0
 13 12  1  0  0  0  0
 13 14  1  0  0  0  0
 14 18  1  0  0  0  0
 14 19  1  0  0  0  0
 16 13  1  0  0  0  0
 17 13  1  0  0  0  0
 20 22  1  0  0  0  0
 20 25  1  0  0  0  0
 21 20  1  0  0  0  0
 23 24  1  0  0  0  0
 24 29  1  0  0  0  0
 25 26  1  0  0  0  0
 25 24  2  0  0  0  0
 26 27  2  0  0  0  0
 27 31  1  0  0  0  0
 27 28  1  0  0  0  0
 28 32  1  0  0  0  0
 29 28  2  0  0  0  0
 29 33  1  0  0  0  0
 30 26  1  0  0  0  0
 33 35  1  0  0  0  0
 33 34  1  0  0  0  0
 36 33  1  0  0  0  0
M  END
>  <minimizedAffinity>
-5.39556122

$$$$

 OpenBabel03272508203D

 36 38  0  0  0  0  0  0  0  0999 V2000
   36.0040   29.3720   32.7430 C   0  0  0  0  0  0  0  0  0  0  0  0
   36.1990   29.8010   31.7750 H   0  0  0  0  0  0  0  0  0  0  0  0
   36.7400   29.9430   33.4200 H   0  0  0  0  0  0  0  0  0  0  0  0
   34.5870   30.1790   34.6170 C   0  0  0  0  0  0  0  0  0  0  0  0
   34.7270   29.5870   33.3710 C   0  0  0  0  0  0  0  0  0  0  0  0
   33.5420   29.1840   32.8420 C   0  0  0  0  0  0  0  0  0  0  0  0
   32.3570   29.3340   33.4490 N   0  0  0  0  0  0  0  0  0  0  0  0
   32.2360   29.9030   34.6470 C   0  0  0  0  0  0  0  0  0  0  0  0
   33.3520   30.3280   35.2360 N   0  0  0  0  0  0  0  0  0  0  0  0
   33.4800   28.7030   31.8740 H   0  0  0  0  0  0  0  0  0  0  0  0
   31.3910   30.0980   35.2620 H   0  0  0  0  0  0  0  0  0  0  0  0
   35.8230   30.7940   35.2730 C   0  0  0  0  0  0  0  0  0  0  0  0
   36.1160   32.1610   35.2160 C   0  0  0  0  0  0  0  0  0  0  0  0
   35.2870   31.7530   36.4190 C   0  0  0  0  0  0  0  0  0  0  0  0
   36.5650   30.1020   35.7250 H   0  0  0  0  0  0  0  0  0  0  0  0
   35.5370   32.8240   34.5060 H   0  0  0  0  0  0  0  0  0  0  0  0
   37.1150   32.5720   35.3890 H   0  0  0  0  0  0  0  0  0  0  0  0
   34.2330   31.9940   36.4360 H   0  0  0  0  0  0  0  0  0  0  0  0
   35.8020   31.6360   37.3750 H   0  0  0  0  0  0  0  0  0  0  0  0
   36.5160   27.9870   32.7150 C   0  0  0  0  0  0  0  0  0  0  0  0
   37.0310   27.8360   31.7210 H   0  0  0  0  0  0  0  0  0  0  0  0
   35.7140   27.2100   32.6970 H   0  0  0  0  0  0  0  0  0  0  0  0
   39.1070   27.5080   31.9640 F   0  0  0  0  0  0  0  0  0  0  0  0
   38.7420   27.3670   33.2860 C   0  0  0  0  0  0  0  0  0  0  0  0
   37.4540   27.5840   33.7520 C   0  0  0  0  0  0  0  0  0  0  0  0
   37.2200   27.4060   35.0980 C   0  0  0  0  0  0  0  0  0  0  0  0
   38.2380   27.0260   35.9510 C   0  0  0  0  0  0  0  0  0  0  0  0
   39.5220   26.8140   35.4620 C   0  0  0  0  0  0  0  0  0  0  0  0
   39.7680   26.9860   34.1300 C   0  0  0  0  0  0  0  0  0  0  0  0
   36.2370   27.5620   35.4930 H   0  0  0  0  0  0  0  0  0  0  0  0
   38.0170   26.8970   37.0010 H   0  0  0  0  0  0  0  0  0  0  0  0
   40.2970   26.5180   36.1490 H   0  0  0  0  0  0  0  0  0  0  0  0
   41.1610   26.7540   33.6060 C   0  0  0  0  0  0  0  0  0  0  0  0
   41.5560   28.0130   33.1300 F   0  0  0  0  0  0  0  0  0  0  0  0
   41.1250   25.9020   32.5300 F   0  0  0  0  0  0  0  0  0  0  0  0
   42.0030   26.3800   34.6090 F   0  0  0  0  0  0  0  0  0  0  0  0
  1  5  1  0  0  0  0
  1  3  1  0  0  0  0
  2  1  1  0  0  0  0
  4  9  1  0  0  0  0
  4 12  1  0  0  0  0
  5  4  2  0  0  0  0
  6  5  1  0  0  0  0
  6  7  2  0  0  0  0
  7  8  1  0  0  0  0
  8  9  2  0  0  0  0
  8 11  1  0  0  0  0
 10  6  1  0  0  0  0
 12 15  1  0  0  0  0
 12 14  1  0  0  0  0
 13 12  1  0  0  0  0
 13 17  1  0  0  0  0
 13 14  1  0  0  0  0
 14 18  1  0  0  0  0
 14 19  1  0  0  0  0
 16 13  1  0  0  0  0
 20  1  1  0  0  0  0
 20 25  1  0  0  0  0
 21 20  1  0  0  0  0
 22 20  1  0  0  0  0
 23 24  1  0  0  0  0
 24 25  2  0  0  0  0
 24 29  1  0  0  0  0
 25 26  1  0  0  0  0
 26 30  1  0  0  0  0
 26 27  2  0  0  0  0
 27 31  1  0  0  0  0
 28 27  1  0  0  0  0
 28 32  1  0  0  0  0
 29 28  2  0  0  0  0
 33 29  1  0  0  0  0
 33 36  1  0  0  0  0
 34 33  1  0  0  0  0
 35 33  1  0  0  0  0
M  END
>  <minimizedAffinity>
-5.39156199

$$$$

 OpenBabel03272508203D

 36 38  0  0  0  0  0  0  0  0999 V2000
   39.0840   27.0150   32.6230 C   0  0  0  0  0  0  0  0  0  0  0  0
   40.0530   26.7620   32.2260 H   0  0  0  0  0  0  0  0  0  0  0  0
   38.9830   28.1270   32.3400 H   0  0  0  0  0  0  0  0  0  0  0  0
   36.7110   27.0940   31.8950 C   0  0  0  0  0  0  0  0  0  0  0  0
   37.9050   26.4110   32.0580 C   0  0  0  0  0  0  0  0  0  0  0  0
   37.8230   25.1070   31.6860 C   0  0  0  0  0  0  0  0  0  0  0  0
   36.7120   24.5280   31.2100 N   0  0  0  0  0  0  0  0  0  0  0  0
   35.5700   25.1950   31.0590 C   0  0  0  0  0  0  0  0  0  0  0  0
   35.5650   26.4820   31.4020 N   0  0  0  0  0  0  0  0  0  0  0  0
   38.6720   24.4370   31.7520 H   0  0  0  0  0  0  0  0  0  0  0  0
   34.6120   24.8990   30.7050 H   0  0  0  0  0  0  0  0  0  0  0  0
   36.6930   28.6000   32.1550 C   0  0  0  0  0  0  0  0  0  0  0  0
   35.5120   29.3480   32.2190 C   0  0  0  0  0  0  0  0  0  0  0  0
   35.9710   28.8000   33.5550 C   0  0  0  0  0  0  0  0  0  0  0  0
   37.6680   29.1290   32.1950 H   0  0  0  0  0  0  0  0  0  0  0  0
   34.5390   28.8810   31.8790 H   0  0  0  0  0  0  0  0  0  0  0  0
   35.4770   30.4340   32.0880 H   0  0  0  0  0  0  0  0  0  0  0  0
   35.4450   27.9580   33.9870 H   0  0  0  0  0  0  0  0  0  0  0  0
   36.4920   29.4800   34.2330 H   0  0  0  0  0  0  0  0  0  0  0  0
   39.2040   27.0100   34.0950 C   0  0  0  0  0  0  0  0  0  0  0  0
   38.1950   27.2930   34.5180 H   0  0  0  0  0  0  0  0  0  0  0  0
   39.8730   27.8100   34.4960 H   0  0  0  0  0  0  0  0  0  0  0  0
   37.7000   26.1330   36.2100 F   0  0  0  0  0  0  0  0  0  0  0  0
   38.7940   25.4010   35.8000 C   0  0  0  0  0  0  0  0  0  0  0  0
   39.6120   25.7740   34.7440 C   0  0  0  0  0  0  0  0  0  0  0  0
   40.6760   24.9530   34.4360 C   0  0  0  0  0  0  0  0  0  0  0  0
   40.9140   23.8000   35.1580 C   0  0  0  0  0  0  0  0  0  0  0  0
   40.0800   23.4450   36.2130 C   0  0  0  0  0  0  0  0  0  0  0  0
   39.0230   24.2500   36.5290 C   0  0  0  0  0  0  0  0  0  0  0  0
   41.3300   25.2100   33.6290 H   0  0  0  0  0  0  0  0  0  0  0  0
   41.7580   23.1810   34.8870 H   0  0  0  0  0  0  0  0  0  0  0  0
   40.2890   22.5410   36.7580 H   0  0  0  0  0  0  0  0  0  0  0  0
   38.1230   23.8620   37.6730 C   0  0  0  0  0  0  0  0  0  0  0  0
   38.8040   22.8050   38.2950 F   0  0  0  0  0  0  0  0  0  0  0  0
   36.9390   23.3610   37.1940 F   0  0  0  0  0  0  0  0  0  0  0  0
   37.9980   24.8860   38.5620 F   0  0  0  0  0  0  0  0  0  0  0  0
  1 20  1  0  0  0  0
  2  1  1  0  0  0  0
  3  1  1  0  0  0  0
  4  5  1  0  0  0  0
  4 12  1  0  0  0  0
  5  1  1  0  0  0  0
  6 10  1  0  0  0  0
  6  5  2  0  0  0  0
  7  6  1  0  0  0  0
  8  7  2  0  0  0  0
  8  9  1  0  0  0  0
  9  4  2  0  0  0  0
 11  8  1  0  0  0  0
 12 15  1  0  0  0  0
 12 13  1  0  0  0  0
 12 14  1  0  0  0  0
 13 14  1  0  0  0  0
 14 18  1  0  0  0  0
 14 19  1  0  0  0  0
 16 13  1  0  0  0  0
 17 13  1  0  0  0  0
 20 22  1  0  0  0  0
 20 21  1  0  0  0  0
 20 25  1  0  0  0  0
 24 23  1  0  0  0  0
 24 29  1  0  0  0  0
 25 24  2  0  0  0  0
 26 25  1  0  0  0  0
 26 27  2  0  0  0  0
 27 28  1  0  0  0  0
 28 29  2  0  0  0  0
 28 32  1  0  0  0  0
 29 33  1  0  0  0  0
 30 26  1  0  0  0  0
 31 27  1  0  0  0  0
 33 34  1  0  0  0  0
 33 36  1  0  0  0  0
 35 33  1  0  0  0  0
M  END
>  <minimizedAffinity>
-5.34721136

$$$$

 OpenBabel03272508203D

 36 38  0  0  0  0  0  0  0  0999 V2000
   39.2500   23.4290   32.7400 C   0  0  0  0  0  0  0  0  0  0  0  0
   39.4070   22.8850   31.8250 H   0  0  0  0  0  0  0  0  0  0  0  0
   40.3200   23.7470   33.0260 H   0  0  0  0  0  0  0  0  0  0  0  0
   39.0760   25.8810   33.0970 C   0  0  0  0  0  0  0  0  0  0  0  0
   38.5210   24.6710   32.7130 C   0  0  0  0  0  0  0  0  0  0  0  0
   37.2110   24.7760   32.3670 C   0  0  0  0  0  0  0  0  0  0  0  0
   36.5160   25.9210   32.3930 N   0  0  0  0  0  0  0  0  0  0  0  0
   37.0600   27.0770   32.7660 C   0  0  0  0  0  0  0  0  0  0  0  0
   38.3430   27.0610   33.1200 N   0  0  0  0  0  0  0  0  0  0  0  0
   36.6330   23.9190   32.0430 H   0  0  0  0  0  0  0  0  0  0  0  0
   36.6620   28.0600   32.8440 H   0  0  0  0  0  0  0  0  0  0  0  0
   40.5750   25.9340   33.3910 C   0  0  0  0  0  0  0  0  0  0  0  0
   41.2080   27.0630   33.9210 C   0  0  0  0  0  0  0  0  0  0  0  0
   40.7140   26.0820   34.9650 C   0  0  0  0  0  0  0  0  0  0  0  0
   41.1940   25.0690   33.0730 H   0  0  0  0  0  0  0  0  0  0  0  0
   40.6490   28.0460   33.9620 H   0  0  0  0  0  0  0  0  0  0  0  0
   42.2850   27.2430   33.8460 H   0  0  0  0  0  0  0  0  0  0  0  0
   39.8300   26.3260   35.5390 H   0  0  0  0  0  0  0  0  0  0  0  0
   41.4450   25.4060   35.4150 H   0  0  0  0  0  0  0  0  0  0  0  0
   38.8630   22.4440   33.7700 C   0  0  0  0  0  0  0  0  0  0  0  0
   39.0400   21.4150   33.3390 H   0  0  0  0  0  0  0  0  0  0  0  0
   37.7690   22.4320   33.9940 H   0  0  0  0  0  0  0  0  0  0  0  0
   37.4860   23.4950   35.8930 F   0  0  0  0  0  0  0  0  0  0  0  0
   38.7730   23.0370   36.0730 C   0  0  0  0  0  0  0  0  0  0  0  0
   39.5430   22.4950   35.0550 C   0  0  0  0  0  0  0  0  0  0  0  0
   40.8180   22.0750   35.3680 C   0  0  0  0  0  0  0  0  0  0  0  0
   41.3060   22.1910   36.6550 C   0  0  0  0  0  0  0  0  0  0  0  0
   40.5170   22.7370   37.6610 C   0  0  0  0  0  0  0  0  0  0  0  0
   39.2520   23.1570   37.3640 C   0  0  0  0  0  0  0  0  0  0  0  0
   41.4430   21.6550   34.6070 H   0  0  0  0  0  0  0  0  0  0  0  0
   42.3110   21.8510   36.8640 H   0  0  0  0  0  0  0  0  0  0  0  0
   40.9230   22.8150   38.6550 H   0  0  0  0  0  0  0  0  0  0  0  0
   38.4000   23.7480   38.4570 C   0  0  0  0  0  0  0  0  0  0  0  0
   39.2530   23.7790   39.5700 F   0  0  0  0  0  0  0  0  0  0  0  0
   37.3630   22.9010   38.7580 F   0  0  0  0  0  0  0  0  0  0  0  0
   38.0320   25.0240   38.1520 F   0  0  0  0  0  0  0  0  0  0  0  0
  1  3  1  0  0  0  0
  1 20  1  0  0  0  0
  2  1  1  0  0  0  0
  4  9  1  0  0  0  0
  4 12  1  0  0  0  0
  5  1  1  0  0  0  0
  5  4  2  0  0  0  0
  6  7  2  0  0  0  0
  6  5  1  0  0  0  0
  7  8  1  0  0  0  0
  8 11  1  0  0  0  0
  8  9  2  0  0  0  0
 10  6  1  0  0  0  0
 12 13  1  0  0  0  0
 12 14  1  0  0  0  0
 13 16  1  0  0  0  0
 13 14  1  0  0  0  0
 14 19  1  0  0  0  0
 14 18  1  0  0  0  0
 15 12  1  0  0  0  0
 17 13  1  0  0  0  0
 20 22  1  0  0  0  0
 20 25  1  0  0  0  0
 21 20  1  0  0  0  0
 23 24  1  0  0  0  0
 24 29  1  0  0  0  0
 25 26  1  0  0  0  0
 25 24  2  0  0  0  0
 26 27  2  0  0  0  0
 27 31  1  0  0  0  0
 27 28  1  0  0  0  0
 28 32  1  0  0  0  0
 29 28  2  0  0  0  0
 29 33  1  0  0  0  0
 30 26  1  0  0  0  0
 33 35  1  0  0  0  0
 33 34  1  0  0  0  0
 36 33  1  0  0  0  0
M  END
>  <minimizedAffinity>
-5.27478647

$$$$
