
 OpenBabel03272504373D

 25 26  0  0  0  0  0  0  0  0999 V2000
   37.9490   23.6980   33.2360 Cl  0  0  0  0  0  0  0  0  0  0  0  0
   37.7500   25.3040   33.9050 C   0  0  0  0  0  0  0  0  0  0  0  0
   38.3170   25.6020   35.1260 C   0  0  0  0  0  0  0  0  0  0  0  0
   38.1650   26.8490   35.6480 C   0  0  0  0  0  0  0  0  0  0  0  0
   37.4440   27.7970   34.9470 C   0  0  0  0  0  0  0  0  0  0  0  0
   36.8890   27.4810   33.7360 C   0  0  0  0  0  0  0  0  0  0  0  0
   37.0260   26.2130   33.1710 C   0  0  0  0  0  0  0  0  0  0  0  0
   38.5950   27.1260   36.6070 H   0  0  0  0  0  0  0  0  0  0  0  0
   37.2890   28.8130   35.3160 H   0  0  0  0  0  0  0  0  0  0  0  0
   36.3160   28.2140   33.1670 H   0  0  0  0  0  0  0  0  0  0  0  0
   40.9170   23.2070   36.1810 C   0  0  0  0  0  0  0  0  0  0  0  0
   40.3370   22.6770   37.3630 C   0  0  0  0  0  0  0  0  0  0  0  0
   39.0930   23.1610   37.7410 C   0  0  0  0  0  0  0  0  0  0  0  0
   38.4940   24.1060   36.9750 N   0  0  0  0  0  0  0  0  0  0  0  0
   39.0740   24.5920   35.8510 C   0  0  0  0  0  0  0  0  0  0  0  0
   40.2580   24.1380   35.4820 N   0  0  0  0  0  0  0  0  0  0  0  0
   41.8900   22.8460   35.8610 H   0  0  0  0  0  0  0  0  0  0  0  0
   40.8420   21.9310   37.9430 H   0  0  0  0  0  0  0  0  0  0  0  0
   38.5340   22.6140   38.9290 N   0  0  0  0  0  0  0  0  0  0  0  0
   38.6980   23.3250   39.6880 H   0  0  0  0  0  0  0  0  0  0  0  0
   38.0500   21.7210   39.1050 H   0  0  0  0  0  0  0  0  0  0  0  0
   36.4390   25.8260   31.8570 C   0  0  0  0  0  0  0  0  0  0  0  0
   37.4180   25.5680   30.9440 F   0  0  0  0  0  0  0  0  0  0  0  0
   35.6090   26.8740   31.4550 F   0  0  0  0  0  0  0  0  0  0  0  0
   35.5940   24.7260   31.9710 F   0  0  0  0  0  0  0  0  0  0  0  0
  1  2  1  0  0  0  0
  2  3  1  0  0  0  0
  3  4  2  0  0  0  0
  3 15  1  0  0  0  0
  4  8  1  0  0  0  0
  5  9  1  0  0  0  0
  5  4  1  0  0  0  0
  6  5  2  0  0  0  0
  7  6  1  0  0  0  0
  7  2  2  0  0  0  0
 10  6  1  0  0  0  0
 11 12  1  0  0  0  0
 12 13  2  0  0  0  0
 12 18  1  0  0  0  0
 13 19  1  0  0  0  0
 14 13  1  0  0  0  0
 15 14  2  0  0  0  0
 16 15  1  0  0  0  0
 16 11  2  0  0  0  0
 17 11  1  0  0  0  0
 19 21  1  0  0  0  0
 19 20  1  0  0  0  0
 22 25  1  0  0  0  0
 22  7  1  0  0  0  0
 23 22  1  0  0  0  0
 24 22  1  0  0  0  0
M  END
>  <minimizedAffinity>
-5.51900101

$$$$

 OpenBabel03272504373D

 25 26  0  0  0  0  0  0  0  0999 V2000
   35.9350   20.8530   35.0330 Cl  0  0  0  0  0  0  0  0  0  0  0  0
   36.9200   21.3500   33.6740 C   0  0  0  0  0  0  0  0  0  0  0  0
   37.9890   22.1940   33.8870 C   0  0  0  0  0  0  0  0  0  0  0  0
   38.7560   22.5820   32.8330 C   0  0  0  0  0  0  0  0  0  0  0  0
   38.4510   22.1260   31.5650 C   0  0  0  0  0  0  0  0  0  0  0  0
   37.3850   21.2880   31.3740 C   0  0  0  0  0  0  0  0  0  0  0  0
   36.5770   20.8700   32.4330 C   0  0  0  0  0  0  0  0  0  0  0  0
   39.6080   23.2460   32.9570 H   0  0  0  0  0  0  0  0  0  0  0  0
   39.0310   22.4030   30.6830 H   0  0  0  0  0  0  0  0  0  0  0  0
   37.1270   20.9160   30.3820 H   0  0  0  0  0  0  0  0  0  0  0  0
   37.9960   24.0680   37.0650 C   0  0  0  0  0  0  0  0  0  0  0  0
   39.0290   23.4010   37.7740 C   0  0  0  0  0  0  0  0  0  0  0  0
   39.6700   22.3490   37.1350 C   0  0  0  0  0  0  0  0  0  0  0  0
   39.2870   22.0090   35.8800 N   0  0  0  0  0  0  0  0  0  0  0  0
   38.2960   22.6660   35.2300 C   0  0  0  0  0  0  0  0  0  0  0  0
   37.6790   23.6690   35.8290 N   0  0  0  0  0  0  0  0  0  0  0  0
   37.4770   24.8950   37.5410 H   0  0  0  0  0  0  0  0  0  0  0  0
   39.3050   23.6990   38.7650 H   0  0  0  0  0  0  0  0  0  0  0  0
   40.7020   21.6980   37.8660 N   0  0  0  0  0  0  0  0  0  0  0  0
   40.2820   20.8090   38.2420 H   0  0  0  0  0  0  0  0  0  0  0  0
   41.6830   21.9640   38.0430 H   0  0  0  0  0  0  0  0  0  0  0  0
   35.4090   19.9600   32.2710 C   0  0  0  0  0  0  0  0  0  0  0  0
   35.4540   18.9430   33.1780 F   0  0  0  0  0  0  0  0  0  0  0  0
   35.4330   19.4920   30.9560 F   0  0  0  0  0  0  0  0  0  0  0  0
   34.2020   20.6430   32.3830 F   0  0  0  0  0  0  0  0  0  0  0  0
  2  3  1  0  0  0  0
  2  1  1  0  0  0  0
  3 15  1  0  0  0  0
  4  8  1  0  0  0  0
  4  3  2  0  0  0  0
  5  4  1  0  0  0  0
  6  5  2  0  0  0  0
  6  7  1  0  0  0  0
  7  2  2  0  0  0  0
  9  5  1  0  0  0  0
 10  6  1  0  0  0  0
 11 17  1  0  0  0  0
 11 12  1  0  0  0  0
 12 18  1  0  0  0  0
 13 12  2  0  0  0  0
 13 19  1  0  0  0  0
 14 13  1  0  0  0  0
 15 16  1  0  0  0  0
 15 14  2  0  0  0  0
 16 11  2  0  0  0  0
 19 21  1  0  0  0  0
 19 20  1  0  0  0  0
 22 25  1  0  0  0  0
 22  7  1  0  0  0  0
 22 23  1  0  0  0  0
 24 22  1  0  0  0  0
M  END
>  <minimizedAffinity>
-5.29504204

$$$$

 OpenBabel03272504373D

 25 26  0  0  0  0  0  0  0  0999 V2000
   38.9410   26.7610   35.0500 Cl  0  0  0  0  0  0  0  0  0  0  0  0
   38.4390   25.4830   33.9640 C   0  0  0  0  0  0  0  0  0  0  0  0
   38.2250   24.2160   34.4650 C   0  0  0  0  0  0  0  0  0  0  0  0
   37.8350   23.2200   33.6240 C   0  0  0  0  0  0  0  0  0  0  0  0
   37.6600   23.4940   32.2810 C   0  0  0  0  0  0  0  0  0  0  0  0
   37.8760   24.7580   31.8030 C   0  0  0  0  0  0  0  0  0  0  0  0
   38.2770   25.8030   32.6370 C   0  0  0  0  0  0  0  0  0  0  0  0
   37.6560   22.2080   33.9780 H   0  0  0  0  0  0  0  0  0  0  0  0
   37.3480   22.7360   31.5610 H   0  0  0  0  0  0  0  0  0  0  0  0
   37.7440   24.9960   30.7480 H   0  0  0  0  0  0  0  0  0  0  0  0
   37.9200   24.2240   38.1420 C   0  0  0  0  0  0  0  0  0  0  0  0
   38.9320   23.2970   38.5020 C   0  0  0  0  0  0  0  0  0  0  0  0
   39.6670   22.7160   37.4780 C   0  0  0  0  0  0  0  0  0  0  0  0
   39.3890   23.0560   36.1950 N   0  0  0  0  0  0  0  0  0  0  0  0
   38.4150   23.9450   35.8830 C   0  0  0  0  0  0  0  0  0  0  0  0
   37.7100   24.5030   36.8510 N   0  0  0  0  0  0  0  0  0  0  0  0
   37.3310   24.6930   38.9230 H   0  0  0  0  0  0  0  0  0  0  0  0
   39.1230   23.0530   39.5280 H   0  0  0  0  0  0  0  0  0  0  0  0
   40.6750   21.7910   37.8650 N   0  0  0  0  0  0  0  0  0  0  0  0
   40.2730   20.8320   37.7050 H   0  0  0  0  0  0  0  0  0  0  0  0
   41.6270   21.9360   38.2340 H   0  0  0  0  0  0  0  0  0  0  0  0
   38.5240   27.1930   32.1610 C   0  0  0  0  0  0  0  0  0  0  0  0
   37.6650   28.0710   32.7520 F   0  0  0  0  0  0  0  0  0  0  0  0
   38.3870   27.1790   30.7710 F   0  0  0  0  0  0  0  0  0  0  0  0
   39.8380   27.5910   32.3850 F   0  0  0  0  0  0  0  0  0  0  0  0
  2  3  1  0  0  0  0
  2  1  1  0  0  0  0
  3 15  1  0  0  0  0
  4  8  1  0  0  0  0
  4  3  2  0  0  0  0
  5  4  1  0  0  0  0
  6  5  2  0  0  0  0
  6  7  1  0  0  0  0
  7  2  2  0  0  0  0
  9  5  1  0  0  0  0
 10  6  1  0  0  0  0
 11 12  1  0  0  0  0
 11 17  1  0  0  0  0
 12 18  1  0  0  0  0
 13 19  1  0  0  0  0
 13 12  2  0  0  0  0
 14 13  1  0  0  0  0
 15 14  2  0  0  0  0
 15 16  1  0  0  0  0
 16 11  2  0  0  0  0
 19 21  1  0  0  0  0
 20 19  1  0  0  0  0
 22 25  1  0  0  0  0
 22  7  1  0  0  0  0
 22 23  1  0  0  0  0
 24 22  1  0  0  0  0
M  END
>  <minimizedAffinity>
-5.22522116

$$$$

 OpenBabel03272504373D

 25 26  0  0  0  0  0  0  0  0999 V2000
   38.3670   26.0880   36.4530 Cl  0  0  0  0  0  0  0  0  0  0  0  0
   38.1800   24.4890   35.7640 C   0  0  0  0  0  0  0  0  0  0  0  0
   38.0930   24.3490   34.3950 C   0  0  0  0  0  0  0  0  0  0  0  0
   37.9480   23.1080   33.8570 C   0  0  0  0  0  0  0  0  0  0  0  0
   37.8870   22.0080   34.6910 C   0  0  0  0  0  0  0  0  0  0  0  0
   37.9760   22.1680   36.0470 C   0  0  0  0  0  0  0  0  0  0  0  0
   38.1260   23.4260   36.6330 C   0  0  0  0  0  0  0  0  0  0  0  0
   37.8760   22.9540   32.7830 H   0  0  0  0  0  0  0  0  0  0  0  0
   37.7720   20.9900   34.3160 H   0  0  0  0  0  0  0  0  0  0  0  0
   37.9300   21.3140   36.7230 H   0  0  0  0  0  0  0  0  0  0  0  0
   39.2910   27.1330   32.2900 C   0  0  0  0  0  0  0  0  0  0  0  0
   38.0630   27.7340   31.9080 C   0  0  0  0  0  0  0  0  0  0  0  0
   36.8920   27.1640   32.3860 C   0  0  0  0  0  0  0  0  0  0  0  0
   36.9700   26.0710   33.1850 N   0  0  0  0  0  0  0  0  0  0  0  0
   38.1590   25.5200   33.5320 C   0  0  0  0  0  0  0  0  0  0  0  0
   39.2800   26.0550   33.0820 N   0  0  0  0  0  0  0  0  0  0  0  0
   40.2220   27.5580   31.9310 H   0  0  0  0  0  0  0  0  0  0  0  0
   38.0410   28.5980   31.2750 H   0  0  0  0  0  0  0  0  0  0  0  0
   35.6760   27.7850   31.9900 N   0  0  0  0  0  0  0  0  0  0  0  0
   35.2820   27.1960   31.2110 H   0  0  0  0  0  0  0  0  0  0  0  0
   35.2010   28.6340   32.3340 H   0  0  0  0  0  0  0  0  0  0  0  0
   38.2250   23.6460   38.1030 C   0  0  0  0  0  0  0  0  0  0  0  0
   39.5010   23.4460   38.5410 F   0  0  0  0  0  0  0  0  0  0  0  0
   37.3190   22.7740   38.7100 F   0  0  0  0  0  0  0  0  0  0  0  0
   37.7920   24.9170   38.4660 F   0  0  0  0  0  0  0  0  0  0  0  0
  2  1  1  0  0  0  0
  2  7  1  0  0  0  0
  3  2  2  0  0  0  0
  4  3  1  0  0  0  0
  4  5  2  0  0  0  0
  5  6  1  0  0  0  0
  6  7  2  0  0  0  0
  6 10  1  0  0  0  0
  7 22  1  0  0  0  0
  8  4  1  0  0  0  0
  9  5  1  0  0  0  0
 11 16  1  0  0  0  0
 12 11  2  0  0  0  0
 12 13  1  0  0  0  0
 13 14  2  0  0  0  0
 14 15  1  0  0  0  0
 15  3  1  0  0  0  0
 16 15  2  0  0  0  0
 17 11  1  0  0  0  0
 18 12  1  0  0  0  0
 19 21  1  0  0  0  0
 19 13  1  0  0  0  0
 20 19  1  0  0  0  0
 22 25  1  0  0  0  0
 22 23  1  0  0  0  0
 22 24  1  0  0  0  0
M  END
>  <minimizedAffinity>
-5.17901802

$$$$

 OpenBabel03272504373D

 25 26  0  0  0  0  0  0  0  0999 V2000
   37.7860   23.4970   33.5930 Cl  0  0  0  0  0  0  0  0  0  0  0  0
   38.8010   24.9240   33.6030 C   0  0  0  0  0  0  0  0  0  0  0  0
   39.3390   25.3620   34.7940 C   0  0  0  0  0  0  0  0  0  0  0  0
   40.1280   26.4700   34.8060 C   0  0  0  0  0  0  0  0  0  0  0  0
   40.3750   27.1410   33.6230 C   0  0  0  0  0  0  0  0  0  0  0  0
   39.8320   26.6900   32.4510 C   0  0  0  0  0  0  0  0  0  0  0  0
   39.0190   25.5560   32.4020 C   0  0  0  0  0  0  0  0  0  0  0  0
   40.5710   26.8490   35.7230 H   0  0  0  0  0  0  0  0  0  0  0  0
   41.0000   28.0340   33.5710 H   0  0  0  0  0  0  0  0  0  0  0  0
   40.0150   27.2040   31.5060 H   0  0  0  0  0  0  0  0  0  0  0  0
   37.8750   24.2500   37.9940 C   0  0  0  0  0  0  0  0  0  0  0  0
   38.7230   23.1600   38.3180 C   0  0  0  0  0  0  0  0  0  0  0  0
   39.7490   22.8580   37.4340 C   0  0  0  0  0  0  0  0  0  0  0  0
   39.8940   23.6080   36.3130 N   0  0  0  0  0  0  0  0  0  0  0  0
   39.0670   24.6440   36.0310 C   0  0  0  0  0  0  0  0  0  0  0  0
   38.0870   24.9390   36.8670 N   0  0  0  0  0  0  0  0  0  0  0  0
   37.0640   24.5080   38.6680 H   0  0  0  0  0  0  0  0  0  0  0  0
   38.5780   22.5900   39.2140 H   0  0  0  0  0  0  0  0  0  0  0  0
   40.5860   21.7620   37.7820 N   0  0  0  0  0  0  0  0  0  0  0  0
   40.2610   20.9460   37.2010 H   0  0  0  0  0  0  0  0  0  0  0  0
   41.3690   21.6880   38.4490 H   0  0  0  0  0  0  0  0  0  0  0  0
   38.4070   25.0310   31.1500 C   0  0  0  0  0  0  0  0  0  0  0  0
   38.8500   23.7700   30.8830 F   0  0  0  0  0  0  0  0  0  0  0  0
   38.7290   25.9280   30.1290 F   0  0  0  0  0  0  0  0  0  0  0  0
   37.0170   25.0430   31.2090 F   0  0  0  0  0  0  0  0  0  0  0  0
  1  2  1  0  0  0  0
  2  3  1  0  0  0  0
  3  4  2  0  0  0  0
  3 15  1  0  0  0  0
  4  8  1  0  0  0  0
  5  4  1  0  0  0  0
  6  5  2  0  0  0  0
  7  6  1  0  0  0  0
  7  2  2  0  0  0  0
  9  5  1  0  0  0  0
 10  6  1  0  0  0  0
 11 12  1  0  0  0  0
 11 17  1  0  0  0  0
 12 18  1  0  0  0  0
 13 19  1  0  0  0  0
 13 12  2  0  0  0  0
 14 13  1  0  0  0  0
 15 14  2  0  0  0  0
 15 16  1  0  0  0  0
 16 11  2  0  0  0  0
 19 21  1  0  0  0  0
 20 19  1  0  0  0  0
 22 25  1  0  0  0  0
 22  7  1  0  0  0  0
 23 22  1  0  0  0  0
 24 22  1  0  0  0  0
M  END
>  <minimizedAffinity>
-5.04943895

$$$$

 OpenBabel03272504373D

 25 26  0  0  0  0  0  0  0  0999 V2000
   38.2110   22.0950   35.7350 Cl  0  0  0  0  0  0  0  0  0  0  0  0
   38.1760   23.8400   35.5860 C   0  0  0  0  0  0  0  0  0  0  0  0
   38.1490   24.4100   34.3310 C   0  0  0  0  0  0  0  0  0  0  0  0
   38.1210   25.7650   34.2120 C   0  0  0  0  0  0  0  0  0  0  0  0
   38.1220   26.5480   35.3500 C   0  0  0  0  0  0  0  0  0  0  0  0
   38.1490   25.9620   36.5870 C   0  0  0  0  0  0  0  0  0  0  0  0
   38.1770   24.5760   36.7460 C   0  0  0  0  0  0  0  0  0  0  0  0
   38.0990   26.2550   33.2420 H   0  0  0  0  0  0  0  0  0  0  0  0
   38.1000   27.6390   35.3160 H   0  0  0  0  0  0  0  0  0  0  0  0
   38.1500   26.5610   37.4980 H   0  0  0  0  0  0  0  0  0  0  0  0
   39.1850   22.4330   31.3930 C   0  0  0  0  0  0  0  0  0  0  0  0
   37.9300   21.9750   30.9150 C   0  0  0  0  0  0  0  0  0  0  0  0
   36.7960   22.3620   31.6140 C   0  0  0  0  0  0  0  0  0  0  0  0
   36.9340   23.1490   32.7100 N   0  0  0  0  0  0  0  0  0  0  0  0
   38.1480   23.5690   33.1420 C   0  0  0  0  0  0  0  0  0  0  0  0
   39.2340   23.2070   32.4830 N   0  0  0  0  0  0  0  0  0  0  0  0
   40.0890   22.1450   30.8660 H   0  0  0  0  0  0  0  0  0  0  0  0
   37.8600   21.3540   30.0450 H   0  0  0  0  0  0  0  0  0  0  0  0
   35.5500   21.8920   31.1140 N   0  0  0  0  0  0  0  0  0  0  0  0
   35.2740   21.0800   31.7250 H   0  0  0  0  0  0  0  0  0  0  0  0
   34.9670   22.2140   30.3270 H   0  0  0  0  0  0  0  0  0  0  0  0
   38.2080   23.8970   38.0720 C   0  0  0  0  0  0  0  0  0  0  0  0
   37.1800   23.0080   38.1870 F   0  0  0  0  0  0  0  0  0  0  0  0
   38.1490   24.8960   39.0450 F   0  0  0  0  0  0  0  0  0  0  0  0
   39.4200   23.2530   38.2960 F   0  0  0  0  0  0  0  0  0  0  0  0
  2  1  1  0  0  0  0
  2  7  1  0  0  0  0
  3  2  2  0  0  0  0
  4  3  1  0  0  0  0
  4  5  2  0  0  0  0
  5  6  1  0  0  0  0
  6  7  2  0  0  0  0
  6 10  1  0  0  0  0
  7 22  1  0  0  0  0
  8  4  1  0  0  0  0
  9  5  1  0  0  0  0
 11 16  1  0  0  0  0
 12 11  2  0  0  0  0
 12 13  1  0  0  0  0
 13 14  2  0  0  0  0
 14 15  1  0  0  0  0
 15  3  1  0  0  0  0
 16 15  2  0  0  0  0
 17 11  1  0  0  0  0
 18 12  1  0  0  0  0
 19 13  1  0  0  0  0
 19 20  1  0  0  0  0
 21 19  1  0  0  0  0
 22 23  1  0  0  0  0
 22 25  1  0  0  0  0
 22 24  1  0  0  0  0
M  END
>  <minimizedAffinity>
-5.02324963

$$$$

 OpenBabel03272504373D

 25 26  0  0  0  0  0  0  0  0999 V2000
   34.6570   29.8560   34.6470 Cl  0  0  0  0  0  0  0  0  0  0  0  0
   33.9600   31.0690   35.7000 C   0  0  0  0  0  0  0  0  0  0  0  0
   32.6530   30.9300   36.1180 C   0  0  0  0  0  0  0  0  0  0  0  0
   32.1090   31.8700   36.9360 C   0  0  0  0  0  0  0  0  0  0  0  0
   32.8720   32.9510   37.3330 C   0  0  0  0  0  0  0  0  0  0  0  0
   34.1670   33.0710   36.9070 C   0  0  0  0  0  0  0  0  0  0  0  0
   34.7580   32.1250   36.0680 C   0  0  0  0  0  0  0  0  0  0  0  0
   31.0830   31.7990   37.2890 H   0  0  0  0  0  0  0  0  0  0  0  0
   32.4890   33.7360   37.9880 H   0  0  0  0  0  0  0  0  0  0  0  0
   34.7880   33.9160   37.2080 H   0  0  0  0  0  0  0  0  0  0  0  0
   30.4440   28.6640   34.2220 C   0  0  0  0  0  0  0  0  0  0  0  0
   30.4360   27.5220   35.0640 C   0  0  0  0  0  0  0  0  0  0  0  0
   31.1810   27.5800   36.2330 C   0  0  0  0  0  0  0  0  0  0  0  0
   31.8750   28.7100   36.5160 N   0  0  0  0  0  0  0  0  0  0  0  0
   31.8630   29.7850   35.6900 C   0  0  0  0  0  0  0  0  0  0  0  0
   31.1560   29.7390   34.5750 N   0  0  0  0  0  0  0  0  0  0  0  0
   29.8690   28.6460   33.3010 H   0  0  0  0  0  0  0  0  0  0  0  0
   29.8740   26.6460   34.8070 H   0  0  0  0  0  0  0  0  0  0  0  0
   31.1560   26.4230   37.0600 N   0  0  0  0  0  0  0  0  0  0  0  0
   32.0560   25.9090   36.8760 H   0  0  0  0  0  0  0  0  0  0  0  0
   30.4500   26.0790   37.7290 H   0  0  0  0  0  0  0  0  0  0  0  0
   36.1630   32.2160   35.5800 C   0  0  0  0  0  0  0  0  0  0  0  0
   36.7500   33.3730   35.9980 F   0  0  0  0  0  0  0  0  0  0  0  0
   36.1180   32.1240   34.1870 F   0  0  0  0  0  0  0  0  0  0  0  0
   36.9230   31.1230   35.9840 F   0  0  0  0  0  0  0  0  0  0  0  0
  1  2  1  0  0  0  0
  2  7  2  0  0  0  0
  2  3  1  0  0  0  0
  3  4  2  0  0  0  0
  4  8  1  0  0  0  0
  4  5  1  0  0  0  0
  5  9  1  0  0  0  0
  6 10  1  0  0  0  0
  6  5  2  0  0  0  0
  7  6  1  0  0  0  0
 11 16  2  0  0  0  0
 11 12  1  0  0  0  0
 12 13  2  0  0  0  0
 13 14  1  0  0  0  0
 13 19  1  0  0  0  0
 15  3  1  0  0  0  0
 15 14  2  0  0  0  0
 16 15  1  0  0  0  0
 17 11  1  0  0  0  0
 18 12  1  0  0  0  0
 19 21  1  0  0  0  0
 20 19  1  0  0  0  0
 22 25  1  0  0  0  0
 22 23  1  0  0  0  0
 22  7  1  0  0  0  0
 24 22  1  0  0  0  0
M  END
>  <minimizedAffinity>
-5.02040863

$$$$

 OpenBabel03272504373D

 25 26  0  0  0  0  0  0  0  0999 V2000
   38.8950   26.4860   35.0130 Cl  0  0  0  0  0  0  0  0  0  0  0  0
   38.1270   25.3180   33.9580 C   0  0  0  0  0  0  0  0  0  0  0  0
   38.3560   23.9730   34.1600 C   0  0  0  0  0  0  0  0  0  0  0  0
   37.7600   23.0630   33.3420 C   0  0  0  0  0  0  0  0  0  0  0  0
   36.9370   23.5010   32.3220 C   0  0  0  0  0  0  0  0  0  0  0  0
   36.7230   24.8400   32.1390 C   0  0  0  0  0  0  0  0  0  0  0  0
   37.3170   25.8010   32.9590 C   0  0  0  0  0  0  0  0  0  0  0  0
   37.9140   21.9940   33.4660 H   0  0  0  0  0  0  0  0  0  0  0  0
   36.4330   22.8180   31.6370 H   0  0  0  0  0  0  0  0  0  0  0  0
   36.0770   25.2070   31.3410 H   0  0  0  0  0  0  0  0  0  0  0  0
   41.2770   22.8710   36.1250 C   0  0  0  0  0  0  0  0  0  0  0  0
   40.6950   22.7000   37.4080 C   0  0  0  0  0  0  0  0  0  0  0  0
   39.3400   22.9670   37.5390 C   0  0  0  0  0  0  0  0  0  0  0  0
   38.6410   23.3750   36.4510 N   0  0  0  0  0  0  0  0  0  0  0  0
   39.2260   23.5300   35.2390 C   0  0  0  0  0  0  0  0  0  0  0  0
   40.5160   23.2770   35.1030 N   0  0  0  0  0  0  0  0  0  0  0  0
   42.3350   22.6680   35.9930 H   0  0  0  0  0  0  0  0  0  0  0  0
   41.2800   22.3750   38.2450 H   0  0  0  0  0  0  0  0  0  0  0  0
   38.7800   22.7880   38.8340 N   0  0  0  0  0  0  0  0  0  0  0  0
   38.6960   23.7490   39.2560 H   0  0  0  0  0  0  0  0  0  0  0  0
   38.4860   21.9360   39.3370 H   0  0  0  0  0  0  0  0  0  0  0  0
   37.1120   27.2680   32.7960 C   0  0  0  0  0  0  0  0  0  0  0  0
   36.6160   27.8200   33.9390 F   0  0  0  0  0  0  0  0  0  0  0  0
   36.2500   27.4420   31.7110 F   0  0  0  0  0  0  0  0  0  0  0  0
   38.2860   27.9160   32.4250 F   0  0  0  0  0  0  0  0  0  0  0  0
  2  3  1  0  0  0  0
  2  1  1  0  0  0  0
  3 15  1  0  0  0  0
  4  8  1  0  0  0  0
  4  3  2  0  0  0  0
  5  4  1  0  0  0  0
  6  5  2  0  0  0  0
  6  7  1  0  0  0  0
  7  2  2  0  0  0  0
  9  5  1  0  0  0  0
 10  6  1  0  0  0  0
 11 12  1  0  0  0  0
 12 13  2  0  0  0  0
 12 18  1  0  0  0  0
 13 19  1  0  0  0  0
 14 13  1  0  0  0  0
 15 14  2  0  0  0  0
 16 15  1  0  0  0  0
 16 11  2  0  0  0  0
 17 11  1  0  0  0  0
 19 20  1  0  0  0  0
 19 21  1  0  0  0  0
 22  7  1  0  0  0  0
 22 23  1  0  0  0  0
 24 22  1  0  0  0  0
 25 22  1  0  0  0  0
M  END
>  <minimizedAffinity>
-4.98621988

$$$$

 OpenBabel03272504373D

 25 26  0  0  0  0  0  0  0  0999 V2000
   38.3740   22.3580   34.3050 Cl  0  0  0  0  0  0  0  0  0  0  0  0
   37.3690   23.0930   33.0750 C   0  0  0  0  0  0  0  0  0  0  0  0
   37.5650   24.4170   32.7430 C   0  0  0  0  0  0  0  0  0  0  0  0
   36.7860   24.9910   31.7880 C   0  0  0  0  0  0  0  0  0  0  0  0
   35.8070   24.2390   31.1660 C   0  0  0  0  0  0  0  0  0  0  0  0
   35.6280   22.9260   31.5090 C   0  0  0  0  0  0  0  0  0  0  0  0
   36.4100   22.3050   32.4840 C   0  0  0  0  0  0  0  0  0  0  0  0
   36.9080   26.0310   31.4960 H   0  0  0  0  0  0  0  0  0  0  0  0
   35.1530   24.6460   30.3930 H   0  0  0  0  0  0  0  0  0  0  0  0
   34.8620   22.3150   31.0310 H   0  0  0  0  0  0  0  0  0  0  0  0
   40.7950   25.9120   33.7150 C   0  0  0  0  0  0  0  0  0  0  0  0
   40.3980   26.7410   34.7970 C   0  0  0  0  0  0  0  0  0  0  0  0
   39.0540   26.7490   35.1410 C   0  0  0  0  0  0  0  0  0  0  0  0
   38.1900   25.9760   34.4380 N   0  0  0  0  0  0  0  0  0  0  0  0
   38.6010   25.1950   33.4090 C   0  0  0  0  0  0  0  0  0  0  0  0
   39.8790   25.1800   33.0740 N   0  0  0  0  0  0  0  0  0  0  0  0
   41.8410   25.8860   33.4250 H   0  0  0  0  0  0  0  0  0  0  0  0
   41.1110   27.3390   35.3290 H   0  0  0  0  0  0  0  0  0  0  0  0
   38.6820   27.5870   36.2280 N   0  0  0  0  0  0  0  0  0  0  0  0
   38.2620   28.4540   35.8030 H   0  0  0  0  0  0  0  0  0  0  0  0
   38.7660   27.4580   37.2470 H   0  0  0  0  0  0  0  0  0  0  0  0
   36.2490   20.8810   32.8890 C   0  0  0  0  0  0  0  0  0  0  0  0
   37.3890   20.1740   32.6480 F   0  0  0  0  0  0  0  0  0  0  0  0
   35.1580   20.3740   32.1800 F   0  0  0  0  0  0  0  0  0  0  0  0
   35.8900   20.7600   34.2280 F   0  0  0  0  0  0  0  0  0  0  0  0
  2  1  1  0  0  0  0
  3  2  1  0  0  0  0
  3 15  1  0  0  0  0
  4  3  2  0  0  0  0
  5  6  2  0  0  0  0
  5  4  1  0  0  0  0
  6  7  1  0  0  0  0
  7 22  1  0  0  0  0
  7  2  2  0  0  0  0
  8  4  1  0  0  0  0
  9  5  1  0  0  0  0
 10  6  1  0  0  0  0
 11 12  1  0  0  0  0
 12 13  2  0  0  0  0
 12 18  1  0  0  0  0
 13 19  1  0  0  0  0
 14 13  1  0  0  0  0
 15 14  2  0  0  0  0
 16 15  1  0  0  0  0
 16 11  2  0  0  0  0
 17 11  1  0  0  0  0
 19 21  1  0  0  0  0
 20 19  1  0  0  0  0
 22 25  1  0  0  0  0
 23 22  1  0  0  0  0
 24 22  1  0  0  0  0
M  END
>  <minimizedAffinity>
-4.98492956

$$$$
