
 OpenBabel03272506473D

 37 39  0  0  1  0  0  0  0  0999 V2000
   32.3110   28.5560   47.4280 C   0  0  2  0  0  0  0  0  0  0  0  0
   33.5770   28.2790   48.1840 C   0  0  1  0  0  0  0  0  0  0  0  0
   33.9120   26.9730   47.9830 O   0  0  0  0  0  0  0  0  0  0  0  0
   33.1430   26.4580   46.9450 C   0  0  0  0  0  0  0  0  0  0  0  0
   32.5560   27.6280   46.1970 C   0  0  1  0  0  0  0  0  0  0  0  0
   31.3880   28.2560   47.9160 H   0  0  0  0  0  0  0  0  0  0  0  0
   33.4660   28.5730   49.2440 H   0  0  0  0  0  0  0  0  0  0  0  0
   32.4420   25.7700   47.3900 H   0  0  0  0  0  0  0  0  0  0  0  0
   33.8020   25.8400   46.2810 H   0  0  0  0  0  0  0  0  0  0  0  0
   33.2390   28.1550   45.5430 H   0  0  0  0  0  0  0  0  0  0  0  0
   32.2780   29.8940   46.9860 O   0  0  0  0  0  0  0  0  0  0  0  0
   31.4400   30.3360   47.2000 H   0  0  0  0  0  0  0  0  0  0  0  0
   34.9010   29.3240   47.4510 S   0  0  0  0  0  0  0  0  0  0  0  0
   37.1780   29.3490   50.6870 C   0  0  0  0  0  0  0  0  0  0  0  0
   37.6590   30.6600   50.7910 C   0  0  0  0  0  0  0  0  0  0  0  0
   37.2520   31.5740   49.8040 C   0  0  0  0  0  0  0  0  0  0  0  0
   36.4270   31.1450   48.8170 N   0  0  0  0  0  0  0  0  0  0  0  0
   35.9900   29.8660   48.7630 C   0  0  0  0  0  0  0  0  0  0  0  0
   36.3580   28.9500   49.6960 N   0  0  0  0  0  0  0  0  0  0  0  0
   37.4780   28.6310   51.4340 H   0  0  0  0  0  0  0  0  0  0  0  0
   38.3190   30.9740   51.5910 H   0  0  0  0  0  0  0  0  0  0  0  0
   37.5760   32.5950   49.8110 H   0  0  0  0  0  0  0  0  0  0  0  0
   31.3680   27.2420   45.6260 O   0  0  0  0  0  0  0  0  0  0  0  0
   29.8560   29.5640   44.6280 Cl  0  0  0  0  0  0  0  0  0  0  0  0
   29.3660   28.3690   45.8050 C   0  0  0  0  0  0  0  0  0  0  0  0
   30.1650   27.3140   46.1850 C   0  0  0  0  0  0  0  0  0  0  0  0
   29.6550   26.4090   47.1190 C   0  0  0  0  0  0  0  0  0  0  0  0
   28.3870   26.5740   47.6380 C   0  0  0  0  0  0  0  0  0  0  0  0
   27.5780   27.6320   47.2610 C   0  0  0  0  0  0  0  0  0  0  0  0
   28.0920   28.5320   46.3300 C   0  0  0  0  0  0  0  0  0  0  0  0
   30.2000   25.5510   47.4730 H   0  0  0  0  0  0  0  0  0  0  0  0
   27.9340   25.9130   48.3590 H   0  0  0  0  0  0  0  0  0  0  0  0
   26.5840   27.7730   47.6590 H   0  0  0  0  0  0  0  0  0  0  0  0
   27.2300   29.6720   45.9190 C   0  0  0  0  0  0  0  0  0  0  0  0
   27.8750   30.8870   46.0670 F   0  0  0  0  0  0  0  0  0  0  0  0
   26.1180   29.6620   46.7690 F   0  0  0  0  0  0  0  0  0  0  0  0
   26.7300   29.5100   44.6570 F   0  0  0  0  0  0  0  0  0  0  0  0
  1  6  1  1  0  0  0
  1  2  1  0  0  0  0
  2  7  1  1  0  0  0
  3  2  1  0  0  0  0
  4  8  1  0  0  0  0
  4  3  1  0  0  0  0
  5 10  1  6  0  0  0
  5  4  1  0  0  0  0
  5  1  1  0  0  0  0
  9  4  1  0  0  0  0
 11 12  1  0  0  0  0
 11  1  1  0  0  0  0
 13  2  1  0  0  0  0
 13 18  1  0  0  0  0
 14 15  1  0  0  0  0
 14 20  1  0  0  0  0
 15 21  1  0  0  0  0
 16 22  1  0  0  0  0
 16 15  2  0  0  0  0
 17 16  1  0  0  0  0
 18 17  2  0  0  0  0
 18 19  1  0  0  0  0
 19 14  2  0  0  0  0
 23 26  1  0  0  0  0
 23  5  1  0  0  0  0
 24 25  1  0  0  0  0
 25 26  2  0  0  0  0
 25 30  1  0  0  0  0
 26 27  1  0  0  0  0
 27 31  1  0  0  0  0
 27 28  2  0  0  0  0
 28 32  1  0  0  0  0
 29 28  1  0  0  0  0
 29 33  1  0  0  0  0
 30 29  2  0  0  0  0
 34 35  1  0  0  0  0
 34 30  1  0  0  0  0
 34 36  1  0  0  0  0
 37 34  1  0  0  0  0
M  END
>  <minimizedAffinity>
-4.76540375

>  <minimizedRMSD>
0.387917936

$$$$
