
 OpenBabel03272509533D

 38 40  0  0  0  0  0  0  0  0999 V2000
   37.3100   30.1630   51.4800 C   0  0  0  0  0  0  0  0  0  0  0  0
   38.0510   30.8440   50.4940 C   0  0  0  0  0  0  0  0  0  0  0  0
   37.7060   30.6490   49.1750 C   0  0  0  0  0  0  0  0  0  0  0  0
   36.6560   29.7950   48.9360 N   0  0  0  0  0  0  0  0  0  0  0  0
   35.9740   29.1640   49.8870 C   0  0  0  0  0  0  0  0  0  0  0  0
   36.3010   29.3480   51.1750 N   0  0  0  0  0  0  0  0  0  0  0  0
   37.6060   30.3370   52.5060 H   0  0  0  0  0  0  0  0  0  0  0  0
   38.8550   31.4970   50.7030 H   0  0  0  0  0  0  0  0  0  0  0  0
   38.9260   33.2670   49.0000 F   0  0  0  0  0  0  0  0  0  0  0  0
   38.9180   32.4770   47.9340 C   0  0  0  0  0  0  0  0  0  0  0  0
   38.3430   31.2560   48.0340 C   0  0  0  0  0  0  0  0  0  0  0  0
   38.3980   30.5170   46.8470 C   0  0  0  0  0  0  0  0  0  0  0  0
   38.9770   30.9950   45.7070 C   0  0  0  0  0  0  0  0  0  0  0  0
   39.5450   32.2340   45.6550 C   0  0  0  0  0  0  0  0  0  0  0  0
   39.5080   32.9780   46.7960 C   0  0  0  0  0  0  0  0  0  0  0  0
   37.9580   29.5110   46.8220 H   0  0  0  0  0  0  0  0  0  0  0  0
   38.9770   30.3500   44.8170 H   0  0  0  0  0  0  0  0  0  0  0  0
   39.9920   32.5710   44.7300 H   0  0  0  0  0  0  0  0  0  0  0  0
   39.9540   33.9690   46.7770 H   0  0  0  0  0  0  0  0  0  0  0  0
   34.9770   28.3720   49.3880 O   0  0  0  0  0  0  0  0  0  0  0  0
   34.4250   28.6850   48.1180 C   0  0  0  0  0  0  0  0  0  0  0  0
   35.2140   28.9430   47.3790 H   0  0  0  0  0  0  0  0  0  0  0  0
   33.7840   29.5850   48.2370 H   0  0  0  0  0  0  0  0  0  0  0  0
   33.5340   27.5690   47.6440 C   0  0  0  0  0  0  0  0  0  0  0  0
   33.7900   27.3790   46.5820 H   0  0  0  0  0  0  0  0  0  0  0  0
   33.7400   26.6120   48.1740 H   0  0  0  0  0  0  0  0  0  0  0  0
   32.0970   27.8910   47.7740 C   0  0  0  0  0  0  0  0  0  0  0  0
   31.4410   27.4780   48.9330 C   0  0  0  0  0  0  0  0  0  0  0  0
   30.1130   27.7300   49.1440 C   0  0  0  0  0  0  0  0  0  0  0  0
   29.4210   28.3860   48.2240 N   0  0  0  0  0  0  0  0  0  0  0  0
   30.0620   28.7920   47.0850 C   0  0  0  0  0  0  0  0  0  0  0  0
   31.3800   28.5630   46.8390 N   0  0  0  0  0  0  0  0  0  0  0  0
   32.0050   26.9370   49.6950 H   0  0  0  0  0  0  0  0  0  0  0  0
   29.6350   27.3960   50.0540 H   0  0  0  0  0  0  0  0  0  0  0  0
   29.3700   29.5390   45.9880 C   0  0  0  0  0  0  0  0  0  0  0  0
   28.2390   30.1670   46.5250 F   0  0  0  0  0  0  0  0  0  0  0  0
   29.0060   28.7260   44.9490 F   0  0  0  0  0  0  0  0  0  0  0  0
   30.1620   30.5640   45.5170 F   0  0  0  0  0  0  0  0  0  0  0  0
  1  7  1  0  0  0  0
  2  8  1  0  0  0  0
  2  1  2  0  0  0  0
  3  2  1  0  0  0  0
  4  3  2  0  0  0  0
  4  5  1  0  0  0  0
  5  6  2  0  0  0  0
  6  1  1  0  0  0  0
 10 11  1  0  0  0  0
 10  9  1  0  0  0  0
 11  3  1  0  0  0  0
 12 11  2  0  0  0  0
 13 12  1  0  0  0  0
 14 13  2  0  0  0  0
 14 15  1  0  0  0  0
 15 10  2  0  0  0  0
 16 12  1  0  0  0  0
 17 13  1  0  0  0  0
 18 14  1  0  0  0  0
 19 15  1  0  0  0  0
 20  5  1  0  0  0  0
 21 23  1  0  0  0  0
 21 20  1  0  0  0  0
 22 21  1  0  0  0  0
 24 27  1  0  0  0  0
 24 21  1  0  0  0  0
 24 26  1  0  0  0  0
 25 24  1  0  0  0  0
 27 28  1  0  0  0  0
 28 29  2  0  0  0  0
 28 33  1  0  0  0  0
 29 34  1  0  0  0  0
 30 29  1  0  0  0  0
 31 30  2  0  0  0  0
 32 31  1  0  0  0  0
 32 27  2  0  0  0  0
 35 36  1  0  0  0  0
 35 31  1  0  0  0  0
 37 35  1  0  0  0  0
 38 35  1  0  0  0  0
M  END
>  <minimizedAffinity>
-6.38760805

>  <minimizedRMSD>
0.376595348

$$$$
