
 OpenBabel03272508413D

 37 39  0  0  1  0  0  0  0  0999 V2000
   36.7840   26.7540   33.3260 N   0  0  0  0  0  0  0  0  0  0  0  0
   37.3140   26.1560   34.5510 C   0  0  0  0  0  0  0  0  0  0  0  0
   38.5240   25.3530   34.3590 C   0  0  2  0  0  0  0  0  0  0  0  0
   38.4560   24.5340   33.1580 N   0  0  0  0  0  0  0  0  0  0  0  0
   38.1130   25.3340   32.0110 C   0  0  0  0  0  0  0  0  0  0  0  0
   36.6930   25.7770   32.2960 C   0  0  0  0  0  0  0  0  0  0  0  0
   37.3950   26.9330   35.3090 H   0  0  0  0  0  0  0  0  0  0  0  0
   36.4710   25.4120   34.7680 H   0  0  0  0  0  0  0  0  0  0  0  0
   39.4420   25.9300   34.1330 H   0  0  0  0  0  0  0  0  0  0  0  0
   39.1270   23.8070   33.0530 H   0  0  0  0  0  0  0  0  0  0  0  0
   38.8110   26.1460   31.8100 H   0  0  0  0  0  0  0  0  0  0  0  0
   38.0800   24.6270   31.1410 H   0  0  0  0  0  0  0  0  0  0  0  0
   36.1090   24.8840   32.5610 H   0  0  0  0  0  0  0  0  0  0  0  0
   36.3010   26.2740   31.3820 H   0  0  0  0  0  0  0  0  0  0  0  0
   41.0410   23.7770   34.2990 Cl  0  0  0  0  0  0  0  0  0  0  0  0
   39.9090   23.7750   35.6520 C   0  0  0  0  0  0  0  0  0  0  0  0
   38.7700   24.5250   35.5280 C   0  0  0  0  0  0  0  0  0  0  0  0
   37.7740   24.6230   36.5120 C   0  0  0  0  0  0  0  0  0  0  0  0
   38.0130   23.8760   37.6750 C   0  0  0  0  0  0  0  0  0  0  0  0
   39.1690   23.1030   37.8130 C   0  0  0  0  0  0  0  0  0  0  0  0
   40.0990   23.0650   36.8010 C   0  0  0  0  0  0  0  0  0  0  0  0
   36.8450   25.1060   36.6810 H   0  0  0  0  0  0  0  0  0  0  0  0
   37.4070   23.7840   38.5610 H   0  0  0  0  0  0  0  0  0  0  0  0
   39.4270   22.5000   38.6700 H   0  0  0  0  0  0  0  0  0  0  0  0
   41.3400   22.2700   36.8890 C   0  0  0  0  0  0  0  0  0  0  0  0
   41.4160   21.4270   35.7930 F   0  0  0  0  0  0  0  0  0  0  0  0
   42.4430   23.0780   36.9510 F   0  0  0  0  0  0  0  0  0  0  0  0
   41.2750   21.5170   38.0510 F   0  0  0  0  0  0  0  0  0  0  0  0
   36.4160   28.1170   33.2420 C   0  0  0  0  0  0  0  0  0  0  0  0
   36.5080   28.8380   32.0490 C   0  0  0  0  0  0  0  0  0  0  0  0
   36.1240   30.1730   32.0470 C   0  0  0  0  0  0  0  0  0  0  0  0
   35.6680   30.7210   33.2360 N   0  0  0  0  0  0  0  0  0  0  0  0
   35.5970   29.9790   34.3620 C   0  0  0  0  0  0  0  0  0  0  0  0
   35.9600   28.7080   34.3790 N   0  0  0  0  0  0  0  0  0  0  0  0
   36.8750   28.3370   31.1630 H   0  0  0  0  0  0  0  0  0  0  0  0
   36.1860   30.7520   31.1350 H   0  0  0  0  0  0  0  0  0  0  0  0
   35.2360   30.4650   35.2460 H   0  0  0  0  0  0  0  0  0  0  0  0
  1  2  1  0  0  0  0
  2  8  1  0  0  0  0
  2  7  1  0  0  0  0
  3  9  1  6  0  0  0
  3  2  1  0  0  0  0
  3 17  1  0  0  0  0
  4  3  1  0  0  0  0
  5  6  1  0  0  0  0
  5  4  1  0  0  0  0
  6 13  1  0  0  0  0
  6  1  1  0  0  0  0
 10  4  1  0  0  0  0
 11  5  1  0  0  0  0
 12  5  1  0  0  0  0
 14  6  1  0  0  0  0
 15 16  1  0  0  0  0
 16 21  1  0  0  0  0
 17 16  2  0  0  0  0
 17 18  1  0  0  0  0
 18 22  1  0  0  0  0
 18 19  2  0  0  0  0
 19 20  1  0  0  0  0
 19 23  1  0  0  0  0
 20 24  1  0  0  0  0
 21 25  1  0  0  0  0
 21 20  2  0  0  0  0
 25 27  1  0  0  0  0
 25 28  1  0  0  0  0
 26 25  1  0  0  0  0
 29  1  1  0  0  0  0
 29 34  1  0  0  0  0
 30 29  2  0  0  0  0
 31 30  1  0  0  0  0
 31 32  2  0  0  0  0
 32 33  1  0  0  0  0
 33 34  2  0  0  0  0
 33 37  1  0  0  0  0
 35 30  1  0  0  0  0
 36 31  1  0  0  0  0
M  END
>  <minimizedAffinity>
-5.73692274

$$$$

 OpenBabel03272508413D

 37 39  0  0  1  0  0  0  0  0999 V2000
   36.9930   27.2950   32.3430 N   0  0  0  0  0  0  0  0  0  0  0  0
   37.0110   26.3330   33.4450 C   0  0  0  0  0  0  0  0  0  0  0  0
   38.3470   25.8520   33.8070 C   0  0  2  0  0  0  0  0  0  0  0  0
   39.1720   25.5860   32.6390 N   0  0  0  0  0  0  0  0  0  0  0  0
   39.1940   26.7250   31.7580 C   0  0  0  0  0  0  0  0  0  0  0  0
   37.7690   26.8140   31.2520 C   0  0  0  0  0  0  0  0  0  0  0  0
   36.4310   26.7420   34.2710 H   0  0  0  0  0  0  0  0  0  0  0  0
   36.4880   25.4560   32.9280 H   0  0  0  0  0  0  0  0  0  0  0  0
   38.9910   26.5930   34.3200 H   0  0  0  0  0  0  0  0  0  0  0  0
   40.0080   25.0650   32.7700 H   0  0  0  0  0  0  0  0  0  0  0  0
   39.5700   27.6370   32.2190 H   0  0  0  0  0  0  0  0  0  0  0  0
   39.8440   26.4320   30.8920 H   0  0  0  0  0  0  0  0  0  0  0  0
   37.4790   25.8190   30.8870 H   0  0  0  0  0  0  0  0  0  0  0  0
   37.7410   27.5770   30.4450 H   0  0  0  0  0  0  0  0  0  0  0  0
   38.4520   26.3410   36.7360 Cl  0  0  0  0  0  0  0  0  0  0  0  0
   38.2430   24.7470   36.0090 C   0  0  0  0  0  0  0  0  0  0  0  0
   38.2450   24.6660   34.6420 C   0  0  0  0  0  0  0  0  0  0  0  0
   38.0950   23.4730   33.9180 C   0  0  0  0  0  0  0  0  0  0  0  0
   37.9400   22.3190   34.7000 C   0  0  0  0  0  0  0  0  0  0  0  0
   37.9390   22.3870   36.0950 C   0  0  0  0  0  0  0  0  0  0  0  0
   38.0890   23.5980   36.7290 C   0  0  0  0  0  0  0  0  0  0  0  0
   38.0520   23.1340   32.9130 H   0  0  0  0  0  0  0  0  0  0  0  0
   37.8110   21.2970   34.3860 H   0  0  0  0  0  0  0  0  0  0  0  0
   37.8290   21.5500   36.7680 H   0  0  0  0  0  0  0  0  0  0  0  0
   38.0940   23.7330   38.1980 C   0  0  0  0  0  0  0  0  0  0  0  0
   39.3850   23.5530   38.6660 F   0  0  0  0  0  0  0  0  0  0  0  0
   37.6090   24.9530   38.5850 F   0  0  0  0  0  0  0  0  0  0  0  0
   37.2710   22.7450   38.7140 F   0  0  0  0  0  0  0  0  0  0  0  0
   36.2730   28.5100   32.4060 C   0  0  0  0  0  0  0  0  0  0  0  0
   35.8500   29.0610   33.6180 C   0  0  0  0  0  0  0  0  0  0  0  0
   35.1510   30.2610   33.5970 C   0  0  0  0  0  0  0  0  0  0  0  0
   34.9080   30.8510   32.3660 N   0  0  0  0  0  0  0  0  0  0  0  0
   35.3400   30.2770   31.2220 C   0  0  0  0  0  0  0  0  0  0  0  0
   36.0060   29.1350   31.2280 N   0  0  0  0  0  0  0  0  0  0  0  0
   36.0790   28.5370   34.5370 H   0  0  0  0  0  0  0  0  0  0  0  0
   34.8140   30.7060   34.5230 H   0  0  0  0  0  0  0  0  0  0  0  0
   35.1180   30.7870   30.3050 H   0  0  0  0  0  0  0  0  0  0  0  0
  1 29  1  0  0  0  0
  1  2  1  0  0  0  0
  2  3  1  0  0  0  0
  2  7  1  0  0  0  0
  3  9  1  1  0  0  0
  3 17  1  0  0  0  0
  4 10  1  0  0  0  0
  4  3  1  0  0  0  0
  5 11  1  0  0  0  0
  5  4  1  0  0  0  0
  6  5  1  0  0  0  0
  6  1  1  0  0  0  0
  8  2  1  0  0  0  0
 12  5  1  0  0  0  0
 13  6  1  0  0  0  0
 14  6  1  0  0  0  0
 16 21  1  0  0  0  0
 16 15  1  0  0  0  0
 17 16  2  0  0  0  0
 18 17  1  0  0  0  0
 18 19  2  0  0  0  0
 19 20  1  0  0  0  0
 20 21  2  0  0  0  0
 20 24  1  0  0  0  0
 21 25  1  0  0  0  0
 22 18  1  0  0  0  0
 23 19  1  0  0  0  0
 25 27  1  0  0  0  0
 25 26  1  0  0  0  0
 25 28  1  0  0  0  0
 29 30  1  0  0  0  0
 30 35  1  0  0  0  0
 31 30  2  0  0  0  0
 31 36  1  0  0  0  0
 32 31  1  0  0  0  0
 33 34  1  0  0  0  0
 33 32  2  0  0  0  0
 34 29  2  0  0  0  0
 37 33  1  0  0  0  0
M  END
>  <minimizedAffinity>
-5.69607306

$$$$

 OpenBabel03272508413D

 37 39  0  0  1  0  0  0  0  0999 V2000
   36.9980   27.4430   33.6040 N   0  0  0  0  0  0  0  0  0  0  0  0
   36.3780   28.3610   34.5590 C   0  0  0  0  0  0  0  0  0  0  0  0
   35.1650   29.0190   34.0680 C   0  0  2  0  0  0  0  0  0  0  0  0
   35.2890   29.4390   32.6800 N   0  0  0  0  0  0  0  0  0  0  0  0
   35.7220   28.3440   31.8510 C   0  0  0  0  0  0  0  0  0  0  0  0
   37.1310   28.0660   32.3320 C   0  0  0  0  0  0  0  0  0  0  0  0
   36.2670   27.8460   35.5120 H   0  0  0  0  0  0  0  0  0  0  0  0
   37.1880   29.1690   34.5850 H   0  0  0  0  0  0  0  0  0  0  0  0
   34.2760   28.3640   33.9800 H   0  0  0  0  0  0  0  0  0  0  0  0
   34.6110   30.0720   32.3240 H   0  0  0  0  0  0  0  0  0  0  0  0
   35.0570   27.4820   31.8700 H   0  0  0  0  0  0  0  0  0  0  0  0
   35.7940   28.7560   30.8100 H   0  0  0  0  0  0  0  0  0  0  0  0
   37.6770   29.0200   32.3440 H   0  0  0  0  0  0  0  0  0  0  0  0
   37.5910   27.3330   31.6350 H   0  0  0  0  0  0  0  0  0  0  0  0
   32.2700   29.3650   34.6390 Cl  0  0  0  0  0  0  0  0  0  0  0  0
   33.5350   30.4080   35.2900 C   0  0  0  0  0  0  0  0  0  0  0  0
   34.8270   30.1500   34.9160 C   0  0  0  0  0  0  0  0  0  0  0  0
   35.9400   30.8910   35.3440 C   0  0  0  0  0  0  0  0  0  0  0  0
   35.6470   31.9560   36.2080 C   0  0  0  0  0  0  0  0  0  0  0  0
   34.3330   32.2320   36.5950 C   0  0  0  0  0  0  0  0  0  0  0  0
   33.2980   31.4550   36.1320 C   0  0  0  0  0  0  0  0  0  0  0  0
   36.9940   30.9120   35.2280 H   0  0  0  0  0  0  0  0  0  0  0  0
   36.3170   32.6640   36.6660 H   0  0  0  0  0  0  0  0  0  0  0  0
   34.0230   33.0310   37.2520 H   0  0  0  0  0  0  0  0  0  0  0  0
   31.8910   31.6960   36.5070 C   0  0  0  0  0  0  0  0  0  0  0  0
   31.1420   31.8860   35.3580 F   0  0  0  0  0  0  0  0  0  0  0  0
   31.3880   30.6550   37.2400 F   0  0  0  0  0  0  0  0  0  0  0  0
   31.8530   32.8430   37.2830 F   0  0  0  0  0  0  0  0  0  0  0  0
   37.4000   26.1340   33.9580 C   0  0  0  0  0  0  0  0  0  0  0  0
   37.7820   25.8020   35.2600 C   0  0  0  0  0  0  0  0  0  0  0  0
   38.1610   24.4930   35.5290 C   0  0  0  0  0  0  0  0  0  0  0  0
   38.1410   23.5810   34.4840 N   0  0  0  0  0  0  0  0  0  0  0  0
   37.7620   23.9540   33.2430 C   0  0  0  0  0  0  0  0  0  0  0  0
   37.3990   25.1970   32.9730 N   0  0  0  0  0  0  0  0  0  0  0  0
   37.7710   26.5720   36.0190 H   0  0  0  0  0  0  0  0  0  0  0  0
   38.4610   24.2120   36.5300 H   0  0  0  0  0  0  0  0  0  0  0  0
   37.7690   23.1990   32.4820 H   0  0  0  0  0  0  0  0  0  0  0  0
  1 29  1  0  0  0  0
  1  2  1  0  0  0  0
  2  8  1  0  0  0  0
  2  7  1  0  0  0  0
  3  9  1  1  0  0  0
  3  2  1  0  0  0  0
  3 17  1  0  0  0  0
  4  3  1  0  0  0  0
  5 11  1  0  0  0  0
  5  6  1  0  0  0  0
  5  4  1  0  0  0  0
  6 13  1  0  0  0  0
  6  1  1  0  0  0  0
 10  4  1  0  0  0  0
 12  5  1  0  0  0  0
 14  6  1  0  0  0  0
 15 16  1  0  0  0  0
 16 21  1  0  0  0  0
 17 16  2  0  0  0  0
 17 18  1  0  0  0  0
 18 19  2  0  0  0  0
 19 20  1  0  0  0  0
 19 23  1  0  0  0  0
 20 24  1  0  0  0  0
 21 25  1  0  0  0  0
 21 20  2  0  0  0  0
 22 18  1  0  0  0  0
 25 27  1  0  0  0  0
 25 28  1  0  0  0  0
 26 25  1  0  0  0  0
 29 30  1  0  0  0  0
 30 31  2  0  0  0  0
 30 35  1  0  0  0  0
 31 36  1  0  0  0  0
 32 31  1  0  0  0  0
 33 32  2  0  0  0  0
 34 33  1  0  0  0  0
 34 29  2  0  0  0  0
 37 33  1  0  0  0  0
M  END
>  <minimizedAffinity>
-5.48006201

$$$$

 OpenBabel03272508413D

 37 39  0  0  1  0  0  0  0  0999 V2000
   36.5810   27.6840   32.2350 N   0  0  0  0  0  0  0  0  0  0  0  0
   36.0390   28.3760   33.4050 C   0  0  0  0  0  0  0  0  0  0  0  0
   35.2120   29.5430   33.0890 C   0  0  2  0  0  0  0  0  0  0  0  0
   35.7740   30.3400   32.0080 N   0  0  0  0  0  0  0  0  0  0  0  0
   36.0630   29.5170   30.8620 C   0  0  0  0  0  0  0  0  0  0  0  0
   37.1810   28.6160   31.3420 C   0  0  0  0  0  0  0  0  0  0  0  0
   35.5660   27.6400   34.0530 H   0  0  0  0  0  0  0  0  0  0  0  0
   37.0150   28.7870   33.8400 H   0  0  0  0  0  0  0  0  0  0  0  0
   34.2220   29.3140   32.6500 H   0  0  0  0  0  0  0  0  0  0  0  0
   35.4050   31.2520   31.8640 H   0  0  0  0  0  0  0  0  0  0  0  0
   35.1960   28.9930   30.4620 H   0  0  0  0  0  0  0  0  0  0  0  0
   36.4910   30.2070   30.0890 H   0  0  0  0  0  0  0  0  0  0  0  0
   37.9550   29.2510   31.7940 H   0  0  0  0  0  0  0  0  0  0  0  0
   37.5660   28.0530   30.4640 H   0  0  0  0  0  0  0  0  0  0  0  0
   32.4990   29.4170   34.2910 Cl  0  0  0  0  0  0  0  0  0  0  0  0
   33.8280   30.3680   34.9560 C   0  0  0  0  0  0  0  0  0  0  0  0
   35.0180   30.3580   34.2770 C   0  0  0  0  0  0  0  0  0  0  0  0
   36.1630   31.0650   34.6750 C   0  0  0  0  0  0  0  0  0  0  0  0
   36.0180   31.8170   35.8490 C   0  0  0  0  0  0  0  0  0  0  0  0
   34.8090   31.8380   36.5490 C   0  0  0  0  0  0  0  0  0  0  0  0
   33.7340   31.1140   36.0940 C   0  0  0  0  0  0  0  0  0  0  0  0
   37.1650   31.2260   34.3660 H   0  0  0  0  0  0  0  0  0  0  0  0
   36.7410   32.4380   36.3530 H   0  0  0  0  0  0  0  0  0  0  0  0
   34.6150   32.3900   37.4570 H   0  0  0  0  0  0  0  0  0  0  0  0
   32.4330   31.0950   36.7900 C   0  0  0  0  0  0  0  0  0  0  0  0
   31.4380   31.4640   35.9010 F   0  0  0  0  0  0  0  0  0  0  0  0
   32.1710   29.8600   37.3180 F   0  0  0  0  0  0  0  0  0  0  0  0
   32.4970   32.0150   37.8250 F   0  0  0  0  0  0  0  0  0  0  0  0
   36.5030   26.2810   32.0770 C   0  0  0  0  0  0  0  0  0  0  0  0
   35.5610   25.6800   31.2380 C   0  0  0  0  0  0  0  0  0  0  0  0
   35.5500   24.2950   31.1330 C   0  0  0  0  0  0  0  0  0  0  0  0
   36.4800   23.5790   31.8710 N   0  0  0  0  0  0  0  0  0  0  0  0
   37.3710   24.2090   32.6670 C   0  0  0  0  0  0  0  0  0  0  0  0
   37.3920   25.5270   32.7770 N   0  0  0  0  0  0  0  0  0  0  0  0
   34.8690   26.3100   30.6950 H   0  0  0  0  0  0  0  0  0  0  0  0
   34.8310   23.8080   30.4890 H   0  0  0  0  0  0  0  0  0  0  0  0
   38.0610   23.5950   33.2100 H   0  0  0  0  0  0  0  0  0  0  0  0
  1  2  1  0  0  0  0
  2  8  1  0  0  0  0
  2  7  1  0  0  0  0
  3  9  1  6  0  0  0
  3  2  1  0  0  0  0
  3 17  1  0  0  0  0
  4  3  1  0  0  0  0
  5  6  1  0  0  0  0
  5  4  1  0  0  0  0
  6 13  1  0  0  0  0
  6  1  1  0  0  0  0
 10  4  1  0  0  0  0
 11  5  1  0  0  0  0
 12  5  1  0  0  0  0
 14  6  1  0  0  0  0
 15 16  1  0  0  0  0
 16 21  1  0  0  0  0
 17 18  1  0  0  0  0
 17 16  2  0  0  0  0
 18 19  2  0  0  0  0
 19 23  1  0  0  0  0
 19 20  1  0  0  0  0
 20 24  1  0  0  0  0
 21 20  2  0  0  0  0
 21 25  1  0  0  0  0
 22 18  1  0  0  0  0
 25 27  1  0  0  0  0
 25 28  1  0  0  0  0
 26 25  1  0  0  0  0
 29  1  1  0  0  0  0
 29 34  1  0  0  0  0
 30 29  2  0  0  0  0
 31 30  1  0  0  0  0
 31 32  2  0  0  0  0
 32 33  1  0  0  0  0
 33 34  2  0  0  0  0
 33 37  1  0  0  0  0
 35 30  1  0  0  0  0
 36 31  1  0  0  0  0
M  END
>  <minimizedAffinity>
-5.47801828

$$$$

 OpenBabel03272508413D

 37 39  0  0  1  0  0  0  0  0999 V2000
   35.9970   29.2480   31.6660 N   0  0  0  0  0  0  0  0  0  0  0  0
   35.4950   30.1860   32.6690 C   0  0  0  0  0  0  0  0  0  0  0  0
   35.9370   29.9040   34.0370 C   0  0  2  0  0  0  0  0  0  0  0  0
   35.9120   28.4810   34.3420 N   0  0  0  0  0  0  0  0  0  0  0  0
   36.6290   27.7310   33.3430 C   0  0  0  0  0  0  0  0  0  0  0  0
   35.7910   27.9060   32.0940 C   0  0  0  0  0  0  0  0  0  0  0  0
   35.6910   31.2000   32.3240 H   0  0  0  0  0  0  0  0  0  0  0  0
   34.3840   29.9130   32.6320 H   0  0  0  0  0  0  0  0  0  0  0  0
   37.0050   30.1140   34.2400 H   0  0  0  0  0  0  0  0  0  0  0  0
   35.9900   28.2090   35.2940 H   0  0  0  0  0  0  0  0  0  0  0  0
   37.6740   28.0220   33.2340 H   0  0  0  0  0  0  0  0  0  0  0  0
   36.5550   26.6560   33.6540 H   0  0  0  0  0  0  0  0  0  0  0  0
   34.7510   27.6610   32.3490 H   0  0  0  0  0  0  0  0  0  0  0  0
   36.1990   27.2280   31.3130 H   0  0  0  0  0  0  0  0  0  0  0  0
   33.0240   29.3240   33.9580 Cl  0  0  0  0  0  0  0  0  0  0  0  0
   33.7750   30.4510   35.0890 C   0  0  0  0  0  0  0  0  0  0  0  0
   35.1270   30.6450   34.9900 C   0  0  0  0  0  0  0  0  0  0  0  0
   35.8660   31.5100   35.8120 C   0  0  0  0  0  0  0  0  0  0  0  0
   35.1160   32.1970   36.7770 C   0  0  0  0  0  0  0  0  0  0  0  0
   33.7360   32.0110   36.8870 C   0  0  0  0  0  0  0  0  0  0  0  0
   33.0860   31.1410   36.0440 C   0  0  0  0  0  0  0  0  0  0  0  0
   36.8660   31.8330   35.9580 H   0  0  0  0  0  0  0  0  0  0  0  0
   35.4460   32.9080   37.5150 H   0  0  0  0  0  0  0  0  0  0  0  0
   33.0870   32.5000   37.5980 H   0  0  0  0  0  0  0  0  0  0  0  0
   31.6320   30.9010   36.1120 C   0  0  0  0  0  0  0  0  0  0  0  0
   31.0750   31.7560   37.0490 F   0  0  0  0  0  0  0  0  0  0  0  0
   31.0420   31.0770   34.8910 F   0  0  0  0  0  0  0  0  0  0  0  0
   31.4420   29.5870   36.5110 F   0  0  0  0  0  0  0  0  0  0  0  0
   36.5830   29.6740   30.4510 C   0  0  0  0  0  0  0  0  0  0  0  0
   36.5910   31.0150   30.0610 C   0  0  0  0  0  0  0  0  0  0  0  0
   37.1890   31.3540   28.8540 C   0  0  0  0  0  0  0  0  0  0  0  0
   37.7490   30.3370   28.0970 N   0  0  0  0  0  0  0  0  0  0  0  0
   37.7160   29.0550   28.5200 C   0  0  0  0  0  0  0  0  0  0  0  0
   37.1500   28.7180   29.6660 N   0  0  0  0  0  0  0  0  0  0  0  0
   36.1310   31.7490   30.7090 H   0  0  0  0  0  0  0  0  0  0  0  0
   37.2080   32.3860   28.5320 H   0  0  0  0  0  0  0  0  0  0  0  0
   38.1680   28.3190   27.8860 H   0  0  0  0  0  0  0  0  0  0  0  0
  1  6  1  0  0  0  0
  1  2  1  0  0  0  0
  2  3  1  0  0  0  0
  3  9  1  1  0  0  0
  3  4  1  0  0  0  0
  3 17  1  0  0  0  0
  4 10  1  0  0  0  0
  5 12  1  0  0  0  0
  5  4  1  0  0  0  0
  6 13  1  0  0  0  0
  6  5  1  0  0  0  0
  7  2  1  0  0  0  0
  8  2  1  0  0  0  0
 11  5  1  0  0  0  0
 14  6  1  0  0  0  0
 15 16  1  0  0  0  0
 16 21  1  0  0  0  0
 17 16  2  0  0  0  0
 17 18  1  0  0  0  0
 18 22  1  0  0  0  0
 18 19  2  0  0  0  0
 19 20  1  0  0  0  0
 19 23  1  0  0  0  0
 20 24  1  0  0  0  0
 21 25  1  0  0  0  0
 21 20  2  0  0  0  0
 25 28  1  0  0  0  0
 25 26  1  0  0  0  0
 27 25  1  0  0  0  0
 29  1  1  0  0  0  0
 30 29  1  0  0  0  0
 30 35  1  0  0  0  0
 31 30  2  0  0  0  0
 32 33  2  0  0  0  0
 32 31  1  0  0  0  0
 33 34  1  0  0  0  0
 34 29  2  0  0  0  0
 36 31  1  0  0  0  0
 37 33  1  0  0  0  0
M  END
>  <minimizedAffinity>
-5.42921066

$$$$

 OpenBabel03272508413D

 37 39  0  0  1  0  0  0  0  0999 V2000
   35.0610   29.6410   33.9990 N   0  0  0  0  0  0  0  0  0  0  0  0
   35.7490   28.3700   34.2200 C   0  0  0  0  0  0  0  0  0  0  0  0
   36.9170   28.1560   33.3620 C   0  0  2  0  0  0  0  0  0  0  0  0
   36.6820   28.5910   31.9930 N   0  0  0  0  0  0  0  0  0  0  0  0
   36.1910   29.9440   31.9630 C   0  0  0  0  0  0  0  0  0  0  0  0
   34.8250   29.8430   32.6100 C   0  0  0  0  0  0  0  0  0  0  0  0
   35.9370   28.2580   35.2870 H   0  0  0  0  0  0  0  0  0  0  0  0
   34.9390   27.6570   33.8360 H   0  0  0  0  0  0  0  0  0  0  0  0
   37.7990   28.7810   33.6020 H   0  0  0  0  0  0  0  0  0  0  0  0
   37.3280   28.2990   31.2960 H   0  0  0  0  0  0  0  0  0  0  0  0
   36.8600   30.6700   32.4240 H   0  0  0  0  0  0  0  0  0  0  0  0
   36.0360   30.1910   30.8800 H   0  0  0  0  0  0  0  0  0  0  0  0
   34.2770   29.0300   32.1160 H   0  0  0  0  0  0  0  0  0  0  0  0
   34.3160   30.8230   32.4860 H   0  0  0  0  0  0  0  0  0  0  0  0
   38.7420   27.3980   35.5800 Cl  0  0  0  0  0  0  0  0  0  0  0  0
   38.1230   26.2620   34.3810 C   0  0  0  0  0  0  0  0  0  0  0  0
   37.3150   26.7580   33.3930 C   0  0  0  0  0  0  0  0  0  0  0  0
   36.7500   25.9840   32.3670 C   0  0  0  0  0  0  0  0  0  0  0  0
   37.0750   24.6200   32.4050 C   0  0  0  0  0  0  0  0  0  0  0  0
   37.9010   24.1020   33.4050 C   0  0  0  0  0  0  0  0  0  0  0  0
   38.4120   24.9280   34.3780 C   0  0  0  0  0  0  0  0  0  0  0  0
   36.1170   26.0940   31.5230 H   0  0  0  0  0  0  0  0  0  0  0  0
   36.7720   23.8300   31.7380 H   0  0  0  0  0  0  0  0  0  0  0  0
   38.2000   23.0690   33.5050 H   0  0  0  0  0  0  0  0  0  0  0  0
   39.2870   24.4390   35.4600 C   0  0  0  0  0  0  0  0  0  0  0  0
   40.5220   25.0570   35.3570 F   0  0  0  0  0  0  0  0  0  0  0  0
   38.7340   24.6740   36.6890 F   0  0  0  0  0  0  0  0  0  0  0  0
   39.4360   23.0710   35.2950 F   0  0  0  0  0  0  0  0  0  0  0  0
   34.6930   30.5020   35.0590 C   0  0  0  0  0  0  0  0  0  0  0  0
   35.6090   31.3620   35.6690 C   0  0  0  0  0  0  0  0  0  0  0  0
   35.1700   32.1800   36.7020 C   0  0  0  0  0  0  0  0  0  0  0  0
   33.8370   32.0970   37.0760 N   0  0  0  0  0  0  0  0  0  0  0  0
   32.9920   31.2480   36.4530 C   0  0  0  0  0  0  0  0  0  0  0  0
   33.3960   30.4640   35.4680 N   0  0  0  0  0  0  0  0  0  0  0  0
   36.6330   31.3670   35.3190 H   0  0  0  0  0  0  0  0  0  0  0  0
   35.8610   32.8550   37.1890 H   0  0  0  0  0  0  0  0  0  0  0  0
   31.9750   31.2340   36.7920 H   0  0  0  0  0  0  0  0  0  0  0  0
  1  2  1  0  0  0  0
  1 29  1  0  0  0  0
  2  7  1  0  0  0  0
  3 17  1  0  0  0  0
  3  9  1  1  0  0  0
  3  2  1  0  0  0  0
  4  3  1  0  0  0  0
  5  4  1  0  0  0  0
  5 11  1  0  0  0  0
  5  6  1  0  0  0  0
  6  1  1  0  0  0  0
  8  2  1  0  0  0  0
 10  4  1  0  0  0  0
 12  5  1  0  0  0  0
 13  6  1  0  0  0  0
 14  6  1  0  0  0  0
 16 15  1  0  0  0  0
 17 16  2  0  0  0  0
 18 19  2  0  0  0  0
 18 17  1  0  0  0  0
 19 20  1  0  0  0  0
 20 24  1  0  0  0  0
 20 21  2  0  0  0  0
 21 16  1  0  0  0  0
 21 25  1  0  0  0  0
 22 18  1  0  0  0  0
 23 19  1  0  0  0  0
 25 27  1  0  0  0  0
 26 25  1  0  0  0  0
 28 25  1  0  0  0  0
 29 34  2  0  0  0  0
 29 30  1  0  0  0  0
 30 31  2  0  0  0  0
 31 32  1  0  0  0  0
 31 36  1  0  0  0  0
 33 37  1  0  0  0  0
 33 32  2  0  0  0  0
 34 33  1  0  0  0  0
 35 30  1  0  0  0  0
M  END
>  <minimizedAffinity>
-5.32939529

$$$$

 OpenBabel03272508413D

 37 39  0  0  1  0  0  0  0  0999 V2000
   35.5610   30.1120   32.6120 N   0  0  0  0  0  0  0  0  0  0  0  0
   35.7780   28.6720   32.7560 C   0  0  0  0  0  0  0  0  0  0  0  0
   36.6110   28.0780   31.7070 C   0  0  2  0  0  0  0  0  0  0  0  0
   36.2960   28.6060   30.3880 N   0  0  0  0  0  0  0  0  0  0  0  0
   36.3240   30.0450   30.3930 C   0  0  0  0  0  0  0  0  0  0  0  0
   35.1580   30.4230   31.2830 C   0  0  0  0  0  0  0  0  0  0  0  0
   36.1100   28.4720   33.7730 H   0  0  0  0  0  0  0  0  0  0  0  0
   34.7110   28.3070   32.5570 H   0  0  0  0  0  0  0  0  0  0  0  0
   37.6860   28.3400   31.7550 H   0  0  0  0  0  0  0  0  0  0  0  0
   36.6540   28.1220   29.5970 H   0  0  0  0  0  0  0  0  0  0  0  0
   37.2810   30.4710   30.6920 H   0  0  0  0  0  0  0  0  0  0  0  0
   36.0680   30.3610   29.3470 H   0  0  0  0  0  0  0  0  0  0  0  0
   34.2740   29.8730   30.9320 H   0  0  0  0  0  0  0  0  0  0  0  0
   35.0180   31.5230   31.2140 H   0  0  0  0  0  0  0  0  0  0  0  0
   38.6360   26.6350   33.3330 Cl  0  0  0  0  0  0  0  0  0  0  0  0
   37.3250   25.8410   32.4600 C   0  0  0  0  0  0  0  0  0  0  0  0
   36.4830   26.6300   31.7220 C   0  0  0  0  0  0  0  0  0  0  0  0
   35.3990   26.1480   30.9710 C   0  0  0  0  0  0  0  0  0  0  0  0
   35.2200   24.7580   31.0130 C   0  0  0  0  0  0  0  0  0  0  0  0
   36.0750   23.9410   31.7580 C   0  0  0  0  0  0  0  0  0  0  0  0
   37.1120   24.4930   32.4700 C   0  0  0  0  0  0  0  0  0  0  0  0
   34.6210   26.5090   30.3470 H   0  0  0  0  0  0  0  0  0  0  0  0
   34.4730   24.1540   30.5260 H   0  0  0  0  0  0  0  0  0  0  0  0
   36.0070   22.8670   31.8410 H   0  0  0  0  0  0  0  0  0  0  0  0
   38.0450   23.6840   33.2770 C   0  0  0  0  0  0  0  0  0  0  0  0
   39.3250   23.8240   32.7660 F   0  0  0  0  0  0  0  0  0  0  0  0
   38.0110   24.0530   34.5940 F   0  0  0  0  0  0  0  0  0  0  0  0
   37.6470   22.3600   33.1780 F   0  0  0  0  0  0  0  0  0  0  0  0
   35.7280   31.0170   33.6850 C   0  0  0  0  0  0  0  0  0  0  0  0
   35.6280   30.6140   35.0190 C   0  0  0  0  0  0  0  0  0  0  0  0
   35.8090   31.5630   36.0170 C   0  0  0  0  0  0  0  0  0  0  0  0
   36.0820   32.8680   35.6330 N   0  0  0  0  0  0  0  0  0  0  0  0
   36.1700   33.2050   34.3290 C   0  0  0  0  0  0  0  0  0  0  0  0
   35.9990   32.3120   33.3680 N   0  0  0  0  0  0  0  0  0  0  0  0
   35.4110   29.5760   35.2360 H   0  0  0  0  0  0  0  0  0  0  0  0
   35.7360   31.2750   37.0570 H   0  0  0  0  0  0  0  0  0  0  0  0
   36.3830   34.2300   34.1020 H   0  0  0  0  0  0  0  0  0  0  0  0
  1  2  1  0  0  0  0
  1 29  1  0  0  0  0
  2  7  1  0  0  0  0
  3 17  1  0  0  0  0
  3  9  1  1  0  0  0
  3  2  1  0  0  0  0
  4  5  1  0  0  0  0
  4  3  1  0  0  0  0
  5 11  1  0  0  0  0
  5  6  1  0  0  0  0
  6  1  1  0  0  0  0
  8  2  1  0  0  0  0
 10  4  1  0  0  0  0
 12  5  1  0  0  0  0
 13  6  1  0  0  0  0
 14  6  1  0  0  0  0
 16 21  1  0  0  0  0
 16 15  1  0  0  0  0
 17 16  2  0  0  0  0
 18 19  2  0  0  0  0
 18 17  1  0  0  0  0
 19 20  1  0  0  0  0
 20 24  1  0  0  0  0
 20 21  2  0  0  0  0
 21 25  1  0  0  0  0
 22 18  1  0  0  0  0
 23 19  1  0  0  0  0
 25 27  1  0  0  0  0
 26 25  1  0  0  0  0
 28 25  1  0  0  0  0
 29 30  1  0  0  0  0
 30 35  1  0  0  0  0
 30 31  2  0  0  0  0
 31 36  1  0  0  0  0
 32 31  1  0  0  0  0
 33 32  2  0  0  0  0
 34 29  2  0  0  0  0
 34 33  1  0  0  0  0
 37 33  1  0  0  0  0
M  END
>  <minimizedAffinity>
-5.25501251

$$$$

 OpenBabel03272508413D

 37 39  0  0  1  0  0  0  0  0999 V2000
   37.4560   24.3530   32.8150 N   0  0  0  0  0  0  0  0  0  0  0  0
   36.7490   25.5830   32.4580 C   0  0  0  0  0  0  0  0  0  0  0  0
   37.6220   26.6860   32.0460 C   0  0  2  0  0  0  0  0  0  0  0  0
   38.8140   26.7840   32.8760 N   0  0  0  0  0  0  0  0  0  0  0  0
   39.4910   25.5150   32.9500 C   0  0  0  0  0  0  0  0  0  0  0  0
   38.5220   24.6360   33.7130 C   0  0  0  0  0  0  0  0  0  0  0  0
   35.9590   25.3360   31.7510 H   0  0  0  0  0  0  0  0  0  0  0  0
   36.3470   25.8670   33.4910 H   0  0  0  0  0  0  0  0  0  0  0  0
   38.1010   26.5630   31.0550 H   0  0  0  0  0  0  0  0  0  0  0  0
   39.3560   27.6140   32.8130 H   0  0  0  0  0  0  0  0  0  0  0  0
   39.8010   25.1190   31.9840 H   0  0  0  0  0  0  0  0  0  0  0  0
   40.3860   25.6820   33.6060 H   0  0  0  0  0  0  0  0  0  0  0  0
   38.2240   25.1750   34.6230 H   0  0  0  0  0  0  0  0  0  0  0  0
   39.0400   23.6810   33.9460 H   0  0  0  0  0  0  0  0  0  0  0  0
   36.5880   27.5360   34.6980 Cl  0  0  0  0  0  0  0  0  0  0  0  0
   36.3860   28.4700   33.2160 C   0  0  0  0  0  0  0  0  0  0  0  0
   36.8880   27.9400   32.0570 C   0  0  0  0  0  0  0  0  0  0  0  0
   36.8020   28.5580   30.8000 C   0  0  0  0  0  0  0  0  0  0  0  0
   36.1450   29.7970   30.7910 C   0  0  0  0  0  0  0  0  0  0  0  0
   35.6260   30.3480   31.9660 C   0  0  0  0  0  0  0  0  0  0  0  0
   35.7550   29.6790   33.1590 C   0  0  0  0  0  0  0  0  0  0  0  0
   37.0910   28.3920   29.7920 H   0  0  0  0  0  0  0  0  0  0  0  0
   35.9510   30.4590   29.9630 H   0  0  0  0  0  0  0  0  0  0  0  0
   35.1070   31.2910   32.0450 H   0  0  0  0  0  0  0  0  0  0  0  0
   35.2300   30.2100   34.4320 C   0  0  0  0  0  0  0  0  0  0  0  0
   34.7560   31.4940   34.2250 F   0  0  0  0  0  0  0  0  0  0  0  0
   34.2420   29.4080   34.9340 F   0  0  0  0  0  0  0  0  0  0  0  0
   36.2790   30.2420   35.3380 F   0  0  0  0  0  0  0  0  0  0  0  0
   37.0760   23.0860   32.3160 C   0  0  0  0  0  0  0  0  0  0  0  0
   35.9050   22.8990   31.5770 C   0  0  0  0  0  0  0  0  0  0  0  0
   35.6030   21.6230   31.1190 C   0  0  0  0  0  0  0  0  0  0  0  0
   36.4860   20.5970   31.4200 N   0  0  0  0  0  0  0  0  0  0  0  0
   37.6060   20.8310   32.1370 C   0  0  0  0  0  0  0  0  0  0  0  0
   37.9050   22.0400   32.5800 N   0  0  0  0  0  0  0  0  0  0  0  0
   35.2680   23.7520   31.3850 H   0  0  0  0  0  0  0  0  0  0  0  0
   34.7020   21.4540   30.5440 H   0  0  0  0  0  0  0  0  0  0  0  0
   38.2440   19.9930   32.3350 H   0  0  0  0  0  0  0  0  0  0  0  0
  1  6  1  0  0  0  0
  2  1  1  0  0  0  0
  2  8  1  0  0  0  0
  3  9  1  6  0  0  0
  3 17  1  0  0  0  0
  3  2  1  0  0  0  0
  3  4  1  0  0  0  0
  4  5  1  0  0  0  0
  5 12  1  0  0  0  0
  5  6  1  0  0  0  0
  6 14  1  0  0  0  0
  6 13  1  0  0  0  0
  7  2  1  0  0  0  0
 10  4  1  0  0  0  0
 11  5  1  0  0  0  0
 16 15  1  0  0  0  0
 17 16  2  0  0  0  0
 18 17  1  0  0  0  0
 19 18  2  0  0  0  0
 19 20  1  0  0  0  0
 20 24  1  0  0  0  0
 20 21  2  0  0  0  0
 21 16  1  0  0  0  0
 21 25  1  0  0  0  0
 22 18  1  0  0  0  0
 23 19  1  0  0  0  0
 25 27  1  0  0  0  0
 25 28  1  0  0  0  0
 26 25  1  0  0  0  0
 29 34  1  0  0  0  0
 29  1  1  0  0  0  0
 30 29  2  0  0  0  0
 31 32  2  0  0  0  0
 31 30  1  0  0  0  0
 32 33  1  0  0  0  0
 33 37  1  0  0  0  0
 33 34  2  0  0  0  0
 35 30  1  0  0  0  0
 36 31  1  0  0  0  0
M  END
>  <minimizedAffinity>
-5.21487904

$$$$

 OpenBabel03272508413D

 37 39  0  0  1  0  0  0  0  0999 V2000
   38.1390   25.6380   33.1870 N   0  0  0  0  0  0  0  0  0  0  0  0
   38.7710   24.5650   33.9540 C   0  0  0  0  0  0  0  0  0  0  0  0
   39.0290   24.8950   35.3590 C   0  0  2  0  0  0  0  0  0  0  0  0
   39.5250   26.2530   35.5230 N   0  0  0  0  0  0  0  0  0  0  0  0
   38.6610   27.1970   34.8640 C   0  0  0  0  0  0  0  0  0  0  0  0
   38.8260   26.8670   33.3940 C   0  0  0  0  0  0  0  0  0  0  0  0
   38.2080   23.6470   33.7950 H   0  0  0  0  0  0  0  0  0  0  0  0
   39.7940   24.5520   33.4400 H   0  0  0  0  0  0  0  0  0  0  0  0
   38.1290   24.9510   36.0020 H   0  0  0  0  0  0  0  0  0  0  0  0
   39.9230   26.4980   36.4000 H   0  0  0  0  0  0  0  0  0  0  0  0
   37.6320   27.1830   35.2200 H   0  0  0  0  0  0  0  0  0  0  0  0
   39.1180   28.2060   35.0380 H   0  0  0  0  0  0  0  0  0  0  0  0
   39.9020   26.8330   33.1760 H   0  0  0  0  0  0  0  0  0  0  0  0
   38.3070   27.6550   32.8080 H   0  0  0  0  0  0  0  0  0  0  0  0
   41.7990   24.9970   34.2910 Cl  0  0  0  0  0  0  0  0  0  0  0  0
   41.2750   23.8980   35.5670 C   0  0  0  0  0  0  0  0  0  0  0  0
   39.9570   23.9380   35.9380 C   0  0  0  0  0  0  0  0  0  0  0  0
   39.3880   23.1250   36.9310 C   0  0  0  0  0  0  0  0  0  0  0  0
   40.2750   22.2290   37.5450 C   0  0  0  0  0  0  0  0  0  0  0  0
   41.6210   22.1760   37.1730 C   0  0  0  0  0  0  0  0  0  0  0  0
   42.1010   23.0100   36.1920 C   0  0  0  0  0  0  0  0  0  0  0  0
   38.4530   22.9550   37.4040 H   0  0  0  0  0  0  0  0  0  0  0  0
   40.0840   21.5090   38.3230 H   0  0  0  0  0  0  0  0  0  0  0  0
   42.3660   21.5170   37.5930 H   0  0  0  0  0  0  0  0  0  0  0  0
   43.5110   23.0020   35.7590 C   0  0  0  0  0  0  0  0  0  0  0  0
   43.5630   22.7850   34.3920 F   0  0  0  0  0  0  0  0  0  0  0  0
   44.1360   24.1760   36.0820 F   0  0  0  0  0  0  0  0  0  0  0  0
   44.1480   21.9640   36.4190 F   0  0  0  0  0  0  0  0  0  0  0  0
   37.0130   25.4200   32.3600 C   0  0  0  0  0  0  0  0  0  0  0  0
   36.6070   24.1390   31.9820 C   0  0  0  0  0  0  0  0  0  0  0  0
   35.4880   24.0070   31.1690 C   0  0  0  0  0  0  0  0  0  0  0  0
   34.8300   25.1630   30.7750 N   0  0  0  0  0  0  0  0  0  0  0  0
   35.2640   26.3790   31.1700 C   0  0  0  0  0  0  0  0  0  0  0  0
   36.3280   26.5190   31.9430 N   0  0  0  0  0  0  0  0  0  0  0  0
   37.1750   23.2870   32.3310 H   0  0  0  0  0  0  0  0  0  0  0  0
   35.1540   23.0250   30.8640 H   0  0  0  0  0  0  0  0  0  0  0  0
   34.7090   27.2300   30.8290 H   0  0  0  0  0  0  0  0  0  0  0  0
  1  6  1  0  0  0  0
  1  2  1  0  0  0  0
  2  3  1  0  0  0  0
  3  4  1  0  0  0  0
  3 17  1  0  0  0  0
  3  9  1  1  0  0  0
  4 10  1  0  0  0  0
  5 12  1  0  0  0  0
  5 11  1  0  0  0  0
  5  4  1  0  0  0  0
  6  5  1  0  0  0  0
  7  2  1  0  0  0  0
  8  2  1  0  0  0  0
 13  6  1  0  0  0  0
 14  6  1  0  0  0  0
 15 16  1  0  0  0  0
 16 17  2  0  0  0  0
 16 21  1  0  0  0  0
 17 18  1  0  0  0  0
 18 22  1  0  0  0  0
 18 19  2  0  0  0  0
 19 23  1  0  0  0  0
 20 19  1  0  0  0  0
 20 24  1  0  0  0  0
 21 20  2  0  0  0  0
 25 27  1  0  0  0  0
 25 21  1  0  0  0  0
 25 28  1  0  0  0  0
 26 25  1  0  0  0  0
 29  1  1  0  0  0  0
 30 35  1  0  0  0  0
 30 29  1  0  0  0  0
 31 30  2  0  0  0  0
 32 31  1  0  0  0  0
 32 33  2  0  0  0  0
 33 34  1  0  0  0  0
 34 29  2  0  0  0  0
 36 31  1  0  0  0  0
 37 33  1  0  0  0  0
M  END
>  <minimizedAffinity>
-5.17356491

$$$$
