
 OpenBabel03272509503D

 28 29  0  0  0  0  0  0  0  0999 V2000
   33.7970   28.6460   48.7200 C   0  0  0  0  0  0  0  0  0  0  0  0
   33.1330   29.4910   49.0650 H   0  0  0  0  0  0  0  0  0  0  0  0
   34.3610   29.0270   47.8630 H   0  0  0  0  0  0  0  0  0  0  0  0
   32.8940   27.4850   48.4050 C   0  0  0  0  0  0  0  0  0  0  0  0
   32.9960   26.7130   49.2120 H   0  0  0  0  0  0  0  0  0  0  0  0
   33.2610   26.9570   47.4800 H   0  0  0  0  0  0  0  0  0  0  0  0
   31.4700   27.8830   48.3030 C   0  0  0  0  0  0  0  0  0  0  0  0
   30.6920   27.7290   49.4260 C   0  0  0  0  0  0  0  0  0  0  0  0
   29.3610   28.0590   49.4590 C   0  0  0  0  0  0  0  0  0  0  0  0
   28.7830   28.5540   48.3570 N   0  0  0  0  0  0  0  0  0  0  0  0
   29.5470   28.7050   47.2560 C   0  0  0  0  0  0  0  0  0  0  0  0
   30.8540   28.3850   47.2100 N   0  0  0  0  0  0  0  0  0  0  0  0
   31.1050   27.3300   50.3580 H   0  0  0  0  0  0  0  0  0  0  0  0
   28.7300   27.9400   50.3530 H   0  0  0  0  0  0  0  0  0  0  0  0
   29.1200   29.1000   46.3480 H   0  0  0  0  0  0  0  0  0  0  0  0
   34.6250   28.3280   49.8260 O   0  0  0  0  0  0  0  0  0  0  0  0
   37.3110   30.1980   51.3760 C   0  0  0  0  0  0  0  0  0  0  0  0
   37.8280   30.8720   50.2610 C   0  0  0  0  0  0  0  0  0  0  0  0
   37.2070   30.6350   49.0360 C   0  0  0  0  0  0  0  0  0  0  0  0
   36.1510   29.7720   49.0010 N   0  0  0  0  0  0  0  0  0  0  0  0
   35.6910   29.1480   50.0910 C   0  0  0  0  0  0  0  0  0  0  0  0
   36.2790   29.3680   51.2780 N   0  0  0  0  0  0  0  0  0  0  0  0
   37.8160   30.4030   52.3140 H   0  0  0  0  0  0  0  0  0  0  0  0
   38.6670   31.5510   50.3210 H   0  0  0  0  0  0  0  0  0  0  0  0
   37.6860   31.3110   47.7790 C   0  0  0  0  0  0  0  0  0  0  0  0
   38.8490   30.6220   47.4100 F   0  0  0  0  0  0  0  0  0  0  0  0
   36.7150   31.2090   46.7880 F   0  0  0  0  0  0  0  0  0  0  0  0
   37.9310   32.6190   48.0790 F   0  0  0  0  0  0  0  0  0  0  0  0
  1  2  1  0  0  0  0
  1 16  1  0  0  0  0
  3  1  1  0  0  0  0
  4  1  1  0  0  0  0
  4  5  1  0  0  0  0
  6  4  1  0  0  0  0
  7  4  1  0  0  0  0
  7  8  1  0  0  0  0
  8  9  2  0  0  0  0
  8 13  1  0  0  0  0
  9 14  1  0  0  0  0
 10  9  1  0  0  0  0
 11 10  2  0  0  0  0
 12 11  1  0  0  0  0
 12  7  2  0  0  0  0
 15 11  1  0  0  0  0
 16 21  1  0  0  0  0
 17 23  1  0  0  0  0
 18 24  1  0  0  0  0
 18 17  2  0  0  0  0
 19 18  1  0  0  0  0
 20 19  2  0  0  0  0
 20 21  1  0  0  0  0
 21 22  2  0  0  0  0
 22 17  1  0  0  0  0
 25 28  1  0  0  0  0
 25 19  1  0  0  0  0
 26 25  1  0  0  0  0
 27 25  1  0  0  0  0
M  END
>  <minimizedAffinity>
-5.16481161

>  <minimizedRMSD>
0.573901772

$$$$
