
 OpenBabel03262520563D

 41 43  0  0  1  0  0  0  0  0999 V2000
   37.2000   26.9150   33.9470 C   0  0  0  0  0  0  0  0  0  0  0  0
   37.3170   25.9300   33.4750 H   0  0  0  0  0  0  0  0  0  0  0  0
   36.3100   26.8970   34.6230 H   0  0  0  0  0  0  0  0  0  0  0  0
   37.1600   27.9120   32.9470 N   0  0  0  0  0  0  0  0  0  0  0  0
   38.1440   27.7320   31.9070 C   0  0  0  0  0  0  0  0  0  0  0  0
   37.7000   26.9830   30.7180 C   0  0  0  0  0  0  0  0  0  0  0  0
   36.3380   27.2310   30.3290 N   0  0  0  0  0  0  0  0  0  0  0  0
   35.4730   27.1190   31.5180 C   0  0  0  0  0  0  0  0  0  0  0  0
   35.9340   28.2980   32.3850 C   0  0  2  0  0  0  0  0  0  0  0  0
   38.9270   27.0750   32.3950 H   0  0  0  0  0  0  0  0  0  0  0  0
   38.7130   28.6520   31.6550 H   0  0  0  0  0  0  0  0  0  0  0  0
   37.7610   25.8640   30.8640 H   0  0  0  0  0  0  0  0  0  0  0  0
   38.3570   27.1860   29.8560 H   0  0  0  0  0  0  0  0  0  0  0  0
   36.0640   26.5940   29.5760 H   0  0  0  0  0  0  0  0  0  0  0  0
   35.5440   26.1580   32.0170 H   0  0  0  0  0  0  0  0  0  0  0  0
   34.4320   27.3220   31.1970 H   0  0  0  0  0  0  0  0  0  0  0  0
   35.1650   28.5000   33.1100 H   0  0  0  0  0  0  0  0  0  0  0  0
   36.0670   29.3050   31.2830 C   0  0  0  0  0  0  0  0  0  0  0  0
   37.0630   30.1230   31.5690 F   0  0  0  0  0  0  0  0  0  0  0  0
   34.7820   29.8830   31.2580 F   0  0  0  0  0  0  0  0  0  0  0  0
   36.1640   29.0560   29.9820 F   0  0  0  0  0  0  0  0  0  0  0  0
   38.3850   27.1650   34.8480 C   0  0  0  0  0  0  0  0  0  0  0  0
   37.9970   27.1280   35.8950 H   0  0  0  0  0  0  0  0  0  0  0  0
   38.8350   28.1510   34.7330 H   0  0  0  0  0  0  0  0  0  0  0  0
   39.6020   25.8170   34.7120 S   0  0  0  0  0  0  0  0  0  0  0  0
   38.2810   23.3280   34.4970 C   0  0  2  0  0  0  0  0  0  0  0  0
   39.4500   23.1590   33.6420 C   0  0  0  0  0  0  0  0  0  0  0  0
   38.8420   24.5040   33.7410 C   0  0  2  0  0  0  0  0  0  0  0  0
   37.2720   22.9990   34.2100 H   0  0  0  0  0  0  0  0  0  0  0  0
   40.4230   22.9810   34.1850 H   0  0  0  0  0  0  0  0  0  0  0  0
   39.4200   22.5800   32.6970 H   0  0  0  0  0  0  0  0  0  0  0  0
   38.2520   24.7950   32.8240 H   0  0  0  0  0  0  0  0  0  0  0  0
   37.8030   24.0460   38.1430 C   0  0  0  0  0  0  0  0  0  0  0  0
   38.9650   23.4200   38.6600 C   0  0  0  0  0  0  0  0  0  0  0  0
   39.8520   22.7770   37.7720 C   0  0  0  0  0  0  0  0  0  0  0  0
   39.5770   22.7600   36.4450 N   0  0  0  0  0  0  0  0  0  0  0  0
   38.4460   23.3780   35.9970 C   0  0  0  0  0  0  0  0  0  0  0  0
   37.5420   24.0260   36.7990 N   0  0  0  0  0  0  0  0  0  0  0  0
   37.1260   24.5360   38.7920 H   0  0  0  0  0  0  0  0  0  0  0  0
   39.0840   23.4880   39.7280 H   0  0  0  0  0  0  0  0  0  0  0  0
   40.6900   22.4010   38.3140 H   0  0  0  0  0  0  0  0  0  0  0  0
  1  3  1  0  0  0  0
  1 22  1  0  0  0  0
  2  1  1  0  0  0  0
  4  1  1  0  0  0  0
  5 10  1  0  0  0  0
  5  4  1  0  0  0  0
  6 12  1  0  0  0  0
  6  5  1  0  0  0  0
  7  6  1  0  0  0  0
  7  8  1  0  0  0  0
  8 15  1  0  0  0  0
  8  9  1  0  0  0  0
  9  4  1  0  0  0  0
  9 17  1  1  0  0  0
 11  5  1  0  0  0  0
 13  6  1  0  0  0  0
 14  7  1  0  0  0  0
 16  8  1  0  0  0  0
 18 19  1  0  0  0  0
 18  9  1  0  0  0  0
 20 18  1  0  0  0  0
 21 18  1  0  0  0  0
 22 23  1  0  0  0  0
 24 22  1  0  0  0  0
 25 22  1  0  0  0  0
 26 29  1  6  0  0  0
 26 37  1  0  0  0  0
 27 28  1  0  0  0  0
 27 30  1  0  0  0  0
 27 26  1  0  0  0  0
 28 32  1  6  0  0  0
 28 26  1  0  0  0  0
 28 25  1  0  0  0  0
 31 27  1  0  0  0  0
 33 34  1  0  0  0  0
 33 39  1  0  0  0  0
 34 40  1  0  0  0  0
 35 41  1  0  0  0  0
 35 34  2  0  0  0  0
 36 35  1  0  0  0  0
 37 36  2  0  0  0  0
 37 38  1  0  0  0  0
 38 33  2  0  0  0  0
M  END
>  <minimizedAffinity>
-4.75240326

$$$$

 OpenBabel03262520563D

 41 43  0  0  1  0  0  0  0  0999 V2000
   36.3510   23.5800   31.7320 C   0  0  0  0  0  0  0  0  0  0  0  0
   37.2120   23.4460   31.0640 H   0  0  0  0  0  0  0  0  0  0  0  0
   36.6690   24.1640   32.6300 H   0  0  0  0  0  0  0  0  0  0  0  0
   35.7780   22.3210   32.0190 N   0  0  0  0  0  0  0  0  0  0  0  0
   35.7170   21.4370   30.8810 C   0  0  0  0  0  0  0  0  0  0  0  0
   36.8560   20.5160   30.7130 C   0  0  0  0  0  0  0  0  0  0  0  0
   37.3970   20.0030   31.9440 N   0  0  0  0  0  0  0  0  0  0  0  0
   37.6090   21.1260   32.8770 C   0  0  0  0  0  0  0  0  0  0  0  0
   36.1800   21.6080   33.1590 C   0  0  2  0  0  0  0  0  0  0  0  0
   35.7740   22.1420   29.9960 H   0  0  0  0  0  0  0  0  0  0  0  0
   34.7330   20.9420   30.7420 H   0  0  0  0  0  0  0  0  0  0  0  0
   37.7330   21.0030   30.1920 H   0  0  0  0  0  0  0  0  0  0  0  0
   36.5850   19.6670   30.0650 H   0  0  0  0  0  0  0  0  0  0  0  0
   38.2510   19.4710   31.7600 H   0  0  0  0  0  0  0  0  0  0  0  0
   38.2600   21.9000   32.4840 H   0  0  0  0  0  0  0  0  0  0  0  0
   38.0170   20.7070   33.8190 H   0  0  0  0  0  0  0  0  0  0  0  0
   36.1990   22.1970   34.0600 H   0  0  0  0  0  0  0  0  0  0  0  0
   35.5430   20.2570   33.2800 C   0  0  0  0  0  0  0  0  0  0  0  0
   34.3960   20.2660   32.6260 F   0  0  0  0  0  0  0  0  0  0  0  0
   35.4560   20.0990   34.6780 F   0  0  0  0  0  0  0  0  0  0  0  0
   36.1040   19.0830   33.0130 F   0  0  0  0  0  0  0  0  0  0  0  0
   35.3260   24.4420   31.0350 C   0  0  0  0  0  0  0  0  0  0  0  0
   34.3630   24.2880   31.5790 H   0  0  0  0  0  0  0  0  0  0  0  0
   35.1310   24.1570   30.0000 H   0  0  0  0  0  0  0  0  0  0  0  0
   35.7310   26.2080   31.2130 S   0  0  0  0  0  0  0  0  0  0  0  0
   36.9630   27.7320   33.2500 C   0  0  2  0  0  0  0  0  0  0  0  0
   38.0940   27.1390   32.5470 C   0  0  0  0  0  0  0  0  0  0  0  0
   36.8360   26.3660   32.6260 C   0  0  2  0  0  0  0  0  0  0  0  0
   36.8910   27.7780   34.3460 H   0  0  0  0  0  0  0  0  0  0  0  0
   38.3550   27.6200   31.5600 H   0  0  0  0  0  0  0  0  0  0  0  0
   39.0130   26.8030   33.0700 H   0  0  0  0  0  0  0  0  0  0  0  0
   36.8830   25.5110   33.3610 H   0  0  0  0  0  0  0  0  0  0  0  0
   34.2270   30.1160   32.3170 C   0  0  0  0  0  0  0  0  0  0  0  0
   34.8500   30.7730   31.2270 C   0  0  0  0  0  0  0  0  0  0  0  0
   36.1590   30.4000   30.8560 C   0  0  0  0  0  0  0  0  0  0  0  0
   36.8010   29.4290   31.5490 N   0  0  0  0  0  0  0  0  0  0  0  0
   36.1580   28.8260   32.5920 C   0  0  0  0  0  0  0  0  0  0  0  0
   34.8870   29.1330   33.0060 N   0  0  0  0  0  0  0  0  0  0  0  0
   33.2450   30.3800   32.6110 H   0  0  0  0  0  0  0  0  0  0  0  0
   34.2530   31.5320   30.7490 H   0  0  0  0  0  0  0  0  0  0  0  0
   36.4570   30.9550   29.9960 H   0  0  0  0  0  0  0  0  0  0  0  0
  1  4  1  0  0  0  0
  1  3  1  0  0  0  0
  2  1  1  0  0  0  0
  4  9  1  0  0  0  0
  5  4  1  0  0  0  0
  6  5  1  0  0  0  0
  6  7  1  0  0  0  0
  7  8  1  0  0  0  0
  8  9  1  0  0  0  0
  8 16  1  0  0  0  0
  9 18  1  0  0  0  0
  9 17  1  1  0  0  0
 10  5  1  0  0  0  0
 11  5  1  0  0  0  0
 12  6  1  0  0  0  0
 13  6  1  0  0  0  0
 14  7  1  0  0  0  0
 15  8  1  0  0  0  0
 18 20  1  0  0  0  0
 19 18  1  0  0  0  0
 21 18  1  0  0  0  0
 22 25  1  0  0  0  0
 22 23  1  0  0  0  0
 22  1  1  0  0  0  0
 24 22  1  0  0  0  0
 25 28  1  0  0  0  0
 26 29  1  1  0  0  0
 27 28  1  0  0  0  0
 27 31  1  0  0  0  0
 27 26  1  0  0  0  0
 28 26  1  0  0  0  0
 28 32  1  1  0  0  0
 30 27  1  0  0  0  0
 33 39  1  0  0  0  0
 33 38  1  0  0  0  0
 34 33  2  0  0  0  0
 35 34  1  0  0  0  0
 35 36  2  0  0  0  0
 36 37  1  0  0  0  0
 37 38  2  0  0  0  0
 37 26  1  0  0  0  0
 40 34  1  0  0  0  0
 41 35  1  0  0  0  0
M  END
>  <minimizedAffinity>
-4.75146151

$$$$

 OpenBabel03262520563D

 41 43  0  0  1  0  0  0  0  0999 V2000
   36.6700   23.4450   31.4140 C   0  0  0  0  0  0  0  0  0  0  0  0
   37.0820   23.2800   30.4100 H   0  0  0  0  0  0  0  0  0  0  0  0
   37.4910   23.7600   32.1030 H   0  0  0  0  0  0  0  0  0  0  0  0
   35.9640   22.2930   31.8280 N   0  0  0  0  0  0  0  0  0  0  0  0
   35.7950   21.3090   30.7850 C   0  0  0  0  0  0  0  0  0  0  0  0
   36.8240   20.2560   30.7160 C   0  0  0  0  0  0  0  0  0  0  0  0
   37.3150   19.8140   31.9940 N   0  0  0  0  0  0  0  0  0  0  0  0
   37.6590   20.9950   32.8080 C   0  0  0  0  0  0  0  0  0  0  0  0
   36.2940   21.6590   33.0350 C   0  0  2  0  0  0  0  0  0  0  0  0
   35.9220   21.9090   29.8330 H   0  0  0  0  0  0  0  0  0  0  0  0
   34.7610   20.9150   30.6950 H   0  0  0  0  0  0  0  0  0  0  0  0
   37.7440   20.5860   30.1500 H   0  0  0  0  0  0  0  0  0  0  0  0
   36.4540   19.3800   30.1570 H   0  0  0  0  0  0  0  0  0  0  0  0
   38.1040   19.1740   31.8670 H   0  0  0  0  0  0  0  0  0  0  0  0
   38.3880   21.6480   32.3390 H   0  0  0  0  0  0  0  0  0  0  0  0
   38.0250   20.6310   33.7890 H   0  0  0  0  0  0  0  0  0  0  0  0
   36.3860   22.3310   33.8710 H   0  0  0  0  0  0  0  0  0  0  0  0
   35.5120   20.4070   33.2920 C   0  0  0  0  0  0  0  0  0  0  0  0
   34.3830   20.4610   32.6110 F   0  0  0  0  0  0  0  0  0  0  0  0
   35.3880   20.4230   34.6960 F   0  0  0  0  0  0  0  0  0  0  0  0
   35.9460   19.1570   33.1770 F   0  0  0  0  0  0  0  0  0  0  0  0
   35.7180   24.6150   31.3610 C   0  0  0  0  0  0  0  0  0  0  0  0
   34.9090   24.3960   32.1000 H   0  0  0  0  0  0  0  0  0  0  0  0
   35.2160   24.7420   30.4010 H   0  0  0  0  0  0  0  0  0  0  0  0
   36.5290   26.1410   31.9370 S   0  0  0  0  0  0  0  0  0  0  0  0
   39.3390   26.0160   32.2160 C   0  0  2  0  0  0  0  0  0  0  0  0
   39.1300   27.2720   31.5040 C   0  0  0  0  0  0  0  0  0  0  0  0
   38.1930   26.1560   31.2480 C   0  0  2  0  0  0  0  0  0  0  0  0
   40.1210   25.2930   31.9460 H   0  0  0  0  0  0  0  0  0  0  0  0
   38.7640   28.1310   32.1370 H   0  0  0  0  0  0  0  0  0  0  0  0
   39.8230   27.6350   30.7190 H   0  0  0  0  0  0  0  0  0  0  0  0
   38.3590   25.6540   30.2510 H   0  0  0  0  0  0  0  0  0  0  0  0
   38.2010   24.7200   35.5420 C   0  0  0  0  0  0  0  0  0  0  0  0
   38.2220   25.9270   36.2840 C   0  0  0  0  0  0  0  0  0  0  0  0
   38.6240   27.1190   35.6460 C   0  0  0  0  0  0  0  0  0  0  0  0
   38.9900   27.0910   34.3420 N   0  0  0  0  0  0  0  0  0  0  0  0
   38.9520   25.9040   33.6710 C   0  0  0  0  0  0  0  0  0  0  0  0
   38.5690   24.7080   34.2230 N   0  0  0  0  0  0  0  0  0  0  0  0
   37.9010   23.8150   36.0010 H   0  0  0  0  0  0  0  0  0  0  0  0
   37.9170   25.8370   37.3130 H   0  0  0  0  0  0  0  0  0  0  0  0
   38.5390   27.9350   36.3280 H   0  0  0  0  0  0  0  0  0  0  0  0
  1  4  1  0  0  0  0
  1  3  1  0  0  0  0
  2  1  1  0  0  0  0
  4  9  1  0  0  0  0
  5  4  1  0  0  0  0
  6  5  1  0  0  0  0
  6  7  1  0  0  0  0
  7  8  1  0  0  0  0
  8  9  1  0  0  0  0
  8 16  1  0  0  0  0
  9 18  1  0  0  0  0
  9 17  1  1  0  0  0
 10  5  1  0  0  0  0
 11  5  1  0  0  0  0
 12  6  1  0  0  0  0
 13  6  1  0  0  0  0
 14  7  1  0  0  0  0
 15  8  1  0  0  0  0
 18 20  1  0  0  0  0
 19 18  1  0  0  0  0
 21 18  1  0  0  0  0
 22  1  1  0  0  0  0
 22 25  1  0  0  0  0
 22 23  1  0  0  0  0
 24 22  1  0  0  0  0
 26 29  1  6  0  0  0
 26 37  1  0  0  0  0
 27 30  1  0  0  0  0
 27 26  1  0  0  0  0
 28 32  1  6  0  0  0
 28 27  1  0  0  0  0
 28 25  1  0  0  0  0
 28 26  1  0  0  0  0
 31 27  1  0  0  0  0
 33 39  1  0  0  0  0
 33 34  1  0  0  0  0
 34 40  1  0  0  0  0
 35 34  2  0  0  0  0
 35 41  1  0  0  0  0
 36 35  1  0  0  0  0
 37 38  1  0  0  0  0
 37 36  2  0  0  0  0
 38 33  2  0  0  0  0
M  END
>  <minimizedAffinity>
-4.72581673

$$$$

 OpenBabel03262520563D

 41 43  0  0  1  0  0  0  0  0999 V2000
   36.9070   23.4270   31.3300 C   0  0  0  0  0  0  0  0  0  0  0  0
   36.5050   23.7790   30.3710 H   0  0  0  0  0  0  0  0  0  0  0  0
   37.9900   23.1800   31.2080 H   0  0  0  0  0  0  0  0  0  0  0  0
   36.1110   22.3630   31.8120 N   0  0  0  0  0  0  0  0  0  0  0  0
   35.7910   21.3760   30.8090 C   0  0  0  0  0  0  0  0  0  0  0  0
   36.7030   20.2220   30.7210 C   0  0  0  0  0  0  0  0  0  0  0  0
   37.2120   19.7650   31.9870 N   0  0  0  0  0  0  0  0  0  0  0  0
   37.7140   20.9250   32.7470 C   0  0  0  0  0  0  0  0  0  0  0  0
   36.4370   21.7300   33.0200 C   0  0  2  0  0  0  0  0  0  0  0  0
   35.9290   21.9360   29.8340 H   0  0  0  0  0  0  0  0  0  0  0  0
   34.7190   21.0870   30.7810 H   0  0  0  0  0  0  0  0  0  0  0  0
   37.6230   20.4430   30.1020 H   0  0  0  0  0  0  0  0  0  0  0  0
   36.2200   19.3750   30.2080 H   0  0  0  0  0  0  0  0  0  0  0  0
   37.9250   19.0450   31.8420 H   0  0  0  0  0  0  0  0  0  0  0  0
   38.4800   21.4880   32.2240 H   0  0  0  0  0  0  0  0  0  0  0  0
   38.0920   20.5500   33.7200 H   0  0  0  0  0  0  0  0  0  0  0  0
   36.6380   22.4090   33.8300 H   0  0  0  0  0  0  0  0  0  0  0  0
   35.5480   20.5700   33.3520 C   0  0  0  0  0  0  0  0  0  0  0  0
   34.4100   20.7030   32.6960 F   0  0  0  0  0  0  0  0  0  0  0  0
   35.4640   20.6590   34.7560 F   0  0  0  0  0  0  0  0  0  0  0  0
   35.8580   19.2810   33.2830 F   0  0  0  0  0  0  0  0  0  0  0  0
   36.8630   24.5640   32.3210 C   0  0  0  0  0  0  0  0  0  0  0  0
   36.5250   24.1240   33.2910 H   0  0  0  0  0  0  0  0  0  0  0  0
   36.1370   25.3420   32.0790 H   0  0  0  0  0  0  0  0  0  0  0  0
   38.5310   25.2300   32.6220 S   0  0  0  0  0  0  0  0  0  0  0  0
   38.6420   26.2870   35.2420 C   0  0  2  0  0  0  0  0  0  0  0  0
   37.2880   26.6130   34.8080 C   0  0  0  0  0  0  0  0  0  0  0  0
   38.3630   26.5900   33.7920 C   0  0  2  0  0  0  0  0  0  0  0  0
   39.2920   26.9970   35.7730 H   0  0  0  0  0  0  0  0  0  0  0  0
   36.5580   25.7530   34.8200 H   0  0  0  0  0  0  0  0  0  0  0  0
   36.7820   27.5580   35.0910 H   0  0  0  0  0  0  0  0  0  0  0  0
   38.6840   27.6190   33.4590 H   0  0  0  0  0  0  0  0  0  0  0  0
   40.5200   23.0780   35.7010 C   0  0  0  0  0  0  0  0  0  0  0  0
   39.4480   22.2290   36.0740 C   0  0  0  0  0  0  0  0  0  0  0  0
   38.1470   22.7660   36.1660 C   0  0  0  0  0  0  0  0  0  0  0  0
   37.9440   24.0800   35.9050 N   0  0  0  0  0  0  0  0  0  0  0  0
   39.0090   24.8560   35.5490 C   0  0  0  0  0  0  0  0  0  0  0  0
   40.2980   24.4030   35.4360 N   0  0  0  0  0  0  0  0  0  0  0  0
   41.5030   22.6950   35.6250 H   0  0  0  0  0  0  0  0  0  0  0  0
   39.7200   21.2050   36.2630 H   0  0  0  0  0  0  0  0  0  0  0  0
   37.4570   21.9900   36.4100 H   0  0  0  0  0  0  0  0  0  0  0  0
  1  4  1  0  0  0  0
  1 22  1  0  0  0  0
  2  1  1  0  0  0  0
  3  1  1  0  0  0  0
  4  9  1  0  0  0  0
  5  4  1  0  0  0  0
  6  5  1  0  0  0  0
  6  7  1  0  0  0  0
  7  8  1  0  0  0  0
  8  9  1  0  0  0  0
  8 16  1  0  0  0  0
  9 18  1  0  0  0  0
  9 17  1  1  0  0  0
 10  5  1  0  0  0  0
 11  5  1  0  0  0  0
 12  6  1  0  0  0  0
 13  6  1  0  0  0  0
 14  7  1  0  0  0  0
 15  8  1  0  0  0  0
 18 20  1  0  0  0  0
 19 18  1  0  0  0  0
 21 18  1  0  0  0  0
 22 25  1  0  0  0  0
 22 23  1  0  0  0  0
 24 22  1  0  0  0  0
 25 28  1  0  0  0  0
 26 37  1  0  0  0  0
 26 29  1  1  0  0  0
 27 30  1  0  0  0  0
 27 31  1  0  0  0  0
 27 26  1  0  0  0  0
 28 32  1  6  0  0  0
 28 27  1  0  0  0  0
 28 26  1  0  0  0  0
 33 34  1  0  0  0  0
 34 35  2  0  0  0  0
 34 40  1  0  0  0  0
 35 41  1  0  0  0  0
 36 35  1  0  0  0  0
 37 36  2  0  0  0  0
 38 37  1  0  0  0  0
 38 33  2  0  0  0  0
 39 33  1  0  0  0  0
M  END
>  <minimizedAffinity>
-4.67550945

$$$$

 OpenBabel03262520563D

 41 43  0  0  1  0  0  0  0  0999 V2000
   37.9060   25.5700   35.7320 C   0  0  0  0  0  0  0  0  0  0  0  0
   37.0620   26.0270   36.2660 H   0  0  0  0  0  0  0  0  0  0  0  0
   37.5470   25.1600   34.7560 H   0  0  0  0  0  0  0  0  0  0  0  0
   38.5380   24.6260   36.5710 N   0  0  0  0  0  0  0  0  0  0  0  0
   37.6180   23.7460   37.2520 C   0  0  0  0  0  0  0  0  0  0  0  0
   37.3260   22.4670   36.5800 C   0  0  0  0  0  0  0  0  0  0  0  0
   38.4480   21.8810   35.8970 N   0  0  0  0  0  0  0  0  0  0  0  0
   39.0930   22.9120   35.0640 C   0  0  0  0  0  0  0  0  0  0  0  0
   39.6420   23.8960   36.1060 C   0  0  2  0  0  0  0  0  0  0  0  0
   36.6410   24.3200   37.2330 H   0  0  0  0  0  0  0  0  0  0  0  0
   37.8180   23.6310   38.3380 H   0  0  0  0  0  0  0  0  0  0  0  0
   36.5250   22.5670   35.7880 H   0  0  0  0  0  0  0  0  0  0  0  0
   36.9200   21.7310   37.2920 H   0  0  0  0  0  0  0  0  0  0  0  0
   38.1470   21.0640   35.3580 H   0  0  0  0  0  0  0  0  0  0  0  0
   38.4230   23.3700   34.3440 H   0  0  0  0  0  0  0  0  0  0  0  0
   39.9590   22.4400   34.5560 H   0  0  0  0  0  0  0  0  0  0  0  0
   40.3960   24.4990   35.6300 H   0  0  0  0  0  0  0  0  0  0  0  0
   40.1470   22.8780   37.0830 C   0  0  0  0  0  0  0  0  0  0  0  0
   39.7190   23.1960   38.2910 F   0  0  0  0  0  0  0  0  0  0  0  0
   41.5400   22.9470   36.8830 F   0  0  0  0  0  0  0  0  0  0  0  0
   40.0300   21.5580   36.9930 F   0  0  0  0  0  0  0  0  0  0  0  0
   38.8960   26.6520   35.3730 C   0  0  0  0  0  0  0  0  0  0  0  0
   39.8940   26.2960   35.7280 H   0  0  0  0  0  0  0  0  0  0  0  0
   38.7240   27.6030   35.8800 H   0  0  0  0  0  0  0  0  0  0  0  0
   39.0360   26.8340   33.5670 S   0  0  0  0  0  0  0  0  0  0  0  0
   36.6860   26.8990   31.9980 C   0  0  2  0  0  0  0  0  0  0  0  0
   37.3900   28.1110   31.5950 C   0  0  0  0  0  0  0  0  0  0  0  0
   37.5360   27.6480   32.9920 C   0  0  2  0  0  0  0  0  0  0  0  0
   35.6060   26.8700   32.2030 H   0  0  0  0  0  0  0  0  0  0  0  0
   38.2600   27.9530   30.8940 H   0  0  0  0  0  0  0  0  0  0  0  0
   36.8620   29.0550   31.3520 H   0  0  0  0  0  0  0  0  0  0  0  0
   36.9530   28.2700   33.7310 H   0  0  0  0  0  0  0  0  0  0  0  0
   38.5140   24.1440   30.2380 C   0  0  0  0  0  0  0  0  0  0  0  0
   37.9730   23.0270   30.9230 C   0  0  0  0  0  0  0  0  0  0  0  0
   37.0300   23.2430   31.9500 C   0  0  0  0  0  0  0  0  0  0  0  0
   36.6630   24.5070   32.2690 N   0  0  0  0  0  0  0  0  0  0  0  0
   37.2120   25.5490   31.5780 C   0  0  0  0  0  0  0  0  0  0  0  0
   38.1290   25.4160   30.5680 N   0  0  0  0  0  0  0  0  0  0  0  0
   39.2220   24.0040   29.4640 H   0  0  0  0  0  0  0  0  0  0  0  0
   38.3360   22.0690   30.5940 H   0  0  0  0  0  0  0  0  0  0  0  0
   36.6930   22.3030   32.3270 H   0  0  0  0  0  0  0  0  0  0  0  0
  1  2  1  0  0  0  0
  1  4  1  0  0  0  0
  3  1  1  0  0  0  0
  4  5  1  0  0  0  0
  5 11  1  0  0  0  0
  6  5  1  0  0  0  0
  6 13  1  0  0  0  0
  7  6  1  0  0  0  0
  8  7  1  0  0  0  0
  8  9  1  0  0  0  0
  9 17  1  6  0  0  0
  9  4  1  0  0  0  0
  9 18  1  0  0  0  0
 10  5  1  0  0  0  0
 12  6  1  0  0  0  0
 14  7  1  0  0  0  0
 15  8  1  0  0  0  0
 16  8  1  0  0  0  0
 18 19  1  0  0  0  0
 20 18  1  0  0  0  0
 21 18  1  0  0  0  0
 22 23  1  0  0  0  0
 22  1  1  0  0  0  0
 22 24  1  0  0  0  0
 25 22  1  0  0  0  0
 26 29  1  1  0  0  0
 26 28  1  0  0  0  0
 27 26  1  0  0  0  0
 27 28  1  0  0  0  0
 28 25  1  0  0  0  0
 28 32  1  1  0  0  0
 30 27  1  0  0  0  0
 31 27  1  0  0  0  0
 33 38  2  0  0  0  0
 33 34  1  0  0  0  0
 34 35  2  0  0  0  0
 35 36  1  0  0  0  0
 35 41  1  0  0  0  0
 37 26  1  0  0  0  0
 37 36  2  0  0  0  0
 38 37  1  0  0  0  0
 39 33  1  0  0  0  0
 40 34  1  0  0  0  0
M  END
>  <minimizedAffinity>
-4.65095711

$$$$

 OpenBabel03262520563D

 41 43  0  0  1  0  0  0  0  0999 V2000
   38.3770   22.0090   34.1150 C   0  0  0  0  0  0  0  0  0  0  0  0
   39.3490   22.2390   33.6580 H   0  0  0  0  0  0  0  0  0  0  0  0
   38.4040   20.9770   34.5420 H   0  0  0  0  0  0  0  0  0  0  0  0
   37.3500   22.2270   33.1690 N   0  0  0  0  0  0  0  0  0  0  0  0
   37.8270   22.7050   31.8930 C   0  0  0  0  0  0  0  0  0  0  0  0
   38.0980   21.6740   30.8760 C   0  0  0  0  0  0  0  0  0  0  0  0
   37.1800   20.5660   30.8870 N   0  0  0  0  0  0  0  0  0  0  0  0
   37.0350   20.0800   32.2710 C   0  0  0  0  0  0  0  0  0  0  0  0
   36.3520   21.2600   32.9760 C   0  0  2  0  0  0  0  0  0  0  0  0
   38.8390   23.1500   32.1400 H   0  0  0  0  0  0  0  0  0  0  0  0
   37.2630   23.5740   31.4930 H   0  0  0  0  0  0  0  0  0  0  0  0
   39.1200   21.2050   30.9960 H   0  0  0  0  0  0  0  0  0  0  0  0
   38.1120   22.1110   29.8640 H   0  0  0  0  0  0  0  0  0  0  0  0
   37.4960   19.8380   30.2400 H   0  0  0  0  0  0  0  0  0  0  0  0
   37.9740   19.7840   32.7280 H   0  0  0  0  0  0  0  0  0  0  0  0
   36.3180   19.2340   32.2570 H   0  0  0  0  0  0  0  0  0  0  0  0
   35.9140   20.8950   33.8880 H   0  0  0  0  0  0  0  0  0  0  0  0
   35.3860   21.6010   31.8830 C   0  0  0  0  0  0  0  0  0  0  0  0
   35.2030   22.9090   31.8670 F   0  0  0  0  0  0  0  0  0  0  0  0
   34.2620   20.8260   32.2340 F   0  0  0  0  0  0  0  0  0  0  0  0
   35.4550   21.2290   30.6100 F   0  0  0  0  0  0  0  0  0  0  0  0
   38.1660   22.9270   35.2940 C   0  0  0  0  0  0  0  0  0  0  0  0
   38.6630   22.4380   36.1670 H   0  0  0  0  0  0  0  0  0  0  0  0
   37.1220   23.0560   35.5810 H   0  0  0  0  0  0  0  0  0  0  0  0
   39.0260   24.5130   35.0460 S   0  0  0  0  0  0  0  0  0  0  0  0
   37.4620   26.8670   35.0520 C   0  0  2  0  0  0  0  0  0  0  0  0
   38.5400   27.1800   35.9840 C   0  0  0  0  0  0  0  0  0  0  0  0
   38.0720   25.7800   35.8990 C   0  0  2  0  0  0  0  0  0  0  0  0
   36.4070   27.1060   35.2480 H   0  0  0  0  0  0  0  0  0  0  0  0
   39.5310   27.4340   35.5070 H   0  0  0  0  0  0  0  0  0  0  0  0
   38.3810   27.7880   36.8970 H   0  0  0  0  0  0  0  0  0  0  0  0
   37.4420   25.4660   36.7810 H   0  0  0  0  0  0  0  0  0  0  0  0
   39.0620   27.1630   31.6770 C   0  0  0  0  0  0  0  0  0  0  0  0
   38.0380   26.5930   30.8810 C   0  0  0  0  0  0  0  0  0  0  0  0
   36.8620   26.1260   31.5050 C   0  0  0  0  0  0  0  0  0  0  0  0
   36.7330   26.2220   32.8500 N   0  0  0  0  0  0  0  0  0  0  0  0
   37.7480   26.7790   33.5730 C   0  0  0  0  0  0  0  0  0  0  0  0
   38.9160   27.2570   33.0360 N   0  0  0  0  0  0  0  0  0  0  0  0
   39.9520   27.5200   31.2290 H   0  0  0  0  0  0  0  0  0  0  0  0
   38.2440   26.5620   29.8250 H   0  0  0  0  0  0  0  0  0  0  0  0
   36.1810   25.7740   30.7630 H   0  0  0  0  0  0  0  0  0  0  0  0
  1  3  1  0  0  0  0
  1 22  1  0  0  0  0
  2  1  1  0  0  0  0
  4  1  1  0  0  0  0
  5 10  1  0  0  0  0
  5  4  1  0  0  0  0
  6  7  1  0  0  0  0
  6 12  1  0  0  0  0
  6  5  1  0  0  0  0
  7  8  1  0  0  0  0
  8 15  1  0  0  0  0
  8  9  1  0  0  0  0
  9  4  1  0  0  0  0
  9 17  1  1  0  0  0
 11  5  1  0  0  0  0
 13  6  1  0  0  0  0
 14  7  1  0  0  0  0
 16  8  1  0  0  0  0
 18 20  1  0  0  0  0
 18  9  1  0  0  0  0
 19 18  1  0  0  0  0
 21 18  1  0  0  0  0
 22 24  1  0  0  0  0
 22 23  1  0  0  0  0
 25 22  1  0  0  0  0
 25 28  1  0  0  0  0
 26 29  1  1  0  0  0
 26 28  1  0  0  0  0
 26 27  1  0  0  0  0
 27 31  1  0  0  0  0
 28 27  1  0  0  0  0
 28 32  1  1  0  0  0
 30 27  1  0  0  0  0
 33 38  1  0  0  0  0
 34 35  1  0  0  0  0
 34 33  2  0  0  0  0
 35 36  2  0  0  0  0
 36 37  1  0  0  0  0
 37 26  1  0  0  0  0
 38 37  2  0  0  0  0
 39 33  1  0  0  0  0
 40 34  1  0  0  0  0
 41 35  1  0  0  0  0
M  END
>  <minimizedAffinity>
-4.64656639

$$$$

 OpenBabel03262520563D

 41 43  0  0  1  0  0  0  0  0999 V2000
   39.3920   24.9310   34.0300 C   0  0  0  0  0  0  0  0  0  0  0  0
   39.1270   24.4080   33.1010 H   0  0  0  0  0  0  0  0  0  0  0  0
   40.4810   24.7910   34.2350 H   0  0  0  0  0  0  0  0  0  0  0  0
   38.5370   24.5030   35.0700 N   0  0  0  0  0  0  0  0  0  0  0  0
   37.8530   23.2630   34.7880 C   0  0  0  0  0  0  0  0  0  0  0  0
   38.5130   22.0360   35.2660 C   0  0  0  0  0  0  0  0  0  0  0  0
   39.1800   22.1700   36.5330 N   0  0  0  0  0  0  0  0  0  0  0  0
   40.0210   23.3810   36.5040 C   0  0  0  0  0  0  0  0  0  0  0  0
   38.9860   24.5100   36.3990 C   0  0  2  0  0  0  0  0  0  0  0  0
   37.8850   23.1960   33.6570 H   0  0  0  0  0  0  0  0  0  0  0  0
   36.7640   23.2860   35.0040 H   0  0  0  0  0  0  0  0  0  0  0  0
   39.3110   21.6680   34.5550 H   0  0  0  0  0  0  0  0  0  0  0  0
   37.7950   21.2020   35.3300 H   0  0  0  0  0  0  0  0  0  0  0  0
   39.7120   21.3210   36.7440 H   0  0  0  0  0  0  0  0  0  0  0  0
   40.7510   23.3840   35.7020 H   0  0  0  0  0  0  0  0  0  0  0  0
   40.5170   23.4690   37.4920 H   0  0  0  0  0  0  0  0  0  0  0  0
   39.4630   25.4280   36.6950 H   0  0  0  0  0  0  0  0  0  0  0  0
   37.9940   23.9500   37.3730 C   0  0  0  0  0  0  0  0  0  0  0  0
   36.7780   24.1100   36.8840 F   0  0  0  0  0  0  0  0  0  0  0  0
   38.2900   24.6800   38.5420 F   0  0  0  0  0  0  0  0  0  0  0  0
   38.0080   22.7410   37.9220 F   0  0  0  0  0  0  0  0  0  0  0  0
   39.2100   26.4140   33.8190 C   0  0  0  0  0  0  0  0  0  0  0  0
   39.6260   26.6420   32.8080 H   0  0  0  0  0  0  0  0  0  0  0  0
   39.7690   27.0380   34.5180 H   0  0  0  0  0  0  0  0  0  0  0  0
   37.4430   26.8500   33.7490 S   0  0  0  0  0  0  0  0  0  0  0  0
   36.8390   27.2720   31.0200 C   0  0  2  0  0  0  0  0  0  0  0  0
   38.1430   27.9070   31.1750 C   0  0  0  0  0  0  0  0  0  0  0  0
   37.2130   27.9280   32.3240 C   0  0  2  0  0  0  0  0  0  0  0  0
   36.0090   27.7290   30.4630 H   0  0  0  0  0  0  0  0  0  0  0  0
   39.0210   27.1990   31.2220 H   0  0  0  0  0  0  0  0  0  0  0  0
   38.4220   28.8370   30.6400 H   0  0  0  0  0  0  0  0  0  0  0  0
   36.7360   28.9360   32.4930 H   0  0  0  0  0  0  0  0  0  0  0  0
   35.5770   23.7730   31.4690 C   0  0  0  0  0  0  0  0  0  0  0  0
   36.7510   23.0550   31.1300 C   0  0  0  0  0  0  0  0  0  0  0  0
   37.9090   23.7680   30.7560 C   0  0  0  0  0  0  0  0  0  0  0  0
   37.8800   25.1210   30.7200 N   0  0  0  0  0  0  0  0  0  0  0  0
   36.7260   25.7670   31.0560 C   0  0  0  0  0  0  0  0  0  0  0  0
   35.5650   25.1420   31.4330 N   0  0  0  0  0  0  0  0  0  0  0  0
   34.6980   23.2570   31.7530 H   0  0  0  0  0  0  0  0  0  0  0  0
   36.6630   21.9830   31.1870 H   0  0  0  0  0  0  0  0  0  0  0  0
   38.7080   23.0830   30.5790 H   0  0  0  0  0  0  0  0  0  0  0  0
  1  3  1  0  0  0  0
  1  4  1  0  0  0  0
  2  1  1  0  0  0  0
  4  9  1  0  0  0  0
  5 11  1  0  0  0  0
  5  4  1  0  0  0  0
  5  6  1  0  0  0  0
  6 13  1  0  0  0  0
  6  7  1  0  0  0  0
  7 14  1  0  0  0  0
  8  7  1  0  0  0  0
  8 16  1  0  0  0  0
  9  8  1  0  0  0  0
  9 17  1  1  0  0  0
  9 18  1  0  0  0  0
 10  5  1  0  0  0  0
 12  6  1  0  0  0  0
 15  8  1  0  0  0  0
 18 21  1  0  0  0  0
 18 20  1  0  0  0  0
 19 18  1  0  0  0  0
 22  1  1  0  0  0  0
 22 24  1  0  0  0  0
 23 22  1  0  0  0  0
 25 22  1  0  0  0  0
 26 29  1  6  0  0  0
 26 37  1  0  0  0  0
 26 27  1  0  0  0  0
 26 28  1  0  0  0  0
 27 30  1  0  0  0  0
 27 28  1  0  0  0  0
 28 32  1  1  0  0  0
 28 25  1  0  0  0  0
 31 27  1  0  0  0  0
 33 39  1  0  0  0  0
 34 40  1  0  0  0  0
 34 33  2  0  0  0  0
 35 34  1  0  0  0  0
 36 35  2  0  0  0  0
 36 37  1  0  0  0  0
 37 38  2  0  0  0  0
 38 33  1  0  0  0  0
 41 35  1  0  0  0  0
M  END
>  <minimizedAffinity>
-4.62985754

$$$$

 OpenBabel03262520563D

 41 43  0  0  1  0  0  0  0  0999 V2000
   39.7860   24.4510   33.0170 C   0  0  0  0  0  0  0  0  0  0  0  0
   39.6440   24.7310   31.9640 H   0  0  0  0  0  0  0  0  0  0  0  0
   39.0880   23.6180   33.2750 H   0  0  0  0  0  0  0  0  0  0  0  0
   39.6590   25.6000   33.8290 N   0  0  0  0  0  0  0  0  0  0  0  0
   39.7630   26.8420   33.1010 C   0  0  0  0  0  0  0  0  0  0  0  0
   38.4940   27.4290   32.6360 C   0  0  0  0  0  0  0  0  0  0  0  0
   37.3900   27.2640   33.5440 N   0  0  0  0  0  0  0  0  0  0  0  0
   37.3280   25.8530   33.9700 C   0  0  0  0  0  0  0  0  0  0  0  0
   38.6240   25.6840   34.7730 C   0  0  2  0  0  0  0  0  0  0  0  0
   40.3170   26.5480   32.1570 H   0  0  0  0  0  0  0  0  0  0  0  0
   40.4430   27.5860   33.5670 H   0  0  0  0  0  0  0  0  0  0  0  0
   38.1380   26.9760   31.6630 H   0  0  0  0  0  0  0  0  0  0  0  0
   38.6130   28.5020   32.4150 H   0  0  0  0  0  0  0  0  0  0  0  0
   36.5220   27.5880   33.1080 H   0  0  0  0  0  0  0  0  0  0  0  0
   37.2320   25.1550   33.1450 H   0  0  0  0  0  0  0  0  0  0  0  0
   36.4780   25.7530   34.6740 H   0  0  0  0  0  0  0  0  0  0  0  0
   38.5220   24.8070   35.3890 H   0  0  0  0  0  0  0  0  0  0  0  0
   38.5730   26.9950   35.4970 C   0  0  0  0  0  0  0  0  0  0  0  0
   39.7640   27.5620   35.4370 F   0  0  0  0  0  0  0  0  0  0  0  0
   38.1400   26.6040   36.7800 F   0  0  0  0  0  0  0  0  0  0  0  0
   37.6950   27.9740   35.3140 F   0  0  0  0  0  0  0  0  0  0  0  0
   41.1740   23.8800   33.1830 C   0  0  0  0  0  0  0  0  0  0  0  0
   41.8600   24.5480   32.6080 H   0  0  0  0  0  0  0  0  0  0  0  0
   41.3030   22.8840   32.7560 H   0  0  0  0  0  0  0  0  0  0  0  0
   41.7130   23.9740   34.9200 S   0  0  0  0  0  0  0  0  0  0  0  0
   41.4140   21.5100   36.2710 C   0  0  2  0  0  0  0  0  0  0  0  0
   42.6820   22.0180   36.7810 C   0  0  0  0  0  0  0  0  0  0  0  0
   42.3080   22.3400   35.3870 C   0  0  2  0  0  0  0  0  0  0  0  0
   41.2610   20.4640   35.9690 H   0  0  0  0  0  0  0  0  0  0  0  0
   42.5990   22.8390   37.5510 H   0  0  0  0  0  0  0  0  0  0  0  0
   43.5420   21.3560   37.0100 H   0  0  0  0  0  0  0  0  0  0  0  0
   42.8880   21.7480   34.6210 H   0  0  0  0  0  0  0  0  0  0  0  0
   38.7780   23.3730   38.1740 C   0  0  0  0  0  0  0  0  0  0  0  0
   37.6860   23.2060   37.2870 C   0  0  0  0  0  0  0  0  0  0  0  0
   37.8780   22.4880   36.0880 C   0  0  0  0  0  0  0  0  0  0  0  0
   39.0990   21.9780   35.8000 N   0  0  0  0  0  0  0  0  0  0  0  0
   40.1190   22.1660   36.6880 C   0  0  0  0  0  0  0  0  0  0  0  0
   40.0060   22.8480   37.8720 N   0  0  0  0  0  0  0  0  0  0  0  0
   38.6550   23.9070   39.0790 H   0  0  0  0  0  0  0  0  0  0  0  0
   36.7620   23.6550   37.6100 H   0  0  0  0  0  0  0  0  0  0  0  0
   36.9520   22.4170   35.5630 H   0  0  0  0  0  0  0  0  0  0  0  0
  1 22  1  0  0  0  0
  1  3  1  0  0  0  0
  1  4  1  0  0  0  0
  2  1  1  0  0  0  0
  4  9  1  0  0  0  0
  5 11  1  0  0  0  0
  5  4  1  0  0  0  0
  6  5  1  0  0  0  0
  6  7  1  0  0  0  0
  7  8  1  0  0  0  0
  8 16  1  0  0  0  0
  8  9  1  0  0  0  0
  9 17  1  1  0  0  0
  9 18  1  0  0  0  0
 10  5  1  0  0  0  0
 12  6  1  0  0  0  0
 13  6  1  0  0  0  0
 14  7  1  0  0  0  0
 15  8  1  0  0  0  0
 18 20  1  0  0  0  0
 19 18  1  0  0  0  0
 21 18  1  0  0  0  0
 22 25  1  0  0  0  0
 23 22  1  0  0  0  0
 24 22  1  0  0  0  0
 25 28  1  0  0  0  0
 26 29  1  6  0  0  0
 26 37  1  0  0  0  0
 26 27  1  0  0  0  0
 27 31  1  0  0  0  0
 27 30  1  0  0  0  0
 28 32  1  6  0  0  0
 28 26  1  0  0  0  0
 28 27  1  0  0  0  0
 33 39  1  0  0  0  0
 34 40  1  0  0  0  0
 34 33  2  0  0  0  0
 35 34  1  0  0  0  0
 36 35  2  0  0  0  0
 36 37  1  0  0  0  0
 37 38  2  0  0  0  0
 38 33  1  0  0  0  0
 41 35  1  0  0  0  0
M  END
>  <minimizedAffinity>
-4.60619116

$$$$

 OpenBabel03262520563D

 41 43  0  0  1  0  0  0  0  0999 V2000
   37.7800   25.5220   35.5690 C   0  0  0  0  0  0  0  0  0  0  0  0
   36.8850   25.9130   36.0710 H   0  0  0  0  0  0  0  0  0  0  0  0
   37.4850   25.0600   34.5950 H   0  0  0  0  0  0  0  0  0  0  0  0
   38.4710   24.6570   36.4470 N   0  0  0  0  0  0  0  0  0  0  0  0
   37.6030   23.8260   37.2460 C   0  0  0  0  0  0  0  0  0  0  0  0
   37.2950   22.4930   36.6970 C   0  0  0  0  0  0  0  0  0  0  0  0
   38.3880   21.8650   36.0040 N   0  0  0  0  0  0  0  0  0  0  0  0
   38.9710   22.8320   35.0550 C   0  0  0  0  0  0  0  0  0  0  0  0
   39.5600   23.9040   35.9820 C   0  0  2  0  0  0  0  0  0  0  0  0
   36.6170   24.3850   37.2340 H   0  0  0  0  0  0  0  0  0  0  0  0
   37.8630   23.8030   38.3250 H   0  0  0  0  0  0  0  0  0  0  0  0
   36.4510   22.5190   35.9450 H   0  0  0  0  0  0  0  0  0  0  0  0
   36.9400   21.8130   37.4880 H   0  0  0  0  0  0  0  0  0  0  0  0
   38.0710   21.0030   35.5510 H   0  0  0  0  0  0  0  0  0  0  0  0
   38.2570   23.2210   34.3380 H   0  0  0  0  0  0  0  0  0  0  0  0
   39.8160   22.3290   34.5410 H   0  0  0  0  0  0  0  0  0  0  0  0
   40.2770   24.4740   35.4180 H   0  0  0  0  0  0  0  0  0  0  0  0
   40.1320   22.9750   37.0100 C   0  0  0  0  0  0  0  0  0  0  0  0
   39.6980   23.3380   38.2020 F   0  0  0  0  0  0  0  0  0  0  0  0
   41.5170   23.1130   36.7890 F   0  0  0  0  0  0  0  0  0  0  0  0
   40.0920   21.6470   36.9970 F   0  0  0  0  0  0  0  0  0  0  0  0
   38.6790   26.6800   35.2080 C   0  0  0  0  0  0  0  0  0  0  0  0
   39.6260   26.2330   34.8180 H   0  0  0  0  0  0  0  0  0  0  0  0
   38.9720   27.3010   36.0550 H   0  0  0  0  0  0  0  0  0  0  0  0
   37.9740   27.6490   33.8370 S   0  0  0  0  0  0  0  0  0  0  0  0
   35.4390   28.7490   33.2410 C   0  0  2  0  0  0  0  0  0  0  0  0
   35.8340   29.4580   34.4540 C   0  0  0  0  0  0  0  0  0  0  0  0
   36.2780   28.0570   34.2850 C   0  0  2  0  0  0  0  0  0  0  0  0
   34.4290   28.3460   33.0810 H   0  0  0  0  0  0  0  0  0  0  0  0
   36.6000   30.2730   34.3070 H   0  0  0  0  0  0  0  0  0  0  0  0
   35.1080   29.7430   35.2420 H   0  0  0  0  0  0  0  0  0  0  0  0
   35.7100   27.3280   34.9330 H   0  0  0  0  0  0  0  0  0  0  0  0
   37.1640   30.4760   30.3990 C   0  0  0  0  0  0  0  0  0  0  0  0
   37.2980   29.3830   29.5070 C   0  0  0  0  0  0  0  0  0  0  0  0
   36.8170   28.1150   29.8960 C   0  0  0  0  0  0  0  0  0  0  0  0
   36.2430   27.9610   31.1130 N   0  0  0  0  0  0  0  0  0  0  0  0
   36.1370   29.0440   31.9360 C   0  0  0  0  0  0  0  0  0  0  0  0
   36.5780   30.3050   31.6250 N   0  0  0  0  0  0  0  0  0  0  0  0
   37.5180   31.4350   30.1270 H   0  0  0  0  0  0  0  0  0  0  0  0
   37.7730   29.6150   28.5690 H   0  0  0  0  0  0  0  0  0  0  0  0
   36.9530   27.4220   29.0970 H   0  0  0  0  0  0  0  0  0  0  0  0
  1  2  1  0  0  0  0
  1  4  1  0  0  0  0
  3  1  1  0  0  0  0
  4  5  1  0  0  0  0
  5 11  1  0  0  0  0
  6  5  1  0  0  0  0
  6 13  1  0  0  0  0
  7  6  1  0  0  0  0
  8  9  1  0  0  0  0
  8  7  1  0  0  0  0
  9 17  1  6  0  0  0
  9  4  1  0  0  0  0
  9 18  1  0  0  0  0
 10  5  1  0  0  0  0
 12  6  1  0  0  0  0
 14  7  1  0  0  0  0
 15  8  1  0  0  0  0
 16  8  1  0  0  0  0
 18 19  1  0  0  0  0
 20 18  1  0  0  0  0
 21 18  1  0  0  0  0
 22  1  1  0  0  0  0
 22 24  1  0  0  0  0
 23 22  1  0  0  0  0
 25 28  1  0  0  0  0
 25 22  1  0  0  0  0
 26 29  1  6  0  0  0
 26 28  1  0  0  0  0
 26 27  1  0  0  0  0
 27 31  1  0  0  0  0
 28 27  1  0  0  0  0
 28 32  1  1  0  0  0
 30 27  1  0  0  0  0
 33 38  1  0  0  0  0
 34 35  1  0  0  0  0
 34 33  2  0  0  0  0
 35 36  2  0  0  0  0
 36 37  1  0  0  0  0
 37 26  1  0  0  0  0
 38 37  2  0  0  0  0
 39 33  1  0  0  0  0
 40 34  1  0  0  0  0
 41 35  1  0  0  0  0
M  END
>  <minimizedAffinity>
-4.53401947

$$$$
