
 OpenBabel03272507043D

 26 28  0  0  0  0  0  0  0  0999 V2000
   34.4000   28.0180   48.6270 C   0  0  0  0  0  0  0  0  0  0  0  0
   34.8440   29.3400   48.5020 C   0  0  0  0  0  0  0  0  0  0  0  0
   34.1730   30.2130   47.6790 C   0  0  0  0  0  0  0  0  0  0  0  0
   33.0590   29.7960   46.9680 C   0  0  0  0  0  0  0  0  0  0  0  0
   32.2470   30.4600   46.1090 N   0  0  0  0  0  0  0  0  0  0  0  0
   31.3370   29.5220   45.7400 C   0  0  0  0  0  0  0  0  0  0  0  0
   31.5870   28.3430   46.3470 N   0  0  0  0  0  0  0  0  0  0  0  0
   32.6650   28.4910   47.1250 C   0  0  0  0  0  0  0  0  0  0  0  0
   33.2880   27.5820   47.9240 C   0  0  0  0  0  0  0  0  0  0  0  0
   34.9360   27.3470   49.2750 H   0  0  0  0  0  0  0  0  0  0  0  0
   34.5610   31.2390   47.6150 H   0  0  0  0  0  0  0  0  0  0  0  0
   32.3340   31.4570   45.8260 H   0  0  0  0  0  0  0  0  0  0  0  0
   30.5430   29.7740   45.0410 H   0  0  0  0  0  0  0  0  0  0  0  0
   32.9530   26.5510   48.0290 H   0  0  0  0  0  0  0  0  0  0  0  0
   37.6640   29.3950   50.8540 C   0  0  0  0  0  0  0  0  0  0  0  0
   38.2290   30.6670   50.6240 C   0  0  0  0  0  0  0  0  0  0  0  0
   37.6100   31.4700   49.6540 C   0  0  0  0  0  0  0  0  0  0  0  0
   36.5160   31.0010   48.9910 N   0  0  0  0  0  0  0  0  0  0  0  0
   36.0130   29.7700   49.2500 C   0  0  0  0  0  0  0  0  0  0  0  0
   36.5750   28.9690   50.1710 N   0  0  0  0  0  0  0  0  0  0  0  0
   38.1560   28.7900   51.6070 H   0  0  0  0  0  0  0  0  0  0  0  0
   39.0780   31.0590   51.1220 H   0  0  0  0  0  0  0  0  0  0  0  0
   38.0640   32.8230   49.2850 C   0  0  0  0  0  0  0  0  0  0  0  0
   38.2120   32.9880   47.9330 F   0  0  0  0  0  0  0  0  0  0  0  0
   39.2410   33.1330   49.9690 F   0  0  0  0  0  0  0  0  0  0  0  0
   37.1070   33.7190   49.7750 F   0  0  0  0  0  0  0  0  0  0  0  0
  1 10  1  0  0  0  0
  2  1  1  0  0  0  0
  2 19  1  0  0  0  0
  3  2  2  0  0  0  0
  4  8  2  0  0  0  0
  4  3  1  0  0  0  0
  5  4  1  0  0  0  0
  6  5  1  0  0  0  0
  6  7  2  0  0  0  0
  7  8  1  0  0  0  0
  8  9  1  0  0  0  0
  9 14  1  0  0  0  0
  9  1  2  0  0  0  0
 11  3  1  0  0  0  0
 12  5  1  0  0  0  0
 13  6  1  0  0  0  0
 15 21  1  0  0  0  0
 16 15  1  0  0  0  0
 16 22  1  0  0  0  0
 17 16  2  0  0  0  0
 18 19  2  0  0  0  0
 18 17  1  0  0  0  0
 19 20  1  0  0  0  0
 20 15  2  0  0  0  0
 23 17  1  0  0  0  0
 23 26  1  0  0  0  0
 23 25  1  0  0  0  0
 24 23  1  0  0  0  0
M  END
>  <minimizedAffinity>
-6.15745592

>  <minimizedRMSD>
1.02245188

$$$$
