
 OpenBabel03262522233D

 26 27  0  0  0  0  0  0  0  0999 V2000
   39.4390   31.9190   46.6990 C   0  0  0  0  0  0  0  0  0  0  0  0
   39.5790   30.7390   46.0560 C   0  0  0  0  0  0  0  0  0  0  0  0
   39.9120   30.7050   44.7360 C   0  0  0  0  0  0  0  0  0  0  0  0
   40.0970   31.9080   44.0890 C   0  0  0  0  0  0  0  0  0  0  0  0
   39.9530   33.1090   44.7470 C   0  0  0  0  0  0  0  0  0  0  0  0
   39.6200   33.0680   46.0620 N   0  0  0  0  0  0  0  0  0  0  0  0
   39.4080   29.8430   46.6690 H   0  0  0  0  0  0  0  0  0  0  0  0
   40.0230   29.7650   44.2290 H   0  0  0  0  0  0  0  0  0  0  0  0
   40.3640   31.9410   43.0340 H   0  0  0  0  0  0  0  0  0  0  0  0
   40.1580   34.4080   44.0280 C   0  0  0  0  0  0  0  0  0  0  0  0
   39.8970   35.2340   44.7190 H   0  0  0  0  0  0  0  0  0  0  0  0
   39.3680   34.4210   43.2260 H   0  0  0  0  0  0  0  0  0  0  0  0
   41.1570   34.5010   43.6050 H   0  0  0  0  0  0  0  0  0  0  0  0
   39.1030   32.1330   48.0410 O   0  0  0  0  0  0  0  0  0  0  0  0
   38.2170   31.0400   49.8920 C   0  0  0  0  0  0  0  0  0  0  0  0
   38.0500   31.4390   48.5440 C   0  0  0  0  0  0  0  0  0  0  0  0
   36.8660   31.0840   47.9160 C   0  0  0  0  0  0  0  0  0  0  0  0
   35.9570   30.3840   48.6290 N   0  0  0  0  0  0  0  0  0  0  0  0
   36.1330   30.0240   49.8840 C   0  0  0  0  0  0  0  0  0  0  0  0
   37.2840   30.3430   50.5660 N   0  0  0  0  0  0  0  0  0  0  0  0
   39.0870   31.2540   50.4850 H   0  0  0  0  0  0  0  0  0  0  0  0
   36.7930   31.4090   46.9030 H   0  0  0  0  0  0  0  0  0  0  0  0
   35.0200   29.2520   50.5230 C   0  0  0  0  0  0  0  0  0  0  0  0
   35.2280   29.0920   51.8700 F   0  0  0  0  0  0  0  0  0  0  0  0
   34.7820   28.0540   49.8800 F   0  0  0  0  0  0  0  0  0  0  0  0
   33.8680   30.0310   50.3560 F   0  0  0  0  0  0  0  0  0  0  0  0
  1 14  1  0  0  0  0
  2  7  1  0  0  0  0
  2  1  2  0  0  0  0
  3  2  1  0  0  0  0
  4  3  2  0  0  0  0
  4  5  1  0  0  0  0
  5  6  2  0  0  0  0
  6  1  1  0  0  0  0
  8  3  1  0  0  0  0
  9  4  1  0  0  0  0
 10 11  1  0  0  0  0
 10  5  1  0  0  0  0
 12 10  1  0  0  0  0
 13 10  1  0  0  0  0
 14 16  1  0  0  0  0
 15 21  1  0  0  0  0
 15 20  1  0  0  0  0
 16 15  2  0  0  0  0
 17 16  1  0  0  0  0
 17 18  2  0  0  0  0
 18 19  1  0  0  0  0
 19 23  1  0  0  0  0
 19 20  2  0  0  0  0
 22 17  1  0  0  0  0
 23 24  1  0  0  0  0
 25 23  1  0  0  0  0
 26 23  1  0  0  0  0
M  END
>  <minimizedAffinity>
-5.56850863

>  <minimizedRMSD>
1.86252332

$$$$
