
 OpenBabel03262521223D

 28 28  0  0  0  0  0  0  0  0999 V2000
   37.5600   26.9370   33.1470 O   0  0  0  0  0  0  0  0  0  0  0  0
   37.0190   25.8220   32.5650 C   0  0  0  0  0  0  0  0  0  0  0  0
   35.9940   26.1350   31.6900 C   0  0  0  0  0  0  0  0  0  0  0  0
   35.3310   25.1010   31.0090 C   0  0  0  0  0  0  0  0  0  0  0  0
   35.7590   23.8190   31.2680 N   0  0  0  0  0  0  0  0  0  0  0  0
   36.7730   23.5510   32.1390 C   0  0  0  0  0  0  0  0  0  0  0  0
   37.3860   24.5520   32.7730 N   0  0  0  0  0  0  0  0  0  0  0  0
   36.3310   21.2570   31.6130 C   0  0  0  0  0  0  0  0  0  0  0  0
   35.3650   21.5370   30.8480 O   0  0  0  0  0  0  0  0  0  0  0  0
   37.1240   22.1910   32.3260 N   0  0  0  0  0  0  0  0  0  0  0  0
   35.6250   27.1020   31.4520 H   0  0  0  0  0  0  0  0  0  0  0  0
   34.5250   25.2930   30.3150 H   0  0  0  0  0  0  0  0  0  0  0  0
   36.5420   20.1980   31.7090 H   0  0  0  0  0  0  0  0  0  0  0  0
   37.9280   21.9270   32.9590 H   0  0  0  0  0  0  0  0  0  0  0  0
   37.1210   27.2750   34.4090 C   0  0  0  0  0  0  0  0  0  0  0  0
   36.2750   26.6370   34.7750 H   0  0  0  0  0  0  0  0  0  0  0  0
   36.6790   28.2920   34.3410 H   0  0  0  0  0  0  0  0  0  0  0  0
   38.2760   27.1740   35.0870 C   0  0  0  0  0  0  0  0  0  0  0  0
   39.0300   26.5610   34.4980 H   0  0  0  0  0  0  0  0  0  0  0  0
   38.8830   28.0870   35.2860 H   0  0  0  0  0  0  0  0  0  0  0  0
   38.1800   26.4740   36.4150 C   0  0  0  0  0  0  0  0  0  0  0  0
   37.1810   26.7250   36.8560 H   0  0  0  0  0  0  0  0  0  0  0  0
   38.9060   26.8830   37.1650 H   0  0  0  0  0  0  0  0  0  0  0  0
   38.3900   24.7200   36.3370 S   0  0  0  0  0  0  0  0  0  0  0  0
   38.2440   23.9730   37.9690 C   0  0  0  0  0  0  0  0  0  0  0  0
   39.4360   23.3340   38.2690 F   0  0  0  0  0  0  0  0  0  0  0  0
   37.2110   23.0520   37.9530 F   0  0  0  0  0  0  0  0  0  0  0  0
   37.9310   24.9060   38.9300 F   0  0  0  0  0  0  0  0  0  0  0  0
  1 15  1  0  0  0  0
  2  7  1  0  0  0  0
  2  1  1  0  0  0  0
  3  2  2  0  0  0  0
  4  5  2  0  0  0  0
  4  3  1  0  0  0  0
  5  6  1  0  0  0  0
  6 10  1  0  0  0  0
  6  7  2  0  0  0  0
  8 13  1  0  0  0  0
  8 10  1  0  0  0  0
  9  8  2  0  0  0  0
 10 14  1  0  0  0  0
 11  3  1  0  0  0  0
 12  4  1  0  0  0  0
 15 16  1  0  0  0  0
 15 18  1  0  0  0  0
 17 15  1  0  0  0  0
 18 20  1  0  0  0  0
 18 21  1  0  0  0  0
 19 18  1  0  0  0  0
 21 22  1  0  0  0  0
 21 23  1  0  0  0  0
 24 21  1  0  0  0  0
 24 25  1  0  0  0  0
 25 26  1  0  0  0  0
 25 28  1  0  0  0  0
 27 25  1  0  0  0  0
M  END
>  <minimizedAffinity>
-4.51668739

$$$$

 OpenBabel03262521223D

 28 28  0  0  0  0  0  0  0  0999 V2000
   38.1620   23.9180   32.6650 O   0  0  0  0  0  0  0  0  0  0  0  0
   38.1250   24.1850   34.0070 C   0  0  0  0  0  0  0  0  0  0  0  0
   37.9950   25.5380   34.2670 C   0  0  0  0  0  0  0  0  0  0  0  0
   37.9420   25.9810   35.5990 C   0  0  0  0  0  0  0  0  0  0  0  0
   38.0250   25.0130   36.5740 N   0  0  0  0  0  0  0  0  0  0  0  0
   38.1540   23.6890   36.2770 C   0  0  0  0  0  0  0  0  0  0  0  0
   38.2020   23.2950   35.0040 N   0  0  0  0  0  0  0  0  0  0  0  0
   38.2210   23.3840   38.6520 C   0  0  0  0  0  0  0  0  0  0  0  0
   38.1480   24.6230   38.8910 O   0  0  0  0  0  0  0  0  0  0  0  0
   38.2330   22.7860   37.3670 N   0  0  0  0  0  0  0  0  0  0  0  0
   37.9250   26.3250   33.5570 H   0  0  0  0  0  0  0  0  0  0  0  0
   37.8400   27.0260   35.8530 H   0  0  0  0  0  0  0  0  0  0  0  0
   38.2790   22.7540   39.5320 H   0  0  0  0  0  0  0  0  0  0  0  0
   38.2940   21.7450   37.1970 H   0  0  0  0  0  0  0  0  0  0  0  0
   36.9650   23.6510   32.0350 C   0  0  0  0  0  0  0  0  0  0  0  0
   36.4930   24.5550   31.5680 H   0  0  0  0  0  0  0  0  0  0  0  0
   36.2410   23.3480   32.8210 H   0  0  0  0  0  0  0  0  0  0  0  0
   37.3620   22.6870   31.1890 C   0  0  0  0  0  0  0  0  0  0  0  0
   36.5450   22.4620   30.4310 H   0  0  0  0  0  0  0  0  0  0  0  0
   38.2180   22.8720   30.5000 H   0  0  0  0  0  0  0  0  0  0  0  0
   37.6570   21.3560   31.8260 C   0  0  0  0  0  0  0  0  0  0  0  0
   37.6740   21.5110   32.9360 H   0  0  0  0  0  0  0  0  0  0  0  0
   38.6930   20.9950   31.5980 H   0  0  0  0  0  0  0  0  0  0  0  0
   36.5150   20.0720   31.4070 S   0  0  0  0  0  0  0  0  0  0  0  0
   35.0260   20.1710   32.4150 C   0  0  0  0  0  0  0  0  0  0  0  0
   35.3540   19.8300   33.7170 F   0  0  0  0  0  0  0  0  0  0  0  0
   34.0880   19.2810   31.9210 F   0  0  0  0  0  0  0  0  0  0  0  0
   34.4560   21.4210   32.3620 F   0  0  0  0  0  0  0  0  0  0  0  0
  1  2  1  0  0  0  0
  2  3  2  0  0  0  0
  2  7  1  0  0  0  0
  3  4  1  0  0  0  0
  4 12  1  0  0  0  0
  4  5  2  0  0  0  0
  6  5  1  0  0  0  0
  6 10  1  0  0  0  0
  7  6  2  0  0  0  0
  8  9  2  0  0  0  0
  8 13  1  0  0  0  0
 10  8  1  0  0  0  0
 11  3  1  0  0  0  0
 14 10  1  0  0  0  0
 15  1  1  0  0  0  0
 15 17  1  0  0  0  0
 16 15  1  0  0  0  0
 18 21  1  0  0  0  0
 18 15  1  0  0  0  0
 19 18  1  0  0  0  0
 20 18  1  0  0  0  0
 21 22  1  0  0  0  0
 23 21  1  0  0  0  0
 24 21  1  0  0  0  0
 24 25  1  0  0  0  0
 25 26  1  0  0  0  0
 27 25  1  0  0  0  0
 28 25  1  0  0  0  0
M  END
>  <minimizedAffinity>
-4.39339924

$$$$

 OpenBabel03262521223D

 28 28  0  0  0  0  0  0  0  0999 V2000
   38.5110   24.8070   32.9350 O   0  0  0  0  0  0  0  0  0  0  0  0
   37.5480   23.8840   32.6280 C   0  0  0  0  0  0  0  0  0  0  0  0
   36.6030   24.3870   31.7510 C   0  0  0  0  0  0  0  0  0  0  0  0
   35.5440   23.5640   31.3340 C   0  0  0  0  0  0  0  0  0  0  0  0
   35.5210   22.2850   31.8420 N   0  0  0  0  0  0  0  0  0  0  0  0
   36.4700   21.8270   32.7060 C   0  0  0  0  0  0  0  0  0  0  0  0
   37.4660   22.6280   33.0850 N   0  0  0  0  0  0  0  0  0  0  0  0
   35.1910   19.8020   32.6990 C   0  0  0  0  0  0  0  0  0  0  0  0
   34.3020   20.2740   31.9340 O   0  0  0  0  0  0  0  0  0  0  0  0
   36.3390   20.4910   33.1620 N   0  0  0  0  0  0  0  0  0  0  0  0
   36.5730   25.3600   31.3280 H   0  0  0  0  0  0  0  0  0  0  0  0
   34.7820   23.9100   30.6500 H   0  0  0  0  0  0  0  0  0  0  0  0
   35.0250   18.7760   33.0090 H   0  0  0  0  0  0  0  0  0  0  0  0
   37.0670   20.0700   33.8030 H   0  0  0  0  0  0  0  0  0  0  0  0
   39.7190   24.3360   33.4030 C   0  0  0  0  0  0  0  0  0  0  0  0
   40.5790   24.5400   32.7130 H   0  0  0  0  0  0  0  0  0  0  0  0
   39.6530   23.2280   33.4260 H   0  0  0  0  0  0  0  0  0  0  0  0
   39.7580   24.9530   34.5950 C   0  0  0  0  0  0  0  0  0  0  0  0
   40.7640   25.4610   34.7470 H   0  0  0  0  0  0  0  0  0  0  0  0
   39.0770   25.8110   34.7980 H   0  0  0  0  0  0  0  0  0  0  0  0
   39.6110   24.0510   35.7900 C   0  0  0  0  0  0  0  0  0  0  0  0
   40.4600   24.2760   36.4870 H   0  0  0  0  0  0  0  0  0  0  0  0
   39.7650   22.9720   35.5300 H   0  0  0  0  0  0  0  0  0  0  0  0
   38.0670   24.2040   36.6400 S   0  0  0  0  0  0  0  0  0  0  0  0
   38.2490   23.8320   38.3920 C   0  0  0  0  0  0  0  0  0  0  0  0
   39.5070   23.2900   38.5980 F   0  0  0  0  0  0  0  0  0  0  0  0
   37.2790   22.9160   38.7610 F   0  0  0  0  0  0  0  0  0  0  0  0
   38.0600   24.9480   39.1730 F   0  0  0  0  0  0  0  0  0  0  0  0
  1 15  1  0  0  0  0
  2  1  1  0  0  0  0
  2  7  1  0  0  0  0
  3  2  2  0  0  0  0
  4  3  1  0  0  0  0
  4  5  2  0  0  0  0
  5  6  1  0  0  0  0
  6  7  2  0  0  0  0
  6 10  1  0  0  0  0
  8 13  1  0  0  0  0
  8 10  1  0  0  0  0
  9  8  2  0  0  0  0
 10 14  1  0  0  0  0
 11  3  1  0  0  0  0
 12  4  1  0  0  0  0
 15 17  1  0  0  0  0
 15 18  1  0  0  0  0
 16 15  1  0  0  0  0
 18 19  1  0  0  0  0
 18 20  1  0  0  0  0
 18 21  1  0  0  0  0
 21 22  1  0  0  0  0
 21 24  1  0  0  0  0
 23 21  1  0  0  0  0
 24 25  1  0  0  0  0
 25 26  1  0  0  0  0
 25 27  1  0  0  0  0
 25 28  1  0  0  0  0
M  END
>  <minimizedAffinity>
-4.36157227

$$$$

 OpenBabel03262521223D

 28 28  0  0  0  0  0  0  0  0999 V2000
   37.8750   22.6550   32.7530 O   0  0  0  0  0  0  0  0  0  0  0  0
   37.2580   23.8470   32.4830 C   0  0  0  0  0  0  0  0  0  0  0  0
   36.2760   23.7190   31.5160 C   0  0  0  0  0  0  0  0  0  0  0  0
   35.5460   24.8520   31.1220 C   0  0  0  0  0  0  0  0  0  0  0  0
   35.8690   26.0390   31.7410 N   0  0  0  0  0  0  0  0  0  0  0  0
   36.8440   26.1240   32.6880 C   0  0  0  0  0  0  0  0  0  0  0  0
   37.5220   25.0330   33.0450 N   0  0  0  0  0  0  0  0  0  0  0  0
   36.3120   28.4590   32.7180 C   0  0  0  0  0  0  0  0  0  0  0  0
   35.4460   28.3530   31.8030 O   0  0  0  0  0  0  0  0  0  0  0  0
   37.0880   27.4020   33.2530 N   0  0  0  0  0  0  0  0  0  0  0  0
   35.9860   22.8330   31.0080 H   0  0  0  0  0  0  0  0  0  0  0  0
   34.7690   24.8040   30.3730 H   0  0  0  0  0  0  0  0  0  0  0  0
   36.4450   29.4640   33.1020 H   0  0  0  0  0  0  0  0  0  0  0  0
   37.8050   27.5200   34.0200 H   0  0  0  0  0  0  0  0  0  0  0  0
   37.7230   22.1330   34.0200 C   0  0  0  0  0  0  0  0  0  0  0  0
   37.1950   21.1430   34.0370 H   0  0  0  0  0  0  0  0  0  0  0  0
   37.0390   22.8100   34.5750 H   0  0  0  0  0  0  0  0  0  0  0  0
   39.0050   22.1260   34.4190 C   0  0  0  0  0  0  0  0  0  0  0  0
   39.3080   21.0860   34.7650 H   0  0  0  0  0  0  0  0  0  0  0  0
   39.8160   22.3280   33.6820 H   0  0  0  0  0  0  0  0  0  0  0  0
   39.3160   23.0150   35.5920 C   0  0  0  0  0  0  0  0  0  0  0  0
   39.8950   23.8930   35.2030 H   0  0  0  0  0  0  0  0  0  0  0  0
   40.0260   22.5340   36.3140 H   0  0  0  0  0  0  0  0  0  0  0  0
   37.8970   23.5690   36.4910 S   0  0  0  0  0  0  0  0  0  0  0  0
   38.2380   23.6550   38.2560 C   0  0  0  0  0  0  0  0  0  0  0  0
   39.5340   23.2180   38.4760 F   0  0  0  0  0  0  0  0  0  0  0  0
   37.3480   22.8360   38.9280 F   0  0  0  0  0  0  0  0  0  0  0  0
   38.0580   24.9270   38.7490 F   0  0  0  0  0  0  0  0  0  0  0  0
  1 15  1  0  0  0  0
  2  1  1  0  0  0  0
  2  7  1  0  0  0  0
  3  2  2  0  0  0  0
  4  3  1  0  0  0  0
  4  5  2  0  0  0  0
  5  6  1  0  0  0  0
  6  7  2  0  0  0  0
  6 10  1  0  0  0  0
  8 13  1  0  0  0  0
  8 10  1  0  0  0  0
  9  8  2  0  0  0  0
 10 14  1  0  0  0  0
 11  3  1  0  0  0  0
 12  4  1  0  0  0  0
 15 16  1  0  0  0  0
 15 18  1  0  0  0  0
 15 17  1  0  0  0  0
 18 19  1  0  0  0  0
 18 21  1  0  0  0  0
 20 18  1  0  0  0  0
 21 23  1  0  0  0  0
 21 24  1  0  0  0  0
 22 21  1  0  0  0  0
 24 25  1  0  0  0  0
 25 26  1  0  0  0  0
 25 28  1  0  0  0  0
 25 27  1  0  0  0  0
M  END
>  <minimizedAffinity>
-4.3401866

$$$$

 OpenBabel03262521223D

 28 28  0  0  0  0  0  0  0  0999 V2000
   37.0530   27.2790   33.6530 O   0  0  0  0  0  0  0  0  0  0  0  0
   37.1280   27.8840   32.4270 C   0  0  0  0  0  0  0  0  0  0  0  0
   36.0930   28.7800   32.2230 C   0  0  0  0  0  0  0  0  0  0  0  0
   36.0240   29.4870   31.0110 C   0  0  0  0  0  0  0  0  0  0  0  0
   37.0160   29.2310   30.0910 N   0  0  0  0  0  0  0  0  0  0  0  0
   38.0180   28.3400   30.3300 C   0  0  0  0  0  0  0  0  0  0  0  0
   38.0610   27.6810   31.4890 N   0  0  0  0  0  0  0  0  0  0  0  0
   38.7510   28.9000   28.1200 C   0  0  0  0  0  0  0  0  0  0  0  0
   37.7820   29.6840   27.9130 O   0  0  0  0  0  0  0  0  0  0  0  0
   38.9820   28.1590   29.3050 N   0  0  0  0  0  0  0  0  0  0  0  0
   35.3060   29.0170   32.8950 H   0  0  0  0  0  0  0  0  0  0  0  0
   35.2370   30.1980   30.8040 H   0  0  0  0  0  0  0  0  0  0  0  0
   39.4470   28.8100   27.2930 H   0  0  0  0  0  0  0  0  0  0  0  0
   39.8030   27.5100   29.4500 H   0  0  0  0  0  0  0  0  0  0  0  0
   38.2330   26.8740   34.2380 C   0  0  0  0  0  0  0  0  0  0  0  0
   38.9040   27.7240   34.5300 H   0  0  0  0  0  0  0  0  0  0  0  0
   38.8140   26.3310   33.4620 H   0  0  0  0  0  0  0  0  0  0  0  0
   37.7470   26.1310   35.2440 C   0  0  0  0  0  0  0  0  0  0  0  0
   37.3720   26.7980   36.0860 H   0  0  0  0  0  0  0  0  0  0  0  0
   36.8420   25.5010   35.0810 H   0  0  0  0  0  0  0  0  0  0  0  0
   38.7410   25.2170   35.9060 C   0  0  0  0  0  0  0  0  0  0  0  0
   39.2520   25.8040   36.7140 H   0  0  0  0  0  0  0  0  0  0  0  0
   39.5810   24.9330   35.2200 H   0  0  0  0  0  0  0  0  0  0  0  0
   38.0450   23.7350   36.5760 S   0  0  0  0  0  0  0  0  0  0  0  0
   38.1760   23.7080   38.3720 C   0  0  0  0  0  0  0  0  0  0  0  0
   37.2410   22.8140   38.8670 F   0  0  0  0  0  0  0  0  0  0  0  0
   37.9170   24.9760   38.8620 F   0  0  0  0  0  0  0  0  0  0  0  0
   39.4440   23.3720   38.7850 F   0  0  0  0  0  0  0  0  0  0  0  0
  1 15  1  0  0  0  0
  2  1  1  0  0  0  0
  3  2  1  0  0  0  0
  3 11  1  0  0  0  0
  4  3  2  0  0  0  0
  5  6  2  0  0  0  0
  5  4  1  0  0  0  0
  6  7  1  0  0  0  0
  7  2  2  0  0  0  0
  8 10  1  0  0  0  0
  9  8  2  0  0  0  0
 10 14  1  0  0  0  0
 10  6  1  0  0  0  0
 12  4  1  0  0  0  0
 13  8  1  0  0  0  0
 15 16  1  0  0  0  0
 15 18  1  0  0  0  0
 17 15  1  0  0  0  0
 18 21  1  0  0  0  0
 18 19  1  0  0  0  0
 20 18  1  0  0  0  0
 21 24  1  0  0  0  0
 21 22  1  0  0  0  0
 23 21  1  0  0  0  0
 24 25  1  0  0  0  0
 25 28  1  0  0  0  0
 25 27  1  0  0  0  0
 25 26  1  0  0  0  0
M  END
>  <minimizedAffinity>
-4.26049423

$$$$

 OpenBabel03262521223D

 28 28  0  0  0  0  0  0  0  0999 V2000
   36.1550   29.3060   32.7000 O   0  0  0  0  0  0  0  0  0  0  0  0
   35.4010   29.8470   33.7070 C   0  0  0  0  0  0  0  0  0  0  0  0
   34.0840   29.4250   33.6580 C   0  0  0  0  0  0  0  0  0  0  0  0
   33.1760   29.8890   34.6240 C   0  0  0  0  0  0  0  0  0  0  0  0
   33.6750   30.7520   35.5730 N   0  0  0  0  0  0  0  0  0  0  0  0
   34.9800   31.1450   35.5870 C   0  0  0  0  0  0  0  0  0  0  0  0
   35.8210   30.6890   34.6580 N   0  0  0  0  0  0  0  0  0  0  0  0
   34.3390   32.4630   37.4820 C   0  0  0  0  0  0  0  0  0  0  0  0
   33.1260   32.1150   37.4110 O   0  0  0  0  0  0  0  0  0  0  0  0
   35.3750   32.0390   36.6140 N   0  0  0  0  0  0  0  0  0  0  0  0
   33.6470   28.7630   32.9520 H   0  0  0  0  0  0  0  0  0  0  0  0
   32.1380   29.5890   34.6290 H   0  0  0  0  0  0  0  0  0  0  0  0
   34.5690   33.1480   38.2900 H   0  0  0  0  0  0  0  0  0  0  0  0
   36.3830   32.3470   36.6970 H   0  0  0  0  0  0  0  0  0  0  0  0
   36.2020   27.9320   32.6070 C   0  0  0  0  0  0  0  0  0  0  0  0
   35.4910   27.5080   31.8500 H   0  0  0  0  0  0  0  0  0  0  0  0
   35.8380   27.5240   33.5730 H   0  0  0  0  0  0  0  0  0  0  0  0
   37.5090   27.7660   32.3480 C   0  0  0  0  0  0  0  0  0  0  0  0
   37.6940   27.7490   31.2260 H   0  0  0  0  0  0  0  0  0  0  0  0
   38.2390   28.5520   32.6510 H   0  0  0  0  0  0  0  0  0  0  0  0
   38.1020   26.4750   32.8420 C   0  0  0  0  0  0  0  0  0  0  0  0
   39.2170   26.5670   32.7690 H   0  0  0  0  0  0  0  0  0  0  0  0
   37.8670   25.6120   32.1670 H   0  0  0  0  0  0  0  0  0  0  0  0
   37.6330   26.0350   34.4910 S   0  0  0  0  0  0  0  0  0  0  0  0
   38.3650   27.1540   35.6960 C   0  0  0  0  0  0  0  0  0  0  0  0
   39.7030   27.3270   35.3790 F   0  0  0  0  0  0  0  0  0  0  0  0
   38.2520   26.5950   36.9570 F   0  0  0  0  0  0  0  0  0  0  0  0
   37.7100   28.3620   35.7350 F   0  0  0  0  0  0  0  0  0  0  0  0
  1  2  1  0  0  0  0
  2  7  1  0  0  0  0
  3  2  2  0  0  0  0
  3  4  1  0  0  0  0
  4 12  1  0  0  0  0
  4  5  2  0  0  0  0
  5  6  1  0  0  0  0
  6 10  1  0  0  0  0
  7  6  2  0  0  0  0
  8 13  1  0  0  0  0
  9  8  2  0  0  0  0
 10 14  1  0  0  0  0
 10  8  1  0  0  0  0
 11  3  1  0  0  0  0
 15  1  1  0  0  0  0
 15 17  1  0  0  0  0
 16 15  1  0  0  0  0
 18 15  1  0  0  0  0
 18 20  1  0  0  0  0
 18 21  1  0  0  0  0
 19 18  1  0  0  0  0
 21 24  1  0  0  0  0
 22 21  1  0  0  0  0
 23 21  1  0  0  0  0
 24 25  1  0  0  0  0
 25 28  1  0  0  0  0
 25 27  1  0  0  0  0
 26 25  1  0  0  0  0
M  END
>  <minimizedAffinity>
-4.21011591

$$$$

 OpenBabel03262521223D

 28 28  0  0  0  0  0  0  0  0999 V2000
   40.2390   26.0440   35.0830 O   0  0  0  0  0  0  0  0  0  0  0  0
   39.1620   26.6350   34.4770 C   0  0  0  0  0  0  0  0  0  0  0  0
   38.2610   27.1440   35.3950 C   0  0  0  0  0  0  0  0  0  0  0  0
   37.0980   27.7840   34.9360 C   0  0  0  0  0  0  0  0  0  0  0  0
   36.9350   27.8590   33.5710 N   0  0  0  0  0  0  0  0  0  0  0  0
   37.8460   27.3440   32.6990 C   0  0  0  0  0  0  0  0  0  0  0  0
   38.9420   26.7410   33.1610 N   0  0  0  0  0  0  0  0  0  0  0  0
   36.3320   28.1000   31.0040 C   0  0  0  0  0  0  0  0  0  0  0  0
   35.4850   28.5250   31.8410 O   0  0  0  0  0  0  0  0  0  0  0  0
   37.5680   27.4810   31.3150 N   0  0  0  0  0  0  0  0  0  0  0  0
   38.3360   27.1150   36.4540 H   0  0  0  0  0  0  0  0  0  0  0  0
   36.3640   28.1990   35.6120 H   0  0  0  0  0  0  0  0  0  0  0  0
   36.0520   28.2370   29.9660 H   0  0  0  0  0  0  0  0  0  0  0  0
   38.2570   27.1350   30.5930 H   0  0  0  0  0  0  0  0  0  0  0  0
   40.7190   24.8760   34.5320 C   0  0  0  0  0  0  0  0  0  0  0  0
   41.7070   24.9980   34.0150 H   0  0  0  0  0  0  0  0  0  0  0  0
   40.0240   24.5890   33.7140 H   0  0  0  0  0  0  0  0  0  0  0  0
   40.7140   24.0900   35.6200 C   0  0  0  0  0  0  0  0  0  0  0  0
   41.7530   23.6720   35.8140 H   0  0  0  0  0  0  0  0  0  0  0  0
   40.4930   24.5290   36.6200 H   0  0  0  0  0  0  0  0  0  0  0  0
   39.8330   22.8740   35.5280 C   0  0  0  0  0  0  0  0  0  0  0  0
   40.3680   22.0320   36.0400 H   0  0  0  0  0  0  0  0  0  0  0  0
   39.7200   22.5090   34.4750 H   0  0  0  0  0  0  0  0  0  0  0  0
   38.2190   23.0820   36.2210 S   0  0  0  0  0  0  0  0  0  0  0  0
   38.3110   23.5630   37.9530 C   0  0  0  0  0  0  0  0  0  0  0  0
   38.1950   24.9420   38.0330 F   0  0  0  0  0  0  0  0  0  0  0  0
   39.5330   23.1660   38.4670 F   0  0  0  0  0  0  0  0  0  0  0  0
   37.3410   22.9450   38.7070 F   0  0  0  0  0  0  0  0  0  0  0  0
  2  1  1  0  0  0  0
  2  3  1  0  0  0  0
  3 11  1  0  0  0  0
  4  3  2  0  0  0  0
  4 12  1  0  0  0  0
  5  4  1  0  0  0  0
  6  7  1  0  0  0  0
  6  5  2  0  0  0  0
  7  2  2  0  0  0  0
  8 10  1  0  0  0  0
  8  9  2  0  0  0  0
 10  6  1  0  0  0  0
 13  8  1  0  0  0  0
 14 10  1  0  0  0  0
 15  1  1  0  0  0  0
 15 18  1  0  0  0  0
 16 15  1  0  0  0  0
 17 15  1  0  0  0  0
 18 19  1  0  0  0  0
 18 20  1  0  0  0  0
 21 18  1  0  0  0  0
 21 22  1  0  0  0  0
 21 24  1  0  0  0  0
 23 21  1  0  0  0  0
 24 25  1  0  0  0  0
 25 26  1  0  0  0  0
 25 27  1  0  0  0  0
 25 28  1  0  0  0  0
M  END
>  <minimizedAffinity>
-4.16195154

$$$$

 OpenBabel03262521223D

 28 28  0  0  0  0  0  0  0  0999 V2000
   37.3980   25.7610   34.5490 O   0  0  0  0  0  0  0  0  0  0  0  0
   37.2050   26.7050   33.5760 C   0  0  0  0  0  0  0  0  0  0  0  0
   36.5690   27.8340   34.0620 C   0  0  0  0  0  0  0  0  0  0  0  0
   36.2950   28.9000   33.1890 C   0  0  0  0  0  0  0  0  0  0  0  0
   36.6900   28.7400   31.8790 N   0  0  0  0  0  0  0  0  0  0  0  0
   37.3130   27.6110   31.4390 C   0  0  0  0  0  0  0  0  0  0  0  0
   37.5610   26.6140   32.2890 N   0  0  0  0  0  0  0  0  0  0  0  0
   37.2810   28.6870   29.2990 C   0  0  0  0  0  0  0  0  0  0  0  0
   36.6600   29.7000   29.7310 O   0  0  0  0  0  0  0  0  0  0  0  0
   37.6700   27.5620   30.0670 N   0  0  0  0  0  0  0  0  0  0  0  0
   36.2450   28.0100   35.0570 H   0  0  0  0  0  0  0  0  0  0  0  0
   35.8020   29.8020   33.5200 H   0  0  0  0  0  0  0  0  0  0  0  0
   37.5200   28.7180   28.2420 H   0  0  0  0  0  0  0  0  0  0  0  0
   38.1900   26.7280   29.6790 H   0  0  0  0  0  0  0  0  0  0  0  0
   38.1320   26.1290   35.6560 C   0  0  0  0  0  0  0  0  0  0  0  0
   37.6450   26.9290   36.2720 H   0  0  0  0  0  0  0  0  0  0  0  0
   39.0650   26.6060   35.2880 H   0  0  0  0  0  0  0  0  0  0  0  0
   38.2710   24.9300   36.2450 C   0  0  0  0  0  0  0  0  0  0  0  0
   39.1340   24.9490   36.9860 H   0  0  0  0  0  0  0  0  0  0  0  0
   37.4620   24.5390   36.9030 H   0  0  0  0  0  0  0  0  0  0  0  0
   38.6000   23.7930   35.3170 C   0  0  0  0  0  0  0  0  0  0  0  0
   39.4090   24.1470   34.6260 H   0  0  0  0  0  0  0  0  0  0  0  0
   37.7540   23.5500   34.6240 H   0  0  0  0  0  0  0  0  0  0  0  0
   39.1000   22.3030   36.1290 S   0  0  0  0  0  0  0  0  0  0  0  0
   40.3670   22.6290   37.3650 C   0  0  0  0  0  0  0  0  0  0  0  0
   41.3250   23.4580   36.8050 F   0  0  0  0  0  0  0  0  0  0  0  0
   40.9490   21.4310   37.7420 F   0  0  0  0  0  0  0  0  0  0  0  0
   39.8380   23.1900   38.5040 F   0  0  0  0  0  0  0  0  0  0  0  0
  1 15  1  0  0  0  0
  2  3  1  0  0  0  0
  2  1  1  0  0  0  0
  3 11  1  0  0  0  0
  4 12  1  0  0  0  0
  4  3  2  0  0  0  0
  5  4  1  0  0  0  0
  6  5  2  0  0  0  0
  6  7  1  0  0  0  0
  7  2  2  0  0  0  0
  8  9  2  0  0  0  0
  8 10  1  0  0  0  0
 10  6  1  0  0  0  0
 13  8  1  0  0  0  0
 14 10  1  0  0  0  0
 15 18  1  0  0  0  0
 15 16  1  0  0  0  0
 17 15  1  0  0  0  0
 18 20  1  0  0  0  0
 18 19  1  0  0  0  0
 21 24  1  0  0  0  0
 21 18  1  0  0  0  0
 22 21  1  0  0  0  0
 23 21  1  0  0  0  0
 24 25  1  0  0  0  0
 25 27  1  0  0  0  0
 25 28  1  0  0  0  0
 26 25  1  0  0  0  0
M  END
>  <minimizedAffinity>
-4.1495347

$$$$

 OpenBabel03262521223D

 28 28  0  0  0  0  0  0  0  0999 V2000
   35.8290   27.7400   31.4550 O   0  0  0  0  0  0  0  0  0  0  0  0
   36.1010   26.4210   31.7010 C   0  0  0  0  0  0  0  0  0  0  0  0
   35.2610   25.5740   30.9980 C   0  0  0  0  0  0  0  0  0  0  0  0
   35.4090   24.1850   31.1390 C   0  0  0  0  0  0  0  0  0  0  0  0
   36.4040   23.7540   31.9880 N   0  0  0  0  0  0  0  0  0  0  0  0
   37.2100   24.6200   32.6640 C   0  0  0  0  0  0  0  0  0  0  0  0
   37.0490   25.9350   32.5120 N   0  0  0  0  0  0  0  0  0  0  0  0
   38.1920   22.6440   33.5940 C   0  0  0  0  0  0  0  0  0  0  0  0
   37.3970   21.8700   32.9880 O   0  0  0  0  0  0  0  0  0  0  0  0
   38.1980   24.0580   33.5110 N   0  0  0  0  0  0  0  0  0  0  0  0
   34.4820   25.8500   30.3320 H   0  0  0  0  0  0  0  0  0  0  0  0
   34.7800   23.4830   30.6110 H   0  0  0  0  0  0  0  0  0  0  0  0
   38.9200   22.1440   34.2240 H   0  0  0  0  0  0  0  0  0  0  0  0
   38.8770   24.6810   34.0290 H   0  0  0  0  0  0  0  0  0  0  0  0
   36.1590   28.6520   32.4340 C   0  0  0  0  0  0  0  0  0  0  0  0
   37.0390   29.2950   32.1700 H   0  0  0  0  0  0  0  0  0  0  0  0
   36.5060   28.0740   33.3170 H   0  0  0  0  0  0  0  0  0  0  0  0
   34.9810   29.2840   32.5640 C   0  0  0  0  0  0  0  0  0  0  0  0
   35.0400   30.3280   32.1170 H   0  0  0  0  0  0  0  0  0  0  0  0
   34.0830   28.8970   32.0310 H   0  0  0  0  0  0  0  0  0  0  0  0
   34.5260   29.5080   33.9800 C   0  0  0  0  0  0  0  0  0  0  0  0
   35.1660   28.8700   34.6440 H   0  0  0  0  0  0  0  0  0  0  0  0
   33.4910   29.1180   34.1610 H   0  0  0  0  0  0  0  0  0  0  0  0
   34.5860   31.1940   34.5120 S   0  0  0  0  0  0  0  0  0  0  0  0
   35.8540   31.4360   35.7660 C   0  0  0  0  0  0  0  0  0  0  0  0
   36.6370   30.2940   35.8260 F   0  0  0  0  0  0  0  0  0  0  0  0
   35.2440   31.6500   36.9900 F   0  0  0  0  0  0  0  0  0  0  0  0
   36.6240   32.5460   35.5060 F   0  0  0  0  0  0  0  0  0  0  0  0
  1  2  1  0  0  0  0
  1 15  1  0  0  0  0
  2  7  1  0  0  0  0
  3  4  1  0  0  0  0
  3  2  2  0  0  0  0
  4  5  2  0  0  0  0
  5  6  1  0  0  0  0
  6 10  1  0  0  0  0
  7  6  2  0  0  0  0
  8 13  1  0  0  0  0
  9  8  2  0  0  0  0
 10  8  1  0  0  0  0
 10 14  1  0  0  0  0
 11  3  1  0  0  0  0
 12  4  1  0  0  0  0
 15 18  1  0  0  0  0
 15 17  1  0  0  0  0
 16 15  1  0  0  0  0
 18 21  1  0  0  0  0
 19 18  1  0  0  0  0
 20 18  1  0  0  0  0
 21 23  1  0  0  0  0
 21 24  1  0  0  0  0
 21 22  1  0  0  0  0
 24 25  1  0  0  0  0
 25 26  1  0  0  0  0
 25 27  1  0  0  0  0
 28 25  1  0  0  0  0
M  END
>  <minimizedAffinity>
-4.09187412

$$$$
