
 OpenBabel03272509423D

 33 34  0  0  1  0  0  0  0  0999 V2000
   37.0820   30.9380   49.0600 C   0  0  0  0  0  0  0  0  0  0  0  0
   36.8060   31.8690   50.0590 C   0  0  0  0  0  0  0  0  0  0  0  0
   37.3990   33.1250   50.0720 C   0  0  0  0  0  0  0  0  0  0  0  0
   38.2980   33.4730   49.0590 C   0  0  0  0  0  0  0  0  0  0  0  0
   38.5580   32.5460   48.0840 C   0  0  0  0  0  0  0  0  0  0  0  0
   37.9470   31.3010   48.1070 C   0  0  0  0  0  0  0  0  0  0  0  0
   36.1020   31.5950   50.8480 H   0  0  0  0  0  0  0  0  0  0  0  0
   37.1280   33.7730   50.8770 H   0  0  0  0  0  0  0  0  0  0  0  0
   38.7200   34.4660   49.1320 H   0  0  0  0  0  0  0  0  0  0  0  0
   39.2750   32.9580   47.3670 H   0  0  0  0  0  0  0  0  0  0  0  0
   36.4880   29.6190   49.0630 C   0  0  2  0  0  0  0  0  0  0  0  0
   36.9900   29.0650   48.1780 H   0  0  0  0  0  0  0  0  0  0  0  0
   33.6240   29.9620   46.8550 C   0  0  0  0  0  0  0  0  0  0  0  0
   32.8810   28.8250   47.0810 C   0  0  0  0  0  0  0  0  0  0  0  0
   33.3260   27.9410   48.0520 C   0  0  0  0  0  0  0  0  0  0  0  0
   34.4810   28.2260   48.7470 N   0  0  0  0  0  0  0  0  0  0  0  0
   35.1460   29.3310   48.4800 C   0  0  0  0  0  0  0  0  0  0  0  0
   34.7260   30.2080   47.5360 N   0  0  0  0  0  0  0  0  0  0  0  0
   33.2310   30.6170   46.0880 H   0  0  0  0  0  0  0  0  0  0  0  0
   31.9710   28.5140   46.5910 H   0  0  0  0  0  0  0  0  0  0  0  0
   32.8840   27.0020   48.3760 H   0  0  0  0  0  0  0  0  0  0  0  0
   36.9590   28.8630   49.9910 O   0  0  0  0  0  0  0  0  0  0  0  0
   36.7170   28.9780   50.9370 H   0  0  0  0  0  0  0  0  0  0  0  0
   38.3450   30.4110   47.0410 C   0  0  0  0  0  3  0  0  0  0  0  0
   38.6920   30.8240   45.8160 C   0  0  0  0  0  3  0  0  0  0  0  0
   39.1610   30.0110   44.6690 C   0  0  0  0  0  0  0  0  0  0  0  0
   38.3000   29.6670   44.0420 H   0  0  0  0  0  0  0  0  0  0  0  0
   39.6160   29.0800   45.0830 H   0  0  0  0  0  0  0  0  0  0  0  0
   40.3860   30.9300   43.7330 S   0  0  0  0  0  0  0  0  0  0  0  0
   40.7480   30.0730   42.1630 C   0  0  0  0  0  0  0  0  0  0  0  0
   39.6880   29.2050   41.9060 F   0  0  0  0  0  0  0  0  0  0  0  0
   41.9040   29.2930   42.3070 F   0  0  0  0  0  0  0  0  0  0  0  0
   40.8980   30.9520   41.1270 F   0  0  0  0  0  0  0  0  0  0  0  0
  1 11  1  0  0  0  0
  1  2  1  0  0  0  0
  2  3  2  0  0  0  0
  2  7  1  0  0  0  0
  3  8  1  0  0  0  0
  4  9  1  0  0  0  0
  4  3  1  0  0  0  0
  5  6  1  0  0  0  0
  5  4  2  0  0  0  0
  6  1  2  0  0  0  0
 10  5  1  0  0  0  0
 11 12  1  6  0  0  0
 11 22  1  0  0  0  0
 13 14  2  0  0  0  0
 13 18  1  0  0  0  0
 14 15  1  0  0  0  0
 15 21  1  0  0  0  0
 15 16  2  0  0  0  0
 17 16  1  0  0  0  0
 17 11  1  0  0  0  0
 18 17  2  0  0  0  0
 19 13  1  0  0  0  0
 20 14  1  0  0  0  0
 22 23  1  0  0  0  0
 24  6  1  0  0  0  0
 25 24  2  0  0  0  0
 26 28  1  0  0  0  0
 26 25  1  0  0  0  0
 27 26  1  0  0  0  0
 29 26  1  0  0  0  0
 30 32  1  0  0  0  0
 30 29  1  0  0  0  0
 31 30  1  0  0  0  0
 33 30  1  0  0  0  0
M  END
>  <minimizedAffinity>
-5.75501394

>  <minimizedRMSD>
0.583977282

$$$$
