
 OpenBabel03272507593D

 34 36  0  0  0  0  0  0  0  0999 V2000
   36.9060   31.2710   48.5720 C   0  0  0  0  0  0  0  0  0  0  0  0
   37.1350   32.1590   49.6130 C   0  0  0  0  0  0  0  0  0  0  0  0
   38.0660   33.1880   49.4230 C   0  0  0  0  0  0  0  0  0  0  0  0
   38.7400   33.3140   48.2170 C   0  0  0  0  0  0  0  0  0  0  0  0
   38.4810   32.4090   47.2040 C   0  0  0  0  0  0  0  0  0  0  0  0
   37.5880   31.4410   47.4200 N   0  0  0  0  0  0  0  0  0  0  0  0
   36.7370   32.2740   50.6080 H   0  0  0  0  0  0  0  0  0  0  0  0
   38.3560   33.9500   50.1240 H   0  0  0  0  0  0  0  0  0  0  0  0
   39.4670   34.0660   47.9790 H   0  0  0  0  0  0  0  0  0  0  0  0
   35.1890   28.4250   50.3120 C   0  0  0  0  0  0  0  0  0  0  0  0
   36.1680   29.4070   49.9910 C   0  0  0  0  0  0  0  0  0  0  0  0
   35.9310   30.2690   48.9180 C   0  0  0  0  0  0  0  0  0  0  0  0
   34.7600   30.1170   48.2350 N   0  0  0  0  0  0  0  0  0  0  0  0
   33.8450   29.1640   48.5730 C   0  0  0  0  0  0  0  0  0  0  0  0
   34.0530   28.3320   49.5920 N   0  0  0  0  0  0  0  0  0  0  0  0
   32.7150   29.2090   47.7140 N   0  0  0  0  0  0  0  0  0  0  0  0
   35.3930   27.7770   51.1360 H   0  0  0  0  0  0  0  0  0  0  0  0
   32.6110   28.6560   46.8330 H   0  0  0  0  0  0  0  0  0  0  0  0
   32.0060   29.8840   48.1050 H   0  0  0  0  0  0  0  0  0  0  0  0
   37.3970   29.4650   50.8140 C   0  0  0  0  0  0  0  0  0  0  0  0
   38.5140   29.8030   50.0400 F   0  0  0  0  0  0  0  0  0  0  0  0
   37.2610   30.3980   51.7780 F   0  0  0  0  0  0  0  0  0  0  0  0
   37.7040   28.2520   51.4270 F   0  0  0  0  0  0  0  0  0  0  0  0
   39.1360   32.4720   45.9060 C   0  0  0  0  0  0  0  0  0  0  0  0
   40.4790   32.3020   45.6560 C   0  0  0  0  0  0  0  0  0  0  0  0
   40.7210   32.4320   44.2960 C   0  0  0  0  0  0  0  0  0  0  0  0
   39.4940   32.6800   43.7610 N   0  0  0  0  0  0  0  0  0  0  0  0
   38.5770   32.7010   44.7110 N   0  0  0  0  0  0  0  0  0  0  0  0
   41.2880   32.0950   46.3690 H   0  0  0  0  0  0  0  0  0  0  0  0
   41.6250   32.3670   43.7400 H   0  0  0  0  0  0  0  0  0  0  0  0
   39.2540   32.8890   42.3430 C   0  0  0  0  0  0  0  0  0  0  0  0
   39.4980   34.2130   41.9720 F   0  0  0  0  0  0  0  0  0  0  0  0
   37.9420   32.6240   42.0060 F   0  0  0  0  0  0  0  0  0  0  0  0
   40.0660   32.1010   41.5480 F   0  0  0  0  0  0  0  0  0  0  0  0
  1 12  1  0  0  0  0
  1  2  1  0  0  0  0
  2  7  1  0  0  0  0
  3  2  2  0  0  0  0
  3  8  1  0  0  0  0
  4  3  1  0  0  0  0
  5  6  1  0  0  0  0
  5  4  2  0  0  0  0
  6  1  2  0  0  0  0
  9  4  1  0  0  0  0
 10 17  1  0  0  0  0
 11 10  1  0  0  0  0
 11 20  1  0  0  0  0
 12 11  2  0  0  0  0
 13 14  2  0  0  0  0
 13 12  1  0  0  0  0
 14 15  1  0  0  0  0
 15 10  2  0  0  0  0
 16 19  1  0  0  0  0
 16 14  1  0  0  0  0
 18 16  1  0  0  0  0
 20 23  1  0  0  0  0
 20 22  1  0  0  0  0
 21 20  1  0  0  0  0
 24  5  1  0  0  0  0
 25 24  1  0  0  0  0
 25 29  1  0  0  0  0
 26 25  2  0  0  0  0
 27 26  1  0  0  0  0
 27 28  1  0  0  0  0
 28 24  2  0  0  0  0
 30 26  1  0  0  0  0
 31 27  1  0  0  0  0
 32 31  1  0  0  0  0
 33 31  1  0  0  0  0
 34 31  1  0  0  0  0
M  END
>  <minimizedAffinity>
-7.17944765

>  <minimizedRMSD>
1.3573463

$$$$
