
 OpenBabel03272502263D

 35 37  0  0  0  0  0  0  0  0999 V2000
   37.6900   30.2700   51.0100 C   0  0  0  0  0  0  0  0  0  0  0  0
   38.1610   30.8380   49.8070 C   0  0  0  0  0  0  0  0  0  0  0  0
   37.4370   30.5760   48.6550 C   0  0  0  0  0  0  0  0  0  0  0  0
   36.3520   29.8100   48.7680 N   0  0  0  0  0  0  0  0  0  0  0  0
   35.9120   29.2740   49.9190 C   0  0  0  0  0  0  0  0  0  0  0  0
   36.5870   29.5070   51.0450 N   0  0  0  0  0  0  0  0  0  0  0  0
   38.2520   30.4720   51.9170 H   0  0  0  0  0  0  0  0  0  0  0  0
   39.0460   31.4570   49.7460 H   0  0  0  0  0  0  0  0  0  0  0  0
   37.8160   31.1000   47.3660 C   0  0  0  0  0  0  0  0  0  0  0  0
   37.0910   30.7670   46.2310 C   0  0  0  0  0  0  0  0  0  0  0  0
   37.4020   31.2360   44.9760 C   0  0  0  0  0  0  0  0  0  0  0  0
   38.4630   32.0600   44.8250 N   0  0  0  0  0  0  0  0  0  0  0  0
   39.1520   32.3710   45.9350 C   0  0  0  0  0  0  0  0  0  0  0  0
   38.8680   31.9260   47.1750 N   0  0  0  0  0  0  0  0  0  0  0  0
   36.2400   30.1010   46.3760 H   0  0  0  0  0  0  0  0  0  0  0  0
   36.8000   30.9440   44.1140 H   0  0  0  0  0  0  0  0  0  0  0  0
   40.3260   33.2770   45.8090 C   0  0  0  0  0  0  0  0  0  0  0  0
   40.4160   34.0160   47.0100 F   0  0  0  0  0  0  0  0  0  0  0  0
   41.4690   32.5820   45.5580 F   0  0  0  0  0  0  0  0  0  0  0  0
   40.1250   34.2390   44.8350 F   0  0  0  0  0  0  0  0  0  0  0  0
   34.7580   28.4970   49.8480 O   0  0  0  0  0  0  0  0  0  0  0  0
   33.5540   26.7700   46.8380 N   0  0  0  0  0  0  0  0  0  0  0  0
   34.1060   26.8940   48.0570 C   0  0  0  0  0  0  0  0  0  0  0  0
   34.2280   28.1560   48.6250 C   0  0  0  0  0  0  0  0  0  0  0  0
   33.7770   29.2570   47.9110 C   0  0  0  0  0  0  0  0  0  0  0  0
   33.7940   30.4740   48.2400 O   0  0  0  0  0  0  0  0  0  0  0  0
   33.2280   29.0600   46.6800 N   0  0  0  0  0  0  0  0  0  0  0  0
   33.1200   27.8310   46.1540 C   0  0  0  0  0  0  0  0  0  0  0  0
   32.6160   27.6140   45.0120 O   0  0  0  0  0  0  0  0  0  0  0  0
   33.5050   25.7850   46.4960 H   0  0  0  0  0  0  0  0  0  0  0  0
   34.4780   26.0940   48.6740 H   0  0  0  0  0  0  0  0  0  0  0  0
   32.7240   30.1420   45.8510 C   0  0  0  0  0  0  0  0  0  0  0  0
   33.6230   30.3170   44.7940 F   0  0  0  0  0  0  0  0  0  0  0  0
   32.5670   31.3220   46.5150 F   0  0  0  0  0  0  0  0  0  0  0  0
   31.5360   29.7060   45.2610 F   0  0  0  0  0  0  0  0  0  0  0  0
  1  6  1  0  0  0  0
  1  7  1  0  0  0  0
  2  1  2  0  0  0  0
  3  4  2  0  0  0  0
  3  2  1  0  0  0  0
  4  5  1  0  0  0  0
  5  6  2  0  0  0  0
  8  2  1  0  0  0  0
  9  3  1  0  0  0  0
 10 15  1  0  0  0  0
 10  9  2  0  0  0  0
 11 10  1  0  0  0  0
 12 11  2  0  0  0  0
 12 13  1  0  0  0  0
 13 14  2  0  0  0  0
 14  9  1  0  0  0  0
 16 11  1  0  0  0  0
 17 13  1  0  0  0  0
 17 18  1  0  0  0  0
 19 17  1  0  0  0  0
 20 17  1  0  0  0  0
 21  5  1  0  0  0  0
 22 23  1  0  0  0  0
 23 24  2  0  0  0  0
 23 31  1  0  0  0  0
 24 21  1  0  0  0  0
 25 26  2  0  0  0  0
 25 24  1  0  0  0  0
 27 25  1  0  0  0  0
 28 27  1  0  0  0  0
 28 22  1  0  0  0  0
 29 28  2  0  0  0  0
 30 22  1  0  0  0  0
 32 34  1  0  0  0  0
 32 27  1  0  0  0  0
 33 32  1  0  0  0  0
 35 32  1  0  0  0  0
M  END
>  <minimizedAffinity>
-6.67735481

>  <minimizedRMSD>
0.869129658

$$$$
