
 OpenBabel03272509263D

 20 20  0  0  0  0  0  0  0  0999 V2000
   37.6130   30.6560   47.7330 C   0  0  0  0  0  0  0  0  0  0  0  0
   36.8390   31.0830   47.1010 H   0  0  0  0  0  0  0  0  0  0  0  0
   38.0910   29.7710   47.2390 H   0  0  0  0  0  0  0  0  0  0  0  0
   37.0490   29.4210   51.2700 C   0  0  0  0  0  0  0  0  0  0  0  0
   37.7520   29.8520   50.1590 C   0  0  0  0  0  0  0  0  0  0  0  0
   37.0300   30.1810   49.0040 C   0  0  0  0  0  0  0  0  0  0  0  0
   35.6620   30.0500   49.0780 N   0  0  0  0  0  0  0  0  0  0  0  0
   35.0250   29.6340   50.1510 C   0  0  0  0  0  0  0  0  0  0  0  0
   35.7190   29.3100   51.2780 N   0  0  0  0  0  0  0  0  0  0  0  0
   37.6750   29.1700   52.1270 H   0  0  0  0  0  0  0  0  0  0  0  0
   38.8260   29.9600   50.1410 H   0  0  0  0  0  0  0  0  0  0  0  0
   33.9580   29.5330   50.1840 H   0  0  0  0  0  0  0  0  0  0  0  0
   38.7440   31.6220   48.0380 C   0  0  0  0  0  0  0  0  0  0  0  0
   39.6160   31.1450   48.4180 H   0  0  0  0  0  0  0  0  0  0  0  0
   39.0190   31.9760   46.9830 H   0  0  0  0  0  0  0  0  0  0  0  0
   38.1550   33.0720   48.8840 S   0  0  0  0  0  0  0  0  0  0  0  0
   39.5460   34.2330   49.1310 C   0  0  0  0  0  0  0  0  0  0  0  0
   40.4340   34.1710   48.0740 F   0  0  0  0  0  0  0  0  0  0  0  0
   40.0870   34.0940   50.3620 F   0  0  0  0  0  0  0  0  0  0  0  0
   38.9730   35.5340   49.0310 F   0  0  0  0  0  0  0  0  0  0  0  0
  1 13  1  0  0  0  0
  1  6  1  0  0  0  0
  2  1  1  0  0  0  0
  3  1  1  0  0  0  0
  4  9  1  0  0  0  0
  4 10  1  0  0  0  0
  5  4  2  0  0  0  0
  6  7  2  0  0  0  0
  6  5  1  0  0  0  0
  7  8  1  0  0  0  0
  8 12  1  0  0  0  0
  8  9  2  0  0  0  0
 11  5  1  0  0  0  0
 13 14  1  0  0  0  0
 13 16  1  0  0  0  0
 15 13  1  0  0  0  0
 16 17  1  0  0  0  0
 17 19  1  0  0  0  0
 18 17  1  0  0  0  0
 20 17  1  0  0  0  0
M  END
>  <minimizedAffinity>
-4.16377354

>  <minimizedRMSD>
0.997182846

$$$$
