
 OpenBabel03262520543D

 21 22  0  0  1  0  0  0  0  0999 V2000
   40.2310   24.6530   34.9680 C   0  0  2  0  0  0  0  0  0  0  0  0
   40.1830   23.3250   34.3210 C   0  0  0  0  0  0  0  0  0  0  0  0
   40.0150   23.4710   35.8180 C   0  0  2  0  0  0  0  0  0  0  0  0
   41.2200   25.1770   34.9850 H   0  0  0  0  0  0  0  0  0  0  0  0
   39.3050   23.1260   33.6920 H   0  0  0  0  0  0  0  0  0  0  0  0
   41.1240   22.9400   33.9030 H   0  0  0  0  0  0  0  0  0  0  0  0
   40.8660   23.1520   36.4420 H   0  0  0  0  0  0  0  0  0  0  0  0
   37.1680   26.3820   33.7160 C   0  0  0  0  0  0  0  0  0  0  0  0
   37.0340   27.4150   34.6630 C   0  0  0  0  0  0  0  0  0  0  0  0
   38.0390   27.5720   35.6610 C   0  0  0  0  0  0  0  0  0  0  0  0
   39.0230   26.6300   35.7130 N   0  0  0  0  0  0  0  0  0  0  0  0
   39.1030   25.6320   34.8080 C   0  0  0  0  0  0  0  0  0  0  0  0
   38.1990   25.4940   33.8160 N   0  0  0  0  0  0  0  0  0  0  0  0
   36.5520   26.3760   32.8270 H   0  0  0  0  0  0  0  0  0  0  0  0
   36.2810   28.1600   34.5190 H   0  0  0  0  0  0  0  0  0  0  0  0
   38.0060   28.4180   36.3180 H   0  0  0  0  0  0  0  0  0  0  0  0
   38.3220   23.2520   36.4730 S   0  0  0  0  0  0  0  0  0  0  0  0
   38.2240   23.6490   38.2240 C   0  0  0  0  0  0  0  0  0  0  0  0
   38.0140   24.9970   38.4410 F   0  0  0  0  0  0  0  0  0  0  0  0
   37.3250   22.8570   38.9060 F   0  0  0  0  0  0  0  0  0  0  0  0
   39.4760   23.3650   38.7660 F   0  0  0  0  0  0  0  0  0  0  0  0
  1  4  1  1  0  0  0
  1  3  1  0  0  0  0
  2  1  1  0  0  0  0
  2  3  1  0  0  0  0
  3  7  1  1  0  0  0
  3 17  1  0  0  0  0
  5  2  1  0  0  0  0
  6  2  1  0  0  0  0
  8 13  2  0  0  0  0
  8  9  1  0  0  0  0
  9 10  2  0  0  0  0
 10 11  1  0  0  0  0
 10 16  1  0  0  0  0
 12  1  1  0  0  0  0
 12 11  2  0  0  0  0
 13 12  1  0  0  0  0
 14  8  1  0  0  0  0
 15  9  1  0  0  0  0
 17 18  1  0  0  0  0
 18 19  1  0  0  0  0
 18 21  1  0  0  0  0
 18 20  1  0  0  0  0
M  END
>  <minimizedAffinity>
-4.18001223

$$$$

 OpenBabel03262520543D

 21 22  0  0  1  0  0  0  0  0999 V2000
   40.1000   24.5340   34.8930 C   0  0  2  0  0  0  0  0  0  0  0  0
   39.9260   23.2410   34.1970 C   0  0  0  0  0  0  0  0  0  0  0  0
   39.8490   23.3330   35.7070 C   0  0  2  0  0  0  0  0  0  0  0  0
   41.1230   24.9890   34.8740 H   0  0  0  0  0  0  0  0  0  0  0  0
   39.0020   23.1290   33.6120 H   0  0  0  0  0  0  0  0  0  0  0  0
   40.8130   22.8130   33.7110 H   0  0  0  0  0  0  0  0  0  0  0  0
   40.7090   22.9310   36.2670 H   0  0  0  0  0  0  0  0  0  0  0  0
   38.0340   27.5490   35.6560 C   0  0  0  0  0  0  0  0  0  0  0  0
   37.1170   27.5250   34.5890 C   0  0  0  0  0  0  0  0  0  0  0  0
   37.1470   26.4310   33.6760 C   0  0  0  0  0  0  0  0  0  0  0  0
   38.1520   25.5210   33.8210 N   0  0  0  0  0  0  0  0  0  0  0  0
   39.0360   25.5920   34.8370 C   0  0  0  0  0  0  0  0  0  0  0  0
   38.9940   26.5830   35.7520 N   0  0  0  0  0  0  0  0  0  0  0  0
   37.8930   28.2340   36.4810 H   0  0  0  0  0  0  0  0  0  0  0  0
   36.3110   28.2280   34.5790 H   0  0  0  0  0  0  0  0  0  0  0  0
   36.3860   26.3460   32.9270 H   0  0  0  0  0  0  0  0  0  0  0  0
   38.1840   23.1990   36.4480 S   0  0  0  0  0  0  0  0  0  0  0  0
   38.1950   23.6080   38.1990 C   0  0  0  0  0  0  0  0  0  0  0  0
   38.0180   24.9600   38.4180 F   0  0  0  0  0  0  0  0  0  0  0  0
   37.3250   22.8340   38.9370 F   0  0  0  0  0  0  0  0  0  0  0  0
   39.4710   23.3070   38.6680 F   0  0  0  0  0  0  0  0  0  0  0  0
  1  4  1  1  0  0  0
  1  3  1  0  0  0  0
  2  1  1  0  0  0  0
  2  3  1  0  0  0  0
  3  7  1  1  0  0  0
  3 17  1  0  0  0  0
  5  2  1  0  0  0  0
  6  2  1  0  0  0  0
  8 13  1  0  0  0  0
  8 14  1  0  0  0  0
  9  8  2  0  0  0  0
 10 11  2  0  0  0  0
 10  9  1  0  0  0  0
 11 12  1  0  0  0  0
 12  1  1  0  0  0  0
 12 13  2  0  0  0  0
 15  9  1  0  0  0  0
 16 10  1  0  0  0  0
 17 18  1  0  0  0  0
 18 19  1  0  0  0  0
 18 21  1  0  0  0  0
 18 20  1  0  0  0  0
M  END
>  <minimizedAffinity>
-4.14024687

$$$$

 OpenBabel03262520543D

 21 22  0  0  1  0  0  0  0  0999 V2000
   38.5270   26.4850   34.7830 C   0  0  2  0  0  0  0  0  0  0  0  0
   38.4360   27.0450   36.1490 C   0  0  0  0  0  0  0  0  0  0  0  0
   37.7970   25.7160   35.8050 C   0  0  2  0  0  0  0  0  0  0  0  0
   37.9600   27.0150   33.9760 H   0  0  0  0  0  0  0  0  0  0  0  0
   39.3720   27.0650   36.7250 H   0  0  0  0  0  0  0  0  0  0  0  0
   37.8150   27.9420   36.2790 H   0  0  0  0  0  0  0  0  0  0  0  0
   36.6990   25.7060   35.7210 H   0  0  0  0  0  0  0  0  0  0  0  0
   41.0240   24.5550   32.7890 C   0  0  0  0  0  0  0  0  0  0  0  0
   42.2310   25.0520   33.3130 C   0  0  0  0  0  0  0  0  0  0  0  0
   42.1870   25.9660   34.4050 C   0  0  0  0  0  0  0  0  0  0  0  0
   40.9590   26.4020   34.8070 N   0  0  0  0  0  0  0  0  0  0  0  0
   39.8200   25.9290   34.2600 C   0  0  0  0  0  0  0  0  0  0  0  0
   39.8310   25.0180   33.2650 N   0  0  0  0  0  0  0  0  0  0  0  0
   41.0290   23.7030   32.1220 H   0  0  0  0  0  0  0  0  0  0  0  0
   43.1550   24.6120   33.0010 H   0  0  0  0  0  0  0  0  0  0  0  0
   43.0970   26.2650   34.8830 H   0  0  0  0  0  0  0  0  0  0  0  0
   38.6390   24.2200   36.4360 S   0  0  0  0  0  0  0  0  0  0  0  0
   38.2540   23.9150   38.1650 C   0  0  0  0  0  0  0  0  0  0  0  0
   37.9730   25.0820   38.8490 F   0  0  0  0  0  0  0  0  0  0  0  0
   37.2830   22.9520   38.3380 F   0  0  0  0  0  0  0  0  0  0  0  0
   39.4130   23.4020   38.7440 F   0  0  0  0  0  0  0  0  0  0  0  0
  1  4  1  6  0  0  0
  1  3  1  0  0  0  0
  1  2  1  0  0  0  0
  2  6  1  0  0  0  0
  2  5  1  0  0  0  0
  3  7  1  6  0  0  0
  3  2  1  0  0  0  0
  3 17  1  0  0  0  0
  8 13  2  0  0  0  0
  8  9  1  0  0  0  0
  9 10  2  0  0  0  0
 10 11  1  0  0  0  0
 10 16  1  0  0  0  0
 12  1  1  0  0  0  0
 12 11  2  0  0  0  0
 13 12  1  0  0  0  0
 14  8  1  0  0  0  0
 15  9  1  0  0  0  0
 17 18  1  0  0  0  0
 18 20  1  0  0  0  0
 18 21  1  0  0  0  0
 18 19  1  0  0  0  0
M  END
>  <minimizedAffinity>
-3.9955759

$$$$

 OpenBabel03262520543D

 21 22  0  0  1  0  0  0  0  0999 V2000
   38.1560   26.9370   34.6160 C   0  0  2  0  0  0  0  0  0  0  0  0
   39.3970   27.0110   35.4160 C   0  0  0  0  0  0  0  0  0  0  0  0
   38.1460   26.3630   35.9710 C   0  0  2  0  0  0  0  0  0  0  0  0
   37.6210   27.9000   34.4160 H   0  0  0  0  0  0  0  0  0  0  0  0
   40.2290   26.3800   35.0740 H   0  0  0  0  0  0  0  0  0  0  0  0
   39.7080   28.0060   35.7640 H   0  0  0  0  0  0  0  0  0  0  0  0
   37.5990   26.9310   36.7410 H   0  0  0  0  0  0  0  0  0  0  0  0
   36.7740   24.8410   31.8530 C   0  0  0  0  0  0  0  0  0  0  0  0
   37.9560   24.3730   31.2510 C   0  0  0  0  0  0  0  0  0  0  0  0
   39.2100   24.6950   31.8470 C   0  0  0  0  0  0  0  0  0  0  0  0
   39.1970   25.5470   32.9120 N   0  0  0  0  0  0  0  0  0  0  0  0
   38.0450   26.0040   33.4450 C   0  0  0  0  0  0  0  0  0  0  0  0
   36.8400   25.6670   32.9380 N   0  0  0  0  0  0  0  0  0  0  0  0
   35.8150   24.4340   31.5600 H   0  0  0  0  0  0  0  0  0  0  0  0
   37.8910   23.6520   30.4640 H   0  0  0  0  0  0  0  0  0  0  0  0
   40.1080   24.2560   31.4620 H   0  0  0  0  0  0  0  0  0  0  0  0
   38.1480   24.5370   36.0690 S   0  0  0  0  0  0  0  0  0  0  0  0
   38.1570   23.9580   37.7720 C   0  0  0  0  0  0  0  0  0  0  0  0
   38.0450   24.9970   38.6750 F   0  0  0  0  0  0  0  0  0  0  0  0
   37.2410   22.9540   38.0020 F   0  0  0  0  0  0  0  0  0  0  0  0
   39.4110   23.3930   37.9920 F   0  0  0  0  0  0  0  0  0  0  0  0
  1  4  1  6  0  0  0
  1  2  1  0  0  0  0
  1  3  1  0  0  0  0
  2  6  1  0  0  0  0
  2  3  1  0  0  0  0
  3 17  1  0  0  0  0
  3  7  1  1  0  0  0
  5  2  1  0  0  0  0
  8 13  1  0  0  0  0
  9 10  1  0  0  0  0
  9  8  2  0  0  0  0
 10 11  2  0  0  0  0
 11 12  1  0  0  0  0
 12  1  1  0  0  0  0
 13 12  2  0  0  0  0
 14  8  1  0  0  0  0
 15  9  1  0  0  0  0
 16 10  1  0  0  0  0
 17 18  1  0  0  0  0
 18 21  1  0  0  0  0
 18 20  1  0  0  0  0
 18 19  1  0  0  0  0
M  END
>  <minimizedAffinity>
-3.94305325

$$$$

 OpenBabel03262520543D

 21 22  0  0  1  0  0  0  0  0999 V2000
   38.9930   22.2030   35.0270 C   0  0  2  0  0  0  0  0  0  0  0  0
   38.3570   23.1640   34.1010 C   0  0  0  0  0  0  0  0  0  0  0  0
   37.8770   23.0210   35.5300 C   0  0  2  0  0  0  0  0  0  0  0  0
   38.8340   21.1140   34.8200 H   0  0  0  0  0  0  0  0  0  0  0  0
   38.9660   24.0340   33.8160 H   0  0  0  0  0  0  0  0  0  0  0  0
   37.7690   22.7440   33.2730 H   0  0  0  0  0  0  0  0  0  0  0  0
   36.9150   22.5040   35.6760 H   0  0  0  0  0  0  0  0  0  0  0  0
   42.1100   21.9540   37.0670 C   0  0  0  0  0  0  0  0  0  0  0  0
   42.9180   22.9250   36.4460 C   0  0  0  0  0  0  0  0  0  0  0  0
   42.3630   23.7220   35.4030 C   0  0  0  0  0  0  0  0  0  0  0  0
   41.1030   23.4140   34.9830 N   0  0  0  0  0  0  0  0  0  0  0  0
   40.3670   22.4530   35.5790 C   0  0  0  0  0  0  0  0  0  0  0  0
   40.8450   21.7240   36.6090 N   0  0  0  0  0  0  0  0  0  0  0  0
   42.4240   21.4970   37.9960 H   0  0  0  0  0  0  0  0  0  0  0  0
   43.8680   23.1630   36.8750 H   0  0  0  0  0  0  0  0  0  0  0  0
   42.9310   24.5350   34.9990 H   0  0  0  0  0  0  0  0  0  0  0  0
   38.3260   24.3710   36.6790 S   0  0  0  0  0  0  0  0  0  0  0  0
   38.2520   23.8420   38.3960 C   0  0  0  0  0  0  0  0  0  0  0  0
   37.2810   22.8800   38.6020 F   0  0  0  0  0  0  0  0  0  0  0  0
   39.4800   23.4700   38.8980 F   0  0  0  0  0  0  0  0  0  0  0  0
   37.8530   24.9520   39.1360 F   0  0  0  0  0  0  0  0  0  0  0  0
  1  4  1  6  0  0  0
  1  3  1  0  0  0  0
  1 12  1  0  0  0  0
  2  1  1  0  0  0  0
  2  3  1  0  0  0  0
  3  7  1  1  0  0  0
  3 17  1  0  0  0  0
  5  2  1  0  0  0  0
  6  2  1  0  0  0  0
  8 14  1  0  0  0  0
  9 15  1  0  0  0  0
  9  8  2  0  0  0  0
 10  9  1  0  0  0  0
 11 10  2  0  0  0  0
 11 12  1  0  0  0  0
 12 13  2  0  0  0  0
 13  8  1  0  0  0  0
 16 10  1  0  0  0  0
 17 18  1  0  0  0  0
 18 19  1  0  0  0  0
 18 20  1  0  0  0  0
 18 21  1  0  0  0  0
M  END
>  <minimizedAffinity>
-3.93884492

$$$$

 OpenBabel03262520543D

 21 22  0  0  1  0  0  0  0  0999 V2000
   39.0670   22.9020   34.7230 C   0  0  2  0  0  0  0  0  0  0  0  0
   37.7900   22.6820   35.4360 C   0  0  0  0  0  0  0  0  0  0  0  0
   39.0880   22.1030   35.9590 C   0  0  2  0  0  0  0  0  0  0  0  0
   39.1910   22.3960   33.7320 H   0  0  0  0  0  0  0  0  0  0  0  0
   37.3530   23.5640   35.9240 H   0  0  0  0  0  0  0  0  0  0  0  0
   37.0510   22.0330   34.9460 H   0  0  0  0  0  0  0  0  0  0  0  0
   39.2240   21.0160   35.8390 H   0  0  0  0  0  0  0  0  0  0  0  0
   41.6280   25.6060   34.4620 C   0  0  0  0  0  0  0  0  0  0  0  0
   40.8370   26.7500   34.6740 C   0  0  0  0  0  0  0  0  0  0  0  0
   39.4590   26.5870   34.9990 C   0  0  0  0  0  0  0  0  0  0  0  0
   38.9540   25.3200   34.9700 N   0  0  0  0  0  0  0  0  0  0  0  0
   39.7360   24.2470   34.7310 C   0  0  0  0  0  0  0  0  0  0  0  0
   41.0560   24.3670   34.4790 N   0  0  0  0  0  0  0  0  0  0  0  0
   42.7070   25.6860   34.4370 H   0  0  0  0  0  0  0  0  0  0  0  0
   41.3120   27.7050   34.7550 H   0  0  0  0  0  0  0  0  0  0  0  0
   38.8730   27.4420   35.2690 H   0  0  0  0  0  0  0  0  0  0  0  0
   39.8100   22.9180   37.4280 S   0  0  0  0  0  0  0  0  0  0  0  0
   38.5460   23.6460   38.4790 C   0  0  0  0  0  0  0  0  0  0  0  0
   38.0870   24.8510   37.9820 F   0  0  0  0  0  0  0  0  0  0  0  0
   37.5220   22.7720   38.7750 F   0  0  0  0  0  0  0  0  0  0  0  0
   39.1620   23.9430   39.6930 F   0  0  0  0  0  0  0  0  0  0  0  0
  1  4  1  6  0  0  0
  1 12  1  0  0  0  0
  1  2  1  0  0  0  0
  1  3  1  0  0  0  0
  2  5  1  0  0  0  0
  2  3  1  0  0  0  0
  3  7  1  6  0  0  0
  3 17  1  0  0  0  0
  6  2  1  0  0  0  0
  8 13  2  0  0  0  0
  8  9  1  0  0  0  0
  9 15  1  0  0  0  0
  9 10  2  0  0  0  0
 10 16  1  0  0  0  0
 11 10  1  0  0  0  0
 12 11  2  0  0  0  0
 13 12  1  0  0  0  0
 14  8  1  0  0  0  0
 17 18  1  0  0  0  0
 18 20  1  0  0  0  0
 18 21  1  0  0  0  0
 19 18  1  0  0  0  0
M  END
>  <minimizedAffinity>
-3.93775654

$$$$

 OpenBabel03262520543D

 21 22  0  0  1  0  0  0  0  0999 V2000
   38.5680   23.4420   34.4120 C   0  0  2  0  0  0  0  0  0  0  0  0
   39.7250   23.5900   33.5050 C   0  0  0  0  0  0  0  0  0  0  0  0
   38.8150   24.7620   33.8080 C   0  0  2  0  0  0  0  0  0  0  0  0
   37.7130   22.8160   34.0500 H   0  0  0  0  0  0  0  0  0  0  0  0
   40.7170   23.5370   33.9750 H   0  0  0  0  0  0  0  0  0  0  0  0
   39.6670   23.0790   32.5340 H   0  0  0  0  0  0  0  0  0  0  0  0
   38.1270   25.0700   33.0040 H   0  0  0  0  0  0  0  0  0  0  0  0
   40.1140   22.8520   37.7590 C   0  0  0  0  0  0  0  0  0  0  0  0
   39.0280   23.1280   38.6110 C   0  0  0  0  0  0  0  0  0  0  0  0
   37.7560   23.4180   38.0380 C   0  0  0  0  0  0  0  0  0  0  0  0
   37.6910   23.5280   36.6800 N   0  0  0  0  0  0  0  0  0  0  0  0
   38.7600   23.2880   35.8930 C   0  0  0  0  0  0  0  0  0  0  0  0
   39.9620   22.9520   36.4060 N   0  0  0  0  0  0  0  0  0  0  0  0
   41.0200   22.4140   38.1550 H   0  0  0  0  0  0  0  0  0  0  0  0
   39.1310   22.9510   39.6600 H   0  0  0  0  0  0  0  0  0  0  0  0
   36.9000   23.5220   38.6730 H   0  0  0  0  0  0  0  0  0  0  0  0
   39.4820   26.0440   34.9270 S   0  0  0  0  0  0  0  0  0  0  0  0
   38.1760   26.9100   35.8090 C   0  0  0  0  0  0  0  0  0  0  0  0
   38.2250   26.6760   37.1700 F   0  0  0  0  0  0  0  0  0  0  0  0
   38.1190   28.2520   35.5030 F   0  0  0  0  0  0  0  0  0  0  0  0
   36.9720   26.3630   35.3710 F   0  0  0  0  0  0  0  0  0  0  0  0
  1  4  1  6  0  0  0
  1 12  1  0  0  0  0
  2  3  1  0  0  0  0
  2  5  1  0  0  0  0
  2  1  1  0  0  0  0
  3  7  1  6  0  0  0
  3  1  1  0  0  0  0
  3 17  1  0  0  0  0
  6  2  1  0  0  0  0
  8 14  1  0  0  0  0
  8  9  1  0  0  0  0
  9 15  1  0  0  0  0
 10  9  2  0  0  0  0
 10 16  1  0  0  0  0
 11 10  1  0  0  0  0
 12 13  1  0  0  0  0
 12 11  2  0  0  0  0
 13  8  2  0  0  0  0
 17 18  1  0  0  0  0
 18 19  1  0  0  0  0
 20 18  1  0  0  0  0
 21 18  1  0  0  0  0
M  END
>  <minimizedAffinity>
-3.92044067

$$$$

 OpenBabel03262520543D

 21 22  0  0  1  0  0  0  0  0999 V2000
   38.0140   26.6130   34.7360 C   0  0  2  0  0  0  0  0  0  0  0  0
   39.0680   27.0600   35.6710 C   0  0  0  0  0  0  0  0  0  0  0  0
   37.9610   26.1340   36.1270 C   0  0  2  0  0  0  0  0  0  0  0  0
   37.2820   27.3850   34.3860 H   0  0  0  0  0  0  0  0  0  0  0  0
   40.0740   26.6570   35.4910 H   0  0  0  0  0  0  0  0  0  0  0  0
   39.0600   28.1200   35.9620 H   0  0  0  0  0  0  0  0  0  0  0  0
   37.1830   26.5770   36.7700 H   0  0  0  0  0  0  0  0  0  0  0  0
   39.8250   24.4210   32.3170 C   0  0  0  0  0  0  0  0  0  0  0  0
   38.7530   23.7240   31.7290 C   0  0  0  0  0  0  0  0  0  0  0  0
   37.4200   24.0730   32.0900 C   0  0  0  0  0  0  0  0  0  0  0  0
   37.2610   24.9940   33.0840 N   0  0  0  0  0  0  0  0  0  0  0  0
   38.3130   25.6200   33.6500 C   0  0  0  0  0  0  0  0  0  0  0  0
   39.5840   25.3530   33.2850 N   0  0  0  0  0  0  0  0  0  0  0  0
   40.8220   24.3370   31.9040 H   0  0  0  0  0  0  0  0  0  0  0  0
   38.9460   23.0690   30.9050 H   0  0  0  0  0  0  0  0  0  0  0  0
   36.5960   23.6270   31.5710 H   0  0  0  0  0  0  0  0  0  0  0  0
   38.4190   24.3840   36.3910 S   0  0  0  0  0  0  0  0  0  0  0  0
   38.3150   23.9180   38.1240 C   0  0  0  0  0  0  0  0  0  0  0  0
   39.4690   23.2990   38.5670 F   0  0  0  0  0  0  0  0  0  0  0  0
   37.9270   24.9600   38.9390 F   0  0  0  0  0  0  0  0  0  0  0  0
   37.3080   22.9600   38.2180 F   0  0  0  0  0  0  0  0  0  0  0  0
  1  4  1  6  0  0  0
  1  2  1  0  0  0  0
  1  3  1  0  0  0  0
  2  6  1  0  0  0  0
  2  3  1  0  0  0  0
  3 17  1  0  0  0  0
  3  7  1  1  0  0  0
  5  2  1  0  0  0  0
  8 13  1  0  0  0  0
  9 10  1  0  0  0  0
  9  8  2  0  0  0  0
 10 11  2  0  0  0  0
 11 12  1  0  0  0  0
 12  1  1  0  0  0  0
 13 12  2  0  0  0  0
 14  8  1  0  0  0  0
 15  9  1  0  0  0  0
 16 10  1  0  0  0  0
 17 18  1  0  0  0  0
 18 21  1  0  0  0  0
 18 19  1  0  0  0  0
 18 20  1  0  0  0  0
M  END
>  <minimizedAffinity>
-3.91047215

$$$$

 OpenBabel03262520543D

 21 22  0  0  1  0  0  0  0  0999 V2000
   39.9210   23.2130   34.5070 C   0  0  2  0  0  0  0  0  0  0  0  0
   40.3420   22.3560   35.6360 C   0  0  0  0  0  0  0  0  0  0  0  0
   39.8270   23.7610   35.8690 C   0  0  2  0  0  0  0  0  0  0  0  0
   40.7240   23.5760   33.8160 H   0  0  0  0  0  0  0  0  0  0  0  0
   39.6940   21.4970   35.8570 H   0  0  0  0  0  0  0  0  0  0  0  0
   41.4150   22.1370   35.7240 H   0  0  0  0  0  0  0  0  0  0  0  0
   40.5770   24.5190   36.1470 H   0  0  0  0  0  0  0  0  0  0  0  0
   36.9460   23.5890   32.2830 C   0  0  0  0  0  0  0  0  0  0  0  0
   36.3840   22.3020   32.3630 C   0  0  0  0  0  0  0  0  0  0  0  0
   36.9650   21.3470   33.2470 C   0  0  0  0  0  0  0  0  0  0  0  0
   38.1170   21.7040   33.8840 N   0  0  0  0  0  0  0  0  0  0  0  0
   38.6490   22.9370   33.7590 C   0  0  0  0  0  0  0  0  0  0  0  0
   38.0860   23.8810   32.9750 N   0  0  0  0  0  0  0  0  0  0  0  0
   36.4040   24.3920   31.8010 H   0  0  0  0  0  0  0  0  0  0  0  0
   35.4400   22.1150   31.8950 H   0  0  0  0  0  0  0  0  0  0  0  0
   36.4830   20.4030   33.3990 H   0  0  0  0  0  0  0  0  0  0  0  0
   38.1400   23.9070   36.5610 S   0  0  0  0  0  0  0  0  0  0  0  0
   38.1360   23.7660   38.3530 C   0  0  0  0  0  0  0  0  0  0  0  0
   37.9430   24.9870   38.9700 F   0  0  0  0  0  0  0  0  0  0  0  0
   37.2720   22.7970   38.8140 F   0  0  0  0  0  0  0  0  0  0  0  0
   39.4140   23.3500   38.7210 F   0  0  0  0  0  0  0  0  0  0  0  0
  1  4  1  6  0  0  0
  1  2  1  0  0  0  0
  1  3  1  0  0  0  0
  2  6  1  0  0  0  0
  2  5  1  0  0  0  0
  2  3  1  0  0  0  0
  3  7  1  1  0  0  0
  3 17  1  0  0  0  0
  8  9  2  0  0  0  0
  8 13  1  0  0  0  0
  9 10  1  0  0  0  0
 10 16  1  0  0  0  0
 10 11  2  0  0  0  0
 12 11  1  0  0  0  0
 12  1  1  0  0  0  0
 13 12  2  0  0  0  0
 14  8  1  0  0  0  0
 15  9  1  0  0  0  0
 17 18  1  0  0  0  0
 18 21  1  0  0  0  0
 18 20  1  0  0  0  0
 18 19  1  0  0  0  0
M  END
>  <minimizedAffinity>
-3.90535665

$$$$
