
 OpenBabel03272509263D

 20 20  0  0  0  0  0  0  0  0999 V2000
   38.2120   26.3110   36.0260 C   0  0  0  0  0  0  0  0  0  0  0  0
   37.5380   26.3840   36.8760 H   0  0  0  0  0  0  0  0  0  0  0  0
   39.1050   26.9730   36.1630 H   0  0  0  0  0  0  0  0  0  0  0  0
   36.2770   28.2370   33.3990 C   0  0  0  0  0  0  0  0  0  0  0  0
   36.8690   27.9780   34.6230 C   0  0  0  0  0  0  0  0  0  0  0  0
   37.5290   26.7530   34.7940 C   0  0  0  0  0  0  0  0  0  0  0  0
   37.5340   25.9030   33.7110 N   0  0  0  0  0  0  0  0  0  0  0  0
   36.9580   26.1810   32.5620 C   0  0  0  0  0  0  0  0  0  0  0  0
   36.3130   27.3690   32.3860 N   0  0  0  0  0  0  0  0  0  0  0  0
   35.7720   29.2020   33.3420 H   0  0  0  0  0  0  0  0  0  0  0  0
   36.8610   28.6760   35.4460 H   0  0  0  0  0  0  0  0  0  0  0  0
   36.9690   25.5010   31.7330 H   0  0  0  0  0  0  0  0  0  0  0  0
   38.7610   24.9110   35.8110 C   0  0  0  0  0  0  0  0  0  0  0  0
   39.0240   24.7120   34.8000 H   0  0  0  0  0  0  0  0  0  0  0  0
   39.7520   24.9750   36.3830 H   0  0  0  0  0  0  0  0  0  0  0  0
   37.7960   23.6900   36.6750 S   0  0  0  0  0  0  0  0  0  0  0  0
   38.2770   23.6780   38.4380 C   0  0  0  0  0  0  0  0  0  0  0  0
   37.9750   24.8840   39.0410 F   0  0  0  0  0  0  0  0  0  0  0  0
   39.5490   23.2440   38.5960 F   0  0  0  0  0  0  0  0  0  0  0  0
   37.3990   22.7450   39.0630 F   0  0  0  0  0  0  0  0  0  0  0  0
  1  3  1  0  0  0  0
  1  2  1  0  0  0  0
  4  5  1  0  0  0  0
  5  6  2  0  0  0  0
  5 11  1  0  0  0  0
  6  1  1  0  0  0  0
  7  6  1  0  0  0  0
  8  7  2  0  0  0  0
  9  8  1  0  0  0  0
  9  4  2  0  0  0  0
 10  4  1  0  0  0  0
 12  8  1  0  0  0  0
 13  1  1  0  0  0  0
 13 15  1  0  0  0  0
 13 16  1  0  0  0  0
 14 13  1  0  0  0  0
 16 17  1  0  0  0  0
 17 19  1  0  0  0  0
 17 18  1  0  0  0  0
 17 20  1  0  0  0  0
M  END
>  <minimizedAffinity>
-4.06306696

$$$$

 OpenBabel03272509263D

 20 20  0  0  0  0  0  0  0  0999 V2000
   39.1900   26.6360   35.3610 C   0  0  0  0  0  0  0  0  0  0  0  0
   39.8630   27.4150   35.7090 H   0  0  0  0  0  0  0  0  0  0  0  0
   39.7590   25.7240   35.0460 H   0  0  0  0  0  0  0  0  0  0  0  0
   36.5450   27.9570   32.9910 C   0  0  0  0  0  0  0  0  0  0  0  0
   37.1060   27.5520   34.1890 C   0  0  0  0  0  0  0  0  0  0  0  0
   38.4340   27.1040   34.1820 C   0  0  0  0  0  0  0  0  0  0  0  0
   39.0770   27.1120   32.9640 N   0  0  0  0  0  0  0  0  0  0  0  0
   38.5110   27.5020   31.8430 C   0  0  0  0  0  0  0  0  0  0  0  0
   37.2200   27.9370   31.8400 N   0  0  0  0  0  0  0  0  0  0  0  0
   35.5060   28.2800   33.0700 H   0  0  0  0  0  0  0  0  0  0  0  0
   36.5780   27.5750   35.1310 H   0  0  0  0  0  0  0  0  0  0  0  0
   39.0290   27.4940   30.9030 H   0  0  0  0  0  0  0  0  0  0  0  0
   38.2100   26.1680   36.4220 C   0  0  0  0  0  0  0  0  0  0  0  0
   38.2350   26.7550   37.3080 H   0  0  0  0  0  0  0  0  0  0  0  0
   37.2100   26.4100   35.9170 H   0  0  0  0  0  0  0  0  0  0  0  0
   38.2320   24.3970   36.5980 S   0  0  0  0  0  0  0  0  0  0  0  0
   38.1710   23.9660   38.3730 C   0  0  0  0  0  0  0  0  0  0  0  0
   37.2860   22.9300   38.5980 F   0  0  0  0  0  0  0  0  0  0  0  0
   37.9950   25.0670   39.1380 F   0  0  0  0  0  0  0  0  0  0  0  0
   39.4480   23.4070   38.6690 F   0  0  0  0  0  0  0  0  0  0  0  0
  1  2  1  0  0  0  0
  1 13  1  0  0  0  0
  3  1  1  0  0  0  0
  4 10  1  0  0  0  0
  4  5  1  0  0  0  0
  5 11  1  0  0  0  0
  6  5  2  0  0  0  0
  6  1  1  0  0  0  0
  7  6  1  0  0  0  0
  8  7  2  0  0  0  0
  9  8  1  0  0  0  0
  9  4  2  0  0  0  0
 12  8  1  0  0  0  0
 13 16  1  0  0  0  0
 13 14  1  0  0  0  0
 15 13  1  0  0  0  0
 16 17  1  0  0  0  0
 17 18  1  0  0  0  0
 17 20  1  0  0  0  0
 17 19  1  0  0  0  0
M  END
>  <minimizedAffinity>
-3.97630811

$$$$

 OpenBabel03272509263D

 20 20  0  0  0  0  0  0  0  0999 V2000
   39.1080   26.4730   35.3460 C   0  0  0  0  0  0  0  0  0  0  0  0
   39.8330   27.1830   35.7350 H   0  0  0  0  0  0  0  0  0  0  0  0
   39.6180   25.5720   34.9180 H   0  0  0  0  0  0  0  0  0  0  0  0
   37.8460   27.7400   32.0050 C   0  0  0  0  0  0  0  0  0  0  0  0
   38.6970   27.1190   32.9030 C   0  0  0  0  0  0  0  0  0  0  0  0
   38.3260   27.0890   34.2550 C   0  0  0  0  0  0  0  0  0  0  0  0
   37.1270   27.6850   34.5750 N   0  0  0  0  0  0  0  0  0  0  0  0
   36.3440   28.2690   33.6950 C   0  0  0  0  0  0  0  0  0  0  0  0
   36.6970   28.3050   32.3790 N   0  0  0  0  0  0  0  0  0  0  0  0
   38.2040   27.7360   30.9750 H   0  0  0  0  0  0  0  0  0  0  0  0
   39.6230   26.6450   32.6150 H   0  0  0  0  0  0  0  0  0  0  0  0
   35.4170   28.7330   33.9680 H   0  0  0  0  0  0  0  0  0  0  0  0
   38.1520   25.9480   36.4020 C   0  0  0  0  0  0  0  0  0  0  0  0
   38.1120   26.5550   37.2750 H   0  0  0  0  0  0  0  0  0  0  0  0
   37.1440   26.0920   35.8760 H   0  0  0  0  0  0  0  0  0  0  0  0
   38.3220   24.1900   36.6210 S   0  0  0  0  0  0  0  0  0  0  0  0
   38.2680   23.7960   38.4050 C   0  0  0  0  0  0  0  0  0  0  0  0
   39.5240   23.4580   38.8740 F   0  0  0  0  0  0  0  0  0  0  0  0
   37.2810   22.9140   38.6830 F   0  0  0  0  0  0  0  0  0  0  0  0
   37.9720   25.0290   39.0560 F   0  0  0  0  0  0  0  0  0  0  0  0
  1  2  1  0  0  0  0
  1 13  1  0  0  0  0
  3  1  1  0  0  0  0
  4  9  2  0  0  0  0
  4  5  1  0  0  0  0
  5  6  2  0  0  0  0
  6  7  1  0  0  0  0
  6  1  1  0  0  0  0
  8 12  1  0  0  0  0
  8  7  2  0  0  0  0
  9  8  1  0  0  0  0
 10  4  1  0  0  0  0
 11  5  1  0  0  0  0
 13 16  1  0  0  0  0
 13 14  1  0  0  0  0
 15 13  1  0  0  0  0
 16 17  1  0  0  0  0
 17 19  1  0  0  0  0
 17 18  1  0  0  0  0
 17 20  1  0  0  0  0
M  END
>  <minimizedAffinity>
-3.95821905

$$$$

 OpenBabel03272509263D

 20 20  0  0  0  0  0  0  0  0999 V2000
   38.2330   22.3460   34.3260 C   0  0  0  0  0  0  0  0  0  0  0  0
   38.5700   23.3330   34.0190 H   0  0  0  0  0  0  0  0  0  0  0  0
   39.0610   21.5950   34.2430 H   0  0  0  0  0  0  0  0  0  0  0  0
   35.1940   20.6280   32.8540 C   0  0  0  0  0  0  0  0  0  0  0  0
   36.1510   20.9530   33.7990 C   0  0  0  0  0  0  0  0  0  0  0  0
   37.1390   21.8840   33.4490 C   0  0  0  0  0  0  0  0  0  0  0  0
   37.0660   22.4070   32.1780 N   0  0  0  0  0  0  0  0  0  0  0  0
   36.1420   22.0730   31.3030 C   0  0  0  0  0  0  0  0  0  0  0  0
   35.1790   21.1670   31.6330 N   0  0  0  0  0  0  0  0  0  0  0  0
   34.4660   19.8890   33.1900 H   0  0  0  0  0  0  0  0  0  0  0  0
   36.1690   20.5370   34.7940 H   0  0  0  0  0  0  0  0  0  0  0  0
   36.1080   22.4880   30.3150 H   0  0  0  0  0  0  0  0  0  0  0  0
   37.7660   22.2910   35.7700 C   0  0  0  0  0  0  0  0  0  0  0  0
   36.8510   21.7650   35.8980 H   0  0  0  0  0  0  0  0  0  0  0  0
   38.5750   21.6260   36.2360 H   0  0  0  0  0  0  0  0  0  0  0  0
   37.9350   23.8700   36.5730 S   0  0  0  0  0  0  0  0  0  0  0  0
   38.1770   23.6130   38.3660 C   0  0  0  0  0  0  0  0  0  0  0  0
   39.4950   23.3070   38.6470 F   0  0  0  0  0  0  0  0  0  0  0  0
   37.2550   22.7600   38.8670 F   0  0  0  0  0  0  0  0  0  0  0  0
   37.9810   24.8930   38.9610 F   0  0  0  0  0  0  0  0  0  0  0  0
  1 13  1  0  0  0  0
  2  1  1  0  0  0  0
  3  1  1  0  0  0  0
  4 10  1  0  0  0  0
  4  5  1  0  0  0  0
  5 11  1  0  0  0  0
  6  5  2  0  0  0  0
  6  1  1  0  0  0  0
  7  6  1  0  0  0  0
  8  9  1  0  0  0  0
  8  7  2  0  0  0  0
  9  4  2  0  0  0  0
 12  8  1  0  0  0  0
 13 14  1  0  0  0  0
 13 15  1  0  0  0  0
 13 16  1  0  0  0  0
 16 17  1  0  0  0  0
 17 18  1  0  0  0  0
 17 19  1  0  0  0  0
 17 20  1  0  0  0  0
M  END
>  <minimizedAffinity>
-3.93498206

$$$$

 OpenBabel03272509263D

 20 20  0  0  0  0  0  0  0  0999 V2000
   38.7580   26.8950   35.9200 C   0  0  0  0  0  0  0  0  0  0  0  0
   38.2700   27.8340   36.1650 H   0  0  0  0  0  0  0  0  0  0  0  0
   39.5510   26.6470   36.6720 H   0  0  0  0  0  0  0  0  0  0  0  0
   41.2680   27.0710   33.0870 C   0  0  0  0  0  0  0  0  0  0  0  0
   40.8070   26.9660   34.3880 C   0  0  0  0  0  0  0  0  0  0  0  0
   39.4230   26.9930   34.6060 C   0  0  0  0  0  0  0  0  0  0  0  0
   38.6290   27.1190   33.4880 N   0  0  0  0  0  0  0  0  0  0  0  0
   39.1010   27.2190   32.2650 C   0  0  0  0  0  0  0  0  0  0  0  0
   40.4460   27.1960   32.0430 N   0  0  0  0  0  0  0  0  0  0  0  0
   42.3540   27.0550   32.9940 H   0  0  0  0  0  0  0  0  0  0  0  0
   41.4580   26.8510   35.2410 H   0  0  0  0  0  0  0  0  0  0  0  0
   38.4640   27.3230   31.4080 H   0  0  0  0  0  0  0  0  0  0  0  0
   37.8110   25.7080   35.9080 C   0  0  0  0  0  0  0  0  0  0  0  0
   36.8840   25.9030   36.3920 H   0  0  0  0  0  0  0  0  0  0  0  0
   37.5680   25.6350   34.7900 H   0  0  0  0  0  0  0  0  0  0  0  0
   38.6550   24.1930   36.3060 S   0  0  0  0  0  0  0  0  0  0  0  0
   38.3440   23.7710   38.0570 C   0  0  0  0  0  0  0  0  0  0  0  0
   39.5010   23.3310   38.6710 F   0  0  0  0  0  0  0  0  0  0  0  0
   37.2670   22.9620   38.1820 F   0  0  0  0  0  0  0  0  0  0  0  0
   38.0560   25.0100   38.6990 F   0  0  0  0  0  0  0  0  0  0  0  0
  1  2  1  0  0  0  0
  1  3  1  0  0  0  0
  4  5  1  0  0  0  0
  5  6  2  0  0  0  0
  5 11  1  0  0  0  0
  6  1  1  0  0  0  0
  7  6  1  0  0  0  0
  8  7  2  0  0  0  0
  9  8  1  0  0  0  0
  9  4  2  0  0  0  0
 10  4  1  0  0  0  0
 12  8  1  0  0  0  0
 13  1  1  0  0  0  0
 13 16  1  0  0  0  0
 13 14  1  0  0  0  0
 15 13  1  0  0  0  0
 16 17  1  0  0  0  0
 17 19  1  0  0  0  0
 17 18  1  0  0  0  0
 17 20  1  0  0  0  0
M  END
>  <minimizedAffinity>
-3.89133

$$$$

 OpenBabel03272509263D

 20 20  0  0  0  0  0  0  0  0999 V2000
   38.1410   23.4190   34.5380 C   0  0  0  0  0  0  0  0  0  0  0  0
   37.0640   23.3220   34.4280 H   0  0  0  0  0  0  0  0  0  0  0  0
   38.6760   22.6050   33.9850 H   0  0  0  0  0  0  0  0  0  0  0  0
   39.9910   22.9280   37.8080 C   0  0  0  0  0  0  0  0  0  0  0  0
   39.8040   23.0020   36.4390 C   0  0  0  0  0  0  0  0  0  0  0  0
   38.5210   23.3010   35.9600 C   0  0  0  0  0  0  0  0  0  0  0  0
   37.5440   23.5020   36.9090 N   0  0  0  0  0  0  0  0  0  0  0  0
   37.7570   23.4210   38.2040 C   0  0  0  0  0  0  0  0  0  0  0  0
   39.0000   23.1290   38.6790 N   0  0  0  0  0  0  0  0  0  0  0  0
   41.0100   22.6790   38.1080 H   0  0  0  0  0  0  0  0  0  0  0  0
   40.5970   22.8560   35.7220 H   0  0  0  0  0  0  0  0  0  0  0  0
   36.9780   23.5750   38.9260 H   0  0  0  0  0  0  0  0  0  0  0  0
   38.6870   24.7240   33.9880 C   0  0  0  0  0  0  0  0  0  0  0  0
   39.7340   24.8410   34.1370 H   0  0  0  0  0  0  0  0  0  0  0  0
   38.5510   24.5600   32.8610 H   0  0  0  0  0  0  0  0  0  0  0  0
   37.6320   26.0990   34.3940 S   0  0  0  0  0  0  0  0  0  0  0  0
   38.4720   27.1620   35.6210 C   0  0  0  0  0  0  0  0  0  0  0  0
   37.8300   28.3810   35.7380 F   0  0  0  0  0  0  0  0  0  0  0  0
   39.8030   27.2190   35.3900 F   0  0  0  0  0  0  0  0  0  0  0  0
   38.2560   26.5300   36.8790 F   0  0  0  0  0  0  0  0  0  0  0  0
  1  6  1  0  0  0  0
  2  1  1  0  0  0  0
  3  1  1  0  0  0  0
  4 10  1  0  0  0  0
  4  9  1  0  0  0  0
  5  4  2  0  0  0  0
  6  5  1  0  0  0  0
  6  7  2  0  0  0  0
  7  8  1  0  0  0  0
  8  9  2  0  0  0  0
  8 12  1  0  0  0  0
 11  5  1  0  0  0  0
 13 14  1  0  0  0  0
 13 16  1  0  0  0  0
 13  1  1  0  0  0  0
 15 13  1  0  0  0  0
 16 17  1  0  0  0  0
 17 18  1  0  0  0  0
 17 20  1  0  0  0  0
 19 17  1  0  0  0  0
M  END
>  <minimizedAffinity>
-3.8730042

$$$$

 OpenBabel03272509263D

 20 20  0  0  0  0  0  0  0  0999 V2000
   38.5140   23.0420   34.1940 C   0  0  0  0  0  0  0  0  0  0  0  0
   39.5310   23.2060   33.8450 H   0  0  0  0  0  0  0  0  0  0  0  0
   38.3310   21.9560   34.4020 H   0  0  0  0  0  0  0  0  0  0  0  0
   35.9120   23.1410   31.4420 C   0  0  0  0  0  0  0  0  0  0  0  0
   36.7740   22.5880   32.3730 C   0  0  0  0  0  0  0  0  0  0  0  0
   37.5470   23.4540   33.1580 C   0  0  0  0  0  0  0  0  0  0  0  0
   37.3740   24.8020   32.9340 N   0  0  0  0  0  0  0  0  0  0  0  0
   36.5470   25.2930   32.0380 C   0  0  0  0  0  0  0  0  0  0  0  0
   35.7930   24.4590   31.2690 N   0  0  0  0  0  0  0  0  0  0  0  0
   35.3530   22.4080   30.8590 H   0  0  0  0  0  0  0  0  0  0  0  0
   36.8720   21.5250   32.5340 H   0  0  0  0  0  0  0  0  0  0  0  0
   36.4330   26.3470   31.8760 H   0  0  0  0  0  0  0  0  0  0  0  0
   38.1960   23.7720   35.4860 C   0  0  0  0  0  0  0  0  0  0  0  0
   38.1170   24.8260   35.3680 H   0  0  0  0  0  0  0  0  0  0  0  0
   37.1300   23.4020   35.6890 H   0  0  0  0  0  0  0  0  0  0  0  0
   39.1720   23.1590   36.8420 S   0  0  0  0  0  0  0  0  0  0  0  0
   38.3920   23.6530   38.4200 C   0  0  0  0  0  0  0  0  0  0  0  0
   39.3310   23.7300   39.4310 F   0  0  0  0  0  0  0  0  0  0  0  0
   37.3020   22.8970   38.6850 F   0  0  0  0  0  0  0  0  0  0  0  0
   37.9730   25.0020   38.2280 F   0  0  0  0  0  0  0  0  0  0  0  0
  1  3  1  0  0  0  0
  1 13  1  0  0  0  0
  2  1  1  0  0  0  0
  4  5  1  0  0  0  0
  5 11  1  0  0  0  0
  5  6  2  0  0  0  0
  6  1  1  0  0  0  0
  7  6  1  0  0  0  0
  8  7  2  0  0  0  0
  9  4  2  0  0  0  0
  9  8  1  0  0  0  0
 10  4  1  0  0  0  0
 12  8  1  0  0  0  0
 13 15  1  0  0  0  0
 13 16  1  0  0  0  0
 14 13  1  0  0  0  0
 16 17  1  0  0  0  0
 17 19  1  0  0  0  0
 17 18  1  0  0  0  0
 20 17  1  0  0  0  0
M  END
>  <minimizedAffinity>
-3.70809913

$$$$

 OpenBabel03272509263D

 20 20  0  0  0  0  0  0  0  0999 V2000
   37.9830   23.3840   34.5470 C   0  0  0  0  0  0  0  0  0  0  0  0
   38.7060   23.9730   33.9890 H   0  0  0  0  0  0  0  0  0  0  0  0
   36.9500   23.8020   34.4330 H   0  0  0  0  0  0  0  0  0  0  0  0
   37.9850   23.9640   38.2910 C   0  0  0  0  0  0  0  0  0  0  0  0
   37.5380   24.0310   36.9830 C   0  0  0  0  0  0  0  0  0  0  0  0
   38.3060   23.4110   35.9880 C   0  0  0  0  0  0  0  0  0  0  0  0
   39.4530   22.7740   36.4060 N   0  0  0  0  0  0  0  0  0  0  0  0
   39.8490   22.7320   37.6590 C   0  0  0  0  0  0  0  0  0  0  0  0
   39.1110   23.3340   38.6330 N   0  0  0  0  0  0  0  0  0  0  0  0
   37.3450   24.4790   39.0100 H   0  0  0  0  0  0  0  0  0  0  0  0
   36.6240   24.5250   36.6930 H   0  0  0  0  0  0  0  0  0  0  0  0
   40.7500   22.2360   37.9610 H   0  0  0  0  0  0  0  0  0  0  0  0
   37.9000   21.9390   34.0870 C   0  0  0  0  0  0  0  0  0  0  0  0
   38.6810   21.3280   34.4700 H   0  0  0  0  0  0  0  0  0  0  0  0
   36.9460   21.5950   34.6210 H   0  0  0  0  0  0  0  0  0  0  0  0
   37.5330   21.8260   32.3490 S   0  0  0  0  0  0  0  0  0  0  0  0
   35.7200   21.8200   32.1140 C   0  0  0  0  0  0  0  0  0  0  0  0
   35.3530   20.9170   31.1340 F   0  0  0  0  0  0  0  0  0  0  0  0
   35.2420   23.0760   31.9640 F   0  0  0  0  0  0  0  0  0  0  0  0
   35.1850   21.2710   33.3150 F   0  0  0  0  0  0  0  0  0  0  0  0
  1  6  1  0  0  0  0
  2  1  1  0  0  0  0
  3  1  1  0  0  0  0
  4  9  1  0  0  0  0
  4 10  1  0  0  0  0
  5  4  2  0  0  0  0
  6  7  2  0  0  0  0
  6  5  1  0  0  0  0
  7  8  1  0  0  0  0
  8 12  1  0  0  0  0
  8  9  2  0  0  0  0
 11  5  1  0  0  0  0
 13 14  1  0  0  0  0
 13  1  1  0  0  0  0
 13 15  1  0  0  0  0
 16 13  1  0  0  0  0
 17 16  1  0  0  0  0
 17 20  1  0  0  0  0
 18 17  1  0  0  0  0
 19 17  1  0  0  0  0
M  END
>  <minimizedAffinity>
-3.62365627

$$$$

 OpenBabel03272509263D

 20 20  0  0  0  0  0  0  0  0999 V2000
   38.0870   23.2440   34.5390 C   0  0  0  0  0  0  0  0  0  0  0  0
   37.0760   23.5980   34.3530 H   0  0  0  0  0  0  0  0  0  0  0  0
   38.1940   22.1670   34.2500 H   0  0  0  0  0  0  0  0  0  0  0  0
   38.0720   23.9980   38.2520 C   0  0  0  0  0  0  0  0  0  0  0  0
   37.6290   24.0010   36.9410 C   0  0  0  0  0  0  0  0  0  0  0  0
   38.4040   23.3410   35.9770 C   0  0  0  0  0  0  0  0  0  0  0  0
   39.5550   22.7340   36.4270 N   0  0  0  0  0  0  0  0  0  0  0  0
   39.9470   22.7530   37.6820 C   0  0  0  0  0  0  0  0  0  0  0  0
   39.2010   23.3930   38.6260 N   0  0  0  0  0  0  0  0  0  0  0  0
   37.4260   24.5410   38.9430 H   0  0  0  0  0  0  0  0  0  0  0  0
   36.7110   24.4740   36.6250 H   0  0  0  0  0  0  0  0  0  0  0  0
   40.8510   22.2780   38.0100 H   0  0  0  0  0  0  0  0  0  0  0  0
   39.1430   23.9940   33.7470 C   0  0  0  0  0  0  0  0  0  0  0  0
   40.1350   23.6670   33.9510 H   0  0  0  0  0  0  0  0  0  0  0  0
   38.9120   23.6380   32.6820 H   0  0  0  0  0  0  0  0  0  0  0  0
   38.8320   25.7460   33.7360 S   0  0  0  0  0  0  0  0  0  0  0  0
   40.0190   26.5770   34.8500 C   0  0  0  0  0  0  0  0  0  0  0  0
   40.9800   25.6910   35.2970 F   0  0  0  0  0  0  0  0  0  0  0  0
   39.3780   27.2820   35.8100 F   0  0  0  0  0  0  0  0  0  0  0  0
   40.7390   27.4880   34.0230 F   0  0  0  0  0  0  0  0  0  0  0  0
  1  6  1  0  0  0  0
  2  1  1  0  0  0  0
  3  1  1  0  0  0  0
  4  9  1  0  0  0  0
  4 10  1  0  0  0  0
  5  4  2  0  0  0  0
  6  7  2  0  0  0  0
  6  5  1  0  0  0  0
  7  8  1  0  0  0  0
  8 12  1  0  0  0  0
  8  9  2  0  0  0  0
 11  5  1  0  0  0  0
 13 14  1  0  0  0  0
 13  1  1  0  0  0  0
 15 13  1  0  0  0  0
 16 13  1  0  0  0  0
 16 17  1  0  0  0  0
 17 18  1  0  0  0  0
 17 19  1  0  0  0  0
 20 17  1  0  0  0  0
M  END
>  <minimizedAffinity>
-3.59573269

$$$$
