
 OpenBabel03262522343D

 35 37  0  0  0  0  0  0  0  0999 V2000
   38.7500   31.2930   46.5990 C   0  0  0  0  0  0  0  0  0  0  0  0
   39.4340   32.4570   46.7170 C   0  0  0  0  0  0  0  0  0  0  0  0
   40.2980   32.9580   45.7780 C   0  0  0  0  0  0  0  0  0  0  0  0
   40.5210   32.2590   44.6070 C   0  0  0  0  0  0  0  0  0  0  0  0
   39.8260   31.0750   44.4830 C   0  0  0  0  0  0  0  0  0  0  0  0
   38.9960   30.6450   45.4450 N   0  0  0  0  0  0  0  0  0  0  0  0
   39.3180   33.0790   47.6160 H   0  0  0  0  0  0  0  0  0  0  0  0
   40.8180   33.8870   45.9180 H   0  0  0  0  0  0  0  0  0  0  0  0
   41.1900   32.6230   43.8550 H   0  0  0  0  0  0  0  0  0  0  0  0
   38.9520   30.2000   42.3660 C   0  0  0  0  0  0  0  0  0  0  0  0
   40.0200   30.3260   43.2550 C   0  0  0  0  0  0  0  0  0  0  0  0
   41.2090   29.7200   42.9340 C   0  0  0  0  0  0  0  0  0  0  0  0
   41.4260   28.9860   41.7830 C   0  0  0  0  0  0  0  0  0  0  0  0
   40.4000   28.8430   40.8940 C   0  0  0  0  0  0  0  0  0  0  0  0
   39.2130   29.4500   41.2150 C   0  0  0  0  0  0  0  0  0  0  0  0
   42.0380   29.8420   43.6630 H   0  0  0  0  0  0  0  0  0  0  0  0
   42.3840   28.5400   41.5950 H   0  0  0  0  0  0  0  0  0  0  0  0
   40.5150   28.2850   39.9900 H   0  0  0  0  0  0  0  0  0  0  0  0
   38.4000   29.3130   40.4700 H   0  0  0  0  0  0  0  0  0  0  0  0
   37.3790   30.8590   42.6180 S   0  0  0  0  0  0  0  0  0  0  0  0
   36.6810   30.7290   41.2580 O   0  0  0  0  0  0  0  0  0  0  0  0
   36.5610   29.9870   43.5040 O   0  0  0  0  0  0  0  0  0  0  0  0
   37.1930   32.5870   42.7790 C   0  0  0  0  0  0  0  0  0  0  0  0
   37.1970   32.8990   44.1350 F   0  0  0  0  0  0  0  0  0  0  0  0
   36.3070   33.2370   42.0230 F   0  0  0  0  0  0  0  0  0  0  0  0
   38.4010   33.2330   42.3770 F   0  0  0  0  0  0  0  0  0  0  0  0
   38.1810   30.5660   48.9370 C   0  0  0  0  0  0  0  0  0  0  0  0
   37.8340   30.7880   47.5900 C   0  0  0  0  0  0  0  0  0  0  0  0
   36.5090   30.5140   47.1830 C   0  0  0  0  0  0  0  0  0  0  0  0
   35.6340   30.0440   48.1300 N   0  0  0  0  0  0  0  0  0  0  0  0
   36.0300   29.8470   49.4250 C   0  0  0  0  0  0  0  0  0  0  0  0
   37.2770   30.1030   49.8210 N   0  0  0  0  0  0  0  0  0  0  0  0
   39.1990   30.7860   49.2050 H   0  0  0  0  0  0  0  0  0  0  0  0
   36.1780   30.6610   46.1760 H   0  0  0  0  0  0  0  0  0  0  0  0
   35.2720   29.4740   50.1060 H   0  0  0  0  0  0  0  0  0  0  0  0
  1  2  1  0  0  0  0
  1 28  1  0  0  0  0
  2  7  1  0  0  0  0
  3  8  1  0  0  0  0
  3  2  2  0  0  0  0
  4  3  1  0  0  0  0
  5  4  2  0  0  0  0
  5  6  1  0  0  0  0
  6  1  2  0  0  0  0
  9  4  1  0  0  0  0
 10 20  1  0  0  0  0
 10 11  1  0  0  0  0
 11  5  1  0  0  0  0
 12 11  2  0  0  0  0
 12 16  1  0  0  0  0
 13 12  1  0  0  0  0
 14 15  1  0  0  0  0
 14 13  2  0  0  0  0
 15 10  2  0  0  0  0
 17 13  1  0  0  0  0
 18 14  1  0  0  0  0
 19 15  1  0  0  0  0
 20 23  1  0  0  0  0
 20 22  2  0  0  0  0
 21 20  2  0  0  0  0
 23 24  1  0  0  0  0
 25 23  1  0  0  0  0
 26 23  1  0  0  0  0
 27 33  1  0  0  0  0
 27 32  1  0  0  0  0
 28 27  2  0  0  0  0
 29 28  1  0  0  0  0
 29 30  2  0  0  0  0
 30 31  1  0  0  0  0
 31 32  2  0  0  0  0
 31 35  1  0  0  0  0
 34 29  1  0  0  0  0
M  END
>  <minimizedAffinity>
-5.48600245

>  <minimizedRMSD>
1.64326513

$$$$
