
 OpenBabel03272502293D

 19 19  0  0  0  0  0  0  0  0999 V2000
   38.2370   31.5760   47.7990 C   0  0  0  0  0  0  0  0  0  0  0  0
   38.2190   32.6020   48.6120 C   0  0  0  0  0  0  0  0  0  0  0  0
   40.5580   32.7400   45.1270 C   0  0  0  0  0  0  0  0  0  0  0  0
   39.7950   32.7060   46.2910 C   0  0  0  0  0  0  0  0  0  0  0  0
   39.0230   31.5840   46.5890 C   0  0  0  0  0  0  0  0  0  0  0  0
   39.0430   30.5460   45.7180 N   0  0  0  0  0  0  0  0  0  0  0  0
   39.7900   30.6140   44.6050 C   0  0  0  0  0  0  0  0  0  0  0  0
   40.5390   31.6840   44.3010 N   0  0  0  0  0  0  0  0  0  0  0  0
   41.1810   33.5760   44.8320 H   0  0  0  0  0  0  0  0  0  0  0  0
   39.8450   33.5840   46.9240 H   0  0  0  0  0  0  0  0  0  0  0  0
   39.6910   29.6980   44.0170 H   0  0  0  0  0  0  0  0  0  0  0  0
   37.3520   32.4820   49.8440 C   0  0  0  0  0  0  0  0  0  0  0  0
   36.6640   33.3470   49.8210 H   0  0  0  0  0  0  0  0  0  0  0  0
   37.9730   32.4960   50.7470 H   0  0  0  0  0  0  0  0  0  0  0  0
   36.3550   30.9730   49.6870 S   0  0  0  0  0  0  0  0  0  0  0  0
   36.7570   29.7950   51.0130 C   0  0  0  0  0  0  0  0  0  0  0  0
   37.5360   30.3640   52.0020 F   0  0  0  0  0  0  0  0  0  0  0  0
   35.5860   29.2560   51.5400 F   0  0  0  0  0  0  0  0  0  0  0  0
   37.4440   28.7300   50.4350 F   0  0  0  0  0  0  0  0  0  0  0  0
  1  2  2  0  0  0  0
  2 12  1  0  0  0  0
  3  4  1  0  0  0  0
  4  5  2  0  0  0  0
  4 10  1  0  0  0  0
  5  1  1  0  0  0  0
  6  5  1  0  0  0  0
  7  6  2  0  0  0  0
  8  7  1  0  0  0  0
  8  3  2  0  0  0  0
  9  3  1  0  0  0  0
 11  7  1  0  0  0  0
 12 14  1  0  0  0  0
 13 12  1  0  0  0  0
 15 12  1  0  0  0  0
 15 16  1  0  0  0  0
 16 18  1  0  0  0  0
 16 17  1  0  0  0  0
 19 16  1  0  0  0  0
M  END
>  <minimizedAffinity>
-5.02156162

>  <minimizedRMSD>
5.90440369

$$$$
