
 OpenBabel03272510113D

 30 32  0  0  0  0  0  0  0  0999 V2000
   33.0390   28.5670   47.8020 C   0  0  0  0  0  0  0  0  0  0  0  0
   33.4890   28.0750   48.9760 C   0  0  0  0  0  0  0  0  0  0  0  0
   34.7550   28.2950   49.4860 C   0  0  0  0  0  0  0  0  0  0  0  0
   35.6410   29.0570   48.7850 C   0  0  0  0  0  0  0  0  0  0  0  0
   35.1710   29.5670   47.5650 C   0  0  0  0  0  0  0  0  0  0  0  0
   33.9290   29.3230   47.1150 N   0  0  0  0  0  0  0  0  0  0  0  0
   32.8630   27.4590   49.6070 H   0  0  0  0  0  0  0  0  0  0  0  0
   35.1200   27.9030   50.4240 H   0  0  0  0  0  0  0  0  0  0  0  0
   35.8180   30.1840   46.9510 H   0  0  0  0  0  0  0  0  0  0  0  0
   30.8700   27.3030   47.7210 C   0  0  0  0  0  0  0  0  0  0  0  0
   31.7220   28.3290   47.2850 C   0  0  0  0  0  0  0  0  0  0  0  0
   31.2050   29.1310   46.2930 C   0  0  0  0  0  0  0  0  0  0  0  0
   29.9630   28.9240   45.7900 N   0  0  0  0  0  0  0  0  0  0  0  0
   29.1950   27.9060   46.2640 C   0  0  0  0  0  0  0  0  0  0  0  0
   29.6400   27.0940   47.2260 N   0  0  0  0  0  0  0  0  0  0  0  0
   31.2300   26.6450   48.5000 H   0  0  0  0  0  0  0  0  0  0  0  0
   31.8320   29.9520   45.9140 H   0  0  0  0  0  0  0  0  0  0  0  0
   28.2440   27.8760   45.7650 H   0  0  0  0  0  0  0  0  0  0  0  0
   36.9480   29.3890   49.1310 O   0  0  0  0  0  0  0  0  0  0  0  0
   37.3680   30.7060   49.2460 C   0  0  0  0  0  0  0  0  0  0  0  0
   36.5160   31.5070   50.0110 C   0  0  0  0  0  0  0  0  0  0  0  0
   37.0790   32.7810   50.0240 C   0  0  0  0  0  0  0  0  0  0  0  0
   38.2010   32.7100   49.2990 N   0  0  0  0  0  0  0  0  0  0  0  0
   38.3790   31.4980   48.8390 N   0  0  0  0  0  0  0  0  0  0  0  0
   35.5890   31.3580   50.5490 H   0  0  0  0  0  0  0  0  0  0  0  0
   36.7130   33.6910   50.5150 H   0  0  0  0  0  0  0  0  0  0  0  0
   39.0910   33.8360   49.0650 C   0  0  0  0  0  0  0  0  0  0  0  0
   39.9830   33.9950   50.1210 F   0  0  0  0  0  0  0  0  0  0  0  0
   38.4170   35.0160   48.9530 F   0  0  0  0  0  0  0  0  0  0  0  0
   39.8670   33.6050   47.9410 F   0  0  0  0  0  0  0  0  0  0  0  0
  1  2  1  0  0  0  0
  2  3  2  0  0  0  0
  2  7  1  0  0  0  0
  3  8  1  0  0  0  0
  4 19  1  0  0  0  0
  4  3  1  0  0  0  0
  5  4  2  0  0  0  0
  6  5  1  0  0  0  0
  6  1  2  0  0  0  0
  9  5  1  0  0  0  0
 10 16  1  0  0  0  0
 11 10  1  0  0  0  0
 11  1  1  0  0  0  0
 12 11  2  0  0  0  0
 13 14  2  0  0  0  0
 13 12  1  0  0  0  0
 14 15  1  0  0  0  0
 15 10  2  0  0  0  0
 17 12  1  0  0  0  0
 18 14  1  0  0  0  0
 19 20  1  0  0  0  0
 20 21  1  0  0  0  0
 21 22  2  0  0  0  0
 21 25  1  0  0  0  0
 22 26  1  0  0  0  0
 23 22  1  0  0  0  0
 24 20  2  0  0  0  0
 24 23  1  0  0  0  0
 27 23  1  0  0  0  0
 27 28  1  0  0  0  0
 29 27  1  0  0  0  0
 30 27  1  0  0  0  0
M  END
>  <minimizedAffinity>
-5.29669714

>  <minimizedRMSD>
1.47672844

$$$$
