
 OpenBabel03262520543D

 21 22  0  0  1  0  0  0  0  0999 V2000
   37.4340   30.9630   47.4680 C   0  0  2  0  0  0  0  0  0  0  0  0
   36.0910   30.8360   48.0720 C   0  0  0  0  0  0  0  0  0  0  0  0
   37.2470   29.9840   48.5520 C   0  0  2  0  0  0  0  0  0  0  0  0
   37.5540   30.6080   46.4130 H   0  0  0  0  0  0  0  0  0  0  0  0
   35.7540   31.6870   48.6810 H   0  0  0  0  0  0  0  0  0  0  0  0
   35.3020   30.3990   47.4460 H   0  0  0  0  0  0  0  0  0  0  0  0
   37.2300   28.9220   48.2570 H   0  0  0  0  0  0  0  0  0  0  0  0
   38.9600   33.9590   49.0920 C   0  0  0  0  0  0  0  0  0  0  0  0
   39.9700   34.2830   48.1670 C   0  0  0  0  0  0  0  0  0  0  0  0
   40.0610   33.5400   46.9540 C   0  0  0  0  0  0  0  0  0  0  0  0
   39.2290   32.4690   46.8120 N   0  0  0  0  0  0  0  0  0  0  0  0
   38.2920   32.1660   47.7340 C   0  0  0  0  0  0  0  0  0  0  0  0
   38.1430   32.8890   48.8640 N   0  0  0  0  0  0  0  0  0  0  0  0
   38.7260   34.6360   49.9020 H   0  0  0  0  0  0  0  0  0  0  0  0
   40.5380   35.1780   48.3070 H   0  0  0  0  0  0  0  0  0  0  0  0
   40.7530   33.8460   46.1960 H   0  0  0  0  0  0  0  0  0  0  0  0
   37.9720   30.4300   50.1700 S   0  0  0  0  0  0  0  0  0  0  0  0
   37.2160   29.5120   51.5190 C   0  0  0  0  0  0  0  0  0  0  0  0
   37.4590   30.0980   52.7460 F   0  0  0  0  0  0  0  0  0  0  0  0
   35.8780   29.2550   51.3100 F   0  0  0  0  0  0  0  0  0  0  0  0
   37.8460   28.2710   51.5560 F   0  0  0  0  0  0  0  0  0  0  0  0
  1  4  1  6  0  0  0
  1 12  1  0  0  0  0
  1  2  1  0  0  0  0
  1  3  1  0  0  0  0
  2  3  1  0  0  0  0
  2  5  1  0  0  0  0
  3  7  1  6  0  0  0
  3 17  1  0  0  0  0
  6  2  1  0  0  0  0
  8 14  1  0  0  0  0
  9 15  1  0  0  0  0
  9  8  2  0  0  0  0
 10  9  1  0  0  0  0
 11 10  2  0  0  0  0
 11 12  1  0  0  0  0
 12 13  2  0  0  0  0
 13  8  1  0  0  0  0
 16 10  1  0  0  0  0
 17 18  1  0  0  0  0
 18 21  1  0  0  0  0
 18 19  1  0  0  0  0
 20 18  1  0  0  0  0
M  END
>  <minimizedAffinity>
-4.58687449

>  <minimizedRMSD>
1.84094059

$$$$
