
 OpenBabel03272510113D

 30 32  0  0  0  0  0  0  0  0999 V2000
   33.8360   28.7100   48.2810 C   0  0  0  0  0  0  0  0  0  0  0  0
   34.4000   28.2840   49.4300 C   0  0  0  0  0  0  0  0  0  0  0  0
   35.6420   28.6820   49.8900 C   0  0  0  0  0  0  0  0  0  0  0  0
   36.3790   29.5640   49.1610 C   0  0  0  0  0  0  0  0  0  0  0  0
   35.7920   30.0060   47.9650 C   0  0  0  0  0  0  0  0  0  0  0  0
   34.5790   29.5880   47.5640 N   0  0  0  0  0  0  0  0  0  0  0  0
   33.8950   27.5830   50.0810 H   0  0  0  0  0  0  0  0  0  0  0  0
   36.0970   28.3430   50.8090 H   0  0  0  0  0  0  0  0  0  0  0  0
   36.3180   30.7110   47.3310 H   0  0  0  0  0  0  0  0  0  0  0  0
   31.6320   27.5420   48.5750 C   0  0  0  0  0  0  0  0  0  0  0  0
   32.5450   28.2880   47.8160 C   0  0  0  0  0  0  0  0  0  0  0  0
   32.1210   28.6080   46.5460 C   0  0  0  0  0  0  0  0  0  0  0  0
   30.9060   28.2190   46.0860 N   0  0  0  0  0  0  0  0  0  0  0  0
   30.0740   27.4960   46.8830 C   0  0  0  0  0  0  0  0  0  0  0  0
   30.4280   27.1550   48.1240 N   0  0  0  0  0  0  0  0  0  0  0  0
   31.9190   27.2650   49.5800 H   0  0  0  0  0  0  0  0  0  0  0  0
   32.8000   29.1930   45.9070 H   0  0  0  0  0  0  0  0  0  0  0  0
   29.1550   27.2680   46.3750 H   0  0  0  0  0  0  0  0  0  0  0  0
   37.6390   30.0780   49.4560 O   0  0  0  0  0  0  0  0  0  0  0  0
   38.2370   31.0570   48.6750 C   0  0  0  0  0  0  0  0  0  0  0  0
   38.3110   32.3080   49.2920 C   0  0  0  0  0  0  0  0  0  0  0  0
   38.9310   33.1610   48.3820 C   0  0  0  0  0  0  0  0  0  0  0  0
   39.1980   32.4300   47.2940 N   0  0  0  0  0  0  0  0  0  0  0  0
   38.7950   31.1950   47.4560 N   0  0  0  0  0  0  0  0  0  0  0  0
   38.0130   32.7180   50.2480 H   0  0  0  0  0  0  0  0  0  0  0  0
   39.1710   34.2260   48.4910 H   0  0  0  0  0  0  0  0  0  0  0  0
   39.8480   32.9520   46.1030 C   0  0  0  0  0  0  0  0  0  0  0  0
   38.9400   33.0910   45.0590 F   0  0  0  0  0  0  0  0  0  0  0  0
   40.8340   32.1300   45.6460 F   0  0  0  0  0  0  0  0  0  0  0  0
   40.3430   34.2230   46.3490 F   0  0  0  0  0  0  0  0  0  0  0  0
  1  2  1  0  0  0  0
  2  3  2  0  0  0  0
  2  7  1  0  0  0  0
  3  8  1  0  0  0  0
  4 19  1  0  0  0  0
  4  3  1  0  0  0  0
  5  4  2  0  0  0  0
  6  5  1  0  0  0  0
  6  1  2  0  0  0  0
  9  5  1  0  0  0  0
 10 16  1  0  0  0  0
 11  1  1  0  0  0  0
 11 10  2  0  0  0  0
 12 11  1  0  0  0  0
 13 12  2  0  0  0  0
 13 14  1  0  0  0  0
 14 15  2  0  0  0  0
 15 10  1  0  0  0  0
 17 12  1  0  0  0  0
 18 14  1  0  0  0  0
 20 21  1  0  0  0  0
 20 19  1  0  0  0  0
 21 25  1  0  0  0  0
 22 26  1  0  0  0  0
 22 21  2  0  0  0  0
 23 24  1  0  0  0  0
 23 22  1  0  0  0  0
 24 20  2  0  0  0  0
 27 30  1  0  0  0  0
 27 23  1  0  0  0  0
 28 27  1  0  0  0  0
 29 27  1  0  0  0  0
M  END
>  <minimizedAffinity>
-6.05526447

>  <minimizedRMSD>
0.827636898

$$$$
