
 OpenBabel03272510103D

 23 24  0  0  0  0  0  0  0  0999 V2000
   37.6310   31.2170   48.6830 C   0  0  0  0  0  0  0  0  0  0  0  0
   38.1120   32.4740   48.9140 C   0  0  0  0  0  0  0  0  0  0  0  0
   38.9910   33.1400   48.0960 C   0  0  0  0  0  0  0  0  0  0  0  0
   39.4490   32.5300   46.9440 C   0  0  0  0  0  0  0  0  0  0  0  0
   38.9540   31.2450   46.7150 C   0  0  0  0  0  0  0  0  0  0  0  0
   38.0910   30.6350   47.5490 N   0  0  0  0  0  0  0  0  0  0  0  0
   37.7950   33.0200   49.8050 H   0  0  0  0  0  0  0  0  0  0  0  0
   39.3780   34.1350   48.2690 H   0  0  0  0  0  0  0  0  0  0  0  0
   39.2700   30.7010   45.8270 H   0  0  0  0  0  0  0  0  0  0  0  0
   37.0450   29.9970   50.8010 C   0  0  0  0  0  0  0  0  0  0  0  0
   36.7090   30.5340   49.5530 C   0  0  0  0  0  0  0  0  0  0  0  0
   35.3900   30.3930   49.1340 C   0  0  0  0  0  0  0  0  0  0  0  0
   34.5030   29.7450   49.9540 N   0  0  0  0  0  0  0  0  0  0  0  0
   34.8850   29.2460   51.1480 C   0  0  0  0  0  0  0  0  0  0  0  0
   36.1530   29.3680   51.5780 N   0  0  0  0  0  0  0  0  0  0  0  0
   38.0780   30.1130   51.1160 H   0  0  0  0  0  0  0  0  0  0  0  0
   35.0240   30.7750   48.1790 H   0  0  0  0  0  0  0  0  0  0  0  0
   34.0510   28.7710   51.6520 H   0  0  0  0  0  0  0  0  0  0  0  0
   40.3310   33.0420   46.0060 O   0  0  0  0  0  0  0  0  0  0  0  0
   40.0000   33.3300   44.6820 C   0  0  0  0  0  0  0  0  0  0  0  0
   38.6260   33.2380   44.5090 F   0  0  0  0  0  0  0  0  0  0  0  0
   40.3670   34.5990   44.2660 F   0  0  0  0  0  0  0  0  0  0  0  0
   40.5800   32.3440   43.8870 F   0  0  0  0  0  0  0  0  0  0  0  0
  1  2  1  0  0  0  0
  1 11  1  0  0  0  0
  2  7  1  0  0  0  0
  3  8  1  0  0  0  0
  3  2  2  0  0  0  0
  4  3  1  0  0  0  0
  5  4  2  0  0  0  0
  5  6  1  0  0  0  0
  6  1  2  0  0  0  0
  9  5  1  0  0  0  0
 10 16  1  0  0  0  0
 10 15  1  0  0  0  0
 11 10  2  0  0  0  0
 12 11  1  0  0  0  0
 12 13  2  0  0  0  0
 13 14  1  0  0  0  0
 14 15  2  0  0  0  0
 14 18  1  0  0  0  0
 17 12  1  0  0  0  0
 19  4  1  0  0  0  0
 20 19  1  0  0  0  0
 21 20  1  0  0  0  0
 22 20  1  0  0  0  0
 23 20  1  0  0  0  0
M  END
>  <minimizedAffinity>
-5.47013474

>  <minimizedRMSD>
1.37026048

$$$$
