
 OpenBabel03272510103D

 23 24  0  0  0  0  0  0  0  0999 V2000
   37.7070   31.2090   48.7100 C   0  0  0  0  0  0  0  0  0  0  0  0
   38.1860   32.4690   48.9290 C   0  0  0  0  0  0  0  0  0  0  0  0
   39.0300   33.1450   48.0830 C   0  0  0  0  0  0  0  0  0  0  0  0
   39.4510   32.5430   46.9130 C   0  0  0  0  0  0  0  0  0  0  0  0
   38.9570   31.2550   46.6960 C   0  0  0  0  0  0  0  0  0  0  0  0
   38.1300   30.6350   47.5580 N   0  0  0  0  0  0  0  0  0  0  0  0
   37.8970   33.0090   49.8340 H   0  0  0  0  0  0  0  0  0  0  0  0
   39.4150   34.1420   48.2470 H   0  0  0  0  0  0  0  0  0  0  0  0
   39.2460   30.7170   45.7950 H   0  0  0  0  0  0  0  0  0  0  0  0
   37.1850   30.0500   50.8790 C   0  0  0  0  0  0  0  0  0  0  0  0
   36.8210   30.5160   49.6100 C   0  0  0  0  0  0  0  0  0  0  0  0
   35.5120   30.2860   49.2000 C   0  0  0  0  0  0  0  0  0  0  0  0
   34.6610   29.6270   50.0470 N   0  0  0  0  0  0  0  0  0  0  0  0
   35.0680   29.2010   51.2610 C   0  0  0  0  0  0  0  0  0  0  0  0
   36.3280   29.4080   51.6840 N   0  0  0  0  0  0  0  0  0  0  0  0
   38.2100   30.2350   51.1880 H   0  0  0  0  0  0  0  0  0  0  0  0
   35.1280   30.6080   48.2300 H   0  0  0  0  0  0  0  0  0  0  0  0
   34.2600   28.7040   51.7860 H   0  0  0  0  0  0  0  0  0  0  0  0
   40.2950   33.0650   45.9460 O   0  0  0  0  0  0  0  0  0  0  0  0
   39.9300   33.3020   44.6200 C   0  0  0  0  0  0  0  0  0  0  0  0
   40.5600   32.3870   43.7880 F   0  0  0  0  0  0  0  0  0  0  0  0
   38.5710   33.1880   44.3740 F   0  0  0  0  0  0  0  0  0  0  0  0
   40.4080   34.5630   44.2800 F   0  0  0  0  0  0  0  0  0  0  0  0
  1  2  1  0  0  0  0
  1 11  1  0  0  0  0
  2  7  1  0  0  0  0
  3  8  1  0  0  0  0
  3  2  2  0  0  0  0
  4  3  1  0  0  0  0
  5  4  2  0  0  0  0
  5  6  1  0  0  0  0
  6  1  2  0  0  0  0
  9  5  1  0  0  0  0
 10 16  1  0  0  0  0
 10 15  1  0  0  0  0
 11 10  2  0  0  0  0
 12 11  1  0  0  0  0
 12 13  2  0  0  0  0
 13 14  1  0  0  0  0
 14 15  2  0  0  0  0
 14 18  1  0  0  0  0
 17 12  1  0  0  0  0
 19  4  1  0  0  0  0
 20 19  1  0  0  0  0
 21 20  1  0  0  0  0
 22 20  1  0  0  0  0
 23 20  1  0  0  0  0
M  END
>  <minimizedAffinity>
-5.45182562

>  <minimizedRMSD>
1.44151258

$$$$
