
 OpenBabel03272503433D

 36 38  0  0  1  0  0  0  0  0999 V2000
   37.4710   27.2330   34.5630 C   0  0  0  0  0  0  0  0  0  0  0  0
   38.3960   27.5880   35.5010 C   0  0  0  0  0  0  0  0  0  0  0  0
   39.1290   26.4100   35.7320 C   0  0  0  0  0  0  0  0  0  0  0  0
   38.6450   25.4330   34.9620 N   0  0  0  0  0  0  0  0  0  0  0  0
   37.6250   25.9320   34.2420 N   0  0  0  0  0  0  0  0  0  0  0  0
   38.5150   28.5650   35.9490 H   0  0  0  0  0  0  0  0  0  0  0  0
   39.9480   26.3770   36.4390 H   0  0  0  0  0  0  0  0  0  0  0  0
   39.2920   23.5550   36.3770 C   0  0  2  0  0  0  0  0  0  0  0  0
   39.1760   24.0960   34.9590 C   0  0  1  0  0  0  0  0  0  0  0  0
   38.1900   23.0760   34.4270 C   0  0  0  0  0  0  0  0  0  0  0  0
   38.5020   21.8700   34.9990 O   0  0  0  0  0  0  0  0  0  0  0  0
   39.3520   22.0560   36.0490 C   0  0  0  0  0  0  0  0  0  0  0  0
   40.1810   23.8890   36.9130 H   0  0  0  0  0  0  0  0  0  0  0  0
   40.1100   24.0410   34.3990 H   0  0  0  0  0  0  0  0  0  0  0  0
   37.1960   23.3940   34.8140 H   0  0  0  0  0  0  0  0  0  0  0  0
   38.1000   23.0800   33.3330 H   0  0  0  0  0  0  0  0  0  0  0  0
   39.1180   21.4570   36.9460 H   0  0  0  0  0  0  0  0  0  0  0  0
   40.4080   21.8440   35.8060 H   0  0  0  0  0  0  0  0  0  0  0  0
   38.0910   23.8250   37.0260 O   0  0  0  0  0  0  0  0  0  0  0  0
   38.2140   23.7600   38.4100 C   0  0  0  0  0  0  0  0  0  0  0  0
   37.7810   24.9690   38.9200 F   0  0  0  0  0  0  0  0  0  0  0  0
   39.4720   23.4700   38.8520 F   0  0  0  0  0  0  0  0  0  0  0  0
   37.2720   22.8200   38.8250 F   0  0  0  0  0  0  0  0  0  0  0  0
   34.9570   29.9850   34.1140 C   0  0  0  0  0  0  0  0  0  0  0  0
   35.8970   29.1660   34.7020 C   0  0  0  0  0  0  0  0  0  0  0  0
   36.4760   28.1330   34.0040 C   0  0  0  0  0  0  0  0  0  0  0  0
   36.0850   27.9510   32.7100 N   0  0  0  0  0  0  0  0  0  0  0  0
   35.1520   28.7750   32.1470 C   0  0  0  0  0  0  0  0  0  0  0  0
   34.6000   29.7620   32.8170 N   0  0  0  0  0  0  0  0  0  0  0  0
   36.2450   29.2660   35.7310 H   0  0  0  0  0  0  0  0  0  0  0  0
   34.8790   28.5820   31.1090 H   0  0  0  0  0  0  0  0  0  0  0  0
   34.4790   30.9720   34.9610 O   0  0  0  0  0  0  0  0  0  0  0  0
   35.2360   32.0690   35.3840 C   0  0  0  0  0  0  0  0  0  0  0  0
   36.2820   32.3690   34.5230 F   0  0  0  0  0  0  0  0  0  0  0  0
   35.6830   31.8260   36.6550 F   0  0  0  0  0  0  0  0  0  0  0  0
   34.3880   33.1710   35.4370 F   0  0  0  0  0  0  0  0  0  0  0  0
  1  2  1  0  0  0  0
  2  3  2  0  0  0  0
  2  6  1  0  0  0  0
  3  7  1  0  0  0  0
  4  3  1  0  0  0  0
  5  1  2  0  0  0  0
  5  4  1  0  0  0  0
  8 13  1  1  0  0  0
  8 19  1  0  0  0  0
  9 14  1  6  0  0  0
  9  4  1  0  0  0  0
  9  8  1  0  0  0  0
 10 15  1  0  0  0  0
 10  9  1  0  0  0  0
 10 11  1  0  0  0  0
 11 12  1  0  0  0  0
 12  8  1  0  0  0  0
 12 17  1  0  0  0  0
 16 10  1  0  0  0  0
 18 12  1  0  0  0  0
 19 20  1  0  0  0  0
 20 23  1  0  0  0  0
 20 22  1  0  0  0  0
 20 21  1  0  0  0  0
 24 25  1  0  0  0  0
 24 32  1  0  0  0  0
 25 30  1  0  0  0  0
 26  1  1  0  0  0  0
 26 25  2  0  0  0  0
 27 26  1  0  0  0  0
 28 27  2  0  0  0  0
 28 29  1  0  0  0  0
 29 24  2  0  0  0  0
 31 28  1  0  0  0  0
 32 33  1  0  0  0  0
 33 36  1  0  0  0  0
 33 35  1  0  0  0  0
 34 33  1  0  0  0  0
M  END
>  <minimizedAffinity>
-5.99206924

$$$$

 OpenBabel03272503433D

 36 38  0  0  1  0  0  0  0  0999 V2000
   36.7830   27.8290   33.8380 C   0  0  0  0  0  0  0  0  0  0  0  0
   36.8700   28.2740   32.5510 C   0  0  0  0  0  0  0  0  0  0  0  0
   35.7520   29.1120   32.3950 C   0  0  0  0  0  0  0  0  0  0  0  0
   35.0620   29.1410   33.5370 N   0  0  0  0  0  0  0  0  0  0  0  0
   35.6910   28.3550   34.4280 N   0  0  0  0  0  0  0  0  0  0  0  0
   37.6400   28.0220   31.8340 H   0  0  0  0  0  0  0  0  0  0  0  0
   35.5460   29.6220   31.4620 H   0  0  0  0  0  0  0  0  0  0  0  0
   34.0090   30.9080   34.8480 C   0  0  2  0  0  0  0  0  0  0  0  0
   33.8580   29.9090   33.7100 C   0  0  1  0  0  0  0  0  0  0  0  0
   33.6300   30.9030   32.5900 C   0  0  0  0  0  0  0  0  0  0  0  0
   32.8860   31.9330   33.1020 O   0  0  0  0  0  0  0  0  0  0  0  0
   32.8760   31.8710   34.4650 C   0  0  0  0  0  0  0  0  0  0  0  0
   33.8610   30.4830   35.8420 H   0  0  0  0  0  0  0  0  0  0  0  0
   32.9860   29.2620   33.8180 H   0  0  0  0  0  0  0  0  0  0  0  0
   34.6390   31.3000   32.3350 H   0  0  0  0  0  0  0  0  0  0  0  0
   33.2470   30.4460   31.6670 H   0  0  0  0  0  0  0  0  0  0  0  0
   33.0090   32.8420   34.9730 H   0  0  0  0  0  0  0  0  0  0  0  0
   31.9540   31.4300   34.8810 H   0  0  0  0  0  0  0  0  0  0  0  0
   35.2280   31.5570   34.6740 O   0  0  0  0  0  0  0  0  0  0  0  0
   35.9130   31.7210   35.8730 C   0  0  0  0  0  0  0  0  0  0  0  0
   36.7380   30.6250   36.0320 F   0  0  0  0  0  0  0  0  0  0  0  0
   35.1110   31.8870   36.9640 F   0  0  0  0  0  0  0  0  0  0  0  0
   36.7670   32.8040   35.6680 F   0  0  0  0  0  0  0  0  0  0  0  0
   38.3270   25.0750   35.8710 C   0  0  0  0  0  0  0  0  0  0  0  0
   37.3760   25.9000   35.3090 C   0  0  0  0  0  0  0  0  0  0  0  0
   37.7330   26.9240   34.4640 C   0  0  0  0  0  0  0  0  0  0  0  0
   39.0620   27.0920   34.2040 N   0  0  0  0  0  0  0  0  0  0  0  0
   39.9870   26.2620   34.7730 C   0  0  0  0  0  0  0  0  0  0  0  0
   39.6430   25.2840   35.5800 N   0  0  0  0  0  0  0  0  0  0  0  0
   36.3030   25.8110   35.4810 H   0  0  0  0  0  0  0  0  0  0  0  0
   41.0340   26.4430   34.5290 H   0  0  0  0  0  0  0  0  0  0  0  0
   37.7910   24.1000   36.6960 O   0  0  0  0  0  0  0  0  0  0  0  0
   38.1490   23.9310   38.0370 C   0  0  0  0  0  0  0  0  0  0  0  0
   38.0430   25.1000   38.7780 F   0  0  0  0  0  0  0  0  0  0  0  0
   39.4160   23.4160   38.0890 F   0  0  0  0  0  0  0  0  0  0  0  0
   37.2870   22.9890   38.5890 F   0  0  0  0  0  0  0  0  0  0  0  0
  1  5  2  0  0  0  0
  1 26  1  0  0  0  0
  2  1  1  0  0  0  0
  3  2  2  0  0  0  0
  3  4  1  0  0  0  0
  4  9  1  0  0  0  0
  4  5  1  0  0  0  0
  6  2  1  0  0  0  0
  7  3  1  0  0  0  0
  8 13  1  1  0  0  0
  9 14  1  1  0  0  0
  9  8  1  0  0  0  0
 10 11  1  0  0  0  0
 10  9  1  0  0  0  0
 11 12  1  0  0  0  0
 12  8  1  0  0  0  0
 12 18  1  0  0  0  0
 12 17  1  0  0  0  0
 15 10  1  0  0  0  0
 16 10  1  0  0  0  0
 19  8  1  0  0  0  0
 19 20  1  0  0  0  0
 20 21  1  0  0  0  0
 20 22  1  0  0  0  0
 23 20  1  0  0  0  0
 24 32  1  0  0  0  0
 25 30  1  0  0  0  0
 25 24  2  0  0  0  0
 26 25  1  0  0  0  0
 27 26  2  0  0  0  0
 27 28  1  0  0  0  0
 28 29  2  0  0  0  0
 29 24  1  0  0  0  0
 31 28  1  0  0  0  0
 32 33  1  0  0  0  0
 33 35  1  0  0  0  0
 33 36  1  0  0  0  0
 33 34  1  0  0  0  0
M  END
>  <minimizedAffinity>
-5.81319046

$$$$

 OpenBabel03272503433D

 36 38  0  0  1  0  0  0  0  0999 V2000
   37.4740   27.2880   34.6100 C   0  0  0  0  0  0  0  0  0  0  0  0
   38.4610   27.6440   35.4820 C   0  0  0  0  0  0  0  0  0  0  0  0
   39.2030   26.4650   35.6700 C   0  0  0  0  0  0  0  0  0  0  0  0
   38.6650   25.4860   34.9400 N   0  0  0  0  0  0  0  0  0  0  0  0
   37.6020   25.9850   34.2860 N   0  0  0  0  0  0  0  0  0  0  0  0
   38.6130   28.6230   35.9160 H   0  0  0  0  0  0  0  0  0  0  0  0
   40.0670   26.4320   36.3220 H   0  0  0  0  0  0  0  0  0  0  0  0
   39.2920   23.5710   36.3150 C   0  0  2  0  0  0  0  0  0  0  0  0
   39.1900   24.1470   34.9100 C   0  0  1  0  0  0  0  0  0  0  0  0
   38.2040   23.1440   34.3460 C   0  0  0  0  0  0  0  0  0  0  0  0
   38.5050   21.9230   34.8910 O   0  0  0  0  0  0  0  0  0  0  0  0
   39.3480   22.0800   35.9510 C   0  0  0  0  0  0  0  0  0  0  0  0
   40.1780   23.8880   36.8660 H   0  0  0  0  0  0  0  0  0  0  0  0
   40.1280   24.1000   34.3550 H   0  0  0  0  0  0  0  0  0  0  0  0
   37.2080   23.4580   34.7310 H   0  0  0  0  0  0  0  0  0  0  0  0
   38.1230   23.1740   33.2500 H   0  0  0  0  0  0  0  0  0  0  0  0
   39.1030   21.4610   36.8320 H   0  0  0  0  0  0  0  0  0  0  0  0
   40.4050   21.8690   35.7120 H   0  0  0  0  0  0  0  0  0  0  0  0
   38.0870   23.8310   36.9610 O   0  0  0  0  0  0  0  0  0  0  0  0
   38.2220   23.8400   38.3440 C   0  0  0  0  0  0  0  0  0  0  0  0
   37.8710   25.1000   38.7860 F   0  0  0  0  0  0  0  0  0  0  0  0
   39.4640   23.4970   38.7920 F   0  0  0  0  0  0  0  0  0  0  0  0
   37.2280   22.9870   38.8210 F   0  0  0  0  0  0  0  0  0  0  0  0
   34.9410   30.0440   34.3150 C   0  0  0  0  0  0  0  0  0  0  0  0
   35.9150   29.2240   34.8440 C   0  0  0  0  0  0  0  0  0  0  0  0
   36.4480   28.1890   34.1130 C   0  0  0  0  0  0  0  0  0  0  0  0
   35.9770   28.0060   32.8450 N   0  0  0  0  0  0  0  0  0  0  0  0
   35.0120   28.8320   32.3410 C   0  0  0  0  0  0  0  0  0  0  0  0
   34.5040   29.8200   33.0420 N   0  0  0  0  0  0  0  0  0  0  0  0
   36.3260   29.3240   35.8490 H   0  0  0  0  0  0  0  0  0  0  0  0
   34.6740   28.6380   31.3220 H   0  0  0  0  0  0  0  0  0  0  0  0
   34.5190   31.0320   35.1890 O   0  0  0  0  0  0  0  0  0  0  0  0
   33.3440   30.9530   35.9450 C   0  0  0  0  0  0  0  0  0  0  0  0
   32.7830   29.6830   35.9420 F   0  0  0  0  0  0  0  0  0  0  0  0
   32.4650   31.8940   35.4840 F   0  0  0  0  0  0  0  0  0  0  0  0
   33.6650   31.2810   37.2580 F   0  0  0  0  0  0  0  0  0  0  0  0
  1  2  1  0  0  0  0
  2  3  2  0  0  0  0
  2  6  1  0  0  0  0
  3  7  1  0  0  0  0
  4  3  1  0  0  0  0
  5  1  2  0  0  0  0
  5  4  1  0  0  0  0
  8 13  1  1  0  0  0
  8 19  1  0  0  0  0
  9 14  1  6  0  0  0
  9  4  1  0  0  0  0
  9  8  1  0  0  0  0
 10 15  1  0  0  0  0
 10 11  1  0  0  0  0
 10  9  1  0  0  0  0
 11 12  1  0  0  0  0
 12  8  1  0  0  0  0
 12 17  1  0  0  0  0
 16 10  1  0  0  0  0
 18 12  1  0  0  0  0
 19 20  1  0  0  0  0
 20 21  1  0  0  0  0
 20 22  1  0  0  0  0
 20 23  1  0  0  0  0
 24 25  1  0  0  0  0
 24 32  1  0  0  0  0
 25 30  1  0  0  0  0
 26  1  1  0  0  0  0
 26 25  2  0  0  0  0
 27 26  1  0  0  0  0
 28 27  2  0  0  0  0
 28 29  1  0  0  0  0
 29 24  2  0  0  0  0
 31 28  1  0  0  0  0
 32 33  1  0  0  0  0
 33 36  1  0  0  0  0
 34 33  1  0  0  0  0
 35 33  1  0  0  0  0
M  END
>  <minimizedAffinity>
-5.80506039

$$$$

 OpenBabel03272503433D

 36 38  0  0  1  0  0  0  0  0999 V2000
   37.8830   25.6600   33.0240 C   0  0  0  0  0  0  0  0  0  0  0  0
   38.9240   26.3790   32.5120 C   0  0  0  0  0  0  0  0  0  0  0  0
   38.3090   27.4170   31.7900 C   0  0  0  0  0  0  0  0  0  0  0  0
   36.9830   27.2940   31.8870 N   0  0  0  0  0  0  0  0  0  0  0  0
   36.7150   26.2160   32.6440 N   0  0  0  0  0  0  0  0  0  0  0  0
   39.9770   26.1730   32.6480 H   0  0  0  0  0  0  0  0  0  0  0  0
   38.8870   28.1650   31.2620 H   0  0  0  0  0  0  0  0  0  0  0  0
   35.3340   29.0420   32.2970 C   0  0  2  0  0  0  0  0  0  0  0  0
   36.0600   28.2010   31.2590 C   0  0  1  0  0  0  0  0  0  0  0  0
   36.7550   29.3300   30.5260 C   0  0  0  0  0  0  0  0  0  0  0  0
   35.8930   30.3950   30.5040 O   0  0  0  0  0  0  0  0  0  0  0  0
   34.8750   30.1910   31.3870 C   0  0  0  0  0  0  0  0  0  0  0  0
   34.4900   28.5390   32.7720 H   0  0  0  0  0  0  0  0  0  0  0  0
   35.3860   27.6760   30.5810 H   0  0  0  0  0  0  0  0  0  0  0  0
   37.6270   29.6050   31.1620 H   0  0  0  0  0  0  0  0  0  0  0  0
   37.1770   29.0320   29.5560 H   0  0  0  0  0  0  0  0  0  0  0  0
   34.6020   31.0740   31.9910 H   0  0  0  0  0  0  0  0  0  0  0  0
   33.9400   29.8430   30.9130 H   0  0  0  0  0  0  0  0  0  0  0  0
   36.2900   29.5270   33.1840 O   0  0  0  0  0  0  0  0  0  0  0  0
   35.9040   29.3740   34.5110 C   0  0  0  0  0  0  0  0  0  0  0  0
   34.5950   28.9320   34.5130 F   0  0  0  0  0  0  0  0  0  0  0  0
   36.0370   30.4980   35.2720 F   0  0  0  0  0  0  0  0  0  0  0  0
   36.6580   28.3070   34.9980 F   0  0  0  0  0  0  0  0  0  0  0  0
   38.6580   23.3280   35.8630 C   0  0  0  0  0  0  0  0  0  0  0  0
   38.5450   24.4880   35.1280 C   0  0  0  0  0  0  0  0  0  0  0  0
   38.0290   24.4750   33.8530 C   0  0  0  0  0  0  0  0  0  0  0  0
   37.6340   23.2710   33.3470 N   0  0  0  0  0  0  0  0  0  0  0  0
   37.7540   22.1340   34.0950 C   0  0  0  0  0  0  0  0  0  0  0  0
   38.2480   22.1500   35.3120 N   0  0  0  0  0  0  0  0  0  0  0  0
   38.8450   25.4750   35.4820 H   0  0  0  0  0  0  0  0  0  0  0  0
   37.4210   21.2010   33.6380 H   0  0  0  0  0  0  0  0  0  0  0  0
   39.1980   23.5250   37.1240 O   0  0  0  0  0  0  0  0  0  0  0  0
   38.4390   23.8410   38.2550 C   0  0  0  0  0  0  0  0  0  0  0  0
   37.9540   25.1410   38.2370 F   0  0  0  0  0  0  0  0  0  0  0  0
   39.1980   23.6020   39.3690 F   0  0  0  0  0  0  0  0  0  0  0  0
   37.3530   22.9730   38.2900 F   0  0  0  0  0  0  0  0  0  0  0  0
  1 26  1  0  0  0  0
  2  6  1  0  0  0  0
  2  1  1  0  0  0  0
  3  4  1  0  0  0  0
  3  2  2  0  0  0  0
  4  5  1  0  0  0  0
  5  1  2  0  0  0  0
  7  3  1  0  0  0  0
  8 13  1  1  0  0  0
  8 19  1  0  0  0  0
  9 14  1  6  0  0  0
  9  4  1  0  0  0  0
  9  8  1  0  0  0  0
 10 15  1  0  0  0  0
 10  9  1  0  0  0  0
 11 10  1  0  0  0  0
 11 12  1  0  0  0  0
 12 17  1  0  0  0  0
 12  8  1  0  0  0  0
 16 10  1  0  0  0  0
 18 12  1  0  0  0  0
 19 20  1  0  0  0  0
 20 21  1  0  0  0  0
 20 23  1  0  0  0  0
 20 22  1  0  0  0  0
 24 32  1  0  0  0  0
 25 30  1  0  0  0  0
 25 24  2  0  0  0  0
 26 25  1  0  0  0  0
 27 26  2  0  0  0  0
 27 28  1  0  0  0  0
 28 29  2  0  0  0  0
 29 24  1  0  0  0  0
 31 28  1  0  0  0  0
 32 33  1  0  0  0  0
 33 36  1  0  0  0  0
 33 35  1  0  0  0  0
 34 33  1  0  0  0  0
M  END
>  <minimizedAffinity>
-5.61406517

$$$$

 OpenBabel03272503433D

 36 38  0  0  1  0  0  0  0  0999 V2000
   36.4800   27.9750   33.7510 C   0  0  0  0  0  0  0  0  0  0  0  0
   35.9790   28.3500   32.5390 C   0  0  0  0  0  0  0  0  0  0  0  0
   35.4840   29.6490   32.7510 C   0  0  0  0  0  0  0  0  0  0  0  0
   35.6940   29.9960   34.0230 N   0  0  0  0  0  0  0  0  0  0  0  0
   36.3060   28.9720   34.6430 N   0  0  0  0  0  0  0  0  0  0  0  0
   35.9760   27.7580   31.6330 H   0  0  0  0  0  0  0  0  0  0  0  0
   35.0180   30.2180   31.9580 H   0  0  0  0  0  0  0  0  0  0  0  0
   33.8280   31.2710   34.9390 C   0  0  2  0  0  0  0  0  0  0  0  0
   35.3030   31.2690   34.5660 C   0  0  1  0  0  0  0  0  0  0  0  0
   35.8690   31.5150   35.9500 C   0  0  0  0  0  0  0  0  0  0  0  0
   35.0170   32.3730   36.5940 O   0  0  0  0  0  0  0  0  0  0  0  0
   33.8370   32.4580   35.9150 C   0  0  0  0  0  0  0  0  0  0  0  0
   33.1530   31.4410   34.1000 H   0  0  0  0  0  0  0  0  0  0  0  0
   35.5800   32.0870   33.8990 H   0  0  0  0  0  0  0  0  0  0  0  0
   35.8230   30.5300   36.4680 H   0  0  0  0  0  0  0  0  0  0  0  0
   36.9290   31.8020   35.9480 H   0  0  0  0  0  0  0  0  0  0  0  0
   32.9350   32.4390   36.5510 H   0  0  0  0  0  0  0  0  0  0  0  0
   33.7510   33.3620   35.2870 H   0  0  0  0  0  0  0  0  0  0  0  0
   33.5780   30.1040   35.6550 O   0  0  0  0  0  0  0  0  0  0  0  0
   32.3770   29.5070   35.2870 C   0  0  0  0  0  0  0  0  0  0  0  0
   32.5360   29.0160   34.0060 F   0  0  0  0  0  0  0  0  0  0  0  0
   31.2920   30.3310   35.3590 F   0  0  0  0  0  0  0  0  0  0  0  0
   32.2520   28.3860   36.1040 F   0  0  0  0  0  0  0  0  0  0  0  0
   38.2310   25.1110   35.4340 C   0  0  0  0  0  0  0  0  0  0  0  0
   37.6510   26.3470   35.2390 C   0  0  0  0  0  0  0  0  0  0  0  0
   37.1050   26.6920   34.0250 C   0  0  0  0  0  0  0  0  0  0  0  0
   37.1590   25.7660   33.0240 N   0  0  0  0  0  0  0  0  0  0  0  0
   37.7390   24.5480   33.2400 C   0  0  0  0  0  0  0  0  0  0  0  0
   38.2600   24.2200   34.4010 N   0  0  0  0  0  0  0  0  0  0  0  0
   37.5800   27.1220   36.0010 H   0  0  0  0  0  0  0  0  0  0  0  0
   37.7530   23.8480   32.4040 H   0  0  0  0  0  0  0  0  0  0  0  0
   38.7290   24.9330   36.7140 O   0  0  0  0  0  0  0  0  0  0  0  0
   38.1480   24.0890   37.6660 C   0  0  0  0  0  0  0  0  0  0  0  0
   37.9100   24.7220   38.8780 F   0  0  0  0  0  0  0  0  0  0  0  0
   38.9490   22.9900   37.8200 F   0  0  0  0  0  0  0  0  0  0  0  0
   36.9290   23.6560   37.1560 F   0  0  0  0  0  0  0  0  0  0  0  0
  1 26  1  0  0  0  0
  1  5  2  0  0  0  0
  2  3  2  0  0  0  0
  2  1  1  0  0  0  0
  3  4  1  0  0  0  0
  4  9  1  0  0  0  0
  4  5  1  0  0  0  0
  6  2  1  0  0  0  0
  7  3  1  0  0  0  0
  8 13  1  6  0  0  0
  8 19  1  0  0  0  0
  8 12  1  0  0  0  0
  9 14  1  6  0  0  0
  9  8  1  0  0  0  0
  9 10  1  0  0  0  0
 10 15  1  0  0  0  0
 10 11  1  0  0  0  0
 12 17  1  0  0  0  0
 12 11  1  0  0  0  0
 16 10  1  0  0  0  0
 18 12  1  0  0  0  0
 20 22  1  0  0  0  0
 20 19  1  0  0  0  0
 20 23  1  0  0  0  0
 21 20  1  0  0  0  0
 24 32  1  0  0  0  0
 25 24  1  0  0  0  0
 25 30  1  0  0  0  0
 26 25  2  0  0  0  0
 27 28  2  0  0  0  0
 27 26  1  0  0  0  0
 28 29  1  0  0  0  0
 29 24  2  0  0  0  0
 31 28  1  0  0  0  0
 32 33  1  0  0  0  0
 33 35  1  0  0  0  0
 33 34  1  0  0  0  0
 36 33  1  0  0  0  0
M  END
>  <minimizedAffinity>
-5.44271612

$$$$

 OpenBabel03272503433D

 36 38  0  0  1  0  0  0  0  0999 V2000
   38.5920   25.6640   33.8610 C   0  0  0  0  0  0  0  0  0  0  0  0
   39.2780   26.6330   34.5330 C   0  0  0  0  0  0  0  0  0  0  0  0
   40.2460   25.9280   35.2700 C   0  0  0  0  0  0  0  0  0  0  0  0
   40.1160   24.6220   35.0290 N   0  0  0  0  0  0  0  0  0  0  0  0
   39.1010   24.4530   34.1640 N   0  0  0  0  0  0  0  0  0  0  0  0
   39.0960   27.6980   34.4890 H   0  0  0  0  0  0  0  0  0  0  0  0
   40.9540   26.4340   35.9140 H   0  0  0  0  0  0  0  0  0  0  0  0
   40.4700   23.2730   37.0300 C   0  0  2  0  0  0  0  0  0  0  0  0
   40.9570   23.6220   35.6320 C   0  0  1  0  0  0  0  0  0  0  0  0
   40.7830   22.2540   35.0040 C   0  0  0  0  0  0  0  0  0  0  0  0
   41.1060   21.3230   35.9560 O   0  0  0  0  0  0  0  0  0  0  0  0
   41.1630   21.9110   37.1850 C   0  0  0  0  0  0  0  0  0  0  0  0
   40.7820   23.9770   37.8030 H   0  0  0  0  0  0  0  0  0  0  0  0
   42.0070   23.9160   35.6010 H   0  0  0  0  0  0  0  0  0  0  0  0
   39.6950   22.1630   34.7880 H   0  0  0  0  0  0  0  0  0  0  0  0
   41.2900   22.1470   34.0350 H   0  0  0  0  0  0  0  0  0  0  0  0
   40.6920   21.3310   37.9980 H   0  0  0  0  0  0  0  0  0  0  0  0
   42.1910   22.1340   37.5220 H   0  0  0  0  0  0  0  0  0  0  0  0
   39.0950   23.0710   36.9550 O   0  0  0  0  0  0  0  0  0  0  0  0
   38.4180   23.6510   38.0220 C   0  0  0  0  0  0  0  0  0  0  0  0
   38.0250   24.9140   37.6260 F   0  0  0  0  0  0  0  0  0  0  0  0
   39.1350   23.7080   39.1820 F   0  0  0  0  0  0  0  0  0  0  0  0
   37.2400   22.9190   38.1580 F   0  0  0  0  0  0  0  0  0  0  0  0
   35.8200   27.3130   31.9380 C   0  0  0  0  0  0  0  0  0  0  0  0
   36.8710   27.1390   32.8140 C   0  0  0  0  0  0  0  0  0  0  0  0
   37.4820   25.9160   32.9570 C   0  0  0  0  0  0  0  0  0  0  0  0
   37.0080   24.8840   32.2010 N   0  0  0  0  0  0  0  0  0  0  0  0
   35.9660   25.0790   31.3390 C   0  0  0  0  0  0  0  0  0  0  0  0
   35.3840   26.2490   31.2040 N   0  0  0  0  0  0  0  0  0  0  0  0
   37.2880   27.9280   33.4410 H   0  0  0  0  0  0  0  0  0  0  0  0
   35.6310   24.2180   30.7610 H   0  0  0  0  0  0  0  0  0  0  0  0
   35.3260   28.6070   31.9220 O   0  0  0  0  0  0  0  0  0  0  0  0
   35.8090   29.6150   31.0810 C   0  0  0  0  0  0  0  0  0  0  0  0
   34.8350   30.5370   30.7250 F   0  0  0  0  0  0  0  0  0  0  0  0
   36.3770   29.0310   29.9820 F   0  0  0  0  0  0  0  0  0  0  0  0
   36.8140   30.2900   31.7670 F   0  0  0  0  0  0  0  0  0  0  0  0
  1  5  2  0  0  0  0
  1  2  1  0  0  0  0
  2  3  2  0  0  0  0
  3  7  1  0  0  0  0
  4  3  1  0  0  0  0
  4  9  1  0  0  0  0
  5  4  1  0  0  0  0
  6  2  1  0  0  0  0
  8 12  1  0  0  0  0
  8 13  1  1  0  0  0
  9 14  1  1  0  0  0
  9  8  1  0  0  0  0
 10  9  1  0  0  0  0
 10 11  1  0  0  0  0
 11 12  1  0  0  0  0
 12 18  1  0  0  0  0
 12 17  1  0  0  0  0
 15 10  1  0  0  0  0
 16 10  1  0  0  0  0
 19  8  1  0  0  0  0
 19 20  1  0  0  0  0
 20 23  1  0  0  0  0
 20 22  1  0  0  0  0
 21 20  1  0  0  0  0
 24 25  1  0  0  0  0
 25 26  2  0  0  0  0
 25 30  1  0  0  0  0
 26  1  1  0  0  0  0
 27 26  1  0  0  0  0
 28 27  2  0  0  0  0
 29 28  1  0  0  0  0
 29 24  2  0  0  0  0
 31 28  1  0  0  0  0
 32 24  1  0  0  0  0
 33 36  1  0  0  0  0
 33 32  1  0  0  0  0
 34 33  1  0  0  0  0
 35 33  1  0  0  0  0
M  END
>  <minimizedAffinity>
-5.35450411

$$$$

 OpenBabel03272503433D

 36 38  0  0  1  0  0  0  0  0999 V2000
   35.6170   29.0250   32.5910 C   0  0  0  0  0  0  0  0  0  0  0  0
   36.4830   29.5220   31.6610 C   0  0  0  0  0  0  0  0  0  0  0  0
   37.4030   28.4790   31.4500 C   0  0  0  0  0  0  0  0  0  0  0  0
   37.0750   27.4410   32.2220 N   0  0  0  0  0  0  0  0  0  0  0  0
   35.9780   27.7700   32.9250 N   0  0  0  0  0  0  0  0  0  0  0  0
   36.4460   30.5020   31.2070 H   0  0  0  0  0  0  0  0  0  0  0  0
   38.2250   28.5770   30.7520 H   0  0  0  0  0  0  0  0  0  0  0  0
   38.5820   26.0590   33.5500 C   0  0  2  0  0  0  0  0  0  0  0  0
   37.8190   26.2100   32.2430 C   0  0  1  0  0  0  0  0  0  0  0  0
   36.9300   24.9910   32.3780 C   0  0  0  0  0  0  0  0  0  0  0  0
   37.6730   24.0080   32.9780 O   0  0  0  0  0  0  0  0  0  0  0  0
   38.8090   24.5400   33.5130 C   0  0  0  0  0  0  0  0  0  0  0  0
   39.5240   26.6090   33.5870 H   0  0  0  0  0  0  0  0  0  0  0  0
   38.4530   26.1140   31.3600 H   0  0  0  0  0  0  0  0  0  0  0  0
   36.1220   25.2890   33.0830 H   0  0  0  0  0  0  0  0  0  0  0  0
   36.4240   24.7090   31.4450 H   0  0  0  0  0  0  0  0  0  0  0  0
   39.0660   24.1650   34.5190 H   0  0  0  0  0  0  0  0  0  0  0  0
   39.7070   24.3860   32.8900 H   0  0  0  0  0  0  0  0  0  0  0  0
   37.7000   26.3560   34.5850 O   0  0  0  0  0  0  0  0  0  0  0  0
   38.3090   27.0770   35.6060 C   0  0  0  0  0  0  0  0  0  0  0  0
   39.6180   27.3040   35.2280 F   0  0  0  0  0  0  0  0  0  0  0  0
   38.2550   26.4780   36.8300 F   0  0  0  0  0  0  0  0  0  0  0  0
   37.6950   28.3280   35.5960 F   0  0  0  0  0  0  0  0  0  0  0  0
   33.4570   31.3750   34.5700 C   0  0  0  0  0  0  0  0  0  0  0  0
   34.5760   30.7210   34.1000 C   0  0  0  0  0  0  0  0  0  0  0  0
   34.4790   29.7520   33.1290 C   0  0  0  0  0  0  0  0  0  0  0  0
   33.2340   29.4640   32.6500 N   0  0  0  0  0  0  0  0  0  0  0  0
   32.1390   30.1260   33.1300 C   0  0  0  0  0  0  0  0  0  0  0  0
   32.2350   31.0510   34.0580 N   0  0  0  0  0  0  0  0  0  0  0  0
   35.5920   30.9110   34.4470 H   0  0  0  0  0  0  0  0  0  0  0  0
   31.1700   29.8540   32.7100 H   0  0  0  0  0  0  0  0  0  0  0  0
   33.7390   32.3180   35.5450 O   0  0  0  0  0  0  0  0  0  0  0  0
   33.8960   32.0130   36.9010 C   0  0  0  0  0  0  0  0  0  0  0  0
   33.4860   33.0410   37.7380 F   0  0  0  0  0  0  0  0  0  0  0  0
   35.2030   31.6730   37.1220 F   0  0  0  0  0  0  0  0  0  0  0  0
   33.1160   30.8940   37.1740 F   0  0  0  0  0  0  0  0  0  0  0  0
  1  5  2  0  0  0  0
  1 26  1  0  0  0  0
  2  1  1  0  0  0  0
  3  2  2  0  0  0  0
  3  4  1  0  0  0  0
  4  9  1  0  0  0  0
  4  5  1  0  0  0  0
  6  2  1  0  0  0  0
  7  3  1  0  0  0  0
  8 13  1  1  0  0  0
  8 19  1  0  0  0  0
  9 14  1  6  0  0  0
  9 10  1  0  0  0  0
  9  8  1  0  0  0  0
 10 11  1  0  0  0  0
 10 15  1  0  0  0  0
 11 12  1  0  0  0  0
 12  8  1  0  0  0  0
 12 17  1  0  0  0  0
 16 10  1  0  0  0  0
 18 12  1  0  0  0  0
 19 20  1  0  0  0  0
 20 22  1  0  0  0  0
 21 20  1  0  0  0  0
 23 20  1  0  0  0  0
 24 32  1  0  0  0  0
 25 30  1  0  0  0  0
 25 24  1  0  0  0  0
 26 25  2  0  0  0  0
 27 26  1  0  0  0  0
 27 28  2  0  0  0  0
 28 29  1  0  0  0  0
 29 24  2  0  0  0  0
 31 28  1  0  0  0  0
 32 33  1  0  0  0  0
 33 35  1  0  0  0  0
 33 36  1  0  0  0  0
 33 34  1  0  0  0  0
M  END
>  <minimizedAffinity>
-5.35319996

$$$$

 OpenBabel03272503433D

 36 38  0  0  1  0  0  0  0  0999 V2000
   37.0540   26.8620   33.3300 C   0  0  0  0  0  0  0  0  0  0  0  0
   37.3530   26.0670   32.2620 C   0  0  0  0  0  0  0  0  0  0  0  0
   37.8380   24.8790   32.8370 C   0  0  0  0  0  0  0  0  0  0  0  0
   37.8170   24.9940   34.1670 N   0  0  0  0  0  0  0  0  0  0  0  0
   37.3360   26.2110   34.4760 N   0  0  0  0  0  0  0  0  0  0  0  0
   37.2320   26.3200   31.2180 H   0  0  0  0  0  0  0  0  0  0  0  0
   38.1620   24.0420   32.2310 H   0  0  0  0  0  0  0  0  0  0  0  0
   39.7660   23.9570   35.2020 C   0  0  2  0  0  0  0  0  0  0  0  0
   38.2520   23.9490   35.0540 C   0  0  1  0  0  0  0  0  0  0  0  0
   37.9000   24.2250   36.5020 C   0  0  0  0  0  0  0  0  0  0  0  0
   38.8180   23.5680   37.2790 O   0  0  0  0  0  0  0  0  0  0  0  0
   39.8760   23.1690   36.5160 C   0  0  0  0  0  0  0  0  0  0  0  0
   40.3000   23.4640   34.3880 H   0  0  0  0  0  0  0  0  0  0  0  0
   37.8530   22.9790   34.7520 H   0  0  0  0  0  0  0  0  0  0  0  0
   38.0520   25.3200   36.6410 H   0  0  0  0  0  0  0  0  0  0  0  0
   36.8450   24.0380   36.7420 H   0  0  0  0  0  0  0  0  0  0  0  0
   40.8660   23.3290   36.9790 H   0  0  0  0  0  0  0  0  0  0  0  0
   39.8390   22.1030   36.2310 H   0  0  0  0  0  0  0  0  0  0  0  0
   40.1560   25.2730   35.4340 O   0  0  0  0  0  0  0  0  0  0  0  0
   41.3140   25.6090   34.7420 C   0  0  0  0  0  0  0  0  0  0  0  0
   41.1920   25.1040   33.4620 F   0  0  0  0  0  0  0  0  0  0  0  0
   42.4680   25.1750   35.3270 F   0  0  0  0  0  0  0  0  0  0  0  0
   41.2750   26.9950   34.6010 F   0  0  0  0  0  0  0  0  0  0  0  0
   35.4140   30.1490   34.1100 C   0  0  0  0  0  0  0  0  0  0  0  0
   35.9070   28.8710   34.2700 C   0  0  0  0  0  0  0  0  0  0  0  0
   36.5130   28.2080   33.2300 C   0  0  0  0  0  0  0  0  0  0  0  0
   36.6070   28.8620   32.0360 N   0  0  0  0  0  0  0  0  0  0  0  0
   36.1110   30.1280   31.9000 C   0  0  0  0  0  0  0  0  0  0  0  0
   35.5320   30.7590   32.8970 N   0  0  0  0  0  0  0  0  0  0  0  0
   35.8600   28.3040   35.2000 H   0  0  0  0  0  0  0  0  0  0  0  0
   36.2150   30.6010   30.9230 H   0  0  0  0  0  0  0  0  0  0  0  0
   34.8360   30.6640   35.2600 O   0  0  0  0  0  0  0  0  0  0  0  0
   35.3500   31.7560   35.9670 C   0  0  0  0  0  0  0  0  0  0  0  0
   35.0430   32.9750   35.3790 F   0  0  0  0  0  0  0  0  0  0  0  0
   36.7010   31.5890   36.1050 F   0  0  0  0  0  0  0  0  0  0  0  0
   34.7880   31.7350   37.2400 F   0  0  0  0  0  0  0  0  0  0  0  0
  1  5  2  0  0  0  0
  2  3  2  0  0  0  0
  2  1  1  0  0  0  0
  3  4  1  0  0  0  0
  4  5  1  0  0  0  0
  4  9  1  0  0  0  0
  6  2  1  0  0  0  0
  7  3  1  0  0  0  0
  8 13  1  6  0  0  0
  8 19  1  0  0  0  0
  8 12  1  0  0  0  0
  9 14  1  6  0  0  0
  9  8  1  0  0  0  0
  9 10  1  0  0  0  0
 10 15  1  0  0  0  0
 10 16  1  0  0  0  0
 10 11  1  0  0  0  0
 12 17  1  0  0  0  0
 12 11  1  0  0  0  0
 18 12  1  0  0  0  0
 20 22  1  0  0  0  0
 20 19  1  0  0  0  0
 21 20  1  0  0  0  0
 23 20  1  0  0  0  0
 24 25  1  0  0  0  0
 24 32  1  0  0  0  0
 25 30  1  0  0  0  0
 26  1  1  0  0  0  0
 26 25  2  0  0  0  0
 27 26  1  0  0  0  0
 28 27  2  0  0  0  0
 28 29  1  0  0  0  0
 29 24  2  0  0  0  0
 31 28  1  0  0  0  0
 32 33  1  0  0  0  0
 33 35  1  0  0  0  0
 33 36  1  0  0  0  0
 34 33  1  0  0  0  0
M  END
>  <minimizedAffinity>
-5.34619999

$$$$

 OpenBabel03272503433D

 36 38  0  0  1  0  0  0  0  0999 V2000
   39.0020   25.0870   33.0100 C   0  0  0  0  0  0  0  0  0  0  0  0
   40.1470   25.8290   33.0480 C   0  0  0  0  0  0  0  0  0  0  0  0
   40.0350   26.6990   31.9490 C   0  0  0  0  0  0  0  0  0  0  0  0
   38.8830   26.4620   31.3170 N   0  0  0  0  0  0  0  0  0  0  0  0
   38.2440   25.4730   31.9650 N   0  0  0  0  0  0  0  0  0  0  0  0
   40.9450   25.7450   33.7730 H   0  0  0  0  0  0  0  0  0  0  0  0
   40.8050   27.4220   31.7130 H   0  0  0  0  0  0  0  0  0  0  0  0
   37.2070   27.9940   30.4280 C   0  0  2  0  0  0  0  0  0  0  0  0
   38.4640   27.1850   30.1460 C   0  0  1  0  0  0  0  0  0  0  0  0
   39.3850   28.3410   29.8110 C   0  0  0  0  0  0  0  0  0  0  0  0
   38.6410   29.2740   29.1360 O   0  0  0  0  0  0  0  0  0  0  0  0
   37.3120   28.9990   29.2700 C   0  0  0  0  0  0  0  0  0  0  0  0
   36.2820   27.4180   30.3820 H   0  0  0  0  0  0  0  0  0  0  0  0
   38.3670   26.5240   29.2840 H   0  0  0  0  0  0  0  0  0  0  0  0
   39.6800   28.7800   30.7910 H   0  0  0  0  0  0  0  0  0  0  0  0
   40.3220   28.0320   29.3270 H   0  0  0  0  0  0  0  0  0  0  0  0
   36.6750   29.8790   29.4660 H   0  0  0  0  0  0  0  0  0  0  0  0
   36.8740   28.4920   28.3930 H   0  0  0  0  0  0  0  0  0  0  0  0
   37.4060   28.6700   31.6280 O   0  0  0  0  0  0  0  0  0  0  0  0
   36.3460   28.5000   32.5110 C   0  0  0  0  0  0  0  0  0  0  0  0
   36.8470   27.8890   33.6440 F   0  0  0  0  0  0  0  0  0  0  0  0
   35.2960   27.7930   32.0030 F   0  0  0  0  0  0  0  0  0  0  0  0
   35.9830   29.7850   32.9100 F   0  0  0  0  0  0  0  0  0  0  0  0
   38.7000   23.0280   36.1360 C   0  0  0  0  0  0  0  0  0  0  0  0
   39.0520   24.0520   35.2820 C   0  0  0  0  0  0  0  0  0  0  0  0
   38.6660   24.0420   33.9630 C   0  0  0  0  0  0  0  0  0  0  0  0
   37.9230   22.9810   33.5320 N   0  0  0  0  0  0  0  0  0  0  0  0
   37.5860   21.9770   34.3960 C   0  0  0  0  0  0  0  0  0  0  0  0
   37.9560   21.9900   35.6570 N   0  0  0  0  0  0  0  0  0  0  0  0
   39.6420   24.9210   35.5730 H   0  0  0  0  0  0  0  0  0  0  0  0
   36.9910   21.1560   33.9960 H   0  0  0  0  0  0  0  0  0  0  0  0
   39.1720   23.2000   37.4270 O   0  0  0  0  0  0  0  0  0  0  0  0
   38.3960   23.6930   38.4810 C   0  0  0  0  0  0  0  0  0  0  0  0
   37.3450   22.8520   38.8190 F   0  0  0  0  0  0  0  0  0  0  0  0
   37.9530   24.9440   38.1480 F   0  0  0  0  0  0  0  0  0  0  0  0
   39.2250   23.8200   39.5910 F   0  0  0  0  0  0  0  0  0  0  0  0
  1  2  1  0  0  0  0
  1 26  1  0  0  0  0
  2  6  1  0  0  0  0
  3  2  2  0  0  0  0
  4  3  1  0  0  0  0
  4  5  1  0  0  0  0
  5  1  2  0  0  0  0
  7  3  1  0  0  0  0
  8 13  1  6  0  0  0
  8 19  1  0  0  0  0
  9 14  1  6  0  0  0
  9  8  1  0  0  0  0
  9  4  1  0  0  0  0
 10  9  1  0  0  0  0
 10 15  1  0  0  0  0
 11 12  1  0  0  0  0
 11 10  1  0  0  0  0
 12 17  1  0  0  0  0
 12  8  1  0  0  0  0
 16 10  1  0  0  0  0
 18 12  1  0  0  0  0
 19 20  1  0  0  0  0
 20 23  1  0  0  0  0
 20 21  1  0  0  0  0
 22 20  1  0  0  0  0
 24 32  1  0  0  0  0
 25 30  1  0  0  0  0
 25 24  2  0  0  0  0
 26 25  1  0  0  0  0
 27 26  2  0  0  0  0
 27 28  1  0  0  0  0
 28 29  2  0  0  0  0
 29 24  1  0  0  0  0
 31 28  1  0  0  0  0
 32 33  1  0  0  0  0
 33 34  1  0  0  0  0
 33 36  1  0  0  0  0
 35 33  1  0  0  0  0
M  END
>  <minimizedAffinity>
-5.33310413

$$$$
