
 OpenBabel03272508163D

 26 27  0  0  0  0  0  0  0  0999 V2000
   34.9960   30.0370   49.3630 Cl  0  0  0  0  0  0  0  0  0  0  0  0
   35.8890   30.2320   47.9000 C   0  0  0  0  0  0  0  0  0  0  0  0
   35.1240   30.0740   46.7820 C   0  0  0  0  0  0  0  0  0  0  0  0
   35.7510   30.2120   45.5180 C   0  0  0  0  0  0  0  0  0  0  0  0
   37.0780   30.4940   45.4100 C   0  0  0  0  0  0  0  0  0  0  0  0
   37.8280   30.6500   46.5580 C   0  0  0  0  0  0  0  0  0  0  0  0
   39.5220   31.0060   46.4730 Cl  0  0  0  0  0  0  0  0  0  0  0  0
   37.2240   30.5160   47.7670 C   0  0  0  0  0  0  0  0  0  0  0  0
   35.2330   30.1070   44.5830 H   0  0  0  0  0  0  0  0  0  0  0  0
   37.5830   30.6060   44.4570 H   0  0  0  0  0  0  0  0  0  0  0  0
   33.2520   28.5090   47.1220 C   0  0  0  0  0  0  0  0  0  0  0  0
   33.6840   29.7690   46.6470 C   0  0  0  0  0  0  0  0  0  0  0  0
   32.7580   30.6350   46.0900 C   0  0  0  0  0  0  0  0  0  0  0  0
   31.4610   30.2150   46.0300 N   0  0  0  0  0  0  0  0  0  0  0  0
   31.0700   29.0090   46.4880 C   0  0  0  0  0  0  0  0  0  0  0  0
   31.9770   28.1400   47.0430 N   0  0  0  0  0  0  0  0  0  0  0  0
   33.9220   27.8040   47.5590 H   0  0  0  0  0  0  0  0  0  0  0  0
   33.1150   31.5790   45.7400 H   0  0  0  0  0  0  0  0  0  0  0  0
   30.0270   28.8030   46.3820 H   0  0  0  0  0  0  0  0  0  0  0  0
   37.9490   30.6670   49.0430 C   0  0  0  0  0  0  0  0  0  0  0  0
   37.9970   29.9110   50.0110 O   0  0  0  0  0  0  0  0  0  0  0  0
   38.7660   31.7570   49.4200 O   0  0  0  0  0  0  0  0  0  0  0  0
   38.3390   33.0780   49.3560 C   0  0  0  0  0  0  0  0  0  0  0  0
   38.2670   33.4860   48.0270 F   0  0  0  0  0  0  0  0  0  0  0  0
   37.0620   33.1120   49.8830 F   0  0  0  0  0  0  0  0  0  0  0  0
   39.1360   33.9580   50.0510 F   0  0  0  0  0  0  0  0  0  0  0  0
  2  1  1  0  0  0  0
  3  2  2  0  0  0  0
  4  3  1  0  0  0  0
  5  4  2  0  0  0  0
  5  6  1  0  0  0  0
  6  8  2  0  0  0  0
  7  6  1  0  0  0  0
  8  2  1  0  0  0  0
  8 20  1  0  0  0  0
  9  4  1  0  0  0  0
 10  5  1  0  0  0  0
 11 17  1  0  0  0  0
 12  3  1  0  0  0  0
 12 11  2  0  0  0  0
 13 12  1  0  0  0  0
 14 13  2  0  0  0  0
 14 15  1  0  0  0  0
 15 16  2  0  0  0  0
 16 11  1  0  0  0  0
 18 13  1  0  0  0  0
 19 15  1  0  0  0  0
 20 22  1  0  0  0  0
 20 21  2  0  0  0  0
 23 22  1  0  0  0  0
 23 25  1  0  0  0  0
 23 26  1  0  0  0  0
 24 23  1  0  0  0  0
M  END
>  <minimizedAffinity>
-5.7826438

>  <minimizedRMSD>
3.04679704

$$$$
