
 OpenBabel03272510103D

 23 24  0  0  0  0  0  0  0  0999 V2000
   37.7530   31.2210   48.6740 C   0  0  0  0  0  0  0  0  0  0  0  0
   38.2330   32.4850   48.8700 C   0  0  0  0  0  0  0  0  0  0  0  0
   39.0660   33.1500   48.0060 C   0  0  0  0  0  0  0  0  0  0  0  0
   39.4740   32.5340   46.8390 C   0  0  0  0  0  0  0  0  0  0  0  0
   38.9800   31.2420   46.6450 C   0  0  0  0  0  0  0  0  0  0  0  0
   38.1640   30.6320   47.5240 N   0  0  0  0  0  0  0  0  0  0  0  0
   37.9540   33.0360   49.7710 H   0  0  0  0  0  0  0  0  0  0  0  0
   39.4520   34.1500   48.1520 H   0  0  0  0  0  0  0  0  0  0  0  0
   39.2590   30.6930   45.7480 H   0  0  0  0  0  0  0  0  0  0  0  0
   37.2620   30.0780   50.8570 C   0  0  0  0  0  0  0  0  0  0  0  0
   36.8790   30.5390   49.5920 C   0  0  0  0  0  0  0  0  0  0  0  0
   35.5610   30.3160   49.2060 C   0  0  0  0  0  0  0  0  0  0  0  0
   34.7210   29.6670   50.0730 N   0  0  0  0  0  0  0  0  0  0  0  0
   35.1460   29.2450   51.2810 C   0  0  0  0  0  0  0  0  0  0  0  0
   36.4150   29.4460   51.6810 N   0  0  0  0  0  0  0  0  0  0  0  0
   38.2930   30.2570   51.1470 H   0  0  0  0  0  0  0  0  0  0  0  0
   35.1620   30.6350   48.2420 H   0  0  0  0  0  0  0  0  0  0  0  0
   34.3450   28.7560   51.8230 H   0  0  0  0  0  0  0  0  0  0  0  0
   40.3060   33.0440   45.8550 O   0  0  0  0  0  0  0  0  0  0  0  0
   39.9170   33.2920   44.5390 C   0  0  0  0  0  0  0  0  0  0  0  0
   40.5230   32.3770   43.6900 F   0  0  0  0  0  0  0  0  0  0  0  0
   38.5520   33.1910   44.3190 F   0  0  0  0  0  0  0  0  0  0  0  0
   40.3980   34.5520   44.1950 F   0  0  0  0  0  0  0  0  0  0  0  0
  1  2  1  0  0  0  0
  1 11  1  0  0  0  0
  2  7  1  0  0  0  0
  3  8  1  0  0  0  0
  3  2  2  0  0  0  0
  4  3  1  0  0  0  0
  5  4  2  0  0  0  0
  5  6  1  0  0  0  0
  6  1  2  0  0  0  0
  9  5  1  0  0  0  0
 10 16  1  0  0  0  0
 10 15  1  0  0  0  0
 11 10  2  0  0  0  0
 12 11  1  0  0  0  0
 12 13  2  0  0  0  0
 13 14  1  0  0  0  0
 14 15  2  0  0  0  0
 14 18  1  0  0  0  0
 17 12  1  0  0  0  0
 19  4  1  0  0  0  0
 20 19  1  0  0  0  0
 21 20  1  0  0  0  0
 22 20  1  0  0  0  0
 23 20  1  0  0  0  0
M  END
>  <minimizedAffinity>
-5.44461823

>  <minimizedRMSD>
1.45237887

$$$$
