
 OpenBabel03272510103D

 23 24  0  0  0  0  0  0  0  0999 V2000
   37.7140   31.2140   48.7030 C   0  0  0  0  0  0  0  0  0  0  0  0
   38.1810   32.4790   48.9200 C   0  0  0  0  0  0  0  0  0  0  0  0
   39.0370   33.1530   48.0850 C   0  0  0  0  0  0  0  0  0  0  0  0
   39.4840   32.5440   46.9280 C   0  0  0  0  0  0  0  0  0  0  0  0
   39.0040   31.2500   46.7140 C   0  0  0  0  0  0  0  0  0  0  0  0
   38.1650   30.6320   47.5640 N   0  0  0  0  0  0  0  0  0  0  0  0
   37.8710   33.0240   49.8140 H   0  0  0  0  0  0  0  0  0  0  0  0
   39.4120   34.1540   48.2460 H   0  0  0  0  0  0  0  0  0  0  0  0
   39.3140   30.7070   45.8230 H   0  0  0  0  0  0  0  0  0  0  0  0
   37.1680   30.0420   50.8580 C   0  0  0  0  0  0  0  0  0  0  0  0
   36.8160   30.5220   49.5910 C   0  0  0  0  0  0  0  0  0  0  0  0
   35.5070   30.3110   49.1720 C   0  0  0  0  0  0  0  0  0  0  0  0
   34.6440   29.6540   50.0090 N   0  0  0  0  0  0  0  0  0  0  0  0
   35.0390   29.2120   51.2210 C   0  0  0  0  0  0  0  0  0  0  0  0
   36.2990   29.4020   51.6530 N   0  0  0  0  0  0  0  0  0  0  0  0
   38.1930   30.2120   51.1740 H   0  0  0  0  0  0  0  0  0  0  0  0
   35.1320   30.6450   48.2030 H   0  0  0  0  0  0  0  0  0  0  0  0
   34.2230   28.7200   51.7370 H   0  0  0  0  0  0  0  0  0  0  0  0
   40.3430   33.0630   45.9730 O   0  0  0  0  0  0  0  0  0  0  0  0
   39.9900   33.3280   44.6500 C   0  0  0  0  0  0  0  0  0  0  0  0
   38.6140   33.2330   44.5020 F   0  0  0  0  0  0  0  0  0  0  0  0
   40.3490   34.5900   44.2060 F   0  0  0  0  0  0  0  0  0  0  0  0
   40.5570   32.3290   43.8630 F   0  0  0  0  0  0  0  0  0  0  0  0
  1  2  1  0  0  0  0
  1 11  1  0  0  0  0
  2  7  1  0  0  0  0
  3  8  1  0  0  0  0
  3  2  2  0  0  0  0
  4  3  1  0  0  0  0
  5  4  2  0  0  0  0
  5  6  1  0  0  0  0
  6  1  2  0  0  0  0
  9  5  1  0  0  0  0
 10 16  1  0  0  0  0
 10 15  1  0  0  0  0
 11 10  2  0  0  0  0
 12 11  1  0  0  0  0
 12 13  2  0  0  0  0
 13 14  1  0  0  0  0
 14 15  2  0  0  0  0
 14 18  1  0  0  0  0
 17 12  1  0  0  0  0
 19  4  1  0  0  0  0
 20 19  1  0  0  0  0
 21 20  1  0  0  0  0
 22 20  1  0  0  0  0
 23 20  1  0  0  0  0
M  END
>  <minimizedAffinity>
-5.47815609

>  <minimizedRMSD>
1.48651707

$$$$
