
 OpenBabel03272510243D

 27 29  0  0  0  0  0  0  0  0999 V2000
   35.5520   29.8050   47.1090 C   0  0  0  0  0  0  0  0  0  0  0  0
   36.5950   30.4350   47.7560 C   0  0  0  0  0  0  0  0  0  0  0  0
   37.4570   31.2560   47.0650 C   0  0  0  0  0  0  0  0  0  0  0  0
   37.2300   31.4180   45.7000 C   0  0  0  0  0  0  0  0  0  0  0  0
   37.9430   32.1740   44.8100 N   0  0  0  0  0  0  0  0  0  0  0  0
   37.3490   32.0130   43.6300 C   0  0  0  0  0  0  0  0  0  0  0  0
   36.3050   31.2040   43.7150 N   0  0  0  0  0  0  0  0  0  0  0  0
   36.2000   30.8070   45.0130 C   0  0  0  0  0  0  0  0  0  0  0  0
   35.3430   29.9820   45.7420 C   0  0  0  0  0  0  0  0  0  0  0  0
   34.8450   29.1470   47.6140 H   0  0  0  0  0  0  0  0  0  0  0  0
   38.2730   31.7490   47.5700 H   0  0  0  0  0  0  0  0  0  0  0  0
   38.7890   32.7530   45.0620 H   0  0  0  0  0  0  0  0  0  0  0  0
   34.5370   29.5000   45.2140 H   0  0  0  0  0  0  0  0  0  0  0  0
   37.8630   30.2750   51.2930 C   0  0  0  0  0  0  0  0  0  0  0  0
   37.8490   30.5620   49.9320 C   0  0  0  0  0  0  0  0  0  0  0  0
   36.7420   30.1980   49.1830 C   0  0  0  0  0  0  0  0  0  0  0  0
   35.7060   29.5670   49.8300 N   0  0  0  0  0  0  0  0  0  0  0  0
   35.7440   29.2980   51.1600 C   0  0  0  0  0  0  0  0  0  0  0  0
   36.8080   29.6490   51.8740 N   0  0  0  0  0  0  0  0  0  0  0  0
   38.7140   30.5480   51.9030 H   0  0  0  0  0  0  0  0  0  0  0  0
   38.6570   31.0530   49.4350 H   0  0  0  0  0  0  0  0  0  0  0  0
   34.8530   28.7970   51.5180 H   0  0  0  0  0  0  0  0  0  0  0  0
   37.8190   32.6500   42.4810 O   0  0  0  0  0  0  0  0  0  0  0  0
   39.1700   32.7830   42.1680 C   0  0  0  0  0  0  0  0  0  0  0  0
   39.8270   31.6100   42.4920 F   0  0  0  0  0  0  0  0  0  0  0  0
   39.7740   33.7860   42.9200 F   0  0  0  0  0  0  0  0  0  0  0  0
   39.2780   33.0730   40.8210 F   0  0  0  0  0  0  0  0  0  0  0  0
  1 10  1  0  0  0  0
  1  2  1  0  0  0  0
  2 16  1  0  0  0  0
  3 11  1  0  0  0  0
  3  2  2  0  0  0  0
  4  3  1  0  0  0  0
  5 12  1  0  0  0  0
  5  4  1  0  0  0  0
  6  7  2  0  0  0  0
  6  5  1  0  0  0  0
  7  8  1  0  0  0  0
  8  4  2  0  0  0  0
  8  9  1  0  0  0  0
  9  1  2  0  0  0  0
 13  9  1  0  0  0  0
 14 19  1  0  0  0  0
 14 20  1  0  0  0  0
 15 14  2  0  0  0  0
 16 17  2  0  0  0  0
 16 15  1  0  0  0  0
 17 18  1  0  0  0  0
 18 22  1  0  0  0  0
 18 19  2  0  0  0  0
 21 15  1  0  0  0  0
 23  6  1  0  0  0  0
 24 23  1  0  0  0  0
 24 25  1  0  0  0  0
 24 26  1  0  0  0  0
 27 24  1  0  0  0  0
M  END
>  <minimizedAffinity>
-4.78161955

>  <minimizedRMSD>
2.6665597

$$$$
