
 OpenBabel03272504383D

 37 38  0  0  0  0  0  0  0  0999 V2000
   37.6060   30.4620   48.5200 Cl  0  0  0  0  0  0  0  0  0  0  0  0
   36.4480   30.3110   47.1980 C   0  0  0  0  0  0  0  0  0  0  0  0
   36.8120   30.7010   45.9460 C   0  0  0  0  0  0  0  0  0  0  0  0
   35.9230   30.5880   44.9110 C   0  0  0  0  0  0  0  0  0  0  0  0
   34.6640   30.0760   45.1660 C   0  0  0  0  0  0  0  0  0  0  0  0
   34.3410   29.6910   46.4700 C   0  0  0  0  0  0  0  0  0  0  0  0
   35.2140   29.7950   47.5110 C   0  0  0  0  0  0  0  0  0  0  0  0
   36.2570   30.9130   43.9210 H   0  0  0  0  0  0  0  0  0  0  0  0
   34.0430   30.0310   44.2780 H   0  0  0  0  0  0  0  0  0  0  0  0
   33.3690   29.3380   46.4520 H   0  0  0  0  0  0  0  0  0  0  0  0
   39.8230   32.8410   45.9850 C   0  0  0  0  0  0  0  0  0  0  0  0
   40.6830   32.1040   45.1030 C   0  0  0  0  0  0  0  0  0  0  0  0
   40.1920   30.9150   44.5390 C   0  0  0  0  0  0  0  0  0  0  0  0
   38.9330   30.5160   44.8510 N   0  0  0  0  0  0  0  0  0  0  0  0
   38.1430   31.2400   45.6930 C   0  0  0  0  0  0  0  0  0  0  0  0
   38.5930   32.3720   46.2370 N   0  0  0  0  0  0  0  0  0  0  0  0
   40.2350   33.7500   46.4000 H   0  0  0  0  0  0  0  0  0  0  0  0
   41.6800   32.4580   44.8800 H   0  0  0  0  0  0  0  0  0  0  0  0
   41.0640   30.2300   43.6840 N   0  0  0  0  0  0  0  0  0  0  0  0
   41.2620   30.3620   42.6540 H   0  0  0  0  0  0  0  0  0  0  0  0
   41.6660   29.4420   44.0120 H   0  0  0  0  0  0  0  0  0  0  0  0
   34.8590   29.3960   48.8540 C   0  0  0  0  0  0  0  0  0  0  0  0
   35.7700   29.4220   49.4860 H   0  0  0  0  0  0  0  0  0  0  0  0
   34.2210   30.2250   49.2830 H   0  0  0  0  0  0  0  0  0  0  0  0
   34.1800   28.1210   49.0700 C   0  0  0  0  0  0  0  0  0  0  0  0
   34.2600   27.4750   48.1650 H   0  0  0  0  0  0  0  0  0  0  0  0
   34.6320   27.5190   49.8960 H   0  0  0  0  0  0  0  0  0  0  0  0
   32.8520   28.3030   49.3990 O   0  0  0  0  0  0  0  0  0  0  0  0
   32.6620   26.6870   47.3220 O   0  0  0  0  0  0  0  0  0  0  0  0
   31.8650   27.5440   48.2750 P   0  0  2  0  0  0  0  0  0  0  0  0
   31.0410   28.7960   47.4380 O   0  0  0  0  0  0  0  0  0  0  0  0
   30.4640   28.4360   46.7190 H   0  0  0  0  0  0  0  0  0  0  0  0
   30.6950   26.5950   48.9940 O   0  0  0  0  0  0  0  0  0  0  0  0
   29.8370   27.3650   49.7600 C   0  0  0  0  0  0  0  0  0  0  0  0
   29.3060   26.6460   50.8300 F   0  0  0  0  0  0  0  0  0  0  0  0
   30.4980   28.4400   50.3150 F   0  0  0  0  0  0  0  0  0  0  0  0
   28.7890   27.8190   48.9820 F   0  0  0  0  0  0  0  0  0  0  0  0
  2  7  1  0  0  0  0
  2  1  1  0  0  0  0
  3  2  2  0  0  0  0
  4  5  2  0  0  0  0
  4  3  1  0  0  0  0
  5  6  1  0  0  0  0
  6  7  2  0  0  0  0
  7 22  1  0  0  0  0
  8  4  1  0  0  0  0
  9  5  1  0  0  0  0
 10  6  1  0  0  0  0
 11 16  1  0  0  0  0
 11 17  1  0  0  0  0
 12 11  2  0  0  0  0
 13 14  2  0  0  0  0
 13 12  1  0  0  0  0
 14 15  1  0  0  0  0
 15  3  1  0  0  0  0
 15 16  2  0  0  0  0
 18 12  1  0  0  0  0
 19 21  1  0  0  0  0
 19 13  1  0  0  0  0
 20 19  1  0  0  0  0
 22 25  1  0  0  0  0
 22 24  1  0  0  0  0
 22 23  1  0  0  0  0
 25 28  1  0  0  0  0
 25 27  1  0  0  0  0
 26 25  1  0  0  0  0
 30 29  2  6  0  0  0
 30 33  1  0  0  0  0
 30 28  1  0  0  0  0
 31 30  1  0  0  0  0
 32 31  1  0  0  0  0
 33 34  1  0  0  0  0
 34 36  1  0  0  0  0
 34 35  1  0  0  0  0
 37 34  1  0  0  0  0
M  END
>  <minimizedAffinity>
-5.94926167

>  <minimizedRMSD>
0.622287035

$$$$
