
 OpenBabel03272506443D

 27 28  0  0  1  0  0  0  0  0999 V2000
   39.0320   26.5190   35.4470 C   0  0  2  0  0  0  0  0  0  0  0  0
   38.3440   26.7920   34.1280 C   0  0  1  0  0  0  0  0  0  0  0  0
   38.0400   25.5900   33.5490 O   0  0  0  0  0  0  0  0  0  0  0  0
   38.2290   24.5760   34.4810 C   0  0  0  0  0  0  0  0  0  0  0  0
   38.2810   25.2520   35.8410 C   0  0  1  0  0  0  0  0  0  0  0  0
   40.1070   26.3650   35.3430 H   0  0  0  0  0  0  0  0  0  0  0  0
   38.9800   27.4240   33.4580 H   0  0  0  0  0  0  0  0  0  0  0  0
   37.4470   23.8030   34.4350 H   0  0  0  0  0  0  0  0  0  0  0  0
   39.2540   24.1540   34.3110 H   0  0  0  0  0  0  0  0  0  0  0  0
   37.2850   25.5550   36.2120 H   0  0  0  0  0  0  0  0  0  0  0  0
   38.7970   27.5550   36.3610 O   0  0  0  0  0  0  0  0  0  0  0  0
   37.8360   27.7920   36.3200 H   0  0  0  0  0  0  0  0  0  0  0  0
   36.7760   27.6470   34.5050 S   0  0  0  0  0  0  0  0  0  0  0  0
   35.0250   30.3720   32.2100 C   0  0  0  0  0  0  0  0  0  0  0  0
   35.6150   30.2100   30.9420 C   0  0  0  0  0  0  0  0  0  0  0  0
   36.5990   29.2080   30.8070 C   0  0  0  0  0  0  0  0  0  0  0  0
   36.9190   28.4630   31.8880 N   0  0  0  0  0  0  0  0  0  0  0  0
   36.3260   28.6530   33.0910 C   0  0  0  0  0  0  0  0  0  0  0  0
   35.3850   29.5980   33.2580 N   0  0  0  0  0  0  0  0  0  0  0  0
   34.2630   31.1160   32.4000 H   0  0  0  0  0  0  0  0  0  0  0  0
   35.3110   30.8370   30.1270 H   0  0  0  0  0  0  0  0  0  0  0  0
   37.0700   29.0520   29.8670 H   0  0  0  0  0  0  0  0  0  0  0  0
   39.0020   24.4680   36.7310 O   0  0  0  0  0  0  0  0  0  0  0  0
   38.2410   24.0370   37.8020 C   0  0  0  0  0  0  0  0  0  0  0  0
   39.0400   23.2250   38.5910 F   0  0  0  0  0  0  0  0  0  0  0  0
   37.9720   25.1550   38.5800 F   0  0  0  0  0  0  0  0  0  0  0  0
   37.1000   23.3710   37.4690 F   0  0  0  0  0  0  0  0  0  0  0  0
  1  6  1  6  0  0  0
  1  5  1  0  0  0  0
  1 11  1  0  0  0  0
  2  7  1  6  0  0  0
  2 13  1  0  0  0  0
  2  1  1  0  0  0  0
  3  2  1  0  0  0  0
  3  4  1  0  0  0  0
  4  5  1  0  0  0  0
  5 10  1  1  0  0  0
  5 23  1  0  0  0  0
  8  4  1  0  0  0  0
  9  4  1  0  0  0  0
 12 11  1  0  0  0  0
 14 20  1  0  0  0  0
 14 19  1  0  0  0  0
 15 14  2  0  0  0  0
 16 15  1  0  0  0  0
 16 17  2  0  0  0  0
 17 18  1  0  0  0  0
 18 19  2  0  0  0  0
 18 13  1  0  0  0  0
 21 15  1  0  0  0  0
 22 16  1  0  0  0  0
 23 24  1  0  0  0  0
 24 26  1  0  0  0  0
 24 25  1  0  0  0  0
 27 24  1  0  0  0  0
M  END
>  <minimizedAffinity>
-4.79586506

$$$$

 OpenBabel03272506443D

 27 28  0  0  1  0  0  0  0  0999 V2000
   37.8650   23.7360   36.4590 C   0  0  2  0  0  0  0  0  0  0  0  0
   38.8260   22.5820   36.2790 C   0  0  1  0  0  0  0  0  0  0  0  0
   39.4910   22.7610   35.0960 O   0  0  0  0  0  0  0  0  0  0  0  0
   39.2410   24.0450   34.6240 C   0  0  0  0  0  0  0  0  0  0  0  0
   38.6970   24.8340   35.8040 C   0  0  1  0  0  0  0  0  0  0  0  0
   36.9070   23.5730   35.9640 H   0  0  0  0  0  0  0  0  0  0  0  0
   38.2950   21.5980   36.3090 H   0  0  0  0  0  0  0  0  0  0  0  0
   40.1330   24.5210   34.1880 H   0  0  0  0  0  0  0  0  0  0  0  0
   38.3970   23.9720   33.8900 H   0  0  0  0  0  0  0  0  0  0  0  0
   39.4810   25.1330   36.5230 H   0  0  0  0  0  0  0  0  0  0  0  0
   37.6480   24.0040   37.8160 O   0  0  0  0  0  0  0  0  0  0  0  0
   38.5240   23.9850   38.2790 H   0  0  0  0  0  0  0  0  0  0  0  0
   40.0490   22.6840   37.6310 S   0  0  0  0  0  0  0  0  0  0  0  0
   43.2240   20.6460   36.3970 C   0  0  0  0  0  0  0  0  0  0  0  0
   44.1300   21.6250   35.9490 C   0  0  0  0  0  0  0  0  0  0  0  0
   43.7260   22.9740   36.0390 C   0  0  0  0  0  0  0  0  0  0  0  0
   42.5050   23.2520   36.5450 N   0  0  0  0  0  0  0  0  0  0  0  0
   41.6630   22.2790   36.9650 C   0  0  0  0  0  0  0  0  0  0  0  0
   42.0130   20.9830   36.8950 N   0  0  0  0  0  0  0  0  0  0  0  0
   43.4540   19.5890   36.3630 H   0  0  0  0  0  0  0  0  0  0  0  0
   45.0840   21.3310   35.5580 H   0  0  0  0  0  0  0  0  0  0  0  0
   44.3810   23.7450   35.7110 H   0  0  0  0  0  0  0  0  0  0  0  0
   37.9150   25.8860   35.3480 O   0  0  0  0  0  0  0  0  0  0  0  0
   38.3040   27.1070   35.8680 C   0  0  0  0  0  0  0  0  0  0  0  0
   38.2690   27.0100   37.2500 F   0  0  0  0  0  0  0  0  0  0  0  0
   39.6450   27.2720   35.5450 F   0  0  0  0  0  0  0  0  0  0  0  0
   37.5550   28.1710   35.4650 F   0  0  0  0  0  0  0  0  0  0  0  0
  1  6  1  6  0  0  0
  1 11  1  0  0  0  0
  2  7  1  1  0  0  0
  2  1  1  0  0  0  0
  2 13  1  0  0  0  0
  3  2  1  0  0  0  0
  4  3  1  0  0  0  0
  4  5  1  0  0  0  0
  5  1  1  0  0  0  0
  5 10  1  1  0  0  0
  8  4  1  0  0  0  0
  9  4  1  0  0  0  0
 11 12  1  0  0  0  0
 14 19  1  0  0  0  0
 15 16  1  0  0  0  0
 15 14  2  0  0  0  0
 16 17  2  0  0  0  0
 17 18  1  0  0  0  0
 18 13  1  0  0  0  0
 19 18  2  0  0  0  0
 20 14  1  0  0  0  0
 21 15  1  0  0  0  0
 22 16  1  0  0  0  0
 23  5  1  0  0  0  0
 23 24  1  0  0  0  0
 24 25  1  0  0  0  0
 26 24  1  0  0  0  0
 27 24  1  0  0  0  0
M  END
>  <minimizedAffinity>
-4.55938816

$$$$

 OpenBabel03272506443D

 27 28  0  0  1  0  0  0  0  0999 V2000
   38.5780   23.0130   36.1210 C   0  0  2  0  0  0  0  0  0  0  0  0
   37.7210   24.1790   36.5600 C   0  0  1  0  0  0  0  0  0  0  0  0
   37.7220   24.2180   37.9280 O   0  0  0  0  0  0  0  0  0  0  0  0
   38.7010   23.3540   38.4070 C   0  0  0  0  0  0  0  0  0  0  0  0
   39.6210   23.0620   37.2330 C   0  0  1  0  0  0  0  0  0  0  0  0
   38.0300   22.0700   36.0890 H   0  0  0  0  0  0  0  0  0  0  0  0
   36.6830   24.1020   36.1500 H   0  0  0  0  0  0  0  0  0  0  0  0
   39.2500   23.7660   39.2670 H   0  0  0  0  0  0  0  0  0  0  0  0
   38.1970   22.3820   38.6500 H   0  0  0  0  0  0  0  0  0  0  0  0
   40.3120   23.8930   37.0070 H   0  0  0  0  0  0  0  0  0  0  0  0
   39.1580   23.2570   34.8700 O   0  0  0  0  0  0  0  0  0  0  0  0
   39.5070   24.1830   34.8660 H   0  0  0  0  0  0  0  0  0  0  0  0
   38.5300   25.7000   35.9540 S   0  0  0  0  0  0  0  0  0  0  0  0
   36.5250   27.9980   33.4130 C   0  0  0  0  0  0  0  0  0  0  0  0
   36.2840   27.1760   32.2960 C   0  0  0  0  0  0  0  0  0  0  0  0
   36.7690   25.8530   32.3460 C   0  0  0  0  0  0  0  0  0  0  0  0
   37.4330   25.4470   33.4510 N   0  0  0  0  0  0  0  0  0  0  0  0
   37.6450   26.2710   34.5040 C   0  0  0  0  0  0  0  0  0  0  0  0
   37.1960   27.5390   34.4930 N   0  0  0  0  0  0  0  0  0  0  0  0
   36.1870   29.0250   33.4570 H   0  0  0  0  0  0  0  0  0  0  0  0
   35.7490   27.5650   31.4530 H   0  0  0  0  0  0  0  0  0  0  0  0
   36.6090   25.1990   31.5230 H   0  0  0  0  0  0  0  0  0  0  0  0
   40.2490   21.8380   37.4190 O   0  0  0  0  0  0  0  0  0  0  0  0
   41.5460   21.8230   36.9390 C   0  0  0  0  0  0  0  0  0  0  0  0
   42.0700   23.0970   37.0930 F   0  0  0  0  0  0  0  0  0  0  0  0
   42.2820   21.0160   37.7950 F   0  0  0  0  0  0  0  0  0  0  0  0
   41.6760   21.4290   35.6410 F   0  0  0  0  0  0  0  0  0  0  0  0
  1  6  1  1  0  0  0
  1  2  1  0  0  0  0
  1  5  1  0  0  0  0
  2  7  1  6  0  0  0
  2  3  1  0  0  0  0
  3  4  1  0  0  0  0
  4  9  1  0  0  0  0
  4  8  1  0  0  0  0
  5 10  1  6  0  0  0
  5 23  1  0  0  0  0
  5  4  1  0  0  0  0
 11  1  1  0  0  0  0
 12 11  1  0  0  0  0
 13  2  1  0  0  0  0
 14 20  1  0  0  0  0
 14 19  1  0  0  0  0
 15 16  1  0  0  0  0
 15 14  2  0  0  0  0
 16 17  2  0  0  0  0
 17 18  1  0  0  0  0
 18 13  1  0  0  0  0
 19 18  2  0  0  0  0
 21 15  1  0  0  0  0
 22 16  1  0  0  0  0
 24 25  1  0  0  0  0
 24 23  1  0  0  0  0
 24 26  1  0  0  0  0
 27 24  1  0  0  0  0
M  END
>  <minimizedAffinity>
-4.42582035

$$$$

 OpenBabel03272506443D

 27 28  0  0  1  0  0  0  0  0999 V2000
   40.3550   23.5700   35.2830 C   0  0  2  0  0  0  0  0  0  0  0  0
   39.8640   24.1780   33.9870 C   0  0  1  0  0  0  0  0  0  0  0  0
   38.5030   24.0410   33.9400 O   0  0  0  0  0  0  0  0  0  0  0  0
   38.0440   23.6400   35.1900 C   0  0  0  0  0  0  0  0  0  0  0  0
   39.1680   23.9300   36.1700 C   0  0  1  0  0  0  0  0  0  0  0  0
   40.5250   22.4950   35.2100 H   0  0  0  0  0  0  0  0  0  0  0  0
   40.3580   23.7060   33.1000 H   0  0  0  0  0  0  0  0  0  0  0  0
   37.1060   24.1380   35.4790 H   0  0  0  0  0  0  0  0  0  0  0  0
   37.9410   22.5240   35.1640 H   0  0  0  0  0  0  0  0  0  0  0  0
   39.2540   25.0010   36.4250 H   0  0  0  0  0  0  0  0  0  0  0  0
   41.5270   24.1980   35.7210 O   0  0  0  0  0  0  0  0  0  0  0  0
   41.4090   25.1770   35.6230 H   0  0  0  0  0  0  0  0  0  0  0  0
   40.2470   25.9620   34.0510 S   0  0  0  0  0  0  0  0  0  0  0  0
   37.3130   27.8710   32.1790 C   0  0  0  0  0  0  0  0  0  0  0  0
   36.4340   28.2740   33.2010 C   0  0  0  0  0  0  0  0  0  0  0  0
   36.7780   27.9330   34.5260 C   0  0  0  0  0  0  0  0  0  0  0  0
   37.9210   27.2450   34.7420 N   0  0  0  0  0  0  0  0  0  0  0  0
   38.7380   26.8750   33.7280 C   0  0  0  0  0  0  0  0  0  0  0  0
   38.4430   27.1830   32.4530 N   0  0  0  0  0  0  0  0  0  0  0  0
   37.1250   28.0910   31.1360 H   0  0  0  0  0  0  0  0  0  0  0  0
   35.5440   28.8190   32.9560 H   0  0  0  0  0  0  0  0  0  0  0  0
   36.1420   28.2190   35.3280 H   0  0  0  0  0  0  0  0  0  0  0  0
   39.0610   23.0920   37.2710 O   0  0  0  0  0  0  0  0  0  0  0  0
   38.4400   23.6990   38.3480 C   0  0  0  0  0  0  0  0  0  0  0  0
   37.3700   22.9030   38.7250 F   0  0  0  0  0  0  0  0  0  0  0  0
   39.3320   23.6430   39.4100 F   0  0  0  0  0  0  0  0  0  0  0  0
   38.0070   24.9710   38.1210 F   0  0  0  0  0  0  0  0  0  0  0  0
  1  6  1  6  0  0  0
  1 11  1  0  0  0  0
  1  5  1  0  0  0  0
  2  7  1  6  0  0  0
  2 13  1  0  0  0  0
  2  1  1  0  0  0  0
  3  2  1  0  0  0  0
  3  4  1  0  0  0  0
  4  8  1  0  0  0  0
  4  5  1  0  0  0  0
  5 10  1  1  0  0  0
  5 23  1  0  0  0  0
  9  4  1  0  0  0  0
 12 11  1  0  0  0  0
 14 19  2  0  0  0  0
 14 15  1  0  0  0  0
 15 16  2  0  0  0  0
 16 17  1  0  0  0  0
 16 22  1  0  0  0  0
 18 13  1  0  0  0  0
 18 17  2  0  0  0  0
 19 18  1  0  0  0  0
 20 14  1  0  0  0  0
 21 15  1  0  0  0  0
 23 24  1  0  0  0  0
 24 25  1  0  0  0  0
 24 26  1  0  0  0  0
 27 24  1  0  0  0  0
M  END
>  <minimizedAffinity>
-4.40987015

$$$$

 OpenBabel03272506443D

 27 28  0  0  1  0  0  0  0  0999 V2000
   38.0030   22.0220   33.0840 C   0  0  2  0  0  0  0  0  0  0  0  0
   38.3380   23.1520   32.1360 C   0  0  1  0  0  0  0  0  0  0  0  0
   38.1510   22.7050   30.8560 O   0  0  0  0  0  0  0  0  0  0  0  0
   37.4810   21.4870   30.8940 C   0  0  0  0  0  0  0  0  0  0  0  0
   36.8770   21.3760   32.2830 C   0  0  1  0  0  0  0  0  0  0  0  0
   38.8440   21.3500   33.2580 H   0  0  0  0  0  0  0  0  0  0  0  0
   39.3820   23.5240   32.2950 H   0  0  0  0  0  0  0  0  0  0  0  0
   36.7190   21.3950   30.1050 H   0  0  0  0  0  0  0  0  0  0  0  0
   38.2560   20.6790   30.8320 H   0  0  0  0  0  0  0  0  0  0  0  0
   35.9740   22.0000   32.4140 H   0  0  0  0  0  0  0  0  0  0  0  0
   37.5390   22.5140   34.3100 O   0  0  0  0  0  0  0  0  0  0  0  0
   36.8920   23.2410   34.1270 H   0  0  0  0  0  0  0  0  0  0  0  0
   37.1350   24.4890   32.4470 S   0  0  0  0  0  0  0  0  0  0  0  0
   39.5940   26.1400   35.0890 C   0  0  0  0  0  0  0  0  0  0  0  0
   38.8820   27.2370   35.6100 C   0  0  0  0  0  0  0  0  0  0  0  0
   37.5820   27.4630   35.1110 C   0  0  0  0  0  0  0  0  0  0  0  0
   37.0940   26.6250   34.1700 N   0  0  0  0  0  0  0  0  0  0  0  0
   37.8140   25.5810   33.6960 C   0  0  0  0  0  0  0  0  0  0  0  0
   39.0560   25.3340   34.1480 N   0  0  0  0  0  0  0  0  0  0  0  0
   40.5960   25.8950   35.4170 H   0  0  0  0  0  0  0  0  0  0  0  0
   39.3330   27.8600   36.3570 H   0  0  0  0  0  0  0  0  0  0  0  0
   37.0100   28.2810   35.4780 H   0  0  0  0  0  0  0  0  0  0  0  0
   36.6960   20.0400   32.6140 O   0  0  0  0  0  0  0  0  0  0  0  0
   35.4820   19.8020   33.2340 C   0  0  0  0  0  0  0  0  0  0  0  0
   34.4860   20.3490   32.4400 F   0  0  0  0  0  0  0  0  0  0  0  0
   35.2730   18.4300   33.1940 F   0  0  0  0  0  0  0  0  0  0  0  0
   35.3760   20.2900   34.5010 F   0  0  0  0  0  0  0  0  0  0  0  0
  1  6  1  1  0  0  0
  1 11  1  0  0  0  0
  2  7  1  1  0  0  0
  2 13  1  0  0  0  0
  2  1  1  0  0  0  0
  3  4  1  0  0  0  0
  3  2  1  0  0  0  0
  4  5  1  0  0  0  0
  5 10  1  1  0  0  0
  5 23  1  0  0  0  0
  5  1  1  0  0  0  0
  8  4  1  0  0  0  0
  9  4  1  0  0  0  0
 12 11  1  0  0  0  0
 13 18  1  0  0  0  0
 14 20  1  0  0  0  0
 14 15  1  0  0  0  0
 15 21  1  0  0  0  0
 16 22  1  0  0  0  0
 16 15  2  0  0  0  0
 17 16  1  0  0  0  0
 18 19  1  0  0  0  0
 18 17  2  0  0  0  0
 19 14  2  0  0  0  0
 23 24  1  0  0  0  0
 24 27  1  0  0  0  0
 25 24  1  0  0  0  0
 26 24  1  0  0  0  0
M  END
>  <minimizedAffinity>
-4.3159523

$$$$

 OpenBabel03272506443D

 27 28  0  0  1  0  0  0  0  0999 V2000
   39.9420   23.7800   34.6610 C   0  0  2  0  0  0  0  0  0  0  0  0
   38.5920   24.1720   34.1020 C   0  0  1  0  0  0  0  0  0  0  0  0
   37.7400   23.1130   34.2620 O   0  0  0  0  0  0  0  0  0  0  0  0
   38.3330   22.1760   35.1000 C   0  0  0  0  0  0  0  0  0  0  0  0
   39.4670   22.8960   35.8090 C   0  0  1  0  0  0  0  0  0  0  0  0
   40.5620   23.2480   33.9390 H   0  0  0  0  0  0  0  0  0  0  0  0
   38.6670   24.4830   33.0290 H   0  0  0  0  0  0  0  0  0  0  0  0
   37.6220   21.7280   35.8110 H   0  0  0  0  0  0  0  0  0  0  0  0
   38.8210   21.4060   34.4460 H   0  0  0  0  0  0  0  0  0  0  0  0
   39.1180   23.5600   36.6200 H   0  0  0  0  0  0  0  0  0  0  0  0
   40.6360   24.9000   35.1340 O   0  0  0  0  0  0  0  0  0  0  0  0
   40.0040   25.4580   35.6550 H   0  0  0  0  0  0  0  0  0  0  0  0
   37.9690   25.5540   35.1200 S   0  0  0  0  0  0  0  0  0  0  0  0
   36.0050   28.6990   33.7030 C   0  0  0  0  0  0  0  0  0  0  0  0
   36.4250   28.8150   32.3650 C   0  0  0  0  0  0  0  0  0  0  0  0
   37.3590   27.8690   31.8940 C   0  0  0  0  0  0  0  0  0  0  0  0
   37.7970   26.9120   32.7410 N   0  0  0  0  0  0  0  0  0  0  0  0
   37.3670   26.8370   34.0220 C   0  0  0  0  0  0  0  0  0  0  0  0
   36.4760   27.7210   34.5070 N   0  0  0  0  0  0  0  0  0  0  0  0
   35.2910   29.3820   34.1450 H   0  0  0  0  0  0  0  0  0  0  0  0
   36.0340   29.6010   31.7490 H   0  0  0  0  0  0  0  0  0  0  0  0
   37.7030   27.9210   30.8890 H   0  0  0  0  0  0  0  0  0  0  0  0
   40.4340   21.9810   36.2030 O   0  0  0  0  0  0  0  0  0  0  0  0
   41.0230   22.3110   37.4100 C   0  0  0  0  0  0  0  0  0  0  0  0
   41.4870   21.1410   37.9900 F   0  0  0  0  0  0  0  0  0  0  0  0
   42.1600   23.0510   37.1140 F   0  0  0  0  0  0  0  0  0  0  0  0
   40.2120   22.9660   38.2880 F   0  0  0  0  0  0  0  0  0  0  0  0
  1  6  1  6  0  0  0
  1 11  1  0  0  0  0
  1  5  1  0  0  0  0
  2  7  1  6  0  0  0
  2  3  1  0  0  0  0
  2  1  1  0  0  0  0
  2 13  1  0  0  0  0
  3  4  1  0  0  0  0
  4  5  1  0  0  0  0
  4  8  1  0  0  0  0
  5 23  1  0  0  0  0
  5 10  1  1  0  0  0
  9  4  1  0  0  0  0
 11 12  1  0  0  0  0
 14 20  1  0  0  0  0
 14 19  1  0  0  0  0
 15 14  2  0  0  0  0
 16 15  1  0  0  0  0
 16 17  2  0  0  0  0
 17 18  1  0  0  0  0
 18 19  2  0  0  0  0
 18 13  1  0  0  0  0
 21 15  1  0  0  0  0
 22 16  1  0  0  0  0
 23 24  1  0  0  0  0
 24 25  1  0  0  0  0
 24 27  1  0  0  0  0
 26 24  1  0  0  0  0
M  END
>  <minimizedAffinity>
-4.29090929

$$$$

 OpenBabel03272506443D

 27 28  0  0  1  0  0  0  0  0999 V2000
   37.0500   26.5070   31.0350 C   0  0  2  0  0  0  0  0  0  0  0  0
   37.2850   25.0270   31.2420 C   0  0  1  0  0  0  0  0  0  0  0  0
   37.8570   24.8540   32.4740 O   0  0  0  0  0  0  0  0  0  0  0  0
   37.7750   26.0460   33.1840 C   0  0  0  0  0  0  0  0  0  0  0  0
   36.7320   26.8930   32.4760 C   0  0  1  0  0  0  0  0  0  0  0  0
   37.9240   27.0240   30.6360 H   0  0  0  0  0  0  0  0  0  0  0  0
   37.9190   24.5950   30.4280 H   0  0  0  0  0  0  0  0  0  0  0  0
   37.5300   25.8940   34.2460 H   0  0  0  0  0  0  0  0  0  0  0  0
   38.7500   26.5830   33.0460 H   0  0  0  0  0  0  0  0  0  0  0  0
   35.6960   26.5710   32.6870 H   0  0  0  0  0  0  0  0  0  0  0  0
   35.9540   26.7300   30.1940 O   0  0  0  0  0  0  0  0  0  0  0  0
   35.2200   26.1270   30.4750 H   0  0  0  0  0  0  0  0  0  0  0  0
   35.6470   24.2210   31.2650 S   0  0  0  0  0  0  0  0  0  0  0  0
   35.1540   20.5040   32.5680 C   0  0  0  0  0  0  0  0  0  0  0  0
   36.2220   19.7790   32.0070 C   0  0  0  0  0  0  0  0  0  0  0  0
   37.1290   20.4870   31.1910 C   0  0  0  0  0  0  0  0  0  0  0  0
   36.9270   21.8080   30.9920 N   0  0  0  0  0  0  0  0  0  0  0  0
   35.8850   22.4670   31.5500 C   0  0  0  0  0  0  0  0  0  0  0  0
   35.0000   21.8260   32.3350 N   0  0  0  0  0  0  0  0  0  0  0  0
   34.4130   20.0380   33.2060 H   0  0  0  0  0  0  0  0  0  0  0  0
   36.3210   18.7310   32.2090 H   0  0  0  0  0  0  0  0  0  0  0  0
   37.9500   19.9770   30.7470 H   0  0  0  0  0  0  0  0  0  0  0  0
   36.9680   28.2380   32.7240 O   0  0  0  0  0  0  0  0  0  0  0  0
   35.8700   28.8840   33.2630 C   0  0  0  0  0  0  0  0  0  0  0  0
   34.7470   28.4660   32.5660 F   0  0  0  0  0  0  0  0  0  0  0  0
   35.7070   28.3930   34.5510 F   0  0  0  0  0  0  0  0  0  0  0  0
   35.9360   30.2450   33.2490 F   0  0  0  0  0  0  0  0  0  0  0  0
  1  6  1  6  0  0  0
  1  2  1  0  0  0  0
  1  5  1  0  0  0  0
  2  7  1  6  0  0  0
  2 13  1  0  0  0  0
  2  3  1  0  0  0  0
  3  4  1  0  0  0  0
  4  8  1  0  0  0  0
  5 10  1  1  0  0  0
  5 23  1  0  0  0  0
  5  4  1  0  0  0  0
  9  4  1  0  0  0  0
 11 12  1  0  0  0  0
 11  1  1  0  0  0  0
 13 18  1  0  0  0  0
 14 20  1  0  0  0  0
 15 21  1  0  0  0  0
 15 14  2  0  0  0  0
 16 15  1  0  0  0  0
 17 16  2  0  0  0  0
 17 18  1  0  0  0  0
 18 19  2  0  0  0  0
 19 14  1  0  0  0  0
 22 16  1  0  0  0  0
 23 24  1  0  0  0  0
 24 26  1  0  0  0  0
 25 24  1  0  0  0  0
 27 24  1  0  0  0  0
M  END
>  <minimizedAffinity>
-4.22977352

$$$$

 OpenBabel03272506443D

 27 28  0  0  1  0  0  0  0  0999 V2000
   39.5490   23.8700   35.1180 C   0  0  2  0  0  0  0  0  0  0  0  0
   38.7410   23.7060   33.8500 C   0  0  1  0  0  0  0  0  0  0  0  0
   37.8720   22.6640   34.0300 O   0  0  0  0  0  0  0  0  0  0  0  0
   37.8590   22.3100   35.3750 C   0  0  0  0  0  0  0  0  0  0  0  0
   38.4760   23.4770   36.1280 C   0  0  1  0  0  0  0  0  0  0  0  0
   40.4260   23.2220   35.1510 H   0  0  0  0  0  0  0  0  0  0  0  0
   39.4020   23.5430   32.9610 H   0  0  0  0  0  0  0  0  0  0  0  0
   36.8510   22.0700   35.7440 H   0  0  0  0  0  0  0  0  0  0  0  0
   38.5730   21.4540   35.5010 H   0  0  0  0  0  0  0  0  0  0  0  0
   37.7880   24.3350   36.2350 H   0  0  0  0  0  0  0  0  0  0  0  0
   39.9480   25.2010   35.2910 O   0  0  0  0  0  0  0  0  0  0  0  0
   39.1720   25.7850   35.0950 H   0  0  0  0  0  0  0  0  0  0  0  0
   37.7570   25.2280   33.6380 S   0  0  0  0  0  0  0  0  0  0  0  0
   40.4410   27.2570   31.5310 C   0  0  0  0  0  0  0  0  0  0  0  0
   39.7320   27.7490   30.4200 C   0  0  0  0  0  0  0  0  0  0  0  0
   38.3610   27.4310   30.3320 C   0  0  0  0  0  0  0  0  0  0  0  0
   37.8060   26.6790   31.3080 N   0  0  0  0  0  0  0  0  0  0  0  0
   38.5250   26.2240   32.3600 C   0  0  0  0  0  0  0  0  0  0  0  0
   39.8340   26.5080   32.4790 N   0  0  0  0  0  0  0  0  0  0  0  0
   41.4960   27.4540   31.6760 H   0  0  0  0  0  0  0  0  0  0  0  0
   40.2380   28.3410   29.6830 H   0  0  0  0  0  0  0  0  0  0  0  0
   37.7880   27.7830   29.5080 H   0  0  0  0  0  0  0  0  0  0  0  0
   39.0190   23.0330   37.3250 O   0  0  0  0  0  0  0  0  0  0  0  0
   38.4420   23.6330   38.4300 C   0  0  0  0  0  0  0  0  0  0  0  0
   37.9450   24.8640   38.0330 F   0  0  0  0  0  0  0  0  0  0  0  0
   37.3260   22.8760   38.7620 F   0  0  0  0  0  0  0  0  0  0  0  0
   39.2730   23.7980   39.4970 F   0  0  0  0  0  0  0  0  0  0  0  0
  1  6  1  1  0  0  0
  1 11  1  0  0  0  0
  1  5  1  0  0  0  0
  2  7  1  6  0  0  0
  2  3  1  0  0  0  0
  2  1  1  0  0  0  0
  3  4  1  0  0  0  0
  4  9  1  0  0  0  0
  4  8  1  0  0  0  0
  4  5  1  0  0  0  0
  5 10  1  1  0  0  0
  5 23  1  0  0  0  0
 12 11  1  0  0  0  0
 13  2  1  0  0  0  0
 14 20  1  0  0  0  0
 14 19  1  0  0  0  0
 15 14  2  0  0  0  0
 16 15  1  0  0  0  0
 16 17  2  0  0  0  0
 17 18  1  0  0  0  0
 18 19  2  0  0  0  0
 18 13  1  0  0  0  0
 21 15  1  0  0  0  0
 22 16  1  0  0  0  0
 23 24  1  0  0  0  0
 24 26  1  0  0  0  0
 24 27  1  0  0  0  0
 25 24  1  0  0  0  0
M  END
>  <minimizedAffinity>
-4.22117662

$$$$

 OpenBabel03272506443D

 27 28  0  0  1  0  0  0  0  0999 V2000
   39.5590   24.2760   35.1070 C   0  0  2  0  0  0  0  0  0  0  0  0
   39.5010   23.4430   33.8460 C   0  0  1  0  0  0  0  0  0  0  0  0
   39.5020   22.1230   34.2060 O   0  0  0  0  0  0  0  0  0  0  0  0
   39.2930   22.0260   35.5770 C   0  0  0  0  0  0  0  0  0  0  0  0
   38.7400   23.3700   36.0190 C   0  0  1  0  0  0  0  0  0  0  0  0
   40.5770   24.4360   35.4640 H   0  0  0  0  0  0  0  0  0  0  0  0
   40.3490   23.6840   33.1560 H   0  0  0  0  0  0  0  0  0  0  0  0
   38.6250   21.1960   35.8500 H   0  0  0  0  0  0  0  0  0  0  0  0
   40.3010   21.9360   36.0620 H   0  0  0  0  0  0  0  0  0  0  0  0
   37.6750   23.5070   35.7580 H   0  0  0  0  0  0  0  0  0  0  0  0
   38.9320   25.5140   34.9220 O   0  0  0  0  0  0  0  0  0  0  0  0
   38.0770   25.3600   34.4460 H   0  0  0  0  0  0  0  0  0  0  0  0
   37.9050   23.8030   33.0360 S   0  0  0  0  0  0  0  0  0  0  0  0
   36.9070   20.6430   30.8500 C   0  0  0  0  0  0  0  0  0  0  0  0
   36.0690   19.8780   31.6820 C   0  0  0  0  0  0  0  0  0  0  0  0
   35.8100   20.3750   32.9770 C   0  0  0  0  0  0  0  0  0  0  0  0
   36.3720   21.5470   33.3460 N   0  0  0  0  0  0  0  0  0  0  0  0
   37.1740   22.2520   32.5130 C   0  0  0  0  0  0  0  0  0  0  0  0
   37.4440   21.8100   31.2730 N   0  0  0  0  0  0  0  0  0  0  0  0
   37.1580   20.3350   29.8440 H   0  0  0  0  0  0  0  0  0  0  0  0
   35.6570   18.9560   31.3230 H   0  0  0  0  0  0  0  0  0  0  0  0
   35.1820   19.8280   33.6380 H   0  0  0  0  0  0  0  0  0  0  0  0
   39.0240   23.5790   37.3620 O   0  0  0  0  0  0  0  0  0  0  0  0
   37.8930   23.8400   38.1140 C   0  0  0  0  0  0  0  0  0  0  0  0
   38.1740   24.9140   38.9440 F   0  0  0  0  0  0  0  0  0  0  0  0
   36.9230   24.3000   37.2340 F   0  0  0  0  0  0  0  0  0  0  0  0
   37.4410   22.7930   38.8590 F   0  0  0  0  0  0  0  0  0  0  0  0
  1  6  1  1  0  0  0
  1  5  1  0  0  0  0
  2  7  1  6  0  0  0
  2  3  1  0  0  0  0
  2  1  1  0  0  0  0
  3  4  1  0  0  0  0
  4  8  1  0  0  0  0
  4  5  1  0  0  0  0
  4  9  1  0  0  0  0
  5 10  1  6  0  0  0
  5 23  1  0  0  0  0
 11  1  1  0  0  0  0
 12 11  1  0  0  0  0
 13  2  1  0  0  0  0
 14 19  2  0  0  0  0
 14 15  1  0  0  0  0
 15 16  2  0  0  0  0
 16 17  1  0  0  0  0
 16 22  1  0  0  0  0
 18 13  1  0  0  0  0
 18 17  2  0  0  0  0
 19 18  1  0  0  0  0
 20 14  1  0  0  0  0
 21 15  1  0  0  0  0
 23 24  1  0  0  0  0
 24 27  1  0  0  0  0
 24 25  1  0  0  0  0
 26 24  1  0  0  0  0
M  END
>  <minimizedAffinity>
-4.18118429

$$$$
