
 OpenBabel03272510253D

 27 29  0  0  0  0  0  0  0  0999 V2000
   36.7850   26.4360   32.0410 C   0  0  0  0  0  0  0  0  0  0  0  0
   36.5620   27.5230   32.8620 C   0  0  0  0  0  0  0  0  0  0  0  0
   36.9170   27.4840   34.1910 C   0  0  0  0  0  0  0  0  0  0  0  0
   37.5020   26.3110   34.6630 C   0  0  0  0  0  0  0  0  0  0  0  0
   37.9350   26.0340   35.9320 N   0  0  0  0  0  0  0  0  0  0  0  0
   38.4170   24.7950   35.8950 C   0  0  0  0  0  0  0  0  0  0  0  0
   38.3190   24.2680   34.6850 N   0  0  0  0  0  0  0  0  0  0  0  0
   37.7430   25.2010   33.8780 C   0  0  0  0  0  0  0  0  0  0  0  0
   37.3730   25.2720   32.5350 C   0  0  0  0  0  0  0  0  0  0  0  0
   36.5210   26.4210   30.9840 H   0  0  0  0  0  0  0  0  0  0  0  0
   36.7420   28.3320   34.8340 H   0  0  0  0  0  0  0  0  0  0  0  0
   37.8740   26.7080   36.7430 H   0  0  0  0  0  0  0  0  0  0  0  0
   37.5560   24.4100   31.9140 H   0  0  0  0  0  0  0  0  0  0  0  0
   35.8130   30.5650   30.7830 C   0  0  0  0  0  0  0  0  0  0  0  0
   36.5120   29.4630   31.2630 C   0  0  0  0  0  0  0  0  0  0  0  0
   35.9440   28.6970   32.2690 C   0  0  0  0  0  0  0  0  0  0  0  0
   34.7090   29.0700   32.7420 N   0  0  0  0  0  0  0  0  0  0  0  0
   34.0470   30.1510   32.2560 C   0  0  0  0  0  0  0  0  0  0  0  0
   34.5950   30.8820   31.2920 N   0  0  0  0  0  0  0  0  0  0  0  0
   36.2320   31.1810   29.9970 H   0  0  0  0  0  0  0  0  0  0  0  0
   37.4710   29.1770   30.8910 H   0  0  0  0  0  0  0  0  0  0  0  0
   33.0880   30.3120   32.7330 H   0  0  0  0  0  0  0  0  0  0  0  0
   38.9500   24.1830   37.0300 O   0  0  0  0  0  0  0  0  0  0  0  0
   38.1790   23.7330   38.1000 C   0  0  0  0  0  0  0  0  0  0  0  0
   37.7990   24.8160   38.8720 F   0  0  0  0  0  0  0  0  0  0  0  0
   38.9070   22.8940   38.9390 F   0  0  0  0  0  0  0  0  0  0  0  0
   37.0820   23.0590   37.5950 F   0  0  0  0  0  0  0  0  0  0  0  0
  1  9  2  0  0  0  0
  1  2  1  0  0  0  0
  2  3  2  0  0  0  0
  3  4  1  0  0  0  0
  3 11  1  0  0  0  0
  4  5  1  0  0  0  0
  5 12  1  0  0  0  0
  6  5  1  0  0  0  0
  6 23  1  0  0  0  0
  7  6  2  0  0  0  0
  8  4  2  0  0  0  0
  8  7  1  0  0  0  0
  9  8  1  0  0  0  0
 10  1  1  0  0  0  0
 13  9  1  0  0  0  0
 14 15  2  0  0  0  0
 14 19  1  0  0  0  0
 15 16  1  0  0  0  0
 16 17  2  0  0  0  0
 16  2  1  0  0  0  0
 18 22  1  0  0  0  0
 18 17  1  0  0  0  0
 19 18  2  0  0  0  0
 20 14  1  0  0  0  0
 21 15  1  0  0  0  0
 23 24  1  0  0  0  0
 24 25  1  0  0  0  0
 24 26  1  0  0  0  0
 27 24  1  0  0  0  0
M  END
>  <minimizedAffinity>
-5.24366856

$$$$

 OpenBabel03272510253D

 27 29  0  0  0  0  0  0  0  0999 V2000
   37.2800   26.0430   32.5050 C   0  0  0  0  0  0  0  0  0  0  0  0
   37.1120   26.8560   33.6070 C   0  0  0  0  0  0  0  0  0  0  0  0
   37.4690   26.4200   34.8620 C   0  0  0  0  0  0  0  0  0  0  0  0
   37.9990   25.1360   34.9670 C   0  0  0  0  0  0  0  0  0  0  0  0
   38.4230   24.4860   36.0950 N   0  0  0  0  0  0  0  0  0  0  0  0
   38.8450   23.2900   35.6950 C   0  0  0  0  0  0  0  0  0  0  0  0
   38.7180   23.1380   34.3870 N   0  0  0  0  0  0  0  0  0  0  0  0
   38.1840   24.2890   33.8920 C   0  0  0  0  0  0  0  0  0  0  0  0
   37.8130   24.7610   32.6320 C   0  0  0  0  0  0  0  0  0  0  0  0
   37.0120   26.3450   31.4920 H   0  0  0  0  0  0  0  0  0  0  0  0
   37.3380   27.0540   35.7250 H   0  0  0  0  0  0  0  0  0  0  0  0
   38.3970   24.9000   37.0660 H   0  0  0  0  0  0  0  0  0  0  0  0
   37.9530   24.1070   31.7870 H   0  0  0  0  0  0  0  0  0  0  0  0
   35.4300   30.1940   34.0170 C   0  0  0  0  0  0  0  0  0  0  0  0
   35.9260   28.9410   34.3600 C   0  0  0  0  0  0  0  0  0  0  0  0
   36.5490   28.1780   33.3870 C   0  0  0  0  0  0  0  0  0  0  0  0
   36.6460   28.7040   32.1200 N   0  0  0  0  0  0  0  0  0  0  0  0
   36.1520   29.9300   31.8100 C   0  0  0  0  0  0  0  0  0  0  0  0
   35.5560   30.6590   32.7470 N   0  0  0  0  0  0  0  0  0  0  0  0
   34.9380   30.8120   34.7570 H   0  0  0  0  0  0  0  0  0  0  0  0
   35.8490   28.5380   35.3460 H   0  0  0  0  0  0  0  0  0  0  0  0
   36.3060   30.2000   30.7720 H   0  0  0  0  0  0  0  0  0  0  0  0
   39.3510   22.3540   36.5970 O   0  0  0  0  0  0  0  0  0  0  0  0
   40.4330   22.5990   37.4410 C   0  0  0  0  0  0  0  0  0  0  0  0
   40.9890   21.3910   37.8260 F   0  0  0  0  0  0  0  0  0  0  0  0
   40.0350   23.2340   38.6130 F   0  0  0  0  0  0  0  0  0  0  0  0
   41.3460   23.3860   36.7630 F   0  0  0  0  0  0  0  0  0  0  0  0
  1  9  2  0  0  0  0
  1  2  1  0  0  0  0
  2  3  2  0  0  0  0
  3  4  1  0  0  0  0
  3 11  1  0  0  0  0
  4  5  1  0  0  0  0
  5 12  1  0  0  0  0
  6  5  1  0  0  0  0
  6 23  1  0  0  0  0
  7  6  2  0  0  0  0
  8  7  1  0  0  0  0
  8  4  2  0  0  0  0
  9  8  1  0  0  0  0
 10  1  1  0  0  0  0
 13  9  1  0  0  0  0
 14 15  1  0  0  0  0
 14 20  1  0  0  0  0
 15 21  1  0  0  0  0
 16  2  1  0  0  0  0
 16 15  2  0  0  0  0
 17 16  1  0  0  0  0
 18 17  2  0  0  0  0
 18 19  1  0  0  0  0
 19 14  2  0  0  0  0
 22 18  1  0  0  0  0
 23 24  1  0  0  0  0
 24 25  1  0  0  0  0
 24 26  1  0  0  0  0
 27 24  1  0  0  0  0
M  END
>  <minimizedAffinity>
-5.07905531

$$$$

 OpenBabel03272510253D

 27 29  0  0  0  0  0  0  0  0999 V2000
   37.4510   26.2100   32.7360 C   0  0  0  0  0  0  0  0  0  0  0  0
   36.4350   26.4650   31.8380 C   0  0  0  0  0  0  0  0  0  0  0  0
   35.7410   25.4310   31.2510 C   0  0  0  0  0  0  0  0  0  0  0  0
   36.1080   24.1340   31.6010 C   0  0  0  0  0  0  0  0  0  0  0  0
   35.5720   22.9560   31.1570 N   0  0  0  0  0  0  0  0  0  0  0  0
   36.2470   21.9880   31.7710 C   0  0  0  0  0  0  0  0  0  0  0  0
   37.1770   22.4760   32.5770 N   0  0  0  0  0  0  0  0  0  0  0  0
   37.1170   23.8340   32.4950 C   0  0  0  0  0  0  0  0  0  0  0  0
   37.8020   24.9030   33.0730 C   0  0  0  0  0  0  0  0  0  0  0  0
   38.0280   26.9950   33.2250 H   0  0  0  0  0  0  0  0  0  0  0  0
   34.9470   25.6290   30.5480 H   0  0  0  0  0  0  0  0  0  0  0  0
   34.7790   22.8850   30.4630 H   0  0  0  0  0  0  0  0  0  0  0  0
   38.5910   24.6790   33.7700 H   0  0  0  0  0  0  0  0  0  0  0  0
   36.3700   29.9280   30.3750 C   0  0  0  0  0  0  0  0  0  0  0  0
   36.7540   28.6040   30.5550 C   0  0  0  0  0  0  0  0  0  0  0  0
   36.1330   27.8560   31.5420 C   0  0  0  0  0  0  0  0  0  0  0  0
   35.1610   28.4670   32.2970 N   0  0  0  0  0  0  0  0  0  0  0  0
   34.8050   29.7620   32.1010 C   0  0  0  0  0  0  0  0  0  0  0  0
   35.4030   30.4750   31.1540 N   0  0  0  0  0  0  0  0  0  0  0  0
   36.8380   30.5370   29.6120 H   0  0  0  0  0  0  0  0  0  0  0  0
   37.5100   28.1340   29.9650 H   0  0  0  0  0  0  0  0  0  0  0  0
   34.0260   30.0950   32.7770 H   0  0  0  0  0  0  0  0  0  0  0  0
   35.9600   20.6410   31.5490 O   0  0  0  0  0  0  0  0  0  0  0  0
   35.0690   19.9010   32.3250 C   0  0  0  0  0  0  0  0  0  0  0  0
   35.3060   20.1660   33.6620 F   0  0  0  0  0  0  0  0  0  0  0  0
   35.2600   18.5330   32.1590 F   0  0  0  0  0  0  0  0  0  0  0  0
   33.7810   20.2470   31.9580 F   0  0  0  0  0  0  0  0  0  0  0  0
  1  9  1  0  0  0  0
  1 10  1  0  0  0  0
  2  1  2  0  0  0  0
  3  4  2  0  0  0  0
  3  2  1  0  0  0  0
  4  8  1  0  0  0  0
  5  4  1  0  0  0  0
  5  6  1  0  0  0  0
  6  7  2  0  0  0  0
  8  7  1  0  0  0  0
  8  9  2  0  0  0  0
  9 13  1  0  0  0  0
 11  3  1  0  0  0  0
 12  5  1  0  0  0  0
 14 15  2  0  0  0  0
 14 19  1  0  0  0  0
 15 16  1  0  0  0  0
 16  2  1  0  0  0  0
 16 17  2  0  0  0  0
 18 17  1  0  0  0  0
 18 22  1  0  0  0  0
 19 18  2  0  0  0  0
 20 14  1  0  0  0  0
 21 15  1  0  0  0  0
 23  6  1  0  0  0  0
 23 24  1  0  0  0  0
 24 25  1  0  0  0  0
 26 24  1  0  0  0  0
 27 24  1  0  0  0  0
M  END
>  <minimizedAffinity>
-5.01046705

$$$$

 OpenBabel03272510253D

 27 29  0  0  0  0  0  0  0  0999 V2000
   37.1130   27.4550   34.0160 C   0  0  0  0  0  0  0  0  0  0  0  0
   37.7280   26.9570   32.8850 C   0  0  0  0  0  0  0  0  0  0  0  0
   38.4300   25.7740   32.9320 C   0  0  0  0  0  0  0  0  0  0  0  0
   38.4920   25.1140   34.1570 C   0  0  0  0  0  0  0  0  0  0  0  0
   39.1240   23.9360   34.4510 N   0  0  0  0  0  0  0  0  0  0  0  0
   38.9030   23.7110   35.7430 C   0  0  0  0  0  0  0  0  0  0  0  0
   38.1710   24.6700   36.2890 N   0  0  0  0  0  0  0  0  0  0  0  0
   37.8920   25.5770   35.3120 C   0  0  0  0  0  0  0  0  0  0  0  0
   37.1870   26.7780   35.2320 C   0  0  0  0  0  0  0  0  0  0  0  0
   36.5470   28.3870   34.0270 H   0  0  0  0  0  0  0  0  0  0  0  0
   38.9120   25.3840   32.0490 H   0  0  0  0  0  0  0  0  0  0  0  0
   39.6660   23.3600   33.7520 H   0  0  0  0  0  0  0  0  0  0  0  0
   36.7160   27.1470   36.1280 H   0  0  0  0  0  0  0  0  0  0  0  0
   36.6540   29.3840   30.2220 C   0  0  0  0  0  0  0  0  0  0  0  0
   36.6670   28.7240   31.4460 C   0  0  0  0  0  0  0  0  0  0  0  0
   37.6020   27.7250   31.6580 C   0  0  0  0  0  0  0  0  0  0  0  0
   38.4770   27.4350   30.6380 N   0  0  0  0  0  0  0  0  0  0  0  0
   38.4430   28.0940   29.4510 C   0  0  0  0  0  0  0  0  0  0  0  0
   37.5450   29.0520   29.2530 N   0  0  0  0  0  0  0  0  0  0  0  0
   35.9340   30.1690   30.0290 H   0  0  0  0  0  0  0  0  0  0  0  0
   35.9850   28.9540   32.2360 H   0  0  0  0  0  0  0  0  0  0  0  0
   39.1960   27.7490   28.7520 H   0  0  0  0  0  0  0  0  0  0  0  0
   39.4090   22.5820   36.3870 O   0  0  0  0  0  0  0  0  0  0  0  0
   40.4230   22.6240   37.3430 C   0  0  0  0  0  0  0  0  0  0  0  0
   41.4780   23.3690   36.8500 F   0  0  0  0  0  0  0  0  0  0  0  0
   40.9320   21.3550   37.6050 F   0  0  0  0  0  0  0  0  0  0  0  0
   39.9070   23.1750   38.5010 F   0  0  0  0  0  0  0  0  0  0  0  0
  1 10  1  0  0  0  0
  1  9  1  0  0  0  0
  2  3  1  0  0  0  0
  2  1  2  0  0  0  0
  3  4  2  0  0  0  0
  4  5  1  0  0  0  0
  4  8  1  0  0  0  0
  5  6  1  0  0  0  0
  6  7  2  0  0  0  0
  6 23  1  0  0  0  0
  8  7  1  0  0  0  0
  9  8  2  0  0  0  0
  9 13  1  0  0  0  0
 11  3  1  0  0  0  0
 12  5  1  0  0  0  0
 14 15  1  0  0  0  0
 15 16  2  0  0  0  0
 15 21  1  0  0  0  0
 16  2  1  0  0  0  0
 17 16  1  0  0  0  0
 18 17  2  0  0  0  0
 19 18  1  0  0  0  0
 19 14  2  0  0  0  0
 20 14  1  0  0  0  0
 22 18  1  0  0  0  0
 23 24  1  0  0  0  0
 24 26  1  0  0  0  0
 24 27  1  0  0  0  0
 25 24  1  0  0  0  0
M  END
>  <minimizedAffinity>
-4.99624491

$$$$

 OpenBabel03272510253D

 27 29  0  0  0  0  0  0  0  0999 V2000
   37.9190   24.7230   33.7780 C   0  0  0  0  0  0  0  0  0  0  0  0
   37.9710   25.2510   35.0520 C   0  0  0  0  0  0  0  0  0  0  0  0
   37.4740   26.5080   35.3120 C   0  0  0  0  0  0  0  0  0  0  0  0
   36.9250   27.2130   34.2430 C   0  0  0  0  0  0  0  0  0  0  0  0
   36.3740   28.4660   34.2520 N   0  0  0  0  0  0  0  0  0  0  0  0
   35.9890   28.7080   33.0020 C   0  0  0  0  0  0  0  0  0  0  0  0
   36.2590   27.6900   32.2010 N   0  0  0  0  0  0  0  0  0  0  0  0
   36.8530   26.7230   32.9540 C   0  0  0  0  0  0  0  0  0  0  0  0
   37.3650   25.4460   32.7230 C   0  0  0  0  0  0  0  0  0  0  0  0
   38.2990   23.7340   33.5260 H   0  0  0  0  0  0  0  0  0  0  0  0
   37.5140   26.9220   36.3080 H   0  0  0  0  0  0  0  0  0  0  0  0
   36.2960   29.0770   35.1100 H   0  0  0  0  0  0  0  0  0  0  0  0
   37.3130   25.0560   31.7200 H   0  0  0  0  0  0  0  0  0  0  0  0
   38.7200   23.4720   38.2790 C   0  0  0  0  0  0  0  0  0  0  0  0
   38.0510   24.2890   37.3740 C   0  0  0  0  0  0  0  0  0  0  0  0
   38.5650   24.4320   36.0960 C   0  0  0  0  0  0  0  0  0  0  0  0
   39.7200   23.7520   35.7860 N   0  0  0  0  0  0  0  0  0  0  0  0
   40.3540   22.9610   36.6890 C   0  0  0  0  0  0  0  0  0  0  0  0
   39.8560   22.8270   37.9130 N   0  0  0  0  0  0  0  0  0  0  0  0
   38.3410   23.3420   39.2850 H   0  0  0  0  0  0  0  0  0  0  0  0
   37.1540   24.8140   37.6200 H   0  0  0  0  0  0  0  0  0  0  0  0
   41.2480   22.4960   36.2920 H   0  0  0  0  0  0  0  0  0  0  0  0
   35.3780   29.9100   32.6440 O   0  0  0  0  0  0  0  0  0  0  0  0
   35.9920   30.8880   31.8630 C   0  0  0  0  0  0  0  0  0  0  0  0
   35.0980   31.3250   30.9010 F   0  0  0  0  0  0  0  0  0  0  0  0
   37.0880   30.3780   31.1720 F   0  0  0  0  0  0  0  0  0  0  0  0
   36.3930   31.9200   32.6910 F   0  0  0  0  0  0  0  0  0  0  0  0
  1  2  1  0  0  0  0
  2  3  2  0  0  0  0
  2 16  1  0  0  0  0
  3 11  1  0  0  0  0
  4  5  1  0  0  0  0
  4  3  1  0  0  0  0
  5 12  1  0  0  0  0
  6  5  1  0  0  0  0
  7  8  1  0  0  0  0
  7  6  2  0  0  0  0
  8  4  2  0  0  0  0
  9  8  1  0  0  0  0
  9  1  2  0  0  0  0
 10  1  1  0  0  0  0
 13  9  1  0  0  0  0
 14 20  1  0  0  0  0
 15 21  1  0  0  0  0
 15 14  2  0  0  0  0
 16 15  1  0  0  0  0
 17 16  2  0  0  0  0
 17 18  1  0  0  0  0
 18 19  2  0  0  0  0
 19 14  1  0  0  0  0
 22 18  1  0  0  0  0
 23  6  1  0  0  0  0
 24 23  1  0  0  0  0
 24 27  1  0  0  0  0
 25 24  1  0  0  0  0
 26 24  1  0  0  0  0
M  END
>  <minimizedAffinity>
-4.92151308

$$$$

 OpenBabel03272510253D

 27 29  0  0  0  0  0  0  0  0999 V2000
   35.4560   30.6250   32.7440 C   0  0  0  0  0  0  0  0  0  0  0  0
   35.4680   29.9950   33.9720 C   0  0  0  0  0  0  0  0  0  0  0  0
   35.9900   28.7290   34.1060 C   0  0  0  0  0  0  0  0  0  0  0  0
   36.4970   28.1200   32.9600 C   0  0  0  0  0  0  0  0  0  0  0  0
   37.0610   26.8790   32.8410 N   0  0  0  0  0  0  0  0  0  0  0  0
   37.3910   26.7440   31.5600 C   0  0  0  0  0  0  0  0  0  0  0  0
   37.0740   27.8200   30.8570 N   0  0  0  0  0  0  0  0  0  0  0  0
   36.5050   28.7140   31.7130 C   0  0  0  0  0  0  0  0  0  0  0  0
   35.9700   29.9980   31.6100 C   0  0  0  0  0  0  0  0  0  0  0  0
   35.0540   31.6260   32.5900 H   0  0  0  0  0  0  0  0  0  0  0  0
   36.0000   28.2350   35.0650 H   0  0  0  0  0  0  0  0  0  0  0  0
   37.1850   26.2020   33.6420 H   0  0  0  0  0  0  0  0  0  0  0  0
   35.9710   30.4680   30.6400 H   0  0  0  0  0  0  0  0  0  0  0  0
   34.9790   32.2080   36.9720 C   0  0  0  0  0  0  0  0  0  0  0  0
   35.6330   31.5760   35.9200 C   0  0  0  0  0  0  0  0  0  0  0  0
   34.9140   30.7190   35.1040 C   0  0  0  0  0  0  0  0  0  0  0  0
   33.5790   30.5360   35.3790 N   0  0  0  0  0  0  0  0  0  0  0  0
   32.9650   31.1640   36.4140 C   0  0  0  0  0  0  0  0  0  0  0  0
   33.6590   31.9860   37.1940 N   0  0  0  0  0  0  0  0  0  0  0  0
   35.5160   32.8830   37.6260 H   0  0  0  0  0  0  0  0  0  0  0  0
   36.6700   31.7220   35.7100 H   0  0  0  0  0  0  0  0  0  0  0  0
   31.9140   30.9150   36.4980 H   0  0  0  0  0  0  0  0  0  0  0  0
   37.9980   25.5840   31.0780 O   0  0  0  0  0  0  0  0  0  0  0  0
   37.3320   24.3680   30.9260 C   0  0  0  0  0  0  0  0  0  0  0  0
   37.9180   23.6590   29.8930 F   0  0  0  0  0  0  0  0  0  0  0  0
   36.0010   24.5550   30.5650 F   0  0  0  0  0  0  0  0  0  0  0  0
   37.4050   23.6790   32.1230 F   0  0  0  0  0  0  0  0  0  0  0  0
  1  2  1  0  0  0  0
  2  3  2  0  0  0  0
  2 16  1  0  0  0  0
  3 11  1  0  0  0  0
  4  3  1  0  0  0  0
  5  4  1  0  0  0  0
  5 12  1  0  0  0  0
  6  5  1  0  0  0  0
  7  6  2  0  0  0  0
  7  8  1  0  0  0  0
  8  4  2  0  0  0  0
  9  8  1  0  0  0  0
  9  1  2  0  0  0  0
 10  1  1  0  0  0  0
 13  9  1  0  0  0  0
 14 19  1  0  0  0  0
 14 20  1  0  0  0  0
 15 14  2  0  0  0  0
 16 17  2  0  0  0  0
 16 15  1  0  0  0  0
 17 18  1  0  0  0  0
 18 22  1  0  0  0  0
 18 19  2  0  0  0  0
 21 15  1  0  0  0  0
 23  6  1  0  0  0  0
 24 23  1  0  0  0  0
 24 27  1  0  0  0  0
 25 24  1  0  0  0  0
 26 24  1  0  0  0  0
M  END
>  <minimizedAffinity>
-4.91950226

$$$$

 OpenBabel03272510253D

 27 29  0  0  0  0  0  0  0  0999 V2000
   36.1050   28.6470   34.3380 C   0  0  0  0  0  0  0  0  0  0  0  0
   35.5870   29.8910   34.0420 C   0  0  0  0  0  0  0  0  0  0  0  0
   35.6450   30.3890   32.7600 C   0  0  0  0  0  0  0  0  0  0  0  0
   36.2450   29.5900   31.7900 C   0  0  0  0  0  0  0  0  0  0  0  0
   36.4210   29.8650   30.4600 N   0  0  0  0  0  0  0  0  0  0  0  0
   37.0390   28.8060   29.9430 C   0  0  0  0  0  0  0  0  0  0  0  0
   37.2660   27.8780   30.8580 N   0  0  0  0  0  0  0  0  0  0  0  0
   36.7760   28.3410   32.0420 C   0  0  0  0  0  0  0  0  0  0  0  0
   36.7010   27.8640   33.3500 C   0  0  0  0  0  0  0  0  0  0  0  0
   36.0810   28.2120   35.3370 H   0  0  0  0  0  0  0  0  0  0  0  0
   35.2410   31.3620   32.5280 H   0  0  0  0  0  0  0  0  0  0  0  0
   36.1080   30.7560   29.9890 H   0  0  0  0  0  0  0  0  0  0  0  0
   37.1130   26.8900   33.5560 H   0  0  0  0  0  0  0  0  0  0  0  0
   34.9580   32.2080   36.9360 C   0  0  0  0  0  0  0  0  0  0  0  0
   35.6560   31.5530   35.9270 C   0  0  0  0  0  0  0  0  0  0  0  0
   34.9830   30.6430   35.1290 C   0  0  0  0  0  0  0  0  0  0  0  0
   33.6470   30.4330   35.3790 N   0  0  0  0  0  0  0  0  0  0  0  0
   32.9890   31.0840   36.3710 C   0  0  0  0  0  0  0  0  0  0  0  0
   33.6390   31.9570   37.1330 N   0  0  0  0  0  0  0  0  0  0  0  0
   35.4590   32.9240   37.5750 H   0  0  0  0  0  0  0  0  0  0  0  0
   36.6940   31.7210   35.7370 H   0  0  0  0  0  0  0  0  0  0  0  0
   31.9430   30.8090   36.4400 H   0  0  0  0  0  0  0  0  0  0  0  0
   37.3780   28.7440   28.5920 O   0  0  0  0  0  0  0  0  0  0  0  0
   38.5740   29.2350   28.0700 C   0  0  0  0  0  0  0  0  0  0  0  0
   38.2970   30.2850   27.2140 F   0  0  0  0  0  0  0  0  0  0  0  0
   39.2320   28.2740   27.3070 F   0  0  0  0  0  0  0  0  0  0  0  0
   39.3770   29.6340   29.1220 F   0  0  0  0  0  0  0  0  0  0  0  0
  1 10  1  0  0  0  0
  2  1  1  0  0  0  0
  2 16  1  0  0  0  0
  3  2  2  0  0  0  0
  4  8  2  0  0  0  0
  4  3  1  0  0  0  0
  5  4  1  0  0  0  0
  6  5  1  0  0  0  0
  6  7  2  0  0  0  0
  7  8  1  0  0  0  0
  8  9  1  0  0  0  0
  9 13  1  0  0  0  0
  9  1  2  0  0  0  0
 11  3  1  0  0  0  0
 12  5  1  0  0  0  0
 14 19  1  0  0  0  0
 14 20  1  0  0  0  0
 15 14  2  0  0  0  0
 16 17  2  0  0  0  0
 16 15  1  0  0  0  0
 17 18  1  0  0  0  0
 18 22  1  0  0  0  0
 18 19  2  0  0  0  0
 21 15  1  0  0  0  0
 23  6  1  0  0  0  0
 24 23  1  0  0  0  0
 24 27  1  0  0  0  0
 25 24  1  0  0  0  0
 26 24  1  0  0  0  0
M  END
>  <minimizedAffinity>
-4.89857912

$$$$

 OpenBabel03272510253D

 27 29  0  0  0  0  0  0  0  0999 V2000
   38.2270   23.7520   33.6440 C   0  0  0  0  0  0  0  0  0  0  0  0
   38.1100   24.6120   34.7170 C   0  0  0  0  0  0  0  0  0  0  0  0
   37.6500   25.8970   34.5400 C   0  0  0  0  0  0  0  0  0  0  0  0
   37.3140   26.2840   33.2440 C   0  0  0  0  0  0  0  0  0  0  0  0
   36.8400   27.4960   32.8210 N   0  0  0  0  0  0  0  0  0  0  0  0
   36.6660   27.3860   31.5070 C   0  0  0  0  0  0  0  0  0  0  0  0
   36.9990   26.1820   31.0680 N   0  0  0  0  0  0  0  0  0  0  0  0
   37.4150   25.4560   32.1430 C   0  0  0  0  0  0  0  0  0  0  0  0
   37.8830   24.1600   32.3560 C   0  0  0  0  0  0  0  0  0  0  0  0
   38.5850   22.7270   33.7360 H   0  0  0  0  0  0  0  0  0  0  0  0
   37.5600   26.5710   35.3770 H   0  0  0  0  0  0  0  0  0  0  0  0
   36.6640   28.3220   33.4550 H   0  0  0  0  0  0  0  0  0  0  0  0
   37.9660   23.5070   31.5020 H   0  0  0  0  0  0  0  0  0  0  0  0
   39.8310   22.8760   37.5740 C   0  0  0  0  0  0  0  0  0  0  0  0
   39.5790   23.2880   36.2700 C   0  0  0  0  0  0  0  0  0  0  0  0
   38.4890   24.1080   36.0260 C   0  0  0  0  0  0  0  0  0  0  0  0
   37.7070   24.4740   37.0960 N   0  0  0  0  0  0  0  0  0  0  0  0
   37.9750   24.0570   38.3600 C   0  0  0  0  0  0  0  0  0  0  0  0
   39.0210   23.2720   38.5890 N   0  0  0  0  0  0  0  0  0  0  0  0
   40.6760   22.2350   37.7940 H   0  0  0  0  0  0  0  0  0  0  0  0
   40.1900   23.0010   35.4430 H   0  0  0  0  0  0  0  0  0  0  0  0
   37.2660   24.4310   39.0890 H   0  0  0  0  0  0  0  0  0  0  0  0
   36.1870   28.4480   30.7400 O   0  0  0  0  0  0  0  0  0  0  0  0
   36.9860   29.2150   29.8930 C   0  0  0  0  0  0  0  0  0  0  0  0
   37.1240   28.5570   28.6840 F   0  0  0  0  0  0  0  0  0  0  0  0
   38.2720   29.3680   30.4020 F   0  0  0  0  0  0  0  0  0  0  0  0
   36.3900   30.4520   29.7340 F   0  0  0  0  0  0  0  0  0  0  0  0
  1 10  1  0  0  0  0
  1  2  1  0  0  0  0
  2 16  1  0  0  0  0
  3  2  2  0  0  0  0
  3 11  1  0  0  0  0
  4  3  1  0  0  0  0
  5  4  1  0  0  0  0
  5 12  1  0  0  0  0
  6  5  1  0  0  0  0
  7  6  2  0  0  0  0
  7  8  1  0  0  0  0
  8  9  1  0  0  0  0
  8  4  2  0  0  0  0
  9  1  2  0  0  0  0
 13  9  1  0  0  0  0
 14 20  1  0  0  0  0
 14 19  1  0  0  0  0
 15 14  2  0  0  0  0
 16 15  1  0  0  0  0
 16 17  2  0  0  0  0
 17 18  1  0  0  0  0
 18 19  2  0  0  0  0
 18 22  1  0  0  0  0
 21 15  1  0  0  0  0
 23  6  1  0  0  0  0
 24 26  1  0  0  0  0
 24 23  1  0  0  0  0
 25 24  1  0  0  0  0
 27 24  1  0  0  0  0
M  END
>  <minimizedAffinity>
-4.86760664

$$$$

 OpenBabel03272510253D

 27 29  0  0  0  0  0  0  0  0999 V2000
   37.4670   22.7710   32.8990 C   0  0  0  0  0  0  0  0  0  0  0  0
   36.5680   22.3560   31.9370 C   0  0  0  0  0  0  0  0  0  0  0  0
   35.9400   23.2700   31.1230 C   0  0  0  0  0  0  0  0  0  0  0  0
   36.2480   24.6150   31.3130 C   0  0  0  0  0  0  0  0  0  0  0  0
   35.7580   25.6980   30.6340 N   0  0  0  0  0  0  0  0  0  0  0  0
   36.3440   26.7650   31.1690 C   0  0  0  0  0  0  0  0  0  0  0  0
   37.1760   26.4300   32.1430 N   0  0  0  0  0  0  0  0  0  0  0  0
   37.1400   25.0740   32.2620 C   0  0  0  0  0  0  0  0  0  0  0  0
   37.7610   24.1220   33.0720 C   0  0  0  0  0  0  0  0  0  0  0  0
   37.9880   22.0840   33.5660 H   0  0  0  0  0  0  0  0  0  0  0  0
   35.2370   22.9470   30.3710 H   0  0  0  0  0  0  0  0  0  0  0  0
   35.0550   25.6410   29.8490 H   0  0  0  0  0  0  0  0  0  0  0  0
   38.4580   24.4710   33.8160 H   0  0  0  0  0  0  0  0  0  0  0  0
   36.3660   18.7950   30.7460 C   0  0  0  0  0  0  0  0  0  0  0  0
   36.6630   20.1530   30.7280 C   0  0  0  0  0  0  0  0  0  0  0  0
   36.3180   20.9290   31.8230 C   0  0  0  0  0  0  0  0  0  0  0  0
   35.6940   20.3090   32.8800 N   0  0  0  0  0  0  0  0  0  0  0  0
   35.4140   18.9810   32.8720 C   0  0  0  0  0  0  0  0  0  0  0  0
   35.7470   18.2410   31.8200 N   0  0  0  0  0  0  0  0  0  0  0  0
   36.6240   18.1650   29.9050 H   0  0  0  0  0  0  0  0  0  0  0  0
   37.1480   20.6300   29.9050 H   0  0  0  0  0  0  0  0  0  0  0  0
   34.9210   18.6450   33.7770 H   0  0  0  0  0  0  0  0  0  0  0  0
   36.0740   28.0550   30.7130 O   0  0  0  0  0  0  0  0  0  0  0  0
   35.6870   29.1050   31.5440 C   0  0  0  0  0  0  0  0  0  0  0  0
   34.7210   28.6530   32.4250 F   0  0  0  0  0  0  0  0  0  0  0  0
   35.1000   30.1400   30.8220 F   0  0  0  0  0  0  0  0  0  0  0  0
   36.8070   29.5690   32.2100 F   0  0  0  0  0  0  0  0  0  0  0  0
  1  9  1  0  0  0  0
  1 10  1  0  0  0  0
  2  1  2  0  0  0  0
  3  4  2  0  0  0  0
  3  2  1  0  0  0  0
  4  8  1  0  0  0  0
  5  6  1  0  0  0  0
  5  4  1  0  0  0  0
  6  7  2  0  0  0  0
  7  8  1  0  0  0  0
  8  9  2  0  0  0  0
  9 13  1  0  0  0  0
 11  3  1  0  0  0  0
 12  5  1  0  0  0  0
 14 19  1  0  0  0  0
 15 14  2  0  0  0  0
 15 16  1  0  0  0  0
 16  2  1  0  0  0  0
 16 17  2  0  0  0  0
 18 17  1  0  0  0  0
 18 22  1  0  0  0  0
 19 18  2  0  0  0  0
 20 14  1  0  0  0  0
 21 15  1  0  0  0  0
 23  6  1  0  0  0  0
 23 24  1  0  0  0  0
 24 27  1  0  0  0  0
 24 25  1  0  0  0  0
 26 24  1  0  0  0  0
M  END
>  <minimizedAffinity>
-4.82473564

$$$$
