
 OpenBabel03272501023D

 29 30  0  0  0  0  0  0  0  0999 V2000
   38.4030   25.9330   33.8540 F   0  0  0  0  0  0  0  0  0  0  0  0
   37.6580   25.0280   33.1510 C   0  0  0  0  0  0  0  0  0  0  0  0
   36.7600   25.3910   32.1670 C   0  0  0  0  0  0  0  0  0  0  0  0
   36.0550   24.4200   31.5150 C   0  0  0  0  0  0  0  0  0  0  0  0
   36.1950   23.0690   31.7880 C   0  0  0  0  0  0  0  0  0  0  0  0
   37.1080   22.7200   32.7850 C   0  0  0  0  0  0  0  0  0  0  0  0
   37.8390   23.6840   33.4670 C   0  0  0  0  0  0  0  0  0  0  0  0
   35.3610   24.7120   30.7540 H   0  0  0  0  0  0  0  0  0  0  0  0
   35.6380   22.2880   31.2720 H   0  0  0  0  0  0  0  0  0  0  0  0
   37.2750   21.6780   33.0580 H   0  0  0  0  0  0  0  0  0  0  0  0
   36.7860   28.5180   30.2730 C   0  0  0  0  0  0  0  0  0  0  0  0
   36.3280   29.4790   31.1720 C   0  0  0  0  0  0  0  0  0  0  0  0
   36.0040   29.0320   32.4590 C   0  0  0  0  0  0  0  0  0  0  0  0
   36.1420   27.7110   32.7880 N   0  0  0  0  0  0  0  0  0  0  0  0
   36.5960   26.8110   31.8640 C   0  0  0  0  0  0  0  0  0  0  0  0
   36.9160   27.2270   30.6070 N   0  0  0  0  0  0  0  0  0  0  0  0
   37.0590   28.7930   29.2460 H   0  0  0  0  0  0  0  0  0  0  0  0
   36.2290   30.5180   30.8830 H   0  0  0  0  0  0  0  0  0  0  0  0
   35.6460   29.7450   33.1850 H   0  0  0  0  0  0  0  0  0  0  0  0
   38.7160   23.3170   34.4270 O   0  0  0  0  0  0  0  0  0  0  0  0
   39.6650   22.1180   36.5130 O   0  0  0  0  0  0  0  0  0  0  0  0
   38.4150   22.8270   36.0050 P   0  0  2  0  0  0  0  0  0  0  0  0
   37.1490   21.7340   36.1720 O   0  0  0  0  0  0  0  0  0  0  0  0
   37.2780   21.0070   35.5230 H   0  0  0  0  0  0  0  0  0  0  0  0
   38.1530   24.1610   37.0290 O   0  0  0  0  0  0  0  0  0  0  0  0
   38.2340   23.8310   38.3580 C   0  0  0  0  0  0  0  0  0  0  0  0
   39.4960   23.4340   38.7380 F   0  0  0  0  0  0  0  0  0  0  0  0
   37.9020   24.9510   39.0780 F   0  0  0  0  0  0  0  0  0  0  0  0
   37.3300   22.8190   38.6620 F   0  0  0  0  0  0  0  0  0  0  0  0
  2  7  1  0  0  0  0
  2  1  1  0  0  0  0
  3  2  2  0  0  0  0
  4  5  2  0  0  0  0
  4  3  1  0  0  0  0
  5  6  1  0  0  0  0
  6 10  1  0  0  0  0
  6  7  2  0  0  0  0
  7 20  1  0  0  0  0
  8  4  1  0  0  0  0
  9  5  1  0  0  0  0
 11 16  2  0  0  0  0
 11 12  1  0  0  0  0
 12 13  2  0  0  0  0
 13 14  1  0  0  0  0
 13 19  1  0  0  0  0
 15  3  1  0  0  0  0
 15 14  2  0  0  0  0
 16 15  1  0  0  0  0
 17 11  1  0  0  0  0
 18 12  1  0  0  0  0
 20 22  1  0  0  0  0
 22 23  1  0  0  0  0
 22 21  2  1  0  0  0
 22 25  1  0  0  0  0
 24 23  1  0  0  0  0
 25 26  1  0  0  0  0
 26 29  1  0  0  0  0
 26 27  1  0  0  0  0
 26 28  1  0  0  0  0
M  END
>  <minimizedAffinity>
-5.68369293

$$$$

 OpenBabel03272501023D

 29 30  0  0  0  0  0  0  0  0999 V2000
   36.8490   25.5090   33.1640 F   0  0  0  0  0  0  0  0  0  0  0  0
   38.0810   25.8990   33.6090 C   0  0  0  0  0  0  0  0  0  0  0  0
   38.8200   26.8990   33.0100 C   0  0  0  0  0  0  0  0  0  0  0  0
   40.0440   27.2250   33.5210 C   0  0  0  0  0  0  0  0  0  0  0  0
   40.5930   26.5980   34.6270 C   0  0  0  0  0  0  0  0  0  0  0  0
   39.8340   25.5890   35.2220 C   0  0  0  0  0  0  0  0  0  0  0  0
   38.5860   25.2340   34.7250 C   0  0  0  0  0  0  0  0  0  0  0  0
   40.6080   28.0030   33.0480 H   0  0  0  0  0  0  0  0  0  0  0  0
   41.5680   26.8520   35.0420 H   0  0  0  0  0  0  0  0  0  0  0  0
   40.1970   25.0480   36.0960 H   0  0  0  0  0  0  0  0  0  0  0  0
   38.4280   28.0040   29.5460 C   0  0  0  0  0  0  0  0  0  0  0  0
   37.2890   28.8040   29.5580 C   0  0  0  0  0  0  0  0  0  0  0  0
   36.6440   28.9620   30.7910 C   0  0  0  0  0  0  0  0  0  0  0  0
   37.1340   28.3500   31.9120 N   0  0  0  0  0  0  0  0  0  0  0  0
   38.2580   27.5740   31.8410 C   0  0  0  0  0  0  0  0  0  0  0  0
   38.8990   27.4090   30.6500 N   0  0  0  0  0  0  0  0  0  0  0  0
   38.9870   27.8330   28.6160 H   0  0  0  0  0  0  0  0  0  0  0  0
   36.9240   29.2770   28.6540 H   0  0  0  0  0  0  0  0  0  0  0  0
   35.7570   29.5750   30.8430 H   0  0  0  0  0  0  0  0  0  0  0  0
   37.8720   24.2550   35.3210 O   0  0  0  0  0  0  0  0  0  0  0  0
   39.4070   22.1970   35.0030 O   0  0  0  0  0  0  0  0  0  0  0  0
   38.4080   22.8060   35.9800 P   0  0  2  0  0  0  0  0  0  0  0  0
   37.2060   21.6530   36.2090 O   0  0  0  0  0  0  0  0  0  0  0  0
   36.6900   21.5710   35.3770 H   0  0  0  0  0  0  0  0  0  0  0  0
   39.2400   23.0600   37.4430 O   0  0  0  0  0  0  0  0  0  0  0  0
   38.4530   23.6420   38.4040 C   0  0  0  0  0  0  0  0  0  0  0  0
   37.3660   22.8700   38.7490 F   0  0  0  0  0  0  0  0  0  0  0  0
   39.2310   23.8110   39.5210 F   0  0  0  0  0  0  0  0  0  0  0  0
   38.0060   24.8870   37.9760 F   0  0  0  0  0  0  0  0  0  0  0  0
  1  2  1  0  0  0  0
  2  7  1  0  0  0  0
  3  4  1  0  0  0  0
  3  2  2  0  0  0  0
  4  5  2  0  0  0  0
  5  9  1  0  0  0  0
  5  6  1  0  0  0  0
  6 10  1  0  0  0  0
  7  6  2  0  0  0  0
  7 20  1  0  0  0  0
  8  4  1  0  0  0  0
 11 12  2  0  0  0  0
 11 16  1  0  0  0  0
 12 13  1  0  0  0  0
 13 19  1  0  0  0  0
 13 14  2  0  0  0  0
 15 14  1  0  0  0  0
 15  3  1  0  0  0  0
 16 15  2  0  0  0  0
 17 11  1  0  0  0  0
 18 12  1  0  0  0  0
 20 22  1  0  0  0  0
 22 21  2  6  0  0  0
 22 23  1  0  0  0  0
 22 25  1  0  0  0  0
 24 23  1  0  0  0  0
 25 26  1  0  0  0  0
 26 27  1  0  0  0  0
 26 28  1  0  0  0  0
 29 26  1  0  0  0  0
M  END
>  <minimizedAffinity>
-5.60733652

$$$$

 OpenBabel03272501023D

 29 30  0  0  0  0  0  0  0  0999 V2000
   36.7410   25.9260   35.4810 F   0  0  0  0  0  0  0  0  0  0  0  0
   37.9600   26.1560   34.9080 C   0  0  0  0  0  0  0  0  0  0  0  0
   38.1610   27.0820   33.9040 C   0  0  0  0  0  0  0  0  0  0  0  0
   39.4140   27.2470   33.3870 C   0  0  0  0  0  0  0  0  0  0  0  0
   40.5140   26.5260   33.8220 C   0  0  0  0  0  0  0  0  0  0  0  0
   40.2940   25.5940   34.8380 C   0  0  0  0  0  0  0  0  0  0  0  0
   39.0310   25.4020   35.3840 C   0  0  0  0  0  0  0  0  0  0  0  0
   39.5580   27.9690   32.6090 H   0  0  0  0  0  0  0  0  0  0  0  0
   41.5160   26.6510   33.4170 H   0  0  0  0  0  0  0  0  0  0  0  0
   41.1080   24.9870   35.2350 H   0  0  0  0  0  0  0  0  0  0  0  0
   35.6380   28.4280   31.6240 C   0  0  0  0  0  0  0  0  0  0  0  0
   34.8600   29.2690   32.4160 C   0  0  0  0  0  0  0  0  0  0  0  0
   35.2180   29.3710   33.7660 C   0  0  0  0  0  0  0  0  0  0  0  0
   36.2850   28.6670   34.2550 N   0  0  0  0  0  0  0  0  0  0  0  0
   37.0140   27.8540   33.4300 C   0  0  0  0  0  0  0  0  0  0  0  0
   36.6810   27.7430   32.1140 N   0  0  0  0  0  0  0  0  0  0  0  0
   35.4190   28.2970   30.5570 H   0  0  0  0  0  0  0  0  0  0  0  0
   34.0210   29.8150   32.0020 H   0  0  0  0  0  0  0  0  0  0  0  0
   34.6410   30.0130   34.4140 H   0  0  0  0  0  0  0  0  0  0  0  0
   38.8470   24.4940   36.3660 O   0  0  0  0  0  0  0  0  0  0  0  0
   37.9950   22.5980   34.8260 O   0  0  0  0  0  0  0  0  0  0  0  0
   38.4970   22.8560   36.2420 P   0  0  2  0  0  0  0  0  0  0  0  0
   37.2890   22.3160   37.2780 O   0  0  0  0  0  0  0  0  0  0  0  0
   36.5160   22.9190   37.1970 H   0  0  0  0  0  0  0  0  0  0  0  0
   39.8930   21.9050   36.4520 O   0  0  0  0  0  0  0  0  0  0  0  0
   40.7080   22.3760   37.4500 C   0  0  0  0  0  0  0  0  0  0  0  0
   40.0120   23.0070   38.4580 F   0  0  0  0  0  0  0  0  0  0  0  0
   41.3570   21.2950   37.9900 F   0  0  0  0  0  0  0  0  0  0  0  0
   41.6520   23.2550   36.9320 F   0  0  0  0  0  0  0  0  0  0  0  0
  2  7  1  0  0  0  0
  2  1  1  0  0  0  0
  3  2  2  0  0  0  0
  4  5  2  0  0  0  0
  4  3  1  0  0  0  0
  5  6  1  0  0  0  0
  6 10  1  0  0  0  0
  6  7  2  0  0  0  0
  7 20  1  0  0  0  0
  8  4  1  0  0  0  0
  9  5  1  0  0  0  0
 11 16  2  0  0  0  0
 11 12  1  0  0  0  0
 12 13  2  0  0  0  0
 13 14  1  0  0  0  0
 13 19  1  0  0  0  0
 15  3  1  0  0  0  0
 15 14  2  0  0  0  0
 16 15  1  0  0  0  0
 17 11  1  0  0  0  0
 18 12  1  0  0  0  0
 22 21  2  6  0  0  0
 22 20  1  0  0  0  0
 22 25  1  0  0  0  0
 22 23  1  0  0  0  0
 24 23  1  0  0  0  0
 25 26  1  0  0  0  0
 26 28  1  0  0  0  0
 26 27  1  0  0  0  0
 29 26  1  0  0  0  0
M  END
>  <minimizedAffinity>
-5.31319189

$$$$

 OpenBabel03272501023D

 29 30  0  0  0  0  0  0  0  0999 V2000
   37.4810   24.4830   33.6670 F   0  0  0  0  0  0  0  0  0  0  0  0
   38.5140   25.3770   33.6790 C   0  0  0  0  0  0  0  0  0  0  0  0
   39.3450   25.5570   34.7670 C   0  0  0  0  0  0  0  0  0  0  0  0
   40.3540   26.4740   34.6940 C   0  0  0  0  0  0  0  0  0  0  0  0
   40.5960   27.2460   33.5690 C   0  0  0  0  0  0  0  0  0  0  0  0
   39.7470   27.0510   32.4780 C   0  0  0  0  0  0  0  0  0  0  0  0
   38.7110   26.1270   32.5220 C   0  0  0  0  0  0  0  0  0  0  0  0
   40.9920   26.6060   35.5440 H   0  0  0  0  0  0  0  0  0  0  0  0
   41.3990   27.9780   33.5010 H   0  0  0  0  0  0  0  0  0  0  0  0
   39.8720   27.6200   31.5560 H   0  0  0  0  0  0  0  0  0  0  0  0
   39.7180   22.8840   37.2350 C   0  0  0  0  0  0  0  0  0  0  0  0
   38.7480   23.1540   38.1960 C   0  0  0  0  0  0  0  0  0  0  0  0
   37.9500   24.2850   37.9850 C   0  0  0  0  0  0  0  0  0  0  0  0
   38.1370   25.0670   36.8780 N   0  0  0  0  0  0  0  0  0  0  0  0
   39.1070   24.7540   35.9650 C   0  0  0  0  0  0  0  0  0  0  0  0
   39.8920   23.6570   36.1540 N   0  0  0  0  0  0  0  0  0  0  0  0
   40.3810   22.0150   37.3320 H   0  0  0  0  0  0  0  0  0  0  0  0
   38.6220   22.5170   39.0640 H   0  0  0  0  0  0  0  0  0  0  0  0
   37.1860   24.5290   38.7070 H   0  0  0  0  0  0  0  0  0  0  0  0
   37.9070   25.9590   31.4510 O   0  0  0  0  0  0  0  0  0  0  0  0
   35.3980   25.5080   31.0080 O   0  0  0  0  0  0  0  0  0  0  0  0
   36.4050   26.6440   31.1360 P   0  0  2  0  0  0  0  0  0  0  0  0
   36.3190   27.5180   29.7030 O   0  0  0  0  0  0  0  0  0  0  0  0
   36.6900   26.9660   28.9780 H   0  0  0  0  0  0  0  0  0  0  0  0
   35.8860   27.6210   32.4300 O   0  0  0  0  0  0  0  0  0  0  0  0
   36.1360   28.9530   32.2200 C   0  0  0  0  0  0  0  0  0  0  0  0
   35.1750   29.5660   31.4480 F   0  0  0  0  0  0  0  0  0  0  0  0
   36.1520   29.5640   33.4480 F   0  0  0  0  0  0  0  0  0  0  0  0
   37.3780   29.1240   31.6170 F   0  0  0  0  0  0  0  0  0  0  0  0
  1  2  1  0  0  0  0
  2  3  1  0  0  0  0
  3 15  1  0  0  0  0
  4  3  2  0  0  0  0
  4  8  1  0  0  0  0
  5  4  1  0  0  0  0
  6  7  1  0  0  0  0
  6  5  2  0  0  0  0
  7  2  2  0  0  0  0
  9  5  1  0  0  0  0
 10  6  1  0  0  0  0
 11 17  1  0  0  0  0
 11 12  1  0  0  0  0
 12 18  1  0  0  0  0
 13 12  2  0  0  0  0
 13 19  1  0  0  0  0
 14 13  1  0  0  0  0
 15 16  1  0  0  0  0
 15 14  2  0  0  0  0
 16 11  2  0  0  0  0
 20  7  1  0  0  0  0
 22 21  2  6  0  0  0
 22 20  1  0  0  0  0
 22 25  1  0  0  0  0
 23 22  1  0  0  0  0
 24 23  1  0  0  0  0
 26 25  1  0  0  0  0
 26 28  1  0  0  0  0
 27 26  1  0  0  0  0
 29 26  1  0  0  0  0
M  END
>  <minimizedAffinity>
-5.31106329

$$$$

 OpenBabel03272501023D

 29 30  0  0  0  0  0  0  0  0999 V2000
   37.9440   23.4350   33.2690 F   0  0  0  0  0  0  0  0  0  0  0  0
   37.0910   24.1990   32.5240 C   0  0  0  0  0  0  0  0  0  0  0  0
   36.1280   23.6650   31.6920 C   0  0  0  0  0  0  0  0  0  0  0  0
   35.3170   24.5030   30.9820 C   0  0  0  0  0  0  0  0  0  0  0  0
   35.4080   25.8840   31.0520 C   0  0  0  0  0  0  0  0  0  0  0  0
   36.3860   26.4080   31.8980 C   0  0  0  0  0  0  0  0  0  0  0  0
   37.2270   25.5820   32.6330 C   0  0  0  0  0  0  0  0  0  0  0  0
   34.5730   24.0770   30.3400 H   0  0  0  0  0  0  0  0  0  0  0  0
   34.7650   26.5600   30.4900 H   0  0  0  0  0  0  0  0  0  0  0  0
   36.5210   27.4840   32.0080 H   0  0  0  0  0  0  0  0  0  0  0  0
   34.8660   20.2800   32.2630 C   0  0  0  0  0  0  0  0  0  0  0  0
   35.7040   19.4600   31.5130 C   0  0  0  0  0  0  0  0  0  0  0  0
   36.7260   20.0940   30.7950 C   0  0  0  0  0  0  0  0  0  0  0  0
   36.8700   21.4530   30.8480 N   0  0  0  0  0  0  0  0  0  0  0  0
   36.0150   22.2100   31.6030 C   0  0  0  0  0  0  0  0  0  0  0  0
   35.0160   21.6110   32.3080 N   0  0  0  0  0  0  0  0  0  0  0  0
   34.0420   19.8560   32.8520 H   0  0  0  0  0  0  0  0  0  0  0  0
   35.5670   18.3860   31.4890 H   0  0  0  0  0  0  0  0  0  0  0  0
   37.3980   19.4940   30.2010 H   0  0  0  0  0  0  0  0  0  0  0  0
   38.1640   26.1170   33.4440 O   0  0  0  0  0  0  0  0  0  0  0  0
   37.0480   27.9200   34.9260 O   0  0  0  0  0  0  0  0  0  0  0  0
   37.9950   26.7280   35.0000 P   0  0  2  0  0  0  0  0  0  0  0  0
   39.4190   27.2970   35.6890 O   0  0  0  0  0  0  0  0  0  0  0  0
   39.8580   27.8970   35.0460 H   0  0  0  0  0  0  0  0  0  0  0  0
   37.2750   25.5880   36.0390 O   0  0  0  0  0  0  0  0  0  0  0  0
   38.1300   24.5720   36.3830 C   0  0  0  0  0  0  0  0  0  0  0  0
   39.3130   24.6040   35.6790 F   0  0  0  0  0  0  0  0  0  0  0  0
   38.4200   24.7180   37.7160 F   0  0  0  0  0  0  0  0  0  0  0  0
   37.5210   23.3380   36.1880 F   0  0  0  0  0  0  0  0  0  0  0  0
  2  7  1  0  0  0  0
  2  1  1  0  0  0  0
  3  2  2  0  0  0  0
  4  5  2  0  0  0  0
  4  3  1  0  0  0  0
  5  6  1  0  0  0  0
  6 10  1  0  0  0  0
  6  7  2  0  0  0  0
  7 20  1  0  0  0  0
  8  4  1  0  0  0  0
  9  5  1  0  0  0  0
 11 16  1  0  0  0  0
 11 17  1  0  0  0  0
 12 11  2  0  0  0  0
 13 14  2  0  0  0  0
 13 12  1  0  0  0  0
 14 15  1  0  0  0  0
 15  3  1  0  0  0  0
 15 16  2  0  0  0  0
 18 12  1  0  0  0  0
 19 13  1  0  0  0  0
 20 22  1  0  0  0  0
 22 21  2  6  0  0  0
 22 23  1  0  0  0  0
 22 25  1  0  0  0  0
 24 23  1  0  0  0  0
 25 26  1  0  0  0  0
 26 28  1  0  0  0  0
 27 26  1  0  0  0  0
 29 26  1  0  0  0  0
M  END
>  <minimizedAffinity>
-5.26758194

$$$$

 OpenBabel03272501023D

 29 30  0  0  0  0  0  0  0  0999 V2000
   35.9870   28.1340   34.8270 F   0  0  0  0  0  0  0  0  0  0  0  0
   36.0510   28.9380   33.7250 C   0  0  0  0  0  0  0  0  0  0  0  0
   35.5130   30.2090   33.6840 C   0  0  0  0  0  0  0  0  0  0  0  0
   35.6220   30.9460   32.5390 C   0  0  0  0  0  0  0  0  0  0  0  0
   36.2540   30.4810   31.3980 C   0  0  0  0  0  0  0  0  0  0  0  0
   36.7930   29.1950   31.4550 C   0  0  0  0  0  0  0  0  0  0  0  0
   36.6980   28.4210   32.6050 C   0  0  0  0  0  0  0  0  0  0  0  0
   35.2010   31.9300   32.5190 H   0  0  0  0  0  0  0  0  0  0  0  0
   36.3460   31.0620   30.4810 H   0  0  0  0  0  0  0  0  0  0  0  0
   37.3060   28.7580   30.5990 H   0  0  0  0  0  0  0  0  0  0  0  0
   32.8780   30.7890   36.1540 C   0  0  0  0  0  0  0  0  0  0  0  0
   33.4630   31.6230   37.1030 C   0  0  0  0  0  0  0  0  0  0  0  0
   34.7960   31.9900   36.8830 C   0  0  0  0  0  0  0  0  0  0  0  0
   35.4660   31.5370   35.7790 N   0  0  0  0  0  0  0  0  0  0  0  0
   34.8410   30.7190   34.8780 C   0  0  0  0  0  0  0  0  0  0  0  0
   33.5440   30.3510   35.0760 N   0  0  0  0  0  0  0  0  0  0  0  0
   31.8370   30.4580   36.2580 H   0  0  0  0  0  0  0  0  0  0  0  0
   32.9080   31.9660   37.9680 H   0  0  0  0  0  0  0  0  0  0  0  0
   35.2860   32.6360   37.5950 H   0  0  0  0  0  0  0  0  0  0  0  0
   37.2290   27.1800   32.6330 O   0  0  0  0  0  0  0  0  0  0  0  0
   38.2320   25.8110   30.6800 O   0  0  0  0  0  0  0  0  0  0  0  0
   36.9950   25.9030   31.5660 P   0  0  2  0  0  0  0  0  0  0  0  0
   35.6830   26.0850   30.5310 O   0  0  0  0  0  0  0  0  0  0  0  0
   35.7340   26.9750   30.1170 H   0  0  0  0  0  0  0  0  0  0  0  0
   36.8670   24.4200   32.3920 O   0  0  0  0  0  0  0  0  0  0  0  0
   36.0210   23.5390   31.7680 C   0  0  0  0  0  0  0  0  0  0  0  0
   34.7320   24.0110   31.6680 F   0  0  0  0  0  0  0  0  0  0  0  0
   36.5040   23.3390   30.5000 F   0  0  0  0  0  0  0  0  0  0  0  0
   36.0070   22.3220   32.4410 F   0  0  0  0  0  0  0  0  0  0  0  0
  2  1  1  0  0  0  0
  3  2  1  0  0  0  0
  3 15  1  0  0  0  0
  4  3  2  0  0  0  0
  5  6  2  0  0  0  0
  5  4  1  0  0  0  0
  6  7  1  0  0  0  0
  7 20  1  0  0  0  0
  7  2  2  0  0  0  0
  8  4  1  0  0  0  0
  9  5  1  0  0  0  0
 10  6  1  0  0  0  0
 11 17  1  0  0  0  0
 11 12  1  0  0  0  0
 12 18  1  0  0  0  0
 13 12  2  0  0  0  0
 13 19  1  0  0  0  0
 14 13  1  0  0  0  0
 15 16  1  0  0  0  0
 15 14  2  0  0  0  0
 16 11  2  0  0  0  0
 22 21  2  6  0  0  0
 22 25  1  0  0  0  0
 22 20  1  0  0  0  0
 23 22  1  0  0  0  0
 24 23  1  0  0  0  0
 26 25  1  0  0  0  0
 26 29  1  0  0  0  0
 27 26  1  0  0  0  0
 28 26  1  0  0  0  0
M  END
>  <minimizedAffinity>
-5.10319281

$$$$

 OpenBabel03272501023D

 29 30  0  0  0  0  0  0  0  0999 V2000
   38.4150   24.9630   33.6470 F   0  0  0  0  0  0  0  0  0  0  0  0
   37.8110   23.7960   33.2740 C   0  0  0  0  0  0  0  0  0  0  0  0
   37.8040   22.6630   34.0630 C   0  0  0  0  0  0  0  0  0  0  0  0
   37.1760   21.5370   33.6120 C   0  0  0  0  0  0  0  0  0  0  0  0
   36.5330   21.4690   32.3870 C   0  0  0  0  0  0  0  0  0  0  0  0
   36.5490   22.6230   31.6020 C   0  0  0  0  0  0  0  0  0  0  0  0
   37.1800   23.7830   32.0320 C   0  0  0  0  0  0  0  0  0  0  0  0
   37.1770   20.6640   34.2320 H   0  0  0  0  0  0  0  0  0  0  0  0
   36.0290   20.5760   32.0190 H   0  0  0  0  0  0  0  0  0  0  0  0
   36.0660   22.6490   30.6250 H   0  0  0  0  0  0  0  0  0  0  0  0
   38.3870   23.3890   37.5990 C   0  0  0  0  0  0  0  0  0  0  0  0
   39.6530   22.8720   37.8620 C   0  0  0  0  0  0  0  0  0  0  0  0
   40.3160   22.2590   36.7910 C   0  0  0  0  0  0  0  0  0  0  0  0
   39.7250   22.1880   35.5600 N   0  0  0  0  0  0  0  0  0  0  0  0
   38.4770   22.7140   35.3590 C   0  0  0  0  0  0  0  0  0  0  0  0
   37.8170   23.3140   36.3890 N   0  0  0  0  0  0  0  0  0  0  0  0
   37.8060   23.8840   38.3890 H   0  0  0  0  0  0  0  0  0  0  0  0
   40.0960   22.9420   38.8470 H   0  0  0  0  0  0  0  0  0  0  0  0
   41.2990   21.8450   36.9530 H   0  0  0  0  0  0  0  0  0  0  0  0
   37.1790   24.8850   31.2520 O   0  0  0  0  0  0  0  0  0  0  0  0
   34.6850   25.5340   31.0250 O   0  0  0  0  0  0  0  0  0  0  0  0
   36.0700   26.1460   31.2020 P   0  0  2  0  0  0  0  0  0  0  0  0
   36.2820   27.2170   29.9240 O   0  0  0  0  0  0  0  0  0  0  0  0
   36.3680   26.6980   29.0930 H   0  0  0  0  0  0  0  0  0  0  0  0
   36.0450   27.0080   32.6690 O   0  0  0  0  0  0  0  0  0  0  0  0
   37.1140   27.8580   32.8010 C   0  0  0  0  0  0  0  0  0  0  0  0
   38.2170   27.4500   32.0840 F   0  0  0  0  0  0  0  0  0  0  0  0
   36.7220   29.0830   32.3240 F   0  0  0  0  0  0  0  0  0  0  0  0
   37.4670   27.9900   34.1390 F   0  0  0  0  0  0  0  0  0  0  0  0
  2  1  1  0  0  0  0
  2  3  1  0  0  0  0
  3 15  1  0  0  0  0
  4  3  2  0  0  0  0
  4  8  1  0  0  0  0
  5  4  1  0  0  0  0
  6  7  1  0  0  0  0
  6  5  2  0  0  0  0
  7  2  2  0  0  0  0
  9  5  1  0  0  0  0
 10  6  1  0  0  0  0
 11 12  1  0  0  0  0
 11 17  1  0  0  0  0
 12 18  1  0  0  0  0
 13 19  1  0  0  0  0
 13 12  2  0  0  0  0
 14 13  1  0  0  0  0
 15 14  2  0  0  0  0
 15 16  1  0  0  0  0
 16 11  2  0  0  0  0
 20  7  1  0  0  0  0
 22 21  2  6  0  0  0
 22 20  1  0  0  0  0
 22 25  1  0  0  0  0
 23 22  1  0  0  0  0
 24 23  1  0  0  0  0
 25 26  1  0  0  0  0
 26 29  1  0  0  0  0
 27 26  1  0  0  0  0
 28 26  1  0  0  0  0
M  END
>  <minimizedAffinity>
-5.10289001

$$$$

 OpenBabel03272501023D

 29 30  0  0  0  0  0  0  0  0999 V2000
   36.9740   25.3390   32.8260 F   0  0  0  0  0  0  0  0  0  0  0  0
   37.4460   25.9500   33.9530 C   0  0  0  0  0  0  0  0  0  0  0  0
   37.3370   27.3080   34.1790 C   0  0  0  0  0  0  0  0  0  0  0  0
   37.8380   27.8370   35.3340 C   0  0  0  0  0  0  0  0  0  0  0  0
   38.4570   27.0730   36.3100 C   0  0  0  0  0  0  0  0  0  0  0  0
   38.5590   25.7030   36.0670 C   0  0  0  0  0  0  0  0  0  0  0  0
   38.0600   25.1350   34.9010 C   0  0  0  0  0  0  0  0  0  0  0  0
   37.7480   28.8910   35.4980 H   0  0  0  0  0  0  0  0  0  0  0  0
   38.8590   27.4860   37.2340 H   0  0  0  0  0  0  0  0  0  0  0  0
   39.0330   25.0340   36.7860 H   0  0  0  0  0  0  0  0  0  0  0  0
   36.7770   29.0260   30.9990 C   0  0  0  0  0  0  0  0  0  0  0  0
   35.5540   29.6720   31.1580 C   0  0  0  0  0  0  0  0  0  0  0  0
   34.9120   29.5080   32.3920 C   0  0  0  0  0  0  0  0  0  0  0  0
   35.4820   28.7460   33.3740 N   0  0  0  0  0  0  0  0  0  0  0  0
   36.6870   28.1320   33.1610 C   0  0  0  0  0  0  0  0  0  0  0  0
   37.3270   28.2810   31.9680 N   0  0  0  0  0  0  0  0  0  0  0  0
   37.3400   29.1070   30.0600 H   0  0  0  0  0  0  0  0  0  0  0  0
   35.1260   30.2700   30.3630 H   0  0  0  0  0  0  0  0  0  0  0  0
   33.9620   29.9930   32.5560 H   0  0  0  0  0  0  0  0  0  0  0  0
   38.1710   23.8060   34.6930 O   0  0  0  0  0  0  0  0  0  0  0  0
   37.1140   23.1160   36.9510 O   0  0  0  0  0  0  0  0  0  0  0  0
   37.8480   22.5380   35.7470 P   0  0  2  0  0  0  0  0  0  0  0  0
   39.2110   21.7620   36.3510 O   0  0  0  0  0  0  0  0  0  0  0  0
   39.8330   22.4440   36.6900 H   0  0  0  0  0  0  0  0  0  0  0  0
   36.8070   21.3920   35.0380 O   0  0  0  0  0  0  0  0  0  0  0  0
   36.9750   21.2960   33.6800 C   0  0  0  0  0  0  0  0  0  0  0  0
   36.5100   22.4000   33.0010 F   0  0  0  0  0  0  0  0  0  0  0  0
   38.3210   21.1810   33.4420 F   0  0  0  0  0  0  0  0  0  0  0  0
   36.3350   20.1620   33.1910 F   0  0  0  0  0  0  0  0  0  0  0  0
  1  2  1  0  0  0  0
  2  3  2  0  0  0  0
  2  7  1  0  0  0  0
  3  4  1  0  0  0  0
  4  8  1  0  0  0  0
  4  5  2  0  0  0  0
  5  9  1  0  0  0  0
  6  5  1  0  0  0  0
  6 10  1  0  0  0  0
  7  6  2  0  0  0  0
 11 12  2  0  0  0  0
 11 16  1  0  0  0  0
 12 13  1  0  0  0  0
 13 19  1  0  0  0  0
 13 14  2  0  0  0  0
 15 14  1  0  0  0  0
 15  3  1  0  0  0  0
 16 15  2  0  0  0  0
 17 11  1  0  0  0  0
 18 12  1  0  0  0  0
 20  7  1  0  0  0  0
 20 22  1  0  0  0  0
 22 23  1  0  0  0  0
 22 21  2  1  0  0  0
 23 24  1  0  0  0  0
 25 22  1  0  0  0  0
 26 25  1  0  0  0  0
 27 26  1  0  0  0  0
 28 26  1  0  0  0  0
 29 26  1  0  0  0  0
M  END
>  <minimizedAffinity>
-5.06286669

$$$$

 OpenBabel03272501023D

 29 30  0  0  0  0  0  0  0  0999 V2000
   38.5720   22.3880   33.0470 F   0  0  0  0  0  0  0  0  0  0  0  0
   37.6300   23.2260   32.5200 C   0  0  0  0  0  0  0  0  0  0  0  0
   36.4260   22.7840   32.0090 C   0  0  0  0  0  0  0  0  0  0  0  0
   35.5410   23.6920   31.5020 C   0  0  0  0  0  0  0  0  0  0  0  0
   35.7880   25.0550   31.4720 C   0  0  0  0  0  0  0  0  0  0  0  0
   37.0090   25.4850   31.9920 C   0  0  0  0  0  0  0  0  0  0  0  0
   37.9300   24.5860   32.5150 C   0  0  0  0  0  0  0  0  0  0  0  0
   34.6100   23.3380   31.1080 H   0  0  0  0  0  0  0  0  0  0  0  0
   35.0880   25.7860   31.0700 H   0  0  0  0  0  0  0  0  0  0  0  0
   37.2780   26.5420   32.0050 H   0  0  0  0  0  0  0  0  0  0  0  0
   36.1430   19.3270   30.8530 C   0  0  0  0  0  0  0  0  0  0  0  0
   35.6500   18.6270   31.9510 C   0  0  0  0  0  0  0  0  0  0  0  0
   35.4120   19.3690   33.1140 C   0  0  0  0  0  0  0  0  0  0  0  0
   35.6590   20.7140   33.1410 N   0  0  0  0  0  0  0  0  0  0  0  0
   36.1450   21.3500   32.0310 C   0  0  0  0  0  0  0  0  0  0  0  0
   36.3830   20.6450   30.8900 N   0  0  0  0  0  0  0  0  0  0  0  0
   36.3550   18.8130   29.9060 H   0  0  0  0  0  0  0  0  0  0  0  0
   35.4630   17.5610   31.9010 H   0  0  0  0  0  0  0  0  0  0  0  0
   35.0290   18.8640   33.9880 H   0  0  0  0  0  0  0  0  0  0  0  0
   39.1040   25.0310   33.0130 O   0  0  0  0  0  0  0  0  0  0  0  0
   41.0470   25.0600   34.7210 O   0  0  0  0  0  0  0  0  0  0  0  0
   39.5450   25.2930   34.6130 P   0  0  2  0  0  0  0  0  0  0  0  0
   38.8240   24.2530   35.7190 O   0  0  0  0  0  0  0  0  0  0  0  0
   38.9340   23.3300   35.3970 H   0  0  0  0  0  0  0  0  0  0  0  0
   39.2600   26.9060   35.0780 O   0  0  0  0  0  0  0  0  0  0  0  0
   38.0850   27.0560   35.7700 C   0  0  0  0  0  0  0  0  0  0  0  0
   38.2140   26.7850   37.1140 F   0  0  0  0  0  0  0  0  0  0  0  0
   37.6960   28.3650   35.6320 F   0  0  0  0  0  0  0  0  0  0  0  0
   37.0990   26.2360   35.2350 F   0  0  0  0  0  0  0  0  0  0  0  0
  2  1  1  0  0  0  0
  3 15  1  0  0  0  0
  3  2  2  0  0  0  0
  4  3  1  0  0  0  0
  5  4  2  0  0  0  0
  5  6  1  0  0  0  0
  6 10  1  0  0  0  0
  6  7  2  0  0  0  0
  7  2  1  0  0  0  0
  7 20  1  0  0  0  0
  8  4  1  0  0  0  0
  9  5  1  0  0  0  0
 11 16  2  0  0  0  0
 11 12  1  0  0  0  0
 12 13  2  0  0  0  0
 13 14  1  0  0  0  0
 13 19  1  0  0  0  0
 15 14  2  0  0  0  0
 16 15  1  0  0  0  0
 17 11  1  0  0  0  0
 18 12  1  0  0  0  0
 20 22  1  0  0  0  0
 22 21  2  1  0  0  0
 22 25  1  0  0  0  0
 22 23  1  0  0  0  0
 24 23  1  0  0  0  0
 25 26  1  0  0  0  0
 26 27  1  0  0  0  0
 28 26  1  0  0  0  0
 29 26  1  0  0  0  0
M  END
>  <minimizedAffinity>
-5.04167604

$$$$
