
 OpenBabel03272500553D

 28 29  0  0  0  0  0  0  0  0999 V2000
   35.7060   30.0050   46.4670 C   0  0  0  0  0  0  0  0  0  0  0  0
   34.8420   29.7300   45.4260 C   0  0  0  0  0  0  0  0  0  0  0  0
   35.2430   29.8070   44.0930 C   0  0  0  0  0  0  0  0  0  0  0  0
   36.6040   30.1840   43.8160 C   0  0  0  0  0  0  0  0  0  0  0  0
   37.4160   30.4440   44.8840 C   0  0  0  0  0  0  0  0  0  0  0  0
   37.0160   30.3710   46.1630 C   0  0  0  0  0  0  0  0  0  0  0  0
   33.8060   29.4400   45.6200 H   0  0  0  0  0  0  0  0  0  0  0  0
   34.4810   29.5700   43.3310 H   0  0  0  0  0  0  0  0  0  0  0  0
   36.7250   30.1890   42.7450 H   0  0  0  0  0  0  0  0  0  0  0  0
   38.3510   30.6450   44.4040 H   0  0  0  0  0  0  0  0  0  0  0  0
   34.6250   28.5720   48.1190 C   0  0  0  0  0  0  0  0  0  0  0  0
   35.1520   29.8450   47.7900 C   0  0  0  0  0  0  0  0  0  0  0  0
   35.0750   30.8020   48.7850 C   0  0  0  0  0  0  0  0  0  0  0  0
   34.5240   30.4870   49.9730 N   0  0  0  0  0  0  0  0  0  0  0  0
   34.0330   29.2930   50.2720 C   0  0  0  0  0  0  0  0  0  0  0  0
   34.0890   28.3360   49.3320 N   0  0  0  0  0  0  0  0  0  0  0  0
   34.6270   27.7400   47.4220 H   0  0  0  0  0  0  0  0  0  0  0  0
   35.4790   31.7740   48.5320 H   0  0  0  0  0  0  0  0  0  0  0  0
   33.5890   29.0350   51.2230 H   0  0  0  0  0  0  0  0  0  0  0  0
   38.4080   32.0160   47.0910 C   0  0  0  0  0  0  0  0  0  0  0  0
   38.0860   32.7430   46.0710 O   0  0  0  0  0  0  0  0  0  0  0  0
   37.8610   30.6710   47.2120 N   0  0  0  0  0  0  0  0  0  0  0  0
   38.1020   30.0440   47.9990 H   0  0  0  0  0  0  0  0  0  0  0  0
   39.2820   32.4930   48.1010 O   0  0  0  0  0  0  0  0  0  0  0  0
   38.7310   32.8650   49.3540 C   0  0  0  0  0  0  0  0  0  0  0  0
   38.8190   31.7290   50.1620 F   0  0  0  0  0  0  0  0  0  0  0  0
   39.5320   33.8260   49.9790 F   0  0  0  0  0  0  0  0  0  0  0  0
   37.4390   33.3000   49.2740 F   0  0  0  0  0  0  0  0  0  0  0  0
  1 12  1  0  0  0  0
  2  7  1  0  0  0  0
  2  1  2  0  0  0  0
  3  2  1  0  0  0  0
  4  3  2  0  0  0  0
  4  5  1  0  0  0  0
  5  6  2  0  0  0  0
  6  1  1  0  0  0  0
  6 22  1  0  0  0  0
  8  3  1  0  0  0  0
  9  4  1  0  0  0  0
 10  5  1  0  0  0  0
 11 16  1  0  0  0  0
 12 11  2  0  0  0  0
 12 13  1  0  0  0  0
 13 14  2  0  0  0  0
 14 15  1  0  0  0  0
 15 19  1  0  0  0  0
 16 15  2  0  0  0  0
 17 11  1  0  0  0  0
 18 13  1  0  0  0  0
 20 22  1  0  0  0  0
 20 24  1  0  0  0  0
 21 20  2  0  0  0  0
 22 23  1  0  0  0  0
 24 25  1  0  0  0  0
 25 27  1  0  0  0  0
 25 26  1  0  0  0  0
 28 25  1  0  0  0  0
M  END
>  <minimizedAffinity>
-5.03589296

>  <minimizedRMSD>
2.97552991

$$$$
