
 OpenBabel03272510243D

 27 29  0  0  0  0  0  0  0  0999 V2000
   35.6020   29.9970   47.8590 C   0  0  0  0  0  0  0  0  0  0  0  0
   36.3340   30.5420   46.8240 C   0  0  0  0  0  0  0  0  0  0  0  0
   36.0220   30.2520   45.5150 C   0  0  0  0  0  0  0  0  0  0  0  0
   34.9490   29.3940   45.2880 C   0  0  0  0  0  0  0  0  0  0  0  0
   34.4530   28.9610   44.0880 N   0  0  0  0  0  0  0  0  0  0  0  0
   33.4310   28.1600   44.3780 C   0  0  0  0  0  0  0  0  0  0  0  0
   33.2460   28.0580   45.6850 N   0  0  0  0  0  0  0  0  0  0  0  0
   34.1910   28.8270   46.2930 C   0  0  0  0  0  0  0  0  0  0  0  0
   34.5310   29.1410   47.6090 C   0  0  0  0  0  0  0  0  0  0  0  0
   35.8120   30.1980   48.9100 H   0  0  0  0  0  0  0  0  0  0  0  0
   36.5940   30.6770   44.7040 H   0  0  0  0  0  0  0  0  0  0  0  0
   34.8420   29.2390   43.1470 H   0  0  0  0  0  0  0  0  0  0  0  0
   33.9460   28.7020   48.4000 H   0  0  0  0  0  0  0  0  0  0  0  0
   39.4160   32.6950   46.7500 C   0  0  0  0  0  0  0  0  0  0  0  0
   38.4160   31.8470   46.2880 C   0  0  0  0  0  0  0  0  0  0  0  0
   37.4350   31.4260   47.1710 C   0  0  0  0  0  0  0  0  0  0  0  0
   37.5030   31.8720   48.4700 N   0  0  0  0  0  0  0  0  0  0  0  0
   38.4910   32.7000   48.8960 C   0  0  0  0  0  0  0  0  0  0  0  0
   39.4290   33.1020   48.0450 N   0  0  0  0  0  0  0  0  0  0  0  0
   40.1950   33.0400   46.0830 H   0  0  0  0  0  0  0  0  0  0  0  0
   38.3670   31.5040   45.2780 H   0  0  0  0  0  0  0  0  0  0  0  0
   38.4040   32.9600   49.9440 H   0  0  0  0  0  0  0  0  0  0  0  0
   32.6840   27.5360   43.3790 O   0  0  0  0  0  0  0  0  0  0  0  0
   31.5840   28.1220   42.7540 C   0  0  0  0  0  0  0  0  0  0  0  0
   31.2110   29.2510   43.4610 F   0  0  0  0  0  0  0  0  0  0  0  0
   30.4790   27.2760   42.7630 F   0  0  0  0  0  0  0  0  0  0  0  0
   31.9340   28.4280   41.4520 F   0  0  0  0  0  0  0  0  0  0  0  0
  1 10  1  0  0  0  0
  2 16  1  0  0  0  0
  2  1  2  0  0  0  0
  3  2  1  0  0  0  0
  4  3  2  0  0  0  0
  4  8  1  0  0  0  0
  5  6  1  0  0  0  0
  5  4  1  0  0  0  0
  6  7  2  0  0  0  0
  7  8  1  0  0  0  0
  8  9  2  0  0  0  0
  9  1  1  0  0  0  0
  9 13  1  0  0  0  0
 11  3  1  0  0  0  0
 12  5  1  0  0  0  0
 14 19  1  0  0  0  0
 15 14  2  0  0  0  0
 15 16  1  0  0  0  0
 16 17  2  0  0  0  0
 17 18  1  0  0  0  0
 18 22  1  0  0  0  0
 19 18  2  0  0  0  0
 20 14  1  0  0  0  0
 21 15  1  0  0  0  0
 23  6  1  0  0  0  0
 24 26  1  0  0  0  0
 24 23  1  0  0  0  0
 24 25  1  0  0  0  0
 27 24  1  0  0  0  0
M  END
>  <minimizedAffinity>
-3.49651074

>  <minimizedRMSD>
7.59421539

$$$$
