
 OpenBabel03272500053D

 24 25  0  0  0  0  0  0  0  0999 V2000
   38.5340   26.5420   35.8560 C   0  0  0  0  0  0  0  0  0  0  0  0
   38.5660   25.2620   35.2690 C   0  0  0  0  0  0  0  0  0  0  0  0
   37.8210   25.0550   34.1160 C   0  0  0  0  0  0  0  0  0  0  0  0
   37.0930   26.0770   33.5950 N   0  0  0  0  0  0  0  0  0  0  0  0
   37.0760   27.2910   34.1690 C   0  0  0  0  0  0  0  0  0  0  0  0
   37.8020   27.5340   35.3120 N   0  0  0  0  0  0  0  0  0  0  0  0
   39.0990   26.7440   36.7510 H   0  0  0  0  0  0  0  0  0  0  0  0
   37.8370   24.0780   33.6570 H   0  0  0  0  0  0  0  0  0  0  0  0
   39.3560   24.2610   35.8890 N   0  0  0  0  0  0  0  0  0  0  0  0
   40.6280   24.0180   35.5360 C   0  0  0  0  0  0  0  0  0  0  0  0
   41.3580   23.0230   36.1800 C   0  0  0  0  0  0  0  0  0  0  0  0
   40.6640   22.3540   37.1650 C   0  0  0  0  0  0  0  0  0  0  0  0
   41.3280   21.4450   37.7550 O   0  0  0  0  0  0  0  0  0  0  0  0
   39.4090   22.5640   37.5440 N   0  0  0  0  0  0  0  0  0  0  0  0
   38.7600   23.5450   36.8770 C   0  0  0  0  0  0  0  0  0  0  0  0
   37.5500   23.7530   37.2360 O   0  0  0  0  0  0  0  0  0  0  0  0
   41.0560   24.6190   34.7420 H   0  0  0  0  0  0  0  0  0  0  0  0
   42.3730   22.8160   35.9100 H   0  0  0  0  0  0  0  0  0  0  0  0
   38.9550   22.0060   38.3080 H   0  0  0  0  0  0  0  0  0  0  0  0
   36.3470   28.3660   33.6720 O   0  0  0  0  0  0  0  0  0  0  0  0
   36.4650   28.7920   32.3200 C   0  0  0  0  0  0  0  0  0  0  0  0
   37.7400   28.5140   31.8500 F   0  0  0  0  0  0  0  0  0  0  0  0
   35.5290   28.1560   31.5630 F   0  0  0  0  0  0  0  0  0  0  0  0
   36.2940   30.1740   32.2910 F   0  0  0  0  0  0  0  0  0  0  0  0
  1  7  1  0  0  0  0
  2  1  2  0  0  0  0
  2  9  1  0  0  0  0
  3  2  1  0  0  0  0
  4  3  2  0  0  0  0
  4  5  1  0  0  0  0
  5  6  2  0  0  0  0
  6  1  1  0  0  0  0
  8  3  1  0  0  0  0
  9 15  1  0  0  0  0
 10  9  1  0  0  0  0
 10 11  2  0  0  0  0
 11 12  1  0  0  0  0
 12 14  1  0  0  0  0
 12 13  2  0  0  0  0
 14 19  1  0  0  0  0
 15 16  2  0  0  0  0
 15 14  1  0  0  0  0
 17 10  1  0  0  0  0
 18 11  1  0  0  0  0
 20  5  1  0  0  0  0
 21 20  1  0  0  0  0
 22 21  1  0  0  0  0
 23 21  1  0  0  0  0
 24 21  1  0  0  0  0
M  END
>  <minimizedAffinity>
-5.06694698

$$$$

 OpenBabel03272500053D

 24 25  0  0  0  0  0  0  0  0999 V2000
   38.2970   27.1210   34.9210 C   0  0  0  0  0  0  0  0  0  0  0  0
   37.7300   26.6410   33.7240 C   0  0  0  0  0  0  0  0  0  0  0  0
   37.6170   25.2670   33.5610 C   0  0  0  0  0  0  0  0  0  0  0  0
   38.0500   24.4370   34.5450 N   0  0  0  0  0  0  0  0  0  0  0  0
   38.5880   24.9130   35.6800 C   0  0  0  0  0  0  0  0  0  0  0  0
   38.7160   26.2690   35.8770 N   0  0  0  0  0  0  0  0  0  0  0  0
   38.4020   28.1800   35.0870 H   0  0  0  0  0  0  0  0  0  0  0  0
   37.1840   24.8880   32.6480 H   0  0  0  0  0  0  0  0  0  0  0  0
   37.3090   27.5890   32.7580 N   0  0  0  0  0  0  0  0  0  0  0  0
   36.1440   28.2490   32.8480 C   0  0  0  0  0  0  0  0  0  0  0  0
   35.7800   29.1710   31.8700 C   0  0  0  0  0  0  0  0  0  0  0  0
   36.7010   29.3170   30.8550 C   0  0  0  0  0  0  0  0  0  0  0  0
   36.3720   30.1570   29.9600 O   0  0  0  0  0  0  0  0  0  0  0  0
   37.8610   28.6850   30.7290 N   0  0  0  0  0  0  0  0  0  0  0  0
   38.1500   27.8060   31.7150 C   0  0  0  0  0  0  0  0  0  0  0  0
   39.2670   27.1920   31.6000 O   0  0  0  0  0  0  0  0  0  0  0  0
   35.5080   28.0400   33.7010 H   0  0  0  0  0  0  0  0  0  0  0  0
   34.8550   29.7050   31.9270 H   0  0  0  0  0  0  0  0  0  0  0  0
   38.5070   28.8580   29.9200 H   0  0  0  0  0  0  0  0  0  0  0  0
   39.0440   24.1020   36.7130 O   0  0  0  0  0  0  0  0  0  0  0  0
   38.2360   23.8020   37.8450 C   0  0  0  0  0  0  0  0  0  0  0  0
   38.0000   24.9580   38.5730 F   0  0  0  0  0  0  0  0  0  0  0  0
   37.0620   23.2530   37.4280 F   0  0  0  0  0  0  0  0  0  0  0  0
   38.9500   22.9250   38.6590 F   0  0  0  0  0  0  0  0  0  0  0  0
  1  7  1  0  0  0  0
  1  6  1  0  0  0  0
  2  1  2  0  0  0  0
  3  2  1  0  0  0  0
  3  4  2  0  0  0  0
  4  5  1  0  0  0  0
  5  6  2  0  0  0  0
  5 20  1  0  0  0  0
  8  3  1  0  0  0  0
  9 10  1  0  0  0  0
  9  2  1  0  0  0  0
 10 17  1  0  0  0  0
 11 18  1  0  0  0  0
 11 10  2  0  0  0  0
 12 11  1  0  0  0  0
 13 12  2  0  0  0  0
 14 12  1  0  0  0  0
 14 15  1  0  0  0  0
 15  9  1  0  0  0  0
 16 15  2  0  0  0  0
 19 14  1  0  0  0  0
 20 21  1  0  0  0  0
 21 22  1  0  0  0  0
 21 24  1  0  0  0  0
 23 21  1  0  0  0  0
M  END
>  <minimizedAffinity>
-4.72093534

$$$$

 OpenBabel03272500053D

 24 25  0  0  0  0  0  0  0  0999 V2000
   37.8110   25.3140   33.5420 C   0  0  0  0  0  0  0  0  0  0  0  0
   38.2260   26.6590   33.5980 C   0  0  0  0  0  0  0  0  0  0  0  0
   38.9470   27.0730   34.7090 C   0  0  0  0  0  0  0  0  0  0  0  0
   39.2290   26.1830   35.6960 N   0  0  0  0  0  0  0  0  0  0  0  0
   38.8260   24.9030   35.6240 C   0  0  0  0  0  0  0  0  0  0  0  0
   38.1090   24.4570   34.5380 N   0  0  0  0  0  0  0  0  0  0  0  0
   37.2500   24.9520   32.6960 H   0  0  0  0  0  0  0  0  0  0  0  0
   39.2700   28.1020   34.7630 H   0  0  0  0  0  0  0  0  0  0  0  0
   37.8810   27.5090   32.5170 N   0  0  0  0  0  0  0  0  0  0  0  0
   38.5950   27.5650   31.3810 C   0  0  0  0  0  0  0  0  0  0  0  0
   38.2100   28.4190   30.3510 C   0  0  0  0  0  0  0  0  0  0  0  0
   37.0790   29.1590   30.6170 C   0  0  0  0  0  0  0  0  0  0  0  0
   36.7260   29.9400   29.6790 O   0  0  0  0  0  0  0  0  0  0  0  0
   36.3470   29.1340   31.7240 N   0  0  0  0  0  0  0  0  0  0  0  0
   36.7780   28.2820   32.6820 C   0  0  0  0  0  0  0  0  0  0  0  0
   36.0770   28.2520   33.7530 O   0  0  0  0  0  0  0  0  0  0  0  0
   39.4670   26.9270   31.3000 H   0  0  0  0  0  0  0  0  0  0  0  0
   38.7680   28.4750   29.4390 H   0  0  0  0  0  0  0  0  0  0  0  0
   35.4940   29.7340   31.8440 H   0  0  0  0  0  0  0  0  0  0  0  0
   39.0910   23.9580   36.6090 O   0  0  0  0  0  0  0  0  0  0  0  0
   38.2550   23.8100   37.7510 C   0  0  0  0  0  0  0  0  0  0  0  0
   38.0410   25.0470   38.3390 F   0  0  0  0  0  0  0  0  0  0  0  0
   37.0730   23.2490   37.3750 F   0  0  0  0  0  0  0  0  0  0  0  0
   38.9300   23.0120   38.6730 F   0  0  0  0  0  0  0  0  0  0  0  0
  1  2  2  0  0  0  0
  1  6  1  0  0  0  0
  2  3  1  0  0  0  0
  3  8  1  0  0  0  0
  3  4  2  0  0  0  0
  5  4  1  0  0  0  0
  5 20  1  0  0  0  0
  6  5  2  0  0  0  0
  7  1  1  0  0  0  0
  9 15  1  0  0  0  0
  9  2  1  0  0  0  0
 10  9  1  0  0  0  0
 11 12  1  0  0  0  0
 11 10  2  0  0  0  0
 12 14  1  0  0  0  0
 13 12  2  0  0  0  0
 14 19  1  0  0  0  0
 14 15  1  0  0  0  0
 15 16  2  0  0  0  0
 17 10  1  0  0  0  0
 18 11  1  0  0  0  0
 20 21  1  0  0  0  0
 21 22  1  0  0  0  0
 21 24  1  0  0  0  0
 23 21  1  0  0  0  0
M  END
>  <minimizedAffinity>
-4.6594696

$$$$

 OpenBabel03272500053D

 24 25  0  0  0  0  0  0  0  0999 V2000
   37.8450   26.6490   34.0470 C   0  0  0  0  0  0  0  0  0  0  0  0
   37.9210   26.0420   32.7780 C   0  0  0  0  0  0  0  0  0  0  0  0
   38.0330   24.6600   32.7230 C   0  0  0  0  0  0  0  0  0  0  0  0
   38.0660   23.9420   33.8760 N   0  0  0  0  0  0  0  0  0  0  0  0
   37.9910   24.5390   35.0770 C   0  0  0  0  0  0  0  0  0  0  0  0
   37.8790   25.9070   35.1720 N   0  0  0  0  0  0  0  0  0  0  0  0
   37.7570   27.7190   34.1330 H   0  0  0  0  0  0  0  0  0  0  0  0
   38.0920   24.1830   31.7560 H   0  0  0  0  0  0  0  0  0  0  0  0
   37.8790   26.8780   31.6340 N   0  0  0  0  0  0  0  0  0  0  0  0
   38.9620   27.5160   31.1620 C   0  0  0  0  0  0  0  0  0  0  0  0
   38.8640   28.3260   30.0330 C   0  0  0  0  0  0  0  0  0  0  0  0
   37.6000   28.3930   29.4890 C   0  0  0  0  0  0  0  0  0  0  0  0
   37.5070   29.1310   28.4590 O   0  0  0  0  0  0  0  0  0  0  0  0
   36.5060   27.7790   29.9240 N   0  0  0  0  0  0  0  0  0  0  0  0
   36.6750   27.0100   31.0240 C   0  0  0  0  0  0  0  0  0  0  0  0
   35.6240   26.4150   31.4500 O   0  0  0  0  0  0  0  0  0  0  0  0
   39.9010   27.3770   31.6860 H   0  0  0  0  0  0  0  0  0  0  0  0
   39.7170   28.8410   29.6440 H   0  0  0  0  0  0  0  0  0  0  0  0
   35.5770   27.8860   29.4470 H   0  0  0  0  0  0  0  0  0  0  0  0
   38.0210   23.8470   36.2830 O   0  0  0  0  0  0  0  0  0  0  0  0
   39.1760   23.1360   36.7110 C   0  0  0  0  0  0  0  0  0  0  0  0
   40.3170   23.7560   36.2250 F   0  0  0  0  0  0  0  0  0  0  0  0
   39.2000   23.0920   38.0720 F   0  0  0  0  0  0  0  0  0  0  0  0
   39.1200   21.8570   36.1590 F   0  0  0  0  0  0  0  0  0  0  0  0
  1  7  1  0  0  0  0
  1  6  1  0  0  0  0
  2  1  2  0  0  0  0
  3  2  1  0  0  0  0
  3  4  2  0  0  0  0
  4  5  1  0  0  0  0
  5  6  2  0  0  0  0
  5 20  1  0  0  0  0
  8  3  1  0  0  0  0
  9  2  1  0  0  0  0
 10  9  1  0  0  0  0
 10 17  1  0  0  0  0
 11 10  2  0  0  0  0
 12 14  1  0  0  0  0
 12 11  1  0  0  0  0
 13 12  2  0  0  0  0
 14 15  1  0  0  0  0
 15 16  2  0  0  0  0
 15  9  1  0  0  0  0
 18 11  1  0  0  0  0
 19 14  1  0  0  0  0
 20 21  1  0  0  0  0
 21 23  1  0  0  0  0
 22 21  1  0  0  0  0
 24 21  1  0  0  0  0
M  END
>  <minimizedAffinity>
-4.62329388

$$$$

 OpenBabel03272500053D

 24 25  0  0  0  0  0  0  0  0999 V2000
   37.8180   21.8050   34.9150 C   0  0  0  0  0  0  0  0  0  0  0  0
   37.6200   22.4190   33.6630 C   0  0  0  0  0  0  0  0  0  0  0  0
   37.7920   23.7940   33.5770 C   0  0  0  0  0  0  0  0  0  0  0  0
   38.1420   24.4970   34.6860 N   0  0  0  0  0  0  0  0  0  0  0  0
   38.3260   23.8940   35.8710 C   0  0  0  0  0  0  0  0  0  0  0  0
   38.1640   22.5330   35.9950 N   0  0  0  0  0  0  0  0  0  0  0  0
   37.6950   20.7400   35.0250 H   0  0  0  0  0  0  0  0  0  0  0  0
   37.6440   24.2760   32.6230 H   0  0  0  0  0  0  0  0  0  0  0  0
   37.2570   21.5980   32.5660 N   0  0  0  0  0  0  0  0  0  0  0  0
   35.9800   21.3860   32.2100 C   0  0  0  0  0  0  0  0  0  0  0  0
   35.6790   20.5700   31.1230 C   0  0  0  0  0  0  0  0  0  0  0  0
   36.7810   20.0330   30.4920 C   0  0  0  0  0  0  0  0  0  0  0  0
   36.5110   19.2870   29.5000 O   0  0  0  0  0  0  0  0  0  0  0  0
   38.0560   20.2170   30.8120 N   0  0  0  0  0  0  0  0  0  0  0  0
   38.2740   21.0210   31.8780 C   0  0  0  0  0  0  0  0  0  0  0  0
   39.5010   21.2030   32.1930 O   0  0  0  0  0  0  0  0  0  0  0  0
   35.2050   21.8710   32.7930 H   0  0  0  0  0  0  0  0  0  0  0  0
   34.6670   20.3910   30.8260 H   0  0  0  0  0  0  0  0  0  0  0  0
   38.8380   19.7680   30.2750 H   0  0  0  0  0  0  0  0  0  0  0  0
   38.6830   24.5720   37.0310 O   0  0  0  0  0  0  0  0  0  0  0  0
   38.2260   24.1580   38.3140 C   0  0  0  0  0  0  0  0  0  0  0  0
   39.1660   23.3250   38.9010 F   0  0  0  0  0  0  0  0  0  0  0  0
   38.0080   25.2540   39.0900 F   0  0  0  0  0  0  0  0  0  0  0  0
   37.0580   23.4190   38.1320 F   0  0  0  0  0  0  0  0  0  0  0  0
  1  7  1  0  0  0  0
  1  6  1  0  0  0  0
  2  1  2  0  0  0  0
  3  2  1  0  0  0  0
  3  4  2  0  0  0  0
  4  5  1  0  0  0  0
  5  6  2  0  0  0  0
  5 20  1  0  0  0  0
  8  3  1  0  0  0  0
  9  2  1  0  0  0  0
 10  9  1  0  0  0  0
 10 17  1  0  0  0  0
 11 10  2  0  0  0  0
 12 14  1  0  0  0  0
 12 11  1  0  0  0  0
 13 12  2  0  0  0  0
 14 15  1  0  0  0  0
 15 16  2  0  0  0  0
 15  9  1  0  0  0  0
 18 11  1  0  0  0  0
 19 14  1  0  0  0  0
 20 21  1  0  0  0  0
 21 22  1  0  0  0  0
 21 23  1  0  0  0  0
 24 21  1  0  0  0  0
M  END
>  <minimizedAffinity>
-4.62242985

$$$$

 OpenBabel03272500053D

 24 25  0  0  0  0  0  0  0  0999 V2000
   37.7750   25.1150   34.2290 C   0  0  0  0  0  0  0  0  0  0  0  0
   38.4970   25.4370   35.3940 C   0  0  0  0  0  0  0  0  0  0  0  0
   38.4730   26.7540   35.8320 C   0  0  0  0  0  0  0  0  0  0  0  0
   37.7650   27.6800   35.1350 N   0  0  0  0  0  0  0  0  0  0  0  0
   37.0820   27.3540   34.0260 C   0  0  0  0  0  0  0  0  0  0  0  0
   37.0820   26.0580   33.5610 N   0  0  0  0  0  0  0  0  0  0  0  0
   37.7670   24.1040   33.8560 H   0  0  0  0  0  0  0  0  0  0  0  0
   39.0230   27.0140   36.7240 H   0  0  0  0  0  0  0  0  0  0  0  0
   39.2050   24.3990   36.0500 N   0  0  0  0  0  0  0  0  0  0  0  0
   38.7280   23.7670   37.1340 C   0  0  0  0  0  0  0  0  0  0  0  0
   39.4660   22.7530   37.7390 C   0  0  0  0  0  0  0  0  0  0  0  0
   40.6740   22.4890   37.1310 C   0  0  0  0  0  0  0  0  0  0  0  0
   41.3510   21.5640   37.6810 O   0  0  0  0  0  0  0  0  0  0  0  0
   41.1810   23.0880   36.0610 N   0  0  0  0  0  0  0  0  0  0  0  0
   40.4110   24.0630   35.5250 C   0  0  0  0  0  0  0  0  0  0  0  0
   40.8930   24.6460   34.4940 O   0  0  0  0  0  0  0  0  0  0  0  0
   37.7590   24.0730   37.5130 H   0  0  0  0  0  0  0  0  0  0  0  0
   39.1000   22.2400   38.6030 H   0  0  0  0  0  0  0  0  0  0  0  0
   42.1150   22.8230   35.6610 H   0  0  0  0  0  0  0  0  0  0  0  0
   36.3440   28.2670   33.2810 O   0  0  0  0  0  0  0  0  0  0  0  0
   36.7540   28.6810   31.9830 C   0  0  0  0  0  0  0  0  0  0  0  0
   36.6130   30.0550   31.8620 F   0  0  0  0  0  0  0  0  0  0  0  0
   38.0490   28.3140   31.7800 F   0  0  0  0  0  0  0  0  0  0  0  0
   35.9010   28.0830   31.0560 F   0  0  0  0  0  0  0  0  0  0  0  0
  1  2  1  0  0  0  0
  2  3  2  0  0  0  0
  2  9  1  0  0  0  0
  3  8  1  0  0  0  0
  4  3  1  0  0  0  0
  5  4  2  0  0  0  0
  6  5  1  0  0  0  0
  6  1  2  0  0  0  0
  7  1  1  0  0  0  0
  9 10  1  0  0  0  0
 10 17  1  0  0  0  0
 10 11  2  0  0  0  0
 11 18  1  0  0  0  0
 12 13  2  0  0  0  0
 12 11  1  0  0  0  0
 14 12  1  0  0  0  0
 15  9  1  0  0  0  0
 15 14  1  0  0  0  0
 16 15  2  0  0  0  0
 19 14  1  0  0  0  0
 20  5  1  0  0  0  0
 21 20  1  0  0  0  0
 22 21  1  0  0  0  0
 23 21  1  0  0  0  0
 24 21  1  0  0  0  0
M  END
>  <minimizedAffinity>
-4.62133121

$$$$

 OpenBabel03272500053D

 24 25  0  0  0  0  0  0  0  0999 V2000
   39.0190   24.8820   33.9810 C   0  0  0  0  0  0  0  0  0  0  0  0
   39.3250   26.2550   34.0570 C   0  0  0  0  0  0  0  0  0  0  0  0
   38.9490   26.9440   35.2020 C   0  0  0  0  0  0  0  0  0  0  0  0
   38.3080   26.2850   36.2020 N   0  0  0  0  0  0  0  0  0  0  0  0
   38.0250   24.9750   36.1120 C   0  0  0  0  0  0  0  0  0  0  0  0
   38.3820   24.2590   34.9920 N   0  0  0  0  0  0  0  0  0  0  0  0
   39.2940   24.3110   33.1100 H   0  0  0  0  0  0  0  0  0  0  0  0
   39.1780   27.9970   35.2720 H   0  0  0  0  0  0  0  0  0  0  0  0
   39.9960   26.8510   32.9600 N   0  0  0  0  0  0  0  0  0  0  0  0
   39.3870   27.1170   31.7940 C   0  0  0  0  0  0  0  0  0  0  0  0
   40.0950   27.7040   30.7490 C   0  0  0  0  0  0  0  0  0  0  0  0
   41.4180   27.9660   31.0330 C   0  0  0  0  0  0  0  0  0  0  0  0
   42.0680   28.5010   30.0820 O   0  0  0  0  0  0  0  0  0  0  0  0
   42.0570   27.7190   32.1710 N   0  0  0  0  0  0  0  0  0  0  0  0
   41.3080   27.1490   33.1420 C   0  0  0  0  0  0  0  0  0  0  0  0
   41.9170   26.9070   34.2410 O   0  0  0  0  0  0  0  0  0  0  0  0
   38.3380   26.8600   31.7010 H   0  0  0  0  0  0  0  0  0  0  0  0
   39.6250   27.9220   29.8130 H   0  0  0  0  0  0  0  0  0  0  0  0
   43.0710   27.9520   32.3040 H   0  0  0  0  0  0  0  0  0  0  0  0
   37.3710   24.2590   37.1080 O   0  0  0  0  0  0  0  0  0  0  0  0
   38.0230   23.8900   38.3180 C   0  0  0  0  0  0  0  0  0  0  0  0
   38.0700   24.9770   39.1770 F   0  0  0  0  0  0  0  0  0  0  0  0
   37.3520   22.8550   38.8940 F   0  0  0  0  0  0  0  0  0  0  0  0
   39.3350   23.5380   38.0050 F   0  0  0  0  0  0  0  0  0  0  0  0
  1  2  2  0  0  0  0
  1  6  1  0  0  0  0
  2  3  1  0  0  0  0
  3  8  1  0  0  0  0
  3  4  2  0  0  0  0
  5  4  1  0  0  0  0
  5 20  1  0  0  0  0
  6  5  2  0  0  0  0
  7  1  1  0  0  0  0
  9 15  1  0  0  0  0
  9  2  1  0  0  0  0
 10  9  1  0  0  0  0
 11 12  1  0  0  0  0
 11 10  2  0  0  0  0
 12 14  1  0  0  0  0
 13 12  2  0  0  0  0
 14 19  1  0  0  0  0
 14 15  1  0  0  0  0
 15 16  2  0  0  0  0
 17 10  1  0  0  0  0
 18 11  1  0  0  0  0
 20 21  1  0  0  0  0
 21 23  1  0  0  0  0
 21 22  1  0  0  0  0
 24 21  1  0  0  0  0
M  END
>  <minimizedAffinity>
-4.61957979

$$$$

 OpenBabel03272500053D

 24 25  0  0  0  0  0  0  0  0999 V2000
   38.3660   23.7670   34.3140 C   0  0  0  0  0  0  0  0  0  0  0  0
   39.3090   24.2490   35.2430 C   0  0  0  0  0  0  0  0  0  0  0  0
   39.3810   25.6190   35.4480 C   0  0  0  0  0  0  0  0  0  0  0  0
   38.5520   26.4460   34.7580 N   0  0  0  0  0  0  0  0  0  0  0  0
   37.6580   25.9680   33.8770 C   0  0  0  0  0  0  0  0  0  0  0  0
   37.5580   24.6150   33.6470 N   0  0  0  0  0  0  0  0  0  0  0  0
   38.2780   22.7100   34.1260 H   0  0  0  0  0  0  0  0  0  0  0  0
   40.1000   26.0000   36.1580 H   0  0  0  0  0  0  0  0  0  0  0  0
   40.1290   23.3050   35.9120 N   0  0  0  0  0  0  0  0  0  0  0  0
   41.3000   22.8790   35.4140 C   0  0  0  0  0  0  0  0  0  0  0  0
   42.0660   21.9500   36.1140 C   0  0  0  0  0  0  0  0  0  0  0  0
   41.5140   21.5420   37.3090 C   0  0  0  0  0  0  0  0  0  0  0  0
   42.2100   20.6940   37.9500 O   0  0  0  0  0  0  0  0  0  0  0  0
   40.3620   21.9380   37.8360 N   0  0  0  0  0  0  0  0  0  0  0  0
   39.6710   22.8410   37.1020 C   0  0  0  0  0  0  0  0  0  0  0  0
   38.5590   23.2270   37.6040 O   0  0  0  0  0  0  0  0  0  0  0  0
   41.6210   23.2810   34.4590 H   0  0  0  0  0  0  0  0  0  0  0  0
   43.0010   21.6000   35.7300 H   0  0  0  0  0  0  0  0  0  0  0  0
   40.0140   21.5750   38.7570 H   0  0  0  0  0  0  0  0  0  0  0  0
   36.7910   26.7740   33.1480 O   0  0  0  0  0  0  0  0  0  0  0  0
   37.1290   27.2640   31.8560 C   0  0  0  0  0  0  0  0  0  0  0  0
   36.1140   28.0820   31.3830 F   0  0  0  0  0  0  0  0  0  0  0  0
   38.3020   27.9520   31.9270 F   0  0  0  0  0  0  0  0  0  0  0  0
   37.2290   26.1710   30.9980 F   0  0  0  0  0  0  0  0  0  0  0  0
  1  2  1  0  0  0  0
  2  3  2  0  0  0  0
  2  9  1  0  0  0  0
  3  8  1  0  0  0  0
  4  3  1  0  0  0  0
  5  4  2  0  0  0  0
  6  5  1  0  0  0  0
  6  1  2  0  0  0  0
  7  1  1  0  0  0  0
  9 15  1  0  0  0  0
 10  9  1  0  0  0  0
 10 11  2  0  0  0  0
 11 12  1  0  0  0  0
 12 14  1  0  0  0  0
 12 13  2  0  0  0  0
 14 19  1  0  0  0  0
 15 16  2  0  0  0  0
 15 14  1  0  0  0  0
 17 10  1  0  0  0  0
 18 11  1  0  0  0  0
 20  5  1  0  0  0  0
 21 23  1  0  0  0  0
 21 20  1  0  0  0  0
 22 21  1  0  0  0  0
 24 21  1  0  0  0  0
M  END
>  <minimizedAffinity>
-4.61841726

$$$$

 OpenBabel03272500053D

 24 25  0  0  0  0  0  0  0  0999 V2000
   38.5000   26.5990   35.8330 C   0  0  0  0  0  0  0  0  0  0  0  0
   38.4900   25.2900   35.3140 C   0  0  0  0  0  0  0  0  0  0  0  0
   37.7640   25.0530   34.1550 C   0  0  0  0  0  0  0  0  0  0  0  0
   37.0940   26.0750   33.5630 N   0  0  0  0  0  0  0  0  0  0  0  0
   37.1160   27.3180   34.0710 C   0  0  0  0  0  0  0  0  0  0  0  0
   37.8250   27.5910   35.2190 N   0  0  0  0  0  0  0  0  0  0  0  0
   39.0520   26.8250   36.7300 H   0  0  0  0  0  0  0  0  0  0  0  0
   37.7490   24.0530   33.7490 H   0  0  0  0  0  0  0  0  0  0  0  0
   39.2210   24.2920   36.0070 N   0  0  0  0  0  0  0  0  0  0  0  0
   38.7650   23.7010   37.1230 C   0  0  0  0  0  0  0  0  0  0  0  0
   39.5250   22.7260   37.7630 C   0  0  0  0  0  0  0  0  0  0  0  0
   40.7310   22.4530   37.1540 C   0  0  0  0  0  0  0  0  0  0  0  0
   41.4280   21.5640   37.7360 O   0  0  0  0  0  0  0  0  0  0  0  0
   41.2170   23.0130   36.0530 N   0  0  0  0  0  0  0  0  0  0  0  0
   40.4260   23.9510   35.4840 C   0  0  0  0  0  0  0  0  0  0  0  0
   40.8890   24.4960   34.4220 O   0  0  0  0  0  0  0  0  0  0  0  0
   37.7960   24.0090   37.4990 H   0  0  0  0  0  0  0  0  0  0  0  0
   39.1760   22.2460   38.6540 H   0  0  0  0  0  0  0  0  0  0  0  0
   42.1500   22.7440   35.6550 H   0  0  0  0  0  0  0  0  0  0  0  0
   36.4460   28.3940   33.5000 O   0  0  0  0  0  0  0  0  0  0  0  0
   36.6420   28.7640   32.1400 C   0  0  0  0  0  0  0  0  0  0  0  0
   35.7500   28.0750   31.3330 F   0  0  0  0  0  0  0  0  0  0  0  0
   36.4660   30.1070   32.0080 F   0  0  0  0  0  0  0  0  0  0  0  0
   37.9310   28.3780   31.7750 F   0  0  0  0  0  0  0  0  0  0  0  0
  1  7  1  0  0  0  0
  2  1  1  0  0  0  0
  2  9  1  0  0  0  0
  3  2  2  0  0  0  0
  4  5  2  0  0  0  0
  4  3  1  0  0  0  0
  5  6  1  0  0  0  0
  6  1  2  0  0  0  0
  8  3  1  0  0  0  0
  9 10  1  0  0  0  0
 10 17  1  0  0  0  0
 10 11  2  0  0  0  0
 11 18  1  0  0  0  0
 12 13  2  0  0  0  0
 12 11  1  0  0  0  0
 14 12  1  0  0  0  0
 15  9  1  0  0  0  0
 15 14  1  0  0  0  0
 16 15  2  0  0  0  0
 19 14  1  0  0  0  0
 20  5  1  0  0  0  0
 21 20  1  0  0  0  0
 22 21  1  0  0  0  0
 23 21  1  0  0  0  0
 24 21  1  0  0  0  0
M  END
>  <minimizedAffinity>
-4.59327602

$$$$
