
 OpenBabel03272510243D

 27 29  0  0  0  0  0  0  0  0999 V2000
   34.6950   29.5290   46.1670 C   0  0  0  0  0  0  0  0  0  0  0  0
   34.1880   29.2940   47.4290 C   0  0  0  0  0  0  0  0  0  0  0  0
   34.8440   29.7580   48.5470 C   0  0  0  0  0  0  0  0  0  0  0  0
   36.0280   30.4640   48.3470 C   0  0  0  0  0  0  0  0  0  0  0  0
   36.8500   31.0190   49.2910 N   0  0  0  0  0  0  0  0  0  0  0  0
   37.8500   31.5870   48.6220 C   0  0  0  0  0  0  0  0  0  0  0  0
   37.7140   31.4300   47.3140 N   0  0  0  0  0  0  0  0  0  0  0  0
   36.5700   30.7220   47.1030 C   0  0  0  0  0  0  0  0  0  0  0  0
   35.8810   30.2400   45.9910 C   0  0  0  0  0  0  0  0  0  0  0  0
   34.2110   29.1820   45.2550 H   0  0  0  0  0  0  0  0  0  0  0  0
   34.4500   29.5740   49.5340 H   0  0  0  0  0  0  0  0  0  0  0  0
   36.6780   30.9750   50.3320 H   0  0  0  0  0  0  0  0  0  0  0  0
   36.2970   30.4350   45.0160 H   0  0  0  0  0  0  0  0  0  0  0  0
   31.4710   26.8930   48.4250 C   0  0  0  0  0  0  0  0  0  0  0  0
   32.7070   27.5300   48.4380 C   0  0  0  0  0  0  0  0  0  0  0  0
   32.9460   28.5450   47.5260 C   0  0  0  0  0  0  0  0  0  0  0  0
   31.9410   28.8710   46.6470 N   0  0  0  0  0  0  0  0  0  0  0  0
   30.7430   28.2310   46.6540 C   0  0  0  0  0  0  0  0  0  0  0  0
   30.5180   27.2600   47.5310 N   0  0  0  0  0  0  0  0  0  0  0  0
   31.2570   26.0960   49.1260 H   0  0  0  0  0  0  0  0  0  0  0  0
   33.4840   27.2740   49.1240 H   0  0  0  0  0  0  0  0  0  0  0  0
   30.0590   28.6030   45.9000 H   0  0  0  0  0  0  0  0  0  0  0  0
   38.8840   32.2540   49.2780 O   0  0  0  0  0  0  0  0  0  0  0  0
   39.0560   33.6370   49.2460 C   0  0  0  0  0  0  0  0  0  0  0  0
   39.8120   33.9730   48.1380 F   0  0  0  0  0  0  0  0  0  0  0  0
   39.7690   34.0890   50.3530 F   0  0  0  0  0  0  0  0  0  0  0  0
   37.8080   34.2300   49.2120 F   0  0  0  0  0  0  0  0  0  0  0  0
  1  2  1  0  0  0  0
  2 16  1  0  0  0  0
  2  3  2  0  0  0  0
  3 11  1  0  0  0  0
  4  3  1  0  0  0  0
  4  5  1  0  0  0  0
  5 12  1  0  0  0  0
  6 23  1  0  0  0  0
  6  5  1  0  0  0  0
  7  6  2  0  0  0  0
  8  7  1  0  0  0  0
  8  4  2  0  0  0  0
  9  1  2  0  0  0  0
  9  8  1  0  0  0  0
 10  1  1  0  0  0  0
 13  9  1  0  0  0  0
 14 15  1  0  0  0  0
 14 20  1  0  0  0  0
 15 21  1  0  0  0  0
 16 15  2  0  0  0  0
 17 18  2  0  0  0  0
 17 16  1  0  0  0  0
 18 19  1  0  0  0  0
 19 14  2  0  0  0  0
 22 18  1  0  0  0  0
 24 23  1  0  0  0  0
 24 26  1  0  0  0  0
 25 24  1  0  0  0  0
 27 24  1  0  0  0  0
M  END
>  <minimizedAffinity>
-5.66688967

>  <minimizedRMSD>
5.05397463

$$$$
