
 OpenBabel03272507263D

 32 33  0  0  1  0  0  0  0  0999 V2000
   35.7270   24.4460   31.3050 C   0  0  0  0  0  0  0  0  0  0  0  0
   36.6760   24.9300   32.2370 C   0  0  0  0  0  0  0  0  0  0  0  0
   37.4130   23.9730   32.9600 C   0  0  0  0  0  0  0  0  0  0  0  0
   37.1780   22.6680   32.7300 N   0  0  0  0  0  0  0  0  0  0  0  0
   36.2610   22.2490   31.8300 C   0  0  0  0  0  0  0  0  0  0  0  0
   35.5460   23.1420   31.1280 N   0  0  0  0  0  0  0  0  0  0  0  0
   38.3760   24.3780   33.9060 N   0  0  0  0  0  0  0  0  0  0  0  0
   39.1440   25.6330   33.8330 C   0  0  0  0  0  0  0  0  0  0  0  0
   40.2040   25.5330   34.8870 C   0  0  0  0  0  0  0  0  0  0  0  0
   40.2790   24.0880   35.1490 C   0  0  0  0  0  0  0  0  0  0  0  0
   38.8060   23.7000   35.0880 C   0  0  2  0  0  0  0  0  0  0  0  0
   35.2050   25.2440   30.7940 H   0  0  0  0  0  0  0  0  0  0  0  0
   36.8360   25.9820   32.3940 H   0  0  0  0  0  0  0  0  0  0  0  0
   36.1030   21.1840   31.6750 H   0  0  0  0  0  0  0  0  0  0  0  0
   39.5320   25.7280   32.7970 H   0  0  0  0  0  0  0  0  0  0  0  0
   38.4500   26.4880   34.0100 H   0  0  0  0  0  0  0  0  0  0  0  0
   41.1650   25.8250   34.3850 H   0  0  0  0  0  0  0  0  0  0  0  0
   40.1010   26.2010   35.7440 H   0  0  0  0  0  0  0  0  0  0  0  0
   40.8230   23.5830   34.3180 H   0  0  0  0  0  0  0  0  0  0  0  0
   40.7420   23.8360   36.1360 H   0  0  0  0  0  0  0  0  0  0  0  0
   38.6000   22.2440   35.1780 C   0  0  0  0  0  0  0  0  0  0  0  0
   39.3760   21.8020   36.2420 F   0  0  0  0  0  0  0  0  0  0  0  0
   38.9860   21.5240   34.0910 F   0  0  0  0  0  0  0  0  0  0  0  0
   37.2850   22.0490   35.5510 F   0  0  0  0  0  0  0  0  0  0  0  0
   38.0650   24.3540   36.2170 C   0  0  0  0  0  0  0  0  0  0  0  0
   36.9980   24.0410   36.2730 H   0  0  0  0  0  0  0  0  0  0  0  0
   37.9830   25.4370   35.9160 H   0  0  0  0  0  0  0  0  0  0  0  0
   38.7060   24.1310   37.2360 O   0  0  0  0  0  0  0  0  0  0  0  0
   38.2370   24.0400   38.5200 C   0  0  0  0  0  0  0  0  0  0  0  0
   39.3080   23.6350   39.3290 F   0  0  0  0  0  0  0  0  0  0  0  0
   37.6890   25.1680   39.0420 F   0  0  0  0  0  0  0  0  0  0  0  0
   37.3700   22.9420   38.5390 F   0  0  0  0  0  0  0  0  0  0  0  0
  1  2  1  0  0  0  0
  2 13  1  0  0  0  0
  2  3  2  0  0  0  0
  3  7  1  0  0  0  0
  4  3  1  0  0  0  0
  5  4  2  0  0  0  0
  6  1  2  0  0  0  0
  6  5  1  0  0  0  0
  7 11  1  0  0  0  0
  8  7  1  0  0  0  0
  8 16  1  0  0  0  0
  8  9  1  0  0  0  0
  9 10  1  0  0  0  0
  9 18  1  0  0  0  0
 10 20  1  0  0  0  0
 11 10  1  0  0  0  0
 11 21  1  6  0  0  0
 11 25  1  0  0  0  0
 12  1  1  0  0  0  0
 14  5  1  0  0  0  0
 15  8  1  0  0  0  0
 17  9  1  0  0  0  0
 19 10  1  0  0  0  0
 21 24  1  0  0  0  0
 21 22  1  0  0  0  0
 23 21  1  0  0  0  0
 25 26  1  0  0  0  0
 25 28  1  0  0  0  0
 27 25  1  0  0  0  0
 28 29  1  0  0  0  0
 29 32  1  0  0  0  0
 29 31  1  0  0  0  0
 29 30  1  0  0  0  0
M  END
>  <minimizedAffinity>
-5.34777546

$$$$

 OpenBabel03272507263D

 32 33  0  0  1  0  0  0  0  0999 V2000
   35.5580   26.1690   31.3520 C   0  0  0  0  0  0  0  0  0  0  0  0
   36.4900   26.4610   32.3760 C   0  0  0  0  0  0  0  0  0  0  0  0
   37.3230   25.4100   32.8070 C   0  0  0  0  0  0  0  0  0  0  0  0
   37.1880   24.2020   32.2300 N   0  0  0  0  0  0  0  0  0  0  0  0
   36.2840   23.9670   31.2530 C   0  0  0  0  0  0  0  0  0  0  0  0
   35.4800   24.9520   30.8260 N   0  0  0  0  0  0  0  0  0  0  0  0
   38.2760   25.6230   33.8230 N   0  0  0  0  0  0  0  0  0  0  0  0
   38.9370   26.9130   34.0920 C   0  0  0  0  0  0  0  0  0  0  0  0
   40.0300   26.6210   35.0740 C   0  0  0  0  0  0  0  0  0  0  0  0
   40.2300   25.1710   34.9310 C   0  0  0  0  0  0  0  0  0  0  0  0
   38.7920   24.6900   34.7730 C   0  0  2  0  0  0  0  0  0  0  0  0
   34.9590   27.0280   31.0810 H   0  0  0  0  0  0  0  0  0  0  0  0
   36.5680   27.4400   32.8150 H   0  0  0  0  0  0  0  0  0  0  0  0
   36.2090   22.9740   30.8140 H   0  0  0  0  0  0  0  0  0  0  0  0
   39.2860   27.3180   33.1200 H   0  0  0  0  0  0  0  0  0  0  0  0
   38.1800   27.6240   34.4990 H   0  0  0  0  0  0  0  0  0  0  0  0
   40.9490   27.1200   34.6670 H   0  0  0  0  0  0  0  0  0  0  0  0
   39.8970   27.0190   36.0820 H   0  0  0  0  0  0  0  0  0  0  0  0
   40.7890   24.9600   33.9910 H   0  0  0  0  0  0  0  0  0  0  0  0
   40.7390   24.7010   35.8090 H   0  0  0  0  0  0  0  0  0  0  0  0
   38.7080   23.2520   34.4620 C   0  0  0  0  0  0  0  0  0  0  0  0
   39.5400   22.6050   35.3660 F   0  0  0  0  0  0  0  0  0  0  0  0
   39.1280   22.8890   33.2200 F   0  0  0  0  0  0  0  0  0  0  0  0
   37.4220   22.8520   34.7660 F   0  0  0  0  0  0  0  0  0  0  0  0
   38.0320   24.9450   36.0410 C   0  0  0  0  0  0  0  0  0  0  0  0
   36.9830   24.5740   35.9990 H   0  0  0  0  0  0  0  0  0  0  0  0
   37.8910   26.0630   36.0690 H   0  0  0  0  0  0  0  0  0  0  0  0
   38.6960   24.4690   36.9520 O   0  0  0  0  0  0  0  0  0  0  0  0
   38.2540   24.0310   38.1740 C   0  0  0  0  0  0  0  0  0  0  0  0
   39.3140   23.3440   38.7800 F   0  0  0  0  0  0  0  0  0  0  0  0
   37.7990   24.9870   39.0260 F   0  0  0  0  0  0  0  0  0  0  0  0
   37.3140   23.0290   37.9100 F   0  0  0  0  0  0  0  0  0  0  0  0
  1  2  1  0  0  0  0
  2  3  2  0  0  0  0
  2 13  1  0  0  0  0
  3  7  1  0  0  0  0
  4  3  1  0  0  0  0
  5  4  2  0  0  0  0
  6  5  1  0  0  0  0
  6  1  2  0  0  0  0
  7  8  1  0  0  0  0
  7 11  1  0  0  0  0
  8 16  1  0  0  0  0
  8  9  1  0  0  0  0
  9 18  1  0  0  0  0
 10  9  1  0  0  0  0
 10 20  1  0  0  0  0
 11 21  1  6  0  0  0
 11 10  1  0  0  0  0
 11 25  1  0  0  0  0
 12  1  1  0  0  0  0
 14  5  1  0  0  0  0
 15  8  1  0  0  0  0
 17  9  1  0  0  0  0
 19 10  1  0  0  0  0
 21 24  1  0  0  0  0
 21 22  1  0  0  0  0
 23 21  1  0  0  0  0
 25 27  1  0  0  0  0
 25 28  1  0  0  0  0
 26 25  1  0  0  0  0
 28 29  1  0  0  0  0
 29 30  1  0  0  0  0
 29 31  1  0  0  0  0
 32 29  1  0  0  0  0
M  END
>  <minimizedAffinity>
-5.21361065

$$$$

 OpenBabel03272507263D

 32 33  0  0  1  0  0  0  0  0999 V2000
   36.3860   24.4540   30.8610 C   0  0  0  0  0  0  0  0  0  0  0  0
   36.5190   25.1500   32.0870 C   0  0  0  0  0  0  0  0  0  0  0  0
   37.7510   25.0380   32.7600 C   0  0  0  0  0  0  0  0  0  0  0  0
   38.7220   24.2850   32.2080 N   0  0  0  0  0  0  0  0  0  0  0  0
   38.5520   23.6380   31.0340 C   0  0  0  0  0  0  0  0  0  0  0  0
   37.3870   23.7290   30.3750 N   0  0  0  0  0  0  0  0  0  0  0  0
   37.9600   25.7010   33.9850 N   0  0  0  0  0  0  0  0  0  0  0  0
   37.3010   26.9590   34.3780 C   0  0  0  0  0  0  0  0  0  0  0  0
   37.9920   27.4180   35.6250 C   0  0  0  0  0  0  0  0  0  0  0  0
   39.2670   26.6850   35.5900 C   0  0  0  0  0  0  0  0  0  0  0  0
   38.8110   25.3260   35.0690 C   0  0  2  0  0  0  0  0  0  0  0  0
   35.4120   24.5920   30.4110 H   0  0  0  0  0  0  0  0  0  0  0  0
   35.7200   25.7410   32.4970 H   0  0  0  0  0  0  0  0  0  0  0  0
   39.3640   23.0400   30.6240 H   0  0  0  0  0  0  0  0  0  0  0  0
   37.3820   27.6600   33.5220 H   0  0  0  0  0  0  0  0  0  0  0  0
   36.2160   26.7580   34.5440 H   0  0  0  0  0  0  0  0  0  0  0  0
   38.2340   28.5010   35.4620 H   0  0  0  0  0  0  0  0  0  0  0  0
   37.4090   27.3780   36.5470 H   0  0  0  0  0  0  0  0  0  0  0  0
   39.9470   27.1510   34.8410 H   0  0  0  0  0  0  0  0  0  0  0  0
   39.7680   26.6100   36.5880 H   0  0  0  0  0  0  0  0  0  0  0  0
   39.9390   24.4180   34.7960 C   0  0  0  0  0  0  0  0  0  0  0  0
   40.7670   24.4730   35.9100 F   0  0  0  0  0  0  0  0  0  0  0  0
   40.7100   24.7390   33.7220 F   0  0  0  0  0  0  0  0  0  0  0  0
   39.4220   23.1380   34.7620 F   0  0  0  0  0  0  0  0  0  0  0  0
   37.9130   24.6750   36.0790 C   0  0  0  0  0  0  0  0  0  0  0  0
   37.6110   23.6440   35.7880 H   0  0  0  0  0  0  0  0  0  0  0  0
   36.9410   25.2410   36.0040 H   0  0  0  0  0  0  0  0  0  0  0  0
   38.4870   24.7430   37.1580 O   0  0  0  0  0  0  0  0  0  0  0  0
   38.3740   23.8900   38.2250 C   0  0  0  0  0  0  0  0  0  0  0  0
   38.3200   24.6760   39.3850 F   0  0  0  0  0  0  0  0  0  0  0  0
   37.3090   23.0460   38.2100 F   0  0  0  0  0  0  0  0  0  0  0  0
   39.6040   23.2300   38.3250 F   0  0  0  0  0  0  0  0  0  0  0  0
  1  2  1  0  0  0  0
  2 13  1  0  0  0  0
  2  3  2  0  0  0  0
  3  7  1  0  0  0  0
  4  3  1  0  0  0  0
  5  4  2  0  0  0  0
  6  1  2  0  0  0  0
  6  5  1  0  0  0  0
  7  8  1  0  0  0  0
  7 11  1  0  0  0  0
  8 16  1  0  0  0  0
  8  9  1  0  0  0  0
  9 18  1  0  0  0  0
 10  9  1  0  0  0  0
 10 20  1  0  0  0  0
 11 21  1  6  0  0  0
 11 10  1  0  0  0  0
 11 25  1  0  0  0  0
 12  1  1  0  0  0  0
 14  5  1  0  0  0  0
 15  8  1  0  0  0  0
 17  9  1  0  0  0  0
 19 10  1  0  0  0  0
 21 22  1  0  0  0  0
 23 21  1  0  0  0  0
 24 21  1  0  0  0  0
 25 28  1  0  0  0  0
 26 25  1  0  0  0  0
 27 25  1  0  0  0  0
 28 29  1  0  0  0  0
 29 32  1  0  0  0  0
 29 30  1  0  0  0  0
 31 29  1  0  0  0  0
M  END
>  <minimizedAffinity>
-5.1068449

$$$$

 OpenBabel03272507263D

 32 33  0  0  1  0  0  0  0  0999 V2000
   37.9490   22.1950   35.5500 C   0  0  0  0  0  0  0  0  0  0  0  0
   38.2300   22.9850   34.4100 C   0  0  0  0  0  0  0  0  0  0  0  0
   38.2030   24.3840   34.5730 C   0  0  0  0  0  0  0  0  0  0  0  0
   37.9160   24.8860   35.7890 N   0  0  0  0  0  0  0  0  0  0  0  0
   37.6550   24.0950   36.8520 C   0  0  0  0  0  0  0  0  0  0  0  0
   37.6740   22.7590   36.7210 N   0  0  0  0  0  0  0  0  0  0  0  0
   38.4710   25.2360   33.4840 N   0  0  0  0  0  0  0  0  0  0  0  0
   39.3470   24.8930   32.3490 C   0  0  0  0  0  0  0  0  0  0  0  0
   39.5340   26.1600   31.5720 C   0  0  0  0  0  0  0  0  0  0  0  0
   39.1720   27.2050   32.5430 C   0  0  0  0  0  0  0  0  0  0  0  0
   37.9830   26.5570   33.2430 C   0  0  2  0  0  0  0  0  0  0  0  0
   37.9900   21.1350   35.3390 H   0  0  0  0  0  0  0  0  0  0  0  0
   38.4540   22.5470   33.4530 H   0  0  0  0  0  0  0  0  0  0  0  0
   37.4270   24.5430   37.8170 H   0  0  0  0  0  0  0  0  0  0  0  0
   40.2820   24.4660   32.7660 H   0  0  0  0  0  0  0  0  0  0  0  0
   38.8530   24.0950   31.7460 H   0  0  0  0  0  0  0  0  0  0  0  0
   40.6380   26.2490   31.3910 H   0  0  0  0  0  0  0  0  0  0  0  0
   39.0670   26.1990   30.5860 H   0  0  0  0  0  0  0  0  0  0  0  0
   39.9990   27.3360   33.2770 H   0  0  0  0  0  0  0  0  0  0  0  0
   38.9040   28.1820   32.0690 H   0  0  0  0  0  0  0  0  0  0  0  0
   37.5010   27.3490   34.3880 C   0  0  0  0  0  0  0  0  0  0  0  0
   37.0160   28.5400   33.8660 F   0  0  0  0  0  0  0  0  0  0  0  0
   38.4420   27.6840   35.3130 F   0  0  0  0  0  0  0  0  0  0  0  0
   36.4090   26.6800   34.9050 F   0  0  0  0  0  0  0  0  0  0  0  0
   36.8520   26.3960   32.2700 C   0  0  0  0  0  0  0  0  0  0  0  0
   37.1410   26.6440   31.2250 H   0  0  0  0  0  0  0  0  0  0  0  0
   36.1350   27.2280   32.5260 H   0  0  0  0  0  0  0  0  0  0  0  0
   36.4210   25.2590   32.4140 O   0  0  0  0  0  0  0  0  0  0  0  0
   35.7460   24.4940   31.5000 C   0  0  0  0  0  0  0  0  0  0  0  0
   36.6320   24.2150   30.4510 F   0  0  0  0  0  0  0  0  0  0  0  0
   35.2230   23.3280   31.9610 F   0  0  0  0  0  0  0  0  0  0  0  0
   34.7930   25.3380   30.9170 F   0  0  0  0  0  0  0  0  0  0  0  0
  1  6  1  0  0  0  0
  2  3  1  0  0  0  0
  2  1  2  0  0  0  0
  3  4  2  0  0  0  0
  4  5  1  0  0  0  0
  5 14  1  0  0  0  0
  6  5  2  0  0  0  0
  7  3  1  0  0  0  0
  8 15  1  0  0  0  0
  8  7  1  0  0  0  0
  9  8  1  0  0  0  0
  9 10  1  0  0  0  0
 10 11  1  0  0  0  0
 10 19  1  0  0  0  0
 11 25  1  6  0  0  0
 11  7  1  0  0  0  0
 11 21  1  0  0  0  0
 12  1  1  0  0  0  0
 13  2  1  0  0  0  0
 16  8  1  0  0  0  0
 17  9  1  0  0  0  0
 18  9  1  0  0  0  0
 20 10  1  0  0  0  0
 21 24  1  0  0  0  0
 21 23  1  0  0  0  0
 22 21  1  0  0  0  0
 25 28  1  0  0  0  0
 25 27  1  0  0  0  0
 26 25  1  0  0  0  0
 29 31  1  0  0  0  0
 29 28  1  0  0  0  0
 30 29  1  0  0  0  0
 32 29  1  0  0  0  0
M  END
>  <minimizedAffinity>
-4.94219923

$$$$

 OpenBabel03272507263D

 32 33  0  0  1  0  0  0  0  0999 V2000
   34.5450   30.0370   32.2370 C   0  0  0  0  0  0  0  0  0  0  0  0
   35.1800   29.0520   33.0310 C   0  0  0  0  0  0  0  0  0  0  0  0
   36.4000   28.5320   32.5560 C   0  0  0  0  0  0  0  0  0  0  0  0
   36.8880   28.9920   31.3890 N   0  0  0  0  0  0  0  0  0  0  0  0
   36.2480   29.9350   30.6630 C   0  0  0  0  0  0  0  0  0  0  0  0
   35.0850   30.4460   31.0940 N   0  0  0  0  0  0  0  0  0  0  0  0
   37.0920   27.5480   33.2910 N   0  0  0  0  0  0  0  0  0  0  0  0
   37.0360   27.4050   34.7560 C   0  0  0  0  0  0  0  0  0  0  0  0
   38.0960   26.4100   35.1160 C   0  0  0  0  0  0  0  0  0  0  0  0
   38.9770   26.4180   33.9380 C   0  0  0  0  0  0  0  0  0  0  0  0
   37.9580   26.5190   32.8090 C   0  0  2  0  0  0  0  0  0  0  0  0
   33.6170   30.3820   32.6710 H   0  0  0  0  0  0  0  0  0  0  0  0
   34.7590   28.7080   33.9580 H   0  0  0  0  0  0  0  0  0  0  0  0
   36.6790   30.2800   29.7240 H   0  0  0  0  0  0  0  0  0  0  0  0
   37.1830   28.4140   35.1950 H   0  0  0  0  0  0  0  0  0  0  0  0
   36.0150   27.0610   35.0430 H   0  0  0  0  0  0  0  0  0  0  0  0
   38.6750   26.8690   35.9610 H   0  0  0  0  0  0  0  0  0  0  0  0
   37.7490   25.4420   35.4850 H   0  0  0  0  0  0  0  0  0  0  0  0
   39.6040   27.3390   33.9460 H   0  0  0  0  0  0  0  0  0  0  0  0
   39.6160   25.5040   33.8510 H   0  0  0  0  0  0  0  0  0  0  0  0
   38.5910   26.6940   31.4900 C   0  0  0  0  0  0  0  0  0  0  0  0
   39.4260   27.7980   31.5970 F   0  0  0  0  0  0  0  0  0  0  0  0
   37.7440   26.9460   30.4560 F   0  0  0  0  0  0  0  0  0  0  0  0
   39.4160   25.6040   31.2950 F   0  0  0  0  0  0  0  0  0  0  0  0
   37.1210   25.2740   32.7720 C   0  0  0  0  0  0  0  0  0  0  0  0
   36.8300   24.9180   33.7850 H   0  0  0  0  0  0  0  0  0  0  0  0
   37.8280   24.4660   32.4270 H   0  0  0  0  0  0  0  0  0  0  0  0
   36.1760   25.5070   32.0310 O   0  0  0  0  0  0  0  0  0  0  0  0
   35.5760   24.6540   31.1410 C   0  0  0  0  0  0  0  0  0  0  0  0
   35.0510   23.5830   31.8770 F   0  0  0  0  0  0  0  0  0  0  0  0
   34.5920   25.1860   30.3690 F   0  0  0  0  0  0  0  0  0  0  0  0
   36.6120   24.0750   30.4000 F   0  0  0  0  0  0  0  0  0  0  0  0
  1 12  1  0  0  0  0
  1  2  1  0  0  0  0
  2 13  1  0  0  0  0
  3  2  2  0  0  0  0
  3  7  1  0  0  0  0
  4  3  1  0  0  0  0
  5  6  1  0  0  0  0
  5  4  2  0  0  0  0
  6  1  2  0  0  0  0
  7  8  1  0  0  0  0
  8 16  1  0  0  0  0
  8  9  1  0  0  0  0
  8 15  1  0  0  0  0
  9 18  1  0  0  0  0
  9 17  1  0  0  0  0
 10 19  1  0  0  0  0
 10  9  1  0  0  0  0
 11 21  1  6  0  0  0
 11  7  1  0  0  0  0
 11 10  1  0  0  0  0
 14  5  1  0  0  0  0
 20 10  1  0  0  0  0
 21 22  1  0  0  0  0
 23 21  1  0  0  0  0
 24 21  1  0  0  0  0
 25 11  1  0  0  0  0
 25 26  1  0  0  0  0
 27 25  1  0  0  0  0
 28 25  1  0  0  0  0
 29 30  1  0  0  0  0
 29 28  1  0  0  0  0
 31 29  1  0  0  0  0
 32 29  1  0  0  0  0
M  END
>  <minimizedAffinity>
-4.80611229

$$$$

 OpenBabel03272507263D

 32 33  0  0  1  0  0  0  0  0999 V2000
   42.4220   21.8200   36.3000 C   0  0  0  0  0  0  0  0  0  0  0  0
   42.1510   22.9980   35.5620 C   0  0  0  0  0  0  0  0  0  0  0  0
   40.9640   23.6900   35.8690 C   0  0  0  0  0  0  0  0  0  0  0  0
   40.1620   23.2000   36.8340 N   0  0  0  0  0  0  0  0  0  0  0  0
   40.4600   22.0720   37.5140 C   0  0  0  0  0  0  0  0  0  0  0  0
   41.5860   21.3950   37.2400 N   0  0  0  0  0  0  0  0  0  0  0  0
   40.6240   24.8700   35.1780 N   0  0  0  0  0  0  0  0  0  0  0  0
   41.6010   25.8080   34.5960 C   0  0  0  0  0  0  0  0  0  0  0  0
   40.8190   27.0180   34.1850 C   0  0  0  0  0  0  0  0  0  0  0  0
   39.5820   26.9000   34.9730 C   0  0  0  0  0  0  0  0  0  0  0  0
   39.3270   25.3990   34.8980 C   0  0  2  0  0  0  0  0  0  0  0  0
   43.3500   21.3510   36.0020 H   0  0  0  0  0  0  0  0  0  0  0  0
   42.8150   23.3570   34.7970 H   0  0  0  0  0  0  0  0  0  0  0  0
   39.7840   21.7110   38.2870 H   0  0  0  0  0  0  0  0  0  0  0  0
   42.3780   26.0000   35.3640 H   0  0  0  0  0  0  0  0  0  0  0  0
   42.1000   25.3120   33.7310 H   0  0  0  0  0  0  0  0  0  0  0  0
   41.3820   27.9000   34.5910 H   0  0  0  0  0  0  0  0  0  0  0  0
   40.7240   27.1940   33.1120 H   0  0  0  0  0  0  0  0  0  0  0  0
   39.7830   27.1830   36.0310 H   0  0  0  0  0  0  0  0  0  0  0  0
   38.7300   27.4950   34.5580 H   0  0  0  0  0  0  0  0  0  0  0  0
   38.1970   24.9740   35.7430 C   0  0  0  0  0  0  0  0  0  0  0  0
   37.1600   25.8610   35.4870 F   0  0  0  0  0  0  0  0  0  0  0  0
   38.4160   25.0110   37.0860 F   0  0  0  0  0  0  0  0  0  0  0  0
   37.7820   23.7460   35.2690 F   0  0  0  0  0  0  0  0  0  0  0  0
   39.0310   25.0070   33.4800 C   0  0  0  0  0  0  0  0  0  0  0  0
   38.5610   24.0020   33.3990 H   0  0  0  0  0  0  0  0  0  0  0  0
   40.0430   24.8380   33.0140 H   0  0  0  0  0  0  0  0  0  0  0  0
   38.3650   25.9120   32.9960 O   0  0  0  0  0  0  0  0  0  0  0  0
   37.2350   25.8060   32.2290 C   0  0  0  0  0  0  0  0  0  0  0  0
   36.3220   26.7630   32.6940 F   0  0  0  0  0  0  0  0  0  0  0  0
   37.4000   25.9650   30.8890 F   0  0  0  0  0  0  0  0  0  0  0  0
   36.6450   24.5850   32.5740 F   0  0  0  0  0  0  0  0  0  0  0  0
  1  6  1  0  0  0  0
  2  3  1  0  0  0  0
  2  1  2  0  0  0  0
  3  4  2  0  0  0  0
  4  5  1  0  0  0  0
  5 14  1  0  0  0  0
  6  5  2  0  0  0  0
  7  3  1  0  0  0  0
  8  7  1  0  0  0  0
  8 15  1  0  0  0  0
  9 17  1  0  0  0  0
  9  8  1  0  0  0  0
  9 10  1  0  0  0  0
 10 19  1  0  0  0  0
 11 25  1  6  0  0  0
 11 10  1  0  0  0  0
 11  7  1  0  0  0  0
 11 21  1  0  0  0  0
 12  1  1  0  0  0  0
 13  2  1  0  0  0  0
 16  8  1  0  0  0  0
 18  9  1  0  0  0  0
 20 10  1  0  0  0  0
 21 23  1  0  0  0  0
 22 21  1  0  0  0  0
 24 21  1  0  0  0  0
 26 25  1  0  0  0  0
 27 25  1  0  0  0  0
 28 25  1  0  0  0  0
 29 32  1  0  0  0  0
 29 30  1  0  0  0  0
 29 28  1  0  0  0  0
 31 29  1  0  0  0  0
M  END
>  <minimizedAffinity>
-4.67138243

$$$$

 OpenBabel03272507263D

 32 33  0  0  1  0  0  0  0  0999 V2000
   35.2560   21.3680   31.7170 C   0  0  0  0  0  0  0  0  0  0  0  0
   36.3680   22.2390   31.8180 C   0  0  0  0  0  0  0  0  0  0  0  0
   37.1110   22.1970   33.0140 C   0  0  0  0  0  0  0  0  0  0  0  0
   36.7280   21.3430   33.9820 N   0  0  0  0  0  0  0  0  0  0  0  0
   35.6600   20.5280   33.8430 C   0  0  0  0  0  0  0  0  0  0  0  0
   34.9360   20.5500   32.7130 N   0  0  0  0  0  0  0  0  0  0  0  0
   38.2310   23.0340   33.1900 N   0  0  0  0  0  0  0  0  0  0  0  0
   39.0900   23.5210   32.0960 C   0  0  0  0  0  0  0  0  0  0  0  0
   40.2750   24.1600   32.7540 C   0  0  0  0  0  0  0  0  0  0  0  0
   40.2570   23.5850   34.1080 C   0  0  0  0  0  0  0  0  0  0  0  0
   38.7610   23.5730   34.4020 C   0  0  2  0  0  0  0  0  0  0  0  0
   34.7410   21.4640   30.7700 H   0  0  0  0  0  0  0  0  0  0  0  0
   36.6420   22.9090   31.0230 H   0  0  0  0  0  0  0  0  0  0  0  0
   35.3860   19.8530   34.6520 H   0  0  0  0  0  0  0  0  0  0  0  0
   39.3340   22.6520   31.4510 H   0  0  0  0  0  0  0  0  0  0  0  0
   38.5070   24.2440   31.4790 H   0  0  0  0  0  0  0  0  0  0  0  0
   41.1780   23.7410   32.2340 H   0  0  0  0  0  0  0  0  0  0  0  0
   40.3560   25.2440   32.6630 H   0  0  0  0  0  0  0  0  0  0  0  0
   40.6290   22.5360   34.0750 H   0  0  0  0  0  0  0  0  0  0  0  0
   40.8300   24.1870   34.8570 H   0  0  0  0  0  0  0  0  0  0  0  0
   38.4390   22.8970   35.6710 C   0  0  0  0  0  0  0  0  0  0  0  0
   39.3460   23.3720   36.6100 F   0  0  0  0  0  0  0  0  0  0  0  0
   38.5590   21.5420   35.6670 F   0  0  0  0  0  0  0  0  0  0  0  0
   37.1990   23.3570   36.0660 F   0  0  0  0  0  0  0  0  0  0  0  0
   38.2490   24.9820   34.4730 C   0  0  0  0  0  0  0  0  0  0  0  0
   37.1870   25.0400   34.7990 H   0  0  0  0  0  0  0  0  0  0  0  0
   38.1890   25.3180   33.3980 H   0  0  0  0  0  0  0  0  0  0  0  0
   39.0270   25.6050   35.1830 O   0  0  0  0  0  0  0  0  0  0  0  0
   39.4220   26.9100   35.0530 C   0  0  0  0  0  0  0  0  0  0  0  0
   40.8230   26.9280   35.0860 F   0  0  0  0  0  0  0  0  0  0  0  0
   38.9960   27.5590   33.9380 F   0  0  0  0  0  0  0  0  0  0  0  0
   39.0520   27.5480   36.2420 F   0  0  0  0  0  0  0  0  0  0  0  0
  1  2  2  0  0  0  0
  1  6  1  0  0  0  0
  2  3  1  0  0  0  0
  3  7  1  0  0  0  0
  3  4  2  0  0  0  0
  5  4  1  0  0  0  0
  5 14  1  0  0  0  0
  6  5  2  0  0  0  0
  7 11  1  0  0  0  0
  8  9  1  0  0  0  0
  8  7  1  0  0  0  0
  9 10  1  0  0  0  0
 10 11  1  0  0  0  0
 10 20  1  0  0  0  0
 11 25  1  1  0  0  0
 11 21  1  0  0  0  0
 12  1  1  0  0  0  0
 13  2  1  0  0  0  0
 15  8  1  0  0  0  0
 16  8  1  0  0  0  0
 17  9  1  0  0  0  0
 18  9  1  0  0  0  0
 19 10  1  0  0  0  0
 21 24  1  0  0  0  0
 21 22  1  0  0  0  0
 23 21  1  0  0  0  0
 25 26  1  0  0  0  0
 25 28  1  0  0  0  0
 27 25  1  0  0  0  0
 29 30  1  0  0  0  0
 29 28  1  0  0  0  0
 29 32  1  0  0  0  0
 31 29  1  0  0  0  0
M  END
>  <minimizedAffinity>
-4.63334894

$$$$

 OpenBabel03272507263D

 32 33  0  0  1  0  0  0  0  0999 V2000
   37.7690   27.0730   33.8940 C   0  0  0  0  0  0  0  0  0  0  0  0
   37.6170   26.1130   34.9230 C   0  0  0  0  0  0  0  0  0  0  0  0
   38.7420   25.3290   35.2420 C   0  0  0  0  0  0  0  0  0  0  0  0
   39.8860   25.5320   34.5610 N   0  0  0  0  0  0  0  0  0  0  0  0
   39.9870   26.4620   33.5860 C   0  0  0  0  0  0  0  0  0  0  0  0
   38.9290   27.2210   33.2630 N   0  0  0  0  0  0  0  0  0  0  0  0
   38.6680   24.3520   36.2550 N   0  0  0  0  0  0  0  0  0  0  0  0
   37.7750   24.4250   37.4250 C   0  0  0  0  0  0  0  0  0  0  0  0
   38.2020   23.3210   38.3420 C   0  0  0  0  0  0  0  0  0  0  0  0
   39.5660   23.0130   37.8840 C   0  0  0  0  0  0  0  0  0  0  0  0
   39.4030   23.1320   36.3730 C   0  0  2  0  0  0  0  0  0  0  0  0
   36.8610   27.6310   33.7110 H   0  0  0  0  0  0  0  0  0  0  0  0
   36.6860   25.9780   35.4440 H   0  0  0  0  0  0  0  0  0  0  0  0
   40.9310   26.5930   33.0600 H   0  0  0  0  0  0  0  0  0  0  0  0
   37.8710   25.4440   37.8540 H   0  0  0  0  0  0  0  0  0  0  0  0
   36.7220   24.3050   37.0780 H   0  0  0  0  0  0  0  0  0  0  0  0
   38.2950   23.7850   39.3590 H   0  0  0  0  0  0  0  0  0  0  0  0
   37.5050   22.4880   38.4580 H   0  0  0  0  0  0  0  0  0  0  0  0
   40.2670   23.8040   38.2380 H   0  0  0  0  0  0  0  0  0  0  0  0
   39.9230   21.9990   38.1930 H   0  0  0  0  0  0  0  0  0  0  0  0
   40.6830   23.0100   35.6550 C   0  0  0  0  0  0  0  0  0  0  0  0
   41.2380   21.7970   36.0430 F   0  0  0  0  0  0  0  0  0  0  0  0
   41.6100   23.9660   35.9320 F   0  0  0  0  0  0  0  0  0  0  0  0
   40.3790   22.8840   34.3140 F   0  0  0  0  0  0  0  0  0  0  0  0
   38.4790   22.0570   35.8800 C   0  0  0  0  0  0  0  0  0  0  0  0
   37.7500   21.7250   36.6520 H   0  0  0  0  0  0  0  0  0  0  0  0
   39.1360   21.1480   35.7620 H   0  0  0  0  0  0  0  0  0  0  0  0
   37.9640   22.4790   34.8530 O   0  0  0  0  0  0  0  0  0  0  0  0
   37.2930   21.7640   33.8950 C   0  0  0  0  0  0  0  0  0  0  0  0
   36.6840   22.6880   33.0340 F   0  0  0  0  0  0  0  0  0  0  0  0
   38.0370   20.8970   33.1600 F   0  0  0  0  0  0  0  0  0  0  0  0
   36.2150   21.1560   34.5490 F   0  0  0  0  0  0  0  0  0  0  0  0
  1  2  1  0  0  0  0
  2  3  2  0  0  0  0
  2 13  1  0  0  0  0
  3  7  1  0  0  0  0
  4  3  1  0  0  0  0
  5  4  2  0  0  0  0
  6  5  1  0  0  0  0
  6  1  2  0  0  0  0
  7 11  1  0  0  0  0
  7  8  1  0  0  0  0
  8 15  1  0  0  0  0
  8  9  1  0  0  0  0
  9 18  1  0  0  0  0
  9 17  1  0  0  0  0
 10 20  1  0  0  0  0
 10 19  1  0  0  0  0
 10  9  1  0  0  0  0
 11 21  1  6  0  0  0
 11 10  1  0  0  0  0
 12  1  1  0  0  0  0
 14  5  1  0  0  0  0
 16  8  1  0  0  0  0
 21 23  1  0  0  0  0
 21 22  1  0  0  0  0
 24 21  1  0  0  0  0
 25 11  1  0  0  0  0
 25 26  1  0  0  0  0
 27 25  1  0  0  0  0
 28 25  1  0  0  0  0
 29 32  1  0  0  0  0
 29 28  1  0  0  0  0
 30 29  1  0  0  0  0
 31 29  1  0  0  0  0
M  END
>  <minimizedAffinity>
-4.62405682

$$$$

 OpenBabel03272507263D

 32 33  0  0  1  0  0  0  0  0999 V2000
   37.1590   27.5250   32.3650 C   0  0  0  0  0  0  0  0  0  0  0  0
   37.6490   26.2110   32.5540 C   0  0  0  0  0  0  0  0  0  0  0  0
   37.5910   25.6840   33.8580 C   0  0  0  0  0  0  0  0  0  0  0  0
   37.0800   26.4480   34.8420 N   0  0  0  0  0  0  0  0  0  0  0  0
   36.6220   27.6990   34.6160 C   0  0  0  0  0  0  0  0  0  0  0  0
   36.6670   28.2240   33.3820 N   0  0  0  0  0  0  0  0  0  0  0  0
   38.0600   24.3820   34.1250 N   0  0  0  0  0  0  0  0  0  0  0  0
   38.0590   23.2770   33.1500 C   0  0  0  0  0  0  0  0  0  0  0  0
   38.4070   22.0420   33.9230 C   0  0  0  0  0  0  0  0  0  0  0  0
   38.1130   22.4230   35.3130 C   0  0  0  0  0  0  0  0  0  0  0  0
   38.6130   23.8630   35.3360 C   0  0  2  0  0  0  0  0  0  0  0  0
   37.2410   27.8540   31.3380 H   0  0  0  0  0  0  0  0  0  0  0  0
   38.0520   25.6300   31.7430 H   0  0  0  0  0  0  0  0  0  0  0  0
   36.2160   28.2830   35.4410 H   0  0  0  0  0  0  0  0  0  0  0  0
   37.0580   23.2540   32.6720 H   0  0  0  0  0  0  0  0  0  0  0  0
   38.8060   23.5030   32.3540 H   0  0  0  0  0  0  0  0  0  0  0  0
   37.6470   21.2700   33.6290 H   0  0  0  0  0  0  0  0  0  0  0  0
   39.3810   21.5950   33.7140 H   0  0  0  0  0  0  0  0  0  0  0  0
   37.0110   22.4190   35.4780 H   0  0  0  0  0  0  0  0  0  0  0  0
   38.6300   21.7840   36.0720 H   0  0  0  0  0  0  0  0  0  0  0  0
   38.3030   24.5510   36.6020 C   0  0  0  0  0  0  0  0  0  0  0  0
   36.9380   24.3960   36.8080 F   0  0  0  0  0  0  0  0  0  0  0  0
   38.5500   25.8880   36.6240 F   0  0  0  0  0  0  0  0  0  0  0  0
   38.9280   23.8400   37.6060 F   0  0  0  0  0  0  0  0  0  0  0  0
   40.1010   23.8840   35.1390 C   0  0  0  0  0  0  0  0  0  0  0  0
   40.4090   23.5110   34.1360 H   0  0  0  0  0  0  0  0  0  0  0  0
   40.4900   23.0790   35.8250 H   0  0  0  0  0  0  0  0  0  0  0  0
   40.4740   25.0220   35.3870 O   0  0  0  0  0  0  0  0  0  0  0  0
   41.2180   25.8540   34.5920 C   0  0  0  0  0  0  0  0  0  0  0  0
   40.5860   27.1050   34.5870 F   0  0  0  0  0  0  0  0  0  0  0  0
   42.5200   26.0170   34.9450 F   0  0  0  0  0  0  0  0  0  0  0  0
   41.0520   25.3910   33.2820 F   0  0  0  0  0  0  0  0  0  0  0  0
  1  2  2  0  0  0  0
  1  6  1  0  0  0  0
  2  3  1  0  0  0  0
  3  7  1  0  0  0  0
  3  4  2  0  0  0  0
  5  4  1  0  0  0  0
  5 14  1  0  0  0  0
  6  5  2  0  0  0  0
  7 11  1  0  0  0  0
  8  9  1  0  0  0  0
  8  7  1  0  0  0  0
  9 10  1  0  0  0  0
 10 11  1  0  0  0  0
 10 19  1  0  0  0  0
 10 20  1  0  0  0  0
 11 25  1  6  0  0  0
 11 21  1  0  0  0  0
 12  1  1  0  0  0  0
 13  2  1  0  0  0  0
 15  8  1  0  0  0  0
 16  8  1  0  0  0  0
 17  9  1  0  0  0  0
 18  9  1  0  0  0  0
 21 23  1  0  0  0  0
 21 22  1  0  0  0  0
 21 24  1  0  0  0  0
 25 28  1  0  0  0  0
 25 27  1  0  0  0  0
 26 25  1  0  0  0  0
 29 31  1  0  0  0  0
 29 28  1  0  0  0  0
 30 29  1  0  0  0  0
 32 29  1  0  0  0  0
M  END
>  <minimizedAffinity>
-4.56892204

$$$$
