
 OpenBabel03272510243D

 27 29  0  0  0  0  0  0  0  0999 V2000
   34.2310   30.0090   44.8040 C   0  0  0  0  0  0  0  0  0  0  0  0
   34.6760   29.7170   46.0780 C   0  0  0  0  0  0  0  0  0  0  0  0
   35.9590   30.0350   46.4630 C   0  0  0  0  0  0  0  0  0  0  0  0
   36.7750   30.6550   45.5200 C   0  0  0  0  0  0  0  0  0  0  0  0
   38.0740   31.0630   45.6650 N   0  0  0  0  0  0  0  0  0  0  0  0
   38.4250   31.5980   44.4990 C   0  0  0  0  0  0  0  0  0  0  0  0
   37.4340   31.5570   43.6240 N   0  0  0  0  0  0  0  0  0  0  0  0
   36.3710   30.9650   44.2370 C   0  0  0  0  0  0  0  0  0  0  0  0
   35.0660   30.6310   43.8770 C   0  0  0  0  0  0  0  0  0  0  0  0
   33.2250   29.7770   44.4550 H   0  0  0  0  0  0  0  0  0  0  0  0
   36.3080   29.8070   47.4580 H   0  0  0  0  0  0  0  0  0  0  0  0
   38.6390   30.9510   46.5510 H   0  0  0  0  0  0  0  0  0  0  0  0
   34.7420   30.8680   42.8770 H   0  0  0  0  0  0  0  0  0  0  0  0
   33.0410   28.1090   49.0570 C   0  0  0  0  0  0  0  0  0  0  0  0
   34.0270   28.7270   48.2960 C   0  0  0  0  0  0  0  0  0  0  0  0
   33.7430   29.0680   46.9830 C   0  0  0  0  0  0  0  0  0  0  0  0
   32.4910   28.7740   46.4980 N   0  0  0  0  0  0  0  0  0  0  0  0
   31.5460   28.1680   47.2620 C   0  0  0  0  0  0  0  0  0  0  0  0
   31.8230   27.8440   48.5200 N   0  0  0  0  0  0  0  0  0  0  0  0
   33.2350   27.8310   50.0850 H   0  0  0  0  0  0  0  0  0  0  0  0
   34.9980   28.9540   48.6780 H   0  0  0  0  0  0  0  0  0  0  0  0
   30.6140   28.0050   46.7350 H   0  0  0  0  0  0  0  0  0  0  0  0
   39.7000   32.1230   44.2900 O   0  0  0  0  0  0  0  0  0  0  0  0
   40.2920   33.0750   45.1190 C   0  0  0  0  0  0  0  0  0  0  0  0
   41.5640   32.6510   45.4580 F   0  0  0  0  0  0  0  0  0  0  0  0
   39.5960   33.2140   46.3170 F   0  0  0  0  0  0  0  0  0  0  0  0
   40.3190   34.2830   44.4450 F   0  0  0  0  0  0  0  0  0  0  0  0
  1  2  1  0  0  0  0
  2  3  2  0  0  0  0
  2 16  1  0  0  0  0
  3 11  1  0  0  0  0
  4  5  1  0  0  0  0
  4  3  1  0  0  0  0
  5 12  1  0  0  0  0
  6  5  1  0  0  0  0
  7  8  1  0  0  0  0
  7  6  2  0  0  0  0
  8  4  2  0  0  0  0
  9  8  1  0  0  0  0
  9  1  2  0  0  0  0
 10  1  1  0  0  0  0
 13  9  1  0  0  0  0
 14 20  1  0  0  0  0
 15 21  1  0  0  0  0
 15 14  2  0  0  0  0
 16 15  1  0  0  0  0
 17 16  2  0  0  0  0
 17 18  1  0  0  0  0
 18 19  2  0  0  0  0
 19 14  1  0  0  0  0
 22 18  1  0  0  0  0
 23  6  1  0  0  0  0
 23 24  1  0  0  0  0
 24 25  1  0  0  0  0
 24 26  1  0  0  0  0
 27 24  1  0  0  0  0
M  END
>  <minimizedAffinity>
-4.49291134

>  <minimizedRMSD>
3.62650657

$$$$
