
 OpenBabel03272504393D

 37 38  0  0  0  0  0  0  0  0999 V2000
   38.6630   26.6730   32.6920 Cl  0  0  0  0  0  0  0  0  0  0  0  0
   37.3450   25.6910   32.0530 C   0  0  0  0  0  0  0  0  0  0  0  0
   36.2380   26.3060   31.5530 C   0  0  0  0  0  0  0  0  0  0  0  0
   35.2080   25.5550   31.0540 C   0  0  0  0  0  0  0  0  0  0  0  0
   35.3170   24.1780   31.0710 C   0  0  0  0  0  0  0  0  0  0  0  0
   36.4750   23.5960   31.5960 C   0  0  0  0  0  0  0  0  0  0  0  0
   37.5100   24.3280   32.0960 C   0  0  0  0  0  0  0  0  0  0  0  0
   34.3370   26.0910   30.6620 H   0  0  0  0  0  0  0  0  0  0  0  0
   34.4470   23.6830   30.6530 H   0  0  0  0  0  0  0  0  0  0  0  0
   36.3640   22.5710   31.5170 H   0  0  0  0  0  0  0  0  0  0  0  0
   35.5880   29.8080   32.5310 C   0  0  0  0  0  0  0  0  0  0  0  0
   36.0210   30.4980   31.3490 C   0  0  0  0  0  0  0  0  0  0  0  0
   36.5120   29.7330   30.2770 C   0  0  0  0  0  0  0  0  0  0  0  0
   36.5550   28.3830   30.4070 N   0  0  0  0  0  0  0  0  0  0  0  0
   36.1370   27.7610   31.5440 C   0  0  0  0  0  0  0  0  0  0  0  0
   35.6680   28.4720   32.5710 N   0  0  0  0  0  0  0  0  0  0  0  0
   35.2170   30.4300   33.3340 H   0  0  0  0  0  0  0  0  0  0  0  0
   35.9670   31.5760   31.2870 H   0  0  0  0  0  0  0  0  0  0  0  0
   36.9210   30.4470   29.1440 N   0  0  0  0  0  0  0  0  0  0  0  0
   36.3640   30.8120   28.3230 H   0  0  0  0  0  0  0  0  0  0  0  0
   37.9160   30.7170   28.9810 H   0  0  0  0  0  0  0  0  0  0  0  0
   38.6960   23.7080   32.6390 C   0  0  0  0  0  0  0  0  0  0  0  0
   39.1670   23.0870   31.8490 H   0  0  0  0  0  0  0  0  0  0  0  0
   39.4500   24.5340   32.8040 H   0  0  0  0  0  0  0  0  0  0  0  0
   38.5980   22.9100   33.8590 C   0  0  0  0  0  0  0  0  0  0  0  0
   37.5780   22.9930   34.3010 H   0  0  0  0  0  0  0  0  0  0  0  0
   38.7480   21.8170   33.6810 H   0  0  0  0  0  0  0  0  0  0  0  0
   39.5440   23.2900   34.7900 O   0  0  0  0  0  0  0  0  0  0  0  0
   40.1140   22.2740   37.1570 O   0  0  0  0  0  0  0  0  0  0  0  0
   39.0190   22.9120   36.3380 P   0  0  2  0  0  0  0  0  0  0  0  0
   37.6900   21.8450   36.1460 O   0  0  0  0  0  0  0  0  0  0  0  0
   37.3420   21.5330   37.0190 H   0  0  0  0  0  0  0  0  0  0  0  0
   38.4480   24.2480   37.1600 O   0  0  0  0  0  0  0  0  0  0  0  0
   38.2360   23.9540   38.4950 C   0  0  0  0  0  0  0  0  0  0  0  0
   37.3920   22.8560   38.6600 F   0  0  0  0  0  0  0  0  0  0  0  0
   39.4180   23.6240   39.1230 F   0  0  0  0  0  0  0  0  0  0  0  0
   37.6630   25.0390   39.1310 F   0  0  0  0  0  0  0  0  0  0  0  0
  2  7  1  0  0  0  0
  2  1  1  0  0  0  0
  3  2  2  0  0  0  0
  4  5  2  0  0  0  0
  4  3  1  0  0  0  0
  5  6  1  0  0  0  0
  6  7  2  0  0  0  0
  7 22  1  0  0  0  0
  8  4  1  0  0  0  0
  9  5  1  0  0  0  0
 10  6  1  0  0  0  0
 11 16  1  0  0  0  0
 11 17  1  0  0  0  0
 12 11  2  0  0  0  0
 13 14  2  0  0  0  0
 13 12  1  0  0  0  0
 14 15  1  0  0  0  0
 15  3  1  0  0  0  0
 15 16  2  0  0  0  0
 18 12  1  0  0  0  0
 19 13  1  0  0  0  0
 20 19  1  0  0  0  0
 21 19  1  0  0  0  0
 22 24  1  0  0  0  0
 22 25  1  0  0  0  0
 23 22  1  0  0  0  0
 25 26  1  0  0  0  0
 25 28  1  0  0  0  0
 27 25  1  0  0  0  0
 28 30  1  0  0  0  0
 30 29  2  1  0  0  0
 30 33  1  0  0  0  0
 31 30  1  0  0  0  0
 31 32  1  0  0  0  0
 33 34  1  0  0  0  0
 34 35  1  0  0  0  0
 34 36  1  0  0  0  0
 34 37  1  0  0  0  0
M  END
>  <minimizedAffinity>
-5.88322687

$$$$

 OpenBabel03272504393D

 37 38  0  0  0  0  0  0  0  0999 V2000
   38.2930   26.1990   33.3370 Cl  0  0  0  0  0  0  0  0  0  0  0  0
   37.2120   25.1020   32.4790 C   0  0  0  0  0  0  0  0  0  0  0  0
   36.3070   25.6110   31.5990 C   0  0  0  0  0  0  0  0  0  0  0  0
   35.4630   24.7690   30.9270 C   0  0  0  0  0  0  0  0  0  0  0  0
   35.5500   23.4100   31.1590 C   0  0  0  0  0  0  0  0  0  0  0  0
   36.4980   22.9390   32.0720 C   0  0  0  0  0  0  0  0  0  0  0  0
   37.3460   23.7620   32.7500 C   0  0  0  0  0  0  0  0  0  0  0  0
   34.7500   25.2220   30.2290 H   0  0  0  0  0  0  0  0  0  0  0  0
   34.8370   22.8380   30.5750 H   0  0  0  0  0  0  0  0  0  0  0  0
   36.4060   21.9100   32.1030 H   0  0  0  0  0  0  0  0  0  0  0  0
   36.7980   28.9970   30.2070 C   0  0  0  0  0  0  0  0  0  0  0  0
   35.9470   29.7650   31.0720 C   0  0  0  0  0  0  0  0  0  0  0  0
   35.2490   29.0880   32.0870 C   0  0  0  0  0  0  0  0  0  0  0  0
   35.4090   27.7460   32.2040 N   0  0  0  0  0  0  0  0  0  0  0  0
   36.2250   27.0480   31.3650 C   0  0  0  0  0  0  0  0  0  0  0  0
   36.8950   27.6750   30.3960 N   0  0  0  0  0  0  0  0  0  0  0  0
   37.3180   29.5520   29.4390 H   0  0  0  0  0  0  0  0  0  0  0  0
   35.8490   30.8340   30.9450 H   0  0  0  0  0  0  0  0  0  0  0  0
   34.4330   29.8760   32.9070 N   0  0  0  0  0  0  0  0  0  0  0  0
   34.6660   30.4440   33.7680 H   0  0  0  0  0  0  0  0  0  0  0  0
   33.4100   29.9940   32.7320 H   0  0  0  0  0  0  0  0  0  0  0  0
   38.3160   23.2550   33.6940 C   0  0  0  0  0  0  0  0  0  0  0  0
   38.8810   22.4310   33.2160 H   0  0  0  0  0  0  0  0  0  0  0  0
   39.0960   24.0630   33.8260 H   0  0  0  0  0  0  0  0  0  0  0  0
   37.8720   22.8110   35.0130 C   0  0  0  0  0  0  0  0  0  0  0  0
   37.6330   23.6840   35.6620 H   0  0  0  0  0  0  0  0  0  0  0  0
   36.9300   22.2110   34.9780 H   0  0  0  0  0  0  0  0  0  0  0  0
   38.8200   22.0170   35.6250 O   0  0  0  0  0  0  0  0  0  0  0  0
   41.0060   23.4390   36.0310 O   0  0  0  0  0  0  0  0  0  0  0  0
   39.7450   22.9300   36.6870 P   0  0  2  0  0  0  0  0  0  0  0  0
   40.1100   21.9000   38.0110 O   0  0  0  0  0  0  0  0  0  0  0  0
   40.6950   22.3480   38.6710 H   0  0  0  0  0  0  0  0  0  0  0  0
   38.9030   24.2310   37.3070 O   0  0  0  0  0  0  0  0  0  0  0  0
   38.3400   23.9170   38.5310 C   0  0  0  0  0  0  0  0  0  0  0  0
   37.5140   24.9370   39.0030 F   0  0  0  0  0  0  0  0  0  0  0  0
   37.5440   22.7950   38.4370 F   0  0  0  0  0  0  0  0  0  0  0  0
   39.3350   23.6990   39.4660 F   0  0  0  0  0  0  0  0  0  0  0  0
  2  7  1  0  0  0  0
  2  1  1  0  0  0  0
  3  2  2  0  0  0  0
  4  5  2  0  0  0  0
  4  3  1  0  0  0  0
  5  6  1  0  0  0  0
  6 10  1  0  0  0  0
  6  7  2  0  0  0  0
  7 22  1  0  0  0  0
  8  4  1  0  0  0  0
  9  5  1  0  0  0  0
 11 16  2  0  0  0  0
 11 12  1  0  0  0  0
 12 13  2  0  0  0  0
 13 14  1  0  0  0  0
 13 19  1  0  0  0  0
 15  3  1  0  0  0  0
 15 14  2  0  0  0  0
 16 15  1  0  0  0  0
 17 11  1  0  0  0  0
 18 12  1  0  0  0  0
 19 20  1  0  0  0  0
 21 19  1  0  0  0  0
 22 24  1  0  0  0  0
 22 25  1  0  0  0  0
 23 22  1  0  0  0  0
 25 28  1  0  0  0  0
 25 26  1  0  0  0  0
 27 25  1  0  0  0  0
 28 30  1  0  0  0  0
 30 29  2  6  0  0  0
 30 33  1  0  0  0  0
 30 31  1  0  0  0  0
 31 32  1  0  0  0  0
 33 34  1  0  0  0  0
 34 35  1  0  0  0  0
 34 37  1  0  0  0  0
 36 34  1  0  0  0  0
M  END
>  <minimizedAffinity>
-5.83245802

$$$$

 OpenBabel03272504393D

 37 38  0  0  0  0  0  0  0  0999 V2000
   38.3330   27.0780   35.5400 Cl  0  0  0  0  0  0  0  0  0  0  0  0
   38.1250   25.8330   34.3080 C   0  0  0  0  0  0  0  0  0  0  0  0
   38.1680   24.5220   34.6720 C   0  0  0  0  0  0  0  0  0  0  0  0
   38.0080   23.5460   33.7260 C   0  0  0  0  0  0  0  0  0  0  0  0
   37.8040   23.9190   32.4100 C   0  0  0  0  0  0  0  0  0  0  0  0
   37.7690   25.2790   32.0900 C   0  0  0  0  0  0  0  0  0  0  0  0
   37.9260   26.2630   33.0190 C   0  0  0  0  0  0  0  0  0  0  0  0
   38.0490   22.5050   34.0620 H   0  0  0  0  0  0  0  0  0  0  0  0
   37.6900   23.0690   31.7470 H   0  0  0  0  0  0  0  0  0  0  0  0
   37.6080   25.3480   31.0710 H   0  0  0  0  0  0  0  0  0  0  0  0
   37.9130   24.2880   38.3500 C   0  0  0  0  0  0  0  0  0  0  0  0
   38.9290   23.3110   38.6240 C   0  0  0  0  0  0  0  0  0  0  0  0
   39.6500   22.7820   37.5400 C   0  0  0  0  0  0  0  0  0  0  0  0
   39.3560   23.2160   36.2880 N   0  0  0  0  0  0  0  0  0  0  0  0
   38.3850   24.1440   36.0640 C   0  0  0  0  0  0  0  0  0  0  0  0
   37.6900   24.6560   37.0820 N   0  0  0  0  0  0  0  0  0  0  0  0
   37.3800   24.6710   39.2080 H   0  0  0  0  0  0  0  0  0  0  0  0
   39.1320   22.9950   39.6380 H   0  0  0  0  0  0  0  0  0  0  0  0
   40.6320   21.8340   37.8540 N   0  0  0  0  0  0  0  0  0  0  0  0
   41.6360   21.9600   38.1590 H   0  0  0  0  0  0  0  0  0  0  0  0
   40.4510   20.8070   37.8140 H   0  0  0  0  0  0  0  0  0  0  0  0
   37.8910   27.6640   32.6660 C   0  0  0  0  0  0  0  0  0  0  0  0
   37.7230   28.2590   33.5870 H   0  0  0  0  0  0  0  0  0  0  0  0
   38.9410   27.9500   32.3600 H   0  0  0  0  0  0  0  0  0  0  0  0
   36.9600   28.1250   31.6390 C   0  0  0  0  0  0  0  0  0  0  0  0
   37.1940   29.1730   31.3400 H   0  0  0  0  0  0  0  0  0  0  0  0
   37.0240   27.5330   30.6930 H   0  0  0  0  0  0  0  0  0  0  0  0
   35.6510   28.0410   32.0670 O   0  0  0  0  0  0  0  0  0  0  0  0
   33.5150   29.5170   32.5380 O   0  0  0  0  0  0  0  0  0  0  0  0
   34.9900   29.5750   32.2220 P   0  0  2  0  0  0  0  0  0  0  0  0
   35.2700   30.3690   30.7270 O   0  0  0  0  0  0  0  0  0  0  0  0
   34.8700   31.2750   30.7130 H   0  0  0  0  0  0  0  0  0  0  0  0
   35.7530   30.4810   33.3980 O   0  0  0  0  0  0  0  0  0  0  0  0
   35.4740   29.9870   34.6600 C   0  0  0  0  0  0  0  0  0  0  0  0
   35.3790   28.5950   34.6670 F   0  0  0  0  0  0  0  0  0  0  0  0
   36.4790   30.3040   35.5480 F   0  0  0  0  0  0  0  0  0  0  0  0
   34.2750   30.5040   35.1140 F   0  0  0  0  0  0  0  0  0  0  0  0
  2  3  1  0  0  0  0
  2  1  1  0  0  0  0
  3 15  1  0  0  0  0
  4  8  1  0  0  0  0
  4  3  2  0  0  0  0
  5  4  1  0  0  0  0
  6  5  2  0  0  0  0
  6  7  1  0  0  0  0
  7  2  2  0  0  0  0
  9  5  1  0  0  0  0
 10  6  1  0  0  0  0
 11 12  1  0  0  0  0
 11 17  1  0  0  0  0
 12 18  1  0  0  0  0
 13 19  1  0  0  0  0
 13 12  2  0  0  0  0
 14 13  1  0  0  0  0
 15 14  2  0  0  0  0
 15 16  1  0  0  0  0
 16 11  2  0  0  0  0
 19 20  1  0  0  0  0
 21 19  1  0  0  0  0
 22  7  1  0  0  0  0
 22 23  1  0  0  0  0
 24 22  1  0  0  0  0
 25 28  1  0  0  0  0
 25 22  1  0  0  0  0
 26 25  1  0  0  0  0
 27 25  1  0  0  0  0
 28 30  1  0  0  0  0
 30 29  2  1  0  0  0
 30 33  1  0  0  0  0
 31 30  1  0  0  0  0
 32 31  1  0  0  0  0
 33 34  1  0  0  0  0
 34 35  1  0  0  0  0
 34 37  1  0  0  0  0
 34 36  1  0  0  0  0
M  END
>  <minimizedAffinity>
-5.80998945

$$$$

 OpenBabel03272504393D

 37 38  0  0  0  0  0  0  0  0999 V2000
   38.4540   26.8580   36.1230 Cl  0  0  0  0  0  0  0  0  0  0  0  0
   37.9450   25.9860   34.6780 C   0  0  0  0  0  0  0  0  0  0  0  0
   38.3220   24.6880   34.5150 C   0  0  0  0  0  0  0  0  0  0  0  0
   37.9330   24.0010   33.3970 C   0  0  0  0  0  0  0  0  0  0  0  0
   37.1600   24.6470   32.4510 C   0  0  0  0  0  0  0  0  0  0  0  0
   36.8000   25.9800   32.6670 C   0  0  0  0  0  0  0  0  0  0  0  0
   37.1780   26.6790   33.7740 C   0  0  0  0  0  0  0  0  0  0  0  0
   38.2590   22.9590   33.3060 H   0  0  0  0  0  0  0  0  0  0  0  0
   36.9100   24.0110   31.6090 H   0  0  0  0  0  0  0  0  0  0  0  0
   36.2300   26.2770   31.8570 H   0  0  0  0  0  0  0  0  0  0  0  0
   41.1620   23.1450   36.3030 C   0  0  0  0  0  0  0  0  0  0  0  0
   40.5230   22.7530   37.5270 C   0  0  0  0  0  0  0  0  0  0  0  0
   39.1550   23.0350   37.6800 C   0  0  0  0  0  0  0  0  0  0  0  0
   38.5010   23.6620   36.6690 N   0  0  0  0  0  0  0  0  0  0  0  0
   39.1400   24.0200   35.5210 C   0  0  0  0  0  0  0  0  0  0  0  0
   40.4380   23.7600   35.3590 N   0  0  0  0  0  0  0  0  0  0  0  0
   42.2140   22.9110   36.2220 H   0  0  0  0  0  0  0  0  0  0  0  0
   41.0810   22.2540   38.3070 H   0  0  0  0  0  0  0  0  0  0  0  0
   38.5720   22.6350   38.8890 N   0  0  0  0  0  0  0  0  0  0  0  0
   38.1740   21.7010   39.1840 H   0  0  0  0  0  0  0  0  0  0  0  0
   38.4630   23.2830   39.7000 H   0  0  0  0  0  0  0  0  0  0  0  0
   36.8000   28.0600   33.9750 C   0  0  0  0  0  0  0  0  0  0  0  0
   36.4650   28.1870   35.0250 H   0  0  0  0  0  0  0  0  0  0  0  0
   37.7520   28.6680   33.9310 H   0  0  0  0  0  0  0  0  0  0  0  0
   35.8090   28.6710   33.0930 C   0  0  0  0  0  0  0  0  0  0  0  0
   36.0460   28.4530   32.0260 H   0  0  0  0  0  0  0  0  0  0  0  0
   34.7780   28.2690   33.2490 H   0  0  0  0  0  0  0  0  0  0  0  0
   35.7320   30.0350   33.2870 O   0  0  0  0  0  0  0  0  0  0  0  0
   33.2330   29.3380   33.7650 O   0  0  0  0  0  0  0  0  0  0  0  0
   34.2420   30.4470   33.9380 P   0  0  2  0  0  0  0  0  0  0  0  0
   33.7410   31.8720   33.1240 O   0  0  0  0  0  0  0  0  0  0  0  0
   32.8420   32.1630   33.4170 H   0  0  0  0  0  0  0  0  0  0  0  0
   34.3410   30.8300   35.5600 O   0  0  0  0  0  0  0  0  0  0  0  0
   35.5080   31.5200   35.8340 C   0  0  0  0  0  0  0  0  0  0  0  0
   35.8250   32.4310   34.8260 F   0  0  0  0  0  0  0  0  0  0  0  0
   35.3850   32.2600   36.9910 F   0  0  0  0  0  0  0  0  0  0  0  0
   36.5610   30.6330   35.9630 F   0  0  0  0  0  0  0  0  0  0  0  0
  2  1  1  0  0  0  0
  3  2  1  0  0  0  0
  3 15  1  0  0  0  0
  4  3  2  0  0  0  0
  5  6  2  0  0  0  0
  5  4  1  0  0  0  0
  6  7  1  0  0  0  0
  7 22  1  0  0  0  0
  7  2  2  0  0  0  0
  8  4  1  0  0  0  0
  9  5  1  0  0  0  0
 10  6  1  0  0  0  0
 11 12  1  0  0  0  0
 12 13  2  0  0  0  0
 12 18  1  0  0  0  0
 13 19  1  0  0  0  0
 14 13  1  0  0  0  0
 15 14  2  0  0  0  0
 16 15  1  0  0  0  0
 16 11  2  0  0  0  0
 17 11  1  0  0  0  0
 19 20  1  0  0  0  0
 19 21  1  0  0  0  0
 22 23  1  0  0  0  0
 24 22  1  0  0  0  0
 25 27  1  0  0  0  0
 25 28  1  0  0  0  0
 25 22  1  0  0  0  0
 26 25  1  0  0  0  0
 28 30  1  0  0  0  0
 30 29  2  6  0  0  0
 30 33  1  0  0  0  0
 31 32  1  0  0  0  0
 31 30  1  0  0  0  0
 33 34  1  0  0  0  0
 34 37  1  0  0  0  0
 34 36  1  0  0  0  0
 35 34  1  0  0  0  0
M  END
>  <minimizedAffinity>
-5.75313044

$$$$

 OpenBabel03272504393D

 37 38  0  0  0  0  0  0  0  0999 V2000
   36.6240   27.6510   34.8600 Cl  0  0  0  0  0  0  0  0  0  0  0  0
   37.2170   27.7000   33.2000 C   0  0  0  0  0  0  0  0  0  0  0  0
   36.6270   28.5400   32.3060 C   0  0  0  0  0  0  0  0  0  0  0  0
   37.0790   28.5870   31.0150 C   0  0  0  0  0  0  0  0  0  0  0  0
   38.1320   27.7720   30.6460 C   0  0  0  0  0  0  0  0  0  0  0  0
   38.7020   26.9270   31.6030 C   0  0  0  0  0  0  0  0  0  0  0  0
   38.2660   26.8680   32.8920 C   0  0  0  0  0  0  0  0  0  0  0  0
   36.5760   29.2770   30.3290 H   0  0  0  0  0  0  0  0  0  0  0  0
   38.4080   27.8890   29.6040 H   0  0  0  0  0  0  0  0  0  0  0  0
   39.4650   26.4090   31.1360 H   0  0  0  0  0  0  0  0  0  0  0  0
   34.6320   31.3760   33.5780 C   0  0  0  0  0  0  0  0  0  0  0  0
   33.3020   30.8600   33.4140 C   0  0  0  0  0  0  0  0  0  0  0  0
   33.1540   29.5690   32.8790 C   0  0  0  0  0  0  0  0  0  0  0  0
   34.2690   28.8710   32.5410 N   0  0  0  0  0  0  0  0  0  0  0  0
   35.5150   29.3930   32.7100 C   0  0  0  0  0  0  0  0  0  0  0  0
   35.6740   30.6170   33.2170 N   0  0  0  0  0  0  0  0  0  0  0  0
   34.7060   32.3720   33.9920 H   0  0  0  0  0  0  0  0  0  0  0  0
   32.4410   31.4490   33.6970 H   0  0  0  0  0  0  0  0  0  0  0  0
   31.8410   29.1050   32.7380 N   0  0  0  0  0  0  0  0  0  0  0  0
   31.1990   28.6360   33.4350 H   0  0  0  0  0  0  0  0  0  0  0  0
   31.3120   29.1840   31.8410 H   0  0  0  0  0  0  0  0  0  0  0  0
   38.8650   25.9840   33.8660 C   0  0  0  0  0  0  0  0  0  0  0  0
   39.9270   25.8190   33.5900 H   0  0  0  0  0  0  0  0  0  0  0  0
   38.9360   26.5640   34.8330 H   0  0  0  0  0  0  0  0  0  0  0  0
   38.2490   24.6880   34.1380 C   0  0  0  0  0  0  0  0  0  0  0  0
   37.5710   24.7540   35.0200 H   0  0  0  0  0  0  0  0  0  0  0  0
   37.6000   24.3280   33.3020 H   0  0  0  0  0  0  0  0  0  0  0  0
   39.1980   23.7090   34.3480 O   0  0  0  0  0  0  0  0  0  0  0  0
   40.7350   23.3030   36.4530 O   0  0  0  0  0  0  0  0  0  0  0  0
   39.3020   23.3410   35.9810 P   0  0  2  0  0  0  0  0  0  0  0  0
   38.5470   21.8120   36.1760 O   0  0  0  0  0  0  0  0  0  0  0  0
   38.6020   21.4940   37.1120 H   0  0  0  0  0  0  0  0  0  0  0  0
   38.4560   24.4200   36.9320 O   0  0  0  0  0  0  0  0  0  0  0  0
   38.2600   23.9110   38.2030 C   0  0  0  0  0  0  0  0  0  0  0  0
   37.8750   24.9000   39.1090 F   0  0  0  0  0  0  0  0  0  0  0  0
   37.2500   22.9730   38.2110 F   0  0  0  0  0  0  0  0  0  0  0  0
   39.4290   23.3340   38.6650 F   0  0  0  0  0  0  0  0  0  0  0  0
  2  1  1  0  0  0  0
  3 15  1  0  0  0  0
  3  2  2  0  0  0  0
  4  3  1  0  0  0  0
  5  4  2  0  0  0  0
  5  6  1  0  0  0  0
  6  7  2  0  0  0  0
  7  2  1  0  0  0  0
  7 22  1  0  0  0  0
  8  4  1  0  0  0  0
  9  5  1  0  0  0  0
 10  6  1  0  0  0  0
 11 17  1  0  0  0  0
 12 11  1  0  0  0  0
 12 18  1  0  0  0  0
 13 12  2  0  0  0  0
 14 15  2  0  0  0  0
 14 13  1  0  0  0  0
 15 16  1  0  0  0  0
 16 11  2  0  0  0  0
 19 13  1  0  0  0  0
 19 20  1  0  0  0  0
 21 19  1  0  0  0  0
 22 25  1  0  0  0  0
 22 24  1  0  0  0  0
 23 22  1  0  0  0  0
 25 28  1  0  0  0  0
 25 26  1  0  0  0  0
 27 25  1  0  0  0  0
 28 30  1  0  0  0  0
 30 31  1  0  0  0  0
 30 29  2  1  0  0  0
 30 33  1  0  0  0  0
 31 32  1  0  0  0  0
 33 34  1  0  0  0  0
 34 36  1  0  0  0  0
 34 37  1  0  0  0  0
 34 35  1  0  0  0  0
M  END
>  <minimizedAffinity>
-5.66275883

$$$$

 OpenBabel03272504393D

 37 38  0  0  0  0  0  0  0  0999 V2000
   38.8370   22.7100   32.6810 Cl  0  0  0  0  0  0  0  0  0  0  0  0
   37.5390   23.7330   32.0680 C   0  0  0  0  0  0  0  0  0  0  0  0
   36.3260   23.1790   31.7930 C   0  0  0  0  0  0  0  0  0  0  0  0
   35.3100   23.9630   31.3170 C   0  0  0  0  0  0  0  0  0  0  0  0
   35.5420   25.3120   31.1240 C   0  0  0  0  0  0  0  0  0  0  0  0
   36.8050   25.8310   31.4220 C   0  0  0  0  0  0  0  0  0  0  0  0
   37.8270   25.0650   31.8970 C   0  0  0  0  0  0  0  0  0  0  0  0
   34.3520   23.4760   31.1090 H   0  0  0  0  0  0  0  0  0  0  0  0
   34.6720   25.8370   30.7460 H   0  0  0  0  0  0  0  0  0  0  0  0
   36.7750   26.8430   31.2140 H   0  0  0  0  0  0  0  0  0  0  0  0
   35.5310   19.9150   33.3300 C   0  0  0  0  0  0  0  0  0  0  0  0
   35.7070   19.0420   32.2040 C   0  0  0  0  0  0  0  0  0  0  0  0
   36.0880   19.6120   30.9770 C   0  0  0  0  0  0  0  0  0  0  0  0
   36.2720   20.9550   30.9110 N   0  0  0  0  0  0  0  0  0  0  0  0
   36.0970   21.7540   32.0000 C   0  0  0  0  0  0  0  0  0  0  0  0
   35.7350   21.2300   33.1730 N   0  0  0  0  0  0  0  0  0  0  0  0
   35.2380   19.4410   34.2560 H   0  0  0  0  0  0  0  0  0  0  0  0
   35.5510   17.9770   32.3000 H   0  0  0  0  0  0  0  0  0  0  0  0
   36.2490   18.7230   29.9070 N   0  0  0  0  0  0  0  0  0  0  0  0
   37.0780   18.1320   29.6230 H   0  0  0  0  0  0  0  0  0  0  0  0
   35.4910   18.5390   29.2130 H   0  0  0  0  0  0  0  0  0  0  0  0
   39.1280   25.6210   32.1940 C   0  0  0  0  0  0  0  0  0  0  0  0
   39.8660   24.7940   32.2380 H   0  0  0  0  0  0  0  0  0  0  0  0
   39.4480   26.2070   31.2820 H   0  0  0  0  0  0  0  0  0  0  0  0
   39.3000   26.4610   33.3770 C   0  0  0  0  0  0  0  0  0  0  0  0
   40.2110   27.0950   33.2790 H   0  0  0  0  0  0  0  0  0  0  0  0
   38.4600   27.1820   33.5260 H   0  0  0  0  0  0  0  0  0  0  0  0
   39.3770   25.7040   34.5280 O   0  0  0  0  0  0  0  0  0  0  0  0
   36.8870   26.4130   35.0370 O   0  0  0  0  0  0  0  0  0  0  0  0
   38.2540   26.2410   35.6530 P   0  0  2  0  0  0  0  0  0  0  0  0
   38.8530   27.7330   36.2540 O   0  0  0  0  0  0  0  0  0  0  0  0
   38.2250   28.1460   36.8970 H   0  0  0  0  0  0  0  0  0  0  0  0
   38.1230   25.2130   36.9620 O   0  0  0  0  0  0  0  0  0  0  0  0
   38.3530   23.9020   36.5860 C   0  0  0  0  0  0  0  0  0  0  0  0
   37.9030   22.9960   37.5460 F   0  0  0  0  0  0  0  0  0  0  0  0
   37.6770   23.5940   35.4250 F   0  0  0  0  0  0  0  0  0  0  0  0
   39.7080   23.6970   36.4000 F   0  0  0  0  0  0  0  0  0  0  0  0
  2  1  1  0  0  0  0
  3 15  1  0  0  0  0
  3  2  2  0  0  0  0
  4  3  1  0  0  0  0
  5  4  2  0  0  0  0
  5  6  1  0  0  0  0
  6  7  2  0  0  0  0
  7  2  1  0  0  0  0
  7 22  1  0  0  0  0
  8  4  1  0  0  0  0
  9  5  1  0  0  0  0
 10  6  1  0  0  0  0
 11 17  1  0  0  0  0
 12 18  1  0  0  0  0
 12 11  2  0  0  0  0
 13 12  1  0  0  0  0
 14 13  2  0  0  0  0
 14 15  1  0  0  0  0
 15 16  2  0  0  0  0
 16 11  1  0  0  0  0
 19 13  1  0  0  0  0
 20 19  1  0  0  0  0
 21 19  1  0  0  0  0
 22 23  1  0  0  0  0
 22 25  1  0  0  0  0
 24 22  1  0  0  0  0
 25 27  1  0  0  0  0
 25 28  1  0  0  0  0
 26 25  1  0  0  0  0
 28 30  1  0  0  0  0
 30 29  2  6  0  0  0
 30 31  1  0  0  0  0
 30 33  1  0  0  0  0
 31 32  1  0  0  0  0
 34 33  1  0  0  0  0
 34 35  1  0  0  0  0
 36 34  1  0  0  0  0
 37 34  1  0  0  0  0
M  END
>  <minimizedAffinity>
-5.58871698

$$$$

 OpenBabel03272504393D

 37 38  0  0  0  0  0  0  0  0999 V2000
   38.0850   27.1620   33.4560 Cl  0  0  0  0  0  0  0  0  0  0  0  0
   37.0950   26.0220   32.5450 C   0  0  0  0  0  0  0  0  0  0  0  0
   36.0950   26.4950   31.7510 C   0  0  0  0  0  0  0  0  0  0  0  0
   35.3190   25.6210   31.0390 C   0  0  0  0  0  0  0  0  0  0  0  0
   35.5730   24.2660   31.1430 C   0  0  0  0  0  0  0  0  0  0  0  0
   36.6120   23.8330   31.9710 C   0  0  0  0  0  0  0  0  0  0  0  0
   37.3940   24.6900   32.6870 C   0  0  0  0  0  0  0  0  0  0  0  0
   34.5260   26.0440   30.4140 H   0  0  0  0  0  0  0  0  0  0  0  0
   34.9010   23.6660   30.5380 H   0  0  0  0  0  0  0  0  0  0  0  0
   36.6400   22.8020   31.9120 H   0  0  0  0  0  0  0  0  0  0  0  0
   34.8730   29.9180   32.4100 C   0  0  0  0  0  0  0  0  0  0  0  0
   35.4650   30.6270   31.3100 C   0  0  0  0  0  0  0  0  0  0  0  0
   36.2500   29.9000   30.3990 C   0  0  0  0  0  0  0  0  0  0  0  0
   36.4140   28.5680   30.5980 N   0  0  0  0  0  0  0  0  0  0  0  0
   35.8380   27.9270   31.6530 C   0  0  0  0  0  0  0  0  0  0  0  0
   35.0890   28.6020   32.5280 N   0  0  0  0  0  0  0  0  0  0  0  0
   34.2760   30.5100   33.0890 H   0  0  0  0  0  0  0  0  0  0  0  0
   35.3070   31.6890   31.1880 H   0  0  0  0  0  0  0  0  0  0  0  0
   36.8060   30.6310   29.3420 N   0  0  0  0  0  0  0  0  0  0  0  0
   36.3960   30.9090   28.4080 H   0  0  0  0  0  0  0  0  0  0  0  0
   37.7770   31.0120   29.3740 H   0  0  0  0  0  0  0  0  0  0  0  0
   38.4610   24.2210   33.5420 C   0  0  0  0  0  0  0  0  0  0  0  0
   39.0780   23.4950   32.9760 H   0  0  0  0  0  0  0  0  0  0  0  0
   39.1620   25.0940   33.6960 H   0  0  0  0  0  0  0  0  0  0  0  0
   38.1380   23.6420   34.8440 C   0  0  0  0  0  0  0  0  0  0  0  0
   37.0590   23.7890   35.0830 H   0  0  0  0  0  0  0  0  0  0  0  0
   38.2950   22.5360   34.8810 H   0  0  0  0  0  0  0  0  0  0  0  0
   38.9180   24.1830   35.8460 O   0  0  0  0  0  0  0  0  0  0  0  0
   37.2660   22.6470   37.2150 O   0  0  0  0  0  0  0  0  0  0  0  0
   38.4140   23.6180   37.3430 P   0  0  2  0  0  0  0  0  0  0  0  0
   37.9550   25.0020   38.2480 O   0  0  0  0  0  0  0  0  0  0  0  0
   37.6000   24.7550   39.1380 H   0  0  0  0  0  0  0  0  0  0  0  0
   39.6470   22.8770   38.1910 O   0  0  0  0  0  0  0  0  0  0  0  0
   40.5410   22.2660   37.3300 C   0  0  0  0  0  0  0  0  0  0  0  0
   39.8920   21.5390   36.3320 F   0  0  0  0  0  0  0  0  0  0  0  0
   41.3160   23.2000   36.6770 F   0  0  0  0  0  0  0  0  0  0  0  0
   41.3570   21.4000   38.0340 F   0  0  0  0  0  0  0  0  0  0  0  0
  2  7  1  0  0  0  0
  2  1  1  0  0  0  0
  3  2  2  0  0  0  0
  4  5  2  0  0  0  0
  4  3  1  0  0  0  0
  5  6  1  0  0  0  0
  6  7  2  0  0  0  0
  7 22  1  0  0  0  0
  8  4  1  0  0  0  0
  9  5  1  0  0  0  0
 10  6  1  0  0  0  0
 11 16  1  0  0  0  0
 11 17  1  0  0  0  0
 12 11  2  0  0  0  0
 13 14  2  0  0  0  0
 13 12  1  0  0  0  0
 14 15  1  0  0  0  0
 15  3  1  0  0  0  0
 15 16  2  0  0  0  0
 18 12  1  0  0  0  0
 19 21  1  0  0  0  0
 19 13  1  0  0  0  0
 20 19  1  0  0  0  0
 22 24  1  0  0  0  0
 22 25  1  0  0  0  0
 23 22  1  0  0  0  0
 25 27  1  0  0  0  0
 25 26  1  0  0  0  0
 25 28  1  0  0  0  0
 28 30  1  0  0  0  0
 30 29  2  6  0  0  0
 30 33  1  0  0  0  0
 30 31  1  0  0  0  0
 31 32  1  0  0  0  0
 34 37  1  0  0  0  0
 34 33  1  0  0  0  0
 35 34  1  0  0  0  0
 36 34  1  0  0  0  0
M  END
>  <minimizedAffinity>
-5.54124641

$$$$

 OpenBabel03272504393D

 37 38  0  0  0  0  0  0  0  0999 V2000
   38.5950   23.4540   33.2880 Cl  0  0  0  0  0  0  0  0  0  0  0  0
   39.5660   24.9140   33.4740 C   0  0  0  0  0  0  0  0  0  0  0  0
   39.8820   25.3490   34.7250 C   0  0  0  0  0  0  0  0  0  0  0  0
   40.6350   26.4810   34.8830 C   0  0  0  0  0  0  0  0  0  0  0  0
   41.0590   27.1630   33.7580 C   0  0  0  0  0  0  0  0  0  0  0  0
   40.7070   26.6740   32.4970 C   0  0  0  0  0  0  0  0  0  0  0  0
   39.9590   25.5490   32.3210 C   0  0  0  0  0  0  0  0  0  0  0  0
   40.8660   26.7950   35.9060 H   0  0  0  0  0  0  0  0  0  0  0  0
   41.6470   28.0430   33.9980 H   0  0  0  0  0  0  0  0  0  0  0  0
   41.1150   27.3160   31.7960 H   0  0  0  0  0  0  0  0  0  0  0  0
   37.9210   24.2380   37.6520 C   0  0  0  0  0  0  0  0  0  0  0  0
   38.7190   23.1320   38.1000 C   0  0  0  0  0  0  0  0  0  0  0  0
   39.8860   22.8210   37.3820 C   0  0  0  0  0  0  0  0  0  0  0  0
   40.2060   23.5770   36.3000 N   0  0  0  0  0  0  0  0  0  0  0  0
   39.4260   24.6200   35.9030 C   0  0  0  0  0  0  0  0  0  0  0  0
   38.3140   24.9280   36.5730 N   0  0  0  0  0  0  0  0  0  0  0  0
   37.0320   24.4460   38.2290 H   0  0  0  0  0  0  0  0  0  0  0  0
   38.4280   22.5560   38.9680 H   0  0  0  0  0  0  0  0  0  0  0  0
   40.6330   21.7360   37.8550 N   0  0  0  0  0  0  0  0  0  0  0  0
   41.3670   21.6860   38.6140 H   0  0  0  0  0  0  0  0  0  0  0  0
   40.5300   20.7730   37.4670 H   0  0  0  0  0  0  0  0  0  0  0  0
   39.6010   25.0630   31.0080 C   0  0  0  0  0  0  0  0  0  0  0  0
   40.5120   25.0360   30.3780 H   0  0  0  0  0  0  0  0  0  0  0  0
   39.3350   23.9700   31.1260 H   0  0  0  0  0  0  0  0  0  0  0  0
   38.5370   25.7270   30.2600 C   0  0  0  0  0  0  0  0  0  0  0  0
   38.7490   26.8170   30.1600 H   0  0  0  0  0  0  0  0  0  0  0  0
   38.4420   25.3540   29.2100 H   0  0  0  0  0  0  0  0  0  0  0  0
   37.3060   25.5420   30.8550 O   0  0  0  0  0  0  0  0  0  0  0  0
   35.1080   26.8480   31.5070 O   0  0  0  0  0  0  0  0  0  0  0  0
   36.5520   27.0200   31.1050 P   0  0  2  0  0  0  0  0  0  0  0  0
   36.6830   27.8790   29.6250 O   0  0  0  0  0  0  0  0  0  0  0  0
   36.2220   28.7540   29.6690 H   0  0  0  0  0  0  0  0  0  0  0  0
   37.3240   27.9390   32.2650 O   0  0  0  0  0  0  0  0  0  0  0  0
   36.9020   27.5880   33.5340 C   0  0  0  0  0  0  0  0  0  0  0  0
   37.8350   27.9380   34.5100 F   0  0  0  0  0  0  0  0  0  0  0  0
   35.7370   28.2460   33.8690 F   0  0  0  0  0  0  0  0  0  0  0  0
   36.6970   26.2230   33.6020 F   0  0  0  0  0  0  0  0  0  0  0  0
  1  2  1  0  0  0  0
  2  3  1  0  0  0  0
  3  4  2  0  0  0  0
  3 15  1  0  0  0  0
  4  8  1  0  0  0  0
  5  9  1  0  0  0  0
  5  4  1  0  0  0  0
  6  5  2  0  0  0  0
  7  6  1  0  0  0  0
  7  2  2  0  0  0  0
 10  6  1  0  0  0  0
 11 12  1  0  0  0  0
 11 17  1  0  0  0  0
 12 18  1  0  0  0  0
 13 19  1  0  0  0  0
 13 12  2  0  0  0  0
 14 13  1  0  0  0  0
 15 14  2  0  0  0  0
 15 16  1  0  0  0  0
 16 11  2  0  0  0  0
 19 20  1  0  0  0  0
 21 19  1  0  0  0  0
 22 24  1  0  0  0  0
 22  7  1  0  0  0  0
 23 22  1  0  0  0  0
 25 28  1  0  0  0  0
 25 22  1  0  0  0  0
 26 25  1  0  0  0  0
 27 25  1  0  0  0  0
 28 30  1  0  0  0  0
 30 29  2  1  0  0  0
 30 33  1  0  0  0  0
 31 32  1  0  0  0  0
 31 30  1  0  0  0  0
 33 34  1  0  0  0  0
 34 37  1  0  0  0  0
 34 36  1  0  0  0  0
 34 35  1  0  0  0  0
M  END
>  <minimizedAffinity>
-5.41843271

$$$$

 OpenBabel03272504393D

 37 38  0  0  0  0  0  0  0  0999 V2000
   38.7140   26.7040   32.6460 Cl  0  0  0  0  0  0  0  0  0  0  0  0
   37.4500   25.6230   32.0600 C   0  0  0  0  0  0  0  0  0  0  0  0
   36.3190   26.1520   31.5170 C   0  0  0  0  0  0  0  0  0  0  0  0
   35.3310   25.3230   31.0590 C   0  0  0  0  0  0  0  0  0  0  0  0
   35.5060   23.9560   31.1600 C   0  0  0  0  0  0  0  0  0  0  0  0
   36.6850   23.4640   31.7270 C   0  0  0  0  0  0  0  0  0  0  0  0
   37.6790   24.2750   32.1870 C   0  0  0  0  0  0  0  0  0  0  0  0
   34.4390   25.7910   30.6290 H   0  0  0  0  0  0  0  0  0  0  0  0
   34.6640   23.3950   30.7680 H   0  0  0  0  0  0  0  0  0  0  0  0
   36.6240   22.4320   31.7110 H   0  0  0  0  0  0  0  0  0  0  0  0
   35.3900   29.6560   32.2250 C   0  0  0  0  0  0  0  0  0  0  0  0
   35.9210   30.3110   31.0630 C   0  0  0  0  0  0  0  0  0  0  0  0
   36.5690   29.5230   30.0970 C   0  0  0  0  0  0  0  0  0  0  0  0
   36.6640   28.1850   30.3030 N   0  0  0  0  0  0  0  0  0  0  0  0
   36.1490   27.5970   31.4170 C   0  0  0  0  0  0  0  0  0  0  0  0
   35.5300   28.3290   32.3460 N   0  0  0  0  0  0  0  0  0  0  0  0
   34.8990   30.2940   32.9460 H   0  0  0  0  0  0  0  0  0  0  0  0
   35.8230   31.3800   30.9380 H   0  0  0  0  0  0  0  0  0  0  0  0
   37.0710   30.2040   28.9800 N   0  0  0  0  0  0  0  0  0  0  0  0
   36.5950   30.4980   28.0840 H   0  0  0  0  0  0  0  0  0  0  0  0
   38.0640   30.5200   28.9160 H   0  0  0  0  0  0  0  0  0  0  0  0
   38.8890   23.7460   32.7750 C   0  0  0  0  0  0  0  0  0  0  0  0
   39.4440   23.1810   31.9990 H   0  0  0  0  0  0  0  0  0  0  0  0
   39.5630   24.6300   32.9830 H   0  0  0  0  0  0  0  0  0  0  0  0
   38.8060   22.9240   33.9790 C   0  0  0  0  0  0  0  0  0  0  0  0
   38.6330   21.8550   33.7130 H   0  0  0  0  0  0  0  0  0  0  0  0
   39.7510   22.9240   34.5750 H   0  0  0  0  0  0  0  0  0  0  0  0
   37.8090   23.3640   34.8250 O   0  0  0  0  0  0  0  0  0  0  0  0
   39.8120   22.9970   36.5020 O   0  0  0  0  0  0  0  0  0  0  0  0
   38.3520   23.3680   36.4120 P   0  0  2  0  0  0  0  0  0  0  0  0
   37.3750   22.2380   37.2560 O   0  0  0  0  0  0  0  0  0  0  0  0
   37.6580   22.1430   38.1990 H   0  0  0  0  0  0  0  0  0  0  0  0
   38.1310   24.8450   37.1560 O   0  0  0  0  0  0  0  0  0  0  0  0
   38.2550   25.8810   36.2470 C   0  0  0  0  0  0  0  0  0  0  0  0
   37.1850   25.9210   35.3530 F   0  0  0  0  0  0  0  0  0  0  0  0
   38.2650   27.1020   36.8850 F   0  0  0  0  0  0  0  0  0  0  0  0
   39.4210   25.7310   35.5190 F   0  0  0  0  0  0  0  0  0  0  0  0
  2  7  1  0  0  0  0
  2  1  1  0  0  0  0
  3  2  2  0  0  0  0
  4  5  2  0  0  0  0
  4  3  1  0  0  0  0
  5  6  1  0  0  0  0
  6  7  2  0  0  0  0
  7 22  1  0  0  0  0
  8  4  1  0  0  0  0
  9  5  1  0  0  0  0
 10  6  1  0  0  0  0
 11 16  1  0  0  0  0
 11 17  1  0  0  0  0
 12 11  2  0  0  0  0
 13 14  2  0  0  0  0
 13 12  1  0  0  0  0
 14 15  1  0  0  0  0
 15  3  1  0  0  0  0
 15 16  2  0  0  0  0
 18 12  1  0  0  0  0
 19 13  1  0  0  0  0
 20 19  1  0  0  0  0
 21 19  1  0  0  0  0
 22 24  1  0  0  0  0
 22 25  1  0  0  0  0
 23 22  1  0  0  0  0
 25 27  1  0  0  0  0
 25 28  1  0  0  0  0
 26 25  1  0  0  0  0
 28 30  1  0  0  0  0
 30 29  2  1  0  0  0
 30 33  1  0  0  0  0
 30 31  1  0  0  0  0
 31 32  1  0  0  0  0
 34 36  1  0  0  0  0
 34 33  1  0  0  0  0
 35 34  1  0  0  0  0
 37 34  1  0  0  0  0
M  END
>  <minimizedAffinity>
-5.36944866

$$$$
