
 OpenBabel03272510243D

 27 29  0  0  0  0  0  0  0  0999 V2000
   35.5540   29.8050   47.1090 C   0  0  0  0  0  0  0  0  0  0  0  0
   36.5960   30.4360   47.7570 C   0  0  0  0  0  0  0  0  0  0  0  0
   37.4570   31.2580   47.0660 C   0  0  0  0  0  0  0  0  0  0  0  0
   37.2310   31.4200   45.7010 C   0  0  0  0  0  0  0  0  0  0  0  0
   37.9440   32.1780   44.8110 N   0  0  0  0  0  0  0  0  0  0  0  0
   37.3510   32.0170   43.6310 C   0  0  0  0  0  0  0  0  0  0  0  0
   36.3080   31.2060   43.7150 N   0  0  0  0  0  0  0  0  0  0  0  0
   36.2020   30.8080   45.0140 C   0  0  0  0  0  0  0  0  0  0  0  0
   35.3460   29.9820   45.7410 C   0  0  0  0  0  0  0  0  0  0  0  0
   34.8480   29.1460   47.6130 H   0  0  0  0  0  0  0  0  0  0  0  0
   38.2730   31.7520   47.5710 H   0  0  0  0  0  0  0  0  0  0  0  0
   38.7890   32.7570   45.0640 H   0  0  0  0  0  0  0  0  0  0  0  0
   34.5400   29.5000   45.2130 H   0  0  0  0  0  0  0  0  0  0  0  0
   37.8630   30.2750   51.2930 C   0  0  0  0  0  0  0  0  0  0  0  0
   37.8500   30.5620   49.9320 C   0  0  0  0  0  0  0  0  0  0  0  0
   36.7430   30.1980   49.1830 C   0  0  0  0  0  0  0  0  0  0  0  0
   35.7060   29.5670   49.8300 N   0  0  0  0  0  0  0  0  0  0  0  0
   35.7450   29.2980   51.1590 C   0  0  0  0  0  0  0  0  0  0  0  0
   36.8080   29.6490   51.8740 N   0  0  0  0  0  0  0  0  0  0  0  0
   38.7150   30.5470   51.9040 H   0  0  0  0  0  0  0  0  0  0  0  0
   38.6580   31.0520   49.4360 H   0  0  0  0  0  0  0  0  0  0  0  0
   34.8530   28.7980   51.5170 H   0  0  0  0  0  0  0  0  0  0  0  0
   37.8200   32.6540   42.4830 O   0  0  0  0  0  0  0  0  0  0  0  0
   39.1720   32.7850   42.1680 C   0  0  0  0  0  0  0  0  0  0  0  0
   39.8280   31.6110   42.4930 F   0  0  0  0  0  0  0  0  0  0  0  0
   39.7770   33.7890   42.9190 F   0  0  0  0  0  0  0  0  0  0  0  0
   39.2790   33.0720   40.8200 F   0  0  0  0  0  0  0  0  0  0  0  0
  1 10  1  0  0  0  0
  1  2  1  0  0  0  0
  2 16  1  0  0  0  0
  3 11  1  0  0  0  0
  3  2  2  0  0  0  0
  4  3  1  0  0  0  0
  5 12  1  0  0  0  0
  5  4  1  0  0  0  0
  6  7  2  0  0  0  0
  6  5  1  0  0  0  0
  7  8  1  0  0  0  0
  8  4  2  0  0  0  0
  8  9  1  0  0  0  0
  9  1  2  0  0  0  0
 13  9  1  0  0  0  0
 14 19  1  0  0  0  0
 14 20  1  0  0  0  0
 15 14  2  0  0  0  0
 16 17  2  0  0  0  0
 16 15  1  0  0  0  0
 17 18  1  0  0  0  0
 18 22  1  0  0  0  0
 18 19  2  0  0  0  0
 21 15  1  0  0  0  0
 23  6  1  0  0  0  0
 24 23  1  0  0  0  0
 24 25  1  0  0  0  0
 24 26  1  0  0  0  0
 27 24  1  0  0  0  0
M  END
>  <minimizedAffinity>
-4.78310204

>  <minimizedRMSD>
2.62659359

$$$$
