
 OpenBabel03272508213D

 37 39  0  0  0  0  0  0  0  0999 V2000
   34.1080   28.7240   47.4830 C   0  0  0  0  0  0  0  0  0  0  0  0
   34.5020   27.8830   46.8260 H   0  0  0  0  0  0  0  0  0  0  0  0
   34.0170   28.2360   48.4740 H   0  0  0  0  0  0  0  0  0  0  0  0
   31.6640   28.4860   47.3650 C   0  0  0  0  0  0  0  0  0  0  0  0
   32.8280   29.0860   46.9680 C   0  0  0  0  0  0  0  0  0  0  0  0
   32.6390   30.0120   45.9890 C   0  0  0  0  0  0  0  0  0  0  0  0
   31.4570   30.3150   45.4600 N   0  0  0  0  0  0  0  0  0  0  0  0
   30.3340   29.7290   45.8480 C   0  0  0  0  0  0  0  0  0  0  0  0
   30.4270   28.8080   46.8050 N   0  0  0  0  0  0  0  0  0  0  0  0
   33.4780   30.5830   45.5630 H   0  0  0  0  0  0  0  0  0  0  0  0
   29.3190   29.8590   45.5250 H   0  0  0  0  0  0  0  0  0  0  0  0
   31.6490   27.5310   48.5580 C   0  0  0  0  0  0  0  0  0  0  0  0
   30.5530   26.7570   48.9060 C   0  0  0  0  0  0  0  0  0  0  0  0
   31.5090   26.0730   47.9360 C   0  0  0  0  0  0  0  0  0  0  0  0
   32.4850   27.5360   49.2130 H   0  0  0  0  0  0  0  0  0  0  0  0
   30.3960   26.2960   49.8790 H   0  0  0  0  0  0  0  0  0  0  0  0
   29.5520   26.9560   48.4140 H   0  0  0  0  0  0  0  0  0  0  0  0
   32.1240   25.2910   48.3920 H   0  0  0  0  0  0  0  0  0  0  0  0
   31.2480   25.9740   46.8960 H   0  0  0  0  0  0  0  0  0  0  0  0
   35.1560   29.7690   47.5100 C   0  0  0  0  0  0  0  0  0  0  0  0
   34.6370   30.7460   47.2750 H   0  0  0  0  0  0  0  0  0  0  0  0
   35.8720   29.6530   46.6660 H   0  0  0  0  0  0  0  0  0  0  0  0
   37.3220   31.4970   47.4810 F   0  0  0  0  0  0  0  0  0  0  0  0
   36.9600   30.8260   48.5990 C   0  0  0  0  0  0  0  0  0  0  0  0
   35.8840   29.9480   48.7210 C   0  0  0  0  0  0  0  0  0  0  0  0
   35.6990   29.3810   49.9350 C   0  0  0  0  0  0  0  0  0  0  0  0
   36.4800   29.6210   51.0110 C   0  0  0  0  0  0  0  0  0  0  0  0
   37.5630   30.5020   50.8970 C   0  0  0  0  0  0  0  0  0  0  0  0
   37.7860   31.0940   49.6710 C   0  0  0  0  0  0  0  0  0  0  0  0
   34.9950   28.6460   50.1900 H   0  0  0  0  0  0  0  0  0  0  0  0
   36.3940   29.2090   52.0240 H   0  0  0  0  0  0  0  0  0  0  0  0
   38.2270   30.7290   51.7450 H   0  0  0  0  0  0  0  0  0  0  0  0
   38.8930   31.9490   49.6070 O   0  0  0  0  0  0  0  0  0  0  0  0
   38.8360   33.3050   49.3730 C   0  0  0  0  0  0  0  0  0  0  0  0
   37.6030   33.8780   49.3350 F   0  0  0  0  0  0  0  0  0  0  0  0
   39.6800   33.9930   50.2560 F   0  0  0  0  0  0  0  0  0  0  0  0
   39.4110   33.5210   48.1150 F   0  0  0  0  0  0  0  0  0  0  0  0
  1 20  1  0  0  0  0
  1  3  1  0  0  0  0
  2  1  1  0  0  0  0
  4 12  1  0  0  0  0
  5  4  1  0  0  0  0
  5  1  1  0  0  0  0
  6  5  2  0  0  0  0
  7  8  2  0  0  0  0
  7  6  1  0  0  0  0
  8  9  1  0  0  0  0
  9  4  2  0  0  0  0
 10  6  1  0  0  0  0
 11  8  1  0  0  0  0
 12 13  1  0  0  0  0
 12 15  1  0  0  0  0
 13 16  1  0  0  0  0
 14 18  1  0  0  0  0
 14 12  1  0  0  0  0
 14 13  1  0  0  0  0
 17 13  1  0  0  0  0
 19 14  1  0  0  0  0
 20 25  1  0  0  0  0
 21 20  1  0  0  0  0
 22 20  1  0  0  0  0
 23 24  1  0  0  0  0
 24 25  2  0  0  0  0
 24 29  1  0  0  0  0
 25 26  1  0  0  0  0
 26 30  1  0  0  0  0
 26 27  2  0  0  0  0
 27 31  1  0  0  0  0
 28 27  1  0  0  0  0
 28 32  1  0  0  0  0
 29 28  2  0  0  0  0
 33 29  1  0  0  0  0
 34 33  1  0  0  0  0
 34 36  1  0  0  0  0
 35 34  1  0  0  0  0
 37 34  1  0  0  0  0
M  END
>  <minimizedAffinity>
-6.42544556

>  <minimizedRMSD>
3.518893

$$$$
