
 OpenBabel03272508213D

 37 39  0  0  0  0  0  0  0  0999 V2000
   34.1260   28.6970   47.4620 C   0  0  0  0  0  0  0  0  0  0  0  0
   34.5200   27.8740   46.7830 H   0  0  0  0  0  0  0  0  0  0  0  0
   34.0370   28.1840   48.4400 H   0  0  0  0  0  0  0  0  0  0  0  0
   31.6790   28.4790   47.3630 C   0  0  0  0  0  0  0  0  0  0  0  0
   32.8440   29.0700   46.9580 C   0  0  0  0  0  0  0  0  0  0  0  0
   32.6540   30.0020   45.9830 C   0  0  0  0  0  0  0  0  0  0  0  0
   31.4700   30.3150   45.4650 N   0  0  0  0  0  0  0  0  0  0  0  0
   30.3460   29.7370   45.8610 C   0  0  0  0  0  0  0  0  0  0  0  0
   30.4400   28.8110   46.8140 N   0  0  0  0  0  0  0  0  0  0  0  0
   33.4950   30.5680   45.5530 H   0  0  0  0  0  0  0  0  0  0  0  0
   29.3300   29.8750   45.5470 H   0  0  0  0  0  0  0  0  0  0  0  0
   31.6660   27.5190   48.5530 C   0  0  0  0  0  0  0  0  0  0  0  0
   30.5690   26.7490   48.9040 C   0  0  0  0  0  0  0  0  0  0  0  0
   31.5160   26.0640   47.9260 C   0  0  0  0  0  0  0  0  0  0  0  0
   32.5060   27.5180   49.2030 H   0  0  0  0  0  0  0  0  0  0  0  0
   30.4160   26.2860   49.8770 H   0  0  0  0  0  0  0  0  0  0  0  0
   29.5660   26.9550   48.4190 H   0  0  0  0  0  0  0  0  0  0  0  0
   32.1300   25.2780   48.3770 H   0  0  0  0  0  0  0  0  0  0  0  0
   31.2480   25.9700   46.8880 H   0  0  0  0  0  0  0  0  0  0  0  0
   35.1730   29.7420   47.5140 C   0  0  0  0  0  0  0  0  0  0  0  0
   34.6590   30.7190   47.2640 H   0  0  0  0  0  0  0  0  0  0  0  0
   35.9100   29.6260   46.6880 H   0  0  0  0  0  0  0  0  0  0  0  0
   37.3440   31.4640   47.5340 F   0  0  0  0  0  0  0  0  0  0  0  0
   36.9510   30.7980   48.6450 C   0  0  0  0  0  0  0  0  0  0  0  0
   35.8700   29.9230   48.7420 C   0  0  0  0  0  0  0  0  0  0  0  0
   35.6520   29.3610   49.9530 C   0  0  0  0  0  0  0  0  0  0  0  0
   36.4060   29.6020   51.0480 C   0  0  0  0  0  0  0  0  0  0  0  0
   37.4940   30.4790   50.9590 C   0  0  0  0  0  0  0  0  0  0  0  0
   37.7510   31.0670   49.7360 C   0  0  0  0  0  0  0  0  0  0  0  0
   34.9400   28.6290   50.1920 H   0  0  0  0  0  0  0  0  0  0  0  0
   36.2930   29.1930   52.0590 H   0  0  0  0  0  0  0  0  0  0  0  0
   38.1370   30.7070   51.8220 H   0  0  0  0  0  0  0  0  0  0  0  0
   38.8620   31.9170   49.6990 O   0  0  0  0  0  0  0  0  0  0  0  0
   38.8310   33.2480   49.3420 C   0  0  0  0  0  0  0  0  0  0  0  0
   39.3290   33.5750   48.1200 F   0  0  0  0  0  0  0  0  0  0  0  0
   37.5430   33.7720   49.5140 F   0  0  0  0  0  0  0  0  0  0  0  0
   39.6070   33.9350   50.2830 F   0  0  0  0  0  0  0  0  0  0  0  0
  1 20  1  0  0  0  0
  1  3  1  0  0  0  0
  2  1  1  0  0  0  0
  4 12  1  0  0  0  0
  5  4  1  0  0  0  0
  5  1  1  0  0  0  0
  6  5  2  0  0  0  0
  7  8  2  0  0  0  0
  7  6  1  0  0  0  0
  8  9  1  0  0  0  0
  9  4  2  0  0  0  0
 10  6  1  0  0  0  0
 11  8  1  0  0  0  0
 12 13  1  0  0  0  0
 12 15  1  0  0  0  0
 13 16  1  0  0  0  0
 14 18  1  0  0  0  0
 14 12  1  0  0  0  0
 14 13  1  0  0  0  0
 17 13  1  0  0  0  0
 19 14  1  0  0  0  0
 20 25  1  0  0  0  0
 21 20  1  0  0  0  0
 22 20  1  0  0  0  0
 23 24  1  0  0  0  0
 24 25  2  0  0  0  0
 24 29  1  0  0  0  0
 25 26  1  0  0  0  0
 26 30  1  0  0  0  0
 26 27  2  0  0  0  0
 27 31  1  0  0  0  0
 28 27  1  0  0  0  0
 28 32  1  0  0  0  0
 29 28  2  0  0  0  0
 33 29  1  0  0  0  0
 34 36  1  0  0  0  0
 34 33  1  0  0  0  0
 34 37  1  0  0  0  0
 35 34  1  0  0  0  0
M  END
>  <minimizedAffinity>
-6.40223551

>  <minimizedRMSD>
3.53251433

$$$$
