
 OpenBabel03272510243D

 27 29  0  0  0  0  0  0  0  0999 V2000
   34.7950   29.5900   46.0390 C   0  0  0  0  0  0  0  0  0  0  0  0
   34.2870   29.4480   47.3140 C   0  0  0  0  0  0  0  0  0  0  0  0
   34.9650   29.9530   48.4000 C   0  0  0  0  0  0  0  0  0  0  0  0
   36.1720   30.6050   48.1550 C   0  0  0  0  0  0  0  0  0  0  0  0
   37.0180   31.1850   49.0600 N   0  0  0  0  0  0  0  0  0  0  0  0
   38.0330   31.6770   48.3550 C   0  0  0  0  0  0  0  0  0  0  0  0
   37.8850   31.4480   47.0600 N   0  0  0  0  0  0  0  0  0  0  0  0
   36.7150   30.7700   46.8960 C   0  0  0  0  0  0  0  0  0  0  0  0
   36.0040   30.2470   45.8160 C   0  0  0  0  0  0  0  0  0  0  0  0
   34.2930   29.2070   45.1500 H   0  0  0  0  0  0  0  0  0  0  0  0
   34.5710   29.8420   49.3980 H   0  0  0  0  0  0  0  0  0  0  0  0
   36.8510   31.2080   50.1030 H   0  0  0  0  0  0  0  0  0  0  0  0
   36.4210   30.3710   44.8300 H   0  0  0  0  0  0  0  0  0  0  0  0
   31.4910   27.2140   48.4670 C   0  0  0  0  0  0  0  0  0  0  0  0
   32.7480   27.8090   48.4390 C   0  0  0  0  0  0  0  0  0  0  0  0
   33.0210   28.7490   47.4600 C   0  0  0  0  0  0  0  0  0  0  0  0
   32.0270   29.0470   46.5580 N   0  0  0  0  0  0  0  0  0  0  0  0
   30.8080   28.4510   46.6070 C   0  0  0  0  0  0  0  0  0  0  0  0
   30.5510   27.5500   47.5480 N   0  0  0  0  0  0  0  0  0  0  0  0
   31.2500   26.4750   49.2210 H   0  0  0  0  0  0  0  0  0  0  0  0
   33.5160   27.5740   49.1430 H   0  0  0  0  0  0  0  0  0  0  0  0
   30.1370   28.7930   45.8280 H   0  0  0  0  0  0  0  0  0  0  0  0
   39.0930   32.3450   48.9670 O   0  0  0  0  0  0  0  0  0  0  0  0
   39.1560   33.7300   49.1130 C   0  0  0  0  0  0  0  0  0  0  0  0
   39.7080   34.0310   50.3450 F   0  0  0  0  0  0  0  0  0  0  0  0
   37.8870   34.3040   49.1070 F   0  0  0  0  0  0  0  0  0  0  0  0
   39.9110   34.2430   48.0750 F   0  0  0  0  0  0  0  0  0  0  0  0
  1  2  1  0  0  0  0
  2 16  1  0  0  0  0
  2  3  2  0  0  0  0
  3 11  1  0  0  0  0
  4  3  1  0  0  0  0
  4  5  1  0  0  0  0
  5 12  1  0  0  0  0
  6 23  1  0  0  0  0
  6  5  1  0  0  0  0
  7  6  2  0  0  0  0
  8  7  1  0  0  0  0
  8  4  2  0  0  0  0
  9  1  2  0  0  0  0
  9  8  1  0  0  0  0
 10  1  1  0  0  0  0
 13  9  1  0  0  0  0
 14 20  1  0  0  0  0
 15 14  1  0  0  0  0
 15 21  1  0  0  0  0
 16 15  2  0  0  0  0
 17 18  2  0  0  0  0
 17 16  1  0  0  0  0
 18 19  1  0  0  0  0
 19 14  2  0  0  0  0
 22 18  1  0  0  0  0
 23 24  1  0  0  0  0
 24 25  1  0  0  0  0
 26 24  1  0  0  0  0
 27 24  1  0  0  0  0
M  END
>  <minimizedAffinity>
-5.56173038

>  <minimizedRMSD>
4.88189936

$$$$
