
 OpenBabel03272506203D

 39 41  0  0  1  0  0  0  0  0999 V2000
   37.6870   30.3630   43.2760 C   0  0  2  0  0  0  0  0  0  0  0  0
   38.9100   29.4830   43.3360 C   0  0  0  0  0  0  0  0  0  0  0  0
   40.1820   30.2490   43.3000 C   0  0  0  0  0  0  0  0  0  0  0  0
   40.2870   31.1890   42.1500 C   0  0  0  0  0  0  0  0  0  0  0  0
   39.0590   31.9640   41.9000 C   0  0  0  0  0  0  0  0  0  0  0  0
   37.9470   31.7650   42.9300 C   0  0  1  0  0  0  0  0  0  0  0  0
   36.9270   29.9350   42.5570 H   0  0  0  0  0  0  0  0  0  0  0  0
   38.8920   28.8530   42.3990 H   0  0  0  0  0  0  0  0  0  0  0  0
   38.9290   28.7660   44.1580 H   0  0  0  0  0  0  0  0  0  0  0  0
   40.2300   30.8220   44.2740 H   0  0  0  0  0  0  0  0  0  0  0  0
   41.0110   29.5160   43.2740 H   0  0  0  0  0  0  0  0  0  0  0  0
   41.1830   31.8470   42.3420 H   0  0  0  0  0  0  0  0  0  0  0  0
   40.5740   30.5860   41.2420 H   0  0  0  0  0  0  0  0  0  0  0  0
   38.6310   31.7720   40.8770 H   0  0  0  0  0  0  0  0  0  0  0  0
   39.2920   33.0590   41.9380 H   0  0  0  0  0  0  0  0  0  0  0  0
   38.2180   32.3490   43.8230 H   0  0  0  0  0  0  0  0  0  0  0  0
   36.9840   30.3360   44.6100 C   0  0  0  0  0  0  0  0  0  0  0  0
   35.7150   29.7570   44.6070 C   0  0  0  0  0  0  0  0  0  0  0  0
   35.0170   29.7200   45.8180 C   0  0  0  0  0  0  0  0  0  0  0  0
   35.6230   30.2570   46.9430 N   0  0  0  0  0  0  0  0  0  0  0  0
   36.8670   30.8130   46.8930 C   0  0  0  0  0  0  0  0  0  0  0  0
   37.5190   30.8430   45.7450 N   0  0  0  0  0  0  0  0  0  0  0  0
   33.7310   29.1460   45.9190 N   0  0  0  0  0  0  0  0  0  0  0  0
   33.4970   27.8360   45.6010 C   0  0  0  0  0  0  0  0  0  0  0  0
   32.2330   27.3030   45.7090 C   0  0  0  0  0  0  0  0  0  0  0  0
   31.2210   28.1170   46.1430 C   0  0  0  0  0  0  0  0  0  0  0  0
   30.0610   27.6240   46.2420 O   0  0  0  0  0  0  0  0  0  0  0  0
   31.4510   29.4070   46.4580 N   0  0  0  0  0  0  0  0  0  0  0  0
   32.7060   29.8820   46.3350 C   0  0  0  0  0  0  0  0  0  0  0  0
   32.8150   31.1060   46.6560 O   0  0  0  0  0  0  0  0  0  0  0  0
   35.1780   29.3250   43.7780 H   0  0  0  0  0  0  0  0  0  0  0  0
   37.2800   31.2160   47.8160 H   0  0  0  0  0  0  0  0  0  0  0  0
   34.3650   27.2610   45.2620 H   0  0  0  0  0  0  0  0  0  0  0  0
   32.1190   26.2590   45.4400 H   0  0  0  0  0  0  0  0  0  0  0  0
   30.6360   29.9700   46.7820 H   0  0  0  0  0  0  0  0  0  0  0  0
   36.7160   32.4240   42.3140 C   0  0  0  0  0  0  0  0  0  0  0  0
   37.1410   33.3440   41.3690 F   0  0  0  0  0  0  0  0  0  0  0  0
   35.9880   31.4780   41.5830 F   0  0  0  0  0  0  0  0  0  0  0  0
   35.9230   33.0640   43.2130 F   0  0  0  0  0  0  0  0  0  0  0  0
  1  7  1  6  0  0  0
  1  2  1  0  0  0  0
  1 17  1  0  0  0  0
  2  9  1  0  0  0  0
  3  2  1  0  0  0  0
  3 10  1  0  0  0  0
  4 12  1  0  0  0  0
  4  3  1  0  0  0  0
  5 15  1  0  0  0  0
  5  4  1  0  0  0  0
  5  6  1  0  0  0  0
  6  1  1  0  0  0  0
  6 16  1  1  0  0  0
  8  2  1  0  0  0  0
 11  3  1  0  0  0  0
 13  4  1  0  0  0  0
 14  5  1  0  0  0  0
 17 22  1  0  0  0  0
 18 17  2  0  0  0  0
 18 19  1  0  0  0  0
 19 23  1  0  0  0  0
 19 20  2  0  0  0  0
 21 20  1  0  0  0  0
 21 32  1  0  0  0  0
 22 21  2  0  0  0  0
 23 29  1  0  0  0  0
 24 25  2  0  0  0  0
 24 23  1  0  0  0  0
 25 26  1  0  0  0  0
 26 27  2  0  0  0  0
 26 28  1  0  0  0  0
 28 35  1  0  0  0  0
 29 28  1  0  0  0  0
 29 30  2  0  0  0  0
 31 18  1  0  0  0  0
 33 24  1  0  0  0  0
 34 25  1  0  0  0  0
 36  6  1  0  0  0  0
 36 39  1  0  0  0  0
 37 36  1  0  0  0  0
 38 36  1  0  0  0  0
M  END
>  <minimizedAffinity>
-4.21666574

>  <minimizedRMSD>
6.58907986

$$$$
