
 OpenBabel03272506203D

 39 41  0  0  1  0  0  0  0  0999 V2000
   35.3570   30.4640   48.2500 C   0  0  2  0  0  0  0  0  0  0  0  0
   36.5670   31.0680   47.5820 C   0  0  0  0  0  0  0  0  0  0  0  0
   37.8300   30.3600   47.9140 C   0  0  0  0  0  0  0  0  0  0  0  0
   38.0740   30.2160   49.3760 C   0  0  0  0  0  0  0  0  0  0  0  0
   36.8830   29.8050   50.1410 C   0  0  0  0  0  0  0  0  0  0  0  0
   35.6520   29.4780   49.2960 C   0  0  1  0  0  0  0  0  0  0  0  0
   34.6950   31.2750   48.6770 H   0  0  0  0  0  0  0  0  0  0  0  0
   36.6690   32.1130   48.0000 H   0  0  0  0  0  0  0  0  0  0  0  0
   36.4860   31.2020   46.5030 H   0  0  0  0  0  0  0  0  0  0  0  0
   37.7530   29.3410   47.4310 H   0  0  0  0  0  0  0  0  0  0  0  0
   38.6580   30.9210   47.4400 H   0  0  0  0  0  0  0  0  0  0  0  0
   38.9360   29.4980   49.4970 H   0  0  0  0  0  0  0  0  0  0  0  0
   38.4750   31.2000   49.7530 H   0  0  0  0  0  0  0  0  0  0  0  0
   36.5870   30.5650   50.9160 H   0  0  0  0  0  0  0  0  0  0  0  0
   37.1050   28.8600   50.7020 H   0  0  0  0  0  0  0  0  0  0  0  0
   35.8070   28.4770   48.8630 H   0  0  0  0  0  0  0  0  0  0  0  0
   34.4930   29.7950   47.2110 C   0  0  0  0  0  0  0  0  0  0  0  0
   33.3630   30.5130   46.8190 C   0  0  0  0  0  0  0  0  0  0  0  0
   32.5220   29.9290   45.8660 C   0  0  0  0  0  0  0  0  0  0  0  0
   32.8590   28.6790   45.3710 N   0  0  0  0  0  0  0  0  0  0  0  0
   33.9760   28.0180   45.7870 C   0  0  0  0  0  0  0  0  0  0  0  0
   34.7650   28.5780   46.6870 N   0  0  0  0  0  0  0  0  0  0  0  0
   31.3600   30.5800   45.3990 N   0  0  0  0  0  0  0  0  0  0  0  0
   31.4140   31.8020   44.7850 C   0  0  0  0  0  0  0  0  0  0  0  0
   30.2650   32.4140   44.3390 C   0  0  0  0  0  0  0  0  0  0  0  0
   29.0720   31.7680   44.5250 C   0  0  0  0  0  0  0  0  0  0  0  0
   28.0180   32.3320   44.1140 O   0  0  0  0  0  0  0  0  0  0  0  0
   29.0180   30.5640   45.1300 N   0  0  0  0  0  0  0  0  0  0  0  0
   30.1720   30.0060   45.5490 C   0  0  0  0  0  0  0  0  0  0  0  0
   30.0110   28.8750   46.1040 O   0  0  0  0  0  0  0  0  0  0  0  0
   33.0330   31.4810   47.1590 H   0  0  0  0  0  0  0  0  0  0  0  0
   34.1780   27.0390   45.3540 H   0  0  0  0  0  0  0  0  0  0  0  0
   32.4100   32.2430   44.6790 H   0  0  0  0  0  0  0  0  0  0  0  0
   30.3800   33.3800   43.8620 H   0  0  0  0  0  0  0  0  0  0  0  0
   28.0780   30.1290   45.2390 H   0  0  0  0  0  0  0  0  0  0  0  0
   34.5060   29.3670   50.2960 C   0  0  0  0  0  0  0  0  0  0  0  0
   35.0430   29.1350   51.5530 F   0  0  0  0  0  0  0  0  0  0  0  0
   33.8570   30.6020   50.4130 F   0  0  0  0  0  0  0  0  0  0  0  0
   33.6200   28.3740   50.0150 F   0  0  0  0  0  0  0  0  0  0  0  0
  1  7  1  1  0  0  0
  1  6  1  0  0  0  0
  2  3  1  0  0  0  0
  2  8  1  0  0  0  0
  2  1  1  0  0  0  0
  3  4  1  0  0  0  0
  4 12  1  0  0  0  0
  4 13  1  0  0  0  0
  4  5  1  0  0  0  0
  5 15  1  0  0  0  0
  5 14  1  0  0  0  0
  6 16  1  6  0  0  0
  6  5  1  0  0  0  0
  6 36  1  0  0  0  0
  9  2  1  0  0  0  0
 10  3  1  0  0  0  0
 11  3  1  0  0  0  0
 17  1  1  0  0  0  0
 18 31  1  0  0  0  0
 18 17  1  0  0  0  0
 19 18  2  0  0  0  0
 20 21  2  0  0  0  0
 20 19  1  0  0  0  0
 21 22  1  0  0  0  0
 22 17  2  0  0  0  0
 23 29  1  0  0  0  0
 23 19  1  0  0  0  0
 24 23  1  0  0  0  0
 25 26  1  0  0  0  0
 25 24  2  0  0  0  0
 26 28  1  0  0  0  0
 27 26  2  0  0  0  0
 28 35  1  0  0  0  0
 28 29  1  0  0  0  0
 29 30  2  0  0  0  0
 32 21  1  0  0  0  0
 33 24  1  0  0  0  0
 34 25  1  0  0  0  0
 36 38  1  0  0  0  0
 36 37  1  0  0  0  0
 39 36  1  0  0  0  0
M  END
>  <minimizedAffinity>
-5.62427044

>  <minimizedRMSD>
2.00516367

$$$$
