
 OpenBabel03272506203D

 39 41  0  0  1  0  0  0  0  0999 V2000
   35.3970   30.4510   48.2900 C   0  0  2  0  0  0  0  0  0  0  0  0
   36.5600   31.0690   47.5560 C   0  0  0  0  0  0  0  0  0  0  0  0
   37.8550   30.4010   47.8460 C   0  0  0  0  0  0  0  0  0  0  0  0
   38.1670   30.2950   49.2970 C   0  0  0  0  0  0  0  0  0  0  0  0
   37.0220   29.8710   50.1240 C   0  0  0  0  0  0  0  0  0  0  0  0
   35.7630   29.4950   49.3420 C   0  0  1  0  0  0  0  0  0  0  0  0
   34.7340   31.2540   48.7290 H   0  0  0  0  0  0  0  0  0  0  0  0
   36.6540   32.1250   47.9470 H   0  0  0  0  0  0  0  0  0  0  0  0
   36.4280   31.1780   46.4790 H   0  0  0  0  0  0  0  0  0  0  0  0
   37.7830   29.3690   47.3880 H   0  0  0  0  0  0  0  0  0  0  0  0
   38.6460   30.9710   47.3230 H   0  0  0  0  0  0  0  0  0  0  0  0
   39.0520   29.6010   49.3950 H   0  0  0  0  0  0  0  0  0  0  0  0
   38.5590   31.2960   49.6360 H   0  0  0  0  0  0  0  0  0  0  0  0
   36.7420   30.6410   50.8950 H   0  0  0  0  0  0  0  0  0  0  0  0
   37.2930   28.9450   50.6930 H   0  0  0  0  0  0  0  0  0  0  0  0
   35.9250   28.4890   48.9230 H   0  0  0  0  0  0  0  0  0  0  0  0
   34.5050   29.7380   47.3050 C   0  0  0  0  0  0  0  0  0  0  0  0
   33.3850   30.4540   46.8840 C   0  0  0  0  0  0  0  0  0  0  0  0
   32.5190   29.8310   45.9790 C   0  0  0  0  0  0  0  0  0  0  0  0
   32.8230   28.5460   45.5570 N   0  0  0  0  0  0  0  0  0  0  0  0
   33.9320   27.8880   46.0000 C   0  0  0  0  0  0  0  0  0  0  0  0
   34.7440   28.4850   46.8540 N   0  0  0  0  0  0  0  0  0  0  0  0
   31.3650   30.4770   45.4870 N   0  0  0  0  0  0  0  0  0  0  0  0
   31.4360   31.6570   44.7980 C   0  0  0  0  0  0  0  0  0  0  0  0
   30.2940   32.2660   44.3290 C   0  0  0  0  0  0  0  0  0  0  0  0
   29.0900   31.6580   44.5700 C   0  0  0  0  0  0  0  0  0  0  0  0
   28.0430   32.2190   44.1370 O   0  0  0  0  0  0  0  0  0  0  0  0
   29.0200   30.4950   45.2480 N   0  0  0  0  0  0  0  0  0  0  0  0
   30.1670   29.9400   45.6860 C   0  0  0  0  0  0  0  0  0  0  0  0
   29.9900   28.8490   46.3120 O   0  0  0  0  0  0  0  0  0  0  0  0
   33.0800   31.4480   47.1670 H   0  0  0  0  0  0  0  0  0  0  0  0
   34.1070   26.8800   45.6260 H   0  0  0  0  0  0  0  0  0  0  0  0
   32.4400   32.0700   44.6530 H   0  0  0  0  0  0  0  0  0  0  0  0
   30.4230   33.1980   43.7920 H   0  0  0  0  0  0  0  0  0  0  0  0
   28.0730   30.0880   45.3960 H   0  0  0  0  0  0  0  0  0  0  0  0
   34.6660   29.3770   50.3940 C   0  0  0  0  0  0  0  0  0  0  0  0
   33.9110   28.2490   50.1150 F   0  0  0  0  0  0  0  0  0  0  0  0
   35.2360   29.1170   51.6470 F   0  0  0  0  0  0  0  0  0  0  0  0
   33.8340   30.4510   50.4490 F   0  0  0  0  0  0  0  0  0  0  0  0
  1  7  1  1  0  0  0
  1  6  1  0  0  0  0
  2  3  1  0  0  0  0
  2  8  1  0  0  0  0
  2  1  1  0  0  0  0
  3  4  1  0  0  0  0
  4 12  1  0  0  0  0
  4 13  1  0  0  0  0
  4  5  1  0  0  0  0
  5 15  1  0  0  0  0
  5 14  1  0  0  0  0
  6 16  1  6  0  0  0
  6  5  1  0  0  0  0
  6 36  1  0  0  0  0
  9  2  1  0  0  0  0
 10  3  1  0  0  0  0
 11  3  1  0  0  0  0
 17  1  1  0  0  0  0
 18 31  1  0  0  0  0
 18 17  1  0  0  0  0
 19 18  2  0  0  0  0
 20 19  1  0  0  0  0
 20 21  2  0  0  0  0
 21 22  1  0  0  0  0
 22 17  2  0  0  0  0
 23 29  1  0  0  0  0
 23 19  1  0  0  0  0
 24 23  1  0  0  0  0
 25 26  1  0  0  0  0
 25 24  2  0  0  0  0
 26 28  1  0  0  0  0
 27 26  2  0  0  0  0
 28 35  1  0  0  0  0
 28 29  1  0  0  0  0
 29 30  2  0  0  0  0
 32 21  1  0  0  0  0
 33 24  1  0  0  0  0
 34 25  1  0  0  0  0
 36 39  1  0  0  0  0
 36 38  1  0  0  0  0
 37 36  1  0  0  0  0
M  END
>  <minimizedAffinity>
-5.70274496

>  <minimizedRMSD>
1.95567214

$$$$
