
 OpenBabel03272506203D

 39 41  0  0  1  0  0  0  0  0999 V2000
   37.8000   30.8220   42.7060 C   0  0  2  0  0  0  0  0  0  0  0  0
   38.1150   29.6120   41.8620 C   0  0  0  0  0  0  0  0  0  0  0  0
   39.2270   28.7920   42.4080 C   0  0  0  0  0  0  0  0  0  0  0  0
   40.4710   29.5650   42.6740 C   0  0  0  0  0  0  0  0  0  0  0  0
   40.2380   30.8610   43.3370 C   0  0  0  0  0  0  0  0  0  0  0  0
   38.7890   31.1270   43.7460 C   0  0  1  0  0  0  0  0  0  0  0  0
   37.6520   31.7320   42.0520 H   0  0  0  0  0  0  0  0  0  0  0  0
   38.4710   30.0070   40.8650 H   0  0  0  0  0  0  0  0  0  0  0  0
   37.2620   28.9750   41.6240 H   0  0  0  0  0  0  0  0  0  0  0  0
   38.8380   28.3400   43.3690 H   0  0  0  0  0  0  0  0  0  0  0  0
   39.4260   27.9790   41.6840 H   0  0  0  0  0  0  0  0  0  0  0  0
   41.1570   28.8920   43.2670 H   0  0  0  0  0  0  0  0  0  0  0  0
   41.0020   29.7060   41.6900 H   0  0  0  0  0  0  0  0  0  0  0  0
   40.5940   31.7300   42.7170 H   0  0  0  0  0  0  0  0  0  0  0  0
   40.8190   30.9030   44.2940 H   0  0  0  0  0  0  0  0  0  0  0  0
   38.5940   30.5440   44.6600 H   0  0  0  0  0  0  0  0  0  0  0  0
   36.4640   30.6310   43.3760 C   0  0  0  0  0  0  0  0  0  0  0  0
   35.3630   31.1070   42.6650 C   0  0  0  0  0  0  0  0  0  0  0  0
   34.1010   30.9640   43.2510 C   0  0  0  0  0  0  0  0  0  0  0  0
   34.0190   30.3630   44.4970 N   0  0  0  0  0  0  0  0  0  0  0  0
   35.1270   29.9150   45.1530 C   0  0  0  0  0  0  0  0  0  0  0  0
   36.3140   30.0530   44.5910 N   0  0  0  0  0  0  0  0  0  0  0  0
   32.9250   31.4050   42.6050 N   0  0  0  0  0  0  0  0  0  0  0  0
   32.5490   30.9220   41.3810 C   0  0  0  0  0  0  0  0  0  0  0  0
   31.3970   31.3700   40.7740 C   0  0  0  0  0  0  0  0  0  0  0  0
   30.6420   32.3070   41.4270 C   0  0  0  0  0  0  0  0  0  0  0  0
   29.5850   32.7150   40.8680 O   0  0  0  0  0  0  0  0  0  0  0  0
   31.0130   32.7820   42.6330 N   0  0  0  0  0  0  0  0  0  0  0  0
   32.1490   32.3130   43.1850 C   0  0  0  0  0  0  0  0  0  0  0  0
   32.4060   32.8240   44.3190 O   0  0  0  0  0  0  0  0  0  0  0  0
   35.3460   31.5860   41.6990 H   0  0  0  0  0  0  0  0  0  0  0  0
   34.9870   29.4540   46.1290 H   0  0  0  0  0  0  0  0  0  0  0  0
   33.2140   30.1760   40.9330 H   0  0  0  0  0  0  0  0  0  0  0  0
   31.1600   30.9450   39.8060 H   0  0  0  0  0  0  0  0  0  0  0  0
   30.3920   33.4940   43.0740 H   0  0  0  0  0  0  0  0  0  0  0  0
   38.7530   32.6020   44.1330 C   0  0  0  0  0  0  0  0  0  0  0  0
   38.1060   33.3020   43.1270 F   0  0  0  0  0  0  0  0  0  0  0  0
   37.9420   32.7770   45.2610 F   0  0  0  0  0  0  0  0  0  0  0  0
   39.9810   33.1550   44.3240 F   0  0  0  0  0  0  0  0  0  0  0  0
  1  7  1  6  0  0  0
  1 17  1  0  0  0  0
  1  6  1  0  0  0  0
  2  3  1  0  0  0  0
  2  1  1  0  0  0  0
  3  4  1  0  0  0  0
  3 10  1  0  0  0  0
  4 12  1  0  0  0  0
  4  5  1  0  0  0  0
  5  6  1  0  0  0  0
  5 15  1  0  0  0  0
  6 36  1  0  0  0  0
  6 16  1  1  0  0  0
  8  2  1  0  0  0  0
  9  2  1  0  0  0  0
 11  3  1  0  0  0  0
 13  4  1  0  0  0  0
 14  5  1  0  0  0  0
 17 22  1  0  0  0  0
 18 19  1  0  0  0  0
 18 17  2  0  0  0  0
 19 20  2  0  0  0  0
 20 21  1  0  0  0  0
 21 32  1  0  0  0  0
 22 21  2  0  0  0  0
 23 29  1  0  0  0  0
 23 19  1  0  0  0  0
 24 23  1  0  0  0  0
 25 24  2  0  0  0  0
 25 26  1  0  0  0  0
 26 28  1  0  0  0  0
 27 26  2  0  0  0  0
 28 35  1  0  0  0  0
 28 29  1  0  0  0  0
 29 30  2  0  0  0  0
 31 18  1  0  0  0  0
 33 24  1  0  0  0  0
 34 25  1  0  0  0  0
 36 39  1  0  0  0  0
 36 38  1  0  0  0  0
 37 36  1  0  0  0  0
M  END
>  <minimizedAffinity>
-3.62684369

>  <minimizedRMSD>
6.38182735

$$$$
