
 OpenBabel03262520213D

 18 18  0  0  0  0  0  0  0  0999 V2000
   35.2460   29.0630   49.0070 C   0  0  0  0  0  0  0  0  0  0  0  0
   36.2950   29.8330   49.5260 C   0  0  0  0  0  0  0  0  0  0  0  0
   36.9050   30.7590   48.7120 C   0  0  0  0  0  0  0  0  0  0  0  0
   36.4380   30.8600   47.4360 N   0  0  0  0  0  0  0  0  0  0  0  0
   35.4390   30.1210   46.9490 C   0  0  0  0  0  0  0  0  0  0  0  0
   34.8620   29.2320   47.7590 N   0  0  0  0  0  0  0  0  0  0  0  0
   35.1140   30.3030   45.5940 N   0  0  0  0  0  0  0  0  0  0  0  0
   34.6850   28.3020   49.5490 H   0  0  0  0  0  0  0  0  0  0  0  0
   34.3750   30.8260   45.1070 H   0  0  0  0  0  0  0  0  0  0  0  0
   35.8420   29.7450   45.0900 H   0  0  0  0  0  0  0  0  0  0  0  0
   37.9940   31.5780   49.2580 C   0  0  0  0  0  0  0  0  0  0  0  0
   38.7850   30.8300   50.0020 F   0  0  0  0  0  0  0  0  0  0  0  0
   38.6990   32.2450   48.2810 F   0  0  0  0  0  0  0  0  0  0  0  0
   37.4750   32.5770   50.1240 F   0  0  0  0  0  0  0  0  0  0  0  0
   36.5800   29.5300   50.9490 C   0  0  0  0  0  0  0  0  0  0  0  0
   37.7180   28.7510   51.1340 F   0  0  0  0  0  0  0  0  0  0  0  0
   35.4950   29.1250   51.6900 F   0  0  0  0  0  0  0  0  0  0  0  0
   36.9670   30.6850   51.6620 F   0  0  0  0  0  0  0  0  0  0  0  0
  1  2  1  0  0  0  0
  1  8  1  0  0  0  0
  2 15  1  0  0  0  0
  3 11  1  0  0  0  0
  3  2  2  0  0  0  0
  4  3  1  0  0  0  0
  5  4  2  0  0  0  0
  5  6  1  0  0  0  0
  6  1  2  0  0  0  0
  7  5  1  0  0  0  0
  9  7  1  0  0  0  0
 10  7  1  0  0  0  0
 11 12  1  0  0  0  0
 11 14  1  0  0  0  0
 13 11  1  0  0  0  0
 15 16  1  0  0  0  0
 15 18  1  0  0  0  0
 15 17  1  0  0  0  0
M  END
>  <minimizedAffinity>
-5.59649086

>  <minimizedRMSD>
2.50668907

$$$$
