
 OpenBabel03262520223D

 18 18  0  0  0  0  0  0  0  0999 V2000
   38.1580   24.4100   34.5740 C   0  0  0  0  0  0  0  0  0  0  0  0
   38.2580   23.7340   35.7960 C   0  0  0  0  0  0  0  0  0  0  0  0
   38.2600   24.4640   36.9610 C   0  0  0  0  0  0  0  0  0  0  0  0
   38.1640   25.8170   36.8400 N   0  0  0  0  0  0  0  0  0  0  0  0
   38.0700   26.4550   35.6710 C   0  0  0  0  0  0  0  0  0  0  0  0
   38.0680   25.7240   34.5540 N   0  0  0  0  0  0  0  0  0  0  0  0
   38.0390   27.8590   35.7110 N   0  0  0  0  0  0  0  0  0  0  0  0
   38.1450   23.9460   33.5870 H   0  0  0  0  0  0  0  0  0  0  0  0
   37.2820   28.5520   35.6460 H   0  0  0  0  0  0  0  0  0  0  0  0
   39.0430   28.1240   35.8340 H   0  0  0  0  0  0  0  0  0  0  0  0
   38.3490   23.7560   38.2440 C   0  0  0  0  0  0  0  0  0  0  0  0
   37.3120   22.9530   38.3830 F   0  0  0  0  0  0  0  0  0  0  0  0
   39.5380   23.0790   38.3960 F   0  0  0  0  0  0  0  0  0  0  0  0
   38.2760   24.6770   39.3230 F   0  0  0  0  0  0  0  0  0  0  0  0
   38.3260   22.2610   35.6330 C   0  0  0  0  0  0  0  0  0  0  0  0
   37.1480   21.6100   35.9840 F   0  0  0  0  0  0  0  0  0  0  0  0
   39.4650   21.6690   36.1270 F   0  0  0  0  0  0  0  0  0  0  0  0
   38.4060   21.8880   34.2740 F   0  0  0  0  0  0  0  0  0  0  0  0
  1  2  1  0  0  0  0
  2  3  2  0  0  0  0
  3 11  1  0  0  0  0
  4  3  1  0  0  0  0
  5  7  1  0  0  0  0
  5  4  2  0  0  0  0
  6  1  2  0  0  0  0
  6  5  1  0  0  0  0
  7 10  1  0  0  0  0
  8  1  1  0  0  0  0
  9  7  1  0  0  0  0
 11 12  1  0  0  0  0
 11 13  1  0  0  0  0
 11 14  1  0  0  0  0
 15  2  1  0  0  0  0
 15 16  1  0  0  0  0
 15 17  1  0  0  0  0
 18 15  1  0  0  0  0
M  END
>  <minimizedAffinity>
-4.8282814

$$$$

 OpenBabel03262520223D

 18 18  0  0  0  0  0  0  0  0999 V2000
   40.7410   23.5790   35.5400 C   0  0  0  0  0  0  0  0  0  0  0  0
   39.5480   23.9760   36.1560 C   0  0  0  0  0  0  0  0  0  0  0  0
   39.1490   23.3360   37.3050 C   0  0  0  0  0  0  0  0  0  0  0  0
   39.9570   22.3410   37.7690 N   0  0  0  0  0  0  0  0  0  0  0  0
   41.0910   21.9670   37.1740 C   0  0  0  0  0  0  0  0  0  0  0  0
   41.4590   22.6060   36.0620 N   0  0  0  0  0  0  0  0  0  0  0  0
   41.7820   20.8830   37.7430 N   0  0  0  0  0  0  0  0  0  0  0  0
   41.1630   24.0080   34.6300 H   0  0  0  0  0  0  0  0  0  0  0  0
   42.6010   20.8110   38.3610 H   0  0  0  0  0  0  0  0  0  0  0  0
   41.2610   20.0480   37.3910 H   0  0  0  0  0  0  0  0  0  0  0  0
   37.9070   23.7620   37.9630 C   0  0  0  0  0  0  0  0  0  0  0  0
   38.1140   24.8840   38.6230 F   0  0  0  0  0  0  0  0  0  0  0  0
   36.8540   23.8790   37.0830 F   0  0  0  0  0  0  0  0  0  0  0  0
   37.5080   22.8050   38.9330 F   0  0  0  0  0  0  0  0  0  0  0  0
   38.8830   25.0980   35.4500 C   0  0  0  0  0  0  0  0  0  0  0  0
   38.6340   26.1980   36.2660 F   0  0  0  0  0  0  0  0  0  0  0  0
   37.8240   24.7400   34.6500 F   0  0  0  0  0  0  0  0  0  0  0  0
   39.7380   25.6980   34.5000 F   0  0  0  0  0  0  0  0  0  0  0  0
  1  6  2  0  0  0  0
  1  2  1  0  0  0  0
  2  3  2  0  0  0  0
  3  4  1  0  0  0  0
  3 11  1  0  0  0  0
  5  7  1  0  0  0  0
  5  4  2  0  0  0  0
  6  5  1  0  0  0  0
  7  9  1  0  0  0  0
  8  1  1  0  0  0  0
 10  7  1  0  0  0  0
 11 12  1  0  0  0  0
 11 14  1  0  0  0  0
 13 11  1  0  0  0  0
 15  2  1  0  0  0  0
 15 16  1  0  0  0  0
 17 15  1  0  0  0  0
 18 15  1  0  0  0  0
M  END
>  <minimizedAffinity>
-4.65246391

$$$$

 OpenBabel03262520223D

 18 18  0  0  0  0  0  0  0  0999 V2000
   38.1430   25.6850   36.6530 C   0  0  0  0  0  0  0  0  0  0  0  0
   38.1840   24.2860   36.6930 C   0  0  0  0  0  0  0  0  0  0  0  0
   38.1650   23.5870   35.5100 C   0  0  0  0  0  0  0  0  0  0  0  0
   38.1040   24.3200   34.3620 N   0  0  0  0  0  0  0  0  0  0  0  0
   38.0620   25.6530   34.3330 C   0  0  0  0  0  0  0  0  0  0  0  0
   38.0850   26.3090   35.4950 N   0  0  0  0  0  0  0  0  0  0  0  0
   37.9400   26.2600   33.0710 N   0  0  0  0  0  0  0  0  0  0  0  0
   38.1530   26.3490   37.5190 H   0  0  0  0  0  0  0  0  0  0  0  0
   38.6100   26.7080   32.4330 H   0  0  0  0  0  0  0  0  0  0  0  0
   36.9200   26.1720   32.8540 H   0  0  0  0  0  0  0  0  0  0  0  0
   38.2250   22.1200   35.5480 C   0  0  0  0  0  0  0  0  0  0  0  0
   39.3080   21.7360   36.1950 F   0  0  0  0  0  0  0  0  0  0  0  0
   37.0890   21.5560   36.0820 F   0  0  0  0  0  0  0  0  0  0  0  0
   38.3480   21.5960   34.2340 F   0  0  0  0  0  0  0  0  0  0  0  0
   38.2720   23.7530   38.0750 C   0  0  0  0  0  0  0  0  0  0  0  0
   39.5370   23.2780   38.4070 F   0  0  0  0  0  0  0  0  0  0  0  0
   37.2430   22.9210   38.4470 F   0  0  0  0  0  0  0  0  0  0  0  0
   38.1430   24.7760   39.0390 F   0  0  0  0  0  0  0  0  0  0  0  0
  1  2  1  0  0  0  0
  1  8  1  0  0  0  0
  2 15  1  0  0  0  0
  3 11  1  0  0  0  0
  3  2  2  0  0  0  0
  4  3  1  0  0  0  0
  5  4  2  0  0  0  0
  5  6  1  0  0  0  0
  6  1  2  0  0  0  0
  7  5  1  0  0  0  0
  9  7  1  0  0  0  0
 10  7  1  0  0  0  0
 11 13  1  0  0  0  0
 11 12  1  0  0  0  0
 14 11  1  0  0  0  0
 15 16  1  0  0  0  0
 15 17  1  0  0  0  0
 15 18  1  0  0  0  0
M  END
>  <minimizedAffinity>
-4.54874849

$$$$

 OpenBabel03262520223D

 18 18  0  0  0  0  0  0  0  0999 V2000
   38.3440   22.9500   34.9710 C   0  0  0  0  0  0  0  0  0  0  0  0
   38.2100   24.3340   34.8070 C   0  0  0  0  0  0  0  0  0  0  0  0
   38.2670   25.1430   35.9170 C   0  0  0  0  0  0  0  0  0  0  0  0
   38.4510   24.5280   37.1190 N   0  0  0  0  0  0  0  0  0  0  0  0
   38.5750   23.2070   37.2670 C   0  0  0  0  0  0  0  0  0  0  0  0
   38.5190   22.4440   36.1740 N   0  0  0  0  0  0  0  0  0  0  0  0
   38.6990   22.7210   38.5800 N   0  0  0  0  0  0  0  0  0  0  0  0
   38.3170   22.2070   34.1720 H   0  0  0  0  0  0  0  0  0  0  0  0
   39.4980   22.4150   39.1490 H   0  0  0  0  0  0  0  0  0  0  0  0
   37.7150   22.7210   38.9350 H   0  0  0  0  0  0  0  0  0  0  0  0
   38.1430   26.5960   35.7460 C   0  0  0  0  0  0  0  0  0  0  0  0
   39.1330   27.0430   34.9980 F   0  0  0  0  0  0  0  0  0  0  0  0
   36.9190   26.9690   35.2400 F   0  0  0  0  0  0  0  0  0  0  0  0
   38.2730   27.2540   36.9980 F   0  0  0  0  0  0  0  0  0  0  0  0
   38.0450   24.7310   33.3870 C   0  0  0  0  0  0  0  0  0  0  0  0
   39.1600   25.3730   32.8570 F   0  0  0  0  0  0  0  0  0  0  0  0
   36.8490   25.3390   33.0850 F   0  0  0  0  0  0  0  0  0  0  0  0
   37.9910   23.6080   32.5330 F   0  0  0  0  0  0  0  0  0  0  0  0
  1  6  1  0  0  0  0
  2  1  2  0  0  0  0
  2  3  1  0  0  0  0
  3  4  2  0  0  0  0
  4  5  1  0  0  0  0
  5  7  1  0  0  0  0
  6  5  2  0  0  0  0
  7 10  1  0  0  0  0
  7  9  1  0  0  0  0
  8  1  1  0  0  0  0
 11  3  1  0  0  0  0
 11 14  1  0  0  0  0
 12 11  1  0  0  0  0
 13 11  1  0  0  0  0
 15  2  1  0  0  0  0
 16 15  1  0  0  0  0
 17 15  1  0  0  0  0
 18 15  1  0  0  0  0
M  END
>  <minimizedAffinity>
-4.392169

$$$$

 OpenBabel03262520223D

 18 18  0  0  0  0  0  0  0  0999 V2000
   34.7330   30.4220   34.1640 C   0  0  0  0  0  0  0  0  0  0  0  0
   34.2050   31.0700   35.2870 C   0  0  0  0  0  0  0  0  0  0  0  0
   32.8720   30.9070   35.5820 C   0  0  0  0  0  0  0  0  0  0  0  0
   32.1480   30.1140   34.7440 N   0  0  0  0  0  0  0  0  0  0  0  0
   32.6590   29.5020   33.6740 C   0  0  0  0  0  0  0  0  0  0  0  0
   33.9560   29.6730   33.4100 N   0  0  0  0  0  0  0  0  0  0  0  0
   31.7680   28.7660   32.8740 N   0  0  0  0  0  0  0  0  0  0  0  0
   35.7700   30.4720   33.8280 H   0  0  0  0  0  0  0  0  0  0  0  0
   31.5510   27.7640   32.7940 H   0  0  0  0  0  0  0  0  0  0  0  0
   31.2970   29.4980   32.2940 H   0  0  0  0  0  0  0  0  0  0  0  0
   32.3190   31.5730   36.7690 C   0  0  0  0  0  0  0  0  0  0  0  0
   32.7850   30.9980   37.8600 F   0  0  0  0  0  0  0  0  0  0  0  0
   32.5500   32.9300   36.7730 F   0  0  0  0  0  0  0  0  0  0  0  0
   30.9090   31.4100   36.8140 F   0  0  0  0  0  0  0  0  0  0  0  0
   35.2230   31.8500   36.0330 C   0  0  0  0  0  0  0  0  0  0  0  0
   35.0870   33.2270   35.8830 F   0  0  0  0  0  0  0  0  0  0  0  0
   36.5150   31.3960   35.9080 F   0  0  0  0  0  0  0  0  0  0  0  0
   35.0430   31.7450   37.4290 F   0  0  0  0  0  0  0  0  0  0  0  0
  1  2  1  0  0  0  0
  2  3  2  0  0  0  0
  2 15  1  0  0  0  0
  3 11  1  0  0  0  0
  4  3  1  0  0  0  0
  5  4  2  0  0  0  0
  6  5  1  0  0  0  0
  6  1  2  0  0  0  0
  7  5  1  0  0  0  0
  8  1  1  0  0  0  0
  9  7  1  0  0  0  0
 10  7  1  0  0  0  0
 11 13  1  0  0  0  0
 11 14  1  0  0  0  0
 11 12  1  0  0  0  0
 15 18  1  0  0  0  0
 16 15  1  0  0  0  0
 17 15  1  0  0  0  0
M  END
>  <minimizedAffinity>
-4.17382669

$$$$

 OpenBabel03262520223D

 18 18  0  0  0  0  0  0  0  0999 V2000
   38.1720   23.9030   33.6240 C   0  0  0  0  0  0  0  0  0  0  0  0
   38.5850   24.7990   34.6180 C   0  0  0  0  0  0  0  0  0  0  0  0
   38.0950   26.0830   34.6000 C   0  0  0  0  0  0  0  0  0  0  0  0
   37.2290   26.3980   33.5960 N   0  0  0  0  0  0  0  0  0  0  0  0
   36.8420   25.5390   32.6510 C   0  0  0  0  0  0  0  0  0  0  0  0
   37.3290   24.2970   32.6930 N   0  0  0  0  0  0  0  0  0  0  0  0
   35.9890   26.0330   31.6500 N   0  0  0  0  0  0  0  0  0  0  0  0
   38.4870   22.8630   33.5320 H   0  0  0  0  0  0  0  0  0  0  0  0
   34.9740   25.9780   31.4930 H   0  0  0  0  0  0  0  0  0  0  0  0
   36.6380   26.5350   31.0010 H   0  0  0  0  0  0  0  0  0  0  0  0
   38.5140   27.0200   35.6500 C   0  0  0  0  0  0  0  0  0  0  0  0
   39.8220   27.1840   35.6050 F   0  0  0  0  0  0  0  0  0  0  0  0
   37.8510   28.2250   35.5830 F   0  0  0  0  0  0  0  0  0  0  0  0
   38.2320   26.4830   36.9340 F   0  0  0  0  0  0  0  0  0  0  0  0
   39.5140   24.1830   35.5970 C   0  0  0  0  0  0  0  0  0  0  0  0
   38.9670   24.0460   36.8690 F   0  0  0  0  0  0  0  0  0  0  0  0
   40.7940   24.6850   35.5850 F   0  0  0  0  0  0  0  0  0  0  0  0
   39.7620   22.8260   35.2990 F   0  0  0  0  0  0  0  0  0  0  0  0
  1  2  1  0  0  0  0
  2 15  1  0  0  0  0
  3  2  2  0  0  0  0
  3 11  1  0  0  0  0
  4  3  1  0  0  0  0
  5  6  1  0  0  0  0
  5  4  2  0  0  0  0
  6  1  2  0  0  0  0
  7  5  1  0  0  0  0
  8  1  1  0  0  0  0
  9  7  1  0  0  0  0
 10  7  1  0  0  0  0
 11 14  1  0  0  0  0
 12 11  1  0  0  0  0
 13 11  1  0  0  0  0
 15 16  1  0  0  0  0
 17 15  1  0  0  0  0
 18 15  1  0  0  0  0
M  END
>  <minimizedAffinity>
-4.17005634

$$$$

 OpenBabel03262520223D

 18 18  0  0  0  0  0  0  0  0999 V2000
   41.7020   23.9270   35.4760 C   0  0  0  0  0  0  0  0  0  0  0  0
   40.4630   24.5770   35.4170 C   0  0  0  0  0  0  0  0  0  0  0  0
   39.4300   24.1100   36.1940 C   0  0  0  0  0  0  0  0  0  0  0  0
   39.6900   23.0260   36.9780 N   0  0  0  0  0  0  0  0  0  0  0  0
   40.8730   22.4110   37.0270 C   0  0  0  0  0  0  0  0  0  0  0  0
   41.8610   22.8850   36.2660 N   0  0  0  0  0  0  0  0  0  0  0  0
   40.9650   21.2690   37.8420 N   0  0  0  0  0  0  0  0  0  0  0  0
   42.5950   24.2010   34.9120 H   0  0  0  0  0  0  0  0  0  0  0  0
   41.3360   21.1010   38.7860 H   0  0  0  0  0  0  0  0  0  0  0  0
   40.5390   20.5150   37.2560 H   0  0  0  0  0  0  0  0  0  0  0  0
   38.1340   24.7990   36.1460 C   0  0  0  0  0  0  0  0  0  0  0  0
   37.7310   24.9020   34.8940 F   0  0  0  0  0  0  0  0  0  0  0  0
   37.1820   24.1970   36.9370 F   0  0  0  0  0  0  0  0  0  0  0  0
   38.2640   26.1300   36.6240 F   0  0  0  0  0  0  0  0  0  0  0  0
   40.4690   25.7410   34.4970 C   0  0  0  0  0  0  0  0  0  0  0  0
   40.3200   26.9620   35.1480 F   0  0  0  0  0  0  0  0  0  0  0  0
   39.6880   25.6030   33.3740 F   0  0  0  0  0  0  0  0  0  0  0  0
   41.7380   25.9390   33.9120 F   0  0  0  0  0  0  0  0  0  0  0  0
  1  6  1  0  0  0  0
  2  1  2  0  0  0  0
  2  3  1  0  0  0  0
  3  4  2  0  0  0  0
  4  5  1  0  0  0  0
  5  7  1  0  0  0  0
  6  5  2  0  0  0  0
  7  9  1  0  0  0  0
  8  1  1  0  0  0  0
 10  7  1  0  0  0  0
 11  3  1  0  0  0  0
 11 14  1  0  0  0  0
 11 13  1  0  0  0  0
 12 11  1  0  0  0  0
 15 16  1  0  0  0  0
 15  2  1  0  0  0  0
 17 15  1  0  0  0  0
 18 15  1  0  0  0  0
M  END
>  <minimizedAffinity>
-4.16994953

$$$$

 OpenBabel03262520223D

 18 18  0  0  0  0  0  0  0  0999 V2000
   37.2760   26.5640   33.6950 C   0  0  0  0  0  0  0  0  0  0  0  0
   38.0940   25.9340   34.6400 C   0  0  0  0  0  0  0  0  0  0  0  0
   38.3770   24.5970   34.4870 C   0  0  0  0  0  0  0  0  0  0  0  0
   37.8300   23.9710   33.4080 N   0  0  0  0  0  0  0  0  0  0  0  0
   37.0490   24.5790   32.5120 C   0  0  0  0  0  0  0  0  0  0  0  0
   36.7910   25.8780   32.6810 N   0  0  0  0  0  0  0  0  0  0  0  0
   36.5130   23.7820   31.4870 N   0  0  0  0  0  0  0  0  0  0  0  0
   36.9810   27.6150   33.7060 H   0  0  0  0  0  0  0  0  0  0  0  0
   36.7680   23.6280   30.5030 H   0  0  0  0  0  0  0  0  0  0  0  0
   35.7030   23.3040   31.9460 H   0  0  0  0  0  0  0  0  0  0  0  0
   39.2480   23.9360   35.4680 C   0  0  0  0  0  0  0  0  0  0  0  0
   40.4280   24.5240   35.4830 F   0  0  0  0  0  0  0  0  0  0  0  0
   38.6900   23.8890   36.7260 F   0  0  0  0  0  0  0  0  0  0  0  0
   39.4870   22.5890   35.0880 F   0  0  0  0  0  0  0  0  0  0  0  0
   38.5700   26.8590   35.6970 C   0  0  0  0  0  0  0  0  0  0  0  0
   39.9060   27.2210   35.5570 F   0  0  0  0  0  0  0  0  0  0  0  0
   38.2110   26.5160   36.9800 F   0  0  0  0  0  0  0  0  0  0  0  0
   37.9680   28.1310   35.5880 F   0  0  0  0  0  0  0  0  0  0  0  0
  1  8  1  0  0  0  0
  1  2  1  0  0  0  0
  2 15  1  0  0  0  0
  3  2  2  0  0  0  0
  3 11  1  0  0  0  0
  4  3  1  0  0  0  0
  5  6  1  0  0  0  0
  5  4  2  0  0  0  0
  6  1  2  0  0  0  0
  7 10  1  0  0  0  0
  7  5  1  0  0  0  0
  9  7  1  0  0  0  0
 11 12  1  0  0  0  0
 11 13  1  0  0  0  0
 14 11  1  0  0  0  0
 15 17  1  0  0  0  0
 16 15  1  0  0  0  0
 18 15  1  0  0  0  0
M  END
>  <minimizedAffinity>
-4.16751623

$$$$

 OpenBabel03262520223D

 18 18  0  0  0  0  0  0  0  0999 V2000
   39.7780   27.1140   32.1210 C   0  0  0  0  0  0  0  0  0  0  0  0
   38.7610   27.0840   33.0830 C   0  0  0  0  0  0  0  0  0  0  0  0
   39.1050   27.1160   34.4140 C   0  0  0  0  0  0  0  0  0  0  0  0
   40.4350   27.1730   34.7050 N   0  0  0  0  0  0  0  0  0  0  0  0
   41.3980   27.1990   33.7820 C   0  0  0  0  0  0  0  0  0  0  0  0
   41.0380   27.1700   32.4970 N   0  0  0  0  0  0  0  0  0  0  0  0
   42.7250   27.1970   34.2450 N   0  0  0  0  0  0  0  0  0  0  0  0
   39.6340   27.0950   31.0400 H   0  0  0  0  0  0  0  0  0  0  0  0
   43.4330   27.9330   34.3670 H   0  0  0  0  0  0  0  0  0  0  0  0
   42.9030   26.1930   34.4770 H   0  0  0  0  0  0  0  0  0  0  0  0
   38.0400   27.1000   35.4250 C   0  0  0  0  0  0  0  0  0  0  0  0
   38.5710   27.1140   36.6320 F   0  0  0  0  0  0  0  0  0  0  0  0
   37.1350   28.1240   35.2590 F   0  0  0  0  0  0  0  0  0  0  0  0
   37.2950   25.8940   35.3400 F   0  0  0  0  0  0  0  0  0  0  0  0
   37.4050   27.0450   32.4840 C   0  0  0  0  0  0  0  0  0  0  0  0
   36.5950   26.0420   33.0090 F   0  0  0  0  0  0  0  0  0  0  0  0
   37.3670   27.1380   31.1130 F   0  0  0  0  0  0  0  0  0  0  0  0
   36.6420   28.1770   32.8440 F   0  0  0  0  0  0  0  0  0  0  0  0
  1  6  2  0  0  0  0
  1  2  1  0  0  0  0
  2  3  2  0  0  0  0
  3  4  1  0  0  0  0
  3 11  1  0  0  0  0
  5  7  1  0  0  0  0
  5  4  2  0  0  0  0
  6  5  1  0  0  0  0
  7  9  1  0  0  0  0
  7 10  1  0  0  0  0
  8  1  1  0  0  0  0
 11 12  1  0  0  0  0
 13 11  1  0  0  0  0
 14 11  1  0  0  0  0
 15 18  1  0  0  0  0
 15 16  1  0  0  0  0
 15  2  1  0  0  0  0
 17 15  1  0  0  0  0
M  END
>  <minimizedAffinity>
-4.15095091

$$$$
