
 OpenBabel03272506203D

 39 41  0  0  1  0  0  0  0  0999 V2000
   35.3930   30.4220   48.3270 C   0  0  2  0  0  0  0  0  0  0  0  0
   36.5500   31.0620   47.6020 C   0  0  0  0  0  0  0  0  0  0  0  0
   37.8510   30.4000   47.8790 C   0  0  0  0  0  0  0  0  0  0  0  0
   38.1660   30.2740   49.3290 C   0  0  0  0  0  0  0  0  0  0  0  0
   37.0260   29.8280   50.1500 C   0  0  0  0  0  0  0  0  0  0  0  0
   35.7690   29.4540   49.3640 C   0  0  1  0  0  0  0  0  0  0  0  0
   34.7240   31.2130   48.7790 H   0  0  0  0  0  0  0  0  0  0  0  0
   36.6350   32.1120   48.0080 H   0  0  0  0  0  0  0  0  0  0  0  0
   36.4160   31.1860   46.5260 H   0  0  0  0  0  0  0  0  0  0  0  0
   37.7870   29.3750   47.4060 H   0  0  0  0  0  0  0  0  0  0  0  0
   38.6370   30.9840   47.3640 H   0  0  0  0  0  0  0  0  0  0  0  0
   39.0570   29.5870   49.4150 H   0  0  0  0  0  0  0  0  0  0  0  0
   38.5500   31.2730   49.6820 H   0  0  0  0  0  0  0  0  0  0  0  0
   36.7390   30.5840   50.9330 H   0  0  0  0  0  0  0  0  0  0  0  0
   37.3050   28.8960   50.7050 H   0  0  0  0  0  0  0  0  0  0  0  0
   35.9380   28.4560   48.9300 H   0  0  0  0  0  0  0  0  0  0  0  0
   34.5060   29.7170   47.3320 C   0  0  0  0  0  0  0  0  0  0  0  0
   33.3930   30.4400   46.9050 C   0  0  0  0  0  0  0  0  0  0  0  0
   32.5310   29.8240   45.9910 C   0  0  0  0  0  0  0  0  0  0  0  0
   32.8330   28.5390   45.5670 N   0  0  0  0  0  0  0  0  0  0  0  0
   33.9360   27.8740   46.0160 C   0  0  0  0  0  0  0  0  0  0  0  0
   34.7440   28.4640   46.8780 N   0  0  0  0  0  0  0  0  0  0  0  0
   31.3840   30.4770   45.4920 N   0  0  0  0  0  0  0  0  0  0  0  0
   31.4650   31.6590   44.8080 C   0  0  0  0  0  0  0  0  0  0  0  0
   30.3290   32.2740   44.3330 C   0  0  0  0  0  0  0  0  0  0  0  0
   29.1210   31.6710   44.5620 C   0  0  0  0  0  0  0  0  0  0  0  0
   28.0800   32.2380   44.1230 O   0  0  0  0  0  0  0  0  0  0  0  0
   29.0410   30.5060   45.2350 N   0  0  0  0  0  0  0  0  0  0  0  0
   30.1820   29.9440   45.6800 C   0  0  0  0  0  0  0  0  0  0  0  0
   29.9950   28.8510   46.3000 O   0  0  0  0  0  0  0  0  0  0  0  0
   33.0900   31.4340   47.1900 H   0  0  0  0  0  0  0  0  0  0  0  0
   34.1090   26.8670   45.6400 H   0  0  0  0  0  0  0  0  0  0  0  0
   32.4720   32.0680   44.6730 H   0  0  0  0  0  0  0  0  0  0  0  0
   30.4670   33.2080   43.8000 H   0  0  0  0  0  0  0  0  0  0  0  0
   28.0900   30.1020   45.3740 H   0  0  0  0  0  0  0  0  0  0  0  0
   34.6740   29.3110   50.4150 C   0  0  0  0  0  0  0  0  0  0  0  0
   33.9010   30.4610   50.4020 F   0  0  0  0  0  0  0  0  0  0  0  0
   33.7910   28.2890   50.0460 F   0  0  0  0  0  0  0  0  0  0  0  0
   35.1400   29.1190   51.6790 F   0  0  0  0  0  0  0  0  0  0  0  0
  1  7  1  1  0  0  0
  1  6  1  0  0  0  0
  2  3  1  0  0  0  0
  2  8  1  0  0  0  0
  2  1  1  0  0  0  0
  3  4  1  0  0  0  0
  4 12  1  0  0  0  0
  4 13  1  0  0  0  0
  4  5  1  0  0  0  0
  5 15  1  0  0  0  0
  5 14  1  0  0  0  0
  6 16  1  6  0  0  0
  6  5  1  0  0  0  0
  6 36  1  0  0  0  0
  9  2  1  0  0  0  0
 10  3  1  0  0  0  0
 11  3  1  0  0  0  0
 17  1  1  0  0  0  0
 18 31  1  0  0  0  0
 18 17  1  0  0  0  0
 19 18  2  0  0  0  0
 20 19  1  0  0  0  0
 20 21  2  0  0  0  0
 21 22  1  0  0  0  0
 22 17  2  0  0  0  0
 23 29  1  0  0  0  0
 23 19  1  0  0  0  0
 24 23  1  0  0  0  0
 25 26  1  0  0  0  0
 25 24  2  0  0  0  0
 26 28  1  0  0  0  0
 27 26  2  0  0  0  0
 28 35  1  0  0  0  0
 28 29  1  0  0  0  0
 29 30  2  0  0  0  0
 32 21  1  0  0  0  0
 33 24  1  0  0  0  0
 34 25  1  0  0  0  0
 36 39  1  0  0  0  0
 37 36  1  0  0  0  0
 38 36  1  0  0  0  0
M  END
>  <minimizedAffinity>
-5.74625778

>  <minimizedRMSD>
1.93129528

$$$$
