
 OpenBabel03272508073D

 20 20  0  0  0  0  0  0  0  0999 V2000
   38.3530   31.5710   47.9140 O   0  0  0  0  0  0  0  0  0  0  0  0
   37.4860   30.2720   51.2740 C   0  0  0  0  0  0  0  0  0  0  0  0
   38.1190   31.1120   50.3540 C   0  0  0  0  0  0  0  0  0  0  0  0
   37.8670   30.9000   48.9990 C   0  0  0  0  0  0  0  0  0  0  0  0
   37.0190   29.8850   48.6520 N   0  0  0  0  0  0  0  0  0  0  0  0
   36.4320   29.1000   49.5770 C   0  0  0  0  0  0  0  0  0  0  0  0
   36.6710   29.3010   50.8710 N   0  0  0  0  0  0  0  0  0  0  0  0
   37.7370   30.5080   52.2840 H   0  0  0  0  0  0  0  0  0  0  0  0
   38.7850   31.9160   50.5400 H   0  0  0  0  0  0  0  0  0  0  0  0
   35.7590   28.2950   49.2910 H   0  0  0  0  0  0  0  0  0  0  0  0
   38.0620   32.6600   45.4850 O   0  0  0  0  0  0  0  0  0  0  0  0
   37.9160   31.4040   46.2950 P   0  0  2  0  0  0  0  0  0  0  0  0
   36.3390   30.8170   46.1520 O   0  0  0  0  0  0  0  0  0  0  0  0
   36.3090   29.8310   46.0760 H   0  0  0  0  0  0  0  0  0  0  0  0
   38.9190   30.2390   45.5760 O   0  0  0  0  0  0  0  0  0  0  0  0
   40.1400   30.5260   44.9720 C   0  0  0  0  0  0  0  0  0  0  0  0
   40.9640   31.1680   45.6770 O   0  0  0  0  0  0  0  0  0  0  0  0
   40.3250   30.0720   43.6350 N   0  0  0  0  0  0  0  0  0  0  0  0
   40.9080   29.2040   43.8260 H   0  0  0  0  0  0  0  0  0  0  0  0
   40.7020   29.4080   42.9540 H   0  0  0  0  0  0  0  0  0  0  0  0
  1  4  1  0  0  0  0
  2  8  1  0  0  0  0
  3  9  1  0  0  0  0
  3  2  2  0  0  0  0
  4  3  1  0  0  0  0
  5  4  2  0  0  0  0
  5  6  1  0  0  0  0
  6  7  2  0  0  0  0
  7  2  1  0  0  0  0
 10  6  1  0  0  0  0
 12 11  2  6  0  0  0
 12  1  1  0  0  0  0
 13 12  1  0  0  0  0
 14 13  1  0  0  0  0
 15 12  1  0  0  0  0
 16 15  1  0  0  0  0
 16 17  2  0  0  0  0
 18 19  1  0  0  0  0
 18 16  1  0  0  0  0
 20 18  1  0  0  0  0
M  END
>  <minimizedAffinity>
-4.3660593

>  <minimizedRMSD>
1.85975468

$$$$
