
 OpenBabel03262521013D

 33 34  0  0  1  0  0  0  0  0999 V2000
   40.1460   32.8330   44.3550 N   0  0  0  0  0  0  0  0  0  0  0  0
   39.0790   32.6780   45.2960 C   0  0  1  0  0  0  0  0  0  0  0  0
   37.7980   32.3670   44.5740 C   0  0  0  0  0  0  0  0  0  0  0  0
   38.0110   31.1330   43.8220 N   0  0  0  0  0  0  0  0  0  0  0  0
   38.9490   31.5170   42.7490 C   0  0  0  0  0  0  0  0  0  0  0  0
   40.2890   31.7490   43.4420 C   0  0  2  0  0  0  0  0  0  0  0  0
   41.0140   33.2370   44.7110 H   0  0  0  0  0  0  0  0  0  0  0  0
   38.9680   33.5920   45.8880 H   0  0  0  0  0  0  0  0  0  0  0  0
   37.4690   33.1730   43.8990 H   0  0  0  0  0  0  0  0  0  0  0  0
   37.0270   32.1740   45.3640 H   0  0  0  0  0  0  0  0  0  0  0  0
   38.4340   30.4180   44.4380 H   0  0  0  0  0  0  0  0  0  0  0  0
   38.5760   32.4640   42.3200 H   0  0  0  0  0  0  0  0  0  0  0  0
   39.0490   30.7340   41.9960 H   0  0  0  0  0  0  0  0  0  0  0  0
   41.0000   32.0690   42.6490 H   0  0  0  0  0  0  0  0  0  0  0  0
   40.7070   30.5090   44.0600 N   0  0  0  0  0  0  0  0  0  0  0  0
   41.5030   30.7370   44.7230 H   0  0  0  0  0  0  0  0  0  0  0  0
   41.1660   29.9390   43.2910 H   0  0  0  0  0  0  0  0  0  0  0  0
   39.3730   31.2710   46.4420 S   0  0  0  0  0  0  0  0  0  0  0  0
   37.4170   31.7970   49.9460 C   0  0  0  0  0  0  0  0  0  0  0  0
   38.4230   31.8220   49.0010 C   0  0  0  0  0  0  0  0  0  0  0  0
   38.1810   31.3090   47.7590 C   0  0  0  0  0  0  0  0  0  0  0  0
   36.9290   30.7780   47.4920 N   0  0  0  0  0  0  0  0  0  0  0  0
   36.0010   30.7850   48.4510 C   0  0  0  0  0  0  0  0  0  0  0  0
   36.2120   31.2810   49.6720 N   0  0  0  0  0  0  0  0  0  0  0  0
   37.5790   32.1980   50.9440 H   0  0  0  0  0  0  0  0  0  0  0  0
   39.3930   32.2370   49.2180 H   0  0  0  0  0  0  0  0  0  0  0  0
   34.6820   30.2200   48.1520 C   0  0  0  0  0  0  0  0  0  0  0  0
   34.1610   30.2380   47.0090 O   0  0  0  0  0  0  0  0  0  0  0  0
   32.9610   27.8010   50.0040 H   0  0  0  0  0  0  0  0  0  0  0  0
   33.5310   28.2560   49.1900 C   0  0  0  0  0  0  0  0  0  0  0  0
   33.8280   27.5320   48.2050 O   0  0  0  0  0  0  0  0  0  0  0  0
   33.9350   29.6100   49.2130 N   0  0  0  0  0  0  0  0  0  0  0  0
   33.6880   30.2200   50.0360 H   0  0  0  0  0  0  0  0  0  0  0  0
  1  7  1  0  0  0  0
  1  2  1  0  0  0  0
  2  8  1  1  0  0  0
  2 18  1  0  0  0  0
  3  2  1  0  0  0  0
  3 10  1  0  0  0  0
  4 11  1  0  0  0  0
  4  3  1  0  0  0  0
  5  6  1  0  0  0  0
  5  4  1  0  0  0  0
  6 14  1  6  0  0  0
  6 15  1  0  0  0  0
  6  1  1  0  0  0  0
  9  3  1  0  0  0  0
 12  5  1  0  0  0  0
 13  5  1  0  0  0  0
 15 16  1  0  0  0  0
 17 15  1  0  0  0  0
 18 21  1  0  0  0  0
 19 25  1  0  0  0  0
 20 26  1  0  0  0  0
 20 19  2  0  0  0  0
 21 20  1  0  0  0  0
 22 21  2  0  0  0  0
 22 23  1  0  0  0  0
 23 24  2  0  0  0  0
 24 19  1  0  0  0  0
 27 23  1  0  0  0  0
 27 32  1  0  0  0  0
 28 27  2  0  0  0  0
 30 32  1  0  0  0  0
 30 29  1  0  0  0  0
 31 30  2  0  0  0  0
 32 33  1  0  0  0  0
M  END
>  <minimizedAffinity>
-5.63758183

>  <minimizedRMSD>
2.06703782

$$$$
