
 OpenBabel03262521013D

 33 34  0  0  1  0  0  0  0  0999 V2000
   39.6650   33.0850   46.1700 N   0  0  0  0  0  0  0  0  0  0  0  0
   38.4080   32.4020   46.1240 C   0  0  1  0  0  0  0  0  0  0  0  0
   37.8560   32.4360   44.7270 C   0  0  0  0  0  0  0  0  0  0  0  0
   38.8330   31.7850   43.8570 N   0  0  0  0  0  0  0  0  0  0  0  0
   39.9700   32.7250   43.8200 C   0  0  0  0  0  0  0  0  0  0  0  0
   40.6130   32.6420   45.2030 C   0  0  2  0  0  0  0  0  0  0  0  0
   40.0370   33.2960   47.0970 H   0  0  0  0  0  0  0  0  0  0  0  0
   37.7050   32.8680   46.8210 H   0  0  0  0  0  0  0  0  0  0  0  0
   37.6410   33.4540   44.3650 H   0  0  0  0  0  0  0  0  0  0  0  0
   36.9220   31.8170   44.7390 H   0  0  0  0  0  0  0  0  0  0  0  0
   39.1190   30.8810   44.2680 H   0  0  0  0  0  0  0  0  0  0  0  0
   39.5510   33.7330   43.6580 H   0  0  0  0  0  0  0  0  0  0  0  0
   40.6990   32.4530   43.0540 H   0  0  0  0  0  0  0  0  0  0  0  0
   41.4550   33.3690   45.2010 H   0  0  0  0  0  0  0  0  0  0  0  0
   41.0800   31.2880   45.4120 N   0  0  0  0  0  0  0  0  0  0  0  0
   41.3050   31.1860   46.4430 H   0  0  0  0  0  0  0  0  0  0  0  0
   42.0260   31.2280   44.9330 H   0  0  0  0  0  0  0  0  0  0  0  0
   38.5760   30.6250   46.5640 S   0  0  0  0  0  0  0  0  0  0  0  0
   37.7580   30.5340   50.5270 C   0  0  0  0  0  0  0  0  0  0  0  0
   38.3900   30.8280   49.3340 C   0  0  0  0  0  0  0  0  0  0  0  0
   37.8750   30.3340   48.1700 C   0  0  0  0  0  0  0  0  0  0  0  0
   36.7310   29.5530   48.2280 N   0  0  0  0  0  0  0  0  0  0  0  0
   36.1700   29.3080   49.4130 C   0  0  0  0  0  0  0  0  0  0  0  0
   36.6530   29.7780   50.5650 N   0  0  0  0  0  0  0  0  0  0  0  0
   38.1440   30.9130   51.4700 H   0  0  0  0  0  0  0  0  0  0  0  0
   39.2780   31.4350   49.3000 H   0  0  0  0  0  0  0  0  0  0  0  0
   34.9610   28.4810   49.4560 C   0  0  0  0  0  0  0  0  0  0  0  0
   34.8890   27.3280   48.9620 O   0  0  0  0  0  0  0  0  0  0  0  0
   32.5890   30.7700   50.6300 H   0  0  0  0  0  0  0  0  0  0  0  0
   33.4860   30.3830   50.1400 C   0  0  0  0  0  0  0  0  0  0  0  0
   34.2650   31.2100   49.6030 O   0  0  0  0  0  0  0  0  0  0  0  0
   33.7880   29.0040   50.0950 N   0  0  0  0  0  0  0  0  0  0  0  0
   33.1380   28.3060   50.5440 H   0  0  0  0  0  0  0  0  0  0  0  0
  1  7  1  0  0  0  0
  2  1  1  0  0  0  0
  2 18  1  0  0  0  0
  2  8  1  1  0  0  0
  3 10  1  0  0  0  0
  3  2  1  0  0  0  0
  4 11  1  0  0  0  0
  4  3  1  0  0  0  0
  5  4  1  0  0  0  0
  5  6  1  0  0  0  0
  6 14  1  1  0  0  0
  6 15  1  0  0  0  0
  6  1  1  0  0  0  0
  9  3  1  0  0  0  0
 12  5  1  0  0  0  0
 13  5  1  0  0  0  0
 15 16  1  0  0  0  0
 17 15  1  0  0  0  0
 18 21  1  0  0  0  0
 19 24  1  0  0  0  0
 19 25  1  0  0  0  0
 20 19  2  0  0  0  0
 21 22  2  0  0  0  0
 21 20  1  0  0  0  0
 22 23  1  0  0  0  0
 23 27  1  0  0  0  0
 23 24  2  0  0  0  0
 26 20  1  0  0  0  0
 27 32  1  0  0  0  0
 28 27  2  0  0  0  0
 30 29  1  0  0  0  0
 31 30  2  0  0  0  0
 32 30  1  0  0  0  0
 32 33  1  0  0  0  0
M  END
>  <minimizedAffinity>
-4.06888676

>  <minimizedRMSD>
0.796280563

$$$$
