
 OpenBabel03272510233D

 28 30  0  0  0  0  0  0  0  0999 V2000
   36.1150   30.2770   46.7620 C   0  0  0  0  0  0  0  0  0  0  0  0
   37.1930   30.4080   47.6140 C   0  0  0  0  0  0  0  0  0  0  0  0
   38.4230   30.7640   47.1120 C   0  0  0  0  0  0  0  0  0  0  0  0
   38.5220   30.9790   45.7410 C   0  0  0  0  0  0  0  0  0  0  0  0
   39.6420   31.3390   45.0230 N   0  0  0  0  0  0  0  0  0  0  0  0
   39.2480   31.4250   43.7560 C   0  0  0  0  0  0  0  0  0  0  0  0
   37.9520   31.1430   43.6260 N   0  0  0  0  0  0  0  0  0  0  0  0
   37.4730   30.8580   44.8610 C   0  0  0  0  0  0  0  0  0  0  0  0
   36.2420   30.4990   45.3910 C   0  0  0  0  0  0  0  0  0  0  0  0
   35.1320   30.0050   47.0710 H   0  0  0  0  0  0  0  0  0  0  0  0
   39.2640   30.8680   47.7650 H   0  0  0  0  0  0  0  0  0  0  0  0
   40.5980   31.5000   45.4570 H   0  0  0  0  0  0  0  0  0  0  0  0
   35.4220   30.4050   44.7020 H   0  0  0  0  0  0  0  0  0  0  0  0
   37.5460   30.2190   51.3500 C   0  0  0  0  0  0  0  0  0  0  0  0
   37.8730   30.5140   50.0290 C   0  0  0  0  0  0  0  0  0  0  0  0
   36.9740   30.1590   49.0270 C   0  0  0  0  0  0  0  0  0  0  0  0
   35.8090   29.5360   49.3870 N   0  0  0  0  0  0  0  0  0  0  0  0
   35.5190   29.2630   50.6850 C   0  0  0  0  0  0  0  0  0  0  0  0
   36.3730   29.5990   51.6420 N   0  0  0  0  0  0  0  0  0  0  0  0
   38.2430   30.4950   52.1180 H   0  0  0  0  0  0  0  0  0  0  0  0
   38.7880   31.0030   49.7460 H   0  0  0  0  0  0  0  0  0  0  0  0
   34.5890   28.7710   50.9080 H   0  0  0  0  0  0  0  0  0  0  0  0
   40.1710   31.7780   42.7740 O   0  0  0  0  0  0  0  0  0  0  0  0
   40.1480   31.3700   41.4710 C   0  0  0  0  0  0  0  0  0  0  0  0
   40.7850   30.6510   40.6390 O   0  0  0  0  0  0  0  0  0  0  0  0
   39.0130   31.9500   40.7980 N   0  0  0  0  0  0  0  0  0  0  0  0
   38.3950   32.5210   40.2130 H   0  0  0  0  0  0  0  0  0  0  0  0
   38.1190   31.4780   41.0690 H   0  0  0  0  0  0  0  0  0  0  0  0
  1 10  1  0  0  0  0
  1  2  1  0  0  0  0
  2 16  1  0  0  0  0
  3  2  2  0  0  0  0
  3 11  1  0  0  0  0
  4  3  1  0  0  0  0
  5 12  1  0  0  0  0
  5  4  1  0  0  0  0
  6  5  1  0  0  0  0
  7  6  2  0  0  0  0
  7  8  1  0  0  0  0
  8  9  1  0  0  0  0
  8  4  2  0  0  0  0
  9  1  2  0  0  0  0
 13  9  1  0  0  0  0
 14 19  1  0  0  0  0
 14 20  1  0  0  0  0
 15 14  2  0  0  0  0
 16 17  2  0  0  0  0
 16 15  1  0  0  0  0
 17 18  1  0  0  0  0
 18 22  1  0  0  0  0
 18 19  2  0  0  0  0
 21 15  1  0  0  0  0
 23  6  1  0  0  0  0
 24 23  1  0  0  0  0
 25 24  2  0  0  0  0
 26 28  1  0  0  0  0
 26 24  1  0  0  0  0
 27 26  1  0  0  0  0
M  END
>  <minimizedAffinity>
-5.03023529

>  <minimizedRMSD>
2.6841464

$$$$
