
 OpenBabel03272510233D

 28 30  0  0  0  0  0  0  0  0999 V2000
   36.4590   30.3780   46.9740 C   0  0  0  0  0  0  0  0  0  0  0  0
   37.1910   30.7990   48.0650 C   0  0  0  0  0  0  0  0  0  0  0  0
   38.2470   31.6630   47.8900 C   0  0  0  0  0  0  0  0  0  0  0  0
   38.5310   32.0790   46.5930 C   0  0  0  0  0  0  0  0  0  0  0  0
   39.5310   32.9320   46.1820 N   0  0  0  0  0  0  0  0  0  0  0  0
   39.4080   33.0270   44.8610 C   0  0  0  0  0  0  0  0  0  0  0  0
   38.3940   32.2880   44.4110 N   0  0  0  0  0  0  0  0  0  0  0  0
   37.8270   31.6810   45.4820 C   0  0  0  0  0  0  0  0  0  0  0  0
   36.7660   30.8100   45.6840 C   0  0  0  0  0  0  0  0  0  0  0  0
   35.6300   29.7110   47.0240 H   0  0  0  0  0  0  0  0  0  0  0  0
   38.8200   31.9950   48.7300 H   0  0  0  0  0  0  0  0  0  0  0  0
   40.2290   33.3900   46.8400 H   0  0  0  0  0  0  0  0  0  0  0  0
   36.2150   30.5000   44.8140 H   0  0  0  0  0  0  0  0  0  0  0  0
   37.1270   29.8580   51.7020 C   0  0  0  0  0  0  0  0  0  0  0  0
   37.6140   30.3730   50.5030 C   0  0  0  0  0  0  0  0  0  0  0  0
   36.8050   30.3010   49.3730 C   0  0  0  0  0  0  0  0  0  0  0  0
   35.5680   29.7270   49.4920 N   0  0  0  0  0  0  0  0  0  0  0  0
   35.1220   29.2340   50.6760 C   0  0  0  0  0  0  0  0  0  0  0  0
   35.8890   29.3000   51.7540 N   0  0  0  0  0  0  0  0  0  0  0  0
   37.7550   29.9160   52.5700 H   0  0  0  0  0  0  0  0  0  0  0  0
   38.5860   30.8240   50.4100 H   0  0  0  0  0  0  0  0  0  0  0  0
   34.1410   28.7940   50.7080 H   0  0  0  0  0  0  0  0  0  0  0  0
   40.2890   33.8330   44.1460 O   0  0  0  0  0  0  0  0  0  0  0  0
   39.9830   34.5660   43.0360 C   0  0  0  0  0  0  0  0  0  0  0  0
   40.1200   35.7270   42.5370 O   0  0  0  0  0  0  0  0  0  0  0  0
   39.2480   33.7520   42.1000 N   0  0  0  0  0  0  0  0  0  0  0  0
   38.5190   33.3200   41.5260 H   0  0  0  0  0  0  0  0  0  0  0  0
   39.8710   33.0750   41.6050 H   0  0  0  0  0  0  0  0  0  0  0  0
  1 10  1  0  0  0  0
  1  2  1  0  0  0  0
  2 16  1  0  0  0  0
  3  2  2  0  0  0  0
  3 11  1  0  0  0  0
  4  3  1  0  0  0  0
  5  4  1  0  0  0  0
  5 12  1  0  0  0  0
  6  5  1  0  0  0  0
  7  6  2  0  0  0  0
  7  8  1  0  0  0  0
  8  9  1  0  0  0  0
  8  4  2  0  0  0  0
  9  1  2  0  0  0  0
 13  9  1  0  0  0  0
 14 19  1  0  0  0  0
 14 20  1  0  0  0  0
 15 14  2  0  0  0  0
 16 17  2  0  0  0  0
 16 15  1  0  0  0  0
 17 18  1  0  0  0  0
 18 22  1  0  0  0  0
 18 19  2  0  0  0  0
 21 15  1  0  0  0  0
 23  6  1  0  0  0  0
 24 23  1  0  0  0  0
 25 24  2  0  0  0  0
 26 24  1  0  0  0  0
 27 26  1  0  0  0  0
 28 26  1  0  0  0  0
M  END
>  <minimizedAffinity>
-4.12358284

>  <minimizedRMSD>
0.849628568

$$$$
