
 OpenBabel03272504563D

 29 30  0  0  1  0  0  0  0  0999 V2000
   36.4500   29.2540   49.9180 C   0  0  1  0  0  0  0  0  0  0  0  0
   35.5050   29.3540   51.0020 C   0  0  0  0  0  0  0  0  0  0  0  0
   35.0230   29.1310   49.6040 C   0  0  2  0  0  0  0  0  0  0  0  0
   37.0530   28.3020   49.7140 H   0  0  0  0  0  0  0  0  0  0  0  0
   35.3300   30.3670   51.4220 H   0  0  0  0  0  0  0  0  0  0  0  0
   35.8030   28.6580   51.7640 H   0  0  0  0  0  0  0  0  0  0  0  0
   34.2710   29.8630   49.3580 H   0  0  0  0  0  0  0  0  0  0  0  0
   37.1560   30.4700   49.3920 C   0  0  0  0  0  0  0  0  0  0  0  0
   36.8740   31.6880   50.0610 C   0  0  0  0  0  0  0  0  0  0  0  0
   37.5310   32.7860   49.5620 C   0  0  0  0  0  0  0  0  0  0  0  0
   38.3810   32.6470   48.4920 N   0  0  0  0  0  0  0  0  0  0  0  0
   38.6160   31.4620   47.8880 C   0  0  0  0  0  0  0  0  0  0  0  0
   37.9790   30.3520   48.3620 N   0  0  0  0  0  0  0  0  0  0  0  0
   39.4800   31.3380   46.7930 N   0  0  0  0  0  0  0  0  0  0  0  0
   36.2110   31.7940   50.8950 H   0  0  0  0  0  0  0  0  0  0  0  0
   37.3810   33.7690   50.0070 H   0  0  0  0  0  0  0  0  0  0  0  0
   39.9400   30.4260   46.6080 H   0  0  0  0  0  0  0  0  0  0  0  0
   39.6300   32.1820   46.1980 H   0  0  0  0  0  0  0  0  0  0  0  0
   34.6030   27.8180   49.3240 O   0  0  0  0  0  0  0  0  0  0  0  0
   33.0930   26.4640   47.7340 O   0  0  0  0  0  0  0  0  0  0  0  0
   33.2860   27.8290   48.3060 P   0  0  1  0  0  0  0  0  0  0  0  0
   31.8550   28.1450   49.2300 O   0  0  0  0  0  0  0  0  0  0  0  0
   31.6510   27.3360   49.7500 H   0  0  0  0  0  0  0  0  0  0  0  0
   33.5030   29.0310   47.1500 O   0  0  0  0  0  0  0  0  0  0  0  0
   32.5030   29.7710   46.5640 C   0  0  0  0  0  0  0  0  0  0  0  0
   31.4270   29.2280   46.2030 O   0  0  0  0  0  0  0  0  0  0  0  0
   32.8800   31.1600   46.4480 N   0  0  0  0  0  0  0  0  0  0  0  0
   32.8420   31.9060   47.2000 H   0  0  0  0  0  0  0  0  0  0  0  0
   33.1920   31.2100   45.4320 H   0  0  0  0  0  0  0  0  0  0  0  0
  1  4  1  6  0  0  0
  1  2  1  0  0  0  0
  2  5  1  0  0  0  0
  2  6  1  0  0  0  0
  3  7  1  6  0  0  0
  3  1  1  0  0  0  0
  3  2  1  0  0  0  0
  8  1  1  0  0  0  0
  8  9  1  0  0  0  0
  9 15  1  0  0  0  0
 10 16  1  0  0  0  0
 10  9  2  0  0  0  0
 11 10  1  0  0  0  0
 12 13  1  0  0  0  0
 12 11  2  0  0  0  0
 13  8  2  0  0  0  0
 14 12  1  0  0  0  0
 17 14  1  0  0  0  0
 18 14  1  0  0  0  0
 19  3  1  0  0  0  0
 21 20  2  6  0  0  0
 21 22  1  0  0  0  0
 21 19  1  0  0  0  0
 22 23  1  0  0  0  0
 24 21  1  0  0  0  0
 25 24  1  0  0  0  0
 26 25  2  0  0  0  0
 27 25  1  0  0  0  0
 27 28  1  0  0  0  0
 29 27  1  0  0  0  0
M  END
>  <minimizedAffinity>
-5.44387245

>  <minimizedRMSD>
2.84558582

$$$$
