
 OpenBabel03262522193D

 20 20  0  0  0  0  0  0  0  0999 V2000
   37.6540   25.4220   35.4350 O   0  0  0  0  0  0  0  0  0  0  0  0
   38.0350   24.3220   37.5390 C   0  0  0  0  0  0  0  0  0  0  0  0
   38.3750   24.5410   36.1820 C   0  0  0  0  0  0  0  0  0  0  0  0
   39.4610   23.8170   35.6880 C   0  0  0  0  0  0  0  0  0  0  0  0
   40.1250   22.9560   36.5140 N   0  0  0  0  0  0  0  0  0  0  0  0
   39.7580   22.7890   37.7930 C   0  0  0  0  0  0  0  0  0  0  0  0
   38.7080   23.4690   38.3230 N   0  0  0  0  0  0  0  0  0  0  0  0
   37.2030   24.8450   38.0050 H   0  0  0  0  0  0  0  0  0  0  0  0
   39.7280   23.9820   34.6420 H   0  0  0  0  0  0  0  0  0  0  0  0
   40.4160   22.0640   38.2650 H   0  0  0  0  0  0  0  0  0  0  0  0
   36.7600   27.7470   34.7120 O   0  0  0  0  0  0  0  0  0  0  0  0
   38.0620   26.9940   35.0080 P   0  0  1  0  0  0  0  0  0  0  0  0
   38.7750   27.7180   36.3690 O   0  0  0  0  0  0  0  0  0  0  0  0
   38.0480   28.0360   36.9710 H   0  0  0  0  0  0  0  0  0  0  0  0
   39.0190   27.1110   33.6410 O   0  0  0  0  0  0  0  0  0  0  0  0
   40.4070   27.1440   33.6660 C   0  0  0  0  0  0  0  0  0  0  0  0
   41.1020   27.5020   32.6870 O   0  0  0  0  0  0  0  0  0  0  0  0
   41.0810   26.7520   34.8620 N   0  0  0  0  0  0  0  0  0  0  0  0
   40.7000   26.0840   35.5620 H   0  0  0  0  0  0  0  0  0  0  0  0
   41.9910   27.0250   35.2370 H   0  0  0  0  0  0  0  0  0  0  0  0
  1  3  1  0  0  0  0
  2  8  1  0  0  0  0
  2  7  1  0  0  0  0
  3  2  2  0  0  0  0
  4  3  1  0  0  0  0
  4  5  2  0  0  0  0
  5  6  1  0  0  0  0
  6 10  1  0  0  0  0
  6  7  2  0  0  0  0
  9  4  1  0  0  0  0
 12 11  2  6  0  0  0
 12  1  1  0  0  0  0
 12 13  1  0  0  0  0
 13 14  1  0  0  0  0
 15 16  1  0  0  0  0
 15 12  1  0  0  0  0
 16 18  1  0  0  0  0
 17 16  2  0  0  0  0
 18 20  1  0  0  0  0
 18 19  1  0  0  0  0
M  END
>  <minimizedAffinity>
-4.09654236

$$$$

 OpenBabel03262522193D

 20 20  0  0  0  0  0  0  0  0999 V2000
   38.6620   23.1880   34.2650 O   0  0  0  0  0  0  0  0  0  0  0  0
   37.1110   22.7730   32.4740 C   0  0  0  0  0  0  0  0  0  0  0  0
   37.7800   23.6670   33.3450 C   0  0  0  0  0  0  0  0  0  0  0  0
   37.4800   25.0220   33.1940 C   0  0  0  0  0  0  0  0  0  0  0  0
   36.5810   25.4090   32.2430 N   0  0  0  0  0  0  0  0  0  0  0  0
   35.9780   24.5160   31.4450 C   0  0  0  0  0  0  0  0  0  0  0  0
   36.2330   23.1860   31.5500 N   0  0  0  0  0  0  0  0  0  0  0  0
   37.2860   21.7000   32.5230 H   0  0  0  0  0  0  0  0  0  0  0  0
   37.9930   25.7170   33.8630 H   0  0  0  0  0  0  0  0  0  0  0  0
   35.3050   25.0350   30.7660 H   0  0  0  0  0  0  0  0  0  0  0  0
   37.1710   21.7300   35.8080 O   0  0  0  0  0  0  0  0  0  0  0  0
   38.3520   22.7080   35.8440 P   0  0  1  0  0  0  0  0  0  0  0  0
   39.7130   21.8470   36.3870 O   0  0  0  0  0  0  0  0  0  0  0  0
   39.6440   20.9110   36.0540 H   0  0  0  0  0  0  0  0  0  0  0  0
   37.9260   23.9550   36.8730 O   0  0  0  0  0  0  0  0  0  0  0  0
   38.0720   23.9060   38.2540 C   0  0  0  0  0  0  0  0  0  0  0  0
   37.9960   24.9190   38.9870 O   0  0  0  0  0  0  0  0  0  0  0  0
   38.3190   22.6440   38.8730 N   0  0  0  0  0  0  0  0  0  0  0  0
   38.7890   21.8410   38.4090 H   0  0  0  0  0  0  0  0  0  0  0  0
   38.1040   22.3060   39.8120 H   0  0  0  0  0  0  0  0  0  0  0  0
  1 12  1  0  0  0  0
  2  8  1  0  0  0  0
  2  3  1  0  0  0  0
  3  1  1  0  0  0  0
  4  3  2  0  0  0  0
  4  9  1  0  0  0  0
  5  4  1  0  0  0  0
  6  7  1  0  0  0  0
  6  5  2  0  0  0  0
  7  2  2  0  0  0  0
 10  6  1  0  0  0  0
 12 11  2  6  0  0  0
 12 13  1  0  0  0  0
 12 15  1  0  0  0  0
 14 13  1  0  0  0  0
 15 16  1  0  0  0  0
 16 18  1  0  0  0  0
 16 17  2  0  0  0  0
 18 20  1  0  0  0  0
 19 18  1  0  0  0  0
M  END
>  <minimizedAffinity>
-4.08204126

$$$$

 OpenBabel03262522193D

 20 20  0  0  0  0  0  0  0  0999 V2000
   38.8580   24.2410   34.7440 O   0  0  0  0  0  0  0  0  0  0  0  0
   38.4420   26.4300   35.6490 C   0  0  0  0  0  0  0  0  0  0  0  0
   38.2390   25.4510   34.6470 C   0  0  0  0  0  0  0  0  0  0  0  0
   37.3910   25.8030   33.5960 C   0  0  0  0  0  0  0  0  0  0  0  0
   36.8160   27.0400   33.5840 N   0  0  0  0  0  0  0  0  0  0  0  0
   37.0440   27.9290   34.5620 C   0  0  0  0  0  0  0  0  0  0  0  0
   37.8610   27.6370   35.6070 N   0  0  0  0  0  0  0  0  0  0  0  0
   39.0870   26.2400   36.5040 H   0  0  0  0  0  0  0  0  0  0  0  0
   37.2320   25.0510   32.8200 H   0  0  0  0  0  0  0  0  0  0  0  0
   36.4910   28.8420   34.3570 H   0  0  0  0  0  0  0  0  0  0  0  0
   37.4660   22.0520   34.7680 O   0  0  0  0  0  0  0  0  0  0  0  0
   38.3850   22.9070   35.6480 P   0  0  1  0  0  0  0  0  0  0  0  0
   39.7820   21.9930   35.9680 O   0  0  0  0  0  0  0  0  0  0  0  0
   39.9740   21.4260   35.1720 H   0  0  0  0  0  0  0  0  0  0  0  0
   37.5300   23.2810   37.0350 O   0  0  0  0  0  0  0  0  0  0  0  0
   38.1210   23.6760   38.2290 C   0  0  0  0  0  0  0  0  0  0  0  0
   37.8560   24.7580   38.7990 O   0  0  0  0  0  0  0  0  0  0  0  0
   39.0760   22.8090   38.8400 N   0  0  0  0  0  0  0  0  0  0  0  0
   39.6690   22.1280   38.3250 H   0  0  0  0  0  0  0  0  0  0  0  0
   39.3460   22.6940   39.8180 H   0  0  0  0  0  0  0  0  0  0  0  0
  1 12  1  0  0  0  0
  2  8  1  0  0  0  0
  3  1  1  0  0  0  0
  3  2  2  0  0  0  0
  4  3  1  0  0  0  0
  5  4  2  0  0  0  0
  5  6  1  0  0  0  0
  6  7  2  0  0  0  0
  7  2  1  0  0  0  0
  9  4  1  0  0  0  0
 10  6  1  0  0  0  0
 12 11  2  6  0  0  0
 12 13  1  0  0  0  0
 12 15  1  0  0  0  0
 14 13  1  0  0  0  0
 15 16  1  0  0  0  0
 16 17  2  0  0  0  0
 16 18  1  0  0  0  0
 18 20  1  0  0  0  0
 19 18  1  0  0  0  0
M  END
>  <minimizedAffinity>
-4.0095439

$$$$

 OpenBabel03262522193D

 20 20  0  0  0  0  0  0  0  0999 V2000
   38.1940   24.9670   36.6860 O   0  0  0  0  0  0  0  0  0  0  0  0
   38.0470   24.5360   34.3240 C   0  0  0  0  0  0  0  0  0  0  0  0
   37.8500   25.3880   35.4380 C   0  0  0  0  0  0  0  0  0  0  0  0
   37.2990   26.6430   35.1710 C   0  0  0  0  0  0  0  0  0  0  0  0
   36.9860   26.9780   33.8850 N   0  0  0  0  0  0  0  0  0  0  0  0
   37.1960   26.1290   32.8690 C   0  0  0  0  0  0  0  0  0  0  0  0
   37.7280   24.8970   33.0740 N   0  0  0  0  0  0  0  0  0  0  0  0
   38.4710   23.5410   34.4420 H   0  0  0  0  0  0  0  0  0  0  0  0
   37.1450   27.3050   36.0260 H   0  0  0  0  0  0  0  0  0  0  0  0
   36.8770   26.5940   31.9390 H   0  0  0  0  0  0  0  0  0  0  0  0
   38.8690   23.4600   38.6870 O   0  0  0  0  0  0  0  0  0  0  0  0
   38.5110   23.3990   37.1980 P   0  0  1  0  0  0  0  0  0  0  0  0
   37.0650   22.5180   37.0540 O   0  0  0  0  0  0  0  0  0  0  0  0
   36.5060   22.7010   37.8570 H   0  0  0  0  0  0  0  0  0  0  0  0
   39.7930   22.6640   36.4140 O   0  0  0  0  0  0  0  0  0  0  0  0
   41.0110   22.3790   37.0160 C   0  0  0  0  0  0  0  0  0  0  0  0
   42.0430   23.0650   36.8330 O   0  0  0  0  0  0  0  0  0  0  0  0
   41.0990   21.2520   37.8880 N   0  0  0  0  0  0  0  0  0  0  0  0
   40.4970   20.4060   37.8210 H   0  0  0  0  0  0  0  0  0  0  0  0
   41.7150   21.0650   38.6800 H   0  0  0  0  0  0  0  0  0  0  0  0
  1 12  1  0  0  0  0
  2  8  1  0  0  0  0
  2  3  1  0  0  0  0
  3  1  1  0  0  0  0
  4  3  2  0  0  0  0
  4  9  1  0  0  0  0
  5  4  1  0  0  0  0
  6  7  1  0  0  0  0
  6  5  2  0  0  0  0
  7  2  2  0  0  0  0
 10  6  1  0  0  0  0
 12 11  2  1  0  0  0
 13 12  1  0  0  0  0
 13 14  1  0  0  0  0
 15 16  1  0  0  0  0
 15 12  1  0  0  0  0
 16 18  1  0  0  0  0
 17 16  2  0  0  0  0
 18 20  1  0  0  0  0
 19 18  1  0  0  0  0
M  END
>  <minimizedAffinity>
-4.00251293

$$$$

 OpenBabel03262522193D

 20 20  0  0  0  0  0  0  0  0999 V2000
   37.0870   25.9870   34.9450 O   0  0  0  0  0  0  0  0  0  0  0  0
   37.1390   25.4740   32.5960 C   0  0  0  0  0  0  0  0  0  0  0  0
   37.0780   26.4150   33.6520 C   0  0  0  0  0  0  0  0  0  0  0  0
   37.0090   27.7600   33.2830 C   0  0  0  0  0  0  0  0  0  0  0  0
   37.0060   28.0930   31.9600 N   0  0  0  0  0  0  0  0  0  0  0  0
   37.0670   27.1570   31.0020 C   0  0  0  0  0  0  0  0  0  0  0  0
   37.1330   25.8350   31.3060 N   0  0  0  0  0  0  0  0  0  0  0  0
   37.1950   24.4050   32.7930 H   0  0  0  0  0  0  0  0  0  0  0  0
   36.9610   28.4900   34.0940 H   0  0  0  0  0  0  0  0  0  0  0  0
   37.0510   27.6380   30.0260 H   0  0  0  0  0  0  0  0  0  0  0  0
   39.5730   25.3290   35.2840 O   0  0  0  0  0  0  0  0  0  0  0  0
   38.3810   25.9570   36.0150 P   0  0  1  0  0  0  0  0  0  0  0  0
   38.7850   27.5700   36.3650 O   0  0  0  0  0  0  0  0  0  0  0  0
   39.3610   27.9150   35.6290 H   0  0  0  0  0  0  0  0  0  0  0  0
   38.1140   25.0470   37.3930 O   0  0  0  0  0  0  0  0  0  0  0  0
   38.1250   23.6580   37.4210 C   0  0  0  0  0  0  0  0  0  0  0  0
   37.5250   22.9520   36.5780 O   0  0  0  0  0  0  0  0  0  0  0  0
   38.8530   22.9980   38.4560 N   0  0  0  0  0  0  0  0  0  0  0  0
   39.0390   23.4020   39.3960 H   0  0  0  0  0  0  0  0  0  0  0  0
   39.2960   22.0780   38.4800 H   0  0  0  0  0  0  0  0  0  0  0  0
  1 12  1  0  0  0  0
  2  8  1  0  0  0  0
  2  3  1  0  0  0  0
  3  1  1  0  0  0  0
  4  3  2  0  0  0  0
  4  9  1  0  0  0  0
  5  4  1  0  0  0  0
  6  7  1  0  0  0  0
  6  5  2  0  0  0  0
  7  2  2  0  0  0  0
 10  6  1  0  0  0  0
 12 11  2  6  0  0  0
 12 13  1  0  0  0  0
 12 15  1  0  0  0  0
 14 13  1  0  0  0  0
 15 16  1  0  0  0  0
 16 18  1  0  0  0  0
 17 16  2  0  0  0  0
 18 20  1  0  0  0  0
 18 19  1  0  0  0  0
M  END
>  <minimizedAffinity>
-3.98461318

$$$$

 OpenBabel03262522193D

 20 20  0  0  0  0  0  0  0  0999 V2000
   38.3500   21.6380   34.1380 O   0  0  0  0  0  0  0  0  0  0  0  0
   37.4750   22.0900   31.9440 C   0  0  0  0  0  0  0  0  0  0  0  0
   37.3230   21.5570   33.2470 C   0  0  0  0  0  0  0  0  0  0  0  0
   36.0920   20.9660   33.5380 C   0  0  0  0  0  0  0  0  0  0  0  0
   35.1220   20.9320   32.5800 N   0  0  0  0  0  0  0  0  0  0  0  0
   35.3210   21.4540   31.3610 C   0  0  0  0  0  0  0  0  0  0  0  0
   36.5000   22.0390   31.0260 N   0  0  0  0  0  0  0  0  0  0  0  0
   38.4000   22.5680   31.6330 H   0  0  0  0  0  0  0  0  0  0  0  0
   35.9700   20.5530   34.5420 H   0  0  0  0  0  0  0  0  0  0  0  0
   34.4250   21.3190   30.7590 H   0  0  0  0  0  0  0  0  0  0  0  0
   38.0360   24.0220   35.1120 O   0  0  0  0  0  0  0  0  0  0  0  0
   38.4560   22.6020   35.5090 P   0  0  1  0  0  0  0  0  0  0  0  0
   37.3120   22.0220   36.6240 O   0  0  0  0  0  0  0  0  0  0  0  0
   36.4230   22.4030   36.3870 H   0  0  0  0  0  0  0  0  0  0  0  0
   39.9930   22.7070   36.1610 O   0  0  0  0  0  0  0  0  0  0  0  0
   40.3170   22.3150   37.4530 C   0  0  0  0  0  0  0  0  0  0  0  0
   41.2950   21.5800   37.7210 O   0  0  0  0  0  0  0  0  0  0  0  0
   39.5010   22.7690   38.5320 N   0  0  0  0  0  0  0  0  0  0  0  0
   38.4940   23.0160   38.4470 H   0  0  0  0  0  0  0  0  0  0  0  0
   39.7210   22.9260   39.5170 H   0  0  0  0  0  0  0  0  0  0  0  0
  1 12  1  0  0  0  0
  2  3  1  0  0  0  0
  3  4  2  0  0  0  0
  3  1  1  0  0  0  0
  4  9  1  0  0  0  0
  5  4  1  0  0  0  0
  6  5  2  0  0  0  0
  7  6  1  0  0  0  0
  7  2  2  0  0  0  0
  8  2  1  0  0  0  0
 10  6  1  0  0  0  0
 12 11  2  6  0  0  0
 12 15  1  0  0  0  0
 12 13  1  0  0  0  0
 14 13  1  0  0  0  0
 15 16  1  0  0  0  0
 16 17  2  0  0  0  0
 16 18  1  0  0  0  0
 18 20  1  0  0  0  0
 19 18  1  0  0  0  0
M  END
>  <minimizedAffinity>
-3.94108176

$$$$

 OpenBabel03262522193D

 20 20  0  0  0  0  0  0  0  0999 V2000
   37.5060   25.4350   35.8080 O   0  0  0  0  0  0  0  0  0  0  0  0
   38.1020   24.1430   37.7470 C   0  0  0  0  0  0  0  0  0  0  0  0
   38.3380   24.5390   36.4080 C   0  0  0  0  0  0  0  0  0  0  0  0
   39.4420   23.9660   35.7740 C   0  0  0  0  0  0  0  0  0  0  0  0
   40.2190   23.0760   36.4570 N   0  0  0  0  0  0  0  0  0  0  0  0
   39.9480   22.7380   37.7260 C   0  0  0  0  0  0  0  0  0  0  0  0
   38.8870   23.2650   38.3880 N   0  0  0  0  0  0  0  0  0  0  0  0
   37.2650   24.5400   38.3150 H   0  0  0  0  0  0  0  0  0  0  0  0
   39.6270   24.2680   34.7420 H   0  0  0  0  0  0  0  0  0  0  0  0
   40.6880   22.0200   38.0740 H   0  0  0  0  0  0  0  0  0  0  0  0
   36.5900   27.6390   34.7910 O   0  0  0  0  0  0  0  0  0  0  0  0
   37.9010   26.9180   35.1270 P   0  0  1  0  0  0  0  0  0  0  0  0
   38.6950   27.8280   36.3220 O   0  0  0  0  0  0  0  0  0  0  0  0
   38.0060   28.2450   36.9070 H   0  0  0  0  0  0  0  0  0  0  0  0
   38.7810   26.8120   33.7080 O   0  0  0  0  0  0  0  0  0  0  0  0
   38.3770   26.0840   32.5970 C   0  0  0  0  0  0  0  0  0  0  0  0
   39.0000   26.0890   31.5110 O   0  0  0  0  0  0  0  0  0  0  0  0
   37.1950   25.2880   32.6910 N   0  0  0  0  0  0  0  0  0  0  0  0
   36.3990   25.4880   33.3290 H   0  0  0  0  0  0  0  0  0  0  0  0
   36.9180   24.4400   32.1940 H   0  0  0  0  0  0  0  0  0  0  0  0
  1  3  1  0  0  0  0
  2  8  1  0  0  0  0
  2  7  1  0  0  0  0
  3  2  2  0  0  0  0
  4  3  1  0  0  0  0
  4  5  2  0  0  0  0
  5  6  1  0  0  0  0
  6 10  1  0  0  0  0
  6  7  2  0  0  0  0
  9  4  1  0  0  0  0
 12 11  2  6  0  0  0
 12  1  1  0  0  0  0
 12 13  1  0  0  0  0
 13 14  1  0  0  0  0
 15 12  1  0  0  0  0
 16 18  1  0  0  0  0
 16 15  1  0  0  0  0
 17 16  2  0  0  0  0
 18 19  1  0  0  0  0
 20 18  1  0  0  0  0
M  END
>  <minimizedAffinity>
-3.89508677

$$$$

 OpenBabel03262522193D

 20 20  0  0  0  0  0  0  0  0999 V2000
   38.4150   22.4170   34.4360 O   0  0  0  0  0  0  0  0  0  0  0  0
   36.4510   21.0430   34.2320 C   0  0  0  0  0  0  0  0  0  0  0  0
   37.3350   22.0190   33.7090 C   0  0  0  0  0  0  0  0  0  0  0  0
   37.0280   22.5220   32.4440 C   0  0  0  0  0  0  0  0  0  0  0  0
   35.9220   22.0620   31.7900 N   0  0  0  0  0  0  0  0  0  0  0  0
   35.1200   21.1350   32.3350 C   0  0  0  0  0  0  0  0  0  0  0  0
   35.3730   20.6140   33.5620 N   0  0  0  0  0  0  0  0  0  0  0  0
   36.6160   20.5980   35.2110 H   0  0  0  0  0  0  0  0  0  0  0  0
   37.7050   23.2740   32.0360 H   0  0  0  0  0  0  0  0  0  0  0  0
   34.3050   20.9150   31.6490 H   0  0  0  0  0  0  0  0  0  0  0  0
   40.0220   23.8870   35.8460 O   0  0  0  0  0  0  0  0  0  0  0  0
   38.5480   23.7510   35.4470 P   0  0  1  0  0  0  0  0  0  0  0  0
   38.1370   25.1220   34.5300 O   0  0  0  0  0  0  0  0  0  0  0  0
   38.9380   25.3990   34.0060 H   0  0  0  0  0  0  0  0  0  0  0  0
   37.6640   23.6360   36.8620 O   0  0  0  0  0  0  0  0  0  0  0  0
   38.2100   23.7750   38.1320 C   0  0  0  0  0  0  0  0  0  0  0  0
   37.9500   24.7400   38.8870 O   0  0  0  0  0  0  0  0  0  0  0  0
   39.1100   22.7730   38.6050 N   0  0  0  0  0  0  0  0  0  0  0  0
   39.7060   22.1790   37.9940 H   0  0  0  0  0  0  0  0  0  0  0  0
   39.3300   22.4660   39.5540 H   0  0  0  0  0  0  0  0  0  0  0  0
  1 12  1  0  0  0  0
  2  8  1  0  0  0  0
  3  2  1  0  0  0  0
  3  1  1  0  0  0  0
  4  3  2  0  0  0  0
  5  6  2  0  0  0  0
  5  4  1  0  0  0  0
  6  7  1  0  0  0  0
  7  2  2  0  0  0  0
  9  4  1  0  0  0  0
 10  6  1  0  0  0  0
 12 11  2  1  0  0  0
 12 15  1  0  0  0  0
 13 12  1  0  0  0  0
 14 13  1  0  0  0  0
 15 16  1  0  0  0  0
 16 18  1  0  0  0  0
 16 17  2  0  0  0  0
 18 20  1  0  0  0  0
 19 18  1  0  0  0  0
M  END
>  <minimizedAffinity>
-3.87487555

$$$$

 OpenBabel03262522193D

 20 20  0  0  0  0  0  0  0  0999 V2000
   37.8470   23.8290   34.0280 O   0  0  0  0  0  0  0  0  0  0  0  0
   38.5560   25.2700   32.2370 C   0  0  0  0  0  0  0  0  0  0  0  0
   37.9000   25.0730   33.4770 C   0  0  0  0  0  0  0  0  0  0  0  0
   37.3340   26.2050   34.0680 C   0  0  0  0  0  0  0  0  0  0  0  0
   37.4390   27.4120   33.4400 N   0  0  0  0  0  0  0  0  0  0  0  0
   38.0740   27.5390   32.2660 C   0  0  0  0  0  0  0  0  0  0  0  0
   38.6400   26.4710   31.6480 N   0  0  0  0  0  0  0  0  0  0  0  0
   39.0250   24.4430   31.7080 H   0  0  0  0  0  0  0  0  0  0  0  0
   36.8270   26.0590   35.0230 H   0  0  0  0  0  0  0  0  0  0  0  0
   38.0380   28.5780   31.9470 H   0  0  0  0  0  0  0  0  0  0  0  0
   38.2100   21.8190   35.6270 O   0  0  0  0  0  0  0  0  0  0  0  0
   38.4440   23.3300   35.5160 P   0  0  1  0  0  0  0  0  0  0  0  0
   40.1230   23.5890   35.4990 O   0  0  0  0  0  0  0  0  0  0  0  0
   40.5530   22.8210   35.0330 H   0  0  0  0  0  0  0  0  0  0  0  0
   37.6960   24.0410   36.8320 O   0  0  0  0  0  0  0  0  0  0  0  0
   38.1800   23.9700   38.1320 C   0  0  0  0  0  0  0  0  0  0  0  0
   37.9370   24.8370   39.0020 O   0  0  0  0  0  0  0  0  0  0  0  0
   38.9950   22.8570   38.5000 N   0  0  0  0  0  0  0  0  0  0  0  0
   39.5880   22.3160   37.8390 H   0  0  0  0  0  0  0  0  0  0  0  0
   39.1470   22.4090   39.4060 H   0  0  0  0  0  0  0  0  0  0  0  0
  1 12  1  0  0  0  0
  2  3  1  0  0  0  0
  3  1  1  0  0  0  0
  3  4  2  0  0  0  0
  4  9  1  0  0  0  0
  5  4  1  0  0  0  0
  6  5  2  0  0  0  0
  7  2  2  0  0  0  0
  7  6  1  0  0  0  0
  8  2  1  0  0  0  0
 10  6  1  0  0  0  0
 12 11  2  1  0  0  0
 12 15  1  0  0  0  0
 13 12  1  0  0  0  0
 14 13  1  0  0  0  0
 15 16  1  0  0  0  0
 16 18  1  0  0  0  0
 16 17  2  0  0  0  0
 18 20  1  0  0  0  0
 19 18  1  0  0  0  0
M  END
>  <minimizedAffinity>
-3.70945883

$$$$
