
 OpenBabel03272500043D

 25 26  0  0  0  0  0  0  0  0999 V2000
   35.9130   29.1250   49.3580 C   0  0  0  0  0  0  0  0  0  0  0  0
   35.9150   30.2030   48.4370 C   0  0  0  0  0  0  0  0  0  0  0  0
   35.0070   30.1660   47.4000 C   0  0  0  0  0  0  0  0  0  0  0  0
   34.1570   29.1030   47.3100 N   0  0  0  0  0  0  0  0  0  0  0  0
   34.1700   28.0930   48.1920 C   0  0  0  0  0  0  0  0  0  0  0  0
   35.0570   28.0950   49.2340 N   0  0  0  0  0  0  0  0  0  0  0  0
   36.6080   29.1020   50.1950 H   0  0  0  0  0  0  0  0  0  0  0  0
   35.0140   30.9830   46.7080 H   0  0  0  0  0  0  0  0  0  0  0  0
   36.8570   31.2450   48.6510 N   0  0  0  0  0  0  0  0  0  0  0  0
   36.7730   32.1040   49.6620 C   0  0  0  0  0  0  0  0  0  0  0  0
   37.7430   33.1030   49.8020 C   0  0  0  0  0  0  0  0  0  0  0  0
   38.7220   33.1030   48.8520 C   0  0  0  0  0  0  0  0  0  0  0  0
   39.5920   34.0180   48.9980 O   0  0  0  0  0  0  0  0  0  0  0  0
   38.8390   32.2620   47.8270 N   0  0  0  0  0  0  0  0  0  0  0  0
   37.8720   31.3100   47.7350 C   0  0  0  0  0  0  0  0  0  0  0  0
   37.9810   30.4970   46.7490 O   0  0  0  0  0  0  0  0  0  0  0  0
   35.9490   32.0060   50.3550 H   0  0  0  0  0  0  0  0  0  0  0  0
   37.6820   33.7970   50.6140 H   0  0  0  0  0  0  0  0  0  0  0  0
   39.6170   32.3350   47.1500 H   0  0  0  0  0  0  0  0  0  0  0  0
   33.2960   27.0280   48.0770 O   0  0  0  0  0  0  0  0  0  0  0  0
   31.9710   27.1280   48.4500 C   0  0  0  0  0  0  0  0  0  0  0  0
   30.9570   26.4180   48.2210 O   0  0  0  0  0  0  0  0  0  0  0  0
   31.7380   28.2940   49.2660 N   0  0  0  0  0  0  0  0  0  0  0  0
   31.5320   29.1320   49.8440 H   0  0  0  0  0  0  0  0  0  0  0  0
   32.4350   28.8270   49.8310 H   0  0  0  0  0  0  0  0  0  0  0  0
  1  7  1  0  0  0  0
  2  9  1  0  0  0  0
  2  1  2  0  0  0  0
  3  2  1  0  0  0  0
  4  3  2  0  0  0  0
  4  5  1  0  0  0  0
  5  6  2  0  0  0  0
  6  1  1  0  0  0  0
  8  3  1  0  0  0  0
  9 10  1  0  0  0  0
 10 11  2  0  0  0  0
 10 17  1  0  0  0  0
 11 18  1  0  0  0  0
 12 13  2  0  0  0  0
 12 11  1  0  0  0  0
 14 12  1  0  0  0  0
 15 14  1  0  0  0  0
 15  9  1  0  0  0  0
 16 15  2  0  0  0  0
 19 14  1  0  0  0  0
 20  5  1  0  0  0  0
 20 21  1  0  0  0  0
 21 23  1  0  0  0  0
 22 21  2  0  0  0  0
 23 25  1  0  0  0  0
 23 24  1  0  0  0  0
M  END
>  <minimizedAffinity>
-5.18722105

>  <minimizedRMSD>
0.605139315

$$$$
