
 OpenBabel03272500053D

 25 26  0  0  0  0  0  0  0  0999 V2000
   38.1050   24.3200   33.1930 C   0  0  0  0  0  0  0  0  0  0  0  0
   37.7480   25.6770   33.3970 C   0  0  0  0  0  0  0  0  0  0  0  0
   37.5220   26.0970   34.6910 C   0  0  0  0  0  0  0  0  0  0  0  0
   37.6520   25.1920   35.7040 N   0  0  0  0  0  0  0  0  0  0  0  0
   37.9910   23.9130   35.4910 C   0  0  0  0  0  0  0  0  0  0  0  0
   38.2220   23.4610   34.2210 N   0  0  0  0  0  0  0  0  0  0  0  0
   38.2940   23.9350   32.1920 H   0  0  0  0  0  0  0  0  0  0  0  0
   37.2540   27.1220   34.8380 H   0  0  0  0  0  0  0  0  0  0  0  0
   37.6490   26.5080   32.2490 N   0  0  0  0  0  0  0  0  0  0  0  0
   38.5710   27.4070   31.9200 C   0  0  0  0  0  0  0  0  0  0  0  0
   38.3980   28.1870   30.7720 C   0  0  0  0  0  0  0  0  0  0  0  0
   37.2540   27.9430   30.0680 C   0  0  0  0  0  0  0  0  0  0  0  0
   37.1160   28.6620   29.0290 O   0  0  0  0  0  0  0  0  0  0  0  0
   36.3100   27.0540   30.3640 N   0  0  0  0  0  0  0  0  0  0  0  0
   36.5260   26.3210   31.4900 C   0  0  0  0  0  0  0  0  0  0  0  0
   35.6170   25.4620   31.7790 O   0  0  0  0  0  0  0  0  0  0  0  0
   39.4380   27.5130   32.5570 H   0  0  0  0  0  0  0  0  0  0  0  0
   39.1360   28.9130   30.5010 H   0  0  0  0  0  0  0  0  0  0  0  0
   35.4710   26.9340   29.7720 H   0  0  0  0  0  0  0  0  0  0  0  0
   38.1150   23.0180   36.5380 O   0  0  0  0  0  0  0  0  0  0  0  0
   38.5220   23.4190   37.7950 C   0  0  0  0  0  0  0  0  0  0  0  0
   38.0820   24.2720   38.6090 O   0  0  0  0  0  0  0  0  0  0  0  0
   39.6900   22.6920   38.2290 N   0  0  0  0  0  0  0  0  0  0  0  0
   40.5380   22.1990   38.5680 H   0  0  0  0  0  0  0  0  0  0  0  0
   40.0250   21.7640   37.8920 H   0  0  0  0  0  0  0  0  0  0  0  0
  1  2  2  0  0  0  0
  1  6  1  0  0  0  0
  2  3  1  0  0  0  0
  3  8  1  0  0  0  0
  3  4  2  0  0  0  0
  5  4  1  0  0  0  0
  5 20  1  0  0  0  0
  6  5  2  0  0  0  0
  7  1  1  0  0  0  0
  9  2  1  0  0  0  0
 10  9  1  0  0  0  0
 10 17  1  0  0  0  0
 11 10  2  0  0  0  0
 12 14  1  0  0  0  0
 12 11  1  0  0  0  0
 13 12  2  0  0  0  0
 14 15  1  0  0  0  0
 15 16  2  0  0  0  0
 15  9  1  0  0  0  0
 18 11  1  0  0  0  0
 19 14  1  0  0  0  0
 20 21  1  0  0  0  0
 21 23  1  0  0  0  0
 21 22  2  0  0  0  0
 23 24  1  0  0  0  0
 25 23  1  0  0  0  0
M  END
>  <minimizedAffinity>
-4.89943504

$$$$

 OpenBabel03272500053D

 25 26  0  0  0  0  0  0  0  0999 V2000
   38.5850   26.6060   36.0540 C   0  0  0  0  0  0  0  0  0  0  0  0
   38.5730   25.3490   35.3980 C   0  0  0  0  0  0  0  0  0  0  0  0
   37.7960   25.2200   34.2660 C   0  0  0  0  0  0  0  0  0  0  0  0
   37.0810   26.2990   33.8360 N   0  0  0  0  0  0  0  0  0  0  0  0
   37.1070   27.4800   34.4700 C   0  0  0  0  0  0  0  0  0  0  0  0
   37.8650   27.6460   35.5960 N   0  0  0  0  0  0  0  0  0  0  0  0
   39.1800   26.7630   36.9520 H   0  0  0  0  0  0  0  0  0  0  0  0
   37.7910   24.2680   33.7760 H   0  0  0  0  0  0  0  0  0  0  0  0
   39.3650   24.3100   35.9580 N   0  0  0  0  0  0  0  0  0  0  0  0
   40.6020   24.0420   35.5530 C   0  0  0  0  0  0  0  0  0  0  0  0
   41.3160   23.0010   36.1570 C   0  0  0  0  0  0  0  0  0  0  0  0
   40.6510   22.3320   37.1430 C   0  0  0  0  0  0  0  0  0  0  0  0
   41.3170   21.3910   37.6780 O   0  0  0  0  0  0  0  0  0  0  0  0
   39.4150   22.5710   37.5740 N   0  0  0  0  0  0  0  0  0  0  0  0
   38.7640   23.5930   36.9550 C   0  0  0  0  0  0  0  0  0  0  0  0
   37.5710   23.8260   37.3690 O   0  0  0  0  0  0  0  0  0  0  0  0
   41.0270   24.6420   34.7600 H   0  0  0  0  0  0  0  0  0  0  0  0
   42.3130   22.7800   35.8370 H   0  0  0  0  0  0  0  0  0  0  0  0
   38.9850   22.0120   38.3310 H   0  0  0  0  0  0  0  0  0  0  0  0
   36.3720   28.5580   34.0100 O   0  0  0  0  0  0  0  0  0  0  0  0
   35.9590   28.6520   32.6960 C   0  0  0  0  0  0  0  0  0  0  0  0
   34.8280   28.7670   32.1570 O   0  0  0  0  0  0  0  0  0  0  0  0
   37.0770   28.6050   31.7870 N   0  0  0  0  0  0  0  0  0  0  0  0
   37.8570   28.5600   31.1020 H   0  0  0  0  0  0  0  0  0  0  0  0
   38.0750   28.8280   31.9900 H   0  0  0  0  0  0  0  0  0  0  0  0
  1  7  1  0  0  0  0
  2  9  1  0  0  0  0
  2  1  2  0  0  0  0
  3  2  1  0  0  0  0
  4  3  2  0  0  0  0
  4  5  1  0  0  0  0
  5  6  2  0  0  0  0
  6  1  1  0  0  0  0
  8  3  1  0  0  0  0
  9 15  1  0  0  0  0
 10  9  1  0  0  0  0
 10 11  2  0  0  0  0
 11 12  1  0  0  0  0
 12 14  1  0  0  0  0
 12 13  2  0  0  0  0
 14 19  1  0  0  0  0
 15 16  2  0  0  0  0
 15 14  1  0  0  0  0
 17 10  1  0  0  0  0
 18 11  1  0  0  0  0
 20  5  1  0  0  0  0
 21 20  1  0  0  0  0
 22 21  2  0  0  0  0
 23 25  1  0  0  0  0
 23 21  1  0  0  0  0
 24 23  1  0  0  0  0
M  END
>  <minimizedAffinity>
-4.8028512

$$$$

 OpenBabel03272500053D

 25 26  0  0  0  0  0  0  0  0999 V2000
   37.9410   24.7420   33.7060 C   0  0  0  0  0  0  0  0  0  0  0  0
   38.4880   25.1550   34.9470 C   0  0  0  0  0  0  0  0  0  0  0  0
   38.2260   26.4400   35.3720 C   0  0  0  0  0  0  0  0  0  0  0  0
   37.4570   27.2460   34.5840 N   0  0  0  0  0  0  0  0  0  0  0  0
   36.9470   26.8370   33.4140 C   0  0  0  0  0  0  0  0  0  0  0  0
   37.1870   25.5690   32.9600 N   0  0  0  0  0  0  0  0  0  0  0  0
   38.1170   23.7380   33.3220 H   0  0  0  0  0  0  0  0  0  0  0  0
   38.6420   26.7450   36.3090 H   0  0  0  0  0  0  0  0  0  0  0  0
   39.2720   24.2110   35.6630 N   0  0  0  0  0  0  0  0  0  0  0  0
   40.5600   23.9980   35.4140 C   0  0  0  0  0  0  0  0  0  0  0  0
   41.2620   23.0490   36.1660 C   0  0  0  0  0  0  0  0  0  0  0  0
   40.5310   22.4050   37.1210 C   0  0  0  0  0  0  0  0  0  0  0  0
   41.1870   21.5480   37.7930 O   0  0  0  0  0  0  0  0  0  0  0  0
   39.2440   22.5920   37.4010 N   0  0  0  0  0  0  0  0  0  0  0  0
   38.6070   23.5250   36.6420 C   0  0  0  0  0  0  0  0  0  0  0  0
   37.3650   23.7070   36.9080 O   0  0  0  0  0  0  0  0  0  0  0  0
   41.0350   24.5690   34.6280 H   0  0  0  0  0  0  0  0  0  0  0  0
   42.2990   22.8720   35.9700 H   0  0  0  0  0  0  0  0  0  0  0  0
   38.7660   22.0580   38.1470 H   0  0  0  0  0  0  0  0  0  0  0  0
   36.1700   27.6750   32.6350 O   0  0  0  0  0  0  0  0  0  0  0  0
   36.5930   28.1200   31.3980 C   0  0  0  0  0  0  0  0  0  0  0  0
   37.2260   29.1410   31.0230 O   0  0  0  0  0  0  0  0  0  0  0  0
   36.2150   27.2050   30.3500 N   0  0  0  0  0  0  0  0  0  0  0  0
   35.9460   26.5770   29.5680 H   0  0  0  0  0  0  0  0  0  0  0  0
   35.9850   26.1920   30.4400 H   0  0  0  0  0  0  0  0  0  0  0  0
  1  2  1  0  0  0  0
  2  3  2  0  0  0  0
  2  9  1  0  0  0  0
  3  8  1  0  0  0  0
  4  3  1  0  0  0  0
  5  4  2  0  0  0  0
  6  5  1  0  0  0  0
  6  1  2  0  0  0  0
  7  1  1  0  0  0  0
  9 15  1  0  0  0  0
 10  9  1  0  0  0  0
 10 11  2  0  0  0  0
 11 12  1  0  0  0  0
 12 14  1  0  0  0  0
 12 13  2  0  0  0  0
 14 19  1  0  0  0  0
 15 16  2  0  0  0  0
 15 14  1  0  0  0  0
 17 10  1  0  0  0  0
 18 11  1  0  0  0  0
 20  5  1  0  0  0  0
 21 20  1  0  0  0  0
 22 21  2  0  0  0  0
 23 25  1  0  0  0  0
 23 21  1  0  0  0  0
 24 23  1  0  0  0  0
M  END
>  <minimizedAffinity>
-4.79574394

$$$$

 OpenBabel03272500053D

 25 26  0  0  0  0  0  0  0  0999 V2000
   37.6000   27.0980   34.1450 C   0  0  0  0  0  0  0  0  0  0  0  0
   37.8410   26.3660   32.9550 C   0  0  0  0  0  0  0  0  0  0  0  0
   38.0450   25.0070   33.0640 C   0  0  0  0  0  0  0  0  0  0  0  0
   38.0050   24.4360   34.3020 N   0  0  0  0  0  0  0  0  0  0  0  0
   37.7750   25.1450   35.4170 C   0  0  0  0  0  0  0  0  0  0  0  0
   37.5690   26.4950   35.3480 N   0  0  0  0  0  0  0  0  0  0  0  0
   37.4330   28.1740   34.1180 H   0  0  0  0  0  0  0  0  0  0  0  0
   38.2260   24.4610   32.1610 H   0  0  0  0  0  0  0  0  0  0  0  0
   37.8560   27.0910   31.7330 N   0  0  0  0  0  0  0  0  0  0  0  0
   38.9480   27.6720   31.2460 C   0  0  0  0  0  0  0  0  0  0  0  0
   38.8790   28.3680   30.0340 C   0  0  0  0  0  0  0  0  0  0  0  0
   37.6500   28.3870   29.4420 C   0  0  0  0  0  0  0  0  0  0  0  0
   37.6090   29.0240   28.3430 O   0  0  0  0  0  0  0  0  0  0  0  0
   36.5360   27.8200   29.8970 N   0  0  0  0  0  0  0  0  0  0  0  0
   36.6570   27.1550   31.0790 C   0  0  0  0  0  0  0  0  0  0  0  0
   35.5840   26.6060   31.5220 O   0  0  0  0  0  0  0  0  0  0  0  0
   39.8700   27.5890   31.8060 H   0  0  0  0  0  0  0  0  0  0  0  0
   39.7540   28.8370   29.6360 H   0  0  0  0  0  0  0  0  0  0  0  0
   35.6420   27.8840   29.3810 H   0  0  0  0  0  0  0  0  0  0  0  0
   37.7400   24.5390   36.6590 O   0  0  0  0  0  0  0  0  0  0  0  0
   38.3760   23.3380   36.9030 C   0  0  0  0  0  0  0  0  0  0  0  0
   39.4890   23.0430   37.4120 O   0  0  0  0  0  0  0  0  0  0  0  0
   37.5740   22.2190   36.4750 N   0  0  0  0  0  0  0  0  0  0  0  0
   37.0290   21.3900   36.1650 H   0  0  0  0  0  0  0  0  0  0  0  0
   36.5410   22.1920   36.3320 H   0  0  0  0  0  0  0  0  0  0  0  0
  1  6  1  0  0  0  0
  2  3  1  0  0  0  0
  2  1  2  0  0  0  0
  3  4  2  0  0  0  0
  4  5  1  0  0  0  0
  5 20  1  0  0  0  0
  6  5  2  0  0  0  0
  7  1  1  0  0  0  0
  8  3  1  0  0  0  0
  9  2  1  0  0  0  0
 10  9  1  0  0  0  0
 10 17  1  0  0  0  0
 11 10  2  0  0  0  0
 12 14  1  0  0  0  0
 12 11  1  0  0  0  0
 13 12  2  0  0  0  0
 14 15  1  0  0  0  0
 15 16  2  0  0  0  0
 15  9  1  0  0  0  0
 18 11  1  0  0  0  0
 19 14  1  0  0  0  0
 20 21  1  0  0  0  0
 21 22  2  0  0  0  0
 23 21  1  0  0  0  0
 24 23  1  0  0  0  0
 25 23  1  0  0  0  0
M  END
>  <minimizedAffinity>
-4.56296873

$$$$

 OpenBabel03272500053D

 25 26  0  0  0  0  0  0  0  0999 V2000
   37.5660   26.8660   34.8990 C   0  0  0  0  0  0  0  0  0  0  0  0
   37.8140   25.5380   34.4690 C   0  0  0  0  0  0  0  0  0  0  0  0
   37.4240   25.1890   33.1930 C   0  0  0  0  0  0  0  0  0  0  0  0
   36.8220   26.1320   32.4120 N   0  0  0  0  0  0  0  0  0  0  0  0
   36.5960   27.3840   32.8360 C   0  0  0  0  0  0  0  0  0  0  0  0
   36.9690   27.7650   34.0960 N   0  0  0  0  0  0  0  0  0  0  0  0
   37.8530   27.1950   35.8960 H   0  0  0  0  0  0  0  0  0  0  0  0
   37.6150   24.1850   32.8750 H   0  0  0  0  0  0  0  0  0  0  0  0
   38.4490   24.6600   35.3890 N   0  0  0  0  0  0  0  0  0  0  0  0
   37.8220   24.1230   36.4310 C   0  0  0  0  0  0  0  0  0  0  0  0
   38.5200   23.2670   37.2900 C   0  0  0  0  0  0  0  0  0  0  0  0
   39.8280   23.0550   36.9680 C   0  0  0  0  0  0  0  0  0  0  0  0
   40.4430   22.2750   37.7610 O   0  0  0  0  0  0  0  0  0  0  0  0
   40.4890   23.5730   35.9350 N   0  0  0  0  0  0  0  0  0  0  0  0
   39.7660   24.3980   35.1300 C   0  0  0  0  0  0  0  0  0  0  0  0
   40.4000   24.9000   34.1330 O   0  0  0  0  0  0  0  0  0  0  0  0
   36.7800   24.3660   36.5870 H   0  0  0  0  0  0  0  0  0  0  0  0
   38.0220   22.8310   38.1310 H   0  0  0  0  0  0  0  0  0  0  0  0
   41.4860   23.3580   35.7640 H   0  0  0  0  0  0  0  0  0  0  0  0
   35.9840   28.3190   32.0220 O   0  0  0  0  0  0  0  0  0  0  0  0
   36.5650   28.7540   30.8480 C   0  0  0  0  0  0  0  0  0  0  0  0
   37.1300   29.8290   30.5150 O   0  0  0  0  0  0  0  0  0  0  0  0
   36.4890   27.7490   29.8170 N   0  0  0  0  0  0  0  0  0  0  0  0
   36.4400   27.0540   29.0460 H   0  0  0  0  0  0  0  0  0  0  0  0
   36.3680   26.7200   29.9360 H   0  0  0  0  0  0  0  0  0  0  0  0
  1  7  1  0  0  0  0
  2  1  1  0  0  0  0
  2  9  1  0  0  0  0
  3  2  2  0  0  0  0
  4  5  2  0  0  0  0
  4  3  1  0  0  0  0
  5  6  1  0  0  0  0
  6  1  2  0  0  0  0
  8  3  1  0  0  0  0
  9 10  1  0  0  0  0
 10 17  1  0  0  0  0
 10 11  2  0  0  0  0
 11 18  1  0  0  0  0
 12 11  1  0  0  0  0
 12 13  2  0  0  0  0
 14 12  1  0  0  0  0
 15  9  1  0  0  0  0
 15 14  1  0  0  0  0
 16 15  2  0  0  0  0
 19 14  1  0  0  0  0
 20  5  1  0  0  0  0
 21 20  1  0  0  0  0
 22 21  2  0  0  0  0
 23 25  1  0  0  0  0
 23 21  1  0  0  0  0
 24 23  1  0  0  0  0
M  END
>  <minimizedAffinity>
-4.55309105

$$$$

 OpenBabel03272500053D

 25 26  0  0  0  0  0  0  0  0999 V2000
   38.3000   23.9210   33.2530 C   0  0  0  0  0  0  0  0  0  0  0  0
   37.8690   25.2140   33.6440 C   0  0  0  0  0  0  0  0  0  0  0  0
   37.8280   25.5000   34.9920 C   0  0  0  0  0  0  0  0  0  0  0  0
   38.2000   24.5320   35.8780 N   0  0  0  0  0  0  0  0  0  0  0  0
   38.6040   23.3140   35.4890 C   0  0  0  0  0  0  0  0  0  0  0  0
   38.6580   22.9940   34.1600 N   0  0  0  0  0  0  0  0  0  0  0  0
   38.3510   23.6410   32.2020 H   0  0  0  0  0  0  0  0  0  0  0  0
   37.5020   26.4780   35.2790 H   0  0  0  0  0  0  0  0  0  0  0  0
   37.5110   26.1230   32.6130 N   0  0  0  0  0  0  0  0  0  0  0  0
   36.3360   26.0890   31.9900 C   0  0  0  0  0  0  0  0  0  0  0  0
   36.0600   27.0220   30.9840 C   0  0  0  0  0  0  0  0  0  0  0  0
   37.0600   27.9130   30.7250 C   0  0  0  0  0  0  0  0  0  0  0  0
   36.7890   28.7510   29.8090 O   0  0  0  0  0  0  0  0  0  0  0  0
   38.2450   27.9790   31.3250 N   0  0  0  0  0  0  0  0  0  0  0  0
   38.4650   27.0510   32.2960 C   0  0  0  0  0  0  0  0  0  0  0  0
   39.6070   27.1110   32.8770 O   0  0  0  0  0  0  0  0  0  0  0  0
   35.6200   25.3330   32.2810 H   0  0  0  0  0  0  0  0  0  0  0  0
   35.1170   27.0010   30.4790 H   0  0  0  0  0  0  0  0  0  0  0  0
   38.9480   28.6920   31.0650 H   0  0  0  0  0  0  0  0  0  0  0  0
   38.9760   22.3520   36.4100 O   0  0  0  0  0  0  0  0  0  0  0  0
   39.7940   22.6470   37.4830 C   0  0  0  0  0  0  0  0  0  0  0  0
   41.0450   22.6770   37.6260 O   0  0  0  0  0  0  0  0  0  0  0  0
   39.0270   22.9840   38.6560 N   0  0  0  0  0  0  0  0  0  0  0  0
   38.5070   23.2180   39.5240 H   0  0  0  0  0  0  0  0  0  0  0  0
   38.0430   23.3270   38.6980 H   0  0  0  0  0  0  0  0  0  0  0  0
  1  2  2  0  0  0  0
  1  6  1  0  0  0  0
  2  3  1  0  0  0  0
  3  8  1  0  0  0  0
  3  4  2  0  0  0  0
  5  4  1  0  0  0  0
  5 20  1  0  0  0  0
  6  5  2  0  0  0  0
  7  1  1  0  0  0  0
  9  2  1  0  0  0  0
 10 17  1  0  0  0  0
 10  9  1  0  0  0  0
 11 10  2  0  0  0  0
 12 11  1  0  0  0  0
 12 14  1  0  0  0  0
 13 12  2  0  0  0  0
 14 15  1  0  0  0  0
 15  9  1  0  0  0  0
 15 16  2  0  0  0  0
 18 11  1  0  0  0  0
 19 14  1  0  0  0  0
 20 21  1  0  0  0  0
 21 22  2  0  0  0  0
 21 23  1  0  0  0  0
 23 25  1  0  0  0  0
 23 24  1  0  0  0  0
M  END
>  <minimizedAffinity>
-4.50611782

$$$$

 OpenBabel03272500053D

 25 26  0  0  0  0  0  0  0  0999 V2000
   38.6160   26.9940   34.7380 C   0  0  0  0  0  0  0  0  0  0  0  0
   37.8170   26.5860   33.6400 C   0  0  0  0  0  0  0  0  0  0  0  0
   37.5930   25.2360   33.4730 C   0  0  0  0  0  0  0  0  0  0  0  0
   38.1470   24.3640   34.3640 N   0  0  0  0  0  0  0  0  0  0  0  0
   38.8990   24.7700   35.3970 C   0  0  0  0  0  0  0  0  0  0  0  0
   39.1430   26.1010   35.5950 N   0  0  0  0  0  0  0  0  0  0  0  0
   38.8250   28.0470   34.9170 H   0  0  0  0  0  0  0  0  0  0  0  0
   36.9890   24.9340   32.6420 H   0  0  0  0  0  0  0  0  0  0  0  0
   37.3040   27.6020   32.7890 N   0  0  0  0  0  0  0  0  0  0  0  0
   36.1950   28.2840   33.0580 C   0  0  0  0  0  0  0  0  0  0  0  0
   35.7570   29.2700   32.1680 C   0  0  0  0  0  0  0  0  0  0  0  0
   36.5390   29.4480   31.0630 C   0  0  0  0  0  0  0  0  0  0  0  0
   36.1240   30.3480   30.2680 O   0  0  0  0  0  0  0  0  0  0  0  0
   37.6530   28.7870   30.7610 N   0  0  0  0  0  0  0  0  0  0  0  0
   38.0370   27.8390   31.6580 C   0  0  0  0  0  0  0  0  0  0  0  0
   39.1110   27.1990   31.3700 O   0  0  0  0  0  0  0  0  0  0  0  0
   35.6560   28.0540   33.9670 H   0  0  0  0  0  0  0  0  0  0  0  0
   34.8660   29.8230   32.3780 H   0  0  0  0  0  0  0  0  0  0  0  0
   38.1870   28.9870   29.8980 H   0  0  0  0  0  0  0  0  0  0  0  0
   39.4480   23.8640   36.2860 O   0  0  0  0  0  0  0  0  0  0  0  0
   38.7710   23.4500   37.4160 C   0  0  0  0  0  0  0  0  0  0  0  0
   37.6130   23.6760   37.8550 O   0  0  0  0  0  0  0  0  0  0  0  0
   39.5850   22.5850   38.2330 N   0  0  0  0  0  0  0  0  0  0  0  0
   40.1480   21.9710   38.8530 H   0  0  0  0  0  0  0  0  0  0  0  0
   40.4120   22.0210   37.9380 H   0  0  0  0  0  0  0  0  0  0  0  0
  1  7  1  0  0  0  0
  1  6  1  0  0  0  0
  2  1  2  0  0  0  0
  3  2  1  0  0  0  0
  3  4  2  0  0  0  0
  4  5  1  0  0  0  0
  5  6  2  0  0  0  0
  5 20  1  0  0  0  0
  8  3  1  0  0  0  0
  9 10  1  0  0  0  0
  9  2  1  0  0  0  0
 10 17  1  0  0  0  0
 11 18  1  0  0  0  0
 11 10  2  0  0  0  0
 12 11  1  0  0  0  0
 13 12  2  0  0  0  0
 14 12  1  0  0  0  0
 14 15  1  0  0  0  0
 15  9  1  0  0  0  0
 16 15  2  0  0  0  0
 19 14  1  0  0  0  0
 20 21  1  0  0  0  0
 21 22  2  0  0  0  0
 21 23  1  0  0  0  0
 23 24  1  0  0  0  0
 25 23  1  0  0  0  0
M  END
>  <minimizedAffinity>
-4.47086668

$$$$

 OpenBabel03272500053D

 25 26  0  0  0  0  0  0  0  0999 V2000
   37.6850   25.4170   34.3420 C   0  0  0  0  0  0  0  0  0  0  0  0
   38.3880   25.6700   35.5470 C   0  0  0  0  0  0  0  0  0  0  0  0
   38.3630   26.9520   36.0520 C   0  0  0  0  0  0  0  0  0  0  0  0
   37.6680   27.9100   35.3730 N   0  0  0  0  0  0  0  0  0  0  0  0
   37.0080   27.6520   34.2350 C   0  0  0  0  0  0  0  0  0  0  0  0
   37.0110   26.3910   33.7040 N   0  0  0  0  0  0  0  0  0  0  0  0
   37.6720   24.4230   33.8980 H   0  0  0  0  0  0  0  0  0  0  0  0
   38.8960   27.1350   36.9620 H   0  0  0  0  0  0  0  0  0  0  0  0
   39.0710   24.5770   36.1470 N   0  0  0  0  0  0  0  0  0  0  0  0
   38.5950   23.9090   37.1930 C   0  0  0  0  0  0  0  0  0  0  0  0
   39.3300   22.8440   37.7250 C   0  0  0  0  0  0  0  0  0  0  0  0
   40.5120   22.5800   37.0980 C   0  0  0  0  0  0  0  0  0  0  0  0
   41.1640   21.6090   37.5960 O   0  0  0  0  0  0  0  0  0  0  0  0
   41.0210   23.2240   36.0500 N   0  0  0  0  0  0  0  0  0  0  0  0
   40.2680   24.2510   35.5700 C   0  0  0  0  0  0  0  0  0  0  0  0
   40.7550   24.8750   34.5600 O   0  0  0  0  0  0  0  0  0  0  0  0
   37.6440   24.2110   37.6080 H   0  0  0  0  0  0  0  0  0  0  0  0
   38.9530   22.3020   38.5670 H   0  0  0  0  0  0  0  0  0  0  0  0
   41.9290   22.9560   35.6350 H   0  0  0  0  0  0  0  0  0  0  0  0
   36.3110   28.6420   33.5680 O   0  0  0  0  0  0  0  0  0  0  0  0
   35.3110   29.3700   34.1820 C   0  0  0  0  0  0  0  0  0  0  0  0
   34.0550   29.3140   34.1340 O   0  0  0  0  0  0  0  0  0  0  0  0
   35.8540   30.3900   35.0450 N   0  0  0  0  0  0  0  0  0  0  0  0
   36.2090   31.1450   35.6630 H   0  0  0  0  0  0  0  0  0  0  0  0
   36.8020   30.4210   35.4780 H   0  0  0  0  0  0  0  0  0  0  0  0
  1  2  1  0  0  0  0
  2  3  2  0  0  0  0
  2  9  1  0  0  0  0
  3  8  1  0  0  0  0
  4  3  1  0  0  0  0
  5  4  2  0  0  0  0
  6  5  1  0  0  0  0
  6  1  2  0  0  0  0
  7  1  1  0  0  0  0
  9 10  1  0  0  0  0
 10 17  1  0  0  0  0
 10 11  2  0  0  0  0
 11 18  1  0  0  0  0
 12 13  2  0  0  0  0
 12 11  1  0  0  0  0
 14 12  1  0  0  0  0
 15 14  1  0  0  0  0
 15  9  1  0  0  0  0
 16 15  2  0  0  0  0
 19 14  1  0  0  0  0
 20 21  1  0  0  0  0
 20  5  1  0  0  0  0
 21 23  1  0  0  0  0
 22 21  2  0  0  0  0
 23 25  1  0  0  0  0
 23 24  1  0  0  0  0
M  END
>  <minimizedAffinity>
-4.44790077

$$$$

 OpenBabel03272500053D

 25 26  0  0  0  0  0  0  0  0999 V2000
   35.7290   28.9770   34.0300 C   0  0  0  0  0  0  0  0  0  0  0  0
   35.3080   28.8210   32.6850 C   0  0  0  0  0  0  0  0  0  0  0  0
   35.7900   27.7380   31.9800 C   0  0  0  0  0  0  0  0  0  0  0  0
   36.6410   26.8750   32.6060 N   0  0  0  0  0  0  0  0  0  0  0  0
   37.0270   27.0390   33.8800 C   0  0  0  0  0  0  0  0  0  0  0  0
   36.5710   28.1020   34.6100 N   0  0  0  0  0  0  0  0  0  0  0  0
   35.3810   29.8140   34.6330 H   0  0  0  0  0  0  0  0  0  0  0  0
   35.4680   27.6260   30.9660 H   0  0  0  0  0  0  0  0  0  0  0  0
   34.4190   29.7970   32.1600 N   0  0  0  0  0  0  0  0  0  0  0  0
   33.1510   29.9050   32.5450 C   0  0  0  0  0  0  0  0  0  0  0  0
   32.3390   30.8950   31.9780 C   0  0  0  0  0  0  0  0  0  0  0  0
   32.9480   31.6860   31.0490 C   0  0  0  0  0  0  0  0  0  0  0  0
   32.1940   32.5780   30.5470 O   0  0  0  0  0  0  0  0  0  0  0  0
   34.2110   31.6090   30.6390 N   0  0  0  0  0  0  0  0  0  0  0  0
   34.9580   30.6310   31.2200 C   0  0  0  0  0  0  0  0  0  0  0  0
   36.1770   30.5530   30.8280 O   0  0  0  0  0  0  0  0  0  0  0  0
   32.7770   29.2180   33.2920 H   0  0  0  0  0  0  0  0  0  0  0  0
   31.3180   30.9880   32.2830 H   0  0  0  0  0  0  0  0  0  0  0  0
   34.5930   32.2530   29.9260 H   0  0  0  0  0  0  0  0  0  0  0  0
   37.8920   26.1480   34.4890 O   0  0  0  0  0  0  0  0  0  0  0  0
   38.1780   26.2170   35.8380 C   0  0  0  0  0  0  0  0  0  0  0  0
   37.9800   25.4290   36.7990 O   0  0  0  0  0  0  0  0  0  0  0  0
   38.8340   27.4550   36.1770 N   0  0  0  0  0  0  0  0  0  0  0  0
   39.2960   28.3410   36.4590 H   0  0  0  0  0  0  0  0  0  0  0  0
   39.3680   28.0880   35.5430 H   0  0  0  0  0  0  0  0  0  0  0  0
  1  6  1  0  0  0  0
  1  7  1  0  0  0  0
  2  1  2  0  0  0  0
  3  4  2  0  0  0  0
  3  2  1  0  0  0  0
  4  5  1  0  0  0  0
  5 20  1  0  0  0  0
  5  6  2  0  0  0  0
  8  3  1  0  0  0  0
  9 10  1  0  0  0  0
  9  2  1  0  0  0  0
 10 17  1  0  0  0  0
 11 18  1  0  0  0  0
 11 10  2  0  0  0  0
 12 11  1  0  0  0  0
 13 12  2  0  0  0  0
 14 12  1  0  0  0  0
 14 15  1  0  0  0  0
 15  9  1  0  0  0  0
 16 15  2  0  0  0  0
 19 14  1  0  0  0  0
 20 21  1  0  0  0  0
 21 23  1  0  0  0  0
 21 22  2  0  0  0  0
 23 24  1  0  0  0  0
 25 23  1  0  0  0  0
M  END
>  <minimizedAffinity>
-4.34040308

$$$$
