
 OpenBabel03262521363D

 33 35  0  0  1  0  0  0  0  0999 V2000
   36.8270   27.1910   33.2520 C   0  0  1  0  0  0  0  0  0  0  0  0
   35.8470   27.9700   32.4640 C   0  0  2  0  0  0  0  0  0  0  0  0
   36.5320   28.1030   31.0990 C   0  0  0  0  0  0  0  0  0  0  0  0
   37.8320   28.3110   31.4690 O   0  0  0  0  0  0  0  0  0  0  0  0
   38.1370   27.5620   32.5920 C   0  0  0  0  0  0  0  0  0  0  0  0
   36.6030   26.1000   33.1270 H   0  0  0  0  0  0  0  0  0  0  0  0
   34.9440   27.3540   32.2580 H   0  0  0  0  0  0  0  0  0  0  0  0
   36.1930   29.0120   30.5580 H   0  0  0  0  0  0  0  0  0  0  0  0
   36.4460   27.1720   30.5130 H   0  0  0  0  0  0  0  0  0  0  0  0
   38.6130   26.6260   32.2310 H   0  0  0  0  0  0  0  0  0  0  0  0
   38.8390   28.0630   33.2820 H   0  0  0  0  0  0  0  0  0  0  0  0
   34.3020   29.4760   33.9310 C   0  0  1  0  0  0  0  0  0  0  0  0
   34.0940   29.7900   32.5410 C   0  0  0  0  0  0  0  0  0  0  0  0
   35.4970   29.3490   32.9880 C   0  0  2  0  0  0  0  0  0  0  0  0
   34.0030   28.4750   34.3390 H   0  0  0  0  0  0  0  0  0  0  0  0
   34.0260   30.8370   32.1760 H   0  0  0  0  0  0  0  0  0  0  0  0
   33.4750   29.1070   31.9450 H   0  0  0  0  0  0  0  0  0  0  0  0
   36.3070   30.0750   33.0170 H   0  0  0  0  0  0  0  0  0  0  0  0
   35.8600   32.0810   36.1210 C   0  0  0  0  0  0  0  0  0  0  0  0
   35.7210   31.1400   35.1080 C   0  0  0  0  0  0  0  0  0  0  0  0
   34.5000   30.4980   34.9790 C   0  0  0  0  0  0  0  0  0  0  0  0
   33.4950   30.8260   35.8570 N   0  0  0  0  0  0  0  0  0  0  0  0
   33.6500   31.7470   36.8370 C   0  0  0  0  0  0  0  0  0  0  0  0
   34.8550   32.3840   36.9700 N   0  0  0  0  0  0  0  0  0  0  0  0
   36.8410   32.5430   36.1610 H   0  0  0  0  0  0  0  0  0  0  0  0
   36.5050   30.8750   34.4120 H   0  0  0  0  0  0  0  0  0  0  0  0
   32.8130   31.9500   37.4900 H   0  0  0  0  0  0  0  0  0  0  0  0
   36.8570   27.5070   34.5980 O   0  0  0  0  0  0  0  0  0  0  0  0
   37.7890   26.8470   35.4110 C   0  0  0  0  0  0  0  0  0  0  0  0
   37.8020   25.5990   35.4570 O   0  0  0  0  0  0  0  0  0  0  0  0
   38.7210   27.5610   36.1860 N   0  0  0  0  0  0  0  0  0  0  0  0
   38.9740   28.5540   35.9040 H   0  0  0  0  0  0  0  0  0  0  0  0
   39.1640   27.1280   37.0290 H   0  0  0  0  0  0  0  0  0  0  0  0
  1  6  1  6  0  0  0
  1 28  1  0  0  0  0
  2  7  1  6  0  0  0
  2 14  1  0  0  0  0
  2  1  1  0  0  0  0
  3  4  1  0  0  0  0
  3  2  1  0  0  0  0
  4  5  1  0  0  0  0
  5  1  1  0  0  0  0
  5 11  1  0  0  0  0
  8  3  1  0  0  0  0
  9  3  1  0  0  0  0
 10  5  1  0  0  0  0
 12 15  1  1  0  0  0
 12 21  1  0  0  0  0
 13 14  1  0  0  0  0
 13 12  1  0  0  0  0
 14 18  1  1  0  0  0
 14 12  1  0  0  0  0
 16 13  1  0  0  0  0
 17 13  1  0  0  0  0
 19 25  1  0  0  0  0
 19 24  1  0  0  0  0
 20 19  2  0  0  0  0
 21 20  1  0  0  0  0
 21 22  2  0  0  0  0
 22 23  1  0  0  0  0
 23 24  2  0  0  0  0
 23 27  1  0  0  0  0
 26 20  1  0  0  0  0
 28 29  1  0  0  0  0
 29 30  2  0  0  0  0
 29 31  1  0  0  0  0
 31 33  1  0  0  0  0
 32 31  1  0  0  0  0
M  END
>  <minimizedAffinity>
-4.60758734

$$$$

 OpenBabel03262521363D

 33 35  0  0  1  0  0  0  0  0999 V2000
   32.6070   31.1280   37.2140 C   0  0  1  0  0  0  0  0  0  0  0  0
   33.8780   31.8670   37.0580 C   0  0  2  0  0  0  0  0  0  0  0  0
   33.4650   33.3190   37.3220 C   0  0  0  0  0  0  0  0  0  0  0  0
   32.2530   33.3730   36.6900 O   0  0  0  0  0  0  0  0  0  0  0  0
   31.5790   32.1740   36.8420 C   0  0  0  0  0  0  0  0  0  0  0  0
   32.5000   30.8150   38.2850 H   0  0  0  0  0  0  0  0  0  0  0  0
   34.5680   31.6230   37.8960 H   0  0  0  0  0  0  0  0  0  0  0  0
   34.1380   34.0360   36.8050 H   0  0  0  0  0  0  0  0  0  0  0  0
   33.3430   33.5140   38.4010 H   0  0  0  0  0  0  0  0  0  0  0  0
   30.8950   32.3000   37.7070 H   0  0  0  0  0  0  0  0  0  0  0  0
   30.9750   31.8900   35.9630 H   0  0  0  0  0  0  0  0  0  0  0  0
   35.6240   30.6990   35.5110 C   0  0  1  0  0  0  0  0  0  0  0  0
   36.0680   32.0360   35.8070 C   0  0  0  0  0  0  0  0  0  0  0  0
   34.5570   31.7740   35.7060 C   0  0  2  0  0  0  0  0  0  0  0  0
   35.5700   29.9260   36.3220 H   0  0  0  0  0  0  0  0  0  0  0  0
   36.4810   32.7080   35.0230 H   0  0  0  0  0  0  0  0  0  0  0  0
   36.5220   32.2250   36.7880 H   0  0  0  0  0  0  0  0  0  0  0  0
   33.9970   32.1600   34.8570 H   0  0  0  0  0  0  0  0  0  0  0  0
   35.9580   28.3020   32.6560 C   0  0  0  0  0  0  0  0  0  0  0  0
   35.9610   28.7930   33.9560 C   0  0  0  0  0  0  0  0  0  0  0  0
   35.6200   30.1200   34.1520 C   0  0  0  0  0  0  0  0  0  0  0  0
   35.2970   30.8800   33.0520 N   0  0  0  0  0  0  0  0  0  0  0  0
   35.2980   30.3820   31.7940 C   0  0  0  0  0  0  0  0  0  0  0  0
   35.6360   29.0700   31.5940 N   0  0  0  0  0  0  0  0  0  0  0  0
   36.2340   27.2550   32.5790 H   0  0  0  0  0  0  0  0  0  0  0  0
   36.2140   28.2040   34.8280 H   0  0  0  0  0  0  0  0  0  0  0  0
   35.0330   31.0420   30.9790 H   0  0  0  0  0  0  0  0  0  0  0  0
   32.4870   30.0190   36.3940 O   0  0  0  0  0  0  0  0  0  0  0  0
   31.7730   28.9140   36.8780 C   0  0  0  0  0  0  0  0  0  0  0  0
   31.2330   28.1230   36.0770 O   0  0  0  0  0  0  0  0  0  0  0  0
   31.6460   28.6690   38.2570 N   0  0  0  0  0  0  0  0  0  0  0  0
   32.3650   29.0840   38.9220 H   0  0  0  0  0  0  0  0  0  0  0  0
   30.8610   28.0890   38.6310 H   0  0  0  0  0  0  0  0  0  0  0  0
  1  6  1  1  0  0  0
  2  1  1  0  0  0  0
  2  3  1  0  0  0  0
  2  7  1  1  0  0  0
  3  9  1  0  0  0  0
  4  5  1  0  0  0  0
  4  3  1  0  0  0  0
  5  1  1  0  0  0  0
  5 10  1  0  0  0  0
  8  3  1  0  0  0  0
 11  5  1  0  0  0  0
 12 14  1  0  0  0  0
 12 13  1  0  0  0  0
 12 15  1  1  0  0  0
 13 17  1  0  0  0  0
 14 18  1  6  0  0  0
 14 13  1  0  0  0  0
 14  2  1  0  0  0  0
 16 13  1  0  0  0  0
 19 20  1  0  0  0  0
 20 21  2  0  0  0  0
 20 26  1  0  0  0  0
 21 12  1  0  0  0  0
 22 21  1  0  0  0  0
 23 22  2  0  0  0  0
 24 23  1  0  0  0  0
 24 19  2  0  0  0  0
 25 19  1  0  0  0  0
 27 23  1  0  0  0  0
 28 29  1  0  0  0  0
 28  1  1  0  0  0  0
 29 31  1  0  0  0  0
 30 29  2  0  0  0  0
 31 33  1  0  0  0  0
 31 32  1  0  0  0  0
M  END
>  <minimizedAffinity>
-4.56516218

$$$$

 OpenBabel03262521363D

 33 35  0  0  1  0  0  0  0  0999 V2000
   37.2580   25.3910   32.2440 C   0  0  1  0  0  0  0  0  0  0  0  0
   37.5310   26.4850   33.2010 C   0  0  2  0  0  0  0  0  0  0  0  0
   38.2580   27.5220   32.3370 C   0  0  0  0  0  0  0  0  0  0  0  0
   39.0500   26.7190   31.5630 O   0  0  0  0  0  0  0  0  0  0  0  0
   38.3820   25.5500   31.2440 C   0  0  0  0  0  0  0  0  0  0  0  0
   36.2600   25.5700   31.7670 H   0  0  0  0  0  0  0  0  0  0  0  0
   36.5810   26.9880   33.4890 H   0  0  0  0  0  0  0  0  0  0  0  0
   38.9320   28.1610   32.9470 H   0  0  0  0  0  0  0  0  0  0  0  0
   37.5520   28.0870   31.7050 H   0  0  0  0  0  0  0  0  0  0  0  0
   37.9270   25.7050   30.2440 H   0  0  0  0  0  0  0  0  0  0  0  0
   39.0390   24.6640   31.1910 H   0  0  0  0  0  0  0  0  0  0  0  0
   37.6830   25.7340   35.6950 C   0  0  1  0  0  0  0  0  0  0  0  0
   38.1350   27.0960   35.5780 C   0  0  0  0  0  0  0  0  0  0  0  0
   38.3880   26.1390   34.4020 C   0  0  2  0  0  0  0  0  0  0  0  0
   36.6080   25.4740   35.5020 H   0  0  0  0  0  0  0  0  0  0  0  0
   39.0510   27.4600   36.0920 H   0  0  0  0  0  0  0  0  0  0  0  0
   37.3790   27.8850   35.4820 H   0  0  0  0  0  0  0  0  0  0  0  0
   39.4000   25.7980   34.1920 H   0  0  0  0  0  0  0  0  0  0  0  0
   38.7540   23.3880   38.4070 C   0  0  0  0  0  0  0  0  0  0  0  0
   38.0250   24.3640   37.7360 C   0  0  0  0  0  0  0  0  0  0  0  0
   38.4100   24.6920   36.4470 C   0  0  0  0  0  0  0  0  0  0  0  0
   39.4890   24.0380   35.9020 N   0  0  0  0  0  0  0  0  0  0  0  0
   40.1850   23.0900   36.5720 C   0  0  0  0  0  0  0  0  0  0  0  0
   39.8090   22.7610   37.8470 N   0  0  0  0  0  0  0  0  0  0  0  0
   38.3940   23.1820   39.4100 H   0  0  0  0  0  0  0  0  0  0  0  0
   37.1750   24.8840   38.1560 H   0  0  0  0  0  0  0  0  0  0  0  0
   41.0240   22.6200   36.0770 H   0  0  0  0  0  0  0  0  0  0  0  0
   37.2830   24.1250   32.8030 O   0  0  0  0  0  0  0  0  0  0  0  0
   36.6680   23.0800   32.0990 C   0  0  0  0  0  0  0  0  0  0  0  0
   37.1110   21.9170   32.1980 O   0  0  0  0  0  0  0  0  0  0  0  0
   35.5520   23.3090   31.2740 N   0  0  0  0  0  0  0  0  0  0  0  0
   34.9500   24.1680   31.4470 H   0  0  0  0  0  0  0  0  0  0  0  0
   35.3100   22.6490   30.5000 H   0  0  0  0  0  0  0  0  0  0  0  0
  1  6  1  6  0  0  0
  1 28  1  0  0  0  0
  1  2  1  0  0  0  0
  2  7  1  1  0  0  0
  2 14  1  0  0  0  0
  3  8  1  0  0  0  0
  3  2  1  0  0  0  0
  4  3  1  0  0  0  0
  5  4  1  0  0  0  0
  5  1  1  0  0  0  0
  9  3  1  0  0  0  0
 10  5  1  0  0  0  0
 11  5  1  0  0  0  0
 12 15  1  6  0  0  0
 12 21  1  0  0  0  0
 13 12  1  0  0  0  0
 13 16  1  0  0  0  0
 14 18  1  6  0  0  0
 14 13  1  0  0  0  0
 14 12  1  0  0  0  0
 17 13  1  0  0  0  0
 19 25  1  0  0  0  0
 20 26  1  0  0  0  0
 20 19  2  0  0  0  0
 21 20  1  0  0  0  0
 22 21  2  0  0  0  0
 22 23  1  0  0  0  0
 23 24  2  0  0  0  0
 24 19  1  0  0  0  0
 27 23  1  0  0  0  0
 29 30  2  0  0  0  0
 29 28  1  0  0  0  0
 31 32  1  0  0  0  0
 31 29  1  0  0  0  0
 33 31  1  0  0  0  0
M  END
>  <minimizedAffinity>
-4.47439098

$$$$

 OpenBabel03262521363D

 33 35  0  0  1  0  0  0  0  0999 V2000
   37.0740   25.5060   32.1940 C   0  0  1  0  0  0  0  0  0  0  0  0
   37.3680   26.5780   33.1690 C   0  0  2  0  0  0  0  0  0  0  0  0
   38.0380   27.6540   32.3060 C   0  0  0  0  0  0  0  0  0  0  0  0
   38.8100   26.8890   31.4750 O   0  0  0  0  0  0  0  0  0  0  0  0
   38.1500   25.7160   31.1510 C   0  0  0  0  0  0  0  0  0  0  0  0
   36.0530   25.6790   31.7650 H   0  0  0  0  0  0  0  0  0  0  0  0
   36.4230   27.0530   33.5130 H   0  0  0  0  0  0  0  0  0  0  0  0
   38.7260   28.2880   32.9040 H   0  0  0  0  0  0  0  0  0  0  0  0
   37.2940   28.2220   31.7220 H   0  0  0  0  0  0  0  0  0  0  0  0
   37.6490   25.8910   30.1760 H   0  0  0  0  0  0  0  0  0  0  0  0
   38.8200   24.8460   31.0430 H   0  0  0  0  0  0  0  0  0  0  0  0
   37.6440   25.8520   35.6600 C   0  0  1  0  0  0  0  0  0  0  0  0
   38.1380   27.1950   35.4970 C   0  0  0  0  0  0  0  0  0  0  0  0
   38.2840   26.2150   34.3210 C   0  0  2  0  0  0  0  0  0  0  0  0
   36.5510   25.6300   35.5370 H   0  0  0  0  0  0  0  0  0  0  0  0
   39.0960   27.5300   35.9490 H   0  0  0  0  0  0  0  0  0  0  0  0
   37.4070   28.0110   35.4350 H   0  0  0  0  0  0  0  0  0  0  0  0
   39.2670   25.8340   34.0560 H   0  0  0  0  0  0  0  0  0  0  0  0
   40.0850   23.1410   36.4960 C   0  0  0  0  0  0  0  0  0  0  0  0
   39.4390   24.1420   35.7790 C   0  0  0  0  0  0  0  0  0  0  0  0
   38.3770   24.7930   36.3830 C   0  0  0  0  0  0  0  0  0  0  0  0
   38.0190   24.4160   37.6560 N   0  0  0  0  0  0  0  0  0  0  0  0
   38.6610   23.4400   38.3370 C   0  0  0  0  0  0  0  0  0  0  0  0
   39.7120   22.7920   37.7450 N   0  0  0  0  0  0  0  0  0  0  0  0
   40.9070   22.6770   35.9610 H   0  0  0  0  0  0  0  0  0  0  0  0
   39.7130   24.4460   34.7780 H   0  0  0  0  0  0  0  0  0  0  0  0
   38.3210   23.1980   39.3350 H   0  0  0  0  0  0  0  0  0  0  0  0
   37.1470   24.2260   32.7130 O   0  0  0  0  0  0  0  0  0  0  0  0
   36.5190   23.1890   32.0070 C   0  0  0  0  0  0  0  0  0  0  0  0
   35.4730   23.4180   31.3660 O   0  0  0  0  0  0  0  0  0  0  0  0
   37.0410   21.8830   32.0040 N   0  0  0  0  0  0  0  0  0  0  0  0
   38.0730   21.7400   32.2170 H   0  0  0  0  0  0  0  0  0  0  0  0
   36.4310   21.0600   31.7960 H   0  0  0  0  0  0  0  0  0  0  0  0
  1  6  1  6  0  0  0
  1 28  1  0  0  0  0
  1  2  1  0  0  0  0
  2  7  1  1  0  0  0
  2 14  1  0  0  0  0
  3  8  1  0  0  0  0
  3  2  1  0  0  0  0
  4  3  1  0  0  0  0
  5  4  1  0  0  0  0
  5  1  1  0  0  0  0
  9  3  1  0  0  0  0
 10  5  1  0  0  0  0
 11  5  1  0  0  0  0
 12 15  1  6  0  0  0
 12 21  1  0  0  0  0
 13 12  1  0  0  0  0
 13 16  1  0  0  0  0
 14 18  1  6  0  0  0
 14 13  1  0  0  0  0
 14 12  1  0  0  0  0
 17 13  1  0  0  0  0
 19 24  1  0  0  0  0
 20 21  1  0  0  0  0
 20 19  2  0  0  0  0
 21 22  2  0  0  0  0
 22 23  1  0  0  0  0
 23 27  1  0  0  0  0
 24 23  2  0  0  0  0
 25 19  1  0  0  0  0
 26 20  1  0  0  0  0
 29 28  1  0  0  0  0
 30 29  2  0  0  0  0
 31 29  1  0  0  0  0
 31 32  1  0  0  0  0
 33 31  1  0  0  0  0
M  END
>  <minimizedAffinity>
-4.43461514

$$$$

 OpenBabel03262521363D

 33 35  0  0  1  0  0  0  0  0999 V2000
   39.1870   22.5510   36.4740 C   0  0  1  0  0  0  0  0  0  0  0  0
   39.4420   22.5560   35.0170 C   0  0  2  0  0  0  0  0  0  0  0  0
   40.9100   22.1240   34.9240 C   0  0  0  0  0  0  0  0  0  0  0  0
   41.4550   22.7940   35.9850 O   0  0  0  0  0  0  0  0  0  0  0  0
   40.5620   22.8270   37.0420 C   0  0  0  0  0  0  0  0  0  0  0  0
   38.8200   21.5340   36.7720 H   0  0  0  0  0  0  0  0  0  0  0  0
   38.8820   21.7280   34.5280 H   0  0  0  0  0  0  0  0  0  0  0  0
   41.3930   22.5160   34.0040 H   0  0  0  0  0  0  0  0  0  0  0  0
   41.0190   21.0360   35.0620 H   0  0  0  0  0  0  0  0  0  0  0  0
   40.8290   21.9820   37.7110 H   0  0  0  0  0  0  0  0  0  0  0  0
   40.6050   23.7600   37.6300 H   0  0  0  0  0  0  0  0  0  0  0  0
   37.9470   24.1160   33.5560 C   0  0  1  0  0  0  0  0  0  0  0  0
   39.0850   23.6880   32.7860 C   0  0  0  0  0  0  0  0  0  0  0  0
   39.2590   23.8790   34.3010 C   0  0  2  0  0  0  0  0  0  0  0  0
   37.1650   23.3770   33.8720 H   0  0  0  0  0  0  0  0  0  0  0  0
   39.6700   24.3910   32.1540 H   0  0  0  0  0  0  0  0  0  0  0  0
   39.0730   22.6740   32.3650 H   0  0  0  0  0  0  0  0  0  0  0  0
   39.8430   24.7160   34.6760 H   0  0  0  0  0  0  0  0  0  0  0  0
   37.1180   27.5360   34.8310 C   0  0  0  0  0  0  0  0  0  0  0  0
   37.5790   26.2250   34.8130 C   0  0  0  0  0  0  0  0  0  0  0  0
   37.4880   25.5180   33.6260 C   0  0  0  0  0  0  0  0  0  0  0  0
   36.9480   26.1500   32.5310 N   0  0  0  0  0  0  0  0  0  0  0  0
   36.5050   27.4280   32.5680 C   0  0  0  0  0  0  0  0  0  0  0  0
   36.5920   28.1310   33.7400 N   0  0  0  0  0  0  0  0  0  0  0  0
   37.2220   28.0270   35.7930 H   0  0  0  0  0  0  0  0  0  0  0  0
   38.0050   25.7190   35.6690 H   0  0  0  0  0  0  0  0  0  0  0  0
   36.0910   27.8570   31.6660 H   0  0  0  0  0  0  0  0  0  0  0  0
   38.2860   23.5110   36.9000 O   0  0  0  0  0  0  0  0  0  0  0  0
   38.0940   23.6720   38.2800 C   0  0  0  0  0  0  0  0  0  0  0  0
   38.0620   24.8170   38.7740 O   0  0  0  0  0  0  0  0  0  0  0  0
   37.9350   22.5640   39.1320 N   0  0  0  0  0  0  0  0  0  0  0  0
   37.6000   21.6420   38.7220 H   0  0  0  0  0  0  0  0  0  0  0  0
   38.1400   22.6380   40.1540 H   0  0  0  0  0  0  0  0  0  0  0  0
  1  6  1  1  0  0  0
  1 28  1  0  0  0  0
  1  5  1  0  0  0  0
  2  7  1  6  0  0  0
  2  1  1  0  0  0  0
  3  2  1  0  0  0  0
  3  9  1  0  0  0  0
  3  4  1  0  0  0  0
  4  5  1  0  0  0  0
  5 11  1  0  0  0  0
  5 10  1  0  0  0  0
  8  3  1  0  0  0  0
 12 21  1  0  0  0  0
 12 15  1  1  0  0  0
 12 14  1  0  0  0  0
 13 12  1  0  0  0  0
 13 14  1  0  0  0  0
 14 18  1  1  0  0  0
 14  2  1  0  0  0  0
 16 13  1  0  0  0  0
 17 13  1  0  0  0  0
 19 25  1  0  0  0  0
 20 19  1  0  0  0  0
 20 26  1  0  0  0  0
 21 20  2  0  0  0  0
 22 23  2  0  0  0  0
 22 21  1  0  0  0  0
 23 24  1  0  0  0  0
 24 19  2  0  0  0  0
 27 23  1  0  0  0  0
 28 29  1  0  0  0  0
 29 30  2  0  0  0  0
 29 31  1  0  0  0  0
 31 33  1  0  0  0  0
 32 31  1  0  0  0  0
M  END
>  <minimizedAffinity>
-4.41798115

$$$$

 OpenBabel03262521363D

 33 35  0  0  1  0  0  0  0  0999 V2000
   38.5150   23.2540   35.2280 C   0  0  1  0  0  0  0  0  0  0  0  0
   38.6910   24.4690   36.0530 C   0  0  2  0  0  0  0  0  0  0  0  0
   38.3770   23.9710   37.4680 C   0  0  0  0  0  0  0  0  0  0  0  0
   37.3240   23.1310   37.2300 O   0  0  0  0  0  0  0  0  0  0  0  0
   37.5040   22.4640   36.0300 C   0  0  0  0  0  0  0  0  0  0  0  0
   39.4950   22.7150   35.1660 H   0  0  0  0  0  0  0  0  0  0  0  0
   39.7670   24.7500   36.0950 H   0  0  0  0  0  0  0  0  0  0  0  0
   38.0030   24.7920   38.1160 H   0  0  0  0  0  0  0  0  0  0  0  0
   39.2250   23.4110   37.8960 H   0  0  0  0  0  0  0  0  0  0  0  0
   37.9580   21.4820   36.2770 H   0  0  0  0  0  0  0  0  0  0  0  0
   36.5650   22.2830   35.4800 H   0  0  0  0  0  0  0  0  0  0  0  0
   38.3240   26.6950   34.7430 C   0  0  1  0  0  0  0  0  0  0  0  0
   38.4340   26.9810   36.1500 C   0  0  0  0  0  0  0  0  0  0  0  0
   37.7990   25.6490   35.7230 C   0  0  2  0  0  0  0  0  0  0  0  0
   39.2080   26.3050   34.1730 H   0  0  0  0  0  0  0  0  0  0  0  0
   37.7450   27.6860   36.6650 H   0  0  0  0  0  0  0  0  0  0  0  0
   39.4340   26.9860   36.6010 H   0  0  0  0  0  0  0  0  0  0  0  0
   36.7290   25.4950   35.8500 H   0  0  0  0  0  0  0  0  0  0  0  0
   36.0500   27.2960   31.8320 C   0  0  0  0  0  0  0  0  0  0  0  0
   37.0440   26.7220   32.6170 C   0  0  0  0  0  0  0  0  0  0  0  0
   37.2690   27.2550   33.8750 C   0  0  0  0  0  0  0  0  0  0  0  0
   36.5000   28.3210   34.2790 N   0  0  0  0  0  0  0  0  0  0  0  0
   35.5360   28.8650   33.5000 C   0  0  0  0  0  0  0  0  0  0  0  0
   35.3100   28.3420   32.2550 N   0  0  0  0  0  0  0  0  0  0  0  0
   35.9290   26.8270   30.8610 H   0  0  0  0  0  0  0  0  0  0  0  0
   37.6540   25.8840   32.3080 H   0  0  0  0  0  0  0  0  0  0  0  0
   34.9730   29.7030   33.8870 H   0  0  0  0  0  0  0  0  0  0  0  0
   38.0380   23.4950   33.9520 O   0  0  0  0  0  0  0  0  0  0  0  0
   37.8460   22.3970   33.1000 C   0  0  0  0  0  0  0  0  0  0  0  0
   36.7580   22.2540   32.5050 O   0  0  0  0  0  0  0  0  0  0  0  0
   38.8590   21.4420   32.8960 N   0  0  0  0  0  0  0  0  0  0  0  0
   39.8700   21.7150   33.0790 H   0  0  0  0  0  0  0  0  0  0  0  0
   38.6290   20.4770   32.5670 H   0  0  0  0  0  0  0  0  0  0  0  0
  1  6  1  6  0  0  0
  1  5  1  0  0  0  0
  1  2  1  0  0  0  0
  2  7  1  6  0  0  0
  2  3  1  0  0  0  0
  3  9  1  0  0  0  0
  3  8  1  0  0  0  0
  4  3  1  0  0  0  0
  5 10  1  0  0  0  0
  5  4  1  0  0  0  0
 11  5  1  0  0  0  0
 12 15  1  6  0  0  0
 12 14  1  0  0  0  0
 12 13  1  0  0  0  0
 13 17  1  0  0  0  0
 13 16  1  0  0  0  0
 14 18  1  1  0  0  0
 14  2  1  0  0  0  0
 14 13  1  0  0  0  0
 19 24  2  0  0  0  0
 19 20  1  0  0  0  0
 20 21  2  0  0  0  0
 21 22  1  0  0  0  0
 21 12  1  0  0  0  0
 23 27  1  0  0  0  0
 23 22  2  0  0  0  0
 24 23  1  0  0  0  0
 25 19  1  0  0  0  0
 26 20  1  0  0  0  0
 28  1  1  0  0  0  0
 29 28  1  0  0  0  0
 30 29  2  0  0  0  0
 31 32  1  0  0  0  0
 31 29  1  0  0  0  0
 33 31  1  0  0  0  0
M  END
>  <minimizedAffinity>
-4.38825035

$$$$

 OpenBabel03262521363D

 33 35  0  0  1  0  0  0  0  0999 V2000
   38.6410   25.5080   36.2690 C   0  0  1  0  0  0  0  0  0  0  0  0
   39.4410   25.1760   35.0700 C   0  0  2  0  0  0  0  0  0  0  0  0
   40.0070   26.5370   34.6480 C   0  0  0  0  0  0  0  0  0  0  0  0
   38.9350   27.3560   34.8760 O   0  0  0  0  0  0  0  0  0  0  0  0
   38.2490   26.9460   36.0070 C   0  0  0  0  0  0  0  0  0  0  0  0
   39.2950   25.4230   37.1750 H   0  0  0  0  0  0  0  0  0  0  0  0
   40.3390   24.5860   35.3610 H   0  0  0  0  0  0  0  0  0  0  0  0
   40.2210   26.5700   33.5590 H   0  0  0  0  0  0  0  0  0  0  0  0
   40.8580   26.8340   35.2830 H   0  0  0  0  0  0  0  0  0  0  0  0
   38.6290   27.5600   36.8500 H   0  0  0  0  0  0  0  0  0  0  0  0
   37.1570   27.0890   35.9390 H   0  0  0  0  0  0  0  0  0  0  0  0
   38.7390   23.0380   33.7510 C   0  0  1  0  0  0  0  0  0  0  0  0
   39.6440   23.8190   32.9480 C   0  0  0  0  0  0  0  0  0  0  0  0
   38.6950   24.5570   33.9060 C   0  0  2  0  0  0  0  0  0  0  0  0
   39.0960   22.5470   34.6940 H   0  0  0  0  0  0  0  0  0  0  0  0
   39.4610   24.0090   31.8680 H   0  0  0  0  0  0  0  0  0  0  0  0
   40.7150   23.7670   33.1780 H   0  0  0  0  0  0  0  0  0  0  0  0
   37.8630   25.1310   33.5040 H   0  0  0  0  0  0  0  0  0  0  0  0
   35.6850   22.4350   31.6730 C   0  0  0  0  0  0  0  0  0  0  0  0
   36.8840   22.9930   32.1010 C   0  0  0  0  0  0  0  0  0  0  0  0
   37.4730   22.4720   33.2410 C   0  0  0  0  0  0  0  0  0  0  0  0
   36.8420   21.4350   33.8860 N   0  0  0  0  0  0  0  0  0  0  0  0
   35.6750   20.9060   33.4520 C   0  0  0  0  0  0  0  0  0  0  0  0
   35.0870   21.4170   32.3260 N   0  0  0  0  0  0  0  0  0  0  0  0
   35.2830   22.8920   30.7740 H   0  0  0  0  0  0  0  0  0  0  0  0
   37.3880   23.8080   31.6010 H   0  0  0  0  0  0  0  0  0  0  0  0
   35.2380   20.0910   34.0140 H   0  0  0  0  0  0  0  0  0  0  0  0
   37.5140   24.7230   36.4380 O   0  0  0  0  0  0  0  0  0  0  0  0
   37.5980   23.6220   37.3030 C   0  0  0  0  0  0  0  0  0  0  0  0
   38.0850   23.7640   38.4440 O   0  0  0  0  0  0  0  0  0  0  0  0
   37.1450   22.3490   36.9150 N   0  0  0  0  0  0  0  0  0  0  0  0
   36.4230   22.2720   36.1380 H   0  0  0  0  0  0  0  0  0  0  0  0
   37.5060   21.4850   37.3790 H   0  0  0  0  0  0  0  0  0  0  0  0
  1 28  1  0  0  0  0
  1  6  1  1  0  0  0
  2  7  1  1  0  0  0
  2  1  1  0  0  0  0
  3  4  1  0  0  0  0
  3  2  1  0  0  0  0
  3  9  1  0  0  0  0
  4  5  1  0  0  0  0
  5  1  1  0  0  0  0
  5 10  1  0  0  0  0
  8  3  1  0  0  0  0
 11  5  1  0  0  0  0
 12 14  1  0  0  0  0
 12 15  1  1  0  0  0
 13 17  1  0  0  0  0
 13 12  1  0  0  0  0
 13 14  1  0  0  0  0
 14 18  1  6  0  0  0
 14  2  1  0  0  0  0
 16 13  1  0  0  0  0
 19 20  2  0  0  0  0
 19 24  1  0  0  0  0
 20 21  1  0  0  0  0
 21 12  1  0  0  0  0
 21 22  2  0  0  0  0
 23 22  1  0  0  0  0
 23 27  1  0  0  0  0
 24 23  2  0  0  0  0
 25 19  1  0  0  0  0
 26 20  1  0  0  0  0
 28 29  1  0  0  0  0
 29 30  2  0  0  0  0
 31 29  1  0  0  0  0
 31 33  1  0  0  0  0
 32 31  1  0  0  0  0
M  END
>  <minimizedAffinity>
-4.37654638

$$$$

 OpenBabel03262521363D

 33 35  0  0  1  0  0  0  0  0999 V2000
   36.9050   28.0220   34.1000 C   0  0  1  0  0  0  0  0  0  0  0  0
   37.2360   27.7840   32.6780 C   0  0  2  0  0  0  0  0  0  0  0  0
   36.4720   28.9000   31.9570 C   0  0  0  0  0  0  0  0  0  0  0  0
   35.3030   28.9280   32.6670 O   0  0  0  0  0  0  0  0  0  0  0  0
   35.5500   28.6890   34.0080 C   0  0  0  0  0  0  0  0  0  0  0  0
   37.6710   28.7140   34.5370 H   0  0  0  0  0  0  0  0  0  0  0  0
   38.3070   28.0200   32.4890 H   0  0  0  0  0  0  0  0  0  0  0  0
   36.2170   28.6130   30.9150 H   0  0  0  0  0  0  0  0  0  0  0  0
   36.9950   29.8670   32.0420 H   0  0  0  0  0  0  0  0  0  0  0  0
   35.6260   29.6810   34.5000 H   0  0  0  0  0  0  0  0  0  0  0  0
   34.7530   28.1140   34.5100 H   0  0  0  0  0  0  0  0  0  0  0  0
   37.8560   25.3100   32.1290 C   0  0  1  0  0  0  0  0  0  0  0  0
   37.7070   26.0480   30.9020 C   0  0  0  0  0  0  0  0  0  0  0  0
   36.8310   26.4420   32.1020 C   0  0  2  0  0  0  0  0  0  0  0  0
   38.6970   25.5450   32.8340 H   0  0  0  0  0  0  0  0  0  0  0  0
   37.1510   25.6380   30.0310 H   0  0  0  0  0  0  0  0  0  0  0  0
   38.5280   26.7060   30.5910 H   0  0  0  0  0  0  0  0  0  0  0  0
   35.7650   26.2240   32.0870 H   0  0  0  0  0  0  0  0  0  0  0  0
   35.5850   22.3420   31.9240 C   0  0  0  0  0  0  0  0  0  0  0  0
   36.1290   23.5920   31.6520 C   0  0  0  0  0  0  0  0  0  0  0  0
   37.2480   23.9850   32.3660 C   0  0  0  0  0  0  0  0  0  0  0  0
   37.7600   23.1200   33.3040 N   0  0  0  0  0  0  0  0  0  0  0  0
   37.2160   21.9070   33.5540 C   0  0  0  0  0  0  0  0  0  0  0  0
   36.1090   21.5130   32.8510 N   0  0  0  0  0  0  0  0  0  0  0  0
   34.7120   22.1010   31.3260 H   0  0  0  0  0  0  0  0  0  0  0  0
   35.7340   24.2790   30.9160 H   0  0  0  0  0  0  0  0  0  0  0  0
   37.6750   21.2820   34.3090 H   0  0  0  0  0  0  0  0  0  0  0  0
   36.8280   26.8740   34.8680 O   0  0  0  0  0  0  0  0  0  0  0  0
   37.9150   26.5580   35.6970 C   0  0  0  0  0  0  0  0  0  0  0  0
   38.1870   25.3650   35.9390 O   0  0  0  0  0  0  0  0  0  0  0  0
   38.7150   27.5630   36.2690 N   0  0  0  0  0  0  0  0  0  0  0  0
   38.7440   28.5230   35.8120 H   0  0  0  0  0  0  0  0  0  0  0  0
   39.2770   27.3770   37.1310 H   0  0  0  0  0  0  0  0  0  0  0  0
  1  6  1  1  0  0  0
  1 28  1  0  0  0  0
  2  7  1  6  0  0  0
  2  1  1  0  0  0  0
  3  9  1  0  0  0  0
  3  4  1  0  0  0  0
  3  2  1  0  0  0  0
  4  5  1  0  0  0  0
  5  1  1  0  0  0  0
  5 10  1  0  0  0  0
  5 11  1  0  0  0  0
  8  3  1  0  0  0  0
 12 21  1  0  0  0  0
 12 15  1  1  0  0  0
 13 14  1  0  0  0  0
 13 12  1  0  0  0  0
 14 18  1  6  0  0  0
 14 12  1  0  0  0  0
 14  2  1  0  0  0  0
 16 13  1  0  0  0  0
 17 13  1  0  0  0  0
 19 24  1  0  0  0  0
 20 19  2  0  0  0  0
 20 21  1  0  0  0  0
 21 22  2  0  0  0  0
 22 23  1  0  0  0  0
 23 27  1  0  0  0  0
 24 23  2  0  0  0  0
 25 19  1  0  0  0  0
 26 20  1  0  0  0  0
 28 29  1  0  0  0  0
 29 30  2  0  0  0  0
 29 31  1  0  0  0  0
 31 33  1  0  0  0  0
 32 31  1  0  0  0  0
M  END
>  <minimizedAffinity>
-4.27836323

$$$$

 OpenBabel03262521363D

 33 35  0  0  1  0  0  0  0  0999 V2000
   38.7040   23.3610   35.2720 C   0  0  1  0  0  0  0  0  0  0  0  0
   38.7060   24.5560   36.1440 C   0  0  2  0  0  0  0  0  0  0  0  0
   38.2590   23.9920   37.4980 C   0  0  0  0  0  0  0  0  0  0  0  0
   37.2960   23.1000   37.1130 O   0  0  0  0  0  0  0  0  0  0  0  0
   37.6560   22.4870   35.9260 C   0  0  0  0  0  0  0  0  0  0  0  0
   39.7160   22.8830   35.3130 H   0  0  0  0  0  0  0  0  0  0  0  0
   39.7500   24.8980   36.3220 H   0  0  0  0  0  0  0  0  0  0  0  0
   37.7620   24.7670   38.1190 H   0  0  0  0  0  0  0  0  0  0  0  0
   39.0840   23.4680   38.0090 H   0  0  0  0  0  0  0  0  0  0  0  0
   38.1380   21.5250   36.1980 H   0  0  0  0  0  0  0  0  0  0  0  0
   36.8020   22.2700   35.2620 H   0  0  0  0  0  0  0  0  0  0  0  0
   38.3200   26.7350   34.7630 C   0  0  1  0  0  0  0  0  0  0  0  0
   38.3500   27.0580   36.1660 C   0  0  0  0  0  0  0  0  0  0  0  0
   37.7870   25.6920   35.7430 C   0  0  2  0  0  0  0  0  0  0  0  0
   39.2440   26.3650   34.2460 H   0  0  0  0  0  0  0  0  0  0  0  0
   37.6110   27.7470   36.6290 H   0  0  0  0  0  0  0  0  0  0  0  0
   39.3270   27.1120   36.6630 H   0  0  0  0  0  0  0  0  0  0  0  0
   36.7190   25.5000   35.8220 H   0  0  0  0  0  0  0  0  0  0  0  0
   35.5420   28.7450   33.2640 C   0  0  0  0  0  0  0  0  0  0  0  0
   36.5100   28.3270   34.1690 C   0  0  0  0  0  0  0  0  0  0  0  0
   37.2880   27.2330   33.8310 C   0  0  0  0  0  0  0  0  0  0  0  0
   37.0610   26.6200   32.6210 N   0  0  0  0  0  0  0  0  0  0  0  0
   36.1140   27.0430   31.7530 C   0  0  0  0  0  0  0  0  0  0  0  0
   35.3410   28.1240   32.0820 N   0  0  0  0  0  0  0  0  0  0  0  0
   34.9720   29.6070   33.5950 H   0  0  0  0  0  0  0  0  0  0  0  0
   36.6960   28.8020   35.1230 H   0  0  0  0  0  0  0  0  0  0  0  0
   35.9940   26.5090   30.8200 H   0  0  0  0  0  0  0  0  0  0  0  0
   38.3660   23.6180   33.9550 O   0  0  0  0  0  0  0  0  0  0  0  0
   39.3990   23.6790   33.0080 C   0  0  0  0  0  0  0  0  0  0  0  0
   40.3910   22.9310   33.1200 O   0  0  0  0  0  0  0  0  0  0  0  0
   39.3450   24.5720   31.9220 N   0  0  0  0  0  0  0  0  0  0  0  0
   38.4000   24.9380   31.6010 H   0  0  0  0  0  0  0  0  0  0  0  0
   40.2170   24.8750   31.4320 H   0  0  0  0  0  0  0  0  0  0  0  0
  1  6  1  1  0  0  0
  1  5  1  0  0  0  0
  1  2  1  0  0  0  0
  2  7  1  1  0  0  0
  2  3  1  0  0  0  0
  3  9  1  0  0  0  0
  3  8  1  0  0  0  0
  4  3  1  0  0  0  0
  5 10  1  0  0  0  0
  5  4  1  0  0  0  0
 11  5  1  0  0  0  0
 12 15  1  6  0  0  0
 12 14  1  0  0  0  0
 12 13  1  0  0  0  0
 13 16  1  0  0  0  0
 13 17  1  0  0  0  0
 14 18  1  1  0  0  0
 14  2  1  0  0  0  0
 14 13  1  0  0  0  0
 19 25  1  0  0  0  0
 19 20  1  0  0  0  0
 20 26  1  0  0  0  0
 21 20  2  0  0  0  0
 21 12  1  0  0  0  0
 22 21  1  0  0  0  0
 23 24  1  0  0  0  0
 23 22  2  0  0  0  0
 24 19  2  0  0  0  0
 27 23  1  0  0  0  0
 28  1  1  0  0  0  0
 29 30  2  0  0  0  0
 29 28  1  0  0  0  0
 31 29  1  0  0  0  0
 32 31  1  0  0  0  0
 33 31  1  0  0  0  0
M  END
>  <minimizedAffinity>
-4.25211239

$$$$
