
 OpenBabel03272501043D

 26 27  0  0  1  0  0  0  0  0999 V2000
   38.4780   31.5030   47.7090 C   0  0  2  0  0  0  0  0  0  0  0  0
   37.5850   32.1420   48.8020 C   0  0  2  0  0  0  0  0  0  0  0  0
   38.5860   33.0230   49.4280 C   0  0  0  0  0  0  0  0  0  0  0  0
   39.3610   33.5450   48.3940 O   0  0  0  0  0  0  0  0  0  0  0  0
   39.1980   32.7780   47.2830 C   0  0  0  0  0  0  0  0  0  0  0  0
   39.1210   30.7670   48.1890 H   0  0  0  0  0  0  0  0  0  0  0  0
   36.7910   32.7320   48.2600 H   0  0  0  0  0  0  0  0  0  0  0  0
   38.1540   33.8110   50.0790 H   0  0  0  0  0  0  0  0  0  0  0  0
   39.2860   32.3640   50.0190 H   0  0  0  0  0  0  0  0  0  0  0  0
   38.4750   33.3250   46.6100 H   0  0  0  0  0  0  0  0  0  0  0  0
   40.1100   32.5830   46.7210 H   0  0  0  0  0  0  0  0  0  0  0  0
   36.9380   29.6500   51.5550 C   0  0  0  0  0  0  0  0  0  0  0  0
   37.6010   30.6190   50.7610 C   0  0  0  0  0  0  0  0  0  0  0  0
   36.9440   31.1660   49.6420 C   0  0  0  0  0  0  0  0  0  0  0  0
   35.6730   30.7170   49.3760 N   0  0  0  0  0  0  0  0  0  0  0  0
   35.0690   29.8010   50.1400 C   0  0  0  0  0  0  0  0  0  0  0  0
   35.6830   29.2570   51.2300 N   0  0  0  0  0  0  0  0  0  0  0  0
   37.5390   29.3050   52.3850 H   0  0  0  0  0  0  0  0  0  0  0  0
   38.6190   30.9500   51.0100 H   0  0  0  0  0  0  0  0  0  0  0  0
   34.0660   29.4550   49.9190 H   0  0  0  0  0  0  0  0  0  0  0  0
   37.6920   31.0090   46.6630 O   0  0  0  0  0  0  0  0  0  0  0  0
   38.2670   30.7570   45.4320 C   0  0  0  0  0  0  0  0  0  0  0  0
   39.2420   30.0280   45.1550 O   0  0  0  0  0  0  0  0  0  0  0  0
   37.6330   31.4450   44.3360 N   0  0  0  0  0  0  0  0  0  0  0  0
   37.5050   31.1710   43.3350 H   0  0  0  0  0  0  0  0  0  0  0  0
   37.1590   32.3740   44.2950 H   0  0  0  0  0  0  0  0  0  0  0  0
  1  6  1  1  0  0  0
  1  2  1  0  0  0  0
  2  7  1  6  0  0  0
  2  3  1  0  0  0  0
  2 14  1  0  0  0  0
  3  9  1  0  0  0  0
  3  8  1  0  0  0  0
  4  3  1  0  0  0  0
  5  1  1  0  0  0  0
  5  4  1  0  0  0  0
 10  5  1  0  0  0  0
 11  5  1  0  0  0  0
 12 18  1  0  0  0  0
 13 19  1  0  0  0  0
 13 12  2  0  0  0  0
 14 13  1  0  0  0  0
 15 14  2  0  0  0  0
 15 16  1  0  0  0  0
 16 17  2  0  0  0  0
 17 12  1  0  0  0  0
 20 16  1  0  0  0  0
 21  1  1  0  0  0  0
 22 21  1  0  0  0  0
 23 22  2  0  0  0  0
 24 22  1  0  0  0  0
 25 24  1  0  0  0  0
 26 24  1  0  0  0  0
M  END
>  <minimizedAffinity>
-4.76246262

>  <minimizedRMSD>
1.7287848

$$$$
