
 OpenBabel03272509193D

 29 30  0  0  0  0  0  0  0  0999 V2000
   37.8650   25.3790   34.0810 C   0  0  0  0  0  0  0  0  0  0  0  0
   38.6360   25.4920   35.2270 C   0  0  0  0  0  0  0  0  0  0  0  0
   38.5630   26.7570   35.8310 C   0  0  0  0  0  0  0  0  0  0  0  0
   37.7720   27.7790   35.2920 C   0  0  0  0  0  0  0  0  0  0  0  0
   37.0370   27.5530   34.1360 C   0  0  0  0  0  0  0  0  0  0  0  0
   37.0870   26.3160   33.5140 C   0  0  0  0  0  0  0  0  0  0  0  0
   39.1300   26.9490   36.7340 H   0  0  0  0  0  0  0  0  0  0  0  0
   37.7410   28.7490   35.7910 H   0  0  0  0  0  0  0  0  0  0  0  0
   36.4460   28.3840   33.7710 H   0  0  0  0  0  0  0  0  0  0  0  0
   40.7460   24.2550   35.3020 C   0  0  0  0  0  0  0  0  0  0  0  0
   39.4400   24.4470   35.7710 C   0  0  0  0  0  0  0  0  0  0  0  0
   38.9620   23.5900   36.7760 C   0  0  0  0  0  0  0  0  0  0  0  0
   39.8040   22.6170   37.2370 N   0  0  0  0  0  0  0  0  0  0  0  0
   41.0630   22.4680   36.7510 C   0  0  0  0  0  0  0  0  0  0  0  0
   41.5330   23.2810   35.7890 N   0  0  0  0  0  0  0  0  0  0  0  0
   41.0960   24.9230   34.5280 H   0  0  0  0  0  0  0  0  0  0  0  0
   41.7210   21.6930   37.1240 H   0  0  0  0  0  0  0  0  0  0  0  0
   37.5950   23.7490   37.3050 C   0  0  0  0  0  0  0  0  0  0  0  0
   37.2070   24.7310   36.9700 H   0  0  0  0  0  0  0  0  0  0  0  0
   36.9390   22.9790   36.8470 H   0  0  0  0  0  0  0  0  0  0  0  0
   37.5550   23.6490   38.4170 H   0  0  0  0  0  0  0  0  0  0  0  0
   37.8820   24.1310   33.4070 O   0  0  0  0  0  0  0  0  0  0  0  0
   37.0000   23.6190   33.5250 H   0  0  0  0  0  0  0  0  0  0  0  0
   36.3470   26.1090   32.3590 O   0  0  0  0  0  0  0  0  0  0  0  0
   36.9900   26.3710   31.1350 C   0  0  0  0  0  0  0  0  0  0  0  0
   38.0900   25.9380   30.7360 O   0  0  0  0  0  0  0  0  0  0  0  0
   36.2780   27.2390   30.2660 N   0  0  0  0  0  0  0  0  0  0  0  0
   36.7130   28.1920   30.3710 H   0  0  0  0  0  0  0  0  0  0  0  0
   35.7230   27.8250   29.6130 H   0  0  0  0  0  0  0  0  0  0  0  0
  1  2  1  0  0  0  0
  2 11  1  0  0  0  0
  2  3  2  0  0  0  0
  3  7  1  0  0  0  0
  4  8  1  0  0  0  0
  4  3  1  0  0  0  0
  5  4  2  0  0  0  0
  6  1  2  0  0  0  0
  6  5  1  0  0  0  0
  9  5  1  0  0  0  0
 10 11  2  0  0  0  0
 10 15  1  0  0  0  0
 11 12  1  0  0  0  0
 12 13  2  0  0  0  0
 12 18  1  0  0  0  0
 14 17  1  0  0  0  0
 14 13  1  0  0  0  0
 15 14  2  0  0  0  0
 16 10  1  0  0  0  0
 18 21  1  0  0  0  0
 19 18  1  0  0  0  0
 20 18  1  0  0  0  0
 22 23  1  0  0  0  0
 22  1  1  0  0  0  0
 24  6  1  0  0  0  0
 25 24  1  0  0  0  0
 26 25  2  0  0  0  0
 27 28  1  0  0  0  0
 27 25  1  0  0  0  0
 29 27  1  0  0  0  0
M  END
>  <minimizedAffinity>
-4.99453259

$$$$

 OpenBabel03272509193D

 29 30  0  0  0  0  0  0  0  0999 V2000
   39.7460   25.0860   34.9670 C   0  0  0  0  0  0  0  0  0  0  0  0
   39.8420   26.4060   34.5570 C   0  0  0  0  0  0  0  0  0  0  0  0
   39.0320   27.2840   35.2940 C   0  0  0  0  0  0  0  0  0  0  0  0
   38.2190   26.8250   36.3370 C   0  0  0  0  0  0  0  0  0  0  0  0
   38.2010   25.4750   36.6630 C   0  0  0  0  0  0  0  0  0  0  0  0
   38.9890   24.5820   35.9550 C   0  0  0  0  0  0  0  0  0  0  0  0
   39.0350   28.3390   35.0520 H   0  0  0  0  0  0  0  0  0  0  0  0
   37.6030   27.5390   36.8870 H   0  0  0  0  0  0  0  0  0  0  0  0
   37.5510   25.1860   37.4790 H   0  0  0  0  0  0  0  0  0  0  0  0
   42.0200   27.1670   33.7390 C   0  0  0  0  0  0  0  0  0  0  0  0
   40.6740   26.8670   33.4930 C   0  0  0  0  0  0  0  0  0  0  0  0
   40.1830   27.0320   32.1880 C   0  0  0  0  0  0  0  0  0  0  0  0
   41.0530   27.4790   31.2320 N   0  0  0  0  0  0  0  0  0  0  0  0
   42.3510   27.7580   31.5180 C   0  0  0  0  0  0  0  0  0  0  0  0
   42.8330   27.6040   32.7630 N   0  0  0  0  0  0  0  0  0  0  0  0
   42.3790   27.0350   34.7490 H   0  0  0  0  0  0  0  0  0  0  0  0
   43.0310   28.1110   30.7520 H   0  0  0  0  0  0  0  0  0  0  0  0
   38.7750   26.7290   31.8750 C   0  0  0  0  0  0  0  0  0  0  0  0
   38.3460   26.1610   32.7240 H   0  0  0  0  0  0  0  0  0  0  0  0
   38.2050   27.6820   31.8160 H   0  0  0  0  0  0  0  0  0  0  0  0
   38.6620   26.1770   30.9110 H   0  0  0  0  0  0  0  0  0  0  0  0
   40.5330   24.1310   34.2730 O   0  0  0  0  0  0  0  0  0  0  0  0
   41.3180   23.7930   34.8430 H   0  0  0  0  0  0  0  0  0  0  0  0
   38.9580   23.2370   36.2950 O   0  0  0  0  0  0  0  0  0  0  0  0
   39.7030   22.8490   37.4250 C   0  0  0  0  0  0  0  0  0  0  0  0
   40.9280   22.6280   37.5000 O   0  0  0  0  0  0  0  0  0  0  0  0
   38.9410   22.6970   38.6130 N   0  0  0  0  0  0  0  0  0  0  0  0
   38.7670   21.6650   38.7280 H   0  0  0  0  0  0  0  0  0  0  0  0
   38.3860   22.6470   39.4890 H   0  0  0  0  0  0  0  0  0  0  0  0
  1  6  1  0  0  0  0
  2  1  2  0  0  0  0
  2  3  1  0  0  0  0
  3  4  2  0  0  0  0
  4  5  1  0  0  0  0
  4  8  1  0  0  0  0
  5  9  1  0  0  0  0
  6 24  1  0  0  0  0
  6  5  2  0  0  0  0
  7  3  1  0  0  0  0
 10 16  1  0  0  0  0
 11 10  1  0  0  0  0
 11  2  1  0  0  0  0
 12 11  2  0  0  0  0
 13 14  2  0  0  0  0
 13 12  1  0  0  0  0
 14 15  1  0  0  0  0
 15 10  2  0  0  0  0
 17 14  1  0  0  0  0
 18 12  1  0  0  0  0
 18 19  1  0  0  0  0
 20 18  1  0  0  0  0
 21 18  1  0  0  0  0
 22 23  1  0  0  0  0
 22  1  1  0  0  0  0
 24 25  1  0  0  0  0
 25 26  2  0  0  0  0
 25 27  1  0  0  0  0
 27 28  1  0  0  0  0
 27 29  1  0  0  0  0
M  END
>  <minimizedAffinity>
-4.92497921

$$$$

 OpenBabel03272509193D

 29 30  0  0  0  0  0  0  0  0999 V2000
   33.0670   30.1350   35.2430 C   0  0  0  0  0  0  0  0  0  0  0  0
   34.2300   30.6990   34.7460 C   0  0  0  0  0  0  0  0  0  0  0  0
   34.8240   31.6250   35.6190 C   0  0  0  0  0  0  0  0  0  0  0  0
   34.2580   31.9190   36.8660 C   0  0  0  0  0  0  0  0  0  0  0  0
   33.0850   31.2900   37.2630 C   0  0  0  0  0  0  0  0  0  0  0  0
   32.4740   30.3720   36.4250 C   0  0  0  0  0  0  0  0  0  0  0  0
   35.7390   32.1230   35.3240 H   0  0  0  0  0  0  0  0  0  0  0  0
   34.7490   32.6440   37.5170 H   0  0  0  0  0  0  0  0  0  0  0  0
   32.7000   31.5620   38.2380 H   0  0  0  0  0  0  0  0  0  0  0  0
   34.4230   31.1330   32.3450 C   0  0  0  0  0  0  0  0  0  0  0  0
   34.8010   30.3950   33.4740 C   0  0  0  0  0  0  0  0  0  0  0  0
   35.7440   29.3670   33.3120 C   0  0  0  0  0  0  0  0  0  0  0  0
   36.2370   29.1470   32.0560 N   0  0  0  0  0  0  0  0  0  0  0  0
   35.8400   29.8890   30.9890 C   0  0  0  0  0  0  0  0  0  0  0  0
   34.9380   30.8760   31.1310 N   0  0  0  0  0  0  0  0  0  0  0  0
   33.6970   31.9190   32.4900 H   0  0  0  0  0  0  0  0  0  0  0  0
   36.2380   29.7060   29.9990 H   0  0  0  0  0  0  0  0  0  0  0  0
   36.1770   28.5600   34.4670 C   0  0  0  0  0  0  0  0  0  0  0  0
   35.8420   29.0720   35.3910 H   0  0  0  0  0  0  0  0  0  0  0  0
   35.6500   27.5820   34.4430 H   0  0  0  0  0  0  0  0  0  0  0  0
   37.2790   28.3810   34.4730 H   0  0  0  0  0  0  0  0  0  0  0  0
   32.4020   29.1880   34.4220 O   0  0  0  0  0  0  0  0  0  0  0  0
   32.5010   28.2310   34.7820 H   0  0  0  0  0  0  0  0  0  0  0  0
   31.3020   29.7540   36.8380 O   0  0  0  0  0  0  0  0  0  0  0  0
   31.4210   28.4560   37.3690 C   0  0  0  0  0  0  0  0  0  0  0  0
   31.4110   27.3700   36.7550 O   0  0  0  0  0  0  0  0  0  0  0  0
   31.5690   28.4040   38.7800 N   0  0  0  0  0  0  0  0  0  0  0  0
   30.6210   28.1680   39.1730 H   0  0  0  0  0  0  0  0  0  0  0  0
   31.7370   28.3790   39.8040 H   0  0  0  0  0  0  0  0  0  0  0  0
  1  6  1  0  0  0  0
  2  1  2  0  0  0  0
  2  3  1  0  0  0  0
  3  4  2  0  0  0  0
  4  5  1  0  0  0  0
  4  8  1  0  0  0  0
  5  9  1  0  0  0  0
  6 24  1  0  0  0  0
  6  5  2  0  0  0  0
  7  3  1  0  0  0  0
 10 16  1  0  0  0  0
 10 11  1  0  0  0  0
 11  2  1  0  0  0  0
 12 11  2  0  0  0  0
 12 18  1  0  0  0  0
 13 12  1  0  0  0  0
 14 15  1  0  0  0  0
 14 13  2  0  0  0  0
 15 10  2  0  0  0  0
 17 14  1  0  0  0  0
 18 21  1  0  0  0  0
 18 19  1  0  0  0  0
 20 18  1  0  0  0  0
 22 23  1  0  0  0  0
 22  1  1  0  0  0  0
 24 25  1  0  0  0  0
 25 27  1  0  0  0  0
 26 25  2  0  0  0  0
 27 28  1  0  0  0  0
 27 29  1  0  0  0  0
M  END
>  <minimizedAffinity>
-4.80632067

$$$$

 OpenBabel03272509193D

 29 30  0  0  0  0  0  0  0  0999 V2000
   39.3050   23.6090   35.6020 C   0  0  0  0  0  0  0  0  0  0  0  0
   38.6150   24.8040   35.4750 C   0  0  0  0  0  0  0  0  0  0  0  0
   37.9880   25.2210   36.6600 C   0  0  0  0  0  0  0  0  0  0  0  0
   38.0790   24.4670   37.8370 C   0  0  0  0  0  0  0  0  0  0  0  0
   38.8000   23.2800   37.8490 C   0  0  0  0  0  0  0  0  0  0  0  0
   39.4310   22.8410   36.6970 C   0  0  0  0  0  0  0  0  0  0  0  0
   37.4230   26.1440   36.6670 H   0  0  0  0  0  0  0  0  0  0  0  0
   37.5780   24.8240   38.7390 H   0  0  0  0  0  0  0  0  0  0  0  0
   38.8310   22.7450   38.7910 H   0  0  0  0  0  0  0  0  0  0  0  0
   37.4310   25.3980   33.4170 C   0  0  0  0  0  0  0  0  0  0  0  0
   38.5270   25.5670   34.2730 C   0  0  0  0  0  0  0  0  0  0  0  0
   39.5150   26.4970   33.9110 C   0  0  0  0  0  0  0  0  0  0  0  0
   39.3470   27.1820   32.7400 N   0  0  0  0  0  0  0  0  0  0  0  0
   38.2660   26.9840   31.9420 C   0  0  0  0  0  0  0  0  0  0  0  0
   37.3130   26.0970   32.2770 N   0  0  0  0  0  0  0  0  0  0  0  0
   36.6810   24.6780   33.7130 H   0  0  0  0  0  0  0  0  0  0  0  0
   38.1430   27.5330   31.0170 H   0  0  0  0  0  0  0  0  0  0  0  0
   40.6900   26.7140   34.7750 C   0  0  0  0  0  0  0  0  0  0  0  0
   40.4860   26.2460   35.7590 H   0  0  0  0  0  0  0  0  0  0  0  0
   41.5600   26.1730   34.3450 H   0  0  0  0  0  0  0  0  0  0  0  0
   40.9470   27.7960   34.8790 H   0  0  0  0  0  0  0  0  0  0  0  0
   39.9680   23.1160   34.4490 O   0  0  0  0  0  0  0  0  0  0  0  0
   40.9880   23.2080   34.5230 H   0  0  0  0  0  0  0  0  0  0  0  0
   40.1470   21.6530   36.7280 O   0  0  0  0  0  0  0  0  0  0  0  0
   41.5100   21.7410   37.0660 C   0  0  0  0  0  0  0  0  0  0  0  0
   42.3240   22.6330   36.7530 O   0  0  0  0  0  0  0  0  0  0  0  0
   41.9940   20.6680   37.8610 N   0  0  0  0  0  0  0  0  0  0  0  0
   42.4920   20.0110   37.2060 H   0  0  0  0  0  0  0  0  0  0  0  0
   42.3230   19.9120   38.4910 H   0  0  0  0  0  0  0  0  0  0  0  0
  1  6  1  0  0  0  0
  2  1  2  0  0  0  0
  2  3  1  0  0  0  0
  3  7  1  0  0  0  0
  3  4  2  0  0  0  0
  4  5  1  0  0  0  0
  4  8  1  0  0  0  0
  5  9  1  0  0  0  0
  6 24  1  0  0  0  0
  6  5  2  0  0  0  0
 10 16  1  0  0  0  0
 10 11  1  0  0  0  0
 11  2  1  0  0  0  0
 12 11  2  0  0  0  0
 12 18  1  0  0  0  0
 13 12  1  0  0  0  0
 14 15  1  0  0  0  0
 14 13  2  0  0  0  0
 15 10  2  0  0  0  0
 17 14  1  0  0  0  0
 18 21  1  0  0  0  0
 18 19  1  0  0  0  0
 20 18  1  0  0  0  0
 22 23  1  0  0  0  0
 22  1  1  0  0  0  0
 24 25  1  0  0  0  0
 25 27  1  0  0  0  0
 26 25  2  0  0  0  0
 27 29  1  0  0  0  0
 28 27  1  0  0  0  0
M  END
>  <minimizedAffinity>
-4.79338217

$$$$

 OpenBabel03272509193D

 29 30  0  0  0  0  0  0  0  0999 V2000
   35.6030   29.8840   32.7810 C   0  0  0  0  0  0  0  0  0  0  0  0
   35.6470   29.6800   34.1500 C   0  0  0  0  0  0  0  0  0  0  0  0
   36.3140   28.5030   34.5240 C   0  0  0  0  0  0  0  0  0  0  0  0
   36.8690   27.6450   33.5660 C   0  0  0  0  0  0  0  0  0  0  0  0
   36.7660   27.9490   32.2160 C   0  0  0  0  0  0  0  0  0  0  0  0
   36.1130   29.1030   31.8130 C   0  0  0  0  0  0  0  0  0  0  0  0
   36.4030   28.2520   35.5730 H   0  0  0  0  0  0  0  0  0  0  0  0
   37.3810   26.7390   33.8960 H   0  0  0  0  0  0  0  0  0  0  0  0
   37.2160   27.2440   31.5270 H   0  0  0  0  0  0  0  0  0  0  0  0
   35.8800   31.5290   35.7380 C   0  0  0  0  0  0  0  0  0  0  0  0
   35.0790   30.5600   35.1200 C   0  0  0  0  0  0  0  0  0  0  0  0
   33.7240   30.4870   35.4830 C   0  0  0  0  0  0  0  0  0  0  0  0
   33.2680   31.3710   36.4210 N   0  0  0  0  0  0  0  0  0  0  0  0
   34.0830   32.2940   36.9930 C   0  0  0  0  0  0  0  0  0  0  0  0
   35.3810   32.3740   36.6550 N   0  0  0  0  0  0  0  0  0  0  0  0
   36.9190   31.5690   35.4460 H   0  0  0  0  0  0  0  0  0  0  0  0
   33.7100   32.9890   37.7360 H   0  0  0  0  0  0  0  0  0  0  0  0
   32.8370   29.4860   34.8630 C   0  0  0  0  0  0  0  0  0  0  0  0
   33.3550   29.0660   33.9790 H   0  0  0  0  0  0  0  0  0  0  0  0
   32.6930   28.6430   35.5730 H   0  0  0  0  0  0  0  0  0  0  0  0
   31.8390   29.9100   34.5930 H   0  0  0  0  0  0  0  0  0  0  0  0
   34.9450   31.0520   32.3180 O   0  0  0  0  0  0  0  0  0  0  0  0
   35.6070   31.7500   31.9600 H   0  0  0  0  0  0  0  0  0  0  0  0
   36.0200   29.3910   30.4600 O   0  0  0  0  0  0  0  0  0  0  0  0
   37.2000   29.2750   29.7020 C   0  0  0  0  0  0  0  0  0  0  0  0
   38.2420   29.9560   29.7910 O   0  0  0  0  0  0  0  0  0  0  0  0
   37.1750   28.2490   28.7200 N   0  0  0  0  0  0  0  0  0  0  0  0
   36.9710   28.7190   27.8010 H   0  0  0  0  0  0  0  0  0  0  0  0
   37.1700   27.4590   28.0480 H   0  0  0  0  0  0  0  0  0  0  0  0
  1  2  1  0  0  0  0
  2  3  2  0  0  0  0
  2 11  1  0  0  0  0
  3  7  1  0  0  0  0
  4  8  1  0  0  0  0
  4  3  1  0  0  0  0
  5  4  2  0  0  0  0
  6  5  1  0  0  0  0
  6  1  2  0  0  0  0
  9  5  1  0  0  0  0
 10 15  1  0  0  0  0
 11 12  1  0  0  0  0
 11 10  2  0  0  0  0
 12 13  2  0  0  0  0
 13 14  1  0  0  0  0
 14 17  1  0  0  0  0
 15 14  2  0  0  0  0
 16 10  1  0  0  0  0
 18 12  1  0  0  0  0
 18 20  1  0  0  0  0
 19 18  1  0  0  0  0
 21 18  1  0  0  0  0
 22  1  1  0  0  0  0
 23 22  1  0  0  0  0
 24  6  1  0  0  0  0
 25 26  2  0  0  0  0
 25 24  1  0  0  0  0
 27 25  1  0  0  0  0
 28 27  1  0  0  0  0
 29 27  1  0  0  0  0
M  END
>  <minimizedAffinity>
-4.74715757

$$$$

 OpenBabel03272509193D

 29 30  0  0  0  0  0  0  0  0999 V2000
   38.2830   24.6660   33.5110 C   0  0  0  0  0  0  0  0  0  0  0  0
   38.8800   25.1500   34.6640 C   0  0  0  0  0  0  0  0  0  0  0  0
   39.4860   26.4050   34.5010 C   0  0  0  0  0  0  0  0  0  0  0  0
   39.4640   27.0710   33.2680 C   0  0  0  0  0  0  0  0  0  0  0  0
   38.8330   26.4900   32.1760 C   0  0  0  0  0  0  0  0  0  0  0  0
   38.2260   25.2520   32.3040 C   0  0  0  0  0  0  0  0  0  0  0  0
   39.9810   26.8710   35.3430 H   0  0  0  0  0  0  0  0  0  0  0  0
   39.9450   28.0460   33.1800 H   0  0  0  0  0  0  0  0  0  0  0  0
   38.8520   27.0570   31.2530 H   0  0  0  0  0  0  0  0  0  0  0  0
   37.9170   24.7400   36.8770 C   0  0  0  0  0  0  0  0  0  0  0  0
   38.9000   24.4660   35.9170 C   0  0  0  0  0  0  0  0  0  0  0  0
   39.8830   23.5130   36.2260 C   0  0  0  0  0  0  0  0  0  0  0  0
   39.8220   22.9080   37.4500 N   0  0  0  0  0  0  0  0  0  0  0  0
   38.8500   23.2060   38.3500 C   0  0  0  0  0  0  0  0  0  0  0  0
   37.9020   24.1170   38.0670 N   0  0  0  0  0  0  0  0  0  0  0  0
   37.1690   25.4760   36.6210 H   0  0  0  0  0  0  0  0  0  0  0  0
   38.8120   22.7210   39.3170 H   0  0  0  0  0  0  0  0  0  0  0  0
   40.9400   23.1870   35.2510 C   0  0  0  0  0  0  0  0  0  0  0  0
   40.6450   23.6030   34.2680 H   0  0  0  0  0  0  0  0  0  0  0  0
   41.8760   23.7090   35.5450 H   0  0  0  0  0  0  0  0  0  0  0  0
   41.1390   22.0890   35.1900 H   0  0  0  0  0  0  0  0  0  0  0  0
   37.6470   23.4000   33.5910 O   0  0  0  0  0  0  0  0  0  0  0  0
   36.6240   23.4820   33.5630 H   0  0  0  0  0  0  0  0  0  0  0  0
   37.6010   24.6870   31.2010 O   0  0  0  0  0  0  0  0  0  0  0  0
   36.2010   24.8070   31.1340 C   0  0  0  0  0  0  0  0  0  0  0  0
   35.3390   24.0370   31.6050 O   0  0  0  0  0  0  0  0  0  0  0  0
   35.7360   25.9540   30.4380 N   0  0  0  0  0  0  0  0  0  0  0  0
   35.4690   25.6310   29.4720 H   0  0  0  0  0  0  0  0  0  0  0  0
   35.4080   26.8260   29.9800 H   0  0  0  0  0  0  0  0  0  0  0  0
  1 22  1  0  0  0  0
  1  2  1  0  0  0  0
  2 11  1  0  0  0  0
  3  2  2  0  0  0  0
  3  7  1  0  0  0  0
  4  3  1  0  0  0  0
  5  6  1  0  0  0  0
  5  4  2  0  0  0  0
  6  1  2  0  0  0  0
  8  4  1  0  0  0  0
  9  5  1  0  0  0  0
 10 15  1  0  0  0  0
 11 12  1  0  0  0  0
 11 10  2  0  0  0  0
 12 13  2  0  0  0  0
 13 14  1  0  0  0  0
 14 17  1  0  0  0  0
 15 14  2  0  0  0  0
 16 10  1  0  0  0  0
 18 20  1  0  0  0  0
 18 12  1  0  0  0  0
 19 18  1  0  0  0  0
 21 18  1  0  0  0  0
 23 22  1  0  0  0  0
 24  6  1  0  0  0  0
 25 24  1  0  0  0  0
 25 26  2  0  0  0  0
 27 25  1  0  0  0  0
 28 27  1  0  0  0  0
 29 27  1  0  0  0  0
M  END
>  <minimizedAffinity>
-4.69332838

$$$$

 OpenBabel03272509193D

 29 30  0  0  0  0  0  0  0  0999 V2000
   39.7530   24.3900   34.8800 C   0  0  0  0  0  0  0  0  0  0  0  0
   39.8500   25.6680   34.3540 C   0  0  0  0  0  0  0  0  0  0  0  0
   41.1510   26.1940   34.3910 C   0  0  0  0  0  0  0  0  0  0  0  0
   42.2200   25.4590   34.9190 C   0  0  0  0  0  0  0  0  0  0  0  0
   42.0060   24.1830   35.4210 C   0  0  0  0  0  0  0  0  0  0  0  0
   40.7340   23.6340   35.4000 C   0  0  0  0  0  0  0  0  0  0  0  0
   41.3340   27.1880   34.0030 H   0  0  0  0  0  0  0  0  0  0  0  0
   43.2180   25.9020   34.9300 H   0  0  0  0  0  0  0  0  0  0  0  0
   42.8740   23.6680   35.8150 H   0  0  0  0  0  0  0  0  0  0  0  0
   38.4580   26.3260   32.4510 C   0  0  0  0  0  0  0  0  0  0  0  0
   38.7560   26.4110   33.8170 C   0  0  0  0  0  0  0  0  0  0  0  0
   37.9550   27.2360   34.6220 C   0  0  0  0  0  0  0  0  0  0  0  0
   36.9290   27.9100   34.0210 N   0  0  0  0  0  0  0  0  0  0  0  0
   36.6770   27.7970   32.6910 C   0  0  0  0  0  0  0  0  0  0  0  0
   37.4370   27.0100   31.9090 N   0  0  0  0  0  0  0  0  0  0  0  0
   39.0850   25.6860   31.8480 H   0  0  0  0  0  0  0  0  0  0  0  0
   35.8620   28.3350   32.2260 H   0  0  0  0  0  0  0  0  0  0  0  0
   38.2250   27.3610   36.0660 C   0  0  0  0  0  0  0  0  0  0  0  0
   38.9240   26.5530   36.3590 H   0  0  0  0  0  0  0  0  0  0  0  0
   38.7580   28.3190   36.2520 H   0  0  0  0  0  0  0  0  0  0  0  0
   37.2910   27.3390   36.6780 H   0  0  0  0  0  0  0  0  0  0  0  0
   38.4700   23.7840   34.8820 O   0  0  0  0  0  0  0  0  0  0  0  0
   38.3990   23.0310   34.1870 H   0  0  0  0  0  0  0  0  0  0  0  0
   40.5390   22.3570   35.9060 O   0  0  0  0  0  0  0  0  0  0  0  0
   40.4460   22.2350   37.3050 C   0  0  0  0  0  0  0  0  0  0  0  0
   39.7830   22.9350   38.0970 O   0  0  0  0  0  0  0  0  0  0  0  0
   41.2120   21.1750   37.8590 N   0  0  0  0  0  0  0  0  0  0  0  0
   42.0920   21.6090   38.2410 H   0  0  0  0  0  0  0  0  0  0  0  0
   41.7270   20.3610   38.2470 H   0  0  0  0  0  0  0  0  0  0  0  0
  1 22  1  0  0  0  0
  1  6  1  0  0  0  0
  2  3  1  0  0  0  0
  2  1  2  0  0  0  0
  3  4  2  0  0  0  0
  4  8  1  0  0  0  0
  4  5  1  0  0  0  0
  5  9  1  0  0  0  0
  6  5  2  0  0  0  0
  6 24  1  0  0  0  0
  7  3  1  0  0  0  0
 10 11  1  0  0  0  0
 11  2  1  0  0  0  0
 11 12  2  0  0  0  0
 12 18  1  0  0  0  0
 13 12  1  0  0  0  0
 14 13  2  0  0  0  0
 15 10  2  0  0  0  0
 15 14  1  0  0  0  0
 16 10  1  0  0  0  0
 17 14  1  0  0  0  0
 18 20  1  0  0  0  0
 18 19  1  0  0  0  0
 18 21  1  0  0  0  0
 23 22  1  0  0  0  0
 24 25  1  0  0  0  0
 25 27  1  0  0  0  0
 25 26  2  0  0  0  0
 27 28  1  0  0  0  0
 27 29  1  0  0  0  0
M  END
>  <minimizedAffinity>
-4.66773891

$$$$

 OpenBabel03272509193D

 29 30  0  0  0  0  0  0  0  0999 V2000
   37.8420   25.3570   34.1520 C   0  0  0  0  0  0  0  0  0  0  0  0
   37.8330   26.7210   33.9050 C   0  0  0  0  0  0  0  0  0  0  0  0
   38.0970   27.5010   35.0420 C   0  0  0  0  0  0  0  0  0  0  0  0
   38.3420   26.9130   36.2890 C   0  0  0  0  0  0  0  0  0  0  0  0
   38.3270   25.5310   36.4210 C   0  0  0  0  0  0  0  0  0  0  0  0
   38.0690   24.7320   35.3190 C   0  0  0  0  0  0  0  0  0  0  0  0
   38.1130   28.5800   34.9540 H   0  0  0  0  0  0  0  0  0  0  0  0
   38.5440   27.5530   37.1500 H   0  0  0  0  0  0  0  0  0  0  0  0
   38.5240   25.1400   37.4120 H   0  0  0  0  0  0  0  0  0  0  0  0
   36.2820   27.7060   32.2880 C   0  0  0  0  0  0  0  0  0  0  0  0
   37.5820   27.3130   32.6310 C   0  0  0  0  0  0  0  0  0  0  0  0
   38.6080   27.5190   31.6950 C   0  0  0  0  0  0  0  0  0  0  0  0
   38.2750   28.0930   30.5000 N   0  0  0  0  0  0  0  0  0  0  0  0
   36.9990   28.4590   30.2110 C   0  0  0  0  0  0  0  0  0  0  0  0
   36.0080   28.2670   31.0980 N   0  0  0  0  0  0  0  0  0  0  0  0
   35.5060   27.5390   33.0200 H   0  0  0  0  0  0  0  0  0  0  0  0
   36.7470   28.9130   29.2610 H   0  0  0  0  0  0  0  0  0  0  0  0
   39.9940   27.1240   32.0060 C   0  0  0  0  0  0  0  0  0  0  0  0
   40.0600   26.9200   33.0930 H   0  0  0  0  0  0  0  0  0  0  0  0
   40.2200   26.1640   31.4930 H   0  0  0  0  0  0  0  0  0  0  0  0
   40.7390   27.8920   31.6850 H   0  0  0  0  0  0  0  0  0  0  0  0
   37.5830   24.4960   33.0550 O   0  0  0  0  0  0  0  0  0  0  0  0
   38.4280   24.0030   32.7460 H   0  0  0  0  0  0  0  0  0  0  0  0
   38.0570   23.3530   35.4710 O   0  0  0  0  0  0  0  0  0  0  0  0
   39.3060   22.7170   35.5980 C   0  0  0  0  0  0  0  0  0  0  0  0
   40.2790   22.7690   34.8190 O   0  0  0  0  0  0  0  0  0  0  0  0
   39.4510   21.9230   36.7670 N   0  0  0  0  0  0  0  0  0  0  0  0
   39.2930   20.9250   36.4730 H   0  0  0  0  0  0  0  0  0  0  0  0
   39.5680   21.3950   37.6530 H   0  0  0  0  0  0  0  0  0  0  0  0
  1  6  1  0  0  0  0
  2  1  2  0  0  0  0
  2  3  1  0  0  0  0
  3  4  2  0  0  0  0
  4  5  1  0  0  0  0
  4  8  1  0  0  0  0
  5  9  1  0  0  0  0
  6 24  1  0  0  0  0
  6  5  2  0  0  0  0
  7  3  1  0  0  0  0
 10 11  1  0  0  0  0
 10 16  1  0  0  0  0
 11  2  1  0  0  0  0
 12 18  1  0  0  0  0
 12 11  2  0  0  0  0
 13 12  1  0  0  0  0
 14 13  2  0  0  0  0
 14 15  1  0  0  0  0
 15 10  2  0  0  0  0
 17 14  1  0  0  0  0
 18 19  1  0  0  0  0
 20 18  1  0  0  0  0
 21 18  1  0  0  0  0
 22  1  1  0  0  0  0
 23 22  1  0  0  0  0
 24 25  1  0  0  0  0
 25 27  1  0  0  0  0
 26 25  2  0  0  0  0
 27 29  1  0  0  0  0
 28 27  1  0  0  0  0
M  END
>  <minimizedAffinity>
-4.61370325

$$$$

 OpenBabel03272509193D

 29 30  0  0  0  0  0  0  0  0999 V2000
   39.1510   25.0780   34.5850 C   0  0  0  0  0  0  0  0  0  0  0  0
   39.2200   26.4120   34.2170 C   0  0  0  0  0  0  0  0  0  0  0  0
   38.7490   27.2930   35.2020 C   0  0  0  0  0  0  0  0  0  0  0  0
   38.2630   26.8220   36.4290 C   0  0  0  0  0  0  0  0  0  0  0  0
   38.2410   25.4590   36.6910 C   0  0  0  0  0  0  0  0  0  0  0  0
   38.6980   24.5620   35.7400 C   0  0  0  0  0  0  0  0  0  0  0  0
   38.7600   28.3580   35.0130 H   0  0  0  0  0  0  0  0  0  0  0  0
   37.9050   27.5380   37.1710 H   0  0  0  0  0  0  0  0  0  0  0  0
   37.8530   25.1610   37.6580 H   0  0  0  0  0  0  0  0  0  0  0  0
   38.8410   27.0450   31.8830 C   0  0  0  0  0  0  0  0  0  0  0  0
   39.7160   26.8840   32.9650 C   0  0  0  0  0  0  0  0  0  0  0  0
   41.0720   27.1980   32.7760 C   0  0  0  0  0  0  0  0  0  0  0  0
   41.4570   27.6440   31.5420 N   0  0  0  0  0  0  0  0  0  0  0  0
   40.5710   27.7850   30.5220 C   0  0  0  0  0  0  0  0  0  0  0  0
   39.2710   27.4870   30.6900 N   0  0  0  0  0  0  0  0  0  0  0  0
   37.8020   26.7980   32.0470 H   0  0  0  0  0  0  0  0  0  0  0  0
   40.8870   28.1390   29.5490 H   0  0  0  0  0  0  0  0  0  0  0  0
   42.0350   27.0470   33.8810 C   0  0  0  0  0  0  0  0  0  0  0  0
   41.4650   26.9180   34.8220 H   0  0  0  0  0  0  0  0  0  0  0  0
   42.6110   26.1080   33.7330 H   0  0  0  0  0  0  0  0  0  0  0  0
   42.7480   27.9050   33.9460 H   0  0  0  0  0  0  0  0  0  0  0  0
   39.6080   24.1200   33.6430 O   0  0  0  0  0  0  0  0  0  0  0  0
   40.5010   23.6990   33.9260 H   0  0  0  0  0  0  0  0  0  0  0  0
   38.6680   23.2040   36.0190 O   0  0  0  0  0  0  0  0  0  0  0  0
   39.8380   22.6400   36.5610 C   0  0  0  0  0  0  0  0  0  0  0  0
   40.8870   22.3230   35.9650 O   0  0  0  0  0  0  0  0  0  0  0  0
   39.7930   22.4140   37.9630 N   0  0  0  0  0  0  0  0  0  0  0  0
   39.5820   21.3910   38.0940 H   0  0  0  0  0  0  0  0  0  0  0  0
   39.7730   22.3090   38.9950 H   0  0  0  0  0  0  0  0  0  0  0  0
  1  6  1  0  0  0  0
  2  1  2  0  0  0  0
  2  3  1  0  0  0  0
  3  4  2  0  0  0  0
  4  5  1  0  0  0  0
  4  8  1  0  0  0  0
  5  9  1  0  0  0  0
  6 24  1  0  0  0  0
  6  5  2  0  0  0  0
  7  3  1  0  0  0  0
 10 16  1  0  0  0  0
 10 11  1  0  0  0  0
 11  2  1  0  0  0  0
 12 11  2  0  0  0  0
 12 18  1  0  0  0  0
 13 12  1  0  0  0  0
 14 15  1  0  0  0  0
 14 13  2  0  0  0  0
 15 10  2  0  0  0  0
 17 14  1  0  0  0  0
 18 21  1  0  0  0  0
 18 19  1  0  0  0  0
 20 18  1  0  0  0  0
 22 23  1  0  0  0  0
 22  1  1  0  0  0  0
 24 25  1  0  0  0  0
 25 27  1  0  0  0  0
 26 25  2  0  0  0  0
 27 28  1  0  0  0  0
 27 29  1  0  0  0  0
M  END
>  <minimizedAffinity>
-4.56586885

$$$$
