
 OpenBabel03272510233D

 28 30  0  0  0  0  0  0  0  0999 V2000
   36.1300   30.1280   46.8370 C   0  0  0  0  0  0  0  0  0  0  0  0
   36.9970   30.7070   47.7410 C   0  0  0  0  0  0  0  0  0  0  0  0
   37.9500   31.5970   47.3020 C   0  0  0  0  0  0  0  0  0  0  0  0
   37.9930   31.8750   45.9400 C   0  0  0  0  0  0  0  0  0  0  0  0
   38.8540   32.7250   45.2800 N   0  0  0  0  0  0  0  0  0  0  0  0
   38.5140   32.6610   43.9960 C   0  0  0  0  0  0  0  0  0  0  0  0
   37.4940   31.8270   43.8010 N   0  0  0  0  0  0  0  0  0  0  0  0
   37.1490   31.3190   45.0090 C   0  0  0  0  0  0  0  0  0  0  0  0
   36.1960   30.4250   45.4760 C   0  0  0  0  0  0  0  0  0  0  0  0
   35.3660   29.4310   47.0950 H   0  0  0  0  0  0  0  0  0  0  0  0
   38.6260   32.0510   47.9960 H   0  0  0  0  0  0  0  0  0  0  0  0
   39.6150   33.2890   45.7610 H   0  0  0  0  0  0  0  0  0  0  0  0
   35.5350   29.9900   44.7470 H   0  0  0  0  0  0  0  0  0  0  0  0
   37.5600   30.2280   51.4240 C   0  0  0  0  0  0  0  0  0  0  0  0
   37.8100   30.6320   50.1150 C   0  0  0  0  0  0  0  0  0  0  0  0
   36.8600   30.3440   49.1390 C   0  0  0  0  0  0  0  0  0  0  0  0
   35.7240   29.6770   49.5120 N   0  0  0  0  0  0  0  0  0  0  0  0
   35.5100   29.2970   50.7980 C   0  0  0  0  0  0  0  0  0  0  0  0
   36.4130   29.5690   51.7300 N   0  0  0  0  0  0  0  0  0  0  0  0
   38.2960   30.4530   52.1720 H   0  0  0  0  0  0  0  0  0  0  0  0
   38.7030   31.1560   49.8230 H   0  0  0  0  0  0  0  0  0  0  0  0
   34.5990   28.7760   51.0310 H   0  0  0  0  0  0  0  0  0  0  0  0
   39.2130   33.4230   43.0630 O   0  0  0  0  0  0  0  0  0  0  0  0
   39.0120   33.4170   41.7130 C   0  0  0  0  0  0  0  0  0  0  0  0
   38.6410   34.1660   40.7550 O   0  0  0  0  0  0  0  0  0  0  0  0
   39.3250   32.1160   41.1780 N   0  0  0  0  0  0  0  0  0  0  0  0
   39.2790   31.1700   40.7860 H   0  0  0  0  0  0  0  0  0  0  0  0
   40.3570   31.9560   41.1280 H   0  0  0  0  0  0  0  0  0  0  0  0
  1 10  1  0  0  0  0
  1  2  1  0  0  0  0
  2 16  1  0  0  0  0
  3  2  2  0  0  0  0
  3 11  1  0  0  0  0
  4  3  1  0  0  0  0
  5 12  1  0  0  0  0
  5  4  1  0  0  0  0
  6  5  1  0  0  0  0
  7  6  2  0  0  0  0
  7  8  1  0  0  0  0
  8  9  1  0  0  0  0
  8  4  2  0  0  0  0
  9  1  2  0  0  0  0
 13  9  1  0  0  0  0
 14 19  1  0  0  0  0
 14 20  1  0  0  0  0
 15 14  2  0  0  0  0
 16 17  2  0  0  0  0
 16 15  1  0  0  0  0
 17 18  1  0  0  0  0
 18 22  1  0  0  0  0
 18 19  2  0  0  0  0
 21 15  1  0  0  0  0
 23  6  1  0  0  0  0
 24 23  1  0  0  0  0
 25 24  2  0  0  0  0
 26 24  1  0  0  0  0
 27 26  1  0  0  0  0
 28 26  1  0  0  0  0
M  END
>  <minimizedAffinity>
-5.21333742

>  <minimizedRMSD>
1.88049364

$$$$
