
 OpenBabel03262521023D

 33 34  0  0  1  0  0  0  0  0999 V2000
   38.4830   24.3470   36.3830 N   0  0  0  0  0  0  0  0  0  0  0  0
   39.5110   23.5490   35.7870 C   0  0  1  0  0  0  0  0  0  0  0  0
   40.4870   23.1000   36.8390 C   0  0  0  0  0  0  0  0  0  0  0  0
   39.7370   22.3290   37.8270 N   0  0  0  0  0  0  0  0  0  0  0  0
   38.9000   23.3320   38.5140 C   0  0  0  0  0  0  0  0  0  0  0  0
   37.8360   23.7390   37.4980 C   0  0  2  0  0  0  0  0  0  0  0  0
   37.8790   24.8660   35.7440 H   0  0  0  0  0  0  0  0  0  0  0  0
   40.0260   24.1240   35.0120 H   0  0  0  0  0  0  0  0  0  0  0  0
   41.0170   23.9320   37.3270 H   0  0  0  0  0  0  0  0  0  0  0  0
   41.2120   22.4150   36.3270 H   0  0  0  0  0  0  0  0  0  0  0  0
   39.1480   21.6270   37.3490 H   0  0  0  0  0  0  0  0  0  0  0  0
   39.5520   24.1920   38.7440 H   0  0  0  0  0  0  0  0  0  0  0  0
   38.4250   22.9230   39.4070 H   0  0  0  0  0  0  0  0  0  0  0  0
   37.2140   24.5180   37.9910 H   0  0  0  0  0  0  0  0  0  0  0  0
   37.0520   22.5700   37.1600 N   0  0  0  0  0  0  0  0  0  0  0  0
   36.4830   22.8080   36.2970 H   0  0  0  0  0  0  0  0  0  0  0  0
   36.3270   22.4720   37.9300 H   0  0  0  0  0  0  0  0  0  0  0  0
   38.8370   22.0160   35.0290 S   0  0  0  0  0  0  0  0  0  0  0  0
   36.0390   22.0600   32.1050 C   0  0  0  0  0  0  0  0  0  0  0  0
   36.7940   21.6290   33.1780 C   0  0  0  0  0  0  0  0  0  0  0  0
   37.7860   22.4340   33.6590 C   0  0  0  0  0  0  0  0  0  0  0  0
   38.0000   23.6600   33.0500 N   0  0  0  0  0  0  0  0  0  0  0  0
   37.2350   24.0160   32.0170 C   0  0  0  0  0  0  0  0  0  0  0  0
   36.2590   23.2500   31.5290 N   0  0  0  0  0  0  0  0  0  0  0  0
   35.2410   21.4430   31.7000 H   0  0  0  0  0  0  0  0  0  0  0  0
   36.6190   20.6740   33.6440 H   0  0  0  0  0  0  0  0  0  0  0  0
   37.4750   25.3170   31.3850 C   0  0  0  0  0  0  0  0  0  0  0  0
   38.6010   25.8700   31.3380 O   0  0  0  0  0  0  0  0  0  0  0  0
   35.1050   27.8070   30.7300 H   0  0  0  0  0  0  0  0  0  0  0  0
   35.9480   27.2900   31.1970 C   0  0  0  0  0  0  0  0  0  0  0  0
   36.5480   27.8730   32.1340 O   0  0  0  0  0  0  0  0  0  0  0  0
   36.3710   26.0070   30.7830 N   0  0  0  0  0  0  0  0  0  0  0  0
   35.8710   25.5140   29.9970 H   0  0  0  0  0  0  0  0  0  0  0  0
  1  6  1  0  0  0  0
  2  8  1  6  0  0  0
  2  1  1  0  0  0  0
  2  3  1  0  0  0  0
  3  9  1  0  0  0  0
  3  4  1  0  0  0  0
  4  5  1  0  0  0  0
  5 12  1  0  0  0  0
  5 13  1  0  0  0  0
  6 14  1  1  0  0  0
  6  5  1  0  0  0  0
  7  1  1  0  0  0  0
 10  3  1  0  0  0  0
 11  4  1  0  0  0  0
 15  6  1  0  0  0  0
 15 17  1  0  0  0  0
 16 15  1  0  0  0  0
 18  2  1  0  0  0  0
 19 20  1  0  0  0  0
 20 26  1  0  0  0  0
 20 21  2  0  0  0  0
 21 18  1  0  0  0  0
 22 21  1  0  0  0  0
 23 22  2  0  0  0  0
 24 23  1  0  0  0  0
 24 19  2  0  0  0  0
 25 19  1  0  0  0  0
 27 23  1  0  0  0  0
 28 27  2  0  0  0  0
 29 30  1  0  0  0  0
 30 31  2  0  0  0  0
 32 30  1  0  0  0  0
 32 27  1  0  0  0  0
 33 32  1  0  0  0  0
M  END
>  <minimizedAffinity>
-4.99715233

$$$$

 OpenBabel03262521023D

 33 34  0  0  1  0  0  0  0  0999 V2000
   38.7380   24.4660   36.4000 N   0  0  0  0  0  0  0  0  0  0  0  0
   39.6270   23.7310   35.5530 C   0  0  1  0  0  0  0  0  0  0  0  0
   40.6520   23.0130   36.3850 C   0  0  0  0  0  0  0  0  0  0  0  0
   39.9310   22.1160   37.2850 N   0  0  0  0  0  0  0  0  0  0  0  0
   39.2590   23.0200   38.2380 C   0  0  0  0  0  0  0  0  0  0  0  0
   38.1460   23.6970   37.4430 C   0  0  2  0  0  0  0  0  0  0  0  0
   38.1270   25.1440   35.9410 H   0  0  0  0  0  0  0  0  0  0  0  0
   40.1180   24.4100   34.8490 H   0  0  0  0  0  0  0  0  0  0  0  0
   41.3010   23.6900   36.9610 H   0  0  0  0  0  0  0  0  0  0  0  0
   41.2600   22.3930   35.6760 H   0  0  0  0  0  0  0  0  0  0  0  0
   39.2380   21.5680   36.7500 H   0  0  0  0  0  0  0  0  0  0  0  0
   40.0060   23.7680   38.5550 H   0  0  0  0  0  0  0  0  0  0  0  0
   38.8340   22.4770   39.0850 H   0  0  0  0  0  0  0  0  0  0  0  0
   37.6480   24.4050   38.1410 H   0  0  0  0  0  0  0  0  0  0  0  0
   37.2290   22.6780   36.9770 N   0  0  0  0  0  0  0  0  0  0  0  0
   36.6060   23.1240   36.2430 H   0  0  0  0  0  0  0  0  0  0  0  0
   36.5740   22.4810   37.7890 H   0  0  0  0  0  0  0  0  0  0  0  0
   38.7470   22.4320   34.5950 S   0  0  0  0  0  0  0  0  0  0  0  0
   36.0480   23.2030   31.6790 C   0  0  0  0  0  0  0  0  0  0  0  0
   36.8170   22.5050   32.5900 C   0  0  0  0  0  0  0  0  0  0  0  0
   37.6950   23.1900   33.3810 C   0  0  0  0  0  0  0  0  0  0  0  0
   37.7820   24.5660   33.2400 N   0  0  0  0  0  0  0  0  0  0  0  0
   37.0110   25.1780   32.3400 C   0  0  0  0  0  0  0  0  0  0  0  0
   36.1450   24.5330   31.5560 N   0  0  0  0  0  0  0  0  0  0  0  0
   35.3400   22.6860   31.0350 H   0  0  0  0  0  0  0  0  0  0  0  0
   36.7410   21.4360   32.6920 H   0  0  0  0  0  0  0  0  0  0  0  0
   37.1160   26.6330   32.2030 C   0  0  0  0  0  0  0  0  0  0  0  0
   38.1040   27.3000   32.6010 O   0  0  0  0  0  0  0  0  0  0  0  0
   34.4880   28.9010   31.7610 H   0  0  0  0  0  0  0  0  0  0  0  0
   35.3060   28.3620   32.2440 C   0  0  0  0  0  0  0  0  0  0  0  0
   35.5910   28.6650   33.4300 O   0  0  0  0  0  0  0  0  0  0  0  0
   36.0390   27.3490   31.5830 N   0  0  0  0  0  0  0  0  0  0  0  0
   35.8040   27.0920   30.5890 H   0  0  0  0  0  0  0  0  0  0  0  0
  1  6  1  0  0  0  0
  2  8  1  6  0  0  0
  2  3  1  0  0  0  0
  2  1  1  0  0  0  0
  3  9  1  0  0  0  0
  3  4  1  0  0  0  0
  4  5  1  0  0  0  0
  5 12  1  0  0  0  0
  5 13  1  0  0  0  0
  6 14  1  1  0  0  0
  6  5  1  0  0  0  0
  7  1  1  0  0  0  0
 10  3  1  0  0  0  0
 11  4  1  0  0  0  0
 15  6  1  0  0  0  0
 15 17  1  0  0  0  0
 16 15  1  0  0  0  0
 18  2  1  0  0  0  0
 19 20  1  0  0  0  0
 20 26  1  0  0  0  0
 20 21  2  0  0  0  0
 21 18  1  0  0  0  0
 22 21  1  0  0  0  0
 23 22  2  0  0  0  0
 24 19  2  0  0  0  0
 24 23  1  0  0  0  0
 25 19  1  0  0  0  0
 27 23  1  0  0  0  0
 27 28  2  0  0  0  0
 29 30  1  0  0  0  0
 30 31  2  0  0  0  0
 32 27  1  0  0  0  0
 32 30  1  0  0  0  0
 33 32  1  0  0  0  0
M  END
>  <minimizedAffinity>
-4.8189888

$$$$

 OpenBabel03262521023D

 33 34  0  0  1  0  0  0  0  0999 V2000
   38.1160   27.0400   32.0830 N   0  0  0  0  0  0  0  0  0  0  0  0
   36.7500   26.6270   32.1800 C   0  0  1  0  0  0  0  0  0  0  0  0
   35.8790   27.5360   31.3600 C   0  0  0  0  0  0  0  0  0  0  0  0
   36.3480   27.4590   29.9780 N   0  0  0  0  0  0  0  0  0  0  0  0
   37.6590   28.1360   30.0010 C   0  0  0  0  0  0  0  0  0  0  0  0
   38.5940   27.1890   30.7490 C   0  0  2  0  0  0  0  0  0  0  0  0
   38.7680   26.6210   32.7480 H   0  0  0  0  0  0  0  0  0  0  0  0
   36.4300   26.6380   33.2270 H   0  0  0  0  0  0  0  0  0  0  0  0
   35.8870   28.5810   31.7070 H   0  0  0  0  0  0  0  0  0  0  0  0
   34.8420   27.1120   31.4080 H   0  0  0  0  0  0  0  0  0  0  0  0
   36.4520   26.4690   29.7000 H   0  0  0  0  0  0  0  0  0  0  0  0
   37.5300   29.0700   30.5750 H   0  0  0  0  0  0  0  0  0  0  0  0
   38.0410   28.3180   28.9950 H   0  0  0  0  0  0  0  0  0  0  0  0
   39.5810   27.6990   30.8010 H   0  0  0  0  0  0  0  0  0  0  0  0
   38.6770   25.9460   30.0100 N   0  0  0  0  0  0  0  0  0  0  0  0
   39.1300   25.2290   30.6470 H   0  0  0  0  0  0  0  0  0  0  0  0
   39.3980   26.1080   29.2470 H   0  0  0  0  0  0  0  0  0  0  0  0
   36.4950   24.9340   31.5090 S   0  0  0  0  0  0  0  0  0  0  0  0
   37.6650   21.5450   33.3870 C   0  0  0  0  0  0  0  0  0  0  0  0
   37.1060   22.3830   32.4420 C   0  0  0  0  0  0  0  0  0  0  0  0
   37.1670   23.7340   32.6330 C   0  0  0  0  0  0  0  0  0  0  0  0
   37.7900   24.2160   33.7740 N   0  0  0  0  0  0  0  0  0  0  0  0
   38.3090   23.3510   34.6470 C   0  0  0  0  0  0  0  0  0  0  0  0
   38.2640   22.0280   34.4840 N   0  0  0  0  0  0  0  0  0  0  0  0
   37.6330   20.4650   33.2630 H   0  0  0  0  0  0  0  0  0  0  0  0
   36.6240   21.9990   31.5600 H   0  0  0  0  0  0  0  0  0  0  0  0
   38.9640   23.8790   35.8470 C   0  0  0  0  0  0  0  0  0  0  0  0
   40.1880   23.7340   36.0930 O   0  0  0  0  0  0  0  0  0  0  0  0
   37.4310   24.7520   38.8690 H   0  0  0  0  0  0  0  0  0  0  0  0
   38.0330   24.1930   38.1490 C   0  0  0  0  0  0  0  0  0  0  0  0
   38.6110   23.1510   38.5490 O   0  0  0  0  0  0  0  0  0  0  0  0
   38.1770   24.6020   36.8030 N   0  0  0  0  0  0  0  0  0  0  0  0
   37.6950   25.4750   36.4620 H   0  0  0  0  0  0  0  0  0  0  0  0
  1  2  1  0  0  0  0
  1  7  1  0  0  0  0
  2  8  1  1  0  0  0
  3 10  1  0  0  0  0
  3  9  1  0  0  0  0
  3  2  1  0  0  0  0
  4  5  1  0  0  0  0
  4  3  1  0  0  0  0
  5 12  1  0  0  0  0
  5  6  1  0  0  0  0
  6 14  1  1  0  0  0
  6  1  1  0  0  0  0
 11  4  1  0  0  0  0
 13  5  1  0  0  0  0
 15 16  1  0  0  0  0
 15  6  1  0  0  0  0
 17 15  1  0  0  0  0
 18  2  1  0  0  0  0
 18 21  1  0  0  0  0
 19 24  1  0  0  0  0
 20 21  1  0  0  0  0
 20 19  2  0  0  0  0
 21 22  2  0  0  0  0
 22 23  1  0  0  0  0
 23 27  1  0  0  0  0
 24 23  2  0  0  0  0
 25 19  1  0  0  0  0
 26 20  1  0  0  0  0
 27 28  2  0  0  0  0
 27 32  1  0  0  0  0
 30 31  2  0  0  0  0
 30 29  1  0  0  0  0
 32 30  1  0  0  0  0
 33 32  1  0  0  0  0
M  END
>  <minimizedAffinity>
-4.77103043

$$$$

 OpenBabel03262521023D

 33 34  0  0  1  0  0  0  0  0999 V2000
   38.4440   22.5500   35.9840 N   0  0  0  0  0  0  0  0  0  0  0  0
   37.8300   23.4290   36.9310 C   0  0  1  0  0  0  0  0  0  0  0  0
   38.3110   23.1070   38.3180 C   0  0  0  0  0  0  0  0  0  0  0  0
   39.7630   23.2690   38.3230 N   0  0  0  0  0  0  0  0  0  0  0  0
   40.2570   22.1500   37.4990 C   0  0  0  0  0  0  0  0  0  0  0  0
   39.8650   22.4950   36.0640 C   0  0  2  0  0  0  0  0  0  0  0  0
   38.0480   22.5440   35.0420 H   0  0  0  0  0  0  0  0  0  0  0  0
   36.7410   23.3350   36.8750 H   0  0  0  0  0  0  0  0  0  0  0  0
   38.0390   22.0940   38.6510 H   0  0  0  0  0  0  0  0  0  0  0  0
   37.8640   23.8790   38.9960 H   0  0  0  0  0  0  0  0  0  0  0  0
   40.0140   24.1770   37.8960 H   0  0  0  0  0  0  0  0  0  0  0  0
   39.7200   21.2440   37.8290 H   0  0  0  0  0  0  0  0  0  0  0  0
   41.3400   22.0370   37.5720 H   0  0  0  0  0  0  0  0  0  0  0  0
   40.2050   21.6450   35.4330 H   0  0  0  0  0  0  0  0  0  0  0  0
   40.5250   23.7290   35.6920 N   0  0  0  0  0  0  0  0  0  0  0  0
   40.0690   24.0760   34.7990 H   0  0  0  0  0  0  0  0  0  0  0  0
   41.5070   23.4570   35.3930 H   0  0  0  0  0  0  0  0  0  0  0  0
   38.2810   25.1860   36.6290 S   0  0  0  0  0  0  0  0  0  0  0  0
   36.8580   27.1960   33.4170 C   0  0  0  0  0  0  0  0  0  0  0  0
   37.2610   26.9260   34.7100 C   0  0  0  0  0  0  0  0  0  0  0  0
   37.7290   25.6800   35.0150 C   0  0  0  0  0  0  0  0  0  0  0  0
   37.7820   24.7270   34.0090 N   0  0  0  0  0  0  0  0  0  0  0  0
   37.3780   25.0530   32.7810 C   0  0  0  0  0  0  0  0  0  0  0  0
   36.9170   26.2630   32.4570 N   0  0  0  0  0  0  0  0  0  0  0  0
   36.4810   28.1780   33.1430 H   0  0  0  0  0  0  0  0  0  0  0  0
   37.2150   27.6740   35.4840 H   0  0  0  0  0  0  0  0  0  0  0  0
   37.4420   24.0330   31.7300 C   0  0  0  0  0  0  0  0  0  0  0  0
   37.4570   24.2990   30.5030 O   0  0  0  0  0  0  0  0  0  0  0  0
   36.5550   20.6600   32.0160 H   0  0  0  0  0  0  0  0  0  0  0  0
   36.5090   21.7110   31.7210 C   0  0  0  0  0  0  0  0  0  0  0  0
   35.5400   22.0790   31.0100 O   0  0  0  0  0  0  0  0  0  0  0  0
   37.4900   22.6520   32.1110 N   0  0  0  0  0  0  0  0  0  0  0  0
   38.3040   22.3480   32.7070 H   0  0  0  0  0  0  0  0  0  0  0  0
  1  6  1  0  0  0  0
  1  2  1  0  0  0  0
  2  8  1  6  0  0  0
  2  3  1  0  0  0  0
  3  4  1  0  0  0  0
  3  9  1  0  0  0  0
  3 10  1  0  0  0  0
  5 13  1  0  0  0  0
  5 12  1  0  0  0  0
  5  4  1  0  0  0  0
  6 14  1  6  0  0  0
  6  5  1  0  0  0  0
  7  1  1  0  0  0  0
 11  4  1  0  0  0  0
 15  6  1  0  0  0  0
 16 15  1  0  0  0  0
 17 15  1  0  0  0  0
 18  2  1  0  0  0  0
 19 20  1  0  0  0  0
 20 21  2  0  0  0  0
 20 26  1  0  0  0  0
 21 18  1  0  0  0  0
 22 21  1  0  0  0  0
 23 22  2  0  0  0  0
 24 23  1  0  0  0  0
 24 19  2  0  0  0  0
 25 19  1  0  0  0  0
 27 32  1  0  0  0  0
 27 23  1  0  0  0  0
 28 27  2  0  0  0  0
 30 29  1  0  0  0  0
 30 32  1  0  0  0  0
 31 30  2  0  0  0  0
 32 33  1  0  0  0  0
M  END
>  <minimizedAffinity>
-4.63465738

$$$$

 OpenBabel03262521023D

 33 34  0  0  1  0  0  0  0  0999 V2000
   37.8240   28.3690   31.3750 N   0  0  0  0  0  0  0  0  0  0  0  0
   36.5950   28.1850   32.0840 C   0  0  1  0  0  0  0  0  0  0  0  0
   35.8030   29.4620   32.0770 C   0  0  0  0  0  0  0  0  0  0  0  0
   35.5500   29.8100   30.6810 N   0  0  0  0  0  0  0  0  0  0  0  0
   36.8730   30.2020   30.1590 C   0  0  0  0  0  0  0  0  0  0  0  0
   37.6740   28.9060   30.0640 C   0  0  2  0  0  0  0  0  0  0  0  0
   38.5270   27.6350   31.4810 H   0  0  0  0  0  0  0  0  0  0  0  0
   36.8010   27.8720   33.1120 H   0  0  0  0  0  0  0  0  0  0  0  0
   36.3080   30.2940   32.5920 H   0  0  0  0  0  0  0  0  0  0  0  0
   34.8230   29.2300   32.5700 H   0  0  0  0  0  0  0  0  0  0  0  0
   35.1870   28.9850   30.1760 H   0  0  0  0  0  0  0  0  0  0  0  0
   37.3290   30.8740   30.9060 H   0  0  0  0  0  0  0  0  0  0  0  0
   36.8010   30.6680   29.1740 H   0  0  0  0  0  0  0  0  0  0  0  0
   38.6860   29.1890   29.6990 H   0  0  0  0  0  0  0  0  0  0  0  0
   37.0050   28.0190   29.1360 N   0  0  0  0  0  0  0  0  0  0  0  0
   37.4300   27.0550   29.2560 H   0  0  0  0  0  0  0  0  0  0  0  0
   37.3160   28.3210   28.1670 H   0  0  0  0  0  0  0  0  0  0  0  0
   35.5270   26.9180   31.2890 S   0  0  0  0  0  0  0  0  0  0  0  0
   36.1550   22.9290   31.5660 C   0  0  0  0  0  0  0  0  0  0  0  0
   35.6210   24.1380   31.1660 C   0  0  0  0  0  0  0  0  0  0  0  0
   36.1120   25.2930   31.7050 C   0  0  0  0  0  0  0  0  0  0  0  0
   37.1330   25.2080   32.6380 N   0  0  0  0  0  0  0  0  0  0  0  0
   37.6040   24.0080   32.9810 C   0  0  0  0  0  0  0  0  0  0  0  0
   37.1430   22.8650   32.4690 N   0  0  0  0  0  0  0  0  0  0  0  0
   35.7860   21.9920   31.1550 H   0  0  0  0  0  0  0  0  0  0  0  0
   34.8280   24.1920   30.4400 H   0  0  0  0  0  0  0  0  0  0  0  0
   38.6840   23.9370   33.9690 C   0  0  0  0  0  0  0  0  0  0  0  0
   39.8830   23.7100   33.6740 O   0  0  0  0  0  0  0  0  0  0  0  0
   38.3590   23.3200   37.3990 H   0  0  0  0  0  0  0  0  0  0  0  0
   38.6040   23.1580   36.3460 C   0  0  0  0  0  0  0  0  0  0  0  0
   39.1130   22.0540   36.0250 O   0  0  0  0  0  0  0  0  0  0  0  0
   38.3670   24.1360   35.3540 N   0  0  0  0  0  0  0  0  0  0  0  0
   37.9410   25.0630   35.6180 H   0  0  0  0  0  0  0  0  0  0  0  0
  1  7  1  0  0  0  0
  1  2  1  0  0  0  0
  2  8  1  1  0  0  0
  3  2  1  0  0  0  0
  3 10  1  0  0  0  0
  3  9  1  0  0  0  0
  4  3  1  0  0  0  0
  5  4  1  0  0  0  0
  5 12  1  0  0  0  0
  6 14  1  6  0  0  0
  6  5  1  0  0  0  0
  6  1  1  0  0  0  0
 11  4  1  0  0  0  0
 13  5  1  0  0  0  0
 15 16  1  0  0  0  0
 15  6  1  0  0  0  0
 17 15  1  0  0  0  0
 18 21  1  0  0  0  0
 18  2  1  0  0  0  0
 19 24  1  0  0  0  0
 20 19  2  0  0  0  0
 20 21  1  0  0  0  0
 21 22  2  0  0  0  0
 22 23  1  0  0  0  0
 23 27  1  0  0  0  0
 24 23  2  0  0  0  0
 25 19  1  0  0  0  0
 26 20  1  0  0  0  0
 27 32  1  0  0  0  0
 28 27  2  0  0  0  0
 30 29  1  0  0  0  0
 31 30  2  0  0  0  0
 32 33  1  0  0  0  0
 32 30  1  0  0  0  0
M  END
>  <minimizedAffinity>
-4.57240343

$$$$

 OpenBabel03262521023D

 33 34  0  0  1  0  0  0  0  0999 V2000
   33.6540   33.0890   35.0570 N   0  0  0  0  0  0  0  0  0  0  0  0
   34.7080   32.1290   34.9250 C   0  0  1  0  0  0  0  0  0  0  0  0
   35.6990   32.2990   36.0420 C   0  0  0  0  0  0  0  0  0  0  0  0
   34.9760   32.1090   37.2970 N   0  0  0  0  0  0  0  0  0  0  0  0
   34.1070   33.2970   37.4010 C   0  0  0  0  0  0  0  0  0  0  0  0
   33.0290   33.1070   36.3370 C   0  0  2  0  0  0  0  0  0  0  0  0
   33.0330   33.1980   34.2530 H   0  0  0  0  0  0  0  0  0  0  0  0
   35.2030   32.2500   33.9570 H   0  0  0  0  0  0  0  0  0  0  0  0
   36.2020   33.2780   36.0360 H   0  0  0  0  0  0  0  0  0  0  0  0
   36.4460   31.4710   35.9320 H   0  0  0  0  0  0  0  0  0  0  0  0
   34.4110   31.2450   37.2470 H   0  0  0  0  0  0  0  0  0  0  0  0
   34.7300   34.1740   37.1550 H   0  0  0  0  0  0  0  0  0  0  0  0
   33.6460   33.3800   38.3870 H   0  0  0  0  0  0  0  0  0  0  0  0
   32.3810   34.0100   36.3820 H   0  0  0  0  0  0  0  0  0  0  0  0
   32.2840   31.9040   36.6460 N   0  0  0  0  0  0  0  0  0  0  0  0
   31.7070   31.6600   35.7910 H   0  0  0  0  0  0  0  0  0  0  0  0
   31.5630   32.1870   37.3730 H   0  0  0  0  0  0  0  0  0  0  0  0
   34.0850   30.4040   35.0530 S   0  0  0  0  0  0  0  0  0  0  0  0
   35.5150   28.2910   31.9100 C   0  0  0  0  0  0  0  0  0  0  0  0
   34.7160   29.1370   32.6550 C   0  0  0  0  0  0  0  0  0  0  0  0
   35.0170   29.3480   33.9700 C   0  0  0  0  0  0  0  0  0  0  0  0
   36.1180   28.7020   34.5120 N   0  0  0  0  0  0  0  0  0  0  0  0
   36.8480   27.8990   33.7360 C   0  0  0  0  0  0  0  0  0  0  0  0
   36.5760   27.6760   32.4490 N   0  0  0  0  0  0  0  0  0  0  0  0
   35.3020   28.1030   30.8610 H   0  0  0  0  0  0  0  0  0  0  0  0
   33.8630   29.6330   32.2250 H   0  0  0  0  0  0  0  0  0  0  0  0
   38.0080   27.2240   34.3250 C   0  0  0  0  0  0  0  0  0  0  0  0
   39.0090   26.8550   33.6610 O   0  0  0  0  0  0  0  0  0  0  0  0
   38.1140   25.4800   37.3560 H   0  0  0  0  0  0  0  0  0  0  0  0
   38.1090   25.6650   36.2790 C   0  0  0  0  0  0  0  0  0  0  0  0
   38.1880   24.6720   35.5120 O   0  0  0  0  0  0  0  0  0  0  0  0
   38.0150   26.9660   35.7350 N   0  0  0  0  0  0  0  0  0  0  0  0
   37.9490   27.8010   36.3740 H   0  0  0  0  0  0  0  0  0  0  0  0
  1  6  1  0  0  0  0
  2  8  1  6  0  0  0
  2 18  1  0  0  0  0
  2  1  1  0  0  0  0
  2  3  1  0  0  0  0
  3  4  1  0  0  0  0
  4  5  1  0  0  0  0
  5 13  1  0  0  0  0
  6 14  1  1  0  0  0
  6 15  1  0  0  0  0
  6  5  1  0  0  0  0
  7  1  1  0  0  0  0
  9  3  1  0  0  0  0
 10  3  1  0  0  0  0
 11  4  1  0  0  0  0
 12  5  1  0  0  0  0
 15 17  1  0  0  0  0
 16 15  1  0  0  0  0
 19 24  2  0  0  0  0
 19 20  1  0  0  0  0
 20 21  2  0  0  0  0
 21 22  1  0  0  0  0
 21 18  1  0  0  0  0
 23 27  1  0  0  0  0
 23 22  2  0  0  0  0
 24 23  1  0  0  0  0
 25 19  1  0  0  0  0
 26 20  1  0  0  0  0
 27 32  1  0  0  0  0
 28 27  2  0  0  0  0
 30 29  1  0  0  0  0
 31 30  2  0  0  0  0
 32 30  1  0  0  0  0
 32 33  1  0  0  0  0
M  END
>  <minimizedAffinity>
-4.40335608

$$$$

 OpenBabel03262521023D

 33 34  0  0  1  0  0  0  0  0999 V2000
   36.3940   27.3300   30.0850 N   0  0  0  0  0  0  0  0  0  0  0  0
   37.0090   26.7320   31.2300 C   0  0  1  0  0  0  0  0  0  0  0  0
   38.4890   26.5960   31.0060 C   0  0  0  0  0  0  0  0  0  0  0  0
   39.0190   27.9370   30.7730 N   0  0  0  0  0  0  0  0  0  0  0  0
   38.4850   28.3140   29.4490 C   0  0  0  0  0  0  0  0  0  0  0  0
   36.9930   28.5530   29.6650 C   0  0  2  0  0  0  0  0  0  0  0  0
   35.3750   27.2930   30.0430 H   0  0  0  0  0  0  0  0  0  0  0  0
   36.5630   25.7520   31.4240 H   0  0  0  0  0  0  0  0  0  0  0  0
   38.7450   25.9330   30.1650 H   0  0  0  0  0  0  0  0  0  0  0  0
   38.9210   26.2040   31.9630 H   0  0  0  0  0  0  0  0  0  0  0  0
   38.6740   28.5810   31.5040 H   0  0  0  0  0  0  0  0  0  0  0  0
   38.6370   27.4480   28.7820 H   0  0  0  0  0  0  0  0  0  0  0  0
   38.9550   29.2200   29.0640 H   0  0  0  0  0  0  0  0  0  0  0  0
   36.5690   28.8100   28.6690 H   0  0  0  0  0  0  0  0  0  0  0  0
   36.8330   29.6420   30.6060 N   0  0  0  0  0  0  0  0  0  0  0  0
   35.8210   29.6420   30.9220 H   0  0  0  0  0  0  0  0  0  0  0  0
   36.9280   30.5350   30.0390 H   0  0  0  0  0  0  0  0  0  0  0  0
   36.8150   27.7700   32.7350 S   0  0  0  0  0  0  0  0  0  0  0  0
   38.4130   26.7650   36.3160 C   0  0  0  0  0  0  0  0  0  0  0  0
   37.9140   27.5340   35.2820 C   0  0  0  0  0  0  0  0  0  0  0  0
   37.4800   26.9170   34.1440 C   0  0  0  0  0  0  0  0  0  0  0  0
   37.5560   25.5350   34.0680 N   0  0  0  0  0  0  0  0  0  0  0  0
   38.0480   24.8520   35.1030 C   0  0  0  0  0  0  0  0  0  0  0  0
   38.4780   25.4300   36.2250 N   0  0  0  0  0  0  0  0  0  0  0  0
   38.7660   27.2260   37.2350 H   0  0  0  0  0  0  0  0  0  0  0  0
   37.8590   28.6070   35.3520 H   0  0  0  0  0  0  0  0  0  0  0  0
   38.1210   23.3910   35.0050 C   0  0  0  0  0  0  0  0  0  0  0  0
   38.4430   22.6450   35.9620 O   0  0  0  0  0  0  0  0  0  0  0  0
   38.4880   21.4940   32.0870 H   0  0  0  0  0  0  0  0  0  0  0  0
   38.7350   21.9660   33.0410 C   0  0  0  0  0  0  0  0  0  0  0  0
   39.8880   21.7800   33.5070 O   0  0  0  0  0  0  0  0  0  0  0  0
   37.8120   22.7660   33.7510 N   0  0  0  0  0  0  0  0  0  0  0  0
   36.8440   22.9250   33.3640 H   0  0  0  0  0  0  0  0  0  0  0  0
  1  2  1  0  0  0  0
  2  8  1  1  0  0  0
  2 18  1  0  0  0  0
  3  2  1  0  0  0  0
  3 10  1  0  0  0  0
  4  3  1  0  0  0  0
  4 11  1  0  0  0  0
  5  6  1  0  0  0  0
  5  4  1  0  0  0  0
  6 14  1  6  0  0  0
  6  1  1  0  0  0  0
  6 15  1  0  0  0  0
  7  1  1  0  0  0  0
  9  3  1  0  0  0  0
 12  5  1  0  0  0  0
 13  5  1  0  0  0  0
 15 16  1  0  0  0  0
 17 15  1  0  0  0  0
 18 21  1  0  0  0  0
 19 25  1  0  0  0  0
 20 26  1  0  0  0  0
 20 19  2  0  0  0  0
 21 20  1  0  0  0  0
 22 21  2  0  0  0  0
 22 23  1  0  0  0  0
 23 24  2  0  0  0  0
 24 19  1  0  0  0  0
 27 23  1  0  0  0  0
 27 28  2  0  0  0  0
 29 30  1  0  0  0  0
 30 31  2  0  0  0  0
 30 32  1  0  0  0  0
 32 27  1  0  0  0  0
 33 32  1  0  0  0  0
M  END
>  <minimizedAffinity>
-4.39278793

$$$$

 OpenBabel03262521023D

 33 34  0  0  1  0  0  0  0  0999 V2000
   38.4120   24.3650   36.5860 N   0  0  0  0  0  0  0  0  0  0  0  0
   39.3290   23.5270   35.8750 C   0  0  1  0  0  0  0  0  0  0  0  0
   40.4320   23.0790   36.7930 C   0  0  0  0  0  0  0  0  0  0  0  0
   39.8110   22.3510   37.8970 N   0  0  0  0  0  0  0  0  0  0  0  0
   39.1000   23.3910   38.6650 C   0  0  0  0  0  0  0  0  0  0  0  0
   37.9130   23.8010   37.7960 C   0  0  2  0  0  0  0  0  0  0  0  0
   37.7370   24.8840   36.0220 H   0  0  0  0  0  0  0  0  0  0  0  0
   39.7440   24.0690   35.0200 H   0  0  0  0  0  0  0  0  0  0  0  0
   41.0430   23.9090   37.1800 H   0  0  0  0  0  0  0  0  0  0  0  0
   41.0630   22.3640   36.2050 H   0  0  0  0  0  0  0  0  0  0  0  0
   39.1450   21.6530   37.5240 H   0  0  0  0  0  0  0  0  0  0  0  0
   39.7960   24.2400   38.7790 H   0  0  0  0  0  0  0  0  0  0  0  0
   38.7450   23.0170   39.6270 H   0  0  0  0  0  0  0  0  0  0  0  0
   37.3840   24.6080   38.3490 H   0  0  0  0  0  0  0  0  0  0  0  0
   37.0650   22.6450   37.6020 N   0  0  0  0  0  0  0  0  0  0  0  0
   36.3860   22.8760   36.8200 H   0  0  0  0  0  0  0  0  0  0  0  0
   36.4520   22.5840   38.4670 H   0  0  0  0  0  0  0  0  0  0  0  0
   38.5230   21.9940   35.2600 S   0  0  0  0  0  0  0  0  0  0  0  0
   36.9750   23.6520   31.9090 C   0  0  0  0  0  0  0  0  0  0  0  0
   37.5530   23.5400   33.1570 C   0  0  0  0  0  0  0  0  0  0  0  0
   37.7880   22.2970   33.6720 C   0  0  0  0  0  0  0  0  0  0  0  0
   37.4340   21.1890   32.9170 N   0  0  0  0  0  0  0  0  0  0  0  0
   36.8780   21.3680   31.7180 C   0  0  0  0  0  0  0  0  0  0  0  0
   36.6400   22.5710   31.1930 N   0  0  0  0  0  0  0  0  0  0  0  0
   36.7760   24.6280   31.4720 H   0  0  0  0  0  0  0  0  0  0  0  0
   37.8240   24.4070   33.7350 H   0  0  0  0  0  0  0  0  0  0  0  0
   36.5110   20.1850   30.9340 C   0  0  0  0  0  0  0  0  0  0  0  0
   35.8210   19.2380   31.3860 O   0  0  0  0  0  0  0  0  0  0  0  0
   38.1140   18.9800   28.0670 H   0  0  0  0  0  0  0  0  0  0  0  0
   37.7800   19.0420   29.1050 C   0  0  0  0  0  0  0  0  0  0  0  0
   38.1530   18.1400   29.8970 O   0  0  0  0  0  0  0  0  0  0  0  0
   36.9570   20.0920   29.5750 N   0  0  0  0  0  0  0  0  0  0  0  0
   36.6420   20.8500   28.9150 H   0  0  0  0  0  0  0  0  0  0  0  0
  1  6  1  0  0  0  0
  2  8  1  6  0  0  0
  2  1  1  0  0  0  0
  2  3  1  0  0  0  0
  3  9  1  0  0  0  0
  3  4  1  0  0  0  0
  4  5  1  0  0  0  0
  5 12  1  0  0  0  0
  5 13  1  0  0  0  0
  6 14  1  1  0  0  0
  6  5  1  0  0  0  0
  7  1  1  0  0  0  0
 10  3  1  0  0  0  0
 11  4  1  0  0  0  0
 15  6  1  0  0  0  0
 15 17  1  0  0  0  0
 16 15  1  0  0  0  0
 18  2  1  0  0  0  0
 19 20  1  0  0  0  0
 20 21  2  0  0  0  0
 20 26  1  0  0  0  0
 21 18  1  0  0  0  0
 22 21  1  0  0  0  0
 23 22  2  0  0  0  0
 24 23  1  0  0  0  0
 24 19  2  0  0  0  0
 25 19  1  0  0  0  0
 27 28  2  0  0  0  0
 27 23  1  0  0  0  0
 29 30  1  0  0  0  0
 30 32  1  0  0  0  0
 30 31  2  0  0  0  0
 32 27  1  0  0  0  0
 33 32  1  0  0  0  0
M  END
>  <minimizedAffinity>
-4.36987209

$$$$

 OpenBabel03262521023D

 33 34  0  0  1  0  0  0  0  0999 V2000
   38.1420   27.7570   31.5050 N   0  0  0  0  0  0  0  0  0  0  0  0
   37.3170   26.9960   32.3930 C   0  0  1  0  0  0  0  0  0  0  0  0
   36.3820   27.9090   33.1340 C   0  0  0  0  0  0  0  0  0  0  0  0
   35.5700   28.6030   32.1380 N   0  0  0  0  0  0  0  0  0  0  0  0
   36.5170   29.5180   31.4700 C   0  0  0  0  0  0  0  0  0  0  0  0
   37.4240   28.6230   30.6300 C   0  0  2  0  0  0  0  0  0  0  0  0
   38.9430   27.2720   31.0970 H   0  0  0  0  0  0  0  0  0  0  0  0
   37.9420   26.4400   33.0980 H   0  0  0  0  0  0  0  0  0  0  0  0
   36.8990   28.6370   33.7780 H   0  0  0  0  0  0  0  0  0  0  0  0
   35.7110   27.2500   33.7440 H   0  0  0  0  0  0  0  0  0  0  0  0
   35.1850   27.9200   31.4640 H   0  0  0  0  0  0  0  0  0  0  0  0
   37.1020   30.0120   32.2640 H   0  0  0  0  0  0  0  0  0  0  0  0
   36.0050   30.2360   30.8270 H   0  0  0  0  0  0  0  0  0  0  0  0
   38.1640   29.2960   30.1430 H   0  0  0  0  0  0  0  0  0  0  0  0
   36.6110   27.9310   29.6520 N   0  0  0  0  0  0  0  0  0  0  0  0
   37.2030   27.1530   29.2410 H   0  0  0  0  0  0  0  0  0  0  0  0
   36.4820   28.6120   28.8460 H   0  0  0  0  0  0  0  0  0  0  0  0
   36.2530   25.8020   31.4880 S   0  0  0  0  0  0  0  0  0  0  0  0
   39.0880   23.3810   29.9110 C   0  0  0  0  0  0  0  0  0  0  0  0
   38.4180   24.5290   30.2850 C   0  0  0  0  0  0  0  0  0  0  0  0
   37.2270   24.4190   30.9450 C   0  0  0  0  0  0  0  0  0  0  0  0
   36.7330   23.1530   31.2160 N   0  0  0  0  0  0  0  0  0  0  0  0
   37.4320   22.0850   30.8270 C   0  0  0  0  0  0  0  0  0  0  0  0
   38.5960   22.1650   30.1820 N   0  0  0  0  0  0  0  0  0  0  0  0
   40.0380   23.4360   29.3850 H   0  0  0  0  0  0  0  0  0  0  0  0
   38.8100   25.5090   30.0690 H   0  0  0  0  0  0  0  0  0  0  0  0
   36.8950   20.7530   31.1220 C   0  0  0  0  0  0  0  0  0  0  0  0
   36.6890   19.8760   30.2470 O   0  0  0  0  0  0  0  0  0  0  0  0
   35.0560   19.8050   33.9450 H   0  0  0  0  0  0  0  0  0  0  0  0
   35.2830   20.0570   32.9060 C   0  0  0  0  0  0  0  0  0  0  0  0
   34.3420   20.0190   32.0730 O   0  0  0  0  0  0  0  0  0  0  0  0
   36.5820   20.4200   32.4810 N   0  0  0  0  0  0  0  0  0  0  0  0
   37.3730   20.4530   33.1760 H   0  0  0  0  0  0  0  0  0  0  0  0
  1  2  1  0  0  0  0
  2  8  1  1  0  0  0
  2  3  1  0  0  0  0
  3 10  1  0  0  0  0
  3  9  1  0  0  0  0
  4  3  1  0  0  0  0
  5  4  1  0  0  0  0
  5 12  1  0  0  0  0
  6 14  1  6  0  0  0
  6  5  1  0  0  0  0
  6  1  1  0  0  0  0
  7  1  1  0  0  0  0
 11  4  1  0  0  0  0
 13  5  1  0  0  0  0
 15  6  1  0  0  0  0
 16 15  1  0  0  0  0
 17 15  1  0  0  0  0
 18  2  1  0  0  0  0
 19 24  2  0  0  0  0
 19 20  1  0  0  0  0
 20 21  2  0  0  0  0
 21 22  1  0  0  0  0
 21 18  1  0  0  0  0
 23 27  1  0  0  0  0
 23 22  2  0  0  0  0
 24 23  1  0  0  0  0
 25 19  1  0  0  0  0
 26 20  1  0  0  0  0
 27 32  1  0  0  0  0
 28 27  2  0  0  0  0
 30 29  1  0  0  0  0
 31 30  2  0  0  0  0
 32 30  1  0  0  0  0
 32 33  1  0  0  0  0
M  END
>  <minimizedAffinity>
-4.36965752

$$$$
