
 OpenBabel03262521013D

 33 34  0  0  1  0  0  0  0  0999 V2000
   39.6870   33.1250   46.0560 N   0  0  0  0  0  0  0  0  0  0  0  0
   38.4380   32.4270   46.0720 C   0  0  1  0  0  0  0  0  0  0  0  0
   37.8440   32.4050   44.6920 C   0  0  0  0  0  0  0  0  0  0  0  0
   38.8030   31.7330   43.8170 N   0  0  0  0  0  0  0  0  0  0  0  0
   39.9280   32.6830   43.7120 C   0  0  0  0  0  0  0  0  0  0  0  0
   40.6110   32.6570   45.0770 C   0  0  2  0  0  0  0  0  0  0  0  0
   40.0840   33.3730   46.9640 H   0  0  0  0  0  0  0  0  0  0  0  0
   37.7500   32.9110   46.7730 H   0  0  0  0  0  0  0  0  0  0  0  0
   37.6080   33.4060   44.3000 H   0  0  0  0  0  0  0  0  0  0  0  0
   36.9180   31.7760   44.7540 H   0  0  0  0  0  0  0  0  0  0  0  0
   39.1110   30.8470   44.2510 H   0  0  0  0  0  0  0  0  0  0  0  0
   39.4920   33.6800   43.5270 H   0  0  0  0  0  0  0  0  0  0  0  0
   40.6360   32.3910   42.9350 H   0  0  0  0  0  0  0  0  0  0  0  0
   41.4450   33.3910   45.0240 H   0  0  0  0  0  0  0  0  0  0  0  0
   41.1000   31.3160   45.3210 N   0  0  0  0  0  0  0  0  0  0  0  0
   41.3570   31.2540   46.3480 H   0  0  0  0  0  0  0  0  0  0  0  0
   42.0320   31.2490   44.8160 H   0  0  0  0  0  0  0  0  0  0  0  0
   38.6390   30.6690   46.5700 S   0  0  0  0  0  0  0  0  0  0  0  0
   37.8370   30.6700   50.5370 C   0  0  0  0  0  0  0  0  0  0  0  0
   38.4660   30.9330   49.3360 C   0  0  0  0  0  0  0  0  0  0  0  0
   37.9430   30.4180   48.1850 C   0  0  0  0  0  0  0  0  0  0  0  0
   36.7940   29.6460   48.2640 N   0  0  0  0  0  0  0  0  0  0  0  0
   36.2360   29.4310   49.4570 C   0  0  0  0  0  0  0  0  0  0  0  0
   36.7260   29.9230   50.5960 N   0  0  0  0  0  0  0  0  0  0  0  0
   38.2290   31.0660   51.4710 H   0  0  0  0  0  0  0  0  0  0  0  0
   39.3580   31.5340   49.2850 H   0  0  0  0  0  0  0  0  0  0  0  0
   35.0220   28.6130   49.5230 C   0  0  0  0  0  0  0  0  0  0  0  0
   35.0270   27.3760   49.7430 O   0  0  0  0  0  0  0  0  0  0  0  0
   32.5970   31.1190   49.2260 H   0  0  0  0  0  0  0  0  0  0  0  0
   33.5720   30.6470   49.3770 C   0  0  0  0  0  0  0  0  0  0  0  0
   34.5570   31.3940   49.6040 O   0  0  0  0  0  0  0  0  0  0  0  0
   33.7510   29.2460   49.3260 N   0  0  0  0  0  0  0  0  0  0  0  0
   32.9270   28.6150   49.1370 H   0  0  0  0  0  0  0  0  0  0  0  0
  1  2  1  0  0  0  0
  1  7  1  0  0  0  0
  2 18  1  0  0  0  0
  2  8  1  1  0  0  0
  3 10  1  0  0  0  0
  3  2  1  0  0  0  0
  4 11  1  0  0  0  0
  4  3  1  0  0  0  0
  5  4  1  0  0  0  0
  5  6  1  0  0  0  0
  6 14  1  6  0  0  0
  6 15  1  0  0  0  0
  6  1  1  0  0  0  0
  9  3  1  0  0  0  0
 12  5  1  0  0  0  0
 13  5  1  0  0  0  0
 15 16  1  0  0  0  0
 17 15  1  0  0  0  0
 18 21  1  0  0  0  0
 19 24  1  0  0  0  0
 19 25  1  0  0  0  0
 20 19  2  0  0  0  0
 21 22  2  0  0  0  0
 21 20  1  0  0  0  0
 22 23  1  0  0  0  0
 23 27  1  0  0  0  0
 23 24  2  0  0  0  0
 26 20  1  0  0  0  0
 27 28  2  0  0  0  0
 29 30  1  0  0  0  0
 30 31  2  0  0  0  0
 32 30  1  0  0  0  0
 32 27  1  0  0  0  0
 33 32  1  0  0  0  0
M  END
>  <minimizedAffinity>
-3.65781069

>  <minimizedRMSD>
1.20767856

$$$$
