
 OpenBabel03272510233D

 28 30  0  0  0  0  0  0  0  0999 V2000
   35.2110   29.8200   47.1170 C   0  0  0  0  0  0  0  0  0  0  0  0
   36.4090   30.2750   47.6280 C   0  0  0  0  0  0  0  0  0  0  0  0
   37.3430   30.8360   46.7880 C   0  0  0  0  0  0  0  0  0  0  0  0
   37.0270   30.9180   45.4350 C   0  0  0  0  0  0  0  0  0  0  0  0
   37.8000   31.4350   44.4190 N   0  0  0  0  0  0  0  0  0  0  0  0
   37.0810   31.2960   43.3090 C   0  0  0  0  0  0  0  0  0  0  0  0
   35.9030   30.7240   43.5580 N   0  0  0  0  0  0  0  0  0  0  0  0
   35.8460   30.4760   44.8890 C   0  0  0  0  0  0  0  0  0  0  0  0
   34.9200   29.9150   45.7560 C   0  0  0  0  0  0  0  0  0  0  0  0
   34.4380   29.3740   47.6980 H   0  0  0  0  0  0  0  0  0  0  0  0
   38.2750   31.1920   47.1750 H   0  0  0  0  0  0  0  0  0  0  0  0
   38.7680   31.8490   44.5620 H   0  0  0  0  0  0  0  0  0  0  0  0
   33.9960   29.5690   45.3280 H   0  0  0  0  0  0  0  0  0  0  0  0
   37.8490   30.4370   51.0940 C   0  0  0  0  0  0  0  0  0  0  0  0
   37.7510   30.6340   49.7190 C   0  0  0  0  0  0  0  0  0  0  0  0
   36.6330   30.1380   49.0550 C   0  0  0  0  0  0  0  0  0  0  0  0
   35.6800   29.4800   49.7850 N   0  0  0  0  0  0  0  0  0  0  0  0
   35.8050   29.3040   51.1260 C   0  0  0  0  0  0  0  0  0  0  0  0
   36.8680   29.7740   51.7620 N   0  0  0  0  0  0  0  0  0  0  0  0
   38.7130   30.8200   51.6010 H   0  0  0  0  0  0  0  0  0  0  0  0
   38.5000   31.1510   49.1460 H   0  0  0  0  0  0  0  0  0  0  0  0
   35.0240   28.7780   51.6460 H   0  0  0  0  0  0  0  0  0  0  0  0
   37.6020   31.7340   42.0950 O   0  0  0  0  0  0  0  0  0  0  0  0
   38.0570   32.9930   41.8260 C   0  0  0  0  0  0  0  0  0  0  0  0
   39.0990   33.7170   41.9090 O   0  0  0  0  0  0  0  0  0  0  0  0
   36.9990   33.7830   41.2490 N   0  0  0  0  0  0  0  0  0  0  0  0
   36.2420   34.4540   41.0860 H   0  0  0  0  0  0  0  0  0  0  0  0
   36.8220   33.5240   40.2520 H   0  0  0  0  0  0  0  0  0  0  0  0
  1  2  1  0  0  0  0
  1 10  1  0  0  0  0
  2 16  1  0  0  0  0
  3 11  1  0  0  0  0
  3  2  2  0  0  0  0
  4  3  1  0  0  0  0
  5 12  1  0  0  0  0
  5  4  1  0  0  0  0
  6  7  2  0  0  0  0
  6  5  1  0  0  0  0
  7  8  1  0  0  0  0
  8  4  2  0  0  0  0
  8  9  1  0  0  0  0
  9  1  2  0  0  0  0
 13  9  1  0  0  0  0
 14 20  1  0  0  0  0
 14 19  1  0  0  0  0
 15 14  2  0  0  0  0
 16 15  1  0  0  0  0
 16 17  2  0  0  0  0
 17 18  1  0  0  0  0
 18 22  1  0  0  0  0
 18 19  2  0  0  0  0
 21 15  1  0  0  0  0
 23  6  1  0  0  0  0
 24 25  2  0  0  0  0
 24 23  1  0  0  0  0
 26 24  1  0  0  0  0
 27 26  1  0  0  0  0
 28 26  1  0  0  0  0
M  END
>  <minimizedAffinity>
-4.6765976

>  <minimizedRMSD>
2.68903041

$$$$
