
 OpenBabel03262521013D

 33 34  0  0  1  0  0  0  0  0999 V2000
   39.5080   33.1370   45.3620 N   0  0  0  0  0  0  0  0  0  0  0  0
   38.2310   32.4920   45.4050 C   0  0  1  0  0  0  0  0  0  0  0  0
   37.6460   32.4220   44.0220 C   0  0  0  0  0  0  0  0  0  0  0  0
   38.5820   31.6680   43.1910 N   0  0  0  0  0  0  0  0  0  0  0  0
   39.7450   32.5650   43.0470 C   0  0  0  0  0  0  0  0  0  0  0  0
   40.4180   32.5820   44.4170 C   0  0  2  0  0  0  0  0  0  0  0  0
   39.9090   33.4160   46.2600 H   0  0  0  0  0  0  0  0  0  0  0  0
   37.5600   33.0390   46.0740 H   0  0  0  0  0  0  0  0  0  0  0  0
   37.4520   33.4100   43.5780 H   0  0  0  0  0  0  0  0  0  0  0  0
   36.6950   31.8350   44.1100 H   0  0  0  0  0  0  0  0  0  0  0  0
   38.8510   30.7940   43.6730 H   0  0  0  0  0  0  0  0  0  0  0  0
   39.3500   33.5680   42.8070 H   0  0  0  0  0  0  0  0  0  0  0  0
   40.4460   32.2050   42.2920 H   0  0  0  0  0  0  0  0  0  0  0  0
   41.2810   33.2790   44.3330 H   0  0  0  0  0  0  0  0  0  0  0  0
   40.8510   31.2380   44.7330 N   0  0  0  0  0  0  0  0  0  0  0  0
   41.0990   31.2190   45.7640 H   0  0  0  0  0  0  0  0  0  0  0  0
   41.7830   31.1070   44.2400 H   0  0  0  0  0  0  0  0  0  0  0  0
   38.3590   30.7560   45.9940 S   0  0  0  0  0  0  0  0  0  0  0  0
   38.2390   31.3010   50.0030 C   0  0  0  0  0  0  0  0  0  0  0  0
   38.6080   31.4450   48.6800 C   0  0  0  0  0  0  0  0  0  0  0  0
   37.9920   30.6810   47.7300 C   0  0  0  0  0  0  0  0  0  0  0  0
   37.0140   29.7850   48.1320 N   0  0  0  0  0  0  0  0  0  0  0  0
   36.7050   29.6950   49.4270 C   0  0  0  0  0  0  0  0  0  0  0  0
   37.2910   30.4290   50.3730 N   0  0  0  0  0  0  0  0  0  0  0  0
   38.7110   31.8950   50.7820 H   0  0  0  0  0  0  0  0  0  0  0  0
   39.3690   32.1450   48.3790 H   0  0  0  0  0  0  0  0  0  0  0  0
   35.6690   28.7410   49.8330 C   0  0  0  0  0  0  0  0  0  0  0  0
   35.4270   27.6720   49.2190 O   0  0  0  0  0  0  0  0  0  0  0  0
   33.2520   30.2110   51.8950 H   0  0  0  0  0  0  0  0  0  0  0  0
   33.8480   29.9980   51.0030 C   0  0  0  0  0  0  0  0  0  0  0  0
   33.5920   30.6460   49.9580 O   0  0  0  0  0  0  0  0  0  0  0  0
   34.8800   29.0320   50.9950 N   0  0  0  0  0  0  0  0  0  0  0  0
   35.0980   28.4860   51.8700 H   0  0  0  0  0  0  0  0  0  0  0  0
  1  2  1  0  0  0  0
  1  7  1  0  0  0  0
  2 18  1  0  0  0  0
  2  8  1  1  0  0  0
  3 10  1  0  0  0  0
  3  2  1  0  0  0  0
  4 11  1  0  0  0  0
  4  3  1  0  0  0  0
  5  4  1  0  0  0  0
  5  6  1  0  0  0  0
  6 14  1  6  0  0  0
  6 15  1  0  0  0  0
  6  1  1  0  0  0  0
  9  3  1  0  0  0  0
 12  5  1  0  0  0  0
 13  5  1  0  0  0  0
 15 16  1  0  0  0  0
 17 15  1  0  0  0  0
 18 21  1  0  0  0  0
 19 24  1  0  0  0  0
 19 25  1  0  0  0  0
 20 19  2  0  0  0  0
 21 22  2  0  0  0  0
 21 20  1  0  0  0  0
 22 23  1  0  0  0  0
 23 27  1  0  0  0  0
 23 24  2  0  0  0  0
 26 20  1  0  0  0  0
 27 32  1  0  0  0  0
 28 27  2  0  0  0  0
 30 29  1  0  0  0  0
 31 30  2  0  0  0  0
 32 30  1  0  0  0  0
 32 33  1  0  0  0  0
M  END
>  <minimizedAffinity>
-3.87747574

>  <minimizedRMSD>
0.840426624

$$$$
