
 OpenBabel03262521443D

 42 44  0  0  1  0  0  0  0  0999 V2000
   38.1300   30.7260   47.5910 O   0  0  0  0  0  0  0  0  0  0  0  0
   37.9230   30.5230   45.1610 C   0  0  2  0  0  0  0  0  0  0  0  0
   38.5420   31.1820   46.3780 C   0  0  2  0  0  0  0  0  0  0  0  0
   40.0240   31.1530   46.2030 C   0  0  0  0  0  0  0  0  0  0  0  0
   40.3800   31.2840   44.8900 O   0  0  0  0  0  0  0  0  0  0  0  0
   39.5420   32.1860   44.2640 C   0  0  0  0  0  0  0  0  0  0  0  0
   38.2280   31.4990   43.9950 C   0  0  2  0  0  0  0  0  0  0  0  0
   38.4360   29.5800   44.8960 H   0  0  0  0  0  0  0  0  0  0  0  0
   38.2480   32.2170   46.1430 H   0  0  0  0  0  0  0  0  0  0  0  0
   40.3470   30.1120   46.5060 H   0  0  0  0  0  0  0  0  0  0  0  0
   40.5510   31.8580   46.8830 H   0  0  0  0  0  0  0  0  0  0  0  0
   39.9810   32.3780   43.2590 H   0  0  0  0  0  0  0  0  0  0  0  0
   39.4630   33.1580   44.7600 H   0  0  0  0  0  0  0  0  0  0  0  0
   38.2550   30.9130   43.0570 H   0  0  0  0  0  0  0  0  0  0  0  0
   36.5770   30.3750   45.1580 O   0  0  0  0  0  0  0  0  0  0  0  0
   36.3410   29.4980   44.7680 H   0  0  0  0  0  0  0  0  0  0  0  0
   37.2560   32.5280   43.9890 O   0  0  0  0  0  0  0  0  0  0  0  0
   36.4240   32.7660   42.9020 C   0  0  0  0  0  0  0  0  0  0  0  0
   36.9020   33.2790   41.8470 O   0  0  0  0  0  0  0  0  0  0  0  0
   35.0860   32.3680   43.1720 N   0  0  0  0  0  0  0  0  0  0  0  0
   34.3680   32.9970   43.5890 H   0  0  0  0  0  0  0  0  0  0  0  0
   34.5920   31.4790   43.0320 H   0  0  0  0  0  0  0  0  0  0  0  0
   37.4450   31.6510   48.2700 C   0  0  1  0  0  0  0  0  0  0  0  0
   36.5910   31.1140   49.3900 C   0  0  2  0  0  0  0  0  0  0  0  0
   37.7220   30.5020   50.2310 C   0  0  0  0  0  0  0  0  0  0  0  0
   38.7500   31.4120   50.2230 O   0  0  0  0  0  0  0  0  0  0  0  0
   38.5120   32.2750   49.2280 C   0  0  0  0  0  0  0  0  0  0  0  0
   37.1870   32.5970   47.7400 H   0  0  0  0  0  0  0  0  0  0  0  0
   36.1520   31.9720   49.8980 H   0  0  0  0  0  0  0  0  0  0  0  0
   38.0280   29.5540   49.7420 H   0  0  0  0  0  0  0  0  0  0  0  0
   37.3530   30.2510   51.2380 H   0  0  0  0  0  0  0  0  0  0  0  0
   37.7500   32.9620   49.7820 H   0  0  0  0  0  0  0  0  0  0  0  0
   39.1260   33.0380   48.9070 H   0  0  0  0  0  0  0  0  0  0  0  0
   35.6470   30.0890   48.9250 C   0  0  0  0  0  0  0  0  0  0  0  0
   34.7520   30.4410   47.9120 C   0  0  0  0  0  0  0  0  0  0  0  0
   33.8390   29.4400   47.4950 C   0  0  0  0  0  0  0  0  0  0  0  0
   33.8860   28.2050   48.1000 N   0  0  0  0  0  0  0  0  0  0  0  0
   34.7740   27.9120   49.0790 C   0  0  0  0  0  0  0  0  0  0  0  0
   35.6460   28.8600   49.4800 N   0  0  0  0  0  0  0  0  0  0  0  0
   34.6930   31.3880   47.4250 H   0  0  0  0  0  0  0  0  0  0  0  0
   33.1000   29.5640   46.7330 H   0  0  0  0  0  0  0  0  0  0  0  0
   34.7910   26.9350   49.5400 H   0  0  0  0  0  0  0  0  0  0  0  0
  1 23  1  0  0  0  0
  2  8  1  6  0  0  0
  2  3  1  0  0  0  0
  3  9  1  6  0  0  0
  3  1  1  0  0  0  0
  4  3  1  0  0  0  0
  4 10  1  0  0  0  0
  4 11  1  0  0  0  0
  5  4  1  0  0  0  0
  6 13  1  0  0  0  0
  6  5  1  0  0  0  0
  7 14  1  6  0  0  0
  7  6  1  0  0  0  0
  7  2  1  0  0  0  0
 12  6  1  0  0  0  0
 15  2  1  0  0  0  0
 16 15  1  0  0  0  0
 17  7  1  0  0  0  0
 18 20  1  0  0  0  0
 18 17  1  0  0  0  0
 19 18  2  0  0  0  0
 20 21  1  0  0  0  0
 22 20  1  0  0  0  0
 23 28  1  6  0  0  0
 23 27  1  0  0  0  0
 23 24  1  0  0  0  0
 24 29  1  1  0  0  0
 24 25  1  0  0  0  0
 25 31  1  0  0  0  0
 26 25  1  0  0  0  0
 27 32  1  0  0  0  0
 27 26  1  0  0  0  0
 30 25  1  0  0  0  0
 33 27  1  0  0  0  0
 34 24  1  0  0  0  0
 34 39  1  0  0  0  0
 35 34  2  0  0  0  0
 36 35  1  0  0  0  0
 36 37  2  0  0  0  0
 37 38  1  0  0  0  0
 38 39  2  0  0  0  0
 38 42  1  0  0  0  0
 40 35  1  0  0  0  0
 41 36  1  0  0  0  0
M  END
>  <minimizedAffinity>
-5.4412837

>  <minimizedRMSD>
2.05717754

$$$$
