
 OpenBabel03272510233D

 28 30  0  0  0  0  0  0  0  0999 V2000
   36.1280   30.1240   46.8320 C   0  0  0  0  0  0  0  0  0  0  0  0
   36.9950   30.7060   47.7340 C   0  0  0  0  0  0  0  0  0  0  0  0
   37.9460   31.5970   47.2930 C   0  0  0  0  0  0  0  0  0  0  0  0
   37.9880   31.8730   45.9290 C   0  0  0  0  0  0  0  0  0  0  0  0
   38.8460   32.7230   45.2680 N   0  0  0  0  0  0  0  0  0  0  0  0
   38.5050   32.6570   43.9850 C   0  0  0  0  0  0  0  0  0  0  0  0
   37.4860   31.8200   43.7920 N   0  0  0  0  0  0  0  0  0  0  0  0
   37.1430   31.3130   45.0010 C   0  0  0  0  0  0  0  0  0  0  0  0
   36.1920   30.4180   45.4700 C   0  0  0  0  0  0  0  0  0  0  0  0
   35.3660   29.4260   47.0920 H   0  0  0  0  0  0  0  0  0  0  0  0
   38.6220   32.0530   47.9850 H   0  0  0  0  0  0  0  0  0  0  0  0
   39.6070   33.2890   45.7470 H   0  0  0  0  0  0  0  0  0  0  0  0
   35.5310   29.9810   44.7430 H   0  0  0  0  0  0  0  0  0  0  0  0
   37.5640   30.2340   51.4170 C   0  0  0  0  0  0  0  0  0  0  0  0
   37.8110   30.6360   50.1070 C   0  0  0  0  0  0  0  0  0  0  0  0
   36.8610   30.3450   49.1330 C   0  0  0  0  0  0  0  0  0  0  0  0
   35.7260   29.6760   49.5080 N   0  0  0  0  0  0  0  0  0  0  0  0
   35.5150   29.2980   50.7950 C   0  0  0  0  0  0  0  0  0  0  0  0
   36.4170   29.5730   51.7250 N   0  0  0  0  0  0  0  0  0  0  0  0
   38.3000   30.4610   52.1640 H   0  0  0  0  0  0  0  0  0  0  0  0
   38.7030   31.1610   49.8130 H   0  0  0  0  0  0  0  0  0  0  0  0
   34.6050   28.7750   51.0300 H   0  0  0  0  0  0  0  0  0  0  0  0
   39.2010   33.4180   43.0490 O   0  0  0  0  0  0  0  0  0  0  0  0
   38.9540   33.4600   41.7070 C   0  0  0  0  0  0  0  0  0  0  0  0
   38.5300   34.2360   40.7940 O   0  0  0  0  0  0  0  0  0  0  0  0
   39.2840   32.1910   41.1100 N   0  0  0  0  0  0  0  0  0  0  0  0
   39.2510   31.2610   40.6810 H   0  0  0  0  0  0  0  0  0  0  0  0
   40.3170   32.0630   41.0180 H   0  0  0  0  0  0  0  0  0  0  0  0
  1 10  1  0  0  0  0
  1  2  1  0  0  0  0
  2 16  1  0  0  0  0
  3  2  2  0  0  0  0
  3 11  1  0  0  0  0
  4  3  1  0  0  0  0
  5 12  1  0  0  0  0
  5  4  1  0  0  0  0
  6  5  1  0  0  0  0
  7  6  2  0  0  0  0
  7  8  1  0  0  0  0
  8  9  1  0  0  0  0
  8  4  2  0  0  0  0
  9  1  2  0  0  0  0
 13  9  1  0  0  0  0
 14 19  1  0  0  0  0
 14 20  1  0  0  0  0
 15 14  2  0  0  0  0
 16 17  2  0  0  0  0
 16 15  1  0  0  0  0
 17 18  1  0  0  0  0
 18 22  1  0  0  0  0
 18 19  2  0  0  0  0
 21 15  1  0  0  0  0
 23  6  1  0  0  0  0
 24 23  1  0  0  0  0
 25 24  2  0  0  0  0
 26 24  1  0  0  0  0
 27 26  1  0  0  0  0
 28 26  1  0  0  0  0
M  END
>  <minimizedAffinity>
-5.2211132

>  <minimizedRMSD>
1.88148999

$$$$
