
 OpenBabel03272500553D

 29 30  0  0  0  0  0  0  0  0999 V2000
   35.5660   29.9100   46.9460 C   0  0  0  0  0  0  0  0  0  0  0  0
   34.5140   29.4620   46.1810 C   0  0  0  0  0  0  0  0  0  0  0  0
   34.5190   29.5450   44.7900 C   0  0  0  0  0  0  0  0  0  0  0  0
   35.6740   30.1190   44.1510 C   0  0  0  0  0  0  0  0  0  0  0  0
   36.6940   30.5490   44.9550 C   0  0  0  0  0  0  0  0  0  0  0  0
   36.6750   30.4660   46.2950 C   0  0  0  0  0  0  0  0  0  0  0  0
   33.6230   29.0170   46.6500 H   0  0  0  0  0  0  0  0  0  0  0  0
   33.6290   29.1600   44.2670 H   0  0  0  0  0  0  0  0  0  0  0  0
   35.4970   30.0990   43.0900 H   0  0  0  0  0  0  0  0  0  0  0  0
   37.4170   30.8740   44.2350 H   0  0  0  0  0  0  0  0  0  0  0  0
   36.5860   29.3820   49.1010 C   0  0  0  0  0  0  0  0  0  0  0  0
   35.4230   29.7260   48.3680 C   0  0  0  0  0  0  0  0  0  0  0  0
   34.2640   29.8510   49.1130 C   0  0  0  0  0  0  0  0  0  0  0  0
   34.2760   29.6530   50.4380 N   0  0  0  0  0  0  0  0  0  0  0  0
   35.3720   29.3320   51.1100 C   0  0  0  0  0  0  0  0  0  0  0  0
   36.5190   29.1990   50.4370 N   0  0  0  0  0  0  0  0  0  0  0  0
   37.5650   29.2500   48.6540 H   0  0  0  0  0  0  0  0  0  0  0  0
   33.3690   30.1170   48.5440 H   0  0  0  0  0  0  0  0  0  0  0  0
   35.3500   29.1790   52.1790 H   0  0  0  0  0  0  0  0  0  0  0  0
   38.3200   32.1230   46.4930 C   0  0  0  0  0  0  0  0  0  0  0  0
   37.8680   32.5850   45.3710 O   0  0  0  0  0  0  0  0  0  0  0  0
   37.7130   30.9350   47.0760 N   0  0  0  0  0  0  0  0  0  0  0  0
   38.0280   30.5140   47.9460 H   0  0  0  0  0  0  0  0  0  0  0  0
   39.3980   32.7380   47.1850 O   0  0  0  0  0  0  0  0  0  0  0  0
   39.1620   33.2840   48.4430 C   0  0  0  0  0  0  0  0  0  0  0  0
   38.6300   32.5930   49.3400 O   0  0  0  0  0  0  0  0  0  0  0  0
   39.5360   34.6240   48.6730 N   0  0  0  0  0  0  0  0  0  0  0  0
   39.1020   35.1260   49.4870 H   0  0  0  0  0  0  0  0  0  0  0  0
   40.2210   35.1100   48.0590 H   0  0  0  0  0  0  0  0  0  0  0  0
  1 12  1  0  0  0  0
  2  7  1  0  0  0  0
  2  1  2  0  0  0  0
  3  2  1  0  0  0  0
  4  3  2  0  0  0  0
  4  5  1  0  0  0  0
  5  6  2  0  0  0  0
  6  1  1  0  0  0  0
  6 22  1  0  0  0  0
  8  3  1  0  0  0  0
  9  4  1  0  0  0  0
 10  5  1  0  0  0  0
 11 16  1  0  0  0  0
 12 11  2  0  0  0  0
 12 13  1  0  0  0  0
 13 14  2  0  0  0  0
 14 15  1  0  0  0  0
 15 19  1  0  0  0  0
 16 15  2  0  0  0  0
 17 11  1  0  0  0  0
 18 13  1  0  0  0  0
 20 22  1  0  0  0  0
 20 24  1  0  0  0  0
 21 20  2  0  0  0  0
 22 23  1  0  0  0  0
 24 25  1  0  0  0  0
 25 27  1  0  0  0  0
 25 26  2  0  0  0  0
 27 28  1  0  0  0  0
 29 27  1  0  0  0  0
M  END
>  <minimizedAffinity>
-4.9410224

>  <minimizedRMSD>
2.92158914

$$$$
