
 OpenBabel03272510243D

 28 30  0  0  0  0  0  0  0  0999 V2000
   36.1110   30.2730   46.7520 C   0  0  0  0  0  0  0  0  0  0  0  0
   37.1890   30.4110   47.6010 C   0  0  0  0  0  0  0  0  0  0  0  0
   38.4160   30.7760   47.0970 C   0  0  0  0  0  0  0  0  0  0  0  0
   38.5110   30.9920   45.7260 C   0  0  0  0  0  0  0  0  0  0  0  0
   39.6270   31.3600   45.0060 N   0  0  0  0  0  0  0  0  0  0  0  0
   39.2300   31.4430   43.7400 C   0  0  0  0  0  0  0  0  0  0  0  0
   37.9360   31.1520   43.6120 N   0  0  0  0  0  0  0  0  0  0  0  0
   37.4610   30.8640   44.8480 C   0  0  0  0  0  0  0  0  0  0  0  0
   36.2340   30.4960   45.3800 C   0  0  0  0  0  0  0  0  0  0  0  0
   35.1300   29.9940   47.0620 H   0  0  0  0  0  0  0  0  0  0  0  0
   39.2580   30.8860   47.7480 H   0  0  0  0  0  0  0  0  0  0  0  0
   40.5830   31.5280   45.4380 H   0  0  0  0  0  0  0  0  0  0  0  0
   35.4130   30.3960   44.6930 H   0  0  0  0  0  0  0  0  0  0  0  0
   37.5530   30.2190   51.3360 C   0  0  0  0  0  0  0  0  0  0  0  0
   37.8760   30.5150   50.0140 C   0  0  0  0  0  0  0  0  0  0  0  0
   36.9750   30.1610   49.0140 C   0  0  0  0  0  0  0  0  0  0  0  0
   35.8120   29.5360   49.3780 N   0  0  0  0  0  0  0  0  0  0  0  0
   35.5260   29.2610   50.6760 C   0  0  0  0  0  0  0  0  0  0  0  0
   36.3820   29.5970   51.6310 N   0  0  0  0  0  0  0  0  0  0  0  0
   38.2520   30.4940   52.1020 H   0  0  0  0  0  0  0  0  0  0  0  0
   38.7900   31.0060   49.7290 H   0  0  0  0  0  0  0  0  0  0  0  0
   34.5970   28.7680   50.9010 H   0  0  0  0  0  0  0  0  0  0  0  0
   40.1480   31.8030   42.7560 O   0  0  0  0  0  0  0  0  0  0  0  0
   40.1710   31.3350   41.4730 C   0  0  0  0  0  0  0  0  0  0  0  0
   40.8660   30.6230   40.6820 O   0  0  0  0  0  0  0  0  0  0  0  0
   39.0100   31.8060   40.7620 N   0  0  0  0  0  0  0  0  0  0  0  0
   38.3650   32.3070   40.1430 H   0  0  0  0  0  0  0  0  0  0  0  0
   38.1460   31.2880   41.0440 H   0  0  0  0  0  0  0  0  0  0  0  0
  1 10  1  0  0  0  0
  1  2  1  0  0  0  0
  2 16  1  0  0  0  0
  3  2  2  0  0  0  0
  3 11  1  0  0  0  0
  4  3  1  0  0  0  0
  5 12  1  0  0  0  0
  5  4  1  0  0  0  0
  6  5  1  0  0  0  0
  7  6  2  0  0  0  0
  7  8  1  0  0  0  0
  8  9  1  0  0  0  0
  8  4  2  0  0  0  0
  9  1  2  0  0  0  0
 13  9  1  0  0  0  0
 14 19  1  0  0  0  0
 14 20  1  0  0  0  0
 15 14  2  0  0  0  0
 16 17  2  0  0  0  0
 16 15  1  0  0  0  0
 17 18  1  0  0  0  0
 18 22  1  0  0  0  0
 18 19  2  0  0  0  0
 21 15  1  0  0  0  0
 23  6  1  0  0  0  0
 24 23  1  0  0  0  0
 25 24  2  0  0  0  0
 26 28  1  0  0  0  0
 26 24  1  0  0  0  0
 27 26  1  0  0  0  0
M  END
>  <minimizedAffinity>
-5.02590179

>  <minimizedRMSD>
2.69433498

$$$$
