
 OpenBabel03272507173D

 22 23  0  0  1  0  0  0  0  0999 V2000
   37.5390   24.1150   37.1480 C   0  0  1  0  0  0  0  0  0  0  0  0
   38.4640   23.2390   37.8350 C   0  0  2  0  0  0  0  0  0  0  0  0
   37.9860   24.4750   38.5680 C   0  0  0  0  0  0  0  0  0  0  0  0
   36.4290   23.9020   37.0850 H   0  0  0  0  0  0  0  0  0  0  0  0
   38.0650   22.2440   38.1460 H   0  0  0  0  0  0  0  0  0  0  0  0
   37.2870   24.2570   39.3940 H   0  0  0  0  0  0  0  0  0  0  0  0
   38.7150   25.2970   38.7000 H   0  0  0  0  0  0  0  0  0  0  0  0
   38.0240   25.1230   36.1350 C   0  0  0  0  0  0  0  0  0  0  0  0
   38.1970   24.6510   34.8340 C   0  0  0  0  0  0  0  0  0  0  0  0
   38.6730   25.6020   33.9200 C   0  0  0  0  0  0  0  0  0  0  0  0
   38.9340   26.8810   34.3130 N   0  0  0  0  0  0  0  0  0  0  0  0
   38.7480   27.2880   35.5950 C   0  0  0  0  0  0  0  0  0  0  0  0
   38.2860   26.3960   36.5200 N   0  0  0  0  0  0  0  0  0  0  0  0
   37.9760   23.6270   34.5700 H   0  0  0  0  0  0  0  0  0  0  0  0
   38.8240   25.2870   32.8950 H   0  0  0  0  0  0  0  0  0  0  0  0
   38.9490   28.2950   35.9310 H   0  0  0  0  0  0  0  0  0  0  0  0
   39.8160   23.2390   37.4570 O   0  0  0  0  0  0  0  0  0  0  0  0
   40.4510   22.1360   36.8870 C   0  0  0  0  0  0  0  0  0  0  0  0
   40.4280   22.0220   35.6340 O   0  0  0  0  0  0  0  0  0  0  0  0
   41.0450   21.2870   37.8410 N   0  0  0  0  0  0  0  0  0  0  0  0
   41.8580   20.7440   38.1830 H   0  0  0  0  0  0  0  0  0  0  0  0
   40.4940   20.9590   38.6900 H   0  0  0  0  0  0  0  0  0  0  0  0
  1  4  1  6  0  0  0
  1  2  1  0  0  0  0
  1  3  1  0  0  0  0
  2  5  1  1  0  0  0
  2  3  1  0  0  0  0
  3  7  1  0  0  0  0
  3  6  1  0  0  0  0
  8 13  1  0  0  0  0
  8  1  1  0  0  0  0
  9  8  2  0  0  0  0
 10 11  2  0  0  0  0
 10  9  1  0  0  0  0
 11 12  1  0  0  0  0
 12 16  1  0  0  0  0
 12 13  2  0  0  0  0
 14  9  1  0  0  0  0
 15 10  1  0  0  0  0
 17  2  1  0  0  0  0
 18 17  1  0  0  0  0
 18 20  1  0  0  0  0
 19 18  2  0  0  0  0
 20 21  1  0  0  0  0
 20 22  1  0  0  0  0
M  END
>  <minimizedAffinity>
-4.12805128

$$$$

 OpenBabel03272507173D

 22 23  0  0  1  0  0  0  0  0999 V2000
   37.7020   24.0890   36.9540 C   0  0  1  0  0  0  0  0  0  0  0  0
   38.5140   23.1470   37.6930 C   0  0  2  0  0  0  0  0  0  0  0  0
   37.9900   24.3590   38.4340 C   0  0  0  0  0  0  0  0  0  0  0  0
   36.6000   23.9180   36.7530 H   0  0  0  0  0  0  0  0  0  0  0  0
   38.0540   22.1520   37.9010 H   0  0  0  0  0  0  0  0  0  0  0  0
   37.1940   24.1230   39.1600 H   0  0  0  0  0  0  0  0  0  0  0  0
   38.7220   25.1470   38.6940 H   0  0  0  0  0  0  0  0  0  0  0  0
   38.3300   25.1290   36.0600 C   0  0  0  0  0  0  0  0  0  0  0  0
   38.1640   26.4570   36.4530 C   0  0  0  0  0  0  0  0  0  0  0  0
   38.7360   27.4030   35.5900 C   0  0  0  0  0  0  0  0  0  0  0  0
   39.3970   27.0140   34.4630 N   0  0  0  0  0  0  0  0  0  0  0  0
   39.5290   25.7040   34.1280 C   0  0  0  0  0  0  0  0  0  0  0  0
   38.9880   24.7480   34.9390 N   0  0  0  0  0  0  0  0  0  0  0  0
   37.6320   26.7180   37.3560 H   0  0  0  0  0  0  0  0  0  0  0  0
   38.6360   28.4500   35.8490 H   0  0  0  0  0  0  0  0  0  0  0  0
   40.0470   25.3710   33.2400 H   0  0  0  0  0  0  0  0  0  0  0  0
   39.9010   23.1190   37.4730 O   0  0  0  0  0  0  0  0  0  0  0  0
   40.5660   22.0270   36.9170 C   0  0  0  0  0  0  0  0  0  0  0  0
   40.5740   21.9160   35.6620 O   0  0  0  0  0  0  0  0  0  0  0  0
   41.1490   21.1840   37.8830 N   0  0  0  0  0  0  0  0  0  0  0  0
   41.9610   20.6520   38.2420 H   0  0  0  0  0  0  0  0  0  0  0  0
   40.5820   20.8460   38.7170 H   0  0  0  0  0  0  0  0  0  0  0  0
  1  4  1  6  0  0  0
  1  2  1  0  0  0  0
  1  3  1  0  0  0  0
  2  5  1  1  0  0  0
  2  3  1  0  0  0  0
  3  7  1  0  0  0  0
  3  6  1  0  0  0  0
  8  9  1  0  0  0  0
  8  1  1  0  0  0  0
  9 14  1  0  0  0  0
 10 15  1  0  0  0  0
 10  9  2  0  0  0  0
 11 10  1  0  0  0  0
 12 11  2  0  0  0  0
 12 13  1  0  0  0  0
 13  8  2  0  0  0  0
 16 12  1  0  0  0  0
 17  2  1  0  0  0  0
 18 17  1  0  0  0  0
 18 20  1  0  0  0  0
 19 18  2  0  0  0  0
 20 21  1  0  0  0  0
 20 22  1  0  0  0  0
M  END
>  <minimizedAffinity>
-4.10718346

$$$$

 OpenBabel03272507173D

 22 23  0  0  1  0  0  0  0  0999 V2000
   39.8880   24.6230   35.2530 C   0  0  1  0  0  0  0  0  0  0  0  0
   39.5960   23.5550   36.1840 C   0  0  2  0  0  0  0  0  0  0  0  0
   39.4990   23.2480   34.7040 C   0  0  0  0  0  0  0  0  0  0  0  0
   40.9460   24.9170   34.9740 H   0  0  0  0  0  0  0  0  0  0  0  0
   40.4620   23.1490   36.7590 H   0  0  0  0  0  0  0  0  0  0  0  0
   40.3100   22.5980   34.3330 H   0  0  0  0  0  0  0  0  0  0  0  0
   38.4850   23.1150   34.2810 H   0  0  0  0  0  0  0  0  0  0  0  0
   38.8570   25.6730   34.9200 C   0  0  0  0  0  0  0  0  0  0  0  0
   38.8000   26.7720   35.7770 C   0  0  0  0  0  0  0  0  0  0  0  0
   37.8160   27.7180   35.4580 C   0  0  0  0  0  0  0  0  0  0  0  0
   36.9960   27.5410   34.3830 N   0  0  0  0  0  0  0  0  0  0  0  0
   37.0940   26.4490   33.5820 C   0  0  0  0  0  0  0  0  0  0  0  0
   38.0380   25.5020   33.8530 N   0  0  0  0  0  0  0  0  0  0  0  0
   39.4720   26.8700   36.6160 H   0  0  0  0  0  0  0  0  0  0  0  0
   37.7300   28.5920   36.0920 H   0  0  0  0  0  0  0  0  0  0  0  0
   36.4550   26.2860   32.7250 H   0  0  0  0  0  0  0  0  0  0  0  0
   38.3790   23.5700   36.8840 O   0  0  0  0  0  0  0  0  0  0  0  0
   38.2930   23.7490   38.2640 C   0  0  0  0  0  0  0  0  0  0  0  0
   37.9490   24.8820   38.6930 O   0  0  0  0  0  0  0  0  0  0  0  0
   38.6160   22.5880   38.9940 N   0  0  0  0  0  0  0  0  0  0  0  0
   38.3980   21.9010   39.7360 H   0  0  0  0  0  0  0  0  0  0  0  0
   39.5050   22.0450   38.7770 H   0  0  0  0  0  0  0  0  0  0  0  0
  1  4  1  6  0  0  0
  1  2  1  0  0  0  0
  2  5  1  1  0  0  0
  2 17  1  0  0  0  0
  3  1  1  0  0  0  0
  3  2  1  0  0  0  0
  6  3  1  0  0  0  0
  7  3  1  0  0  0  0
  8  1  1  0  0  0  0
  8  9  1  0  0  0  0
  9 14  1  0  0  0  0
 10  9  2  0  0  0  0
 10 15  1  0  0  0  0
 11 10  1  0  0  0  0
 12 13  1  0  0  0  0
 12 11  2  0  0  0  0
 13  8  2  0  0  0  0
 16 12  1  0  0  0  0
 17 18  1  0  0  0  0
 18 19  2  0  0  0  0
 18 20  1  0  0  0  0
 20 21  1  0  0  0  0
 22 20  1  0  0  0  0
M  END
>  <minimizedAffinity>
-3.97395372

$$$$

 OpenBabel03272507173D

 22 23  0  0  1  0  0  0  0  0999 V2000
   38.1590   23.7660   34.6240 C   0  0  1  0  0  0  0  0  0  0  0  0
   38.4890   24.9960   33.9370 C   0  0  2  0  0  0  0  0  0  0  0  0
   39.4150   23.8120   33.7500 C   0  0  0  0  0  0  0  0  0  0  0  0
   37.3860   23.0370   34.2330 H   0  0  0  0  0  0  0  0  0  0  0  0
   37.8170   25.2890   33.0950 H   0  0  0  0  0  0  0  0  0  0  0  0
   39.3550   23.3580   32.7460 H   0  0  0  0  0  0  0  0  0  0  0  0
   40.4030   23.8600   34.2460 H   0  0  0  0  0  0  0  0  0  0  0  0
   38.4960   23.5720   36.0820 C   0  0  0  0  0  0  0  0  0  0  0  0
   37.5840   24.0930   36.9990 C   0  0  0  0  0  0  0  0  0  0  0  0
   37.9370   23.9200   38.3450 C   0  0  0  0  0  0  0  0  0  0  0  0
   39.0920   23.2840   38.6900 N   0  0  0  0  0  0  0  0  0  0  0  0
   39.9460   22.7950   37.7550 C   0  0  0  0  0  0  0  0  0  0  0  0
   39.6440   22.9400   36.4310 N   0  0  0  0  0  0  0  0  0  0  0  0
   36.6800   24.5900   36.6770 H   0  0  0  0  0  0  0  0  0  0  0  0
   37.2610   24.3070   39.0980 H   0  0  0  0  0  0  0  0  0  0  0  0
   40.8670   22.2880   38.0040 H   0  0  0  0  0  0  0  0  0  0  0  0
   39.0150   26.0710   34.6720 O   0  0  0  0  0  0  0  0  0  0  0  0
   38.2600   27.1800   35.0500 C   0  0  0  0  0  0  0  0  0  0  0  0
   37.3910   27.6070   34.2450 O   0  0  0  0  0  0  0  0  0  0  0  0
   38.6000   27.6710   36.3270 N   0  0  0  0  0  0  0  0  0  0  0  0
   38.3240   27.9900   37.2720 H   0  0  0  0  0  0  0  0  0  0  0  0
   39.6170   27.8500   36.5830 H   0  0  0  0  0  0  0  0  0  0  0  0
  1  4  1  6  0  0  0
  1  8  1  0  0  0  0
  2  5  1  6  0  0  0
  2  1  1  0  0  0  0
  2 17  1  0  0  0  0
  3  2  1  0  0  0  0
  3  7  1  0  0  0  0
  3  1  1  0  0  0  0
  6  3  1  0  0  0  0
  8 13  2  0  0  0  0
  8  9  1  0  0  0  0
  9 10  2  0  0  0  0
 10 11  1  0  0  0  0
 10 15  1  0  0  0  0
 12 16  1  0  0  0  0
 12 11  2  0  0  0  0
 13 12  1  0  0  0  0
 14  9  1  0  0  0  0
 17 18  1  0  0  0  0
 18 20  1  0  0  0  0
 19 18  2  0  0  0  0
 20 22  1  0  0  0  0
 20 21  1  0  0  0  0
M  END
>  <minimizedAffinity>
-3.87489557

$$$$

 OpenBabel03272507173D

 22 23  0  0  1  0  0  0  0  0999 V2000
   39.0700   23.8060   34.6080 C   0  0  1  0  0  0  0  0  0  0  0  0
   38.8430   22.8290   35.6500 C   0  0  2  0  0  0  0  0  0  0  0  0
   37.9890   22.7410   34.4030 C   0  0  0  0  0  0  0  0  0  0  0  0
   39.9150   23.7140   33.8590 H   0  0  0  0  0  0  0  0  0  0  0  0
   39.6480   22.0710   35.8020 H   0  0  0  0  0  0  0  0  0  0  0  0
   38.2360   21.8810   33.7570 H   0  0  0  0  0  0  0  0  0  0  0  0
   36.9280   23.0410   34.4950 H   0  0  0  0  0  0  0  0  0  0  0  0
   38.4830   25.1930   34.6960 C   0  0  0  0  0  0  0  0  0  0  0  0
   37.5910   25.5470   33.6840 C   0  0  0  0  0  0  0  0  0  0  0  0
   37.0810   26.8500   33.7780 C   0  0  0  0  0  0  0  0  0  0  0  0
   37.4530   27.6770   34.7970 N   0  0  0  0  0  0  0  0  0  0  0  0
   38.3270   27.2790   35.7570 C   0  0  0  0  0  0  0  0  0  0  0  0
   38.8490   26.0190   35.7060 N   0  0  0  0  0  0  0  0  0  0  0  0
   37.3250   24.8580   32.8970 H   0  0  0  0  0  0  0  0  0  0  0  0
   36.3830   27.1760   33.0170 H   0  0  0  0  0  0  0  0  0  0  0  0
   38.6370   27.9160   36.5730 H   0  0  0  0  0  0  0  0  0  0  0  0
   38.1740   23.2200   36.8210 O   0  0  0  0  0  0  0  0  0  0  0  0
   38.7960   23.3070   38.0660 C   0  0  0  0  0  0  0  0  0  0  0  0
   38.3440   24.1370   38.8970 O   0  0  0  0  0  0  0  0  0  0  0  0
   39.8790   22.4160   38.2060 N   0  0  0  0  0  0  0  0  0  0  0  0
   40.3850   21.6900   38.7430 H   0  0  0  0  0  0  0  0  0  0  0  0
   40.6300   22.3570   37.4540 H   0  0  0  0  0  0  0  0  0  0  0  0
  1  4  1  6  0  0  0
  1  8  1  0  0  0  0
  1  2  1  0  0  0  0
  2  5  1  1  0  0  0
  2 17  1  0  0  0  0
  3  7  1  0  0  0  0
  3  1  1  0  0  0  0
  3  2  1  0  0  0  0
  6  3  1  0  0  0  0
  8 13  1  0  0  0  0
  9 10  1  0  0  0  0
  9  8  2  0  0  0  0
 10 11  2  0  0  0  0
 11 12  1  0  0  0  0
 12 16  1  0  0  0  0
 13 12  2  0  0  0  0
 14  9  1  0  0  0  0
 15 10  1  0  0  0  0
 17 18  1  0  0  0  0
 18 20  1  0  0  0  0
 18 19  2  0  0  0  0
 20 21  1  0  0  0  0
 22 20  1  0  0  0  0
M  END
>  <minimizedAffinity>
-3.81175327

$$$$

 OpenBabel03272507173D

 22 23  0  0  1  0  0  0  0  0999 V2000
   38.6240   25.7760   34.9830 C   0  0  1  0  0  0  0  0  0  0  0  0
   37.8750   25.3940   36.1610 C   0  0  2  0  0  0  0  0  0  0  0  0
   38.2910   26.8440   36.0280 C   0  0  0  0  0  0  0  0  0  0  0  0
   38.1290   25.9780   33.9850 H   0  0  0  0  0  0  0  0  0  0  0  0
   36.8030   25.1270   36.0010 H   0  0  0  0  0  0  0  0  0  0  0  0
   37.4510   27.5260   35.8110 H   0  0  0  0  0  0  0  0  0  0  0  0
   39.0990   27.2010   36.6950 H   0  0  0  0  0  0  0  0  0  0  0  0
   40.1090   25.5280   34.8870 C   0  0  0  0  0  0  0  0  0  0  0  0
   40.8910   26.6180   34.5070 C   0  0  0  0  0  0  0  0  0  0  0  0
   42.2630   26.3520   34.4010 C   0  0  0  0  0  0  0  0  0  0  0  0
   42.7570   25.1080   34.6600 N   0  0  0  0  0  0  0  0  0  0  0  0
   41.9500   24.0800   35.0270 C   0  0  0  0  0  0  0  0  0  0  0  0
   40.6060   24.2930   35.1430 N   0  0  0  0  0  0  0  0  0  0  0  0
   40.4540   27.5870   34.3120 H   0  0  0  0  0  0  0  0  0  0  0  0
   42.9150   27.1660   34.1090 H   0  0  0  0  0  0  0  0  0  0  0  0
   42.3170   23.0860   35.2370 H   0  0  0  0  0  0  0  0  0  0  0  0
   38.5190   24.6650   37.1740 O   0  0  0  0  0  0  0  0  0  0  0  0
   38.1080   23.3980   37.5840 C   0  0  0  0  0  0  0  0  0  0  0  0
   37.1210   22.8780   36.9990 O   0  0  0  0  0  0  0  0  0  0  0  0
   38.8920   22.8730   38.6300 N   0  0  0  0  0  0  0  0  0  0  0  0
   39.4450   22.1010   39.0420 H   0  0  0  0  0  0  0  0  0  0  0  0
   39.1000   23.4580   39.4940 H   0  0  0  0  0  0  0  0  0  0  0  0
  1  4  1  6  0  0  0
  1  3  1  0  0  0  0
  1  2  1  0  0  0  0
  2  5  1  6  0  0  0
  2 17  1  0  0  0  0
  3  2  1  0  0  0  0
  3  7  1  0  0  0  0
  6  3  1  0  0  0  0
  8  1  1  0  0  0  0
  8 13  1  0  0  0  0
  9  8  2  0  0  0  0
 10  9  1  0  0  0  0
 10 11  2  0  0  0  0
 11 12  1  0  0  0  0
 12 13  2  0  0  0  0
 12 16  1  0  0  0  0
 14  9  1  0  0  0  0
 15 10  1  0  0  0  0
 17 18  1  0  0  0  0
 18 20  1  0  0  0  0
 19 18  2  0  0  0  0
 20 21  1  0  0  0  0
 20 22  1  0  0  0  0
M  END
>  <minimizedAffinity>
-3.77783561

$$$$

 OpenBabel03272507173D

 22 23  0  0  1  0  0  0  0  0999 V2000
   37.9420   27.6080   35.2890 C   0  0  1  0  0  0  0  0  0  0  0  0
   38.2050   26.5250   36.2130 C   0  0  2  0  0  0  0  0  0  0  0  0
   39.3240   26.9480   35.2830 C   0  0  0  0  0  0  0  0  0  0  0  0
   37.9840   28.6970   35.5980 H   0  0  0  0  0  0  0  0  0  0  0  0
   38.2740   26.8010   37.2920 H   0  0  0  0  0  0  0  0  0  0  0  0
   40.1460   27.4790   35.7920 H   0  0  0  0  0  0  0  0  0  0  0  0
   39.5770   26.2600   34.4530 H   0  0  0  0  0  0  0  0  0  0  0  0
   37.1990   27.3690   33.9980 C   0  0  0  0  0  0  0  0  0  0  0  0
   36.3750   28.4060   33.5620 C   0  0  0  0  0  0  0  0  0  0  0  0
   35.6780   28.1460   32.3730 C   0  0  0  0  0  0  0  0  0  0  0  0
   35.8230   26.9580   31.7220 N   0  0  0  0  0  0  0  0  0  0  0  0
   36.6400   25.9800   32.1920 C   0  0  0  0  0  0  0  0  0  0  0  0
   37.3390   26.1890   33.3460 N   0  0  0  0  0  0  0  0  0  0  0  0
   36.2930   29.3320   34.1120 H   0  0  0  0  0  0  0  0  0  0  0  0
   35.0240   28.9200   31.9910 H   0  0  0  0  0  0  0  0  0  0  0  0
   36.7710   25.0300   31.6940 H   0  0  0  0  0  0  0  0  0  0  0  0
   37.6490   25.2610   35.9620 O   0  0  0  0  0  0  0  0  0  0  0  0
   38.4030   24.0890   35.9120 C   0  0  0  0  0  0  0  0  0  0  0  0
   38.9920   23.7200   36.9620 O   0  0  0  0  0  0  0  0  0  0  0  0
   38.3890   23.4750   34.6440 N   0  0  0  0  0  0  0  0  0  0  0  0
   38.2660   22.6360   34.0510 H   0  0  0  0  0  0  0  0  0  0  0  0
   38.5880   24.0430   33.7670 H   0  0  0  0  0  0  0  0  0  0  0  0
  1  4  1  1  0  0  0
  1  2  1  0  0  0  0
  2  5  1  1  0  0  0
  3  1  1  0  0  0  0
  3  6  1  0  0  0  0
  3  2  1  0  0  0  0
  7  3  1  0  0  0  0
  8  1  1  0  0  0  0
  9  8  1  0  0  0  0
  9 14  1  0  0  0  0
 10  9  2  0  0  0  0
 11 12  2  0  0  0  0
 11 10  1  0  0  0  0
 12 13  1  0  0  0  0
 13  8  2  0  0  0  0
 15 10  1  0  0  0  0
 16 12  1  0  0  0  0
 17  2  1  0  0  0  0
 18 17  1  0  0  0  0
 18 19  2  0  0  0  0
 20 18  1  0  0  0  0
 21 20  1  0  0  0  0
 22 20  1  0  0  0  0
M  END
>  <minimizedAffinity>
-3.64819121

$$$$

 OpenBabel03272507173D

 22 23  0  0  1  0  0  0  0  0999 V2000
   40.5540   23.7060   34.3320 C   0  0  1  0  0  0  0  0  0  0  0  0
   41.3770   22.8040   35.1090 C   0  0  2  0  0  0  0  0  0  0  0  0
   40.0330   22.2970   34.6300 C   0  0  0  0  0  0  0  0  0  0  0  0
   40.7180   23.8810   33.2260 H   0  0  0  0  0  0  0  0  0  0  0  0
   42.3010   22.4240   34.6110 H   0  0  0  0  0  0  0  0  0  0  0  0
   40.1050   21.5460   33.8260 H   0  0  0  0  0  0  0  0  0  0  0  0
   39.2380   22.1780   35.3910 H   0  0  0  0  0  0  0  0  0  0  0  0
   39.7150   24.7680   35.0000 C   0  0  0  0  0  0  0  0  0  0  0  0
   40.0900   26.0890   34.7570 C   0  0  0  0  0  0  0  0  0  0  0  0
   39.3080   27.0530   35.4100 C   0  0  0  0  0  0  0  0  0  0  0  0
   38.2690   26.6860   36.2130 N   0  0  0  0  0  0  0  0  0  0  0  0
   37.9480   25.3820   36.4150 C   0  0  0  0  0  0  0  0  0  0  0  0
   38.6810   24.4090   35.7990 N   0  0  0  0  0  0  0  0  0  0  0  0
   40.9210   26.3320   34.1120 H   0  0  0  0  0  0  0  0  0  0  0  0
   39.5570   28.0950   35.2550 H   0  0  0  0  0  0  0  0  0  0  0  0
   37.1300   25.0660   37.0470 H   0  0  0  0  0  0  0  0  0  0  0  0
   41.4950   23.0060   36.4940 O   0  0  0  0  0  0  0  0  0  0  0  0
   41.0700   22.0750   37.4410 C   0  0  0  0  0  0  0  0  0  0  0  0
   41.7630   21.0370   37.6030 O   0  0  0  0  0  0  0  0  0  0  0  0
   39.8820   22.4570   38.0960 N   0  0  0  0  0  0  0  0  0  0  0  0
   39.3390   22.6010   38.9650 H   0  0  0  0  0  0  0  0  0  0  0  0
   39.0370   22.7810   37.5370 H   0  0  0  0  0  0  0  0  0  0  0  0
  1  4  1  6  0  0  0
  1  3  1  0  0  0  0
  1  8  1  0  0  0  0
  1  2  1  0  0  0  0
  2  5  1  6  0  0  0
  2 17  1  0  0  0  0
  3  2  1  0  0  0  0
  3  7  1  0  0  0  0
  6  3  1  0  0  0  0
  8 13  1  0  0  0  0
  9  8  2  0  0  0  0
  9 10  1  0  0  0  0
 10 11  2  0  0  0  0
 11 12  1  0  0  0  0
 12 16  1  0  0  0  0
 13 12  2  0  0  0  0
 14  9  1  0  0  0  0
 15 10  1  0  0  0  0
 17 18  1  0  0  0  0
 18 19  2  0  0  0  0
 18 20  1  0  0  0  0
 20 21  1  0  0  0  0
 22 20  1  0  0  0  0
M  END
>  <minimizedAffinity>
-3.6020577

$$$$

 OpenBabel03272507173D

 22 23  0  0  1  0  0  0  0  0999 V2000
   37.9310   26.3160   35.0420 C   0  0  1  0  0  0  0  0  0  0  0  0
   39.3670   26.4910   35.0520 C   0  0  2  0  0  0  0  0  0  0  0  0
   38.5520   27.2880   36.0490 C   0  0  0  0  0  0  0  0  0  0  0  0
   37.4200   25.4400   35.5460 H   0  0  0  0  0  0  0  0  0  0  0  0
   39.9690   25.6270   35.4210 H   0  0  0  0  0  0  0  0  0  0  0  0
   38.6660   26.9410   37.0900 H   0  0  0  0  0  0  0  0  0  0  0  0
   38.4520   28.3750   35.8650 H   0  0  0  0  0  0  0  0  0  0  0  0
   37.0630   27.0290   34.0350 C   0  0  0  0  0  0  0  0  0  0  0  0
   36.9300   26.4100   32.7920 C   0  0  0  0  0  0  0  0  0  0  0  0
   36.1400   27.1080   31.8670 C   0  0  0  0  0  0  0  0  0  0  0  0
   35.5620   28.2980   32.1970 N   0  0  0  0  0  0  0  0  0  0  0  0
   35.7260   28.8560   33.4240 C   0  0  0  0  0  0  0  0  0  0  0  0
   36.4870   28.2120   34.3570 N   0  0  0  0  0  0  0  0  0  0  0  0
   37.4070   25.4650   32.5770 H   0  0  0  0  0  0  0  0  0  0  0  0
   36.0040   26.6700   30.8870 H   0  0  0  0  0  0  0  0  0  0  0  0
   35.2790   29.7990   33.7090 H   0  0  0  0  0  0  0  0  0  0  0  0
   39.9720   27.2350   34.0260 O   0  0  0  0  0  0  0  0  0  0  0  0
   41.3430   27.2110   33.7710 C   0  0  0  0  0  0  0  0  0  0  0  0
   41.7570   27.7560   32.7140 O   0  0  0  0  0  0  0  0  0  0  0  0
   42.0810   26.5540   34.7750 N   0  0  0  0  0  0  0  0  0  0  0  0
   42.8760   26.5280   35.4380 H   0  0  0  0  0  0  0  0  0  0  0  0
   41.7850   25.5930   35.1220 H   0  0  0  0  0  0  0  0  0  0  0  0
  1  2  1  0  0  0  0
  1  4  1  1  0  0  0
  1  3  1  0  0  0  0
  2  5  1  1  0  0  0
  2  3  1  0  0  0  0
  3  6  1  0  0  0  0
  7  3  1  0  0  0  0
  8 13  1  0  0  0  0
  8  1  1  0  0  0  0
  9  8  2  0  0  0  0
 10 11  2  0  0  0  0
 10  9  1  0  0  0  0
 11 12  1  0  0  0  0
 12 16  1  0  0  0  0
 12 13  2  0  0  0  0
 14  9  1  0  0  0  0
 15 10  1  0  0  0  0
 17  2  1  0  0  0  0
 18 17  1  0  0  0  0
 18 20  1  0  0  0  0
 19 18  2  0  0  0  0
 20 22  1  0  0  0  0
 20 21  1  0  0  0  0
M  END
>  <minimizedAffinity>
-3.58728456

$$$$
