
 OpenBabel03272504403D

 38 39  0  0  0  0  0  0  0  0999 V2000
   38.4190   26.9040   36.2860 Cl  0  0  0  0  0  0  0  0  0  0  0  0
   37.9190   26.1020   34.7960 C   0  0  0  0  0  0  0  0  0  0  0  0
   38.3050   24.8110   34.5700 C   0  0  0  0  0  0  0  0  0  0  0  0
   37.9230   24.1790   33.4180 C   0  0  0  0  0  0  0  0  0  0  0  0
   37.1480   24.8680   32.5050 C   0  0  0  0  0  0  0  0  0  0  0  0
   36.7810   26.1840   32.7830 C   0  0  0  0  0  0  0  0  0  0  0  0
   37.1510   26.8310   33.9220 C   0  0  0  0  0  0  0  0  0  0  0  0
   38.2530   23.1440   33.2730 H   0  0  0  0  0  0  0  0  0  0  0  0
   36.9040   24.2730   31.6300 H   0  0  0  0  0  0  0  0  0  0  0  0
   36.2110   26.5210   31.9900 H   0  0  0  0  0  0  0  0  0  0  0  0
   41.1440   23.1630   36.2710 C   0  0  0  0  0  0  0  0  0  0  0  0
   40.5150   22.7570   37.4990 C   0  0  0  0  0  0  0  0  0  0  0  0
   39.1590   23.0650   37.6820 C   0  0  0  0  0  0  0  0  0  0  0  0
   38.4970   23.7300   36.6990 N   0  0  0  0  0  0  0  0  0  0  0  0
   39.1230   24.1010   35.5480 C   0  0  0  0  0  0  0  0  0  0  0  0
   40.4180   23.8160   35.3540 N   0  0  0  0  0  0  0  0  0  0  0  0
   42.1770   22.9420   36.1060 H   0  0  0  0  0  0  0  0  0  0  0  0
   41.1600   22.2390   38.1870 H   0  0  0  0  0  0  0  0  0  0  0  0
   38.5780   22.6610   38.8830 N   0  0  0  0  0  0  0  0  0  0  0  0
   37.8990   23.3210   39.3330 H   0  0  0  0  0  0  0  0  0  0  0  0
   38.7310   21.7900   39.3920 H   0  0  0  0  0  0  0  0  0  0  0  0
   36.7750   28.2020   34.1910 C   0  0  0  0  0  0  0  0  0  0  0  0
   36.3820   28.2680   35.2310 H   0  0  0  0  0  0  0  0  0  0  0  0
   37.7410   28.7880   34.2400 H   0  0  0  0  0  0  0  0  0  0  0  0
   35.8690   28.8860   33.2900 C   0  0  0  0  0  0  0  0  0  0  0  0
   35.6330   28.2800   32.3670 H   0  0  0  0  0  0  0  0  0  0  0  0
   36.3050   29.8290   32.8610 H   0  0  0  0  0  0  0  0  0  0  0  0
   34.6590   29.1620   33.8730 O   0  0  0  0  0  0  0  0  0  0  0  0
   33.1790   31.1440   32.9750 O   0  0  0  0  0  0  0  0  0  0  0  0
   34.3520   30.8110   33.8640 P   0  0  2  0  0  0  0  0  0  0  0  0
   35.7930   31.5590   33.3090 O   0  0  0  0  0  0  0  0  0  0  0  0
   35.5820   32.4010   32.8320 H   0  0  0  0  0  0  0  0  0  0  0  0
   34.0500   31.4170   35.3890 O   0  0  0  0  0  0  0  0  0  0  0  0
   35.0450   31.6620   36.3270 C   0  0  0  0  0  0  0  0  0  0  0  0
   36.1800   31.2480   36.0170 O   0  0  0  0  0  0  0  0  0  0  0  0
   34.8400   32.3240   37.5490 N   0  0  0  0  0  0  0  0  0  0  0  0
   34.7940   33.2110   38.0880 H   0  0  0  0  0  0  0  0  0  0  0  0
   34.6490   31.4940   38.1740 H   0  0  0  0  0  0  0  0  0  0  0  0
  2  1  1  0  0  0  0
  3  2  1  0  0  0  0
  3 15  1  0  0  0  0
  4  3  2  0  0  0  0
  5  6  2  0  0  0  0
  5  4  1  0  0  0  0
  6  7  1  0  0  0  0
  7 22  1  0  0  0  0
  7  2  2  0  0  0  0
  8  4  1  0  0  0  0
  9  5  1  0  0  0  0
 10  6  1  0  0  0  0
 11 12  1  0  0  0  0
 12 13  2  0  0  0  0
 12 18  1  0  0  0  0
 13 19  1  0  0  0  0
 14 13  1  0  0  0  0
 15 14  2  0  0  0  0
 16 15  1  0  0  0  0
 16 11  2  0  0  0  0
 17 11  1  0  0  0  0
 19 20  1  0  0  0  0
 19 21  1  0  0  0  0
 22 24  1  0  0  0  0
 22 23  1  0  0  0  0
 25 28  1  0  0  0  0
 25 22  1  0  0  0  0
 26 25  1  0  0  0  0
 27 25  1  0  0  0  0
 30 29  2  6  0  0  0
 30 28  1  0  0  0  0
 30 33  1  0  0  0  0
 31 30  1  0  0  0  0
 32 31  1  0  0  0  0
 33 34  1  0  0  0  0
 34 36  1  0  0  0  0
 35 34  2  0  0  0  0
 36 37  1  0  0  0  0
 36 38  1  0  0  0  0
M  END
>  <minimizedAffinity>
-5.72610235

$$$$

 OpenBabel03272504403D

 38 39  0  0  0  0  0  0  0  0999 V2000
   38.0730   27.0280   33.4230 Cl  0  0  0  0  0  0  0  0  0  0  0  0
   37.0400   25.9440   32.4890 C   0  0  0  0  0  0  0  0  0  0  0  0
   36.0590   26.4730   31.6990 C   0  0  0  0  0  0  0  0  0  0  0  0
   35.2520   25.6420   30.9710 C   0  0  0  0  0  0  0  0  0  0  0  0
   35.4510   24.2770   31.0530 C   0  0  0  0  0  0  0  0  0  0  0  0
   36.4660   23.7890   31.8740 C   0  0  0  0  0  0  0  0  0  0  0  0
   37.2790   24.5980   32.6070 C   0  0  0  0  0  0  0  0  0  0  0  0
   34.4760   26.1040   30.3490 H   0  0  0  0  0  0  0  0  0  0  0  0
   34.7570   23.7150   30.4360 H   0  0  0  0  0  0  0  0  0  0  0  0
   36.4550   22.7590   31.8010 H   0  0  0  0  0  0  0  0  0  0  0  0
   35.0370   29.9440   32.4600 C   0  0  0  0  0  0  0  0  0  0  0  0
   35.5970   30.6360   31.3300 C   0  0  0  0  0  0  0  0  0  0  0  0
   36.2920   29.8850   30.3700 C   0  0  0  0  0  0  0  0  0  0  0  0
   36.4070   28.5420   30.5430 N   0  0  0  0  0  0  0  0  0  0  0  0
   35.8650   27.9170   31.6250 C   0  0  0  0  0  0  0  0  0  0  0  0
   35.1980   28.6180   32.5530 N   0  0  0  0  0  0  0  0  0  0  0  0
   34.5040   30.4920   33.2060 H   0  0  0  0  0  0  0  0  0  0  0  0
   35.4290   31.6990   31.3230 H   0  0  0  0  0  0  0  0  0  0  0  0
   36.8250   30.5840   29.2880 N   0  0  0  0  0  0  0  0  0  0  0  0
   37.7710   30.2900   28.9470 H   0  0  0  0  0  0  0  0  0  0  0  0
   36.4060   31.3620   28.7770 H   0  0  0  0  0  0  0  0  0  0  0  0
   38.3190   24.0760   33.4680 C   0  0  0  0  0  0  0  0  0  0  0  0
   39.2020   23.8110   32.8420 H   0  0  0  0  0  0  0  0  0  0  0  0
   38.6880   24.9520   34.0810 H   0  0  0  0  0  0  0  0  0  0  0  0
   38.0210   22.9790   34.3680 C   0  0  0  0  0  0  0  0  0  0  0  0
   37.3580   22.1980   33.8960 H   0  0  0  0  0  0  0  0  0  0  0  0
   37.4250   23.2980   35.2660 H   0  0  0  0  0  0  0  0  0  0  0  0
   39.1490   22.3140   34.7750 O   0  0  0  0  0  0  0  0  0  0  0  0
   41.0650   23.7090   35.9170 O   0  0  0  0  0  0  0  0  0  0  0  0
   39.7660   22.9890   36.1810 P   0  0  2  0  0  0  0  0  0  0  0  0
   39.9800   21.6870   37.2790 O   0  0  0  0  0  0  0  0  0  0  0  0
   40.7330   21.8760   37.8940 H   0  0  0  0  0  0  0  0  0  0  0  0
   38.7050   24.0560   36.9010 O   0  0  0  0  0  0  0  0  0  0  0  0
   38.0850   23.8170   38.1220 C   0  0  0  0  0  0  0  0  0  0  0  0
   38.1110   24.7690   38.9250 O   0  0  0  0  0  0  0  0  0  0  0  0
   37.4610   22.6080   38.4730 N   0  0  0  0  0  0  0  0  0  0  0  0
   36.6110   22.0100   38.4790 H   0  0  0  0  0  0  0  0  0  0  0  0
   38.2690   22.1180   38.9440 H   0  0  0  0  0  0  0  0  0  0  0  0
  2  7  1  0  0  0  0
  2  1  1  0  0  0  0
  3  2  2  0  0  0  0
  4  5  2  0  0  0  0
  4  3  1  0  0  0  0
  5  6  1  0  0  0  0
  6  7  2  0  0  0  0
  7 22  1  0  0  0  0
  8  4  1  0  0  0  0
  9  5  1  0  0  0  0
 10  6  1  0  0  0  0
 11 16  1  0  0  0  0
 11 17  1  0  0  0  0
 12 11  2  0  0  0  0
 13 14  2  0  0  0  0
 13 12  1  0  0  0  0
 14 15  1  0  0  0  0
 15  3  1  0  0  0  0
 15 16  2  0  0  0  0
 18 12  1  0  0  0  0
 19 13  1  0  0  0  0
 20 19  1  0  0  0  0
 21 19  1  0  0  0  0
 22 24  1  0  0  0  0
 22 25  1  0  0  0  0
 23 22  1  0  0  0  0
 25 28  1  0  0  0  0
 25 27  1  0  0  0  0
 26 25  1  0  0  0  0
 28 30  1  0  0  0  0
 30 29  2  6  0  0  0
 30 33  1  0  0  0  0
 30 31  1  0  0  0  0
 31 32  1  0  0  0  0
 33 34  1  0  0  0  0
 34 36  1  0  0  0  0
 34 35  2  0  0  0  0
 36 37  1  0  0  0  0
 36 38  1  0  0  0  0
M  END
>  <minimizedAffinity>
-5.60222006

$$$$

 OpenBabel03272504403D

 38 39  0  0  0  0  0  0  0  0999 V2000
   38.5480   26.2840   32.8240 Cl  0  0  0  0  0  0  0  0  0  0  0  0
   37.2540   25.2780   32.1690 C   0  0  0  0  0  0  0  0  0  0  0  0
   36.2470   25.8660   31.4580 C   0  0  0  0  0  0  0  0  0  0  0  0
   35.2380   25.0970   30.9460 C   0  0  0  0  0  0  0  0  0  0  0  0
   35.2650   23.7320   31.1610 C   0  0  0  0  0  0  0  0  0  0  0  0
   36.3160   23.1820   31.8930 C   0  0  0  0  0  0  0  0  0  0  0  0
   37.3280   23.9290   32.4120 C   0  0  0  0  0  0  0  0  0  0  0  0
   34.4470   25.6050   30.3820 H   0  0  0  0  0  0  0  0  0  0  0  0
   34.4180   23.2210   30.7110 H   0  0  0  0  0  0  0  0  0  0  0  0
   36.1580   22.1620   31.9430 H   0  0  0  0  0  0  0  0  0  0  0  0
   36.8300   29.2300   30.0400 C   0  0  0  0  0  0  0  0  0  0  0  0
   36.1130   30.0430   30.9860 C   0  0  0  0  0  0  0  0  0  0  0  0
   35.4700   29.4020   32.0560 C   0  0  0  0  0  0  0  0  0  0  0  0
   35.5500   28.0490   32.1560 N   0  0  0  0  0  0  0  0  0  0  0  0
   36.2370   27.3090   31.2420 C   0  0  0  0  0  0  0  0  0  0  0  0
   36.8580   27.9030   30.2130 N   0  0  0  0  0  0  0  0  0  0  0  0
   37.3290   29.6930   29.2150 H   0  0  0  0  0  0  0  0  0  0  0  0
   36.1350   31.0990   30.7820 H   0  0  0  0  0  0  0  0  0  0  0  0
   34.7810   30.2150   32.9550 N   0  0  0  0  0  0  0  0  0  0  0  0
   33.8660   29.8590   33.3180 H   0  0  0  0  0  0  0  0  0  0  0  0
   35.0580   31.1310   33.3100 H   0  0  0  0  0  0  0  0  0  0  0  0
   38.4050   23.3460   33.1820 C   0  0  0  0  0  0  0  0  0  0  0  0
   39.1140   22.8450   32.4850 H   0  0  0  0  0  0  0  0  0  0  0  0
   39.0070   24.2140   33.5860 H   0  0  0  0  0  0  0  0  0  0  0  0
   38.0970   22.4510   34.2810 C   0  0  0  0  0  0  0  0  0  0  0  0
   37.4710   21.5690   33.9600 H   0  0  0  0  0  0  0  0  0  0  0  0
   37.4590   22.9310   35.0720 H   0  0  0  0  0  0  0  0  0  0  0  0
   39.2230   21.9200   34.8550 O   0  0  0  0  0  0  0  0  0  0  0  0
   40.6700   23.8470   35.9120 O   0  0  0  0  0  0  0  0  0  0  0  0
   39.6540   22.7780   36.2300 P   0  0  2  0  0  0  0  0  0  0  0  0
   40.2810   21.6240   37.3340 O   0  0  0  0  0  0  0  0  0  0  0  0
   40.9610   22.0410   37.9200 H   0  0  0  0  0  0  0  0  0  0  0  0
   38.3460   23.4970   36.9760 O   0  0  0  0  0  0  0  0  0  0  0  0
   38.2240   23.6260   38.3540 C   0  0  0  0  0  0  0  0  0  0  0  0
   38.0970   24.7960   38.7670 O   0  0  0  0  0  0  0  0  0  0  0  0
   38.2340   22.5510   39.2580 N   0  0  0  0  0  0  0  0  0  0  0  0
   37.7180   21.8110   39.7730 H   0  0  0  0  0  0  0  0  0  0  0  0
   39.2640   22.5220   39.4910 H   0  0  0  0  0  0  0  0  0  0  0  0
  2  7  1  0  0  0  0
  2  1  1  0  0  0  0
  3  2  2  0  0  0  0
  4  5  2  0  0  0  0
  4  3  1  0  0  0  0
  5  6  1  0  0  0  0
  6 10  1  0  0  0  0
  6  7  2  0  0  0  0
  7 22  1  0  0  0  0
  8  4  1  0  0  0  0
  9  5  1  0  0  0  0
 11 16  2  0  0  0  0
 11 12  1  0  0  0  0
 12 13  2  0  0  0  0
 13 14  1  0  0  0  0
 13 19  1  0  0  0  0
 15  3  1  0  0  0  0
 15 14  2  0  0  0  0
 16 15  1  0  0  0  0
 17 11  1  0  0  0  0
 18 12  1  0  0  0  0
 19 21  1  0  0  0  0
 19 20  1  0  0  0  0
 22 24  1  0  0  0  0
 22 25  1  0  0  0  0
 23 22  1  0  0  0  0
 25 28  1  0  0  0  0
 25 27  1  0  0  0  0
 26 25  1  0  0  0  0
 28 30  1  0  0  0  0
 30 29  2  6  0  0  0
 30 33  1  0  0  0  0
 30 31  1  0  0  0  0
 31 32  1  0  0  0  0
 33 34  1  0  0  0  0
 34 35  2  0  0  0  0
 34 36  1  0  0  0  0
 36 38  1  0  0  0  0
 36 37  1  0  0  0  0
M  END
>  <minimizedAffinity>
-5.56537771

$$$$

 OpenBabel03272504403D

 38 39  0  0  0  0  0  0  0  0999 V2000
   38.8170   22.5970   32.7190 Cl  0  0  0  0  0  0  0  0  0  0  0  0
   37.5350   23.6420   32.1030 C   0  0  0  0  0  0  0  0  0  0  0  0
   36.3160   23.1000   31.8100 C   0  0  0  0  0  0  0  0  0  0  0  0
   35.3140   23.9010   31.3320 C   0  0  0  0  0  0  0  0  0  0  0  0
   35.5630   25.2490   31.1590 C   0  0  0  0  0  0  0  0  0  0  0  0
   36.8240   25.7510   31.4740 C   0  0  0  0  0  0  0  0  0  0  0  0
   37.8340   24.9720   31.9490 C   0  0  0  0  0  0  0  0  0  0  0  0
   34.3500   23.4290   31.1070 H   0  0  0  0  0  0  0  0  0  0  0  0
   34.7010   25.7880   30.7760 H   0  0  0  0  0  0  0  0  0  0  0  0
   36.8110   26.7660   31.2790 H   0  0  0  0  0  0  0  0  0  0  0  0
   35.4560   19.8320   33.3090 C   0  0  0  0  0  0  0  0  0  0  0  0
   35.6610   18.9630   32.1810 C   0  0  0  0  0  0  0  0  0  0  0  0
   36.0820   19.5360   30.9710 C   0  0  0  0  0  0  0  0  0  0  0  0
   36.2780   20.8790   30.9130 N   0  0  0  0  0  0  0  0  0  0  0  0
   36.0730   21.6740   32.0000 C   0  0  0  0  0  0  0  0  0  0  0  0
   35.6720   21.1450   33.1640 N   0  0  0  0  0  0  0  0  0  0  0  0
   35.1350   19.4220   34.2420 H   0  0  0  0  0  0  0  0  0  0  0  0
   35.4680   17.9220   32.3720 H   0  0  0  0  0  0  0  0  0  0  0  0
   36.2700   18.6690   29.8960 N   0  0  0  0  0  0  0  0  0  0  0  0
   35.9650   19.0050   28.9510 H   0  0  0  0  0  0  0  0  0  0  0  0
   36.6740   17.7310   29.9090 H   0  0  0  0  0  0  0  0  0  0  0  0
   39.1440   25.5060   32.2580 C   0  0  0  0  0  0  0  0  0  0  0  0
   39.8710   24.6640   32.3040 H   0  0  0  0  0  0  0  0  0  0  0  0
   39.4710   26.0820   31.3420 H   0  0  0  0  0  0  0  0  0  0  0  0
   39.3160   26.3550   33.4200 C   0  0  0  0  0  0  0  0  0  0  0  0
   38.4510   27.0650   33.5710 H   0  0  0  0  0  0  0  0  0  0  0  0
   40.1930   27.0510   33.3290 H   0  0  0  0  0  0  0  0  0  0  0  0
   39.4160   25.6370   34.5830 O   0  0  0  0  0  0  0  0  0  0  0  0
   36.9160   26.3050   35.0580 O   0  0  0  0  0  0  0  0  0  0  0  0
   38.2720   26.1450   35.7000 P   0  0  2  0  0  0  0  0  0  0  0  0
   38.8500   27.6320   36.3300 O   0  0  0  0  0  0  0  0  0  0  0  0
   38.0910   28.2120   36.5940 H   0  0  0  0  0  0  0  0  0  0  0  0
   38.1260   25.0990   36.9920 O   0  0  0  0  0  0  0  0  0  0  0  0
   38.2830   23.7220   36.8860 C   0  0  0  0  0  0  0  0  0  0  0  0
   37.7290   23.2000   35.8980 O   0  0  0  0  0  0  0  0  0  0  0  0
   39.0020   22.9310   37.7970 N   0  0  0  0  0  0  0  0  0  0  0  0
   39.9050   22.5180   38.1030 H   0  0  0  0  0  0  0  0  0  0  0  0
   38.2210   22.6520   38.4500 H   0  0  0  0  0  0  0  0  0  0  0  0
  2  1  1  0  0  0  0
  3 15  1  0  0  0  0
  3  2  2  0  0  0  0
  4  3  1  0  0  0  0
  5  4  2  0  0  0  0
  5  6  1  0  0  0  0
  6  7  2  0  0  0  0
  7  2  1  0  0  0  0
  7 22  1  0  0  0  0
  8  4  1  0  0  0  0
  9  5  1  0  0  0  0
 10  6  1  0  0  0  0
 11 17  1  0  0  0  0
 12 18  1  0  0  0  0
 12 11  2  0  0  0  0
 13 12  1  0  0  0  0
 14 13  2  0  0  0  0
 14 15  1  0  0  0  0
 15 16  2  0  0  0  0
 16 11  1  0  0  0  0
 19 21  1  0  0  0  0
 19 13  1  0  0  0  0
 20 19  1  0  0  0  0
 22 23  1  0  0  0  0
 22 25  1  0  0  0  0
 24 22  1  0  0  0  0
 25 26  1  0  0  0  0
 25 28  1  0  0  0  0
 27 25  1  0  0  0  0
 28 30  1  0  0  0  0
 30 29  2  6  0  0  0
 30 31  1  0  0  0  0
 30 33  1  0  0  0  0
 31 32  1  0  0  0  0
 34 33  1  0  0  0  0
 34 36  1  0  0  0  0
 35 34  2  0  0  0  0
 36 37  1  0  0  0  0
 36 38  1  0  0  0  0
M  END
>  <minimizedAffinity>
-5.53177452

$$$$

 OpenBabel03272504403D

 38 39  0  0  0  0  0  0  0  0999 V2000
   36.3440   29.1930   34.9270 Cl  0  0  0  0  0  0  0  0  0  0  0  0
   36.5460   27.8620   33.7860 C   0  0  0  0  0  0  0  0  0  0  0  0
   35.8880   27.9010   32.5900 C   0  0  0  0  0  0  0  0  0  0  0  0
   36.0370   26.8740   31.6980 C   0  0  0  0  0  0  0  0  0  0  0  0
   36.8590   25.8150   32.0320 C   0  0  0  0  0  0  0  0  0  0  0  0
   37.5090   25.8230   33.2660 C   0  0  0  0  0  0  0  0  0  0  0  0
   37.3730   26.8340   34.1670 C   0  0  0  0  0  0  0  0  0  0  0  0
   35.4920   26.9420   30.7500 H   0  0  0  0  0  0  0  0  0  0  0  0
   36.9040   25.0590   31.2540 H   0  0  0  0  0  0  0  0  0  0  0  0
   38.0680   24.9570   33.3270 H   0  0  0  0  0  0  0  0  0  0  0  0
   33.0250   30.2350   32.4370 C   0  0  0  0  0  0  0  0  0  0  0  0
   33.5360   31.2190   31.5210 C   0  0  0  0  0  0  0  0  0  0  0  0
   34.8270   31.0350   31.0040 C   0  0  0  0  0  0  0  0  0  0  0  0
   35.5390   29.9420   31.3860 N   0  0  0  0  0  0  0  0  0  0  0  0
   35.0250   29.0290   32.2560 C   0  0  0  0  0  0  0  0  0  0  0  0
   33.7930   29.1870   32.7610 N   0  0  0  0  0  0  0  0  0  0  0  0
   32.0440   30.3510   32.8460 H   0  0  0  0  0  0  0  0  0  0  0  0
   32.8630   32.0310   31.3090 H   0  0  0  0  0  0  0  0  0  0  0  0
   35.2960   32.0060   30.1210 N   0  0  0  0  0  0  0  0  0  0  0  0
   36.3030   32.2830   30.2040 H   0  0  0  0  0  0  0  0  0  0  0  0
   34.7760   32.4930   29.3900 H   0  0  0  0  0  0  0  0  0  0  0  0
   38.0420   26.8220   35.4500 C   0  0  0  0  0  0  0  0  0  0  0  0
   38.8270   27.6120   35.4520 H   0  0  0  0  0  0  0  0  0  0  0  0
   37.2870   27.2040   36.2010 H   0  0  0  0  0  0  0  0  0  0  0  0
   38.6030   25.5840   35.9540 C   0  0  0  0  0  0  0  0  0  0  0  0
   39.3980   25.7540   36.7380 H   0  0  0  0  0  0  0  0  0  0  0  0
   39.1540   24.9990   35.1680 H   0  0  0  0  0  0  0  0  0  0  0  0
   37.6600   24.7850   36.5480 O   0  0  0  0  0  0  0  0  0  0  0  0
   37.3210   22.2260   36.0380 O   0  0  0  0  0  0  0  0  0  0  0  0
   38.2300   23.2170   36.7220 P   0  0  2  0  0  0  0  0  0  0  0  0
   38.3180   22.9280   38.4110 O   0  0  0  0  0  0  0  0  0  0  0  0
   38.1730   21.9670   38.6040 H   0  0  0  0  0  0  0  0  0  0  0  0
   39.7740   23.0230   36.1190 O   0  0  0  0  0  0  0  0  0  0  0  0
   40.8510   22.6020   36.8890 C   0  0  0  0  0  0  0  0  0  0  0  0
   41.9130   23.2270   36.7010 O   0  0  0  0  0  0  0  0  0  0  0  0
   40.8000   21.5550   37.8240 N   0  0  0  0  0  0  0  0  0  0  0  0
   40.6090   21.2300   38.7920 H   0  0  0  0  0  0  0  0  0  0  0  0
   41.1020   20.7500   37.2100 H   0  0  0  0  0  0  0  0  0  0  0  0
  2  7  1  0  0  0  0
  2  1  1  0  0  0  0
  3  2  2  0  0  0  0
  4  5  2  0  0  0  0
  4  3  1  0  0  0  0
  5  6  1  0  0  0  0
  6 10  1  0  0  0  0
  6  7  2  0  0  0  0
  7 22  1  0  0  0  0
  8  4  1  0  0  0  0
  9  5  1  0  0  0  0
 11 16  1  0  0  0  0
 11 17  1  0  0  0  0
 12 11  2  0  0  0  0
 13 14  2  0  0  0  0
 13 12  1  0  0  0  0
 14 15  1  0  0  0  0
 15  3  1  0  0  0  0
 15 16  2  0  0  0  0
 18 12  1  0  0  0  0
 19 20  1  0  0  0  0
 19 13  1  0  0  0  0
 21 19  1  0  0  0  0
 22 23  1  0  0  0  0
 22 25  1  0  0  0  0
 22 24  1  0  0  0  0
 25 28  1  0  0  0  0
 25 26  1  0  0  0  0
 27 25  1  0  0  0  0
 28 30  1  0  0  0  0
 30 29  2  6  0  0  0
 30 31  1  0  0  0  0
 31 32  1  0  0  0  0
 33 30  1  0  0  0  0
 33 34  1  0  0  0  0
 34 36  1  0  0  0  0
 35 34  2  0  0  0  0
 36 37  1  0  0  0  0
 38 36  1  0  0  0  0
M  END
>  <minimizedAffinity>
-5.43330383

$$$$

 OpenBabel03272504403D

 38 39  0  0  0  0  0  0  0  0999 V2000
   38.4930   26.6840   35.6530 Cl  0  0  0  0  0  0  0  0  0  0  0  0
   37.9190   25.6470   34.3460 C   0  0  0  0  0  0  0  0  0  0  0  0
   38.2510   24.3220   34.3490 C   0  0  0  0  0  0  0  0  0  0  0  0
   37.8120   23.5090   33.3400 C   0  0  0  0  0  0  0  0  0  0  0  0
   37.0340   24.0530   32.3360 C   0  0  0  0  0  0  0  0  0  0  0  0
   36.7230   25.4110   32.3790 C   0  0  0  0  0  0  0  0  0  0  0  0
   37.1510   26.2370   33.3730 C   0  0  0  0  0  0  0  0  0  0  0  0
   38.1000   22.4520   33.3780 H   0  0  0  0  0  0  0  0  0  0  0  0
   36.7420   23.3200   31.5890 H   0  0  0  0  0  0  0  0  0  0  0  0
   36.1420   25.6220   31.5520 H   0  0  0  0  0  0  0  0  0  0  0  0
   41.1090   22.9950   36.2830 C   0  0  0  0  0  0  0  0  0  0  0  0
   40.4710   22.7250   37.5440 C   0  0  0  0  0  0  0  0  0  0  0  0
   39.1020   23.0090   37.6680 C   0  0  0  0  0  0  0  0  0  0  0  0
   38.4380   23.5230   36.5990 N   0  0  0  0  0  0  0  0  0  0  0  0
   39.0730   23.7670   35.4190 C   0  0  0  0  0  0  0  0  0  0  0  0
   40.3800   23.5020   35.2810 N   0  0  0  0  0  0  0  0  0  0  0  0
   42.1500   22.7880   36.1620 H   0  0  0  0  0  0  0  0  0  0  0  0
   41.1190   22.3190   38.3000 H   0  0  0  0  0  0  0  0  0  0  0  0
   38.5120   22.7400   38.9020 N   0  0  0  0  0  0  0  0  0  0  0  0
   37.8060   23.4290   39.2550 H   0  0  0  0  0  0  0  0  0  0  0  0
   38.6840   21.9450   39.5180 H   0  0  0  0  0  0  0  0  0  0  0  0
   36.8330   27.6480   33.3970 C   0  0  0  0  0  0  0  0  0  0  0  0
   36.2750   27.8740   34.3340 H   0  0  0  0  0  0  0  0  0  0  0  0
   37.8150   28.1890   33.5420 H   0  0  0  0  0  0  0  0  0  0  0  0
   36.1430   28.2470   32.2710 C   0  0  0  0  0  0  0  0  0  0  0  0
   35.1540   28.7070   32.5610 H   0  0  0  0  0  0  0  0  0  0  0  0
   35.8450   27.4960   31.4890 H   0  0  0  0  0  0  0  0  0  0  0  0
   36.8660   29.2560   31.6900 O   0  0  0  0  0  0  0  0  0  0  0  0
   37.0920   30.0390   29.1880 O   0  0  0  0  0  0  0  0  0  0  0  0
   37.2810   28.8620   30.1130 P   0  0  2  0  0  0  0  0  0  0  0  0
   36.2730   27.5460   29.6700 O   0  0  0  0  0  0  0  0  0  0  0  0
   36.0960   27.5610   28.6960 H   0  0  0  0  0  0  0  0  0  0  0  0
   38.8560   28.3300   29.9770 O   0  0  0  0  0  0  0  0  0  0  0  0
   39.2560   27.0320   30.2740 C   0  0  0  0  0  0  0  0  0  0  0  0
   39.9380   26.9120   31.3110 O   0  0  0  0  0  0  0  0  0  0  0  0
   38.9410   25.9050   29.4970 N   0  0  0  0  0  0  0  0  0  0  0  0
   38.2870   25.1290   29.2710 H   0  0  0  0  0  0  0  0  0  0  0  0
   39.7900   25.8750   28.8700 H   0  0  0  0  0  0  0  0  0  0  0  0
  2  3  1  0  0  0  0
  2  1  1  0  0  0  0
  3 15  1  0  0  0  0
  4  8  1  0  0  0  0
  4  3  2  0  0  0  0
  5  6  2  0  0  0  0
  5  4  1  0  0  0  0
  6  7  1  0  0  0  0
  7 22  1  0  0  0  0
  7  2  2  0  0  0  0
  9  5  1  0  0  0  0
 10  6  1  0  0  0  0
 11 12  1  0  0  0  0
 12 13  2  0  0  0  0
 12 18  1  0  0  0  0
 13 19  1  0  0  0  0
 14 13  1  0  0  0  0
 15 14  2  0  0  0  0
 16 15  1  0  0  0  0
 16 11  2  0  0  0  0
 17 11  1  0  0  0  0
 19 20  1  0  0  0  0
 19 21  1  0  0  0  0
 22 24  1  0  0  0  0
 22 23  1  0  0  0  0
 25 26  1  0  0  0  0
 25 22  1  0  0  0  0
 27 25  1  0  0  0  0
 28 25  1  0  0  0  0
 30 29  2  6  0  0  0
 30 28  1  0  0  0  0
 31 30  1  0  0  0  0
 32 31  1  0  0  0  0
 33 30  1  0  0  0  0
 33 34  1  0  0  0  0
 34 35  2  0  0  0  0
 36 34  1  0  0  0  0
 37 36  1  0  0  0  0
 38 36  1  0  0  0  0
M  END
>  <minimizedAffinity>
-5.38257933

$$$$

 OpenBabel03272504403D

 38 39  0  0  0  0  0  0  0  0999 V2000
   38.4840   26.7890   35.9580 Cl  0  0  0  0  0  0  0  0  0  0  0  0
   37.9600   25.8600   34.5510 C   0  0  0  0  0  0  0  0  0  0  0  0
   38.3280   24.5500   34.4410 C   0  0  0  0  0  0  0  0  0  0  0  0
   37.9280   23.8200   33.3550 C   0  0  0  0  0  0  0  0  0  0  0  0
   37.1530   24.4330   32.3890 C   0  0  0  0  0  0  0  0  0  0  0  0
   36.8040   25.7730   32.5490 C   0  0  0  0  0  0  0  0  0  0  0  0
   37.1920   26.5170   33.6210 C   0  0  0  0  0  0  0  0  0  0  0  0
   38.2440   22.7720   33.3030 H   0  0  0  0  0  0  0  0  0  0  0  0
   36.8930   23.7630   31.5740 H   0  0  0  0  0  0  0  0  0  0  0  0
   36.2310   26.0440   31.7330 H   0  0  0  0  0  0  0  0  0  0  0  0
   41.1760   23.0770   36.2820 C   0  0  0  0  0  0  0  0  0  0  0  0
   40.5380   22.7350   37.5250 C   0  0  0  0  0  0  0  0  0  0  0  0
   39.1720   23.0230   37.6690 C   0  0  0  0  0  0  0  0  0  0  0  0
   38.5110   23.6090   36.6360 N   0  0  0  0  0  0  0  0  0  0  0  0
   39.1460   23.9210   35.4730 C   0  0  0  0  0  0  0  0  0  0  0  0
   40.4500   23.6540   35.3160 N   0  0  0  0  0  0  0  0  0  0  0  0
   42.2160   22.8700   36.1450 H   0  0  0  0  0  0  0  0  0  0  0  0
   41.1830   22.2770   38.2530 H   0  0  0  0  0  0  0  0  0  0  0  0
   38.5820   22.6820   38.8850 N   0  0  0  0  0  0  0  0  0  0  0  0
   37.8820   23.3540   39.2830 H   0  0  0  0  0  0  0  0  0  0  0  0
   38.7470   21.8480   39.4500 H   0  0  0  0  0  0  0  0  0  0  0  0
   36.8350   27.9110   33.7660 C   0  0  0  0  0  0  0  0  0  0  0  0
   36.5380   28.0970   34.8230 H   0  0  0  0  0  0  0  0  0  0  0  0
   37.7990   28.4940   33.6610 H   0  0  0  0  0  0  0  0  0  0  0  0
   35.8480   28.4940   32.8790 C   0  0  0  0  0  0  0  0  0  0  0  0
   34.7920   28.2100   33.1570 H   0  0  0  0  0  0  0  0  0  0  0  0
   35.9330   28.1220   31.8220 H   0  0  0  0  0  0  0  0  0  0  0  0
   35.8800   29.8650   32.8890 O   0  0  0  0  0  0  0  0  0  0  0  0
   34.1190   31.7100   33.5370 O   0  0  0  0  0  0  0  0  0  0  0  0
   34.8290   30.4790   34.0440 P   0  0  2  0  0  0  0  0  0  0  0  0
   35.7890   30.8290   35.4220 O   0  0  0  0  0  0  0  0  0  0  0  0
   35.4020   31.5870   35.9280 H   0  0  0  0  0  0  0  0  0  0  0  0
   33.6830   29.3670   34.5250 O   0  0  0  0  0  0  0  0  0  0  0  0
   32.3780   29.3540   34.0470 C   0  0  0  0  0  0  0  0  0  0  0  0
   31.4940   29.2750   34.9220 O   0  0  0  0  0  0  0  0  0  0  0  0
   32.0280   29.4230   32.6880 N   0  0  0  0  0  0  0  0  0  0  0  0
   31.8100   29.9970   31.8500 H   0  0  0  0  0  0  0  0  0  0  0  0
   31.9730   28.3930   32.4630 H   0  0  0  0  0  0  0  0  0  0  0  0
  2  1  1  0  0  0  0
  3  2  1  0  0  0  0
  3 15  1  0  0  0  0
  4  3  2  0  0  0  0
  5  6  2  0  0  0  0
  5  4  1  0  0  0  0
  6  7  1  0  0  0  0
  7 22  1  0  0  0  0
  7  2  2  0  0  0  0
  8  4  1  0  0  0  0
  9  5  1  0  0  0  0
 10  6  1  0  0  0  0
 11 12  1  0  0  0  0
 12 13  2  0  0  0  0
 12 18  1  0  0  0  0
 13 19  1  0  0  0  0
 14 13  1  0  0  0  0
 15 14  2  0  0  0  0
 16 15  1  0  0  0  0
 16 11  2  0  0  0  0
 17 11  1  0  0  0  0
 19 20  1  0  0  0  0
 19 21  1  0  0  0  0
 22 23  1  0  0  0  0
 24 22  1  0  0  0  0
 25 28  1  0  0  0  0
 25 26  1  0  0  0  0
 25 22  1  0  0  0  0
 27 25  1  0  0  0  0
 28 30  1  0  0  0  0
 30 29  2  6  0  0  0
 30 33  1  0  0  0  0
 30 31  1  0  0  0  0
 31 32  1  0  0  0  0
 34 33  1  0  0  0  0
 34 35  2  0  0  0  0
 36 34  1  0  0  0  0
 37 36  1  0  0  0  0
 38 36  1  0  0  0  0
M  END
>  <minimizedAffinity>
-5.31965637

$$$$

 OpenBabel03272504403D

 38 39  0  0  0  0  0  0  0  0999 V2000
   38.9800   23.7670   33.3690 Cl  0  0  0  0  0  0  0  0  0  0  0  0
   37.6860   22.5810   33.5520 C   0  0  0  0  0  0  0  0  0  0  0  0
   37.4820   21.9980   34.7700 C   0  0  0  0  0  0  0  0  0  0  0  0
   36.4820   21.0760   34.9220 C   0  0  0  0  0  0  0  0  0  0  0  0
   35.6970   20.7570   33.8310 C   0  0  0  0  0  0  0  0  0  0  0  0
   35.9470   21.3810   32.6100 C   0  0  0  0  0  0  0  0  0  0  0  0
   36.9370   22.2990   32.4370 C   0  0  0  0  0  0  0  0  0  0  0  0
   36.3490   20.6300   35.9150 H   0  0  0  0  0  0  0  0  0  0  0  0
   34.9360   20.0170   34.0650 H   0  0  0  0  0  0  0  0  0  0  0  0
   35.2630   21.0130   31.9290 H   0  0  0  0  0  0  0  0  0  0  0  0
   40.3080   22.2090   37.1440 C   0  0  0  0  0  0  0  0  0  0  0  0
   39.7680   23.1210   38.1160 C   0  0  0  0  0  0  0  0  0  0  0  0
   38.4700   23.6150   37.9110 C   0  0  0  0  0  0  0  0  0  0  0  0
   37.7800   23.2140   36.8110 N   0  0  0  0  0  0  0  0  0  0  0  0
   38.3220   22.3490   35.9100 C   0  0  0  0  0  0  0  0  0  0  0  0
   39.5590   21.8660   36.0880 N   0  0  0  0  0  0  0  0  0  0  0  0
   41.2940   21.8180   37.2750 H   0  0  0  0  0  0  0  0  0  0  0  0
   40.4260   23.3500   38.9350 H   0  0  0  0  0  0  0  0  0  0  0  0
   37.9750   24.5000   38.8680 N   0  0  0  0  0  0  0  0  0  0  0  0
   37.4090   25.3110   38.5230 H   0  0  0  0  0  0  0  0  0  0  0  0
   38.0960   24.4600   39.8810 H   0  0  0  0  0  0  0  0  0  0  0  0
   37.1950   22.9270   31.1590 C   0  0  0  0  0  0  0  0  0  0  0  0
   38.2870   23.1280   31.0730 H   0  0  0  0  0  0  0  0  0  0  0  0
   37.0140   22.1310   30.3760 H   0  0  0  0  0  0  0  0  0  0  0  0
   36.4560   24.1160   30.7830 C   0  0  0  0  0  0  0  0  0  0  0  0
   35.5230   24.2620   31.4010 H   0  0  0  0  0  0  0  0  0  0  0  0
   36.0520   24.0700   29.7350 H   0  0  0  0  0  0  0  0  0  0  0  0
   37.1910   25.2630   30.9430 O   0  0  0  0  0  0  0  0  0  0  0  0
   34.7510   26.1670   31.3300 O   0  0  0  0  0  0  0  0  0  0  0  0
   36.1900   26.5900   31.1640 P   0  0  2  0  0  0  0  0  0  0  0  0
   36.3980   27.5780   29.7770 O   0  0  0  0  0  0  0  0  0  0  0  0
   35.5670   28.0810   29.5840 H   0  0  0  0  0  0  0  0  0  0  0  0
   36.6270   27.5130   32.4830 O   0  0  0  0  0  0  0  0  0  0  0  0
   37.4950   27.0720   33.4740 C   0  0  0  0  0  0  0  0  0  0  0  0
   38.7070   27.2400   33.2300 O   0  0  0  0  0  0  0  0  0  0  0  0
   37.0910   26.4740   34.6790 N   0  0  0  0  0  0  0  0  0  0  0  0
   36.7920   26.5730   35.6690 H   0  0  0  0  0  0  0  0  0  0  0  0
   37.1200   25.4580   34.3950 H   0  0  0  0  0  0  0  0  0  0  0  0
  1  2  1  0  0  0  0
  2  3  1  0  0  0  0
  3  4  2  0  0  0  0
  3 15  1  0  0  0  0
  4  8  1  0  0  0  0
  5  9  1  0  0  0  0
  5  4  1  0  0  0  0
  6  5  2  0  0  0  0
  7  6  1  0  0  0  0
  7  2  2  0  0  0  0
 10  6  1  0  0  0  0
 11 17  1  0  0  0  0
 11 12  1  0  0  0  0
 12 18  1  0  0  0  0
 13 12  2  0  0  0  0
 13 19  1  0  0  0  0
 14 13  1  0  0  0  0
 15 16  1  0  0  0  0
 15 14  2  0  0  0  0
 16 11  2  0  0  0  0
 19 21  1  0  0  0  0
 20 19  1  0  0  0  0
 22  7  1  0  0  0  0
 23 22  1  0  0  0  0
 24 22  1  0  0  0  0
 25 28  1  0  0  0  0
 25 22  1  0  0  0  0
 25 26  1  0  0  0  0
 27 25  1  0  0  0  0
 28 30  1  0  0  0  0
 30 29  2  1  0  0  0
 30 33  1  0  0  0  0
 31 30  1  0  0  0  0
 32 31  1  0  0  0  0
 33 34  1  0  0  0  0
 34 36  1  0  0  0  0
 35 34  2  0  0  0  0
 36 37  1  0  0  0  0
 38 36  1  0  0  0  0
M  END
>  <minimizedAffinity>
-5.30282927

$$$$

 OpenBabel03272504403D

 38 39  0  0  0  0  0  0  0  0999 V2000
   40.0220   24.9990   32.1040 Cl  0  0  0  0  0  0  0  0  0  0  0  0
   39.2790   25.7790   33.5020 C   0  0  0  0  0  0  0  0  0  0  0  0
   37.9380   25.6310   33.7150 C   0  0  0  0  0  0  0  0  0  0  0  0
   37.3510   26.2320   34.7950 C   0  0  0  0  0  0  0  0  0  0  0  0
   38.1370   26.9780   35.6520 C   0  0  0  0  0  0  0  0  0  0  0  0
   39.5000   27.0970   35.3900 C   0  0  0  0  0  0  0  0  0  0  0  0
   40.1040   26.5090   34.3210 C   0  0  0  0  0  0  0  0  0  0  0  0
   36.2720   26.0900   34.9310 H   0  0  0  0  0  0  0  0  0  0  0  0
   37.5690   27.4080   36.4730 H   0  0  0  0  0  0  0  0  0  0  0  0
   39.9080   27.6860   36.1350 H   0  0  0  0  0  0  0  0  0  0  0  0
   36.3790   22.7970   31.9230 C   0  0  0  0  0  0  0  0  0  0  0  0
   35.5280   23.5040   31.0040 C   0  0  0  0  0  0  0  0  0  0  0  0
   35.5310   24.9060   31.0420 C   0  0  0  0  0  0  0  0  0  0  0  0
   36.3320   25.5380   31.9400 N   0  0  0  0  0  0  0  0  0  0  0  0
   37.1260   24.8380   32.7980 C   0  0  0  0  0  0  0  0  0  0  0  0
   37.1370   23.4980   32.7760 N   0  0  0  0  0  0  0  0  0  0  0  0
   36.3960   21.7290   31.9150 H   0  0  0  0  0  0  0  0  0  0  0  0
   34.9490   22.8750   30.3510 H   0  0  0  0  0  0  0  0  0  0  0  0
   34.6940   25.5630   30.1410 N   0  0  0  0  0  0  0  0  0  0  0  0
   34.1910   26.4140   30.4870 H   0  0  0  0  0  0  0  0  0  0  0  0
   34.5030   25.3160   29.1690 H   0  0  0  0  0  0  0  0  0  0  0  0
   41.5180   26.6550   34.0540 C   0  0  0  0  0  0  0  0  0  0  0  0
   41.6840   26.5810   32.9550 H   0  0  0  0  0  0  0  0  0  0  0  0
   41.7710   27.7330   34.2840 H   0  0  0  0  0  0  0  0  0  0  0  0
   42.4690   25.8040   34.7420 C   0  0  0  0  0  0  0  0  0  0  0  0
   42.2900   25.7650   35.8560 H   0  0  0  0  0  0  0  0  0  0  0  0
   43.5250   26.1820   34.6750 H   0  0  0  0  0  0  0  0  0  0  0  0
   42.4160   24.5040   34.3100 O   0  0  0  0  0  0  0  0  0  0  0  0
   43.0570   23.6490   36.7150 O   0  0  0  0  0  0  0  0  0  0  0  0
   42.0770   23.4650   35.5830 P   0  0  2  0  0  0  0  0  0  0  0  0
   42.1560   21.8780   34.9350 O   0  0  0  0  0  0  0  0  0  0  0  0
   42.4420   21.2350   35.6320 H   0  0  0  0  0  0  0  0  0  0  0  0
   40.5330   23.6650   36.1820 O   0  0  0  0  0  0  0  0  0  0  0  0
   39.9140   22.7520   37.0280 C   0  0  0  0  0  0  0  0  0  0  0  0
   38.6730   22.8520   37.0970 O   0  0  0  0  0  0  0  0  0  0  0  0
   40.5900   21.7700   37.7710 N   0  0  0  0  0  0  0  0  0  0  0  0
   40.9890   20.8130   37.8320 H   0  0  0  0  0  0  0  0  0  0  0  0
   40.7370   22.2970   38.6740 H   0  0  0  0  0  0  0  0  0  0  0  0
  1  2  1  0  0  0  0
  2  3  2  0  0  0  0
  2  7  1  0  0  0  0
  3  4  1  0  0  0  0
  4  8  1  0  0  0  0
  4  5  2  0  0  0  0
  5  9  1  0  0  0  0
  6  5  1  0  0  0  0
  6 10  1  0  0  0  0
  7  6  2  0  0  0  0
 11 16  1  0  0  0  0
 12 13  1  0  0  0  0
 12 11  2  0  0  0  0
 13 14  2  0  0  0  0
 14 15  1  0  0  0  0
 15  3  1  0  0  0  0
 16 15  2  0  0  0  0
 17 11  1  0  0  0  0
 18 12  1  0  0  0  0
 19 20  1  0  0  0  0
 19 13  1  0  0  0  0
 21 19  1  0  0  0  0
 22 24  1  0  0  0  0
 22  7  1  0  0  0  0
 22 25  1  0  0  0  0
 23 22  1  0  0  0  0
 25 26  1  0  0  0  0
 27 25  1  0  0  0  0
 28 25  1  0  0  0  0
 28 30  1  0  0  0  0
 30 33  1  0  0  0  0
 30 29  2  1  0  0  0
 31 30  1  0  0  0  0
 31 32  1  0  0  0  0
 33 34  1  0  0  0  0
 34 35  2  0  0  0  0
 34 36  1  0  0  0  0
 36 37  1  0  0  0  0
 36 38  1  0  0  0  0
M  END
>  <minimizedAffinity>
-5.29630089

$$$$
