
 OpenBabel03262521013D

 33 34  0  0  1  0  0  0  0  0999 V2000
   39.0590   32.9670   44.8090 N   0  0  0  0  0  0  0  0  0  0  0  0
   37.7620   32.5260   44.3970 C   0  0  1  0  0  0  0  0  0  0  0  0
   37.6420   32.6130   42.9010 C   0  0  0  0  0  0  0  0  0  0  0  0
   38.6850   31.7650   42.3300 N   0  0  0  0  0  0  0  0  0  0  0  0
   39.9410   32.4780   42.6350 C   0  0  0  0  0  0  0  0  0  0  0  0
   40.1420   32.3250   44.1410 C   0  0  2  0  0  0  0  0  0  0  0  0
   39.1880   33.1370   45.8080 H   0  0  0  0  0  0  0  0  0  0  0  0
   36.9910   33.1360   44.8760 H   0  0  0  0  0  0  0  0  0  0  0  0
   37.7310   33.6400   42.5140 H   0  0  0  0  0  0  0  0  0  0  0  0
   36.6440   32.1770   42.6370 H   0  0  0  0  0  0  0  0  0  0  0  0
   38.6710   30.8380   42.7870 H   0  0  0  0  0  0  0  0  0  0  0  0
   39.7790   33.5400   42.3820 H   0  0  0  0  0  0  0  0  0  0  0  0
   40.7920   32.0520   42.1010 H   0  0  0  0  0  0  0  0  0  0  0  0
   41.0700   32.8840   44.3920 H   0  0  0  0  0  0  0  0  0  0  0  0
   40.2710   30.9160   44.4470 N   0  0  0  0  0  0  0  0  0  0  0  0
   40.1740   30.8090   45.4970 H   0  0  0  0  0  0  0  0  0  0  0  0
   41.2850   30.6670   44.2530 H   0  0  0  0  0  0  0  0  0  0  0  0
   37.4670   30.7640   44.8300 S   0  0  0  0  0  0  0  0  0  0  0  0
   37.9060   30.9050   48.8510 C   0  0  0  0  0  0  0  0  0  0  0  0
   38.1600   31.0930   47.5070 C   0  0  0  0  0  0  0  0  0  0  0  0
   37.2760   30.6010   46.5890 C   0  0  0  0  0  0  0  0  0  0  0  0
   36.1520   29.9280   47.0430 N   0  0  0  0  0  0  0  0  0  0  0  0
   35.9680   29.7810   48.3560 C   0  0  0  0  0  0  0  0  0  0  0  0
   36.8150   30.2520   49.2730 N   0  0  0  0  0  0  0  0  0  0  0  0
   38.5900   31.2850   49.6060 H   0  0  0  0  0  0  0  0  0  0  0  0
   39.0350   31.6170   47.1640 H   0  0  0  0  0  0  0  0  0  0  0  0
   34.7750   29.0670   48.8180 C   0  0  0  0  0  0  0  0  0  0  0  0
   34.5150   27.8760   48.5150 O   0  0  0  0  0  0  0  0  0  0  0  0
   33.2180   30.2770   51.7100 H   0  0  0  0  0  0  0  0  0  0  0  0
   33.9350   29.7500   51.0750 C   0  0  0  0  0  0  0  0  0  0  0  0
   34.8690   29.1230   51.6360 O   0  0  0  0  0  0  0  0  0  0  0  0
   33.8430   29.7540   49.6640 N   0  0  0  0  0  0  0  0  0  0  0  0
   33.0620   30.2790   49.1880 H   0  0  0  0  0  0  0  0  0  0  0  0
  1  7  1  0  0  0  0
  2  1  1  0  0  0  0
  2 18  1  0  0  0  0
  2  8  1  1  0  0  0
  3  2  1  0  0  0  0
  4  5  1  0  0  0  0
  4 11  1  0  0  0  0
  4  3  1  0  0  0  0
  5  6  1  0  0  0  0
  6 14  1  1  0  0  0
  6 15  1  0  0  0  0
  6  1  1  0  0  0  0
  9  3  1  0  0  0  0
 10  3  1  0  0  0  0
 12  5  1  0  0  0  0
 13  5  1  0  0  0  0
 15 16  1  0  0  0  0
 17 15  1  0  0  0  0
 18 21  1  0  0  0  0
 19 24  1  0  0  0  0
 19 25  1  0  0  0  0
 20 19  2  0  0  0  0
 21 22  2  0  0  0  0
 21 20  1  0  0  0  0
 22 23  1  0  0  0  0
 23 27  1  0  0  0  0
 23 24  2  0  0  0  0
 26 20  1  0  0  0  0
 27 32  1  0  0  0  0
 28 27  2  0  0  0  0
 30 31  2  0  0  0  0
 30 29  1  0  0  0  0
 32 30  1  0  0  0  0
 33 32  1  0  0  0  0
M  END
>  <minimizedAffinity>
-4.18067217

>  <minimizedRMSD>
1.62583506

$$$$
