
 OpenBabel03272510313D

 28 29  0  0  0  0  0  0  0  0999 V2000
   35.6290   30.7050   49.3220 C   0  0  0  0  0  0  0  0  0  0  0  0
   36.5060   31.5300   50.0020 C   0  0  0  0  0  0  0  0  0  0  0  0
   37.5360   32.0520   49.2320 C   0  0  0  0  0  0  0  0  0  0  0  0
   37.6420   31.7540   47.9160 N   0  0  0  0  0  0  0  0  0  0  0  0
   36.7580   30.9360   47.2820 C   0  0  0  0  0  0  0  0  0  0  0  0
   35.7460   30.4180   48.0280 N   0  0  0  0  0  0  0  0  0  0  0  0
   36.3450   31.7110   51.0540 H   0  0  0  0  0  0  0  0  0  0  0  0
   38.2380   32.7000   49.7400 H   0  0  0  0  0  0  0  0  0  0  0  0
   34.4770   30.1340   50.1030 C   0  0  0  0  0  0  0  0  0  0  0  0
   33.9430   28.8350   49.8590 C   0  0  0  0  0  0  0  0  0  0  0  0
   34.9200   28.9700   51.0190 C   0  0  0  0  0  0  0  0  0  0  0  0
   33.9080   30.9190   50.6350 H   0  0  0  0  0  0  0  0  0  0  0  0
   34.2610   28.1300   49.0920 H   0  0  0  0  0  0  0  0  0  0  0  0
   32.8870   28.6500   50.1930 H   0  0  0  0  0  0  0  0  0  0  0  0
   35.9430   28.5770   50.9070 H   0  0  0  0  0  0  0  0  0  0  0  0
   34.5500   28.9910   52.0550 H   0  0  0  0  0  0  0  0  0  0  0  0
   36.8330   30.5950   45.8590 C   0  0  0  0  0  0  0  0  0  0  0  0
   36.2870   29.6800   45.6430 H   0  0  0  0  0  0  0  0  0  0  0  0
   36.4890   31.4380   45.2220 H   0  0  0  0  0  0  0  0  0  0  0  0
   39.0700   31.4210   45.0390 C   0  0  0  0  0  0  0  0  0  0  0  0
   38.6880   32.5820   44.7850 O   0  0  0  0  0  0  0  0  0  0  0  0
   38.2600   30.3630   45.5830 N   0  0  0  0  0  0  0  0  0  0  0  0
   38.4850   29.3610   45.8530 H   0  0  0  0  0  0  0  0  0  0  0  0
   42.3980   32.0330   45.2210 H   0  0  0  0  0  0  0  0  0  0  0  0
   41.4210   31.5500   45.1230 C   0  0  0  0  0  0  0  0  0  0  0  0
   41.3430   32.8080   45.2990 O   0  0  0  0  0  0  0  0  0  0  0  0
   40.2370   30.6570   44.9610 N   0  0  0  0  0  0  0  0  0  0  0  0
   41.0860   30.1020   44.9040 H   0  0  0  0  0  0  0  0  0  0  0  0
  1  2  1  0  0  0  0
  1  9  1  0  0  0  0
  2  7  1  0  0  0  0
  3  8  1  0  0  0  0
  3  2  2  0  0  0  0
  4  3  1  0  0  0  0
  5  4  2  0  0  0  0
  5  6  1  0  0  0  0
  6  1  2  0  0  0  0
  9 12  1  0  0  0  0
  9 11  1  0  0  0  0
 10  9  1  0  0  0  0
 10 14  1  0  0  0  0
 10 11  1  0  0  0  0
 11 16  1  0  0  0  0
 13 10  1  0  0  0  0
 15 11  1  0  0  0  0
 17  5  1  0  0  0  0
 18 17  1  0  0  0  0
 19 17  1  0  0  0  0
 20 22  1  0  0  0  0
 21 20  2  0  0  0  0
 22 23  1  0  0  0  0
 22 17  1  0  0  0  0
 25 24  1  0  0  0  0
 25 26  2  0  0  0  0
 27 20  1  0  0  0  0
 27 25  1  0  0  0  0
 28 27  1  0  0  0  0
M  END
>  <minimizedAffinity>
-4.48397779

>  <minimizedRMSD>
2.09455228

$$$$
