
 OpenBabel03272508513D

 25 26  0  0  1  0  0  0  0  0999 V2000
   38.5340   30.8490   46.3980 C   0  0  2  0  0  0  0  0  0  0  0  0
   37.1430   30.5440   46.7190 C   0  0  0  0  0  0  0  0  0  0  0  0
   38.0070   31.4610   47.6080 C   0  0  1  0  0  0  0  0  0  0  0  0
   39.3260   30.0370   46.5500 H   0  0  0  0  0  0  0  0  0  0  0  0
   36.3280   31.0530   46.1730 H   0  0  0  0  0  0  0  0  0  0  0  0
   36.8620   29.6110   47.1950 H   0  0  0  0  0  0  0  0  0  0  0  0
   37.6050   32.4600   47.6890 H   0  0  0  0  0  0  0  0  0  0  0  0
   39.9910   33.6260   44.4200 C   0  0  0  0  0  0  0  0  0  0  0  0
   39.6360   33.2470   43.0990 C   0  0  0  0  0  0  0  0  0  0  0  0
   38.9080   32.0490   42.9200 C   0  0  0  0  0  0  0  0  0  0  0  0
   38.5840   31.3190   44.0290 N   0  0  0  0  0  0  0  0  0  0  0  0
   38.9420   31.7160   45.2570 C   0  0  0  0  0  0  0  0  0  0  0  0
   39.6390   32.8540   45.4860 N   0  0  0  0  0  0  0  0  0  0  0  0
   40.5520   34.5620   44.5210 H   0  0  0  0  0  0  0  0  0  0  0  0
   39.8700   33.7930   42.2200 H   0  0  0  0  0  0  0  0  0  0  0  0
   38.5850   31.6660   41.9680 H   0  0  0  0  0  0  0  0  0  0  0  0
   37.4000   30.9140   49.9370 C   0  0  0  0  0  0  0  0  0  0  0  0
   36.2620   31.3620   49.7480 O   0  0  0  0  0  0  0  0  0  0  0  0
   38.4020   30.8390   48.8800 N   0  0  0  0  0  0  0  0  0  0  0  0
   39.3810   30.4210   48.8390 H   0  0  0  0  0  0  0  0  0  0  0  0
   36.9360   29.0460   52.6990 H   0  0  0  0  0  0  0  0  0  0  0  0
   37.4150   29.6270   51.8920 C   0  0  0  0  0  0  0  0  0  0  0  0
   36.1370   29.5530   51.8090 O   0  0  0  0  0  0  0  0  0  0  0  0
   38.2770   30.3500   50.9230 N   0  0  0  0  0  0  0  0  0  0  0  0
   38.8630   29.9740   51.5810 H   0  0  0  0  0  0  0  0  0  0  0  0
  1  4  1  1  0  0  0
  1  2  1  0  0  0  0
  1  3  1  0  0  0  0
  2  6  1  0  0  0  0
  2  3  1  0  0  0  0
  3  7  1  6  0  0  0
  3 19  1  0  0  0  0
  5  2  1  0  0  0  0
  8 14  1  0  0  0  0
  8 13  1  0  0  0  0
  9  8  2  0  0  0  0
 10  9  1  0  0  0  0
 10 11  2  0  0  0  0
 11 12  1  0  0  0  0
 12 13  2  0  0  0  0
 12  1  1  0  0  0  0
 15  9  1  0  0  0  0
 16 10  1  0  0  0  0
 17 24  1  0  0  0  0
 18 17  2  0  0  0  0
 19 17  1  0  0  0  0
 20 19  1  0  0  0  0
 22 21  1  0  0  0  0
 23 22  2  0  0  0  0
 24 25  1  0  0  0  0
 24 22  1  0  0  0  0
M  END
>  <minimizedAffinity>
-4.86568022

>  <minimizedRMSD>
1.05398011

$$$$
