
 OpenBabel03262523303D

 29 31  0  0  0  0  0  0  0  0999 V2000
   37.7590   29.6740   50.6480 C   0  0  0  0  0  0  0  0  0  0  0  0
   38.2650   30.3930   49.5780 C   0  0  0  0  0  0  0  0  0  0  0  0
   37.5580   30.3910   48.3700 C   0  0  0  0  0  0  0  0  0  0  0  0
   36.3880   29.6750   48.2890 N   0  0  0  0  0  0  0  0  0  0  0  0
   35.9310   28.9850   49.3620 C   0  0  0  0  0  0  0  0  0  0  0  0
   36.6080   28.9860   50.5240 N   0  0  0  0  0  0  0  0  0  0  0  0
   38.3050   29.6810   51.5670 H   0  0  0  0  0  0  0  0  0  0  0  0
   39.1840   30.9550   49.6410 H   0  0  0  0  0  0  0  0  0  0  0  0
   37.3970   30.7310   45.9760 C   0  0  0  0  0  0  0  0  0  0  0  0
   37.9920   31.1060   47.1860 C   0  0  0  0  0  0  0  0  0  0  0  0
   38.9430   32.1130   47.2120 C   0  0  0  0  0  0  0  0  0  0  0  0
   39.2810   32.7280   46.0240 C   0  0  0  0  0  0  0  0  0  0  0  0
   40.1640   33.7190   45.7940 N   0  0  0  0  0  0  0  0  0  0  0  0
   40.1370   33.9740   44.4710 C   0  0  0  0  0  0  0  0  0  0  0  0
   39.2620   33.1730   43.8610 N   0  0  0  0  0  0  0  0  0  0  0  0
   38.7080   32.3790   44.8050 C   0  0  0  0  0  0  0  0  0  0  0  0
   37.7550   31.3660   44.7930 C   0  0  0  0  0  0  0  0  0  0  0  0
   36.6480   29.9530   45.8830 H   0  0  0  0  0  0  0  0  0  0  0  0
   39.3980   32.3990   48.1380 H   0  0  0  0  0  0  0  0  0  0  0  0
   40.7890   34.2460   46.4390 H   0  0  0  0  0  0  0  0  0  0  0  0
   40.7000   34.7000   43.8870 H   0  0  0  0  0  0  0  0  0  0  0  0
   37.2960   31.0830   43.8390 H   0  0  0  0  0  0  0  0  0  0  0  0
   34.6830   28.2500   49.2030 C   0  0  0  0  0  0  0  0  0  0  0  0
   34.5360   27.4070   48.2900 O   0  0  0  0  0  0  0  0  0  0  0  0
   32.6480   30.3250   51.1050 H   0  0  0  0  0  0  0  0  0  0  0  0
   33.3710   29.9000   50.4450 C   0  0  0  0  0  0  0  0  0  0  0  0
   34.0260   30.8570   49.9100 O   0  0  0  0  0  0  0  0  0  0  0  0
   33.6450   28.5380   50.1370 N   0  0  0  0  0  0  0  0  0  0  0  0
   33.0380   27.8540   50.6420 H   0  0  0  0  0  0  0  0  0  0  0  0
  1  7  1  0  0  0  0
  2  8  1  0  0  0  0
  2  1  2  0  0  0  0
  3  2  1  0  0  0  0
  4  3  2  0  0  0  0
  4  5  1  0  0  0  0
  5  6  2  0  0  0  0
  6  1  1  0  0  0  0
  9 10  1  0  0  0  0
 10 11  2  0  0  0  0
 10  3  1  0  0  0  0
 11 19  1  0  0  0  0
 12 11  1  0  0  0  0
 13 12  1  0  0  0  0
 13 20  1  0  0  0  0
 14 13  1  0  0  0  0
 15 14  2  0  0  0  0
 15 16  1  0  0  0  0
 16 12  2  0  0  0  0
 17 16  1  0  0  0  0
 17  9  2  0  0  0  0
 18  9  1  0  0  0  0
 21 14  1  0  0  0  0
 22 17  1  0  0  0  0
 23  5  1  0  0  0  0
 23 28  1  0  0  0  0
 24 23  2  0  0  0  0
 26 25  1  0  0  0  0
 27 26  2  0  0  0  0
 28 26  1  0  0  0  0
 28 29  1  0  0  0  0
M  END
>  <minimizedAffinity>
-4.8866868

>  <minimizedRMSD>
0.706596315

$$$$
