
 OpenBabel03272510313D

 28 29  0  0  0  0  0  0  0  0999 V2000
   36.9510   30.5830   49.1080 C   0  0  0  0  0  0  0  0  0  0  0  0
   38.0350   31.1140   48.4350 C   0  0  0  0  0  0  0  0  0  0  0  0
   37.8920   31.1850   47.0560 C   0  0  0  0  0  0  0  0  0  0  0  0
   36.7600   30.7570   46.4500 N   0  0  0  0  0  0  0  0  0  0  0  0
   35.7130   30.2380   47.1480 C   0  0  0  0  0  0  0  0  0  0  0  0
   35.8430   30.1630   48.4990 N   0  0  0  0  0  0  0  0  0  0  0  0
   38.8990   31.4290   49.0000 H   0  0  0  0  0  0  0  0  0  0  0  0
   38.7280   31.5950   46.5040 H   0  0  0  0  0  0  0  0  0  0  0  0
   37.0400   30.5090   50.6070 C   0  0  0  0  0  0  0  0  0  0  0  0
   36.2360   29.6300   51.3900 C   0  0  0  0  0  0  0  0  0  0  0  0
   37.6550   29.1730   51.0840 C   0  0  0  0  0  0  0  0  0  0  0  0
   37.5380   31.3990   51.0360 H   0  0  0  0  0  0  0  0  0  0  0  0
   35.4640   28.9540   51.0280 H   0  0  0  0  0  0  0  0  0  0  0  0
   36.0850   29.9070   52.4680 H   0  0  0  0  0  0  0  0  0  0  0  0
   37.8120   28.3750   50.3410 H   0  0  0  0  0  0  0  0  0  0  0  0
   38.4360   29.2380   51.8560 H   0  0  0  0  0  0  0  0  0  0  0  0
   34.4690   29.7720   46.5320 C   0  0  0  0  0  0  0  0  0  0  0  0
   34.2890   28.7220   46.7500 H   0  0  0  0  0  0  0  0  0  0  0  0
   33.6060   30.4050   46.8300 H   0  0  0  0  0  0  0  0  0  0  0  0
   33.6820   30.6050   44.2850 C   0  0  0  0  0  0  0  0  0  0  0  0
   32.6390   31.1400   44.7100 O   0  0  0  0  0  0  0  0  0  0  0  0
   34.6670   29.9180   45.0800 N   0  0  0  0  0  0  0  0  0  0  0  0
   35.5870   29.4530   44.8280 H   0  0  0  0  0  0  0  0  0  0  0  0
   33.2760   28.6010   41.5820 H   0  0  0  0  0  0  0  0  0  0  0  0
   33.6450   29.3470   42.2940 C   0  0  0  0  0  0  0  0  0  0  0  0
   32.6110   28.7310   42.7040 O   0  0  0  0  0  0  0  0  0  0  0  0
   34.3470   30.4100   43.0710 N   0  0  0  0  0  0  0  0  0  0  0  0
   34.8280   30.2670   42.1880 H   0  0  0  0  0  0  0  0  0  0  0  0
  1  9  1  0  0  0  0
  2  7  1  0  0  0  0
  2  1  2  0  0  0  0
  3  2  1  0  0  0  0
  4  3  2  0  0  0  0
  4  5  1  0  0  0  0
  5  6  2  0  0  0  0
  6  1  1  0  0  0  0
  8  3  1  0  0  0  0
  9 12  1  0  0  0  0
  9 11  1  0  0  0  0
  9 10  1  0  0  0  0
 10 14  1  0  0  0  0
 11 10  1  0  0  0  0
 11 16  1  0  0  0  0
 13 10  1  0  0  0  0
 15 11  1  0  0  0  0
 17 18  1  0  0  0  0
 17 19  1  0  0  0  0
 17  5  1  0  0  0  0
 20 21  2  0  0  0  0
 20 22  1  0  0  0  0
 22 17  1  0  0  0  0
 23 22  1  0  0  0  0
 24 25  1  0  0  0  0
 25 26  2  0  0  0  0
 25 27  1  0  0  0  0
 27 20  1  0  0  0  0
 28 27  1  0  0  0  0
M  END
>  <minimizedAffinity>
-3.84202933

>  <minimizedRMSD>
5.42333698

$$$$
