
 OpenBabel03272500543D

 28 29  0  0  0  0  0  0  0  0999 V2000
   36.8550   30.2650   44.9190 C   0  0  0  0  0  0  0  0  0  0  0  0
   37.1730   29.5590   43.7730 C   0  0  0  0  0  0  0  0  0  0  0  0
   38.4750   29.4690   43.2910 C   0  0  0  0  0  0  0  0  0  0  0  0
   39.5080   30.1340   44.0110 C   0  0  0  0  0  0  0  0  0  0  0  0
   39.1480   30.8190   45.1340 C   0  0  0  0  0  0  0  0  0  0  0  0
   37.8700   30.8930   45.5940 C   0  0  0  0  0  0  0  0  0  0  0  0
   36.3900   29.0570   43.2250 H   0  0  0  0  0  0  0  0  0  0  0  0
   38.6190   28.8910   42.3920 H   0  0  0  0  0  0  0  0  0  0  0  0
   40.4470   29.9740   43.5220 H   0  0  0  0  0  0  0  0  0  0  0  0
   40.0610   31.2620   45.4670 H   0  0  0  0  0  0  0  0  0  0  0  0
   35.1210   29.9690   46.6020 C   0  0  0  0  0  0  0  0  0  0  0  0
   35.4380   30.2940   45.2600 C   0  0  0  0  0  0  0  0  0  0  0  0
   34.3650   30.5930   44.4060 C   0  0  0  0  0  0  0  0  0  0  0  0
   33.1140   30.5570   44.8920 N   0  0  0  0  0  0  0  0  0  0  0  0
   32.8320   30.2460   46.1690 C   0  0  0  0  0  0  0  0  0  0  0  0
   33.8390   29.9530   47.0210 N   0  0  0  0  0  0  0  0  0  0  0  0
   35.8240   29.7150   47.3870 H   0  0  0  0  0  0  0  0  0  0  0  0
   34.6650   30.8310   43.4020 H   0  0  0  0  0  0  0  0  0  0  0  0
   31.7700   30.2770   46.3470 H   0  0  0  0  0  0  0  0  0  0  0  0
   38.6860   32.2660   47.3210 C   0  0  0  0  0  0  0  0  0  0  0  0
   39.7880   32.1770   46.7560 O   0  0  0  0  0  0  0  0  0  0  0  0
   37.5200   31.5800   46.7710 N   0  0  0  0  0  0  0  0  0  0  0  0
   36.5290   31.5400   47.1130 H   0  0  0  0  0  0  0  0  0  0  0  0
   39.3650   34.7840   49.4680 H   0  0  0  0  0  0  0  0  0  0  0  0
   38.8660   33.9460   48.9580 C   0  0  0  0  0  0  0  0  0  0  0  0
   39.9970   34.2220   48.4060 O   0  0  0  0  0  0  0  0  0  0  0  0
   38.0060   32.8410   48.4350 N   0  0  0  0  0  0  0  0  0  0  0  0
   37.5730   33.2120   49.1480 H   0  0  0  0  0  0  0  0  0  0  0  0
  1 12  1  0  0  0  0
  1  6  1  0  0  0  0
  2  1  2  0  0  0  0
  3  2  1  0  0  0  0
  3  4  2  0  0  0  0
  4  5  1  0  0  0  0
  5 10  1  0  0  0  0
  5  6  2  0  0  0  0
  6 22  1  0  0  0  0
  7  2  1  0  0  0  0
  8  3  1  0  0  0  0
  9  4  1  0  0  0  0
 11 16  1  0  0  0  0
 11 17  1  0  0  0  0
 12 11  2  0  0  0  0
 13 14  2  0  0  0  0
 13 12  1  0  0  0  0
 14 15  1  0  0  0  0
 15 19  1  0  0  0  0
 15 16  2  0  0  0  0
 18 13  1  0  0  0  0
 20 27  1  0  0  0  0
 21 20  2  0  0  0  0
 22 23  1  0  0  0  0
 22 20  1  0  0  0  0
 25 24  1  0  0  0  0
 26 25  2  0  0  0  0
 27 25  1  0  0  0  0
 27 28  1  0  0  0  0
M  END
>  <minimizedAffinity>
-4.26840973

>  <minimizedRMSD>
3.70097494

$$$$
