
 OpenBabel03272508513D

 25 26  0  0  1  0  0  0  0  0999 V2000
   38.3060   30.7730   46.4790 C   0  0  2  0  0  0  0  0  0  0  0  0
   36.9060   30.6270   46.8650 C   0  0  0  0  0  0  0  0  0  0  0  0
   37.9110   31.4290   47.7160 C   0  0  1  0  0  0  0  0  0  0  0  0
   39.0050   29.8730   46.5890 H   0  0  0  0  0  0  0  0  0  0  0  0
   36.1300   31.2310   46.3610 H   0  0  0  0  0  0  0  0  0  0  0  0
   36.5420   29.7270   47.3490 H   0  0  0  0  0  0  0  0  0  0  0  0
   37.6320   32.4660   47.8210 H   0  0  0  0  0  0  0  0  0  0  0  0
   40.4170   32.7860   44.1900 C   0  0  0  0  0  0  0  0  0  0  0  0
   39.4880   33.1190   43.1700 C   0  0  0  0  0  0  0  0  0  0  0  0
   38.1620   32.6440   43.2920 C   0  0  0  0  0  0  0  0  0  0  0  0
   37.8460   31.8890   44.3860 N   0  0  0  0  0  0  0  0  0  0  0  0
   38.7570   31.5990   45.3230 C   0  0  0  0  0  0  0  0  0  0  0  0
   40.0390   32.0280   45.2570 N   0  0  0  0  0  0  0  0  0  0  0  0
   41.4340   33.1740   44.0640 H   0  0  0  0  0  0  0  0  0  0  0  0
   39.7020   33.7040   42.3110 H   0  0  0  0  0  0  0  0  0  0  0  0
   37.3760   32.8350   42.5820 H   0  0  0  0  0  0  0  0  0  0  0  0
   37.4410   31.0560   50.1100 C   0  0  0  0  0  0  0  0  0  0  0  0
   36.4130   31.7360   50.0170 O   0  0  0  0  0  0  0  0  0  0  0  0
   38.2910   30.7520   48.9640 N   0  0  0  0  0  0  0  0  0  0  0  0
   39.1490   30.1320   48.8430 H   0  0  0  0  0  0  0  0  0  0  0  0
   36.8420   28.8610   52.5910 H   0  0  0  0  0  0  0  0  0  0  0  0
   37.3620   29.5220   51.8760 C   0  0  0  0  0  0  0  0  0  0  0  0
   36.0840   29.5160   51.7640 O   0  0  0  0  0  0  0  0  0  0  0  0
   38.2740   30.3280   51.0250 N   0  0  0  0  0  0  0  0  0  0  0  0
   38.8290   29.8420   51.6360 H   0  0  0  0  0  0  0  0  0  0  0  0
  1  4  1  1  0  0  0
  1  2  1  0  0  0  0
  1  3  1  0  0  0  0
  2  6  1  0  0  0  0
  2  3  1  0  0  0  0
  3  7  1  1  0  0  0
  3 19  1  0  0  0  0
  5  2  1  0  0  0  0
  8 13  1  0  0  0  0
  9 10  1  0  0  0  0
  9  8  2  0  0  0  0
 10 11  2  0  0  0  0
 11 12  1  0  0  0  0
 12  1  1  0  0  0  0
 13 12  2  0  0  0  0
 14  8  1  0  0  0  0
 15  9  1  0  0  0  0
 16 10  1  0  0  0  0
 17 24  1  0  0  0  0
 18 17  2  0  0  0  0
 19 17  1  0  0  0  0
 20 19  1  0  0  0  0
 22 21  1  0  0  0  0
 23 22  2  0  0  0  0
 24 25  1  0  0  0  0
 24 22  1  0  0  0  0
M  END
>  <minimizedAffinity>
-4.89382744

>  <minimizedRMSD>
0.810467958

$$$$
