
 OpenBabel03272503253D

 28 29  0  0  1  0  0  0  0  0999 V2000
   36.5010   29.8530   49.3390 N   0  0  0  0  0  0  0  0  0  0  0  0
   37.1120   31.1590   49.1880 C   0  0  1  0  0  0  0  0  0  0  0  0
   37.7940   31.3180   50.5440 C   0  0  0  0  0  0  0  0  0  0  0  0
   37.3000   30.1660   51.4100 C   0  0  0  0  0  0  0  0  0  0  0  0
   37.2120   29.0820   50.3390 C   0  0  0  0  0  0  0  0  0  0  0  0
   36.3550   31.9470   49.1220 H   0  0  0  0  0  0  0  0  0  0  0  0
   38.8830   31.1360   50.3870 H   0  0  0  0  0  0  0  0  0  0  0  0
   37.6030   32.2980   50.9960 H   0  0  0  0  0  0  0  0  0  0  0  0
   37.9980   29.9120   52.2040 H   0  0  0  0  0  0  0  0  0  0  0  0
   36.2530   30.3610   51.7520 H   0  0  0  0  0  0  0  0  0  0  0  0
   36.6120   28.2740   50.7550 H   0  0  0  0  0  0  0  0  0  0  0  0
   38.2280   28.8220   50.0180 H   0  0  0  0  0  0  0  0  0  0  0  0
   35.3640   29.4100   48.6070 C   0  0  0  0  0  0  0  0  0  0  0  0
   34.7600   30.3070   47.7120 C   0  0  0  0  0  0  0  0  0  0  0  0
   33.6360   29.8840   46.9900 C   0  0  0  0  0  0  0  0  0  0  0  0
   33.1950   28.6050   47.2050 N   0  0  0  0  0  0  0  0  0  0  0  0
   33.7990   27.7760   48.0680 C   0  0  0  0  0  0  0  0  0  0  0  0
   34.8890   28.1690   48.7780 N   0  0  0  0  0  0  0  0  0  0  0  0
   35.1040   31.3160   47.5400 H   0  0  0  0  0  0  0  0  0  0  0  0
   33.1620   30.5680   46.2970 H   0  0  0  0  0  0  0  0  0  0  0  0
   33.3670   26.7890   48.1590 H   0  0  0  0  0  0  0  0  0  0  0  0
   38.0750   31.2380   48.0900 C   0  0  0  0  0  0  0  0  0  0  0  0
   39.0090   32.0000   48.1450 O   0  0  0  0  0  0  0  0  0  0  0  0
   38.9300   30.0010   44.9440 H   0  0  0  0  0  0  0  0  0  0  0  0
   39.0270   30.6140   45.8310 C   0  0  0  0  0  0  0  0  0  0  0  0
   39.9610   31.4630   46.0220 O   0  0  0  0  0  0  0  0  0  0  0  0
   38.0700   30.4980   46.8760 N   0  0  0  0  0  0  0  0  0  0  0  0
   37.3080   29.8230   46.7490 H   0  0  0  0  0  0  0  0  0  0  0  0
  1  5  1  0  0  0  0
  2  6  1  6  0  0  0
  2  1  1  0  0  0  0
  2  3  1  0  0  0  0
  3  8  1  0  0  0  0
  3  4  1  0  0  0  0
  4 10  1  0  0  0  0
  4  9  1  0  0  0  0
  5 11  1  0  0  0  0
  5  4  1  0  0  0  0
  7  3  1  0  0  0  0
 12  5  1  0  0  0  0
 13 18  1  0  0  0  0
 13  1  1  0  0  0  0
 14 13  2  0  0  0  0
 15 16  2  0  0  0  0
 15 14  1  0  0  0  0
 16 17  1  0  0  0  0
 17 21  1  0  0  0  0
 17 18  2  0  0  0  0
 19 14  1  0  0  0  0
 20 15  1  0  0  0  0
 22 23  2  0  0  0  0
 22  2  1  0  0  0  0
 24 25  1  0  0  0  0
 25 26  2  0  0  0  0
 25 27  1  0  0  0  0
 27 22  1  0  0  0  0
 28 27  1  0  0  0  0
M  END
>  <minimizedAffinity>
-5.03586388

>  <minimizedRMSD>
0.608841836

$$$$
