
 OpenBabel03272510313D

 28 29  0  0  0  0  0  0  0  0999 V2000
   37.4100   31.4530   49.4430 C   0  0  0  0  0  0  0  0  0  0  0  0
   38.1680   32.5920   49.6430 C   0  0  0  0  0  0  0  0  0  0  0  0
   38.7590   33.1110   48.5000 C   0  0  0  0  0  0  0  0  0  0  0  0
   38.5830   32.5210   47.2950 N   0  0  0  0  0  0  0  0  0  0  0  0
   37.8280   31.3990   47.1380 C   0  0  0  0  0  0  0  0  0  0  0  0
   37.2460   30.8820   48.2520 N   0  0  0  0  0  0  0  0  0  0  0  0
   38.2560   32.9940   50.6420 H   0  0  0  0  0  0  0  0  0  0  0  0
   39.3610   34.0010   48.6290 H   0  0  0  0  0  0  0  0  0  0  0  0
   36.7230   30.8650   50.6450 C   0  0  0  0  0  0  0  0  0  0  0  0
   36.1200   29.5720   50.6380 C   0  0  0  0  0  0  0  0  0  0  0  0
   37.5150   29.6770   51.2390 C   0  0  0  0  0  0  0  0  0  0  0  0
   36.4630   31.6370   51.3920 H   0  0  0  0  0  0  0  0  0  0  0  0
   36.0510   28.8880   49.7950 H   0  0  0  0  0  0  0  0  0  0  0  0
   35.3240   29.3810   51.4060 H   0  0  0  0  0  0  0  0  0  0  0  0
   38.3740   29.2850   50.6710 H   0  0  0  0  0  0  0  0  0  0  0  0
   37.6490   29.6720   52.3310 H   0  0  0  0  0  0  0  0  0  0  0  0
   37.6050   30.7340   45.8520 C   0  0  0  0  0  0  0  0  0  0  0  0
   37.4900   29.6610   45.9760 H   0  0  0  0  0  0  0  0  0  0  0  0
   36.7430   31.1790   45.3100 H   0  0  0  0  0  0  0  0  0  0  0  0
   38.8510   32.0560   44.1020 C   0  0  0  0  0  0  0  0  0  0  0  0
   37.9230   32.8570   43.8680 O   0  0  0  0  0  0  0  0  0  0  0  0
   38.8220   30.9840   45.0620 N   0  0  0  0  0  0  0  0  0  0  0  0
   39.5520   30.2690   45.3530 H   0  0  0  0  0  0  0  0  0  0  0  0
   41.6720   30.7830   45.4850 H   0  0  0  0  0  0  0  0  0  0  0  0
   40.9400   31.2170   44.7950 C   0  0  0  0  0  0  0  0  0  0  0  0
   40.4690   31.0050   45.9560 O   0  0  0  0  0  0  0  0  0  0  0  0
   40.1550   31.8000   43.6690 N   0  0  0  0  0  0  0  0  0  0  0  0
   41.1020   31.6120   43.3540 H   0  0  0  0  0  0  0  0  0  0  0  0
  1  2  1  0  0  0  0
  1  9  1  0  0  0  0
  2  7  1  0  0  0  0
  3  8  1  0  0  0  0
  3  2  2  0  0  0  0
  4  3  1  0  0  0  0
  5  4  2  0  0  0  0
  5  6  1  0  0  0  0
  6  1  2  0  0  0  0
  9 11  1  0  0  0  0
  9 12  1  0  0  0  0
 10  9  1  0  0  0  0
 10 11  1  0  0  0  0
 10 14  1  0  0  0  0
 11 16  1  0  0  0  0
 13 10  1  0  0  0  0
 15 11  1  0  0  0  0
 17 18  1  0  0  0  0
 17  5  1  0  0  0  0
 19 17  1  0  0  0  0
 20 22  1  0  0  0  0
 21 20  2  0  0  0  0
 22 23  1  0  0  0  0
 22 17  1  0  0  0  0
 25 24  1  0  0  0  0
 25 26  2  0  0  0  0
 27 20  1  0  0  0  0
 27 25  1  0  0  0  0
 28 27  1  0  0  0  0
M  END
>  <minimizedAffinity>
-5.14702463

>  <minimizedRMSD>
1.54325402

$$$$
