
 OpenBabel03272508513D

 25 26  0  0  1  0  0  0  0  0999 V2000
   38.1540   30.7450   46.1280 C   0  0  2  0  0  0  0  0  0  0  0  0
   36.7250   30.6910   46.4190 C   0  0  0  0  0  0  0  0  0  0  0  0
   37.7660   31.0760   47.4890 C   0  0  1  0  0  0  0  0  0  0  0  0
   38.7280   29.7630   45.9940 H   0  0  0  0  0  0  0  0  0  0  0  0
   36.0650   31.5130   46.0880 H   0  0  0  0  0  0  0  0  0  0  0  0
   36.2220   29.7510   46.6160 H   0  0  0  0  0  0  0  0  0  0  0  0
   37.6120   32.0710   47.8790 H   0  0  0  0  0  0  0  0  0  0  0  0
   40.1730   33.6430   44.9990 C   0  0  0  0  0  0  0  0  0  0  0  0
   39.8650   33.6790   43.6150 C   0  0  0  0  0  0  0  0  0  0  0  0
   38.9740   32.7080   43.1030 C   0  0  0  0  0  0  0  0  0  0  0  0
   38.4570   31.7870   43.9690 N   0  0  0  0  0  0  0  0  0  0  0  0
   38.7780   31.7910   45.2680 C   0  0  0  0  0  0  0  0  0  0  0  0
   39.6250   32.6970   45.8120 N   0  0  0  0  0  0  0  0  0  0  0  0
   40.8640   34.4130   45.3610 H   0  0  0  0  0  0  0  0  0  0  0  0
   40.2460   34.3820   42.9180 H   0  0  0  0  0  0  0  0  0  0  0  0
   38.6680   32.6410   42.0730 H   0  0  0  0  0  0  0  0  0  0  0  0
   37.2910   30.2570   49.7680 C   0  0  0  0  0  0  0  0  0  0  0  0
   36.4990   31.1910   49.9420 O   0  0  0  0  0  0  0  0  0  0  0  0
   37.9770   30.0320   48.5020 N   0  0  0  0  0  0  0  0  0  0  0  0
   38.6150   29.2540   48.1520 H   0  0  0  0  0  0  0  0  0  0  0  0
   37.6210   29.2390   52.9600 H   0  0  0  0  0  0  0  0  0  0  0  0
   37.6880   29.2840   51.8600 C   0  0  0  0  0  0  0  0  0  0  0  0
   37.0580   30.2640   52.3940 O   0  0  0  0  0  0  0  0  0  0  0  0
   37.9090   29.1260   50.4000 N   0  0  0  0  0  0  0  0  0  0  0  0
   38.3220   28.3710   50.8210 H   0  0  0  0  0  0  0  0  0  0  0  0
  1  4  1  6  0  0  0
  1  2  1  0  0  0  0
  1  3  1  0  0  0  0
  2  6  1  0  0  0  0
  2  3  1  0  0  0  0
  3  7  1  1  0  0  0
  3 19  1  0  0  0  0
  5  2  1  0  0  0  0
  8 14  1  0  0  0  0
  8 13  1  0  0  0  0
  9  8  2  0  0  0  0
 10  9  1  0  0  0  0
 10 11  2  0  0  0  0
 11 12  1  0  0  0  0
 12 13  2  0  0  0  0
 12  1  1  0  0  0  0
 15  9  1  0  0  0  0
 16 10  1  0  0  0  0
 17 18  2  0  0  0  0
 17 24  1  0  0  0  0
 19 17  1  0  0  0  0
 20 19  1  0  0  0  0
 22 23  2  0  0  0  0
 22 21  1  0  0  0  0
 24 25  1  0  0  0  0
 24 22  1  0  0  0  0
M  END
>  <minimizedAffinity>
-3.87434077

>  <minimizedRMSD>
1.0928328

$$$$
