
 OpenBabel03272510313D

 28 29  0  0  0  0  0  0  0  0999 V2000
   36.4580   21.0040   33.6560 C   0  0  0  0  0  0  0  0  0  0  0  0
   35.5630   20.5560   34.6100 C   0  0  0  0  0  0  0  0  0  0  0  0
   35.8240   20.9810   35.9050 C   0  0  0  0  0  0  0  0  0  0  0  0
   36.8860   21.7750   36.1770 N   0  0  0  0  0  0  0  0  0  0  0  0
   37.7460   22.1950   35.2100 C   0  0  0  0  0  0  0  0  0  0  0  0
   37.5000   21.7840   33.9370 N   0  0  0  0  0  0  0  0  0  0  0  0
   34.7440   19.9230   34.3020 H   0  0  0  0  0  0  0  0  0  0  0  0
   35.1400   20.6420   36.6720 H   0  0  0  0  0  0  0  0  0  0  0  0
   36.2050   20.5970   32.2310 C   0  0  0  0  0  0  0  0  0  0  0  0
   34.8980   20.3610   31.7120 C   0  0  0  0  0  0  0  0  0  0  0  0
   35.5170   21.7210   31.4230 C   0  0  0  0  0  0  0  0  0  0  0  0
   37.1170   20.2020   31.7450 H   0  0  0  0  0  0  0  0  0  0  0  0
   33.9590   20.4080   32.2590 H   0  0  0  0  0  0  0  0  0  0  0  0
   34.8250   19.7080   30.8010 H   0  0  0  0  0  0  0  0  0  0  0  0
   35.1470   22.6050   31.9660 H   0  0  0  0  0  0  0  0  0  0  0  0
   35.9350   21.9390   30.4280 H   0  0  0  0  0  0  0  0  0  0  0  0
   38.9010   23.0610   35.4600 C   0  0  0  0  0  0  0  0  0  0  0  0
   39.3860   23.3510   34.5310 H   0  0  0  0  0  0  0  0  0  0  0  0
   38.6200   23.9460   36.0690 H   0  0  0  0  0  0  0  0  0  0  0  0
   39.9810   22.4630   37.6590 C   0  0  0  0  0  0  0  0  0  0  0  0
   39.3400   23.2890   38.3400 O   0  0  0  0  0  0  0  0  0  0  0  0
   39.8440   22.2460   36.2430 N   0  0  0  0  0  0  0  0  0  0  0  0
   40.3160   21.5650   35.5780 H   0  0  0  0  0  0  0  0  0  0  0  0
   42.4670   21.1460   35.7710 H   0  0  0  0  0  0  0  0  0  0  0  0
   41.7730   21.3750   36.5860 C   0  0  0  0  0  0  0  0  0  0  0  0
   41.5580   22.0600   35.5360 O   0  0  0  0  0  0  0  0  0  0  0  0
   40.9710   21.4940   37.8390 N   0  0  0  0  0  0  0  0  0  0  0  0
   41.6920   20.7900   37.9670 H   0  0  0  0  0  0  0  0  0  0  0  0
  1  6  2  0  0  0  0
  1  2  1  0  0  0  0
  2  3  2  0  0  0  0
  3  4  1  0  0  0  0
  3  8  1  0  0  0  0
  5 17  1  0  0  0  0
  5  4  2  0  0  0  0
  6  5  1  0  0  0  0
  7  2  1  0  0  0  0
  9  1  1  0  0  0  0
 10  9  1  0  0  0  0
 10 13  1  0  0  0  0
 11 10  1  0  0  0  0
 11 15  1  0  0  0  0
 11  9  1  0  0  0  0
 12  9  1  0  0  0  0
 14 10  1  0  0  0  0
 16 11  1  0  0  0  0
 17 19  1  0  0  0  0
 17 22  1  0  0  0  0
 18 17  1  0  0  0  0
 20 27  1  0  0  0  0
 20 21  2  0  0  0  0
 22 20  1  0  0  0  0
 23 22  1  0  0  0  0
 24 25  1  0  0  0  0
 25 27  1  0  0  0  0
 26 25  2  0  0  0  0
 27 28  1  0  0  0  0
M  END
>  <minimizedAffinity>
-4.7891984

$$$$

 OpenBabel03272510313D

 28 29  0  0  0  0  0  0  0  0999 V2000
   38.0040   25.4120   34.0860 C   0  0  0  0  0  0  0  0  0  0  0  0
   37.4620   25.2400   32.8260 C   0  0  0  0  0  0  0  0  0  0  0  0
   37.2530   23.9190   32.4530 C   0  0  0  0  0  0  0  0  0  0  0  0
   37.5680   22.9020   33.2870 N   0  0  0  0  0  0  0  0  0  0  0  0
   38.1030   23.1110   34.5210 C   0  0  0  0  0  0  0  0  0  0  0  0
   38.3120   24.4010   34.8960 N   0  0  0  0  0  0  0  0  0  0  0  0
   37.2420   26.1110   32.2270 H   0  0  0  0  0  0  0  0  0  0  0  0
   36.8320   23.7560   31.4700 H   0  0  0  0  0  0  0  0  0  0  0  0
   38.2250   26.8240   34.5530 C   0  0  0  0  0  0  0  0  0  0  0  0
   38.6290   27.1480   35.8820 C   0  0  0  0  0  0  0  0  0  0  0  0
   39.7190   27.1180   34.8200 C   0  0  0  0  0  0  0  0  0  0  0  0
   37.7460   27.5610   33.8820 H   0  0  0  0  0  0  0  0  0  0  0  0
   38.7910   26.4530   36.7030 H   0  0  0  0  0  0  0  0  0  0  0  0
   38.3960   28.1850   36.2440 H   0  0  0  0  0  0  0  0  0  0  0  0
   40.4290   26.2750   34.8040 H   0  0  0  0  0  0  0  0  0  0  0  0
   40.1180   28.0570   34.4080 H   0  0  0  0  0  0  0  0  0  0  0  0
   38.4500   22.0390   35.4570 C   0  0  0  0  0  0  0  0  0  0  0  0
   37.6030   21.3820   35.6370 H   0  0  0  0  0  0  0  0  0  0  0  0
   39.3420   21.4730   35.1120 H   0  0  0  0  0  0  0  0  0  0  0  0
   39.9840   22.3360   37.4370 C   0  0  0  0  0  0  0  0  0  0  0  0
   40.8150   21.4780   37.0790 O   0  0  0  0  0  0  0  0  0  0  0  0
   38.7930   22.7130   36.7200 N   0  0  0  0  0  0  0  0  0  0  0  0
   38.0400   23.4340   36.9200 H   0  0  0  0  0  0  0  0  0  0  0  0
   37.2930   23.7130   38.9700 H   0  0  0  0  0  0  0  0  0  0  0  0
   38.3120   23.4350   38.6800 C   0  0  0  0  0  0  0  0  0  0  0  0
   37.4180   22.8800   37.9660 O   0  0  0  0  0  0  0  0  0  0  0  0
   39.7770   23.2250   38.4950 N   0  0  0  0  0  0  0  0  0  0  0  0
   39.6260   23.8710   39.2650 H   0  0  0  0  0  0  0  0  0  0  0  0
  1  9  1  0  0  0  0
  1  6  1  0  0  0  0
  2  1  2  0  0  0  0
  3  2  1  0  0  0  0
  3  4  2  0  0  0  0
  4  5  1  0  0  0  0
  5  6  2  0  0  0  0
  5 17  1  0  0  0  0
  7  2  1  0  0  0  0
  8  3  1  0  0  0  0
  9 11  1  0  0  0  0
  9 10  1  0  0  0  0
 10 14  1  0  0  0  0
 10 13  1  0  0  0  0
 11 10  1  0  0  0  0
 12  9  1  0  0  0  0
 15 11  1  0  0  0  0
 16 11  1  0  0  0  0
 17 18  1  0  0  0  0
 17 22  1  0  0  0  0
 19 17  1  0  0  0  0
 20 27  1  0  0  0  0
 21 20  2  0  0  0  0
 22 23  1  0  0  0  0
 22 20  1  0  0  0  0
 25 24  1  0  0  0  0
 26 25  2  0  0  0  0
 27 25  1  0  0  0  0
 27 28  1  0  0  0  0
M  END
>  <minimizedAffinity>
-4.67725277

$$$$

 OpenBabel03272510313D

 28 29  0  0  0  0  0  0  0  0999 V2000
   38.0740   24.9270   35.3810 C   0  0  0  0  0  0  0  0  0  0  0  0
   37.9290   24.6790   36.7330 C   0  0  0  0  0  0  0  0  0  0  0  0
   37.8280   23.3380   37.0760 C   0  0  0  0  0  0  0  0  0  0  0  0
   37.8740   22.3720   36.1300 N   0  0  0  0  0  0  0  0  0  0  0  0
   38.0180   22.6550   34.8070 C   0  0  0  0  0  0  0  0  0  0  0  0
   38.1170   23.9660   34.4600 N   0  0  0  0  0  0  0  0  0  0  0  0
   37.9000   25.5140   37.4180 H   0  0  0  0  0  0  0  0  0  0  0  0
   37.7100   23.1170   38.1290 H   0  0  0  0  0  0  0  0  0  0  0  0
   38.2170   26.3620   34.9560 C   0  0  0  0  0  0  0  0  0  0  0  0
   38.5580   27.4090   35.8620 C   0  0  0  0  0  0  0  0  0  0  0  0
   39.6870   26.8390   35.0150 C   0  0  0  0  0  0  0  0  0  0  0  0
   37.7320   26.5560   33.9810 H   0  0  0  0  0  0  0  0  0  0  0  0
   38.7200   27.3190   36.9350 H   0  0  0  0  0  0  0  0  0  0  0  0
   38.2680   28.4520   35.5640 H   0  0  0  0  0  0  0  0  0  0  0  0
   40.4320   26.1790   35.4880 H   0  0  0  0  0  0  0  0  0  0  0  0
   40.0600   27.3950   34.1420 H   0  0  0  0  0  0  0  0  0  0  0  0
   38.0820   21.6400   33.7530 C   0  0  0  0  0  0  0  0  0  0  0  0
   38.9250   21.8110   33.0900 H   0  0  0  0  0  0  0  0  0  0  0  0
   38.0970   20.6140   34.1790 H   0  0  0  0  0  0  0  0  0  0  0  0
   35.6760   21.0210   33.3160 C   0  0  0  0  0  0  0  0  0  0  0  0
   35.5860   20.2060   34.2560 O   0  0  0  0  0  0  0  0  0  0  0  0
   36.8400   21.7970   32.9780 N   0  0  0  0  0  0  0  0  0  0  0  0
   37.0160   22.5250   32.2240 H   0  0  0  0  0  0  0  0  0  0  0  0
   36.2150   22.2310   30.1970 H   0  0  0  0  0  0  0  0  0  0  0  0
   35.7520   21.9040   31.1340 C   0  0  0  0  0  0  0  0  0  0  0  0
   37.0160   21.7650   31.1230 O   0  0  0  0  0  0  0  0  0  0  0  0
   34.8810   21.5340   32.2880 N   0  0  0  0  0  0  0  0  0  0  0  0
   34.3050   21.9070   31.5390 H   0  0  0  0  0  0  0  0  0  0  0  0
  1  2  1  0  0  0  0
  2  3  2  0  0  0  0
  2  7  1  0  0  0  0
  3  8  1  0  0  0  0
  4  3  1  0  0  0  0
  5  4  2  0  0  0  0
  6  5  1  0  0  0  0
  6  1  2  0  0  0  0
  9 11  1  0  0  0  0
  9  1  1  0  0  0  0
  9 10  1  0  0  0  0
 10 13  1  0  0  0  0
 11 15  1  0  0  0  0
 11 10  1  0  0  0  0
 12  9  1  0  0  0  0
 14 10  1  0  0  0  0
 16 11  1  0  0  0  0
 17 19  1  0  0  0  0
 17  5  1  0  0  0  0
 18 17  1  0  0  0  0
 20 21  2  0  0  0  0
 22 20  1  0  0  0  0
 22 17  1  0  0  0  0
 23 22  1  0  0  0  0
 24 25  1  0  0  0  0
 25 27  1  0  0  0  0
 26 25  2  0  0  0  0
 27 20  1  0  0  0  0
 28 27  1  0  0  0  0
M  END
>  <minimizedAffinity>
-4.60874748

$$$$

 OpenBabel03272510313D

 28 29  0  0  0  0  0  0  0  0999 V2000
   39.2610   26.4510   33.7010 C   0  0  0  0  0  0  0  0  0  0  0  0
   40.4650   27.1160   33.8440 C   0  0  0  0  0  0  0  0  0  0  0  0
   41.4580   26.3980   34.4950 C   0  0  0  0  0  0  0  0  0  0  0  0
   41.2300   25.1420   34.9430 N   0  0  0  0  0  0  0  0  0  0  0  0
   40.0290   24.5200   34.7840 C   0  0  0  0  0  0  0  0  0  0  0  0
   39.0490   25.2150   34.1480 N   0  0  0  0  0  0  0  0  0  0  0  0
   40.5570   28.1200   33.4570 H   0  0  0  0  0  0  0  0  0  0  0  0
   42.4090   26.8970   34.6230 H   0  0  0  0  0  0  0  0  0  0  0  0
   38.1580   27.1720   32.9770 C   0  0  0  0  0  0  0  0  0  0  0  0
   36.8510   26.6270   32.8140 C   0  0  0  0  0  0  0  0  0  0  0  0
   37.0400   27.6330   33.9400 C   0  0  0  0  0  0  0  0  0  0  0  0
   38.5470   27.9850   32.3350 H   0  0  0  0  0  0  0  0  0  0  0  0
   36.5040   25.6500   33.1450 H   0  0  0  0  0  0  0  0  0  0  0  0
   36.2370   27.0280   31.9630 H   0  0  0  0  0  0  0  0  0  0  0  0
   37.0650   27.2750   34.9810 H   0  0  0  0  0  0  0  0  0  0  0  0
   36.6850   28.6680   33.8230 H   0  0  0  0  0  0  0  0  0  0  0  0
   39.7440   23.1600   35.2460 C   0  0  0  0  0  0  0  0  0  0  0  0
   38.9160   22.7210   34.6940 H   0  0  0  0  0  0  0  0  0  0  0  0
   40.6500   22.5180   35.2030 H   0  0  0  0  0  0  0  0  0  0  0  0
   40.0200   22.5350   37.6740 C   0  0  0  0  0  0  0  0  0  0  0  0
   40.9730   21.7510   37.4920 O   0  0  0  0  0  0  0  0  0  0  0  0
   39.3440   23.2970   36.6560 N   0  0  0  0  0  0  0  0  0  0  0  0
   38.5480   23.9990   36.7020 H   0  0  0  0  0  0  0  0  0  0  0  0
   36.8380   23.6430   38.0390 H   0  0  0  0  0  0  0  0  0  0  0  0
   37.8770   23.3480   38.2180 C   0  0  0  0  0  0  0  0  0  0  0  0
   37.5160   23.2040   37.0070 O   0  0  0  0  0  0  0  0  0  0  0  0
   39.2400   23.0190   38.7280 N   0  0  0  0  0  0  0  0  0  0  0  0
   38.6720   23.3690   39.4930 H   0  0  0  0  0  0  0  0  0  0  0  0
  1  2  2  0  0  0  0
  1  6  1  0  0  0  0
  2  3  1  0  0  0  0
  3  8  1  0  0  0  0
  3  4  2  0  0  0  0
  5  4  1  0  0  0  0
  5 17  1  0  0  0  0
  6  5  2  0  0  0  0
  7  2  1  0  0  0  0
  9  1  1  0  0  0  0
  9 11  1  0  0  0  0
 10  9  1  0  0  0  0
 10 13  1  0  0  0  0
 10 11  1  0  0  0  0
 11 15  1  0  0  0  0
 12  9  1  0  0  0  0
 14 10  1  0  0  0  0
 16 11  1  0  0  0  0
 17 22  1  0  0  0  0
 18 17  1  0  0  0  0
 19 17  1  0  0  0  0
 20 27  1  0  0  0  0
 21 20  2  0  0  0  0
 22 23  1  0  0  0  0
 22 20  1  0  0  0  0
 24 25  1  0  0  0  0
 25 27  1  0  0  0  0
 26 25  2  0  0  0  0
 27 28  1  0  0  0  0
M  END
>  <minimizedAffinity>
-4.60397053

$$$$

 OpenBabel03272510313D

 28 29  0  0  0  0  0  0  0  0999 V2000
   37.2630   26.8050   33.7040 C   0  0  0  0  0  0  0  0  0  0  0  0
   37.4820   27.7830   34.6560 C   0  0  0  0  0  0  0  0  0  0  0  0
   38.0830   27.3380   35.8250 C   0  0  0  0  0  0  0  0  0  0  0  0
   38.4170   26.0370   35.9860 N   0  0  0  0  0  0  0  0  0  0  0  0
   38.1840   25.1020   35.0240 C   0  0  0  0  0  0  0  0  0  0  0  0
   37.5950   25.5270   33.8750 N   0  0  0  0  0  0  0  0  0  0  0  0
   37.1810   28.7980   34.4430 H   0  0  0  0  0  0  0  0  0  0  0  0
   38.2640   28.0830   36.5890 H   0  0  0  0  0  0  0  0  0  0  0  0
   36.6400   27.2370   32.4050 C   0  0  0  0  0  0  0  0  0  0  0  0
   36.6890   28.5800   31.9300 C   0  0  0  0  0  0  0  0  0  0  0  0
   37.7060   27.6080   31.3480 C   0  0  0  0  0  0  0  0  0  0  0  0
   35.8960   26.5050   32.0390 H   0  0  0  0  0  0  0  0  0  0  0  0
   37.1330   29.4360   32.4350 H   0  0  0  0  0  0  0  0  0  0  0  0
   35.9000   28.8860   31.1920 H   0  0  0  0  0  0  0  0  0  0  0  0
   38.7580   27.6770   31.6680 H   0  0  0  0  0  0  0  0  0  0  0  0
   37.5630   27.1950   30.3380 H   0  0  0  0  0  0  0  0  0  0  0  0
   38.5380   23.6870   35.1550 C   0  0  0  0  0  0  0  0  0  0  0  0
   37.6950   23.0450   34.9090 H   0  0  0  0  0  0  0  0  0  0  0  0
   39.4350   23.4350   34.5490 H   0  0  0  0  0  0  0  0  0  0  0  0
   39.8790   22.5350   36.9530 C   0  0  0  0  0  0  0  0  0  0  0  0
   40.5540   21.8330   36.1730 O   0  0  0  0  0  0  0  0  0  0  0  0
   38.8730   23.4920   36.5750 N   0  0  0  0  0  0  0  0  0  0  0  0
   38.2640   24.1480   37.1460 H   0  0  0  0  0  0  0  0  0  0  0  0
   37.3740   23.4630   39.0370 H   0  0  0  0  0  0  0  0  0  0  0  0
   38.3400   23.1570   38.6240 C   0  0  0  0  0  0  0  0  0  0  0  0
   37.4340   23.2840   37.7410 O   0  0  0  0  0  0  0  0  0  0  0  0
   39.7450   22.7500   38.3270 N   0  0  0  0  0  0  0  0  0  0  0  0
   39.6450   22.9060   39.3260 H   0  0  0  0  0  0  0  0  0  0  0  0
  1  6  2  0  0  0  0
  1  2  1  0  0  0  0
  2  3  2  0  0  0  0
  3  4  1  0  0  0  0
  3  8  1  0  0  0  0
  5 17  1  0  0  0  0
  5  4  2  0  0  0  0
  6  5  1  0  0  0  0
  7  2  1  0  0  0  0
  9  1  1  0  0  0  0
 10  9  1  0  0  0  0
 10 13  1  0  0  0  0
 11 15  1  0  0  0  0
 11 10  1  0  0  0  0
 11  9  1  0  0  0  0
 12  9  1  0  0  0  0
 14 10  1  0  0  0  0
 16 11  1  0  0  0  0
 17 22  1  0  0  0  0
 18 17  1  0  0  0  0
 19 17  1  0  0  0  0
 20 27  1  0  0  0  0
 21 20  2  0  0  0  0
 22 20  1  0  0  0  0
 22 23  1  0  0  0  0
 25 24  1  0  0  0  0
 26 25  2  0  0  0  0
 27 25  1  0  0  0  0
 27 28  1  0  0  0  0
M  END
>  <minimizedAffinity>
-4.59139872

$$$$

 OpenBabel03272510313D

 28 29  0  0  0  0  0  0  0  0999 V2000
   36.6040   21.0820   33.2790 C   0  0  0  0  0  0  0  0  0  0  0  0
   35.6590   20.5030   34.1060 C   0  0  0  0  0  0  0  0  0  0  0  0
   35.8100   20.7860   35.4560 C   0  0  0  0  0  0  0  0  0  0  0  0
   36.8180   21.5750   35.8940 N   0  0  0  0  0  0  0  0  0  0  0  0
   37.7300   22.1280   35.0480 C   0  0  0  0  0  0  0  0  0  0  0  0
   37.5920   21.8560   33.7230 N   0  0  0  0  0  0  0  0  0  0  0  0
   34.8900   19.8840   33.6690 H   0  0  0  0  0  0  0  0  0  0  0  0
   35.0860   20.3420   36.1260 H   0  0  0  0  0  0  0  0  0  0  0  0
   36.4710   20.8320   31.8020 C   0  0  0  0  0  0  0  0  0  0  0  0
   35.2510   20.4160   31.1930 C   0  0  0  0  0  0  0  0  0  0  0  0
   35.5880   21.8980   31.1130 C   0  0  0  0  0  0  0  0  0  0  0  0
   37.4540   20.6950   31.3150 H   0  0  0  0  0  0  0  0  0  0  0  0
   34.3090   20.2020   31.6940 H   0  0  0  0  0  0  0  0  0  0  0  0
   35.3310   19.8920   30.2030 H   0  0  0  0  0  0  0  0  0  0  0  0
   35.0350   22.6090   31.7470 H   0  0  0  0  0  0  0  0  0  0  0  0
   35.9760   22.3280   30.1770 H   0  0  0  0  0  0  0  0  0  0  0  0
   38.8290   22.9940   35.4800 C   0  0  0  0  0  0  0  0  0  0  0  0
   39.7680   22.4480   35.5250 H   0  0  0  0  0  0  0  0  0  0  0  0
   38.9110   23.8970   34.8380 H   0  0  0  0  0  0  0  0  0  0  0  0
   38.0770   24.7910   37.0820 C   0  0  0  0  0  0  0  0  0  0  0  0
   37.9620   25.6850   36.2200 O   0  0  0  0  0  0  0  0  0  0  0  0
   38.4780   23.4290   36.8420 N   0  0  0  0  0  0  0  0  0  0  0  0
   38.5850   22.5940   37.4890 H   0  0  0  0  0  0  0  0  0  0  0  0
   39.4710   22.8510   39.4860 H   0  0  0  0  0  0  0  0  0  0  0  0
   38.8600   23.5810   38.9460 C   0  0  0  0  0  0  0  0  0  0  0  0
   39.6660   22.9470   38.1950 O   0  0  0  0  0  0  0  0  0  0  0  0
   37.9170   24.6310   38.4610 N   0  0  0  0  0  0  0  0  0  0  0  0
   37.8020   24.5150   39.4640 H   0  0  0  0  0  0  0  0  0  0  0  0
  1  6  2  0  0  0  0
  1  2  1  0  0  0  0
  2  3  2  0  0  0  0
  3  4  1  0  0  0  0
  3  8  1  0  0  0  0
  5 17  1  0  0  0  0
  5  4  2  0  0  0  0
  6  5  1  0  0  0  0
  7  2  1  0  0  0  0
  9  1  1  0  0  0  0
 10 13  1  0  0  0  0
 10  9  1  0  0  0  0
 11 10  1  0  0  0  0
 11 15  1  0  0  0  0
 11  9  1  0  0  0  0
 12  9  1  0  0  0  0
 14 10  1  0  0  0  0
 16 11  1  0  0  0  0
 17 18  1  0  0  0  0
 17 22  1  0  0  0  0
 19 17  1  0  0  0  0
 20 27  1  0  0  0  0
 21 20  2  0  0  0  0
 22 20  1  0  0  0  0
 22 23  1  0  0  0  0
 25 24  1  0  0  0  0
 26 25  2  0  0  0  0
 27 25  1  0  0  0  0
 27 28  1  0  0  0  0
M  END
>  <minimizedAffinity>
-4.50100136

$$$$

 OpenBabel03272510313D

 28 29  0  0  0  0  0  0  0  0999 V2000
   38.2850   25.2110   36.0330 C   0  0  0  0  0  0  0  0  0  0  0  0
   38.2970   26.5480   36.3860 C   0  0  0  0  0  0  0  0  0  0  0  0
   37.9620   27.4270   35.3660 C   0  0  0  0  0  0  0  0  0  0  0  0
   37.6510   26.9740   34.1300 N   0  0  0  0  0  0  0  0  0  0  0  0
   37.6510   25.6480   33.8200 C   0  0  0  0  0  0  0  0  0  0  0  0
   37.9790   24.7790   34.8120 N   0  0  0  0  0  0  0  0  0  0  0  0
   38.5600   26.8200   37.3980 H   0  0  0  0  0  0  0  0  0  0  0  0
   37.9670   28.4800   35.6150 H   0  0  0  0  0  0  0  0  0  0  0  0
   38.6130   24.2130   37.1090 C   0  0  0  0  0  0  0  0  0  0  0  0
   38.0180   24.2450   38.4040 C   0  0  0  0  0  0  0  0  0  0  0  0
   37.4240   23.2680   37.4000 C   0  0  0  0  0  0  0  0  0  0  0  0
   39.5580   23.6780   36.9030 H   0  0  0  0  0  0  0  0  0  0  0  0
   37.3090   24.9810   38.7800 H   0  0  0  0  0  0  0  0  0  0  0  0
   38.5810   23.7380   39.2330 H   0  0  0  0  0  0  0  0  0  0  0  0
   36.4490   23.4960   36.9410 H   0  0  0  0  0  0  0  0  0  0  0  0
   37.6550   22.1940   37.4700 H   0  0  0  0  0  0  0  0  0  0  0  0
   37.3130   25.1160   32.4980 C   0  0  0  0  0  0  0  0  0  0  0  0
   38.1300   24.5280   32.0880 H   0  0  0  0  0  0  0  0  0  0  0  0
   36.3640   24.5380   32.5240 H   0  0  0  0  0  0  0  0  0  0  0  0
   35.9300   26.3920   30.8190 C   0  0  0  0  0  0  0  0  0  0  0  0
   34.9980   25.5640   30.7710 O   0  0  0  0  0  0  0  0  0  0  0  0
   37.1100   26.2930   31.6370 N   0  0  0  0  0  0  0  0  0  0  0  0
   37.9410   26.9410   31.7700 H   0  0  0  0  0  0  0  0  0  0  0  0
   38.8260   27.9700   30.0390 H   0  0  0  0  0  0  0  0  0  0  0  0
   37.7700   27.7140   30.1740 C   0  0  0  0  0  0  0  0  0  0  0  0
   38.5630   26.8120   30.5920 O   0  0  0  0  0  0  0  0  0  0  0  0
   36.2830   27.6150   30.2400 N   0  0  0  0  0  0  0  0  0  0  0  0
   36.5410   28.5020   29.8190 H   0  0  0  0  0  0  0  0  0  0  0  0
  1  2  1  0  0  0  0
  1  9  1  0  0  0  0
  2  7  1  0  0  0  0
  3  8  1  0  0  0  0
  3  2  2  0  0  0  0
  4  3  1  0  0  0  0
  5  4  2  0  0  0  0
  5  6  1  0  0  0  0
  6  1  2  0  0  0  0
  9 11  1  0  0  0  0
  9 10  1  0  0  0  0
 10 13  1  0  0  0  0
 10 14  1  0  0  0  0
 11 16  1  0  0  0  0
 11 10  1  0  0  0  0
 12  9  1  0  0  0  0
 15 11  1  0  0  0  0
 17 19  1  0  0  0  0
 17  5  1  0  0  0  0
 18 17  1  0  0  0  0
 20 22  1  0  0  0  0
 21 20  2  0  0  0  0
 22 23  1  0  0  0  0
 22 17  1  0  0  0  0
 24 25  1  0  0  0  0
 25 27  1  0  0  0  0
 25 26  2  0  0  0  0
 27 20  1  0  0  0  0
 28 27  1  0  0  0  0
M  END
>  <minimizedAffinity>
-4.49953508

$$$$

 OpenBabel03272510313D

 28 29  0  0  0  0  0  0  0  0999 V2000
   36.1450   23.5730   31.5890 C   0  0  0  0  0  0  0  0  0  0  0  0
   35.4000   24.6600   31.1730 C   0  0  0  0  0  0  0  0  0  0  0  0
   35.8910   25.8950   31.5710 C   0  0  0  0  0  0  0  0  0  0  0  0
   37.0210   25.9900   32.3110 N   0  0  0  0  0  0  0  0  0  0  0  0
   37.7280   24.8950   32.7020 C   0  0  0  0  0  0  0  0  0  0  0  0
   37.2540   23.6800   32.3180 N   0  0  0  0  0  0  0  0  0  0  0  0
   34.5090   24.4900   30.5870 H   0  0  0  0  0  0  0  0  0  0  0  0
   35.3250   26.7630   31.2620 H   0  0  0  0  0  0  0  0  0  0  0  0
   35.6730   22.2110   31.1610 C   0  0  0  0  0  0  0  0  0  0  0  0
   36.3350   21.0060   31.5410 C   0  0  0  0  0  0  0  0  0  0  0  0
   35.1040   21.3970   32.3470 C   0  0  0  0  0  0  0  0  0  0  0  0
   34.9870   22.2640   30.2960 H   0  0  0  0  0  0  0  0  0  0  0  0
   37.2430   20.9170   32.1330 H   0  0  0  0  0  0  0  0  0  0  0  0
   36.1650   20.1080   30.8880 H   0  0  0  0  0  0  0  0  0  0  0  0
   35.2350   21.7960   33.3650 H   0  0  0  0  0  0  0  0  0  0  0  0
   34.1450   20.8860   32.1770 H   0  0  0  0  0  0  0  0  0  0  0  0
   38.9580   24.9540   33.4950 C   0  0  0  0  0  0  0  0  0  0  0  0
   39.1870   23.9910   33.9430 H   0  0  0  0  0  0  0  0  0  0  0  0
   39.8100   25.3390   32.8940 H   0  0  0  0  0  0  0  0  0  0  0  0
   39.6180   26.9820   34.8420 C   0  0  0  0  0  0  0  0  0  0  0  0
   40.6720   27.2100   34.2140 O   0  0  0  0  0  0  0  0  0  0  0  0
   38.6870   25.9170   34.5750 N   0  0  0  0  0  0  0  0  0  0  0  0
   37.7630   25.6490   35.0260 H   0  0  0  0  0  0  0  0  0  0  0  0
   37.5310   25.7510   37.2110 H   0  0  0  0  0  0  0  0  0  0  0  0
   38.1470   26.4100   36.5900 C   0  0  0  0  0  0  0  0  0  0  0  0
   38.1750   25.1950   36.2150 O   0  0  0  0  0  0  0  0  0  0  0  0
   38.8990   27.5090   35.9180 N   0  0  0  0  0  0  0  0  0  0  0  0
   38.3760   27.8910   36.7000 H   0  0  0  0  0  0  0  0  0  0  0  0
  1  6  1  0  0  0  0
  2  3  1  0  0  0  0
  2  1  2  0  0  0  0
  3  4  2  0  0  0  0
  4  5  1  0  0  0  0
  5 17  1  0  0  0  0
  6  5  2  0  0  0  0
  7  2  1  0  0  0  0
  8  3  1  0  0  0  0
  9 10  1  0  0  0  0
  9  1  1  0  0  0  0
  9 11  1  0  0  0  0
 10 13  1  0  0  0  0
 10 11  1  0  0  0  0
 11 15  1  0  0  0  0
 12  9  1  0  0  0  0
 14 10  1  0  0  0  0
 16 11  1  0  0  0  0
 17 18  1  0  0  0  0
 17 22  1  0  0  0  0
 19 17  1  0  0  0  0
 20 27  1  0  0  0  0
 21 20  2  0  0  0  0
 22 20  1  0  0  0  0
 22 23  1  0  0  0  0
 25 24  1  0  0  0  0
 26 25  2  0  0  0  0
 27 25  1  0  0  0  0
 27 28  1  0  0  0  0
M  END
>  <minimizedAffinity>
-4.45021009

$$$$

 OpenBabel03272510313D

 28 29  0  0  0  0  0  0  0  0999 V2000
   38.0090   26.4480   34.0360 C   0  0  0  0  0  0  0  0  0  0  0  0
   39.2270   27.0660   34.2480 C   0  0  0  0  0  0  0  0  0  0  0  0
   40.2340   26.2330   34.7150 C   0  0  0  0  0  0  0  0  0  0  0  0
   40.0040   24.9180   34.9340 N   0  0  0  0  0  0  0  0  0  0  0  0
   38.7890   24.3450   34.7140 C   0  0  0  0  0  0  0  0  0  0  0  0
   37.7950   25.1530   34.2570 N   0  0  0  0  0  0  0  0  0  0  0  0
   39.3200   28.1230   34.0480 H   0  0  0  0  0  0  0  0  0  0  0  0
   41.1970   26.6920   34.8930 H   0  0  0  0  0  0  0  0  0  0  0  0
   36.8900   27.2990   33.5020 C   0  0  0  0  0  0  0  0  0  0  0  0
   37.0610   28.2210   32.4280 C   0  0  0  0  0  0  0  0  0  0  0  0
   36.4620   26.8660   32.0810 C   0  0  0  0  0  0  0  0  0  0  0  0
   36.0460   27.3670   34.2130 H   0  0  0  0  0  0  0  0  0  0  0  0
   37.9860   28.4460   31.8990 H   0  0  0  0  0  0  0  0  0  0  0  0
   36.3190   29.0610   32.3570 H   0  0  0  0  0  0  0  0  0  0  0  0
   37.0820   26.1250   31.5510 H   0  0  0  0  0  0  0  0  0  0  0  0
   35.3810   26.7680   31.9000 H   0  0  0  0  0  0  0  0  0  0  0  0
   38.5000   22.9250   34.9300 C   0  0  0  0  0  0  0  0  0  0  0  0
   37.4300   22.7350   34.9320 H   0  0  0  0  0  0  0  0  0  0  0  0
   39.0280   22.2870   34.1890 H   0  0  0  0  0  0  0  0  0  0  0  0
   38.4770   23.2540   37.4300 C   0  0  0  0  0  0  0  0  0  0  0  0
   37.5310   24.0670   37.4390 O   0  0  0  0  0  0  0  0  0  0  0  0
   39.0320   22.6130   36.2670 N   0  0  0  0  0  0  0  0  0  0  0  0
   39.8100   21.9000   36.1500 H   0  0  0  0  0  0  0  0  0  0  0  0
   41.6500   22.0680   37.3430 H   0  0  0  0  0  0  0  0  0  0  0  0
   40.6410   22.3530   37.6580 C   0  0  0  0  0  0  0  0  0  0  0  0
   40.8870   22.6370   36.4430 O   0  0  0  0  0  0  0  0  0  0  0  0
   39.3430   22.6360   38.3370 N   0  0  0  0  0  0  0  0  0  0  0  0
   39.9740   22.1880   38.9940 H   0  0  0  0  0  0  0  0  0  0  0  0
  1  2  2  0  0  0  0
  1  6  1  0  0  0  0
  2  3  1  0  0  0  0
  3  8  1  0  0  0  0
  3  4  2  0  0  0  0
  5 17  1  0  0  0  0
  5  4  1  0  0  0  0
  6  5  2  0  0  0  0
  7  2  1  0  0  0  0
  9  1  1  0  0  0  0
  9 12  1  0  0  0  0
 10  9  1  0  0  0  0
 11 10  1  0  0  0  0
 11  9  1  0  0  0  0
 13 10  1  0  0  0  0
 14 10  1  0  0  0  0
 15 11  1  0  0  0  0
 16 11  1  0  0  0  0
 17 18  1  0  0  0  0
 17 22  1  0  0  0  0
 19 17  1  0  0  0  0
 20 21  2  0  0  0  0
 20 27  1  0  0  0  0
 22 20  1  0  0  0  0
 23 22  1  0  0  0  0
 24 25  1  0  0  0  0
 25 27  1  0  0  0  0
 26 25  2  0  0  0  0
 27 28  1  0  0  0  0
M  END
>  <minimizedAffinity>
-4.44250727

$$$$
