
 OpenBabel03272503253D

 28 29  0  0  1  0  0  0  0  0999 V2000
   37.7230   31.1990   48.1280 N   0  0  0  0  0  0  0  0  0  0  0  0
   38.1390   31.7930   46.8730 C   0  0  1  0  0  0  0  0  0  0  0  0
   38.8560   33.0460   47.3690 C   0  0  0  0  0  0  0  0  0  0  0  0
   38.5670   33.1410   48.8620 C   0  0  0  0  0  0  0  0  0  0  0  0
   38.5800   31.6540   49.2040 C   0  0  0  0  0  0  0  0  0  0  0  0
   37.2780   32.1340   46.2880 H   0  0  0  0  0  0  0  0  0  0  0  0
   39.9510   32.8540   47.2820 H   0  0  0  0  0  0  0  0  0  0  0  0
   38.5520   33.9460   46.8220 H   0  0  0  0  0  0  0  0  0  0  0  0
   39.3310   33.6990   49.3990 H   0  0  0  0  0  0  0  0  0  0  0  0
   37.5210   33.4970   49.0310 H   0  0  0  0  0  0  0  0  0  0  0  0
   38.1180   31.5500   50.1850 H   0  0  0  0  0  0  0  0  0  0  0  0
   39.6060   31.2790   49.1040 H   0  0  0  0  0  0  0  0  0  0  0  0
   36.6250   30.3040   48.2670 C   0  0  0  0  0  0  0  0  0  0  0  0
   35.5800   30.3860   47.3330 C   0  0  0  0  0  0  0  0  0  0  0  0
   34.4910   29.5140   47.4630 C   0  0  0  0  0  0  0  0  0  0  0  0
   34.5180   28.6240   48.5050 N   0  0  0  0  0  0  0  0  0  0  0  0
   35.5360   28.5750   49.3760 C   0  0  0  0  0  0  0  0  0  0  0  0
   36.5990   29.4130   49.2670 N   0  0  0  0  0  0  0  0  0  0  0  0
   35.5550   31.0870   46.5110 H   0  0  0  0  0  0  0  0  0  0  0  0
   33.6790   29.5690   46.7490 H   0  0  0  0  0  0  0  0  0  0  0  0
   35.4530   27.8340   50.1590 H   0  0  0  0  0  0  0  0  0  0  0  0
   39.0290   30.9430   46.0830 C   0  0  0  0  0  0  0  0  0  0  0  0
   40.1950   30.8320   46.3770 O   0  0  0  0  0  0  0  0  0  0  0  0
   37.3680   29.6730   43.2930 H   0  0  0  0  0  0  0  0  0  0  0  0
   37.5200   30.3100   44.1540 C   0  0  0  0  0  0  0  0  0  0  0  0
   36.6960   31.2040   44.5440 O   0  0  0  0  0  0  0  0  0  0  0  0
   38.7020   30.1760   44.9320 N   0  0  0  0  0  0  0  0  0  0  0  0
   39.3830   29.4650   44.6420 H   0  0  0  0  0  0  0  0  0  0  0  0
  1 13  1  0  0  0  0
  1  5  1  0  0  0  0
  2  6  1  6  0  0  0
  2  3  1  0  0  0  0
  2  1  1  0  0  0  0
  3  4  1  0  0  0  0
  4 10  1  0  0  0  0
  4  5  1  0  0  0  0
  4  9  1  0  0  0  0
  5 11  1  0  0  0  0
  7  3  1  0  0  0  0
  8  3  1  0  0  0  0
 12  5  1  0  0  0  0
 13 18  1  0  0  0  0
 14 15  1  0  0  0  0
 14 13  2  0  0  0  0
 15 16  2  0  0  0  0
 16 17  1  0  0  0  0
 17 21  1  0  0  0  0
 18 17  2  0  0  0  0
 19 14  1  0  0  0  0
 20 15  1  0  0  0  0
 22 23  2  0  0  0  0
 22  2  1  0  0  0  0
 24 25  1  0  0  0  0
 25 26  2  0  0  0  0
 25 27  1  0  0  0  0
 27 22  1  0  0  0  0
 28 27  1  0  0  0  0
M  END
>  <minimizedAffinity>
-4.38373566

>  <minimizedRMSD>
2.3702569

$$$$
