
 OpenBabel03272503253D

 28 29  0  0  1  0  0  0  0  0999 V2000
   36.5470   29.8610   49.3660 N   0  0  0  0  0  0  0  0  0  0  0  0
   37.1480   31.1730   49.2320 C   0  0  1  0  0  0  0  0  0  0  0  0
   37.8220   31.3230   50.5940 C   0  0  0  0  0  0  0  0  0  0  0  0
   37.3320   30.1570   51.4440 C   0  0  0  0  0  0  0  0  0  0  0  0
   37.2580   29.0840   50.3610 C   0  0  0  0  0  0  0  0  0  0  0  0
   36.3850   31.9570   49.1710 H   0  0  0  0  0  0  0  0  0  0  0  0
   38.9130   31.1510   50.4410 H   0  0  0  0  0  0  0  0  0  0  0  0
   37.6200   32.2960   51.0560 H   0  0  0  0  0  0  0  0  0  0  0  0
   38.0280   29.9000   52.2380 H   0  0  0  0  0  0  0  0  0  0  0  0
   36.2820   30.3400   51.7820 H   0  0  0  0  0  0  0  0  0  0  0  0
   36.6620   28.2670   50.7640 H   0  0  0  0  0  0  0  0  0  0  0  0
   38.2780   28.8360   50.0420 H   0  0  0  0  0  0  0  0  0  0  0  0
   35.4170   29.4170   48.6220 C   0  0  0  0  0  0  0  0  0  0  0  0
   34.8440   30.3010   47.6940 C   0  0  0  0  0  0  0  0  0  0  0  0
   33.7280   29.8770   46.9600 C   0  0  0  0  0  0  0  0  0  0  0  0
   33.2630   28.6100   47.1980 N   0  0  0  0  0  0  0  0  0  0  0  0
   33.8370   27.7940   48.0930 C   0  0  0  0  0  0  0  0  0  0  0  0
   34.9190   28.1880   48.8150 N   0  0  0  0  0  0  0  0  0  0  0  0
   35.2080   31.3000   47.5040 H   0  0  0  0  0  0  0  0  0  0  0  0
   33.2790   30.5500   46.2420 H   0  0  0  0  0  0  0  0  0  0  0  0
   33.3880   26.8180   48.2000 H   0  0  0  0  0  0  0  0  0  0  0  0
   38.1160   31.2720   48.1410 C   0  0  0  0  0  0  0  0  0  0  0  0
   38.9630   32.1320   48.1460 O   0  0  0  0  0  0  0  0  0  0  0  0
   38.7180   30.1470   44.8950 H   0  0  0  0  0  0  0  0  0  0  0  0
   38.6880   30.8570   45.7110 C   0  0  0  0  0  0  0  0  0  0  0  0
   39.0570   32.0760   45.6210 O   0  0  0  0  0  0  0  0  0  0  0  0
   38.2100   30.4480   46.9870 N   0  0  0  0  0  0  0  0  0  0  0  0
   37.9060   29.4730   47.0900 H   0  0  0  0  0  0  0  0  0  0  0  0
  1  5  1  0  0  0  0
  2  6  1  6  0  0  0
  2  1  1  0  0  0  0
  2  3  1  0  0  0  0
  3  8  1  0  0  0  0
  3  4  1  0  0  0  0
  4 10  1  0  0  0  0
  4  9  1  0  0  0  0
  5 11  1  0  0  0  0
  5  4  1  0  0  0  0
  7  3  1  0  0  0  0
 12  5  1  0  0  0  0
 13 18  1  0  0  0  0
 13  1  1  0  0  0  0
 14 13  2  0  0  0  0
 15 16  2  0  0  0  0
 15 14  1  0  0  0  0
 16 17  1  0  0  0  0
 17 21  1  0  0  0  0
 17 18  2  0  0  0  0
 19 14  1  0  0  0  0
 20 15  1  0  0  0  0
 22 23  2  0  0  0  0
 22  2  1  0  0  0  0
 24 25  1  0  0  0  0
 25 27  1  0  0  0  0
 26 25  2  0  0  0  0
 27 28  1  0  0  0  0
 27 22  1  0  0  0  0
M  END
>  <minimizedAffinity>
-4.91956186

>  <minimizedRMSD>
0.647009075

$$$$
