
 OpenBabel03262523303D

 29 31  0  0  0  0  0  0  0  0999 V2000
   37.3780   30.2720   50.9570 C   0  0  0  0  0  0  0  0  0  0  0  0
   38.1140   30.8060   49.9130 C   0  0  0  0  0  0  0  0  0  0  0  0
   37.6470   30.6380   48.6040 C   0  0  0  0  0  0  0  0  0  0  0  0
   36.4760   29.9490   48.4020 N   0  0  0  0  0  0  0  0  0  0  0  0
   35.7880   29.4430   49.4550 C   0  0  0  0  0  0  0  0  0  0  0  0
   36.2340   29.6040   50.7130 N   0  0  0  0  0  0  0  0  0  0  0  0
   37.7410   30.4050   51.9530 H   0  0  0  0  0  0  0  0  0  0  0  0
   39.0350   31.3470   50.0700 H   0  0  0  0  0  0  0  0  0  0  0  0
   38.5310   30.2540   46.3810 C   0  0  0  0  0  0  0  0  0  0  0  0
   38.3340   31.1530   47.4350 C   0  0  0  0  0  0  0  0  0  0  0  0
   38.7850   32.4580   47.3330 C   0  0  0  0  0  0  0  0  0  0  0  0
   39.4270   32.8420   46.1740 C   0  0  0  0  0  0  0  0  0  0  0  0
   39.9480   34.0390   45.8390 N   0  0  0  0  0  0  0  0  0  0  0  0
   40.4670   33.9120   44.6010 C   0  0  0  0  0  0  0  0  0  0  0  0
   40.2870   32.6720   44.1460 N   0  0  0  0  0  0  0  0  0  0  0  0
   39.6380   31.9740   45.1060 C   0  0  0  0  0  0  0  0  0  0  0  0
   39.1810   30.6660   45.2230 C   0  0  0  0  0  0  0  0  0  0  0  0
   38.2050   29.2200   46.3930 H   0  0  0  0  0  0  0  0  0  0  0  0
   38.6330   33.1440   48.1410 H   0  0  0  0  0  0  0  0  0  0  0  0
   39.9920   34.9390   46.3600 H   0  0  0  0  0  0  0  0  0  0  0  0
   40.9750   34.6470   43.9780 H   0  0  0  0  0  0  0  0  0  0  0  0
   39.3420   29.9730   44.3890 H   0  0  0  0  0  0  0  0  0  0  0  0
   34.5540   28.7250   49.1660 C   0  0  0  0  0  0  0  0  0  0  0  0
   34.4070   27.5250   49.4900 O   0  0  0  0  0  0  0  0  0  0  0  0
   32.3320   29.3790   46.5770 H   0  0  0  0  0  0  0  0  0  0  0  0
   33.0780   28.9860   47.2320 C   0  0  0  0  0  0  0  0  0  0  0  0
   33.5680   27.9390   46.6890 O   0  0  0  0  0  0  0  0  0  0  0  0
   33.5280   29.4550   48.4980 N   0  0  0  0  0  0  0  0  0  0  0  0
   33.0460   30.3200   48.8300 H   0  0  0  0  0  0  0  0  0  0  0  0
  1  7  1  0  0  0  0
  2  8  1  0  0  0  0
  2  1  2  0  0  0  0
  3  2  1  0  0  0  0
  4  3  2  0  0  0  0
  4  5  1  0  0  0  0
  5  6  2  0  0  0  0
  6  1  1  0  0  0  0
  9 18  1  0  0  0  0
  9 10  1  0  0  0  0
 10  3  1  0  0  0  0
 11 10  2  0  0  0  0
 11 19  1  0  0  0  0
 12 11  1  0  0  0  0
 13 12  1  0  0  0  0
 13 20  1  0  0  0  0
 14 13  1  0  0  0  0
 15 14  2  0  0  0  0
 15 16  1  0  0  0  0
 16 17  1  0  0  0  0
 16 12  2  0  0  0  0
 17  9  2  0  0  0  0
 21 14  1  0  0  0  0
 22 17  1  0  0  0  0
 23  5  1  0  0  0  0
 23 24  2  0  0  0  0
 25 26  1  0  0  0  0
 26 28  1  0  0  0  0
 27 26  2  0  0  0  0
 28 29  1  0  0  0  0
 28 23  1  0  0  0  0
M  END
>  <minimizedAffinity>
-5.9137125

>  <minimizedRMSD>
1.42222393

$$$$
