
 OpenBabel03272500543D

 28 29  0  0  0  0  0  0  0  0999 V2000
   38.5000   31.1550   46.5010 C   0  0  0  0  0  0  0  0  0  0  0  0
   39.0540   30.3720   45.5040 C   0  0  0  0  0  0  0  0  0  0  0  0
   40.0900   30.8240   44.6920 C   0  0  0  0  0  0  0  0  0  0  0  0
   40.5860   32.1420   44.9030 C   0  0  0  0  0  0  0  0  0  0  0  0
   40.0080   32.8780   45.8950 C   0  0  0  0  0  0  0  0  0  0  0  0
   38.9990   32.4180   46.6830 C   0  0  0  0  0  0  0  0  0  0  0  0
   38.6760   29.3740   45.3420 H   0  0  0  0  0  0  0  0  0  0  0  0
   40.4550   30.1360   43.9470 H   0  0  0  0  0  0  0  0  0  0  0  0
   41.3750   32.3440   44.2070 H   0  0  0  0  0  0  0  0  0  0  0  0
   40.5020   33.8240   45.8320 H   0  0  0  0  0  0  0  0  0  0  0  0
   37.6960   30.0910   48.5380 C   0  0  0  0  0  0  0  0  0  0  0  0
   37.3940   30.5450   47.2290 C   0  0  0  0  0  0  0  0  0  0  0  0
   36.0820   30.3480   46.7740 C   0  0  0  0  0  0  0  0  0  0  0  0
   35.1920   29.7510   47.5820 N   0  0  0  0  0  0  0  0  0  0  0  0
   35.4960   29.3270   48.8210 C   0  0  0  0  0  0  0  0  0  0  0  0
   36.7500   29.5000   49.2940 N   0  0  0  0  0  0  0  0  0  0  0  0
   38.6540   30.1650   49.0410 H   0  0  0  0  0  0  0  0  0  0  0  0
   35.9120   30.7110   45.7760 H   0  0  0  0  0  0  0  0  0  0  0  0
   34.6390   28.8790   49.2960 H   0  0  0  0  0  0  0  0  0  0  0  0
   39.4400   34.0640   48.3050 C   0  0  0  0  0  0  0  0  0  0  0  0
   40.6050   34.0530   47.8770 O   0  0  0  0  0  0  0  0  0  0  0  0
   38.4340   33.1810   47.7220 N   0  0  0  0  0  0  0  0  0  0  0  0
   37.4190   33.0550   47.9580 H   0  0  0  0  0  0  0  0  0  0  0  0
   39.7150   34.9010   51.5660 H   0  0  0  0  0  0  0  0  0  0  0  0
   39.3180   34.7580   50.5490 C   0  0  0  0  0  0  0  0  0  0  0  0
   40.5290   34.3260   50.6440 O   0  0  0  0  0  0  0  0  0  0  0  0
   38.5690   34.6680   49.2600 N   0  0  0  0  0  0  0  0  0  0  0  0
   38.0140   35.0550   49.8730 H   0  0  0  0  0  0  0  0  0  0  0  0
  1  6  1  0  0  0  0
  1 12  1  0  0  0  0
  2  1  2  0  0  0  0
  3  4  2  0  0  0  0
  3  2  1  0  0  0  0
  4  5  1  0  0  0  0
  5  6  2  0  0  0  0
  6 22  1  0  0  0  0
  7  2  1  0  0  0  0
  8  3  1  0  0  0  0
  9  4  1  0  0  0  0
 10  5  1  0  0  0  0
 11 17  1  0  0  0  0
 11 16  1  0  0  0  0
 12 11  2  0  0  0  0
 13 12  1  0  0  0  0
 13 14  2  0  0  0  0
 14 15  1  0  0  0  0
 15 16  2  0  0  0  0
 15 19  1  0  0  0  0
 18 13  1  0  0  0  0
 20 27  1  0  0  0  0
 21 20  2  0  0  0  0
 22 23  1  0  0  0  0
 22 20  1  0  0  0  0
 25 26  2  0  0  0  0
 25 24  1  0  0  0  0
 27 28  1  0  0  0  0
 27 25  1  0  0  0  0
M  END
>  <minimizedAffinity>
-3.21435165

>  <minimizedRMSD>
1.46520221

$$$$
