
 OpenBabel03272500553D

 28 29  0  0  0  0  0  0  0  0999 V2000
   37.7100   30.7670   46.4470 C   0  0  0  0  0  0  0  0  0  0  0  0
   38.0900   29.8670   45.4690 C   0  0  0  0  0  0  0  0  0  0  0  0
   38.8970   30.2310   44.3950 C   0  0  0  0  0  0  0  0  0  0  0  0
   39.3380   31.5820   44.3100 C   0  0  0  0  0  0  0  0  0  0  0  0
   38.9380   32.4350   45.2960 C   0  0  0  0  0  0  0  0  0  0  0  0
   38.1520   32.0610   46.3420 C   0  0  0  0  0  0  0  0  0  0  0  0
   37.7530   28.8430   45.5310 H   0  0  0  0  0  0  0  0  0  0  0  0
   39.1390   29.4530   43.6880 H   0  0  0  0  0  0  0  0  0  0  0  0
   39.9450   31.7070   43.4370 H   0  0  0  0  0  0  0  0  0  0  0  0
   39.3420   33.3770   44.9980 H   0  0  0  0  0  0  0  0  0  0  0  0
   37.4550   29.8690   48.6960 C   0  0  0  0  0  0  0  0  0  0  0  0
   36.8280   30.2320   47.4780 C   0  0  0  0  0  0  0  0  0  0  0  0
   35.4430   30.0280   47.3890 C   0  0  0  0  0  0  0  0  0  0  0  0
   34.7910   29.5080   48.4400 N   0  0  0  0  0  0  0  0  0  0  0  0
   35.4020   29.1690   49.5880 C   0  0  0  0  0  0  0  0  0  0  0  0
   36.7350   29.3520   49.7110 N   0  0  0  0  0  0  0  0  0  0  0  0
   38.5100   29.9610   48.9300 H   0  0  0  0  0  0  0  0  0  0  0  0
   35.0230   30.3200   46.4430 H   0  0  0  0  0  0  0  0  0  0  0  0
   34.6950   28.7730   50.2980 H   0  0  0  0  0  0  0  0  0  0  0  0
   38.9540   33.4680   48.0480 C   0  0  0  0  0  0  0  0  0  0  0  0
   40.0880   33.1020   47.7000 O   0  0  0  0  0  0  0  0  0  0  0  0
   37.7720   32.9470   47.3670 N   0  0  0  0  0  0  0  0  0  0  0  0
   36.7530   33.1380   47.5290 H   0  0  0  0  0  0  0  0  0  0  0  0
   39.5640   34.6310   51.1610 H   0  0  0  0  0  0  0  0  0  0  0  0
   39.0820   34.4290   50.1910 C   0  0  0  0  0  0  0  0  0  0  0  0
   40.2260   33.8410   50.2770 O   0  0  0  0  0  0  0  0  0  0  0  0
   38.2420   34.2990   48.9630 N   0  0  0  0  0  0  0  0  0  0  0  0
   37.7890   34.8310   49.5490 H   0  0  0  0  0  0  0  0  0  0  0  0
  1 12  1  0  0  0  0
  2  7  1  0  0  0  0
  2  1  2  0  0  0  0
  3  2  1  0  0  0  0
  4  3  2  0  0  0  0
  4  5  1  0  0  0  0
  5  6  2  0  0  0  0
  6  1  1  0  0  0  0
  6 22  1  0  0  0  0
  8  3  1  0  0  0  0
  9  4  1  0  0  0  0
 10  5  1  0  0  0  0
 11 17  1  0  0  0  0
 11 16  1  0  0  0  0
 12 11  2  0  0  0  0
 13 12  1  0  0  0  0
 13 14  2  0  0  0  0
 14 15  1  0  0  0  0
 15 16  2  0  0  0  0
 15 19  1  0  0  0  0
 18 13  1  0  0  0  0
 20 27  1  0  0  0  0
 21 20  2  0  0  0  0
 22 23  1  0  0  0  0
 22 20  1  0  0  0  0
 25 26  2  0  0  0  0
 25 24  1  0  0  0  0
 27 28  1  0  0  0  0
 27 25  1  0  0  0  0
M  END
>  <minimizedAffinity>
-2.38449717

>  <minimizedRMSD>
1.56224287

$$$$
