
 OpenBabel03272503253D

 28 29  0  0  1  0  0  0  0  0999 V2000
   37.2620   30.7260   48.5240 N   0  0  0  0  0  0  0  0  0  0  0  0
   37.6620   31.6550   47.4850 C   0  0  1  0  0  0  0  0  0  0  0  0
   38.5470   32.6120   48.2770 C   0  0  0  0  0  0  0  0  0  0  0  0
   38.3680   32.2460   49.7460 C   0  0  0  0  0  0  0  0  0  0  0  0
   38.2320   30.7320   49.6000 C   0  0  0  0  0  0  0  0  0  0  0  0
   36.8090   32.2400   47.1240 H   0  0  0  0  0  0  0  0  0  0  0  0
   39.6050   32.3630   48.0290 H   0  0  0  0  0  0  0  0  0  0  0  0
   38.3140   33.6640   48.0740 H   0  0  0  0  0  0  0  0  0  0  0  0
   39.2230   32.5310   50.3530 H   0  0  0  0  0  0  0  0  0  0  0  0
   37.3820   32.6180   50.1190 H   0  0  0  0  0  0  0  0  0  0  0  0
   37.8260   30.3590   50.5380 H   0  0  0  0  0  0  0  0  0  0  0  0
   39.2000   30.3210   49.2880 H   0  0  0  0  0  0  0  0  0  0  0  0
   36.0800   29.9340   48.4810 C   0  0  0  0  0  0  0  0  0  0  0  0
   35.1100   30.2410   47.5120 C   0  0  0  0  0  0  0  0  0  0  0  0
   33.9400   29.4720   47.4640 C   0  0  0  0  0  0  0  0  0  0  0  0
   33.8170   28.4560   48.3750 N   0  0  0  0  0  0  0  0  0  0  0  0
   34.7650   28.1930   49.2850 C   0  0  0  0  0  0  0  0  0  0  0  0
   35.9060   28.9290   49.3480 N   0  0  0  0  0  0  0  0  0  0  0  0
   35.2050   31.0410   46.7930 H   0  0  0  0  0  0  0  0  0  0  0  0
   33.1870   29.7000   46.7210 H   0  0  0  0  0  0  0  0  0  0  0  0
   34.5630   27.3690   49.9550 H   0  0  0  0  0  0  0  0  0  0  0  0
   38.3960   31.0310   46.3850 C   0  0  0  0  0  0  0  0  0  0  0  0
   39.6000   30.9490   46.4170 O   0  0  0  0  0  0  0  0  0  0  0  0
   36.9690   30.6720   43.2230 H   0  0  0  0  0  0  0  0  0  0  0  0
   37.3540   31.2010   44.0860 C   0  0  0  0  0  0  0  0  0  0  0  0
   37.3900   32.4730   44.1960 O   0  0  0  0  0  0  0  0  0  0  0  0
   37.8620   30.4690   45.1930 N   0  0  0  0  0  0  0  0  0  0  0  0
   37.8460   29.4440   45.1330 H   0  0  0  0  0  0  0  0  0  0  0  0
  1  5  1  0  0  0  0
  2  6  1  6  0  0  0
  2  3  1  0  0  0  0
  2  1  1  0  0  0  0
  3  4  1  0  0  0  0
  4 10  1  0  0  0  0
  4  9  1  0  0  0  0
  5  4  1  0  0  0  0
  5 11  1  0  0  0  0
  7  3  1  0  0  0  0
  8  3  1  0  0  0  0
 12  5  1  0  0  0  0
 13  1  1  0  0  0  0
 13 18  1  0  0  0  0
 14 13  2  0  0  0  0
 15 14  1  0  0  0  0
 15 16  2  0  0  0  0
 16 17  1  0  0  0  0
 17 18  2  0  0  0  0
 17 21  1  0  0  0  0
 19 14  1  0  0  0  0
 20 15  1  0  0  0  0
 22 23  2  0  0  0  0
 22  2  1  0  0  0  0
 24 25  1  0  0  0  0
 25 26  2  0  0  0  0
 25 27  1  0  0  0  0
 27 22  1  0  0  0  0
 28 27  1  0  0  0  0
M  END
>  <minimizedAffinity>
-4.87000561

>  <minimizedRMSD>
1.63332927

$$$$
