
 OpenBabel03262523313D

 29 31  0  0  0  0  0  0  0  0999 V2000
   38.2300   24.0010   38.5230 C   0  0  0  0  0  0  0  0  0  0  0  0
   37.7530   24.8430   37.5320 C   0  0  0  0  0  0  0  0  0  0  0  0
   38.2730   24.7220   36.2370 C   0  0  0  0  0  0  0  0  0  0  0  0
   39.2370   23.7730   35.9970 N   0  0  0  0  0  0  0  0  0  0  0  0
   39.6740   22.9710   36.9980 C   0  0  0  0  0  0  0  0  0  0  0  0
   39.1760   23.0850   38.2420 N   0  0  0  0  0  0  0  0  0  0  0  0
   37.8270   24.1010   39.5080 H   0  0  0  0  0  0  0  0  0  0  0  0
   36.9960   25.5890   37.7190 H   0  0  0  0  0  0  0  0  0  0  0  0
   37.5320   26.8790   35.4190 C   0  0  0  0  0  0  0  0  0  0  0  0
   37.8490   25.5480   35.1230 C   0  0  0  0  0  0  0  0  0  0  0  0
   37.7520   25.0800   33.8240 C   0  0  0  0  0  0  0  0  0  0  0  0
   37.3380   25.9540   32.8400 C   0  0  0  0  0  0  0  0  0  0  0  0
   37.1670   25.7400   31.5210 N   0  0  0  0  0  0  0  0  0  0  0  0
   36.7510   26.9040   30.9820 C   0  0  0  0  0  0  0  0  0  0  0  0
   36.6560   27.8440   31.9230 N   0  0  0  0  0  0  0  0  0  0  0  0
   37.0160   27.2830   33.0990 C   0  0  0  0  0  0  0  0  0  0  0  0
   37.1180   27.7390   34.4090 C   0  0  0  0  0  0  0  0  0  0  0  0
   37.5850   27.3110   36.4110 H   0  0  0  0  0  0  0  0  0  0  0  0
   37.9950   24.0610   33.5990 H   0  0  0  0  0  0  0  0  0  0  0  0
   37.3030   24.8860   30.9390 H   0  0  0  0  0  0  0  0  0  0  0  0
   36.5050   27.1480   29.9490 H   0  0  0  0  0  0  0  0  0  0  0  0
   36.8670   28.7840   34.6260 H   0  0  0  0  0  0  0  0  0  0  0  0
   40.6970   21.9870   36.6700 C   0  0  0  0  0  0  0  0  0  0  0  0
   41.0970   21.8310   35.4940 O   0  0  0  0  0  0  0  0  0  0  0  0
   42.9720   19.8610   38.2100 H   0  0  0  0  0  0  0  0  0  0  0  0
   42.4230   20.4890   37.5440 C   0  0  0  0  0  0  0  0  0  0  0  0
   43.0390   20.5120   36.4250 O   0  0  0  0  0  0  0  0  0  0  0  0
   41.2160   21.2160   37.7500 N   0  0  0  0  0  0  0  0  0  0  0  0
   40.8140   21.1130   38.7080 H   0  0  0  0  0  0  0  0  0  0  0  0
  1  7  1  0  0  0  0
  2  8  1  0  0  0  0
  2  1  2  0  0  0  0
  3  2  1  0  0  0  0
  4  3  2  0  0  0  0
  4  5  1  0  0  0  0
  5  6  2  0  0  0  0
  6  1  1  0  0  0  0
  9 18  1  0  0  0  0
 10  9  1  0  0  0  0
 10  3  1  0  0  0  0
 11 10  2  0  0  0  0
 12 16  2  0  0  0  0
 12 11  1  0  0  0  0
 13 12  1  0  0  0  0
 14 13  1  0  0  0  0
 14 15  2  0  0  0  0
 15 16  1  0  0  0  0
 16 17  1  0  0  0  0
 17 22  1  0  0  0  0
 17  9  2  0  0  0  0
 19 11  1  0  0  0  0
 20 13  1  0  0  0  0
 21 14  1  0  0  0  0
 23  5  1  0  0  0  0
 23 28  1  0  0  0  0
 24 23  2  0  0  0  0
 26 28  1  0  0  0  0
 26 25  1  0  0  0  0
 27 26  2  0  0  0  0
 28 29  1  0  0  0  0
M  END
>  <minimizedAffinity>
-5.65049505

$$$$

 OpenBabel03262523313D

 29 31  0  0  0  0  0  0  0  0999 V2000
   35.6860   23.4970   31.2180 C   0  0  0  0  0  0  0  0  0  0  0  0
   36.6400   23.1170   32.1470 C   0  0  0  0  0  0  0  0  0  0  0  0
   37.3960   24.1090   32.7820 C   0  0  0  0  0  0  0  0  0  0  0  0
   37.1660   25.4240   32.4600 N   0  0  0  0  0  0  0  0  0  0  0  0
   36.2210   25.7510   31.5440 C   0  0  0  0  0  0  0  0  0  0  0  0
   35.4930   24.7990   30.9330 N   0  0  0  0  0  0  0  0  0  0  0  0
   35.1130   22.7330   30.7390 H   0  0  0  0  0  0  0  0  0  0  0  0
   36.8220   22.0830   32.4010 H   0  0  0  0  0  0  0  0  0  0  0  0
   39.6790   24.3960   33.5420 C   0  0  0  0  0  0  0  0  0  0  0  0
   38.4200   23.8280   33.7690 C   0  0  0  0  0  0  0  0  0  0  0  0
   38.2010   23.0430   34.8890 C   0  0  0  0  0  0  0  0  0  0  0  0
   39.2480   22.8410   35.7640 C   0  0  0  0  0  0  0  0  0  0  0  0
   39.2840   22.1280   36.9070 N   0  0  0  0  0  0  0  0  0  0  0  0
   40.5330   22.2360   37.4020 C   0  0  0  0  0  0  0  0  0  0  0  0
   41.2850   22.9970   36.6050 N   0  0  0  0  0  0  0  0  0  0  0  0
   40.5110   23.3920   35.5690 C   0  0  0  0  0  0  0  0  0  0  0  0
   40.7170   24.1780   34.4400 C   0  0  0  0  0  0  0  0  0  0  0  0
   39.9200   25.0190   32.6890 H   0  0  0  0  0  0  0  0  0  0  0  0
   37.2380   22.6090   35.0610 H   0  0  0  0  0  0  0  0  0  0  0  0
   38.5500   21.5720   37.3940 H   0  0  0  0  0  0  0  0  0  0  0  0
   40.9670   21.8100   38.3060 H   0  0  0  0  0  0  0  0  0  0  0  0
   41.7080   24.6180   34.2740 H   0  0  0  0  0  0  0  0  0  0  0  0
   36.0310   27.1650   31.2530 C   0  0  0  0  0  0  0  0  0  0  0  0
   35.3970   27.9110   32.0340 O   0  0  0  0  0  0  0  0  0  0  0  0
   37.1180   29.6270   29.0560 H   0  0  0  0  0  0  0  0  0  0  0  0
   36.7260   29.0630   29.8730 C   0  0  0  0  0  0  0  0  0  0  0  0
   36.3410   29.8850   30.7720 O   0  0  0  0  0  0  0  0  0  0  0  0
   36.6010   27.6540   30.0420 N   0  0  0  0  0  0  0  0  0  0  0  0
   36.9520   27.0940   29.2340 H   0  0  0  0  0  0  0  0  0  0  0  0
  1  2  1  0  0  0  0
  2  8  1  0  0  0  0
  2  3  2  0  0  0  0
  3 10  1  0  0  0  0
  4  3  1  0  0  0  0
  5  4  2  0  0  0  0
  6  1  2  0  0  0  0
  6  5  1  0  0  0  0
  7  1  1  0  0  0  0
  9 10  2  0  0  0  0
  9 17  1  0  0  0  0
 10 11  1  0  0  0  0
 11 19  1  0  0  0  0
 11 12  2  0  0  0  0
 12 13  1  0  0  0  0
 13 20  1  0  0  0  0
 13 14  1  0  0  0  0
 14 21  1  0  0  0  0
 15 14  2  0  0  0  0
 16 12  1  0  0  0  0
 16 15  1  0  0  0  0
 17 16  2  0  0  0  0
 18  9  1  0  0  0  0
 22 17  1  0  0  0  0
 23  5  1  0  0  0  0
 23 24  2  0  0  0  0
 25 26  1  0  0  0  0
 26 28  1  0  0  0  0
 26 27  2  0  0  0  0
 28 23  1  0  0  0  0
 29 28  1  0  0  0  0
M  END
>  <minimizedAffinity>
-5.32203436

$$$$

 OpenBabel03262523313D

 29 31  0  0  0  0  0  0  0  0999 V2000
   36.5650   29.0620   31.7750 C   0  0  0  0  0  0  0  0  0  0  0  0
   37.0800   27.8600   32.2310 C   0  0  0  0  0  0  0  0  0  0  0  0
   36.8770   27.5050   33.5700 C   0  0  0  0  0  0  0  0  0  0  0  0
   36.1750   28.3620   34.3830 N   0  0  0  0  0  0  0  0  0  0  0  0
   35.6890   29.5280   33.8930 C   0  0  0  0  0  0  0  0  0  0  0  0
   35.8830   29.8710   32.6070 N   0  0  0  0  0  0  0  0  0  0  0  0
   36.7240   29.3250   30.7510 H   0  0  0  0  0  0  0  0  0  0  0  0
   37.6320   27.1870   31.5930 H   0  0  0  0  0  0  0  0  0  0  0  0
   37.6940   25.2450   33.2630 C   0  0  0  0  0  0  0  0  0  0  0  0
   37.3700   26.2730   34.1560 C   0  0  0  0  0  0  0  0  0  0  0  0
   37.5240   26.0890   35.5190 C   0  0  0  0  0  0  0  0  0  0  0  0
   38.0020   24.8750   35.9680 C   0  0  0  0  0  0  0  0  0  0  0  0
   38.2360   24.4590   37.2270 N   0  0  0  0  0  0  0  0  0  0  0  0
   38.6990   23.1950   37.1470 C   0  0  0  0  0  0  0  0  0  0  0  0
   38.7650   22.8040   35.8740 N   0  0  0  0  0  0  0  0  0  0  0  0
   38.3350   23.8320   35.1080 C   0  0  0  0  0  0  0  0  0  0  0  0
   38.1750   24.0310   33.7410 C   0  0  0  0  0  0  0  0  0  0  0  0
   37.5980   25.3200   32.1870 H   0  0  0  0  0  0  0  0  0  0  0  0
   37.2750   26.8770   36.2000 H   0  0  0  0  0  0  0  0  0  0  0  0
   38.1160   24.9400   38.1440 H   0  0  0  0  0  0  0  0  0  0  0  0
   39.0040   22.5110   37.9380 H   0  0  0  0  0  0  0  0  0  0  0  0
   38.4330   23.2170   33.0530 H   0  0  0  0  0  0  0  0  0  0  0  0
   34.9540   30.3860   34.8120 C   0  0  0  0  0  0  0  0  0  0  0  0
   33.7110   30.2990   34.9310 O   0  0  0  0  0  0  0  0  0  0  0  0
   35.4980   32.6630   37.3780 H   0  0  0  0  0  0  0  0  0  0  0  0
   35.1080   31.9450   36.6920 C   0  0  0  0  0  0  0  0  0  0  0  0
   33.9050   31.6840   37.0350 O   0  0  0  0  0  0  0  0  0  0  0  0
   35.7180   31.3240   35.5650 N   0  0  0  0  0  0  0  0  0  0  0  0
   36.7030   31.6240   35.3930 H   0  0  0  0  0  0  0  0  0  0  0  0
  1  2  2  0  0  0  0
  1  6  1  0  0  0  0
  2  3  1  0  0  0  0
  3 10  1  0  0  0  0
  3  4  2  0  0  0  0
  5  4  1  0  0  0  0
  5 23  1  0  0  0  0
  6  5  2  0  0  0  0
  7  1  1  0  0  0  0
  8  2  1  0  0  0  0
  9 17  2  0  0  0  0
  9 10  1  0  0  0  0
 10 11  2  0  0  0  0
 11 12  1  0  0  0  0
 11 19  1  0  0  0  0
 12 13  1  0  0  0  0
 13 20  1  0  0  0  0
 14 13  1  0  0  0  0
 14 21  1  0  0  0  0
 15 14  2  0  0  0  0
 16 15  1  0  0  0  0
 16 12  2  0  0  0  0
 17 16  1  0  0  0  0
 18  9  1  0  0  0  0
 22 17  1  0  0  0  0
 23 24  2  0  0  0  0
 23 28  1  0  0  0  0
 26 27  2  0  0  0  0
 26 25  1  0  0  0  0
 28 26  1  0  0  0  0
 29 28  1  0  0  0  0
M  END
>  <minimizedAffinity>
-5.26672363

$$$$

 OpenBabel03262523313D

 29 31  0  0  0  0  0  0  0  0999 V2000
   36.9500   28.4250   31.6680 C   0  0  0  0  0  0  0  0  0  0  0  0
   36.1590   29.3110   32.3780 C   0  0  0  0  0  0  0  0  0  0  0  0
   35.9320   29.0710   33.7390 C   0  0  0  0  0  0  0  0  0  0  0  0
   36.5020   27.9650   34.3190 N   0  0  0  0  0  0  0  0  0  0  0  0
   37.2700   27.1230   33.5850 C   0  0  0  0  0  0  0  0  0  0  0  0
   37.4900   27.3530   32.2780 N   0  0  0  0  0  0  0  0  0  0  0  0
   37.1190   28.6160   30.6300 H   0  0  0  0  0  0  0  0  0  0  0  0
   35.7100   30.1810   31.9230 H   0  0  0  0  0  0  0  0  0  0  0  0
   33.7340   29.8060   34.4450 C   0  0  0  0  0  0  0  0  0  0  0  0
   35.1220   29.9310   34.5800 C   0  0  0  0  0  0  0  0  0  0  0  0
   35.6570   30.8380   35.4790 C   0  0  0  0  0  0  0  0  0  0  0  0
   34.7920   31.6060   36.2300 C   0  0  0  0  0  0  0  0  0  0  0  0
   35.0640   32.5440   37.1590 N   0  0  0  0  0  0  0  0  0  0  0  0
   33.8820   33.0100   37.6100 C   0  0  0  0  0  0  0  0  0  0  0  0
   32.8740   32.3920   36.9930 N   0  0  0  0  0  0  0  0  0  0  0  0
   33.4070   31.5070   36.1220 C   0  0  0  0  0  0  0  0  0  0  0  0
   32.8840   30.5920   35.2150 C   0  0  0  0  0  0  0  0  0  0  0  0
   33.2480   29.1190   33.7630 H   0  0  0  0  0  0  0  0  0  0  0  0
   36.7190   30.9320   35.5800 H   0  0  0  0  0  0  0  0  0  0  0  0
   35.9700   32.9060   37.5240 H   0  0  0  0  0  0  0  0  0  0  0  0
   33.6710   33.7700   38.3600 H   0  0  0  0  0  0  0  0  0  0  0  0
   31.7950   30.5040   35.1200 H   0  0  0  0  0  0  0  0  0  0  0  0
   37.8430   25.9710   34.2680 C   0  0  0  0  0  0  0  0  0  0  0  0
   38.6000   25.1710   33.6720 O   0  0  0  0  0  0  0  0  0  0  0  0
   38.1860   24.6350   37.4550 H   0  0  0  0  0  0  0  0  0  0  0  0
   38.2740   24.9020   36.4260 C   0  0  0  0  0  0  0  0  0  0  0  0
   39.2540   24.2500   35.9310 O   0  0  0  0  0  0  0  0  0  0  0  0
   37.5000   25.8030   35.6400 N   0  0  0  0  0  0  0  0  0  0  0  0
   36.7280   26.2720   36.1640 H   0  0  0  0  0  0  0  0  0  0  0  0
  1  6  2  0  0  0  0
  1  2  1  0  0  0  0
  2  3  2  0  0  0  0
  3  4  1  0  0  0  0
  3 10  1  0  0  0  0
  5 23  1  0  0  0  0
  5  4  2  0  0  0  0
  6  5  1  0  0  0  0
  7  1  1  0  0  0  0
  8  2  1  0  0  0  0
  9 10  2  0  0  0  0
  9 17  1  0  0  0  0
 10 11  1  0  0  0  0
 11 19  1  0  0  0  0
 11 12  2  0  0  0  0
 12 13  1  0  0  0  0
 13 20  1  0  0  0  0
 13 14  1  0  0  0  0
 14 21  1  0  0  0  0
 15 14  2  0  0  0  0
 16 12  1  0  0  0  0
 16 15  1  0  0  0  0
 17 16  2  0  0  0  0
 18  9  1  0  0  0  0
 22 17  1  0  0  0  0
 23 28  1  0  0  0  0
 24 23  2  0  0  0  0
 26 25  1  0  0  0  0
 27 26  2  0  0  0  0
 28 29  1  0  0  0  0
 28 26  1  0  0  0  0
M  END
>  <minimizedAffinity>
-5.21273518

$$$$

 OpenBabel03262523313D

 29 31  0  0  0  0  0  0  0  0999 V2000
   37.2860   27.1700   33.5710 C   0  0  0  0  0  0  0  0  0  0  0  0
   36.5870   27.9750   34.4540 C   0  0  0  0  0  0  0  0  0  0  0  0
   36.0080   29.1570   33.9760 C   0  0  0  0  0  0  0  0  0  0  0  0
   36.1560   29.4760   32.6490 N   0  0  0  0  0  0  0  0  0  0  0  0
   36.8490   28.6570   31.8200 C   0  0  0  0  0  0  0  0  0  0  0  0
   37.4050   27.5220   32.2770 N   0  0  0  0  0  0  0  0  0  0  0  0
   37.7240   26.2690   33.9450 H   0  0  0  0  0  0  0  0  0  0  0  0
   36.4710   27.7260   35.4980 H   0  0  0  0  0  0  0  0  0  0  0  0
   36.0020   30.9750   35.5790 C   0  0  0  0  0  0  0  0  0  0  0  0
   35.2550   30.0740   34.8090 C   0  0  0  0  0  0  0  0  0  0  0  0
   33.8720   30.0890   34.8660 C   0  0  0  0  0  0  0  0  0  0  0  0
   33.2580   31.0060   35.6940 C   0  0  0  0  0  0  0  0  0  0  0  0
   31.9460   31.2140   35.9180 N   0  0  0  0  0  0  0  0  0  0  0  0
   31.8510   32.2220   36.8090 C   0  0  0  0  0  0  0  0  0  0  0  0
   33.0650   32.6550   37.1510 N   0  0  0  0  0  0  0  0  0  0  0  0
   33.9700   31.9150   36.4710 C   0  0  0  0  0  0  0  0  0  0  0  0
   35.3590   31.8900   36.4040 C   0  0  0  0  0  0  0  0  0  0  0  0
   37.0850   31.0190   35.5830 H   0  0  0  0  0  0  0  0  0  0  0  0
   33.3020   29.3990   34.2770 H   0  0  0  0  0  0  0  0  0  0  0  0
   31.1000   30.7450   35.5320 H   0  0  0  0  0  0  0  0  0  0  0  0
   30.9690   32.6880   37.2460 H   0  0  0  0  0  0  0  0  0  0  0  0
   35.9310   32.6000   37.0120 H   0  0  0  0  0  0  0  0  0  0  0  0
   36.9630   29.0590   30.4240 C   0  0  0  0  0  0  0  0  0  0  0  0
   36.4490   30.1210   30.0080 O   0  0  0  0  0  0  0  0  0  0  0  0
   38.6430   28.1950   27.5090 H   0  0  0  0  0  0  0  0  0  0  0  0
   38.1010   28.6770   28.2920 C   0  0  0  0  0  0  0  0  0  0  0  0
   37.8400   29.8690   27.9140 O   0  0  0  0  0  0  0  0  0  0  0  0
   37.6870   28.1840   29.5620 N   0  0  0  0  0  0  0  0  0  0  0  0
   37.9630   27.1950   29.7480 H   0  0  0  0  0  0  0  0  0  0  0  0
  1  7  1  0  0  0  0
  1  2  1  0  0  0  0
  2  8  1  0  0  0  0
  3  2  2  0  0  0  0
  3 10  1  0  0  0  0
  4  3  1  0  0  0  0
  5  6  1  0  0  0  0
  5  4  2  0  0  0  0
  6  1  2  0  0  0  0
  9 18  1  0  0  0  0
  9 17  1  0  0  0  0
 10 11  1  0  0  0  0
 10  9  2  0  0  0  0
 11 12  2  0  0  0  0
 12 13  1  0  0  0  0
 12 16  1  0  0  0  0
 13 14  1  0  0  0  0
 14 15  2  0  0  0  0
 14 21  1  0  0  0  0
 16 15  1  0  0  0  0
 17 16  2  0  0  0  0
 17 22  1  0  0  0  0
 19 11  1  0  0  0  0
 20 13  1  0  0  0  0
 23  5  1  0  0  0  0
 24 23  2  0  0  0  0
 25 26  1  0  0  0  0
 26 28  1  0  0  0  0
 27 26  2  0  0  0  0
 28 29  1  0  0  0  0
 28 23  1  0  0  0  0
M  END
>  <minimizedAffinity>
-5.1659894

$$$$

 OpenBabel03262523313D

 29 31  0  0  0  0  0  0  0  0999 V2000
   36.4130   29.3540   30.4050 C   0  0  0  0  0  0  0  0  0  0  0  0
   35.8330   30.0530   31.4500 C   0  0  0  0  0  0  0  0  0  0  0  0
   35.5730   29.3780   32.6490 C   0  0  0  0  0  0  0  0  0  0  0  0
   35.9020   28.0480   32.7450 N   0  0  0  0  0  0  0  0  0  0  0  0
   36.4690   27.4040   31.6950 C   0  0  0  0  0  0  0  0  0  0  0  0
   36.7200   28.0510   30.5430 N   0  0  0  0  0  0  0  0  0  0  0  0
   36.6090   29.8770   29.4940 H   0  0  0  0  0  0  0  0  0  0  0  0
   35.5730   31.0980   31.3760 H   0  0  0  0  0  0  0  0  0  0  0  0
   33.6310   29.6870   34.0650 C   0  0  0  0  0  0  0  0  0  0  0  0
   34.9690   30.0070   33.8080 C   0  0  0  0  0  0  0  0  0  0  0  0
   35.6480   30.8820   34.6390 C   0  0  0  0  0  0  0  0  0  0  0  0
   34.9760   31.4230   35.7140 C   0  0  0  0  0  0  0  0  0  0  0  0
   35.4130   32.2850   36.6530 N   0  0  0  0  0  0  0  0  0  0  0  0
   34.3830   32.5130   37.4920 C   0  0  0  0  0  0  0  0  0  0  0  0
   33.3100   31.8190   37.1100 N   0  0  0  0  0  0  0  0  0  0  0  0
   33.6460   31.1250   35.9990 C   0  0  0  0  0  0  0  0  0  0  0  0
   32.9750   30.2450   35.1570 C   0  0  0  0  0  0  0  0  0  0  0  0
   33.0390   29.0110   33.4580 H   0  0  0  0  0  0  0  0  0  0  0  0
   36.6720   31.1260   34.4400 H   0  0  0  0  0  0  0  0  0  0  0  0
   36.3400   32.7400   36.7900 H   0  0  0  0  0  0  0  0  0  0  0  0
   34.3280   33.1460   38.3760 H   0  0  0  0  0  0  0  0  0  0  0  0
   31.9280   30.0030   35.3700 H   0  0  0  0  0  0  0  0  0  0  0  0
   36.7920   25.9950   31.8700 C   0  0  0  0  0  0  0  0  0  0  0  0
   37.0080   25.5120   33.0040 O   0  0  0  0  0  0  0  0  0  0  0  0
   36.8720   23.0170   30.0840 H   0  0  0  0  0  0  0  0  0  0  0  0
   36.8360   23.7820   30.8270 C   0  0  0  0  0  0  0  0  0  0  0  0
   36.7780   23.2180   31.9710 O   0  0  0  0  0  0  0  0  0  0  0  0
   36.8490   25.1990   30.6890 N   0  0  0  0  0  0  0  0  0  0  0  0
   36.9000   25.5320   29.7010 H   0  0  0  0  0  0  0  0  0  0  0  0
  1  6  2  0  0  0  0
  1  2  1  0  0  0  0
  2  3  2  0  0  0  0
  3  4  1  0  0  0  0
  3 10  1  0  0  0  0
  5 23  1  0  0  0  0
  5  4  2  0  0  0  0
  6  5  1  0  0  0  0
  7  1  1  0  0  0  0
  8  2  1  0  0  0  0
  9 17  1  0  0  0  0
 10  9  2  0  0  0  0
 10 11  1  0  0  0  0
 11 12  2  0  0  0  0
 12 16  1  0  0  0  0
 12 13  1  0  0  0  0
 13 20  1  0  0  0  0
 13 14  1  0  0  0  0
 14 21  1  0  0  0  0
 15 14  2  0  0  0  0
 16 15  1  0  0  0  0
 17 22  1  0  0  0  0
 17 16  2  0  0  0  0
 18  9  1  0  0  0  0
 19 11  1  0  0  0  0
 23 24  2  0  0  0  0
 25 26  1  0  0  0  0
 26 27  2  0  0  0  0
 28 26  1  0  0  0  0
 28 23  1  0  0  0  0
 29 28  1  0  0  0  0
M  END
>  <minimizedAffinity>
-5.139884

$$$$

 OpenBabel03262523313D

 29 31  0  0  0  0  0  0  0  0999 V2000
   35.5220   29.8260   31.8430 C   0  0  0  0  0  0  0  0  0  0  0  0
   35.8890   28.9880   32.8820 C   0  0  0  0  0  0  0  0  0  0  0  0
   36.8970   28.0420   32.6610 C   0  0  0  0  0  0  0  0  0  0  0  0
   37.4850   27.9790   31.4220 N   0  0  0  0  0  0  0  0  0  0  0  0
   37.0940   28.8210   30.4330 C   0  0  0  0  0  0  0  0  0  0  0  0
   36.1260   29.7300   30.6440 N   0  0  0  0  0  0  0  0  0  0  0  0
   34.7510   30.5450   32.0210 H   0  0  0  0  0  0  0  0  0  0  0  0
   35.4270   29.0350   33.8570 H   0  0  0  0  0  0  0  0  0  0  0  0
   37.6610   27.6590   34.9290 C   0  0  0  0  0  0  0  0  0  0  0  0
   37.3620   27.1140   33.6740 C   0  0  0  0  0  0  0  0  0  0  0  0
   37.5130   25.7560   33.4500 C   0  0  0  0  0  0  0  0  0  0  0  0
   37.9620   24.9650   34.4860 C   0  0  0  0  0  0  0  0  0  0  0  0
   38.1860   23.6370   34.5150 N   0  0  0  0  0  0  0  0  0  0  0  0
   38.6190   23.3350   35.7560 C   0  0  0  0  0  0  0  0  0  0  0  0
   38.6720   24.4340   36.5090 N   0  0  0  0  0  0  0  0  0  0  0  0
   38.2680   25.4740   35.7450 C   0  0  0  0  0  0  0  0  0  0  0  0
   38.1120   26.8390   35.9570 C   0  0  0  0  0  0  0  0  0  0  0  0
   37.5660   28.7100   35.1740 H   0  0  0  0  0  0  0  0  0  0  0  0
   37.2830   25.3410   32.4890 H   0  0  0  0  0  0  0  0  0  0  0  0
   38.0780   22.9050   33.7820 H   0  0  0  0  0  0  0  0  0  0  0  0
   38.9050   22.3750   36.1820 H   0  0  0  0  0  0  0  0  0  0  0  0
   38.3490   27.2530   36.9440 H   0  0  0  0  0  0  0  0  0  0  0  0
   37.7630   28.6980   29.1460 C   0  0  0  0  0  0  0  0  0  0  0  0
   37.6530   29.5830   28.2670 O   0  0  0  0  0  0  0  0  0  0  0  0
   40.1350   26.7440   27.5260 H   0  0  0  0  0  0  0  0  0  0  0  0
   39.4660   27.5090   27.8510 C   0  0  0  0  0  0  0  0  0  0  0  0
   39.5990   28.5090   27.0680 O   0  0  0  0  0  0  0  0  0  0  0  0
   38.5460   27.5250   28.9380 N   0  0  0  0  0  0  0  0  0  0  0  0
   38.5340   26.6460   29.5010 H   0  0  0  0  0  0  0  0  0  0  0  0
  1  7  1  0  0  0  0
  1  2  1  0  0  0  0
  2  8  1  0  0  0  0
  3  2  2  0  0  0  0
  3 10  1  0  0  0  0
  4  3  1  0  0  0  0
  5  6  1  0  0  0  0
  5  4  2  0  0  0  0
  6  1  2  0  0  0  0
  9 18  1  0  0  0  0
  9 17  1  0  0  0  0
 10  9  2  0  0  0  0
 11 10  1  0  0  0  0
 11 12  2  0  0  0  0
 12 13  1  0  0  0  0
 12 16  1  0  0  0  0
 13 14  1  0  0  0  0
 14 21  1  0  0  0  0
 14 15  2  0  0  0  0
 16 17  2  0  0  0  0
 16 15  1  0  0  0  0
 17 22  1  0  0  0  0
 19 11  1  0  0  0  0
 20 13  1  0  0  0  0
 23  5  1  0  0  0  0
 24 23  2  0  0  0  0
 25 26  1  0  0  0  0
 26 28  1  0  0  0  0
 27 26  2  0  0  0  0
 28 23  1  0  0  0  0
 28 29  1  0  0  0  0
M  END
>  <minimizedAffinity>
-5.1248436

$$$$

 OpenBabel03262523313D

 29 31  0  0  0  0  0  0  0  0999 V2000
   36.3710   29.0080   31.8110 C   0  0  0  0  0  0  0  0  0  0  0  0
   36.9600   27.8520   32.2960 C   0  0  0  0  0  0  0  0  0  0  0  0
   36.8520   27.5630   33.6620 C   0  0  0  0  0  0  0  0  0  0  0  0
   36.1660   28.4360   34.4710 N   0  0  0  0  0  0  0  0  0  0  0  0
   35.6060   29.5560   33.9520 C   0  0  0  0  0  0  0  0  0  0  0  0
   35.7080   29.8350   32.6410 N   0  0  0  0  0  0  0  0  0  0  0  0
   36.4590   29.2210   30.7670 H   0  0  0  0  0  0  0  0  0  0  0  0
   37.5000   27.1660   31.6610 H   0  0  0  0  0  0  0  0  0  0  0  0
   37.7350   26.4800   35.6410 C   0  0  0  0  0  0  0  0  0  0  0  0
   37.4270   26.3830   34.2790 C   0  0  0  0  0  0  0  0  0  0  0  0
   37.6740   25.2080   33.5900 C   0  0  0  0  0  0  0  0  0  0  0  0
   38.2250   24.1470   34.2780 C   0  0  0  0  0  0  0  0  0  0  0  0
   38.5520   22.9170   33.8360 N   0  0  0  0  0  0  0  0  0  0  0  0
   39.0560   22.2400   34.8870 C   0  0  0  0  0  0  0  0  0  0  0  0
   39.0560   23.0070   35.9770 N   0  0  0  0  0  0  0  0  0  0  0  0
   38.5410   24.2090   35.6320 C   0  0  0  0  0  0  0  0  0  0  0  0
   38.2890   25.3950   36.3120 C   0  0  0  0  0  0  0  0  0  0  0  0
   37.5690   27.3670   36.2410 H   0  0  0  0  0  0  0  0  0  0  0  0
   37.4380   25.1370   32.5480 H   0  0  0  0  0  0  0  0  0  0  0  0
   38.4710   22.4810   32.8930 H   0  0  0  0  0  0  0  0  0  0  0  0
   39.4340   21.2200   34.9450 H   0  0  0  0  0  0  0  0  0  0  0  0
   38.5340   25.4570   37.3780 H   0  0  0  0  0  0  0  0  0  0  0  0
   34.8930   30.4340   34.8690 C   0  0  0  0  0  0  0  0  0  0  0  0
   33.6450   30.4070   34.9600 O   0  0  0  0  0  0  0  0  0  0  0  0
   35.4900   32.6420   37.4840 H   0  0  0  0  0  0  0  0  0  0  0  0
   35.0810   31.9540   36.7780 C   0  0  0  0  0  0  0  0  0  0  0  0
   33.8600   31.7480   37.0900 O   0  0  0  0  0  0  0  0  0  0  0  0
   35.6850   31.3210   35.6550 N   0  0  0  0  0  0  0  0  0  0  0  0
   36.6870   31.5750   35.5090 H   0  0  0  0  0  0  0  0  0  0  0  0
  1  2  2  0  0  0  0
  1  6  1  0  0  0  0
  2  3  1  0  0  0  0
  3 10  1  0  0  0  0
  3  4  2  0  0  0  0
  5  4  1  0  0  0  0
  5 23  1  0  0  0  0
  6  5  2  0  0  0  0
  7  1  1  0  0  0  0
  8  2  1  0  0  0  0
  9 18  1  0  0  0  0
  9 17  1  0  0  0  0
 10  9  2  0  0  0  0
 11 12  2  0  0  0  0
 11 10  1  0  0  0  0
 12 16  1  0  0  0  0
 13 12  1  0  0  0  0
 13 14  1  0  0  0  0
 14 21  1  0  0  0  0
 14 15  2  0  0  0  0
 16 15  1  0  0  0  0
 16 17  2  0  0  0  0
 17 22  1  0  0  0  0
 19 11  1  0  0  0  0
 20 13  1  0  0  0  0
 23 24  2  0  0  0  0
 23 28  1  0  0  0  0
 26 27  2  0  0  0  0
 26 25  1  0  0  0  0
 28 26  1  0  0  0  0
 29 28  1  0  0  0  0
M  END
>  <minimizedAffinity>
-5.11922169

$$$$

 OpenBabel03262523313D

 29 31  0  0  0  0  0  0  0  0999 V2000
   36.8240   28.2490   31.8640 C   0  0  0  0  0  0  0  0  0  0  0  0
   36.1120   29.2080   32.5650 C   0  0  0  0  0  0  0  0  0  0  0  0
   35.9370   29.0440   33.9440 C   0  0  0  0  0  0  0  0  0  0  0  0
   36.4780   27.9370   34.5530 N   0  0  0  0  0  0  0  0  0  0  0  0
   37.1690   27.0240   33.8270 C   0  0  0  0  0  0  0  0  0  0  0  0
   37.3380   27.1800   32.5020 N   0  0  0  0  0  0  0  0  0  0  0  0
   36.9530   28.3820   30.8110 H   0  0  0  0  0  0  0  0  0  0  0  0
   35.6860   30.0770   32.0870 H   0  0  0  0  0  0  0  0  0  0  0  0
   35.9830   30.8710   35.5350 C   0  0  0  0  0  0  0  0  0  0  0  0
   35.2110   29.9820   34.7770 C   0  0  0  0  0  0  0  0  0  0  0  0
   33.8290   30.0270   34.8440 C   0  0  0  0  0  0  0  0  0  0  0  0
   33.2410   30.9620   35.6710 C   0  0  0  0  0  0  0  0  0  0  0  0
   31.9360   31.2000   35.9040 N   0  0  0  0  0  0  0  0  0  0  0  0
   31.8700   32.2150   36.7890 C   0  0  0  0  0  0  0  0  0  0  0  0
   33.0950   32.6230   37.1190 N   0  0  0  0  0  0  0  0  0  0  0  0
   33.9790   31.8600   36.4370 C   0  0  0  0  0  0  0  0  0  0  0  0
   35.3660   31.8040   36.3600 C   0  0  0  0  0  0  0  0  0  0  0  0
   37.0660   30.8910   35.5310 H   0  0  0  0  0  0  0  0  0  0  0  0
   33.2400   29.3460   34.2640 H   0  0  0  0  0  0  0  0  0  0  0  0
   31.0770   30.7470   35.5270 H   0  0  0  0  0  0  0  0  0  0  0  0
   31.0020   32.7020   37.2300 H   0  0  0  0  0  0  0  0  0  0  0  0
   35.9590   32.5060   36.9590 H   0  0  0  0  0  0  0  0  0  0  0  0
   37.7150   25.8770   34.5390 C   0  0  0  0  0  0  0  0  0  0  0  0
   37.9480   25.9250   35.7680 O   0  0  0  0  0  0  0  0  0  0  0  0
   38.3900   22.5010   34.0780 H   0  0  0  0  0  0  0  0  0  0  0  0
   38.1870   23.4770   34.4580 C   0  0  0  0  0  0  0  0  0  0  0  0
   38.1630   23.4080   35.7330 O   0  0  0  0  0  0  0  0  0  0  0  0
   37.9680   24.7050   33.7700 N   0  0  0  0  0  0  0  0  0  0  0  0
   38.0150   24.6260   32.7300 H   0  0  0  0  0  0  0  0  0  0  0  0
  1  6  2  0  0  0  0
  1  2  1  0  0  0  0
  2  3  2  0  0  0  0
  3  4  1  0  0  0  0
  3 10  1  0  0  0  0
  5 23  1  0  0  0  0
  5  4  2  0  0  0  0
  6  5  1  0  0  0  0
  7  1  1  0  0  0  0
  8  2  1  0  0  0  0
  9 17  1  0  0  0  0
 10 11  1  0  0  0  0
 10  9  2  0  0  0  0
 11 12  2  0  0  0  0
 12 13  1  0  0  0  0
 12 16  1  0  0  0  0
 13 14  1  0  0  0  0
 14 15  2  0  0  0  0
 14 21  1  0  0  0  0
 16 15  1  0  0  0  0
 17 16  2  0  0  0  0
 17 22  1  0  0  0  0
 18  9  1  0  0  0  0
 19 11  1  0  0  0  0
 20 13  1  0  0  0  0
 23 24  2  0  0  0  0
 25 26  1  0  0  0  0
 26 27  2  0  0  0  0
 28 26  1  0  0  0  0
 28 23  1  0  0  0  0
 29 28  1  0  0  0  0
M  END
>  <minimizedAffinity>
-5.103374

$$$$
