
 OpenBabel03262523303D

 29 31  0  0  0  0  0  0  0  0999 V2000
   37.4190   29.4200   50.6370 C   0  0  0  0  0  0  0  0  0  0  0  0
   37.9720   30.1780   49.6180 C   0  0  0  0  0  0  0  0  0  0  0  0
   37.3060   30.2420   48.3890 C   0  0  0  0  0  0  0  0  0  0  0  0
   36.1290   29.5500   48.2370 N   0  0  0  0  0  0  0  0  0  0  0  0
   35.6240   28.8210   49.2620 C   0  0  0  0  0  0  0  0  0  0  0  0
   36.2620   28.7590   50.4440 N   0  0  0  0  0  0  0  0  0  0  0  0
   37.9340   29.3770   51.5730 H   0  0  0  0  0  0  0  0  0  0  0  0
   38.8970   30.7210   49.7370 H   0  0  0  0  0  0  0  0  0  0  0  0
   37.1640   30.7590   46.0260 C   0  0  0  0  0  0  0  0  0  0  0  0
   37.7910   31.0030   47.2530 C   0  0  0  0  0  0  0  0  0  0  0  0
   38.8170   31.9280   47.3410 C   0  0  0  0  0  0  0  0  0  0  0  0
   39.1980   32.5960   46.1960 C   0  0  0  0  0  0  0  0  0  0  0  0
   40.1550   33.5300   46.0270 N   0  0  0  0  0  0  0  0  0  0  0  0
   40.1440   33.8780   44.7250 C   0  0  0  0  0  0  0  0  0  0  0  0
   39.2070   33.1910   44.0690 N   0  0  0  0  0  0  0  0  0  0  0  0
   38.5960   32.3790   44.9600 C   0  0  0  0  0  0  0  0  0  0  0  0
   37.5670   31.4460   44.8860 C   0  0  0  0  0  0  0  0  0  0  0  0
   36.3570   30.0500   45.8850 H   0  0  0  0  0  0  0  0  0  0  0  0
   39.2950   32.1130   48.2810 H   0  0  0  0  0  0  0  0  0  0  0  0
   40.8210   33.9610   46.7020 H   0  0  0  0  0  0  0  0  0  0  0  0
   40.7600   34.5970   44.1880 H   0  0  0  0  0  0  0  0  0  0  0  0
   37.0840   31.2650   43.9190 H   0  0  0  0  0  0  0  0  0  0  0  0
   34.3720   28.1150   49.0290 C   0  0  0  0  0  0  0  0  0  0  0  0
   34.3180   27.1140   48.2790 O   0  0  0  0  0  0  0  0  0  0  0  0
   32.5390   30.4810   50.7920 H   0  0  0  0  0  0  0  0  0  0  0  0
   33.2780   29.9250   50.2600 C   0  0  0  0  0  0  0  0  0  0  0  0
   34.3310   30.6420   50.1840 O   0  0  0  0  0  0  0  0  0  0  0  0
   33.2170   28.6200   49.6950 N   0  0  0  0  0  0  0  0  0  0  0  0
   32.2990   28.1390   49.8270 H   0  0  0  0  0  0  0  0  0  0  0  0
  1  7  1  0  0  0  0
  2  8  1  0  0  0  0
  2  1  2  0  0  0  0
  3  2  1  0  0  0  0
  4  3  2  0  0  0  0
  4  5  1  0  0  0  0
  5  6  2  0  0  0  0
  6  1  1  0  0  0  0
  9 10  1  0  0  0  0
 10 11  2  0  0  0  0
 10  3  1  0  0  0  0
 11 19  1  0  0  0  0
 12 11  1  0  0  0  0
 13 12  1  0  0  0  0
 13 20  1  0  0  0  0
 14 13  1  0  0  0  0
 15 14  2  0  0  0  0
 15 16  1  0  0  0  0
 16 12  2  0  0  0  0
 17 16  1  0  0  0  0
 17  9  2  0  0  0  0
 18  9  1  0  0  0  0
 21 14  1  0  0  0  0
 22 17  1  0  0  0  0
 23  5  1  0  0  0  0
 23 28  1  0  0  0  0
 24 23  2  0  0  0  0
 26 25  1  0  0  0  0
 27 26  2  0  0  0  0
 28 29  1  0  0  0  0
 28 26  1  0  0  0  0
M  END
>  <minimizedAffinity>
-5.47435856

>  <minimizedRMSD>
0.827001512

$$$$
