
 OpenBabel03272503253D

 28 29  0  0  1  0  0  0  0  0999 V2000
   36.5000   30.0000   49.1460 N   0  0  0  0  0  0  0  0  0  0  0  0
   36.9640   31.3560   48.9280 C   0  0  1  0  0  0  0  0  0  0  0  0
   37.7820   31.5890   50.1960 C   0  0  0  0  0  0  0  0  0  0  0  0
   37.5010   30.4020   51.1100 C   0  0  0  0  0  0  0  0  0  0  0  0
   37.3910   29.3070   50.0540 C   0  0  0  0  0  0  0  0  0  0  0  0
   36.1340   32.0700   48.9530 H   0  0  0  0  0  0  0  0  0  0  0  0
   38.8570   31.5070   49.9130 H   0  0  0  0  0  0  0  0  0  0  0  0
   37.5530   32.5500   50.6700 H   0  0  0  0  0  0  0  0  0  0  0  0
   38.3080   30.2220   51.8160 H   0  0  0  0  0  0  0  0  0  0  0  0
   36.4870   30.5020   51.5720 H   0  0  0  0  0  0  0  0  0  0  0  0
   36.9210   28.4490   50.5340 H   0  0  0  0  0  0  0  0  0  0  0  0
   38.3820   29.1400   49.6150 H   0  0  0  0  0  0  0  0  0  0  0  0
   35.3310   29.4470   48.5490 C   0  0  0  0  0  0  0  0  0  0  0  0
   34.6200   30.2330   47.6300 C   0  0  0  0  0  0  0  0  0  0  0  0
   33.4650   29.7010   47.0400 C   0  0  0  0  0  0  0  0  0  0  0  0
   33.1020   28.4310   47.4030 N   0  0  0  0  0  0  0  0  0  0  0  0
   33.8080   27.7100   48.2850 C   0  0  0  0  0  0  0  0  0  0  0  0
   34.9290   28.2090   48.8680 N   0  0  0  0  0  0  0  0  0  0  0  0
   34.9030   31.2350   47.3420 H   0  0  0  0  0  0  0  0  0  0  0  0
   32.9090   30.2990   46.3300 H   0  0  0  0  0  0  0  0  0  0  0  0
   33.4300   26.7200   48.4980 H   0  0  0  0  0  0  0  0  0  0  0  0
   37.7810   31.5160   47.7260 C   0  0  0  0  0  0  0  0  0  0  0  0
   38.3740   32.5460   47.5180 O   0  0  0  0  0  0  0  0  0  0  0  0
   39.2190   29.7030   45.1160 H   0  0  0  0  0  0  0  0  0  0  0  0
   39.1600   30.4640   45.8850 C   0  0  0  0  0  0  0  0  0  0  0  0
   40.0880   31.3040   46.1380 O   0  0  0  0  0  0  0  0  0  0  0  0
   37.9920   30.5680   46.6870 N   0  0  0  0  0  0  0  0  0  0  0  0
   37.2300   29.9050   46.5050 H   0  0  0  0  0  0  0  0  0  0  0  0
  1  5  1  0  0  0  0
  2  6  1  6  0  0  0
  2  1  1  0  0  0  0
  2  3  1  0  0  0  0
  3  8  1  0  0  0  0
  3  4  1  0  0  0  0
  4 10  1  0  0  0  0
  4  9  1  0  0  0  0
  5 11  1  0  0  0  0
  5  4  1  0  0  0  0
  7  3  1  0  0  0  0
 12  5  1  0  0  0  0
 13 18  1  0  0  0  0
 13  1  1  0  0  0  0
 14 13  2  0  0  0  0
 15 16  2  0  0  0  0
 15 14  1  0  0  0  0
 16 17  1  0  0  0  0
 17 21  1  0  0  0  0
 17 18  2  0  0  0  0
 19 14  1  0  0  0  0
 20 15  1  0  0  0  0
 22  2  1  0  0  0  0
 23 22  2  0  0  0  0
 24 25  1  0  0  0  0
 25 26  2  0  0  0  0
 25 27  1  0  0  0  0
 27 22  1  0  0  0  0
 28 27  1  0  0  0  0
M  END
>  <minimizedAffinity>
-4.95747423

>  <minimizedRMSD>
0.713014722

$$$$
