
 OpenBabel03272510313D

 28 29  0  0  0  0  0  0  0  0999 V2000
   37.4170   31.1700   49.3890 C   0  0  0  0  0  0  0  0  0  0  0  0
   38.3620   32.1770   49.4660 C   0  0  0  0  0  0  0  0  0  0  0  0
   38.7790   32.6840   48.2440 C   0  0  0  0  0  0  0  0  0  0  0  0
   38.2750   32.2050   47.0830 N   0  0  0  0  0  0  0  0  0  0  0  0
   37.3460   31.2110   47.0470 C   0  0  0  0  0  0  0  0  0  0  0  0
   36.9310   30.7070   48.2400 N   0  0  0  0  0  0  0  0  0  0  0  0
   38.7090   32.4950   50.4380 H   0  0  0  0  0  0  0  0  0  0  0  0
   39.5200   33.4710   48.2750 H   0  0  0  0  0  0  0  0  0  0  0  0
   36.9080   30.6040   50.6860 C   0  0  0  0  0  0  0  0  0  0  0  0
   36.0000   29.5070   50.7500 C   0  0  0  0  0  0  0  0  0  0  0  0
   37.4740   29.1910   50.9610 C   0  0  0  0  0  0  0  0  0  0  0  0
   37.0520   31.3060   51.5290 H   0  0  0  0  0  0  0  0  0  0  0  0
   35.5500   28.9810   49.9110 H   0  0  0  0  0  0  0  0  0  0  0  0
   35.3900   29.4080   51.6880 H   0  0  0  0  0  0  0  0  0  0  0  0
   38.0350   28.6870   50.1580 H   0  0  0  0  0  0  0  0  0  0  0  0
   37.8610   29.0050   51.9740 H   0  0  0  0  0  0  0  0  0  0  0  0
   36.7700   30.6710   45.8140 C   0  0  0  0  0  0  0  0  0  0  0  0
   36.2290   29.7470   46.0020 H   0  0  0  0  0  0  0  0  0  0  0  0
   36.1320   31.4220   45.3010 H   0  0  0  0  0  0  0  0  0  0  0  0
   38.2660   31.2710   43.8740 C   0  0  0  0  0  0  0  0  0  0  0  0
   37.6940   32.3470   43.6050 O   0  0  0  0  0  0  0  0  0  0  0  0
   37.9170   30.3700   44.9410 N   0  0  0  0  0  0  0  0  0  0  0  0
   38.3430   29.4540   45.2670 H   0  0  0  0  0  0  0  0  0  0  0  0
   41.6480   31.4480   44.0090 H   0  0  0  0  0  0  0  0  0  0  0  0
   40.6170   31.1380   43.8080 C   0  0  0  0  0  0  0  0  0  0  0  0
   40.6950   32.2190   44.4730 O   0  0  0  0  0  0  0  0  0  0  0  0
   39.3320   30.4990   43.4030 N   0  0  0  0  0  0  0  0  0  0  0  0
   40.1060   29.9390   43.0620 H   0  0  0  0  0  0  0  0  0  0  0  0
  1  2  1  0  0  0  0
  1  9  1  0  0  0  0
  2  7  1  0  0  0  0
  3  8  1  0  0  0  0
  3  2  2  0  0  0  0
  4  3  1  0  0  0  0
  5  4  2  0  0  0  0
  5  6  1  0  0  0  0
  6  1  2  0  0  0  0
  9 10  1  0  0  0  0
  9 11  1  0  0  0  0
  9 12  1  0  0  0  0
 10 11  1  0  0  0  0
 10 14  1  0  0  0  0
 11 16  1  0  0  0  0
 13 10  1  0  0  0  0
 15 11  1  0  0  0  0
 17 18  1  0  0  0  0
 17  5  1  0  0  0  0
 19 17  1  0  0  0  0
 20 22  1  0  0  0  0
 21 20  2  0  0  0  0
 22 23  1  0  0  0  0
 22 17  1  0  0  0  0
 25 24  1  0  0  0  0
 25 26  2  0  0  0  0
 27 25  1  0  0  0  0
 27 20  1  0  0  0  0
 28 27  1  0  0  0  0
M  END
>  <minimizedAffinity>
-5.04036665

>  <minimizedRMSD>
2.08782315

$$$$
