
 OpenBabel03272508513D

 25 26  0  0  1  0  0  0  0  0999 V2000
   38.8310   30.8220   46.2140 C   0  0  2  0  0  0  0  0  0  0  0  0
   40.2440   31.1100   45.9880 C   0  0  0  0  0  0  0  0  0  0  0  0
   39.1240   31.9000   45.2820 C   0  0  1  0  0  0  0  0  0  0  0  0
   38.3820   29.8730   45.7580 H   0  0  0  0  0  0  0  0  0  0  0  0
   40.8170   31.6790   46.7420 H   0  0  0  0  0  0  0  0  0  0  0  0
   40.8450   30.5070   45.3160 H   0  0  0  0  0  0  0  0  0  0  0  0
   39.1460   32.9530   45.5200 H   0  0  0  0  0  0  0  0  0  0  0  0
   36.3020   30.8680   48.9250 C   0  0  0  0  0  0  0  0  0  0  0  0
   36.9000   31.7590   49.8530 C   0  0  0  0  0  0  0  0  0  0  0  0
   38.1570   32.3200   49.5270 C   0  0  0  0  0  0  0  0  0  0  0  0
   38.7280   31.9740   48.3350 N   0  0  0  0  0  0  0  0  0  0  0  0
   38.1250   31.1280   47.4900 C   0  0  0  0  0  0  0  0  0  0  0  0
   36.9230   30.5630   47.7510 N   0  0  0  0  0  0  0  0  0  0  0  0
   35.3270   30.4560   49.2090 H   0  0  0  0  0  0  0  0  0  0  0  0
   36.4820   32.0480   50.7840 H   0  0  0  0  0  0  0  0  0  0  0  0
   38.7010   33.0050   50.1530 H   0  0  0  0  0  0  0  0  0  0  0  0
   39.3410   32.6720   42.9480 C   0  0  0  0  0  0  0  0  0  0  0  0
   39.8180   33.7420   43.3440 O   0  0  0  0  0  0  0  0  0  0  0  0
   38.9950   31.5820   43.8530 N   0  0  0  0  0  0  0  0  0  0  0  0
   38.6580   30.5850   43.6900 H   0  0  0  0  0  0  0  0  0  0  0  0
   38.0730   33.5610   39.9600 H   0  0  0  0  0  0  0  0  0  0  0  0
   38.4560   32.9590   40.8010 C   0  0  0  0  0  0  0  0  0  0  0  0
   38.4520   34.2230   41.0120 O   0  0  0  0  0  0  0  0  0  0  0  0
   38.9230   31.9470   41.7820 N   0  0  0  0  0  0  0  0  0  0  0  0
   38.6440   31.4640   41.0040 H   0  0  0  0  0  0  0  0  0  0  0  0
  1  4  1  6  0  0  0
  1 12  1  0  0  0  0
  2  1  1  0  0  0  0
  2  5  1  0  0  0  0
  3  7  1  1  0  0  0
  3  2  1  0  0  0  0
  3  1  1  0  0  0  0
  6  2  1  0  0  0  0
  8 14  1  0  0  0  0
  8  9  1  0  0  0  0
  9 15  1  0  0  0  0
 10  9  2  0  0  0  0
 10 16  1  0  0  0  0
 11 10  1  0  0  0  0
 12 13  1  0  0  0  0
 12 11  2  0  0  0  0
 13  8  2  0  0  0  0
 17 18  2  0  0  0  0
 17 19  1  0  0  0  0
 19  3  1  0  0  0  0
 20 19  1  0  0  0  0
 21 22  1  0  0  0  0
 22 23  2  0  0  0  0
 22 24  1  0  0  0  0
 24 17  1  0  0  0  0
 25 24  1  0  0  0  0
M  END
>  <minimizedAffinity>
-4.39235115

>  <minimizedRMSD>
7.10711527

$$$$
