
 OpenBabel03272508513D

 25 26  0  0  1  0  0  0  0  0999 V2000
   38.2180   30.7720   46.5420 C   0  0  2  0  0  0  0  0  0  0  0  0
   36.7970   30.6520   46.8480 C   0  0  0  0  0  0  0  0  0  0  0  0
   37.7740   31.3980   47.7770 C   0  0  1  0  0  0  0  0  0  0  0  0
   38.8880   29.8500   46.6580 H   0  0  0  0  0  0  0  0  0  0  0  0
   36.0650   31.2930   46.3240 H   0  0  0  0  0  0  0  0  0  0  0  0
   36.3840   29.7470   47.2810 H   0  0  0  0  0  0  0  0  0  0  0  0
   37.5160   32.4390   47.9030 H   0  0  0  0  0  0  0  0  0  0  0  0
   40.4670   32.8890   44.4890 C   0  0  0  0  0  0  0  0  0  0  0  0
   39.6380   33.1830   43.3760 C   0  0  0  0  0  0  0  0  0  0  0  0
   38.3300   32.6470   43.3560 C   0  0  0  0  0  0  0  0  0  0  0  0
   37.9330   31.8740   44.4110 N   0  0  0  0  0  0  0  0  0  0  0  0
   38.7520   31.6230   45.4400 C   0  0  0  0  0  0  0  0  0  0  0  0
   40.0130   32.1100   45.5110 N   0  0  0  0  0  0  0  0  0  0  0  0
   41.4720   33.3240   44.4730 H   0  0  0  0  0  0  0  0  0  0  0  0
   39.9150   33.7810   42.5450 H   0  0  0  0  0  0  0  0  0  0  0  0
   37.6170   32.8040   42.5660 H   0  0  0  0  0  0  0  0  0  0  0  0
   37.5090   31.2670   50.2280 C   0  0  0  0  0  0  0  0  0  0  0  0
   36.7480   32.2420   50.2000 O   0  0  0  0  0  0  0  0  0  0  0  0
   38.0690   30.6710   49.0200 N   0  0  0  0  0  0  0  0  0  0  0  0
   38.6620   29.8020   48.8500 H   0  0  0  0  0  0  0  0  0  0  0  0
   37.0150   28.0310   51.0140 H   0  0  0  0  0  0  0  0  0  0  0  0
   37.4350   29.0510   50.9770 C   0  0  0  0  0  0  0  0  0  0  0  0
   36.4130   28.8710   50.2250 O   0  0  0  0  0  0  0  0  0  0  0  0
   38.1710   30.3350   51.0950 N   0  0  0  0  0  0  0  0  0  0  0  0
   38.6130   29.7130   51.6740 H   0  0  0  0  0  0  0  0  0  0  0  0
  1  4  1  1  0  0  0
  1  2  1  0  0  0  0
  1  3  1  0  0  0  0
  2  6  1  0  0  0  0
  2  3  1  0  0  0  0
  3  7  1  1  0  0  0
  3 19  1  0  0  0  0
  5  2  1  0  0  0  0
  8 13  1  0  0  0  0
  9  8  2  0  0  0  0
 10  9  1  0  0  0  0
 10 11  2  0  0  0  0
 11 12  1  0  0  0  0
 12 13  2  0  0  0  0
 12  1  1  0  0  0  0
 14  8  1  0  0  0  0
 15  9  1  0  0  0  0
 16 10  1  0  0  0  0
 17 24  1  0  0  0  0
 18 17  2  0  0  0  0
 19 17  1  0  0  0  0
 20 19  1  0  0  0  0
 22 21  1  0  0  0  0
 22 24  1  0  0  0  0
 23 22  2  0  0  0  0
 24 25  1  0  0  0  0
M  END
>  <minimizedAffinity>
-4.83853388

>  <minimizedRMSD>
0.800020576

$$$$
