
 OpenBabel03272508513D

 25 26  0  0  1  0  0  0  0  0999 V2000
   38.2420   30.7600   46.4940 C   0  0  2  0  0  0  0  0  0  0  0  0
   36.8370   30.6480   46.8720 C   0  0  0  0  0  0  0  0  0  0  0  0
   37.8600   31.4150   47.7340 C   0  0  1  0  0  0  0  0  0  0  0  0
   38.9170   29.8410   46.5980 H   0  0  0  0  0  0  0  0  0  0  0  0
   36.0800   31.2770   46.3700 H   0  0  0  0  0  0  0  0  0  0  0  0
   36.4470   29.7540   47.3470 H   0  0  0  0  0  0  0  0  0  0  0  0
   37.6080   32.4590   47.8470 H   0  0  0  0  0  0  0  0  0  0  0  0
   40.4100   32.7550   44.2420 C   0  0  0  0  0  0  0  0  0  0  0  0
   39.5020   33.0990   43.2090 C   0  0  0  0  0  0  0  0  0  0  0  0
   38.1690   32.6380   43.3090 C   0  0  0  0  0  0  0  0  0  0  0  0
   37.8270   31.8840   44.3960 N   0  0  0  0  0  0  0  0  0  0  0  0
   38.7200   31.5830   45.3470 C   0  0  0  0  0  0  0  0  0  0  0  0
   40.0080   31.9990   45.3020 N   0  0  0  0  0  0  0  0  0  0  0  0
   41.4330   33.1330   44.1330 H   0  0  0  0  0  0  0  0  0  0  0  0
   39.7350   33.6840   42.3550 H   0  0  0  0  0  0  0  0  0  0  0  0
   37.3960   32.8380   42.5860 H   0  0  0  0  0  0  0  0  0  0  0  0
   37.5100   31.1840   50.1670 C   0  0  0  0  0  0  0  0  0  0  0  0
   36.5990   32.0200   50.1180 O   0  0  0  0  0  0  0  0  0  0  0  0
   38.2160   30.7180   48.9780 N   0  0  0  0  0  0  0  0  0  0  0  0
   38.9520   29.9650   48.8230 H   0  0  0  0  0  0  0  0  0  0  0  0
   36.7500   28.7210   52.3320 H   0  0  0  0  0  0  0  0  0  0  0  0
   37.3140   29.4580   51.7350 C   0  0  0  0  0  0  0  0  0  0  0  0
   36.0490   29.4680   51.5320 O   0  0  0  0  0  0  0  0  0  0  0  0
   38.2800   30.3550   51.0500 N   0  0  0  0  0  0  0  0  0  0  0  0
   38.7930   29.8020   51.6400 H   0  0  0  0  0  0  0  0  0  0  0  0
  1  4  1  1  0  0  0
  1  2  1  0  0  0  0
  1  3  1  0  0  0  0
  2  6  1  0  0  0  0
  2  3  1  0  0  0  0
  3  7  1  1  0  0  0
  3 19  1  0  0  0  0
  5  2  1  0  0  0  0
  8 13  1  0  0  0  0
  9 10  1  0  0  0  0
  9  8  2  0  0  0  0
 10 11  2  0  0  0  0
 11 12  1  0  0  0  0
 12  1  1  0  0  0  0
 13 12  2  0  0  0  0
 14  8  1  0  0  0  0
 15  9  1  0  0  0  0
 16 10  1  0  0  0  0
 17 24  1  0  0  0  0
 18 17  2  0  0  0  0
 19 17  1  0  0  0  0
 20 19  1  0  0  0  0
 22 21  1  0  0  0  0
 23 22  2  0  0  0  0
 24 25  1  0  0  0  0
 24 22  1  0  0  0  0
M  END
>  <minimizedAffinity>
-5.02628231

>  <minimizedRMSD>
0.820256889

$$$$
