
 OpenBabel03272503253D

 28 29  0  0  1  0  0  0  0  0999 V2000
   37.5720   31.1140   48.3040 N   0  0  0  0  0  0  0  0  0  0  0  0
   38.0180   31.7920   47.1030 C   0  0  1  0  0  0  0  0  0  0  0  0
   38.7480   32.9920   47.7010 C   0  0  0  0  0  0  0  0  0  0  0  0
   38.4360   32.9810   49.1930 C   0  0  0  0  0  0  0  0  0  0  0  0
   38.4190   31.4730   49.4240 C   0  0  0  0  0  0  0  0  0  0  0  0
   37.1720   32.1900   46.5330 H   0  0  0  0  0  0  0  0  0  0  0  0
   39.8400   32.7870   47.6170 H   0  0  0  0  0  0  0  0  0  0  0  0
   38.4670   33.9350   47.2190 H   0  0  0  0  0  0  0  0  0  0  0  0
   39.2010   33.4840   49.7810 H   0  0  0  0  0  0  0  0  0  0  0  0
   37.3940   33.3420   49.3730 H   0  0  0  0  0  0  0  0  0  0  0  0
   37.9400   31.3050   50.3870 H   0  0  0  0  0  0  0  0  0  0  0  0
   39.4400   31.0880   49.3110 H   0  0  0  0  0  0  0  0  0  0  0  0
   36.4570   30.2310   48.3600 C   0  0  0  0  0  0  0  0  0  0  0  0
   35.4410   30.3830   47.4030 C   0  0  0  0  0  0  0  0  0  0  0  0
   34.3360   29.5230   47.4510 C   0  0  0  0  0  0  0  0  0  0  0  0
   34.3190   28.5760   48.4410 N   0  0  0  0  0  0  0  0  0  0  0  0
   35.3090   28.4600   49.3370 C   0  0  0  0  0  0  0  0  0  0  0  0
   36.3880   29.2850   49.3070 N   0  0  0  0  0  0  0  0  0  0  0  0
   35.4510   31.1300   46.6220 H   0  0  0  0  0  0  0  0  0  0  0  0
   33.5470   29.6320   46.7190 H   0  0  0  0  0  0  0  0  0  0  0  0
   35.1930   27.6780   50.0740 H   0  0  0  0  0  0  0  0  0  0  0  0
   38.9060   30.9870   46.2650 C   0  0  0  0  0  0  0  0  0  0  0  0
   40.0940   30.9590   46.4770 O   0  0  0  0  0  0  0  0  0  0  0  0
   37.2750   29.7250   43.4530 H   0  0  0  0  0  0  0  0  0  0  0  0
   37.4580   30.4060   44.2740 C   0  0  0  0  0  0  0  0  0  0  0  0
   36.7460   31.4370   44.5290 O   0  0  0  0  0  0  0  0  0  0  0  0
   38.5520   30.1770   45.1520 N   0  0  0  0  0  0  0  0  0  0  0  0
   39.1420   29.3570   44.9710 H   0  0  0  0  0  0  0  0  0  0  0  0
  1 13  1  0  0  0  0
  1  5  1  0  0  0  0
  2  6  1  6  0  0  0
  2  3  1  0  0  0  0
  2  1  1  0  0  0  0
  3  4  1  0  0  0  0
  4 10  1  0  0  0  0
  4  5  1  0  0  0  0
  4  9  1  0  0  0  0
  5 11  1  0  0  0  0
  7  3  1  0  0  0  0
  8  3  1  0  0  0  0
 12  5  1  0  0  0  0
 13 18  1  0  0  0  0
 14 15  1  0  0  0  0
 14 13  2  0  0  0  0
 15 16  2  0  0  0  0
 16 17  1  0  0  0  0
 17 21  1  0  0  0  0
 18 17  2  0  0  0  0
 19 14  1  0  0  0  0
 20 15  1  0  0  0  0
 22 23  2  0  0  0  0
 22  2  1  0  0  0  0
 24 25  1  0  0  0  0
 25 26  2  0  0  0  0
 25 27  1  0  0  0  0
 27 22  1  0  0  0  0
 28 27  1  0  0  0  0
M  END
>  <minimizedAffinity>
-4.54602957

>  <minimizedRMSD>
2.11745191

$$$$
