
 OpenBabel03272510313D

 28 29  0  0  0  0  0  0  0  0999 V2000
   37.0490   31.1970   48.9800 C   0  0  0  0  0  0  0  0  0  0  0  0
   37.8790   31.9280   49.8090 C   0  0  0  0  0  0  0  0  0  0  0  0
   38.7810   32.7550   49.1540 C   0  0  0  0  0  0  0  0  0  0  0  0
   38.8160   32.8160   47.8020 N   0  0  0  0  0  0  0  0  0  0  0  0
   37.9810   32.0790   47.0190 C   0  0  0  0  0  0  0  0  0  0  0  0
   37.0940   31.2650   47.6510 N   0  0  0  0  0  0  0  0  0  0  0  0
   37.7820   31.8150   50.8780 H   0  0  0  0  0  0  0  0  0  0  0  0
   39.4450   33.3370   49.7790 H   0  0  0  0  0  0  0  0  0  0  0  0
   36.0310   30.3060   49.6380 C   0  0  0  0  0  0  0  0  0  0  0  0
   35.6020   29.0700   49.0730 C   0  0  0  0  0  0  0  0  0  0  0  0
   36.6640   28.9950   50.1610 C   0  0  0  0  0  0  0  0  0  0  0  0
   35.4430   30.8450   50.4040 H   0  0  0  0  0  0  0  0  0  0  0  0
   35.9120   28.6430   48.1210 H   0  0  0  0  0  0  0  0  0  0  0  0
   34.6030   28.6800   49.4060 H   0  0  0  0  0  0  0  0  0  0  0  0
   37.7050   28.7690   49.8800 H   0  0  0  0  0  0  0  0  0  0  0  0
   36.3900   28.6900   51.1820 H   0  0  0  0  0  0  0  0  0  0  0  0
   37.9800   32.1220   45.5550 C   0  0  0  0  0  0  0  0  0  0  0  0
   37.0510   31.7310   45.1490 H   0  0  0  0  0  0  0  0  0  0  0  0
   38.1940   33.1450   45.1790 H   0  0  0  0  0  0  0  0  0  0  0  0
   40.3610   31.7990   44.7870 C   0  0  0  0  0  0  0  0  0  0  0  0
   40.6690   33.0070   44.8290 O   0  0  0  0  0  0  0  0  0  0  0  0
   39.0800   31.2390   45.1330 N   0  0  0  0  0  0  0  0  0  0  0  0
   38.7230   30.2390   45.1540 H   0  0  0  0  0  0  0  0  0  0  0  0
   40.6570   29.9210   41.9810 H   0  0  0  0  0  0  0  0  0  0  0  0
   40.7180   30.2980   43.0080 C   0  0  0  0  0  0  0  0  0  0  0  0
   40.0820   31.0720   42.2270 O   0  0  0  0  0  0  0  0  0  0  0  0
   40.9460   30.5740   44.4570 N   0  0  0  0  0  0  0  0  0  0  0  0
   41.3710   29.6840   44.2140 H   0  0  0  0  0  0  0  0  0  0  0  0
  1  9  1  0  0  0  0
  1  2  1  0  0  0  0
  2  7  1  0  0  0  0
  3  8  1  0  0  0  0
  3  2  2  0  0  0  0
  4  3  1  0  0  0  0
  5  6  1  0  0  0  0
  5  4  2  0  0  0  0
  6  1  2  0  0  0  0
  9 11  1  0  0  0  0
  9 12  1  0  0  0  0
 10 14  1  0  0  0  0
 10  9  1  0  0  0  0
 10 11  1  0  0  0  0
 11 16  1  0  0  0  0
 13 10  1  0  0  0  0
 15 11  1  0  0  0  0
 17  5  1  0  0  0  0
 18 17  1  0  0  0  0
 19 17  1  0  0  0  0
 20 21  2  0  0  0  0
 20 22  1  0  0  0  0
 22 23  1  0  0  0  0
 22 17  1  0  0  0  0
 24 25  1  0  0  0  0
 25 27  1  0  0  0  0
 26 25  2  0  0  0  0
 27 20  1  0  0  0  0
 28 27  1  0  0  0  0
M  END
>  <minimizedAffinity>
-5.35687065

>  <minimizedRMSD>
1.53240108

$$$$
