
 OpenBabel03272509153D

 43 45  0  0  1  0  0  0  0  0999 V2000
   34.9100   29.9430   46.6600 C   0  0  0  0  0  0  0  0  0  0  0  0
   36.1880   30.5430   46.7470 C   0  0  0  0  0  0  0  0  0  0  0  0
   36.8740   30.7920   45.5520 C   0  0  0  0  0  0  0  0  0  0  0  0
   36.2800   30.4460   44.3840 N   0  0  0  0  0  0  0  0  0  0  0  0
   35.0730   29.8800   44.3290 C   0  0  0  0  0  0  0  0  0  0  0  0
   34.3890   29.6280   45.4540 N   0  0  0  0  0  0  0  0  0  0  0  0
   34.2990   29.7170   47.5010 H   0  0  0  0  0  0  0  0  0  0  0  0
   34.6590   29.6310   43.3520 H   0  0  0  0  0  0  0  0  0  0  0  0
   36.6580   30.8240   48.0850 N   0  0  0  0  0  0  0  0  0  0  0  0
   37.0910   31.9240   48.8820 C   0  0  0  0  0  0  0  0  0  0  0  0
   38.3880   31.4410   49.4600 C   0  0  0  0  0  0  0  0  0  0  0  0
   38.1440   29.9410   49.6590 C   0  0  0  0  0  0  0  0  0  0  0  0
   36.7970   29.7130   49.0770 C   0  0  1  0  0  0  0  0  0  0  0  0
   36.3830   31.9410   49.7690 H   0  0  0  0  0  0  0  0  0  0  0  0
   37.0350   32.9300   48.5140 H   0  0  0  0  0  0  0  0  0  0  0  0
   38.5480   31.9340   50.4380 H   0  0  0  0  0  0  0  0  0  0  0  0
   39.2660   31.5990   48.8090 H   0  0  0  0  0  0  0  0  0  0  0  0
   38.9550   29.3820   49.1560 H   0  0  0  0  0  0  0  0  0  0  0  0
   38.1360   29.7440   50.7660 H   0  0  0  0  0  0  0  0  0  0  0  0
   36.6490   28.7510   48.5940 H   0  0  0  0  0  0  0  0  0  0  0  0
   34.7480   28.9910   50.2900 C   0  0  0  0  0  0  0  0  0  0  0  0
   34.4830   28.0090   49.5300 O   0  0  0  0  0  0  0  0  0  0  0  0
   35.8040   29.9450   50.1200 N   0  0  0  0  0  0  0  0  0  0  0  0
   33.9860   28.8960   51.0520 H   0  0  0  0  0  0  0  0  0  0  0  0
   35.5900   30.6390   50.8620 H   0  0  0  0  0  0  0  0  0  0  0  0
   38.1770   31.3960   45.5320 C   0  0  0  0  0  0  0  0  0  0  0  0
   38.4580   32.3500   46.4650 C   0  0  0  0  0  0  0  0  0  0  0  0
   39.6800   32.9890   46.5480 C   0  0  0  0  0  0  0  0  0  0  0  0
   40.6510   32.6230   45.6210 C   0  0  0  0  0  0  0  0  0  0  0  0
   40.4340   31.6760   44.6580 C   0  0  0  0  0  0  0  0  0  0  0  0
   39.1750   31.0740   44.6390 C   0  0  0  0  0  0  0  0  0  0  0  0
   37.8130   32.7780   47.2100 H   0  0  0  0  0  0  0  0  0  0  0  0
   39.9940   33.7470   47.2470 H   0  0  0  0  0  0  0  0  0  0  0  0
   41.6540   33.0680   45.6000 H   0  0  0  0  0  0  0  0  0  0  0  0
   41.2120   31.4010   43.9340 H   0  0  0  0  0  0  0  0  0  0  0  0
   38.9020   30.0520   43.6080 C   0  0  0  0  0  0  0  0  0  0  0  0
   39.4570   30.3420   42.6890 H   0  0  0  0  0  0  0  0  0  0  0  0
   37.8560   29.9740   43.3020 H   0  0  0  0  0  0  0  0  0  0  0  0
   39.4240   26.5610   43.3720 H   0  0  0  0  0  0  0  0  0  0  0  0
   39.1860   27.5930   43.1630 C   0  0  0  0  0  0  0  0  0  0  0  0
   38.8170   27.6530   41.9620 O   0  0  0  0  0  0  0  0  0  0  0  0
   39.2660   28.7000   44.0590 N   0  0  0  0  0  0  0  0  0  0  0  0
   39.6020   28.4070   45.0140 H   0  0  0  0  0  0  0  0  0  0  0  0
  1  2  1  0  0  0  0
  1  7  1  0  0  0  0
  2  9  1  0  0  0  0
  3  2  2  0  0  0  0
  4  3  1  0  0  0  0
  5  4  2  0  0  0  0
  5  6  1  0  0  0  0
  6  1  2  0  0  0  0
  8  5  1  0  0  0  0
  9 10  1  0  0  0  0
  9 13  1  0  0  0  0
 10 11  1  0  0  0  0
 10 14  1  0  0  0  0
 11 12  1  0  0  0  0
 11 16  1  0  0  0  0
 12 19  1  0  0  0  0
 13 20  1  6  0  0  0
 13 12  1  0  0  0  0
 13 23  1  0  0  0  0
 15 10  1  0  0  0  0
 17 11  1  0  0  0  0
 18 12  1  0  0  0  0
 21 24  1  0  0  0  0
 22 21  2  0  0  0  0
 23 21  1  0  0  0  0
 23 25  1  0  0  0  0
 26  3  1  0  0  0  0
 26 27  1  0  0  0  0
 27 28  2  0  0  0  0
 27 32  1  0  0  0  0
 28 33  1  0  0  0  0
 29 28  1  0  0  0  0
 30 29  2  0  0  0  0
 31 30  1  0  0  0  0
 31 26  2  0  0  0  0
 34 29  1  0  0  0  0
 35 30  1  0  0  0  0
 36 42  1  0  0  0  0
 36 31  1  0  0  0  0
 37 36  1  0  0  0  0
 38 36  1  0  0  0  0
 40 39  1  0  0  0  0
 40 42  1  0  0  0  0
 41 40  2  0  0  0  0
 42 43  1  0  0  0  0
M  END
>  <minimizedAffinity>
-5.60377741

>  <minimizedRMSD>
0.836064279

$$$$
