
 OpenBabel03272508433D

 23 24  0  0  0  0  0  0  0  0999 V2000
   35.5750   29.5110   49.7470 C   0  0  0  0  0  0  0  0  0  0  0  0
   35.7430   29.3020   51.0930 C   0  0  0  0  0  0  0  0  0  0  0  0
   36.9640   29.9110   51.3680 C   0  0  0  0  0  0  0  0  0  0  0  0
   37.4590   30.4430   50.2060 C   0  0  0  0  0  0  0  0  0  0  0  0
   36.6050   30.1840   49.2660 O   0  0  0  0  0  0  0  0  0  0  0  0
   35.0740   28.7830   51.7690 H   0  0  0  0  0  0  0  0  0  0  0  0
   37.3960   29.9270   52.3560 H   0  0  0  0  0  0  0  0  0  0  0  0
   39.6930   33.0350   49.4610 H   0  0  0  0  0  0  0  0  0  0  0  0
   38.7570   32.5070   49.6080 C   0  0  0  0  0  0  0  0  0  0  0  0
   37.7200   33.1740   49.4020 O   0  0  0  0  0  0  0  0  0  0  0  0
   38.6730   31.1540   50.0080 N   0  0  0  0  0  0  0  0  0  0  0  0
   39.6020   30.7120   50.1470 H   0  0  0  0  0  0  0  0  0  0  0  0
   34.4170   29.0500   48.9690 C   0  0  0  0  0  0  0  0  0  0  0  0
   33.5560   28.3600   49.5630 O   0  0  0  0  0  0  0  0  0  0  0  0
   32.9110   29.6580   45.7120 C   0  0  0  0  0  0  0  0  0  0  0  0
   34.0170   30.0310   44.9270 C   0  0  0  0  0  0  0  0  0  0  0  0
   35.2720   30.0780   45.5020 C   0  0  0  0  0  0  0  0  0  0  0  0
   35.3650   29.7540   46.8120 N   0  0  0  0  0  0  0  0  0  0  0  0
   34.3000   29.3950   47.5600 C   0  0  0  0  0  0  0  0  0  0  0  0
   33.0770   29.3490   47.0030 N   0  0  0  0  0  0  0  0  0  0  0  0
   31.9010   29.6040   45.3100 H   0  0  0  0  0  0  0  0  0  0  0  0
   33.7910   30.2640   43.8950 H   0  0  0  0  0  0  0  0  0  0  0  0
   36.1000   30.3640   44.8920 H   0  0  0  0  0  0  0  0  0  0  0  0
  1  2  2  0  0  0  0
  2  3  1  0  0  0  0
  2  6  1  0  0  0  0
  3  7  1  0  0  0  0
  4  3  2  0  0  0  0
  5  1  1  0  0  0  0
  5  4  1  0  0  0  0
  8  9  1  0  0  0  0
  9 11  1  0  0  0  0
 10  9  2  0  0  0  0
 11 12  1  0  0  0  0
 11  4  1  0  0  0  0
 13 14  2  0  0  0  0
 13  1  1  0  0  0  0
 15 20  1  0  0  0  0
 16 17  1  0  0  0  0
 16 15  2  0  0  0  0
 17 18  2  0  0  0  0
 18 19  1  0  0  0  0
 19 13  1  0  0  0  0
 20 19  2  0  0  0  0
 21 15  1  0  0  0  0
 22 16  1  0  0  0  0
 23 17  1  0  0  0  0
M  END
>  <minimizedAffinity>
-4.680583

>  <minimizedRMSD>
1.59128296

$$$$
