
 OpenBabel03272509153D

 43 45  0  0  1  0  0  0  0  0999 V2000
   34.8660   30.0670   46.8410 C   0  0  0  0  0  0  0  0  0  0  0  0
   36.1850   30.5720   46.9090 C   0  0  0  0  0  0  0  0  0  0  0  0
   36.8850   30.7320   45.7070 C   0  0  0  0  0  0  0  0  0  0  0  0
   36.2630   30.3940   44.5510 N   0  0  0  0  0  0  0  0  0  0  0  0
   35.0160   29.9190   44.5140 C   0  0  0  0  0  0  0  0  0  0  0  0
   34.3190   29.7540   45.6470 N   0  0  0  0  0  0  0  0  0  0  0  0
   34.2420   29.9140   47.6910 H   0  0  0  0  0  0  0  0  0  0  0  0
   34.5820   29.6710   43.5450 H   0  0  0  0  0  0  0  0  0  0  0  0
   36.6790   30.8600   48.2380 N   0  0  0  0  0  0  0  0  0  0  0  0
   37.1080   31.9650   49.0270 C   0  0  0  0  0  0  0  0  0  0  0  0
   38.4270   31.5060   49.5760 C   0  0  0  0  0  0  0  0  0  0  0  0
   38.2150   30.0010   49.7760 C   0  0  0  0  0  0  0  0  0  0  0  0
   36.8610   29.7500   49.2230 C   0  0  1  0  0  0  0  0  0  0  0  0
   36.4200   31.9680   49.9300 H   0  0  0  0  0  0  0  0  0  0  0  0
   37.0250   32.9710   48.6640 H   0  0  0  0  0  0  0  0  0  0  0  0
   38.5990   32.0000   50.5510 H   0  0  0  0  0  0  0  0  0  0  0  0
   39.2870   31.6820   48.9070 H   0  0  0  0  0  0  0  0  0  0  0  0
   39.0250   29.4590   49.2540 H   0  0  0  0  0  0  0  0  0  0  0  0
   38.2350   29.8020   50.8830 H   0  0  0  0  0  0  0  0  0  0  0  0
   36.7200   28.7850   48.7410 H   0  0  0  0  0  0  0  0  0  0  0  0
   34.8090   29.0260   50.4310 C   0  0  0  0  0  0  0  0  0  0  0  0
   34.5100   28.0840   49.6340 O   0  0  0  0  0  0  0  0  0  0  0  0
   35.8870   29.9610   50.2890 N   0  0  0  0  0  0  0  0  0  0  0  0
   34.0540   28.9170   51.1980 H   0  0  0  0  0  0  0  0  0  0  0  0
   35.6980   30.6270   51.0620 H   0  0  0  0  0  0  0  0  0  0  0  0
   38.2290   31.2360   45.6670 C   0  0  0  0  0  0  0  0  0  0  0  0
   38.4750   32.4540   46.2260 C   0  0  0  0  0  0  0  0  0  0  0  0
   39.7300   33.0310   46.2570 C   0  0  0  0  0  0  0  0  0  0  0  0
   40.7720   32.3130   45.6790 C   0  0  0  0  0  0  0  0  0  0  0  0
   40.5940   31.0880   45.0990 C   0  0  0  0  0  0  0  0  0  0  0  0
   39.2970   30.5700   45.1080 C   0  0  0  0  0  0  0  0  0  0  0  0
   37.7840   33.1500   46.6630 H   0  0  0  0  0  0  0  0  0  0  0  0
   40.0210   33.9810   46.6760 H   0  0  0  0  0  0  0  0  0  0  0  0
   41.8060   32.6810   45.6500 H   0  0  0  0  0  0  0  0  0  0  0  0
   41.4280   30.5360   44.6470 H   0  0  0  0  0  0  0  0  0  0  0  0
   39.0650   29.2510   44.4850 C   0  0  0  0  0  0  0  0  0  0  0  0
   37.9680   29.1330   44.3440 H   0  0  0  0  0  0  0  0  0  0  0  0
   39.3720   28.3950   45.0900 H   0  0  0  0  0  0  0  0  0  0  0  0
   40.3850   27.5900   41.6540 H   0  0  0  0  0  0  0  0  0  0  0  0
   39.8810   27.8260   42.5790 C   0  0  0  0  0  0  0  0  0  0  0  0
   39.3700   26.7620   43.0080 O   0  0  0  0  0  0  0  0  0  0  0  0
   39.7960   29.1010   43.2180 N   0  0  0  0  0  0  0  0  0  0  0  0
   40.3010   29.8470   42.6710 H   0  0  0  0  0  0  0  0  0  0  0  0
  1  2  1  0  0  0  0
  1  7  1  0  0  0  0
  2  9  1  0  0  0  0
  3  2  2  0  0  0  0
  4  3  1  0  0  0  0
  5  4  2  0  0  0  0
  5  6  1  0  0  0  0
  6  1  2  0  0  0  0
  8  5  1  0  0  0  0
  9 10  1  0  0  0  0
  9 13  1  0  0  0  0
 10 11  1  0  0  0  0
 10 14  1  0  0  0  0
 11 12  1  0  0  0  0
 11 16  1  0  0  0  0
 12 19  1  0  0  0  0
 13 20  1  6  0  0  0
 13 12  1  0  0  0  0
 13 23  1  0  0  0  0
 15 10  1  0  0  0  0
 17 11  1  0  0  0  0
 18 12  1  0  0  0  0
 21 24  1  0  0  0  0
 22 21  2  0  0  0  0
 23 21  1  0  0  0  0
 23 25  1  0  0  0  0
 26  3  1  0  0  0  0
 26 27  1  0  0  0  0
 27 28  2  0  0  0  0
 27 32  1  0  0  0  0
 28 33  1  0  0  0  0
 29 28  1  0  0  0  0
 30 31  1  0  0  0  0
 30 29  2  0  0  0  0
 31 26  2  0  0  0  0
 34 29  1  0  0  0  0
 35 30  1  0  0  0  0
 36 38  1  0  0  0  0
 36 31  1  0  0  0  0
 37 36  1  0  0  0  0
 39 40  1  0  0  0  0
 40 41  2  0  0  0  0
 40 42  1  0  0  0  0
 42 36  1  0  0  0  0
 43 42  1  0  0  0  0
M  END
>  <minimizedAffinity>
-5.76121283

>  <minimizedRMSD>
0.891466975

$$$$
