
 OpenBabel03272508433D

 23 24  0  0  0  0  0  0  0  0999 V2000
   35.7670   30.2420   50.0870 C   0  0  0  0  0  0  0  0  0  0  0  0
   36.8220   29.6860   50.7680 C   0  0  0  0  0  0  0  0  0  0  0  0
   37.8380   30.6250   50.6170 C   0  0  0  0  0  0  0  0  0  0  0  0
   37.3600   31.6710   49.8730 C   0  0  0  0  0  0  0  0  0  0  0  0
   36.1260   31.4070   49.5780 O   0  0  0  0  0  0  0  0  0  0  0  0
   36.8420   28.7390   51.2940 H   0  0  0  0  0  0  0  0  0  0  0  0
   38.8210   30.4900   51.0410 H   0  0  0  0  0  0  0  0  0  0  0  0
   39.3870   33.8590   48.0390 H   0  0  0  0  0  0  0  0  0  0  0  0
   38.8750   32.9510   48.3330 C   0  0  0  0  0  0  0  0  0  0  0  0
   39.0590   31.9600   47.5930 O   0  0  0  0  0  0  0  0  0  0  0  0
   38.0410   32.8510   49.4710 N   0  0  0  0  0  0  0  0  0  0  0  0
   37.9680   33.7410   50.0010 H   0  0  0  0  0  0  0  0  0  0  0  0
   34.4410   29.6220   49.9530 C   0  0  0  0  0  0  0  0  0  0  0  0
   33.6570   29.7130   50.9260 O   0  0  0  0  0  0  0  0  0  0  0  0
   32.9500   27.1600   47.7260 C   0  0  0  0  0  0  0  0  0  0  0  0
   33.3670   27.6010   46.4580 C   0  0  0  0  0  0  0  0  0  0  0  0
   34.1520   28.7330   46.3560 C   0  0  0  0  0  0  0  0  0  0  0  0
   34.4810   29.3620   47.5090 N   0  0  0  0  0  0  0  0  0  0  0  0
   34.0790   28.9340   48.7240 C   0  0  0  0  0  0  0  0  0  0  0  0
   33.3140   27.8320   48.8240 N   0  0  0  0  0  0  0  0  0  0  0  0
   32.3320   26.2750   47.8620 H   0  0  0  0  0  0  0  0  0  0  0  0
   33.0270   26.9980   45.6260 H   0  0  0  0  0  0  0  0  0  0  0  0
   34.4590   29.0540   45.3860 H   0  0  0  0  0  0  0  0  0  0  0  0
  1  2  2  0  0  0  0
  2  6  1  0  0  0  0
  3  2  1  0  0  0  0
  3  7  1  0  0  0  0
  4  3  2  0  0  0  0
  5  4  1  0  0  0  0
  5  1  1  0  0  0  0
  8  9  1  0  0  0  0
  9 11  1  0  0  0  0
 10  9  2  0  0  0  0
 11  4  1  0  0  0  0
 11 12  1  0  0  0  0
 13  1  1  0  0  0  0
 13 14  2  0  0  0  0
 15 21  1  0  0  0  0
 15 20  1  0  0  0  0
 16 15  2  0  0  0  0
 17 16  1  0  0  0  0
 17 18  2  0  0  0  0
 18 19  1  0  0  0  0
 19 20  2  0  0  0  0
 19 13  1  0  0  0  0
 22 16  1  0  0  0  0
 23 17  1  0  0  0  0
M  END
>  <minimizedAffinity>
-4.75176907

>  <minimizedRMSD>
1.89378488

$$$$
