
 OpenBabel03272508433D

 23 24  0  0  0  0  0  0  0  0999 V2000
   36.5530   30.5100   50.0050 C   0  0  0  0  0  0  0  0  0  0  0  0
   37.7370   30.2940   50.6660 C   0  0  0  0  0  0  0  0  0  0  0  0
   38.5660   31.3040   50.1860 C   0  0  0  0  0  0  0  0  0  0  0  0
   37.8620   32.0570   49.2840 C   0  0  0  0  0  0  0  0  0  0  0  0
   36.6700   31.5540   49.2030 O   0  0  0  0  0  0  0  0  0  0  0  0
   37.9570   29.5180   51.3880 H   0  0  0  0  0  0  0  0  0  0  0  0
   39.5890   31.4190   50.5120 H   0  0  0  0  0  0  0  0  0  0  0  0
   39.5410   35.0140   48.4440 H   0  0  0  0  0  0  0  0  0  0  0  0
   39.2160   34.1560   49.0220 C   0  0  0  0  0  0  0  0  0  0  0  0
   39.7030   34.0590   50.1680 O   0  0  0  0  0  0  0  0  0  0  0  0
   38.3020   33.1880   48.5450 N   0  0  0  0  0  0  0  0  0  0  0  0
   37.9710   33.3800   47.5800 H   0  0  0  0  0  0  0  0  0  0  0  0
   35.3430   29.6930   50.1720 C   0  0  0  0  0  0  0  0  0  0  0  0
   35.0970   29.2480   51.3170 O   0  0  0  0  0  0  0  0  0  0  0  0
   32.8730   28.0460   48.0670 C   0  0  0  0  0  0  0  0  0  0  0  0
   32.8420   28.8700   46.9280 C   0  0  0  0  0  0  0  0  0  0  0  0
   33.6570   29.9840   46.8730 C   0  0  0  0  0  0  0  0  0  0  0  0
   34.4540   30.2190   47.9410 N   0  0  0  0  0  0  0  0  0  0  0  0
   34.4810   29.4250   49.0320 C   0  0  0  0  0  0  0  0  0  0  0  0
   33.6870   28.3400   49.0870 N   0  0  0  0  0  0  0  0  0  0  0  0
   32.2520   27.1570   48.1610 H   0  0  0  0  0  0  0  0  0  0  0  0
   32.1560   28.5580   46.1520 H   0  0  0  0  0  0  0  0  0  0  0  0
   33.6210   30.5990   46.0010 H   0  0  0  0  0  0  0  0  0  0  0  0
  1 13  1  0  0  0  0
  1  2  2  0  0  0  0
  2  6  1  0  0  0  0
  3  7  1  0  0  0  0
  3  2  1  0  0  0  0
  4  3  2  0  0  0  0
  5  4  1  0  0  0  0
  5  1  1  0  0  0  0
  8  9  1  0  0  0  0
  9 10  2  0  0  0  0
 11  9  1  0  0  0  0
 11  4  1  0  0  0  0
 12 11  1  0  0  0  0
 13 14  2  0  0  0  0
 15 21  1  0  0  0  0
 15 20  1  0  0  0  0
 16 15  2  0  0  0  0
 17 16  1  0  0  0  0
 17 18  2  0  0  0  0
 18 19  1  0  0  0  0
 19 20  2  0  0  0  0
 19 13  1  0  0  0  0
 22 16  1  0  0  0  0
 23 17  1  0  0  0  0
M  END
>  <minimizedAffinity>
-5.19527864

>  <minimizedRMSD>
1.78787863

$$$$
