
 OpenBabel03272506593D

 24 25  0  0  0  0  0  0  0  0999 V2000
   38.1650   25.4930   35.0940 C   0  0  0  0  0  0  0  0  0  0  0  0
   37.9470   26.7500   35.6150 C   0  0  0  0  0  0  0  0  0  0  0  0
   37.3170   27.7980   34.9740 C   0  0  0  0  0  0  0  0  0  0  0  0
   36.8800   27.5380   33.7060 N   0  0  0  0  0  0  0  0  0  0  0  0
   37.0840   26.3090   33.1730 C   0  0  0  0  0  0  0  0  0  0  0  0
   37.7050   25.3160   33.8410 N   0  0  0  0  0  0  0  0  0  0  0  0
   38.2880   26.9680   36.6200 H   0  0  0  0  0  0  0  0  0  0  0  0
   37.1860   28.7590   35.4620 H   0  0  0  0  0  0  0  0  0  0  0  0
   35.6070   26.8630   30.0830 H   0  0  0  0  0  0  0  0  0  0  0  0
   35.9590   27.0660   31.1000 C   0  0  0  0  0  0  0  0  0  0  0  0
   35.8100   28.1790   31.6660 O   0  0  0  0  0  0  0  0  0  0  0  0
   36.6190   26.0650   31.8500 N   0  0  0  0  0  0  0  0  0  0  0  0
   36.7520   25.1350   31.3970 H   0  0  0  0  0  0  0  0  0  0  0  0
   40.5480   22.8890   35.9180 C   0  0  0  0  0  0  0  0  0  0  0  0
   40.2060   22.4790   37.2130 C   0  0  0  0  0  0  0  0  0  0  0  0
   39.1050   23.1460   37.8030 C   0  0  0  0  0  0  0  0  0  0  0  0
   38.4720   24.1060   37.0980 N   0  0  0  0  0  0  0  0  0  0  0  0
   38.8430   24.4570   35.8610 C   0  0  0  0  0  0  0  0  0  0  0  0
   39.8960   23.8540   35.2390 N   0  0  0  0  0  0  0  0  0  0  0  0
   41.3790   22.4190   35.4150 H   0  0  0  0  0  0  0  0  0  0  0  0
   38.8180   22.8480   38.8050 H   0  0  0  0  0  0  0  0  0  0  0  0
   40.9350   21.4550   37.8760 N   0  0  0  0  0  0  0  0  0  0  0  0
   40.9680   21.4720   38.9240 H   0  0  0  0  0  0  0  0  0  0  0  0
   41.3860   20.7550   37.2490 H   0  0  0  0  0  0  0  0  0  0  0  0
  1  2  1  0  0  0  0
  1 18  1  0  0  0  0
  2  7  1  0  0  0  0
  3  8  1  0  0  0  0
  3  2  2  0  0  0  0
  4  3  1  0  0  0  0
  5  4  2  0  0  0  0
  5  6  1  0  0  0  0
  6  1  2  0  0  0  0
  9 10  1  0  0  0  0
 10 11  2  0  0  0  0
 10 12  1  0  0  0  0
 12  5  1  0  0  0  0
 13 12  1  0  0  0  0
 14 15  1  0  0  0  0
 15 16  2  0  0  0  0
 15 22  1  0  0  0  0
 16 21  1  0  0  0  0
 17 16  1  0  0  0  0
 18 17  2  0  0  0  0
 19 18  1  0  0  0  0
 19 14  2  0  0  0  0
 20 14  1  0  0  0  0
 22 23  1  0  0  0  0
 24 22  1  0  0  0  0
M  END
>  <minimizedAffinity>
-4.98979044

$$$$

 OpenBabel03272506593D

 24 25  0  0  0  0  0  0  0  0999 V2000
   37.9820   25.8020   34.6650 C   0  0  0  0  0  0  0  0  0  0  0  0
   37.3360   26.8680   35.2500 C   0  0  0  0  0  0  0  0  0  0  0  0
   36.6780   27.8850   34.5870 C   0  0  0  0  0  0  0  0  0  0  0  0
   36.6830   27.8000   33.2230 N   0  0  0  0  0  0  0  0  0  0  0  0
   37.3130   26.7610   32.6260 C   0  0  0  0  0  0  0  0  0  0  0  0
   37.9420   25.7900   33.3180 N   0  0  0  0  0  0  0  0  0  0  0  0
   37.3250   26.9460   36.3310 H   0  0  0  0  0  0  0  0  0  0  0  0
   36.1930   28.6900   35.1310 H   0  0  0  0  0  0  0  0  0  0  0  0
   36.6600   27.6220   29.3280 H   0  0  0  0  0  0  0  0  0  0  0  0
   36.6590   27.6840   30.4230 C   0  0  0  0  0  0  0  0  0  0  0  0
   36.0980   28.6170   31.0540 O   0  0  0  0  0  0  0  0  0  0  0  0
   37.3030   26.6970   31.2040 N   0  0  0  0  0  0  0  0  0  0  0  0
   37.7730   25.9150   30.6980 H   0  0  0  0  0  0  0  0  0  0  0  0
   38.6490   23.5530   37.4280 C   0  0  0  0  0  0  0  0  0  0  0  0
   39.8150   22.8660   37.0650 C   0  0  0  0  0  0  0  0  0  0  0  0
   40.3730   23.2130   35.8100 C   0  0  0  0  0  0  0  0  0  0  0  0
   39.7620   24.1570   35.0660 N   0  0  0  0  0  0  0  0  0  0  0  0
   38.6470   24.7810   35.4630 C   0  0  0  0  0  0  0  0  0  0  0  0
   38.0610   24.4920   36.6600 N   0  0  0  0  0  0  0  0  0  0  0  0
   38.1770   23.3330   38.3730 H   0  0  0  0  0  0  0  0  0  0  0  0
   41.2760   22.6970   35.5040 H   0  0  0  0  0  0  0  0  0  0  0  0
   40.3870   21.8840   37.9200 N   0  0  0  0  0  0  0  0  0  0  0  0
   40.9430   21.1120   37.4810 H   0  0  0  0  0  0  0  0  0  0  0  0
   40.1990   22.0190   38.9360 H   0  0  0  0  0  0  0  0  0  0  0  0
  1  2  1  0  0  0  0
  1 18  1  0  0  0  0
  2  7  1  0  0  0  0
  3  8  1  0  0  0  0
  3  2  2  0  0  0  0
  4  3  1  0  0  0  0
  5  4  2  0  0  0  0
  5  6  1  0  0  0  0
  6  1  2  0  0  0  0
  9 10  1  0  0  0  0
 10 11  2  0  0  0  0
 10 12  1  0  0  0  0
 12  5  1  0  0  0  0
 13 12  1  0  0  0  0
 14 20  1  0  0  0  0
 15 14  1  0  0  0  0
 15 22  1  0  0  0  0
 16 15  2  0  0  0  0
 17 18  2  0  0  0  0
 17 16  1  0  0  0  0
 18 19  1  0  0  0  0
 19 14  2  0  0  0  0
 21 16  1  0  0  0  0
 22 24  1  0  0  0  0
 23 22  1  0  0  0  0
M  END
>  <minimizedAffinity>
-4.76017618

$$$$

 OpenBabel03272506593D

 24 25  0  0  0  0  0  0  0  0999 V2000
   37.7300   25.6200   34.6170 C   0  0  0  0  0  0  0  0  0  0  0  0
   37.5830   25.3490   33.2750 C   0  0  0  0  0  0  0  0  0  0  0  0
   36.9990   26.1750   32.3360 C   0  0  0  0  0  0  0  0  0  0  0  0
   36.5300   27.3680   32.8100 N   0  0  0  0  0  0  0  0  0  0  0  0
   36.6620   27.6560   34.1270 C   0  0  0  0  0  0  0  0  0  0  0  0
   37.2420   26.8140   35.0060 N   0  0  0  0  0  0  0  0  0  0  0  0
   37.9520   24.4060   32.8870 H   0  0  0  0  0  0  0  0  0  0  0  0
   36.9260   25.8800   31.2940 H   0  0  0  0  0  0  0  0  0  0  0  0
   35.1680   30.7880   34.0950 H   0  0  0  0  0  0  0  0  0  0  0  0
   35.5470   29.8300   33.7210 C   0  0  0  0  0  0  0  0  0  0  0  0
   35.4630   29.4860   32.5140 O   0  0  0  0  0  0  0  0  0  0  0  0
   36.1640   28.9050   34.5940 N   0  0  0  0  0  0  0  0  0  0  0  0
   36.2430   29.1730   35.6000 H   0  0  0  0  0  0  0  0  0  0  0  0
   40.1850   23.2960   35.9230 C   0  0  0  0  0  0  0  0  0  0  0  0
   39.6650   22.8680   37.1510 C   0  0  0  0  0  0  0  0  0  0  0  0
   38.4140   23.4210   37.5200 C   0  0  0  0  0  0  0  0  0  0  0  0
   37.8210   24.2990   36.6860 N   0  0  0  0  0  0  0  0  0  0  0  0
   38.3650   24.6720   35.5230 C   0  0  0  0  0  0  0  0  0  0  0  0
   39.5670   24.1770   35.1110 N   0  0  0  0  0  0  0  0  0  0  0  0
   41.1350   22.9100   35.5870 H   0  0  0  0  0  0  0  0  0  0  0  0
   37.9880   23.1070   38.4660 H   0  0  0  0  0  0  0  0  0  0  0  0
   40.3670   21.9360   37.9630 N   0  0  0  0  0  0  0  0  0  0  0  0
   40.2130   21.9700   38.9990 H   0  0  0  0  0  0  0  0  0  0  0  0
   40.9900   21.2800   37.4460 H   0  0  0  0  0  0  0  0  0  0  0  0
  1  6  1  0  0  0  0
  1 18  1  0  0  0  0
  2  1  2  0  0  0  0
  3  4  2  0  0  0  0
  3  2  1  0  0  0  0
  4  5  1  0  0  0  0
  5 12  1  0  0  0  0
  5  6  2  0  0  0  0
  7  2  1  0  0  0  0
  8  3  1  0  0  0  0
 10  9  1  0  0  0  0
 10 12  1  0  0  0  0
 11 10  2  0  0  0  0
 12 13  1  0  0  0  0
 14 15  1  0  0  0  0
 15 16  2  0  0  0  0
 15 22  1  0  0  0  0
 16 21  1  0  0  0  0
 17 16  1  0  0  0  0
 18 17  2  0  0  0  0
 19 18  1  0  0  0  0
 19 14  2  0  0  0  0
 20 14  1  0  0  0  0
 22 23  1  0  0  0  0
 24 22  1  0  0  0  0
M  END
>  <minimizedAffinity>
-4.74016953

$$$$

 OpenBabel03272506593D

 24 25  0  0  0  0  0  0  0  0999 V2000
   37.8590   25.2690   33.7830 C   0  0  0  0  0  0  0  0  0  0  0  0
   38.2300   24.7570   32.5600 C   0  0  0  0  0  0  0  0  0  0  0  0
   38.0210   25.3510   31.3310 C   0  0  0  0  0  0  0  0  0  0  0  0
   37.3820   26.5580   31.3610 N   0  0  0  0  0  0  0  0  0  0  0  0
   37.0060   27.0810   32.5520 C   0  0  0  0  0  0  0  0  0  0  0  0
   37.2350   26.4610   33.7280 N   0  0  0  0  0  0  0  0  0  0  0  0
   38.7380   23.8000   32.5240 H   0  0  0  0  0  0  0  0  0  0  0  0
   38.3490   24.8750   30.4120 H   0  0  0  0  0  0  0  0  0  0  0  0
   35.5630   30.0070   31.3720 H   0  0  0  0  0  0  0  0  0  0  0  0
   36.0750   29.0380   31.3540 C   0  0  0  0  0  0  0  0  0  0  0  0
   36.4550   28.4850   30.2910 O   0  0  0  0  0  0  0  0  0  0  0  0
   36.3420   28.3400   32.5550 N   0  0  0  0  0  0  0  0  0  0  0  0
   36.0340   28.7840   33.4470 H   0  0  0  0  0  0  0  0  0  0  0  0
   38.0150   24.5750   37.3370 C   0  0  0  0  0  0  0  0  0  0  0  0
   38.5970   23.3050   37.4350 C   0  0  0  0  0  0  0  0  0  0  0  0
   38.9400   22.6850   36.2090 C   0  0  0  0  0  0  0  0  0  0  0  0
   38.6910   23.3400   35.0570 N   0  0  0  0  0  0  0  0  0  0  0  0
   38.1310   24.5550   35.0240 C   0  0  0  0  0  0  0  0  0  0  0  0
   37.7770   25.2040   36.1690 N   0  0  0  0  0  0  0  0  0  0  0  0
   37.7320   25.0990   38.2380 H   0  0  0  0  0  0  0  0  0  0  0  0
   39.3930   21.7010   36.2550 H   0  0  0  0  0  0  0  0  0  0  0  0
   38.8210   22.6940   38.6990 N   0  0  0  0  0  0  0  0  0  0  0  0
   38.8270   21.6460   38.7470 H   0  0  0  0  0  0  0  0  0  0  0  0
   38.9640   23.3550   39.4920 H   0  0  0  0  0  0  0  0  0  0  0  0
  1 18  1  0  0  0  0
  2  1  2  0  0  0  0
  3  4  2  0  0  0  0
  3  2  1  0  0  0  0
  4  5  1  0  0  0  0
  5 12  1  0  0  0  0
  5  6  2  0  0  0  0
  6  1  1  0  0  0  0
  7  2  1  0  0  0  0
  8  3  1  0  0  0  0
 10  9  1  0  0  0  0
 10 12  1  0  0  0  0
 11 10  2  0  0  0  0
 12 13  1  0  0  0  0
 14 15  1  0  0  0  0
 14 20  1  0  0  0  0
 15 22  1  0  0  0  0
 16 21  1  0  0  0  0
 16 15  2  0  0  0  0
 17 16  1  0  0  0  0
 18 17  2  0  0  0  0
 18 19  1  0  0  0  0
 19 14  2  0  0  0  0
 22 23  1  0  0  0  0
 22 24  1  0  0  0  0
M  END
>  <minimizedAffinity>
-4.60385752

$$$$

 OpenBabel03272506593D

 24 25  0  0  0  0  0  0  0  0999 V2000
   37.8350   26.5600   34.0200 C   0  0  0  0  0  0  0  0  0  0  0  0
   38.1690   27.4420   35.0250 C   0  0  0  0  0  0  0  0  0  0  0  0
   38.4090   27.1180   36.3450 C   0  0  0  0  0  0  0  0  0  0  0  0
   38.2980   25.7930   36.6580 N   0  0  0  0  0  0  0  0  0  0  0  0
   37.9690   24.9080   35.6870 C   0  0  0  0  0  0  0  0  0  0  0  0
   37.7450   25.2730   34.4090 N   0  0  0  0  0  0  0  0  0  0  0  0
   38.2610   28.4950   34.7880 H   0  0  0  0  0  0  0  0  0  0  0  0
   38.6680   27.8810   37.0730 H   0  0  0  0  0  0  0  0  0  0  0  0
   37.9960   22.0260   37.6200 H   0  0  0  0  0  0  0  0  0  0  0  0
   38.0840   23.0880   37.3630 C   0  0  0  0  0  0  0  0  0  0  0  0
   38.3840   23.9730   38.2060 O   0  0  0  0  0  0  0  0  0  0  0  0
   37.8600   23.5330   36.0400 N   0  0  0  0  0  0  0  0  0  0  0  0
   37.6110   22.8130   35.3270 H   0  0  0  0  0  0  0  0  0  0  0  0
   38.5130   27.9490   30.7420 C   0  0  0  0  0  0  0  0  0  0  0  0
   37.2880   27.8990   30.0650 C   0  0  0  0  0  0  0  0  0  0  0  0
   36.1990   27.3600   30.7930 C   0  0  0  0  0  0  0  0  0  0  0  0
   36.4080   26.9400   32.0580 N   0  0  0  0  0  0  0  0  0  0  0  0
   37.6020   27.0110   32.6550 C   0  0  0  0  0  0  0  0  0  0  0  0
   38.6890   27.5200   32.0080 N   0  0  0  0  0  0  0  0  0  0  0  0
   39.3800   28.3500   30.2400 H   0  0  0  0  0  0  0  0  0  0  0  0
   35.2390   27.3090   30.2930 H   0  0  0  0  0  0  0  0  0  0  0  0
   37.1670   28.3680   28.7280 N   0  0  0  0  0  0  0  0  0  0  0  0
   36.4270   27.9400   28.1200 H   0  0  0  0  0  0  0  0  0  0  0  0
   37.8400   29.1160   28.4580 H   0  0  0  0  0  0  0  0  0  0  0  0
  1  6  2  0  0  0  0
  1  2  1  0  0  0  0
  2  3  2  0  0  0  0
  3  4  1  0  0  0  0
  3  8  1  0  0  0  0
  5 12  1  0  0  0  0
  5  4  2  0  0  0  0
  6  5  1  0  0  0  0
  7  2  1  0  0  0  0
 10  9  1  0  0  0  0
 10 11  2  0  0  0  0
 12 10  1  0  0  0  0
 13 12  1  0  0  0  0
 14 19  1  0  0  0  0
 15 14  2  0  0  0  0
 15 16  1  0  0  0  0
 16 17  2  0  0  0  0
 17 18  1  0  0  0  0
 18  1  1  0  0  0  0
 19 18  2  0  0  0  0
 20 14  1  0  0  0  0
 21 16  1  0  0  0  0
 22 15  1  0  0  0  0
 23 22  1  0  0  0  0
 24 22  1  0  0  0  0
M  END
>  <minimizedAffinity>
-4.55267525

$$$$

 OpenBabel03272506593D

 24 25  0  0  0  0  0  0  0  0999 V2000
   38.3120   25.1710   34.4070 C   0  0  0  0  0  0  0  0  0  0  0  0
   37.7560   25.4400   35.6380 C   0  0  0  0  0  0  0  0  0  0  0  0
   38.0750   24.8180   36.8280 C   0  0  0  0  0  0  0  0  0  0  0  0
   39.0340   23.8480   36.7490 N   0  0  0  0  0  0  0  0  0  0  0  0
   39.5940   23.5660   35.5480 C   0  0  0  0  0  0  0  0  0  0  0  0
   39.2490   24.2040   34.4120 N   0  0  0  0  0  0  0  0  0  0  0  0
   36.9950   26.2070   35.7130 H   0  0  0  0  0  0  0  0  0  0  0  0
   37.5850   25.0940   37.7570 H   0  0  0  0  0  0  0  0  0  0  0  0
   41.7650   21.0690   36.5940 H   0  0  0  0  0  0  0  0  0  0  0  0
   40.9960   21.8480   36.6520 C   0  0  0  0  0  0  0  0  0  0  0  0
   40.4270   22.1690   37.7260 O   0  0  0  0  0  0  0  0  0  0  0  0
   40.5910   22.5510   35.4940 N   0  0  0  0  0  0  0  0  0  0  0  0
   41.0520   22.2990   34.5920 H   0  0  0  0  0  0  0  0  0  0  0  0
   36.3860   26.0420   31.4620 C   0  0  0  0  0  0  0  0  0  0  0  0
   37.0220   27.1710   30.9320 C   0  0  0  0  0  0  0  0  0  0  0  0
   38.1590   27.6310   31.6390 C   0  0  0  0  0  0  0  0  0  0  0  0
   38.5470   26.9680   32.7480 N   0  0  0  0  0  0  0  0  0  0  0  0
   37.9000   25.8920   33.2100 C   0  0  0  0  0  0  0  0  0  0  0  0
   36.7970   25.4010   32.5750 N   0  0  0  0  0  0  0  0  0  0  0  0
   35.5130   25.6440   30.9680 H   0  0  0  0  0  0  0  0  0  0  0  0
   38.6720   28.5040   31.2510 H   0  0  0  0  0  0  0  0  0  0  0  0
   36.5370   27.8030   29.7540 N   0  0  0  0  0  0  0  0  0  0  0  0
   36.7200   28.8280   29.6330 H   0  0  0  0  0  0  0  0  0  0  0  0
   36.0290   27.1780   29.0930 H   0  0  0  0  0  0  0  0  0  0  0  0
  1  6  2  0  0  0  0
  1  2  1  0  0  0  0
  2  7  1  0  0  0  0
  2  3  2  0  0  0  0
  3  8  1  0  0  0  0
  4  3  1  0  0  0  0
  5  4  2  0  0  0  0
  6  5  1  0  0  0  0
  9 10  1  0  0  0  0
 10 11  2  0  0  0  0
 12  5  1  0  0  0  0
 12 10  1  0  0  0  0
 13 12  1  0  0  0  0
 14 19  1  0  0  0  0
 15 14  2  0  0  0  0
 15 16  1  0  0  0  0
 16 17  2  0  0  0  0
 17 18  1  0  0  0  0
 18  1  1  0  0  0  0
 19 18  2  0  0  0  0
 20 14  1  0  0  0  0
 21 16  1  0  0  0  0
 22 15  1  0  0  0  0
 23 22  1  0  0  0  0
 24 22  1  0  0  0  0
M  END
>  <minimizedAffinity>
-4.51597595

$$$$

 OpenBabel03272506593D

 24 25  0  0  0  0  0  0  0  0999 V2000
   38.5190   25.1680   33.9810 C   0  0  0  0  0  0  0  0  0  0  0  0
   39.7290   24.5160   33.8900 C   0  0  0  0  0  0  0  0  0  0  0  0
   40.3420   23.7940   34.8940 C   0  0  0  0  0  0  0  0  0  0  0  0
   39.6650   23.7390   36.0800 N   0  0  0  0  0  0  0  0  0  0  0  0
   38.4740   24.3740   36.1930 C   0  0  0  0  0  0  0  0  0  0  0  0
   37.9140   25.0660   35.1800 N   0  0  0  0  0  0  0  0  0  0  0  0
   40.2750   24.5510   32.9550 H   0  0  0  0  0  0  0  0  0  0  0  0
   41.3010   23.3100   34.7350 H   0  0  0  0  0  0  0  0  0  0  0  0
   37.7860   23.5420   39.4910 H   0  0  0  0  0  0  0  0  0  0  0  0
   38.3250   23.5890   38.5370 C   0  0  0  0  0  0  0  0  0  0  0  0
   39.4350   23.0290   38.3510 O   0  0  0  0  0  0  0  0  0  0  0  0
   37.7890   24.3010   37.4390 N   0  0  0  0  0  0  0  0  0  0  0  0
   36.8690   24.7720   37.5750 H   0  0  0  0  0  0  0  0  0  0  0  0
   38.3130   27.5120   31.2240 C   0  0  0  0  0  0  0  0  0  0  0  0
   37.0200   27.3550   30.7090 C   0  0  0  0  0  0  0  0  0  0  0  0
   36.2060   26.3950   31.3580 C   0  0  0  0  0  0  0  0  0  0  0  0
   36.7160   25.7110   32.4030 N   0  0  0  0  0  0  0  0  0  0  0  0
   37.9610   25.9020   32.8530 C   0  0  0  0  0  0  0  0  0  0  0  0
   38.7940   26.8120   32.2710 N   0  0  0  0  0  0  0  0  0  0  0  0
   38.9800   28.2290   30.7720 H   0  0  0  0  0  0  0  0  0  0  0  0
   35.2000   26.2530   30.9800 H   0  0  0  0  0  0  0  0  0  0  0  0
   36.5710   28.1250   29.6010 N   0  0  0  0  0  0  0  0  0  0  0  0
   35.8330   27.7130   28.9810 H   0  0  0  0  0  0  0  0  0  0  0  0
   37.0250   29.0570   29.4960 H   0  0  0  0  0  0  0  0  0  0  0  0
  1  6  1  0  0  0  0
  2  1  2  0  0  0  0
  2  3  1  0  0  0  0
  3  4  2  0  0  0  0
  4  5  1  0  0  0  0
  5 12  1  0  0  0  0
  6  5  2  0  0  0  0
  7  2  1  0  0  0  0
  8  3  1  0  0  0  0
 10  9  1  0  0  0  0
 11 10  2  0  0  0  0
 12 13  1  0  0  0  0
 12 10  1  0  0  0  0
 14 19  1  0  0  0  0
 15 14  2  0  0  0  0
 15 16  1  0  0  0  0
 16 17  2  0  0  0  0
 17 18  1  0  0  0  0
 18  1  1  0  0  0  0
 19 18  2  0  0  0  0
 20 14  1  0  0  0  0
 21 16  1  0  0  0  0
 22 15  1  0  0  0  0
 23 22  1  0  0  0  0
 24 22  1  0  0  0  0
M  END
>  <minimizedAffinity>
-4.50045967

$$$$

 OpenBabel03272506593D

 24 25  0  0  0  0  0  0  0  0999 V2000
   38.6240   24.6310   35.8900 C   0  0  0  0  0  0  0  0  0  0  0  0
   38.1520   24.3270   37.1480 C   0  0  0  0  0  0  0  0  0  0  0  0
   38.7030   23.4140   38.0250 C   0  0  0  0  0  0  0  0  0  0  0  0
   39.8180   22.7640   37.5770 N   0  0  0  0  0  0  0  0  0  0  0  0
   40.2990   23.0460   36.3430 C   0  0  0  0  0  0  0  0  0  0  0  0
   39.7250   23.9490   35.5230 N   0  0  0  0  0  0  0  0  0  0  0  0
   37.2690   24.8370   37.5140 H   0  0  0  0  0  0  0  0  0  0  0  0
   38.2640   23.2370   39.0020 H   0  0  0  0  0  0  0  0  0  0  0  0
   43.0050   20.8730   36.3630 H   0  0  0  0  0  0  0  0  0  0  0  0
   42.1100   21.3980   36.7170 C   0  0  0  0  0  0  0  0  0  0  0  0
   41.6000   21.1930   37.8480 O   0  0  0  0  0  0  0  0  0  0  0  0
   41.4630   22.3550   35.9010 N   0  0  0  0  0  0  0  0  0  0  0  0
   41.8720   22.5380   34.9590 H   0  0  0  0  0  0  0  0  0  0  0  0
   37.1130   26.1130   32.9480 C   0  0  0  0  0  0  0  0  0  0  0  0
   36.7160   27.3950   33.3480 C   0  0  0  0  0  0  0  0  0  0  0  0
   36.9930   27.7370   34.6950 C   0  0  0  0  0  0  0  0  0  0  0  0
   37.6050   26.8290   35.4830 N   0  0  0  0  0  0  0  0  0  0  0  0
   37.9620   25.6160   35.0450 C   0  0  0  0  0  0  0  0  0  0  0  0
   37.7230   25.2280   33.7600 N   0  0  0  0  0  0  0  0  0  0  0  0
   36.9290   25.7950   31.9330 H   0  0  0  0  0  0  0  0  0  0  0  0
   36.6960   28.7230   35.0320 H   0  0  0  0  0  0  0  0  0  0  0  0
   36.0750   28.2840   32.4420 N   0  0  0  0  0  0  0  0  0  0  0  0
   35.4200   29.0020   32.8360 H   0  0  0  0  0  0  0  0  0  0  0  0
   36.3160   28.1430   31.4390 H   0  0  0  0  0  0  0  0  0  0  0  0
  1  2  1  0  0  0  0
  2  7  1  0  0  0  0
  2  3  2  0  0  0  0
  3  8  1  0  0  0  0
  4  3  1  0  0  0  0
  5  4  2  0  0  0  0
  6  1  2  0  0  0  0
  6  5  1  0  0  0  0
  9 10  1  0  0  0  0
 10 11  2  0  0  0  0
 12  5  1  0  0  0  0
 12 10  1  0  0  0  0
 13 12  1  0  0  0  0
 14 15  2  0  0  0  0
 14 19  1  0  0  0  0
 15 16  1  0  0  0  0
 16 21  1  0  0  0  0
 16 17  2  0  0  0  0
 18 17  1  0  0  0  0
 18  1  1  0  0  0  0
 19 18  2  0  0  0  0
 20 14  1  0  0  0  0
 22 23  1  0  0  0  0
 22 15  1  0  0  0  0
 24 22  1  0  0  0  0
M  END
>  <minimizedAffinity>
-4.4586277

$$$$

 OpenBabel03272506593D

 24 25  0  0  0  0  0  0  0  0999 V2000
   37.8320   25.9810   34.6010 C   0  0  0  0  0  0  0  0  0  0  0  0
   38.9560   25.3930   34.0630 C   0  0  0  0  0  0  0  0  0  0  0  0
   39.7680   24.4680   34.6870 C   0  0  0  0  0  0  0  0  0  0  0  0
   39.4010   24.1210   35.9570 N   0  0  0  0  0  0  0  0  0  0  0  0
   38.3000   24.6870   36.5070 C   0  0  0  0  0  0  0  0  0  0  0  0
   37.5370   25.5870   35.8550 N   0  0  0  0  0  0  0  0  0  0  0  0
   39.2560   25.6600   33.0570 H   0  0  0  0  0  0  0  0  0  0  0  0
   40.6380   24.0530   34.1860 H   0  0  0  0  0  0  0  0  0  0  0  0
   38.4100   23.0860   39.5830 H   0  0  0  0  0  0  0  0  0  0  0  0
   38.7000   23.3680   38.5640 C   0  0  0  0  0  0  0  0  0  0  0  0
   39.7070   22.8890   37.9830 O   0  0  0  0  0  0  0  0  0  0  0  0
   37.9400   24.3080   37.8310 N   0  0  0  0  0  0  0  0  0  0  0  0
   37.1000   24.7150   38.2970 H   0  0  0  0  0  0  0  0  0  0  0  0
   35.8710   28.9470   33.8980 C   0  0  0  0  0  0  0  0  0  0  0  0
   35.5430   28.8530   32.5400 C   0  0  0  0  0  0  0  0  0  0  0  0
   36.0320   27.7090   31.8620 C   0  0  0  0  0  0  0  0  0  0  0  0
   36.7610   26.8080   32.5510 N   0  0  0  0  0  0  0  0  0  0  0  0
   37.0450   26.9500   33.8510 C   0  0  0  0  0  0  0  0  0  0  0  0
   36.6040   28.0290   34.5590 N   0  0  0  0  0  0  0  0  0  0  0  0
   35.5280   29.7960   34.4680 H   0  0  0  0  0  0  0  0  0  0  0  0
   35.7930   27.6110   30.8090 H   0  0  0  0  0  0  0  0  0  0  0  0
   34.7660   29.8570   31.8990 N   0  0  0  0  0  0  0  0  0  0  0  0
   34.9030   30.0060   30.8700 H   0  0  0  0  0  0  0  0  0  0  0  0
   34.1090   30.3730   32.5220 H   0  0  0  0  0  0  0  0  0  0  0  0
  1  6  1  0  0  0  0
  2  1  2  0  0  0  0
  2  3  1  0  0  0  0
  3  4  2  0  0  0  0
  4  5  1  0  0  0  0
  5 12  1  0  0  0  0
  6  5  2  0  0  0  0
  7  2  1  0  0  0  0
  8  3  1  0  0  0  0
 10  9  1  0  0  0  0
 11 10  2  0  0  0  0
 12 13  1  0  0  0  0
 12 10  1  0  0  0  0
 14 20  1  0  0  0  0
 14 19  1  0  0  0  0
 15 14  2  0  0  0  0
 16 15  1  0  0  0  0
 16 17  2  0  0  0  0
 17 18  1  0  0  0  0
 18 19  2  0  0  0  0
 18  1  1  0  0  0  0
 21 16  1  0  0  0  0
 22 24  1  0  0  0  0
 22 15  1  0  0  0  0
 23 22  1  0  0  0  0
M  END
>  <minimizedAffinity>
-4.45857859

$$$$
