
 OpenBabel03272506203D

 40 42  0  0  1  0  0  0  0  0999 V2000
   36.7010   30.9290   47.5650 C   0  0  2  0  0  0  0  0  0  0  0  0
   36.2960   30.6750   46.1180 C   0  0  0  0  0  0  0  0  0  0  0  0
   37.3690   30.0610   45.2950 C   0  0  0  0  0  0  0  0  0  0  0  0
   38.6810   30.7990   45.3670 C   0  0  0  0  0  0  0  0  0  0  0  0
   39.0100   31.3140   46.7240 C   0  0  0  0  0  0  0  0  0  0  0  0
   38.1360   30.6860   47.8010 C   0  0  1  0  0  0  0  0  0  0  0  0
   36.4060   31.9620   47.8350 H   0  0  0  0  0  0  0  0  0  0  0  0
   35.4170   29.9970   46.0670 H   0  0  0  0  0  0  0  0  0  0  0  0
   35.9620   31.6270   45.6670 H   0  0  0  0  0  0  0  0  0  0  0  0
   37.5550   29.0180   45.6630 H   0  0  0  0  0  0  0  0  0  0  0  0
   37.0350   30.0780   44.2440 H   0  0  0  0  0  0  0  0  0  0  0  0
   38.7790   31.5840   44.5970 H   0  0  0  0  0  0  0  0  0  0  0  0
   39.4780   30.0470   45.0910 H   0  0  0  0  0  0  0  0  0  0  0  0
   40.0610   31.1590   47.0340 H   0  0  0  0  0  0  0  0  0  0  0  0
   38.8720   32.4230   46.7340 H   0  0  0  0  0  0  0  0  0  0  0  0
   38.3490   29.5820   47.7160 H   0  0  0  0  0  0  0  0  0  0  0  0
   35.9220   29.9990   48.4450 C   0  0  0  0  0  0  0  0  0  0  0  0
   35.1100   29.0700   47.7900 C   0  0  0  0  0  0  0  0  0  0  0  0
   34.3690   28.1980   48.6060 C   0  0  0  0  0  0  0  0  0  0  0  0
   34.4700   28.2920   49.9810 N   0  0  0  0  0  0  0  0  0  0  0  0
   35.2800   29.2210   50.5680 C   0  0  0  0  0  0  0  0  0  0  0  0
   35.9890   30.0540   49.8070 N   0  0  0  0  0  0  0  0  0  0  0  0
   33.5210   27.2150   48.0410 N   0  0  0  0  0  0  0  0  0  0  0  0
   34.0090   26.2400   47.2130 C   0  0  0  0  0  0  0  0  0  0  0  0
   33.1440   25.2940   46.6800 C   0  0  0  0  0  0  0  0  0  0  0  0
   31.8190   25.3610   46.9970 C   0  0  0  0  0  0  0  0  0  0  0  0
   31.0700   24.4870   46.4940 O   0  0  0  0  0  0  0  0  0  0  0  0
   31.3580   26.3240   47.8110 N   0  0  0  0  0  0  0  0  0  0  0  0
   32.2190   27.2200   48.3080 C   0  0  0  0  0  0  0  0  0  0  0  0
   31.6720   28.0810   49.0630 O   0  0  0  0  0  0  0  0  0  0  0  0
   34.9820   28.9420   46.7420 H   0  0  0  0  0  0  0  0  0  0  0  0
   35.3410   29.2740   51.6460 H   0  0  0  0  0  0  0  0  0  0  0  0
   35.0820   26.2670   47.0180 H   0  0  0  0  0  0  0  0  0  0  0  0
   33.6370   24.5720   46.0410 H   0  0  0  0  0  0  0  0  0  0  0  0
   30.3300   26.3170   48.0140 H   0  0  0  0  0  0  0  0  0  0  0  0
   38.8220   32.9510   50.4170 H   0  0  0  0  0  0  0  0  0  0  0  0
   38.5370   32.4700   49.4990 C   0  0  0  0  0  0  0  0  0  0  0  0
   38.1920   33.5940   49.0080 O   0  0  0  0  0  0  0  0  0  0  0  0
   38.5750   31.0890   49.0960 N   0  0  0  0  0  0  0  0  0  0  0  0
   38.9500   30.4790   49.8530 H   0  0  0  0  0  0  0  0  0  0  0  0
  1  6  1  0  0  0  0
  1  7  1  1  0  0  0
  1 17  1  0  0  0  0
  2  1  1  0  0  0  0
  3  4  1  0  0  0  0
  3 10  1  0  0  0  0
  3  2  1  0  0  0  0
  4  5  1  0  0  0  0
  5 15  1  0  0  0  0
  5 14  1  0  0  0  0
  5  6  1  0  0  0  0
  6 16  1  6  0  0  0
  6 39  1  0  0  0  0
  8  2  1  0  0  0  0
  9  2  1  0  0  0  0
 11  3  1  0  0  0  0
 12  4  1  0  0  0  0
 13  4  1  0  0  0  0
 17 22  1  0  0  0  0
 18 17  2  0  0  0  0
 18 19  1  0  0  0  0
 19 20  2  0  0  0  0
 20 21  1  0  0  0  0
 21 32  1  0  0  0  0
 22 21  2  0  0  0  0
 23 29  1  0  0  0  0
 23 19  1  0  0  0  0
 24 23  1  0  0  0  0
 25 26  1  0  0  0  0
 25 24  2  0  0  0  0
 26 28  1  0  0  0  0
 27 26  2  0  0  0  0
 28 35  1  0  0  0  0
 28 29  1  0  0  0  0
 29 30  2  0  0  0  0
 31 18  1  0  0  0  0
 33 24  1  0  0  0  0
 34 25  1  0  0  0  0
 37 36  1  0  0  0  0
 38 37  2  0  0  0  0
 39 37  1  0  0  0  0
 39 40  1  0  0  0  0
M  END
>  <minimizedAffinity>
-5.71265364

>  <minimizedRMSD>
4.57950306

$$$$
