
 OpenBabel03272508433D

 23 24  0  0  0  0  0  0  0  0999 V2000
   35.9710   30.3740   49.8430 C   0  0  0  0  0  0  0  0  0  0  0  0
   36.9920   29.7690   50.5330 C   0  0  0  0  0  0  0  0  0  0  0  0
   38.0100   30.7170   50.5040 C   0  0  0  0  0  0  0  0  0  0  0  0
   37.5670   31.8160   49.8170 C   0  0  0  0  0  0  0  0  0  0  0  0
   36.3500   31.5740   49.4400 O   0  0  0  0  0  0  0  0  0  0  0  0
   36.9900   28.7850   50.9860 H   0  0  0  0  0  0  0  0  0  0  0  0
   38.9710   30.5510   50.9670 H   0  0  0  0  0  0  0  0  0  0  0  0
   39.5670   34.1830   48.1850 H   0  0  0  0  0  0  0  0  0  0  0  0
   39.0420   33.2550   48.3820 C   0  0  0  0  0  0  0  0  0  0  0  0
   39.1610   32.3680   47.5090 O   0  0  0  0  0  0  0  0  0  0  0  0
   38.2630   33.0230   49.5390 N   0  0  0  0  0  0  0  0  0  0  0  0
   38.2430   33.8350   50.1850 H   0  0  0  0  0  0  0  0  0  0  0  0
   34.6560   29.7660   49.5950 C   0  0  0  0  0  0  0  0  0  0  0  0
   33.9010   29.5940   50.5800 O   0  0  0  0  0  0  0  0  0  0  0  0
   32.8480   28.1450   46.8850 C   0  0  0  0  0  0  0  0  0  0  0  0
   33.5010   28.6390   45.7410 C   0  0  0  0  0  0  0  0  0  0  0  0
   34.5540   29.5220   45.8880 C   0  0  0  0  0  0  0  0  0  0  0  0
   34.9000   29.8640   47.1510 N   0  0  0  0  0  0  0  0  0  0  0  0
   34.2700   29.3870   48.2450 C   0  0  0  0  0  0  0  0  0  0  0  0
   33.2460   28.5280   48.1030 N   0  0  0  0  0  0  0  0  0  0  0  0
   32.0140   27.4470   46.8250 H   0  0  0  0  0  0  0  0  0  0  0  0
   33.1140   28.2770   44.7980 H   0  0  0  0  0  0  0  0  0  0  0  0
   35.0380   29.8860   45.0100 H   0  0  0  0  0  0  0  0  0  0  0  0
  1  2  2  0  0  0  0
  2  6  1  0  0  0  0
  3  2  1  0  0  0  0
  3  7  1  0  0  0  0
  4  3  2  0  0  0  0
  5  4  1  0  0  0  0
  5  1  1  0  0  0  0
  8  9  1  0  0  0  0
  9 11  1  0  0  0  0
 10  9  2  0  0  0  0
 11  4  1  0  0  0  0
 11 12  1  0  0  0  0
 13  1  1  0  0  0  0
 13 14  2  0  0  0  0
 15 20  1  0  0  0  0
 16 17  1  0  0  0  0
 16 15  2  0  0  0  0
 17 18  2  0  0  0  0
 18 19  1  0  0  0  0
 19 13  1  0  0  0  0
 20 19  2  0  0  0  0
 21 15  1  0  0  0  0
 22 16  1  0  0  0  0
 23 17  1  0  0  0  0
M  END
>  <minimizedAffinity>
-4.65207291

>  <minimizedRMSD>
1.36920166

$$$$
