
 OpenBabel03272502033D

 38 41  0  0  0  0  0  0  0  0999 V2000
   36.2750   28.6210   33.4970 C   0  0  0  0  0  0  0  0  0  0  0  0
   36.8610   28.0540   32.3710 C   0  0  0  0  0  0  0  0  0  0  0  0
   37.5630   26.9220   32.7640 C   0  0  0  0  0  0  0  0  0  0  0  0
   37.3790   26.8400   34.1100 N   0  0  0  0  0  0  0  0  0  0  0  0
   36.6220   27.8410   34.5300 N   0  0  0  0  0  0  0  0  0  0  0  0
   38.8140   24.8020   34.3340 N   0  0  0  0  0  0  0  0  0  0  0  0
   37.9930   25.7580   34.7990 C   0  0  0  0  0  0  0  0  0  0  0  0
   37.8250   25.5160   36.1330 N   0  0  0  0  0  0  0  0  0  0  0  0
   38.5250   24.4360   36.4800 C   0  0  0  0  0  0  0  0  0  0  0  0
   38.6640   23.8150   37.6980 C   0  0  0  0  0  0  0  0  0  0  0  0
   39.4400   22.7230   37.7890 N   0  0  0  0  0  0  0  0  0  0  0  0
   40.0720   22.2510   36.6820 C   0  0  0  0  0  0  0  0  0  0  0  0
   39.9280   22.8710   35.4870 N   0  0  0  0  0  0  0  0  0  0  0  0
   39.1600   23.9660   35.3600 C   0  0  0  0  0  0  0  0  0  0  0  0
   36.7790   28.4390   31.3540 H   0  0  0  0  0  0  0  0  0  0  0  0
   38.1150   26.2910   32.0780 H   0  0  0  0  0  0  0  0  0  0  0  0
   39.1410   24.7040   33.3500 H   0  0  0  0  0  0  0  0  0  0  0  0
   38.1800   24.1550   38.6080 H   0  0  0  0  0  0  0  0  0  0  0  0
   40.7230   21.3880   36.6050 H   0  0  0  0  0  0  0  0  0  0  0  0
   35.4220   29.8620   33.5370 C   0  0  0  0  0  0  0  0  0  0  0  0
   35.8170   30.5400   34.3450 H   0  0  0  0  0  0  0  0  0  0  0  0
   35.5210   30.3700   32.5770 H   0  0  0  0  0  0  0  0  0  0  0  0
   34.0240   29.3830   33.8440 C   0  0  0  0  0  0  0  0  0  0  0  0
   33.3180   29.5340   33.0010 H   0  0  0  0  0  0  0  0  0  0  0  0
   34.0830   28.2970   34.0900 H   0  0  0  0  0  0  0  0  0  0  0  0
   31.8170   30.4480   36.6060 C   0  0  0  0  0  0  0  0  0  0  0  0
   32.6260   31.4050   37.2730 C   0  0  0  0  0  0  0  0  0  0  0  0
   33.9160   31.6640   36.7580 C   0  0  0  0  0  0  0  0  0  0  0  0
   34.2940   30.9800   35.6600 N   0  0  0  0  0  0  0  0  0  0  0  0
   33.4970   30.0770   35.0530 C   0  0  0  0  0  0  0  0  0  0  0  0
   32.3000   29.8380   35.5320 N   0  0  0  0  0  0  0  0  0  0  0  0
   30.8530   30.2900   37.0350 H   0  0  0  0  0  0  0  0  0  0  0  0
   32.3140   31.9470   38.1530 H   0  0  0  0  0  0  0  0  0  0  0  0
   35.0250   34.5630   38.3710 H   0  0  0  0  0  0  0  0  0  0  0  0
   34.3170   33.9080   37.8780 C   0  0  0  0  0  0  0  0  0  0  0  0
   33.2040   34.4920   37.8320 O   0  0  0  0  0  0  0  0  0  0  0  0
   34.7370   32.6200   37.4160 N   0  0  0  0  0  0  0  0  0  0  0  0
   35.7350   32.3780   37.5860 H   0  0  0  0  0  0  0  0  0  0  0  0
  1 20  1  0  0  0  0
  1  5  2  0  0  0  0
  2  3  2  0  0  0  0
  2  1  1  0  0  0  0
  3  4  1  0  0  0  0
  4  5  1  0  0  0  0
  4  7  1  0  0  0  0
  6  7  1  0  0  0  0
  6 14  1  0  0  0  0
  7  8  2  0  0  0  0
  8  9  1  0  0  0  0
  9 10  1  0  0  0  0
 10 11  2  0  0  0  0
 10 18  1  0  0  0  0
 12 11  1  0  0  0  0
 13 12  2  0  0  0  0
 14 13  1  0  0  0  0
 14  9  2  0  0  0  0
 15  2  1  0  0  0  0
 16  3  1  0  0  0  0
 17  6  1  0  0  0  0
 19 12  1  0  0  0  0
 20 23  1  0  0  0  0
 20 21  1  0  0  0  0
 22 20  1  0  0  0  0
 23 25  1  0  0  0  0
 23 30  1  0  0  0  0
 24 23  1  0  0  0  0
 26 32  1  0  0  0  0
 26 27  1  0  0  0  0
 27 33  1  0  0  0  0
 28 27  2  0  0  0  0
 28 37  1  0  0  0  0
 29 28  1  0  0  0  0
 30 31  1  0  0  0  0
 30 29  2  0  0  0  0
 31 26  2  0  0  0  0
 35 34  1  0  0  0  0
 36 35  2  0  0  0  0
 37 38  1  0  0  0  0
 37 35  1  0  0  0  0
M  END
>  <minimizedAffinity>
-6.1605525

$$$$

 OpenBabel03272502033D

 38 41  0  0  0  0  0  0  0  0999 V2000
   36.2000   28.6380   33.2950 C   0  0  0  0  0  0  0  0  0  0  0  0
   37.0470   28.1580   32.3020 C   0  0  0  0  0  0  0  0  0  0  0  0
   37.7830   27.1030   32.8260 C   0  0  0  0  0  0  0  0  0  0  0  0
   37.3590   26.9790   34.1130 N   0  0  0  0  0  0  0  0  0  0  0  0
   36.4310   27.8830   34.3790 N   0  0  0  0  0  0  0  0  0  0  0  0
   38.9430   25.1070   34.6120 N   0  0  0  0  0  0  0  0  0  0  0  0
   37.9480   25.9590   34.9090 C   0  0  0  0  0  0  0  0  0  0  0  0
   37.5610   25.6770   36.1890 N   0  0  0  0  0  0  0  0  0  0  0  0
   38.2990   24.6750   36.6660 C   0  0  0  0  0  0  0  0  0  0  0  0
   38.2740   24.0520   37.8910 C   0  0  0  0  0  0  0  0  0  0  0  0
   39.1340   23.0510   38.1310 N   0  0  0  0  0  0  0  0  0  0  0  0
   40.0120   22.6700   37.1650 C   0  0  0  0  0  0  0  0  0  0  0  0
   40.0270   23.2900   35.9620 N   0  0  0  0  0  0  0  0  0  0  0  0
   39.1810   24.2960   35.6880 C   0  0  0  0  0  0  0  0  0  0  0  0
   37.1150   28.5490   31.2870 H   0  0  0  0  0  0  0  0  0  0  0  0
   38.5200   26.5480   32.2590 H   0  0  0  0  0  0  0  0  0  0  0  0
   39.4580   25.0620   33.7080 H   0  0  0  0  0  0  0  0  0  0  0  0
   37.5930   24.3220   38.6920 H   0  0  0  0  0  0  0  0  0  0  0  0
   40.7570   21.8840   37.2160 H   0  0  0  0  0  0  0  0  0  0  0  0
   35.2220   29.7770   33.1690 C   0  0  0  0  0  0  0  0  0  0  0  0
   35.4600   30.3490   32.2280 H   0  0  0  0  0  0  0  0  0  0  0  0
   34.2210   29.3530   33.0750 H   0  0  0  0  0  0  0  0  0  0  0  0
   35.4230   30.6230   34.4020 C   0  0  0  0  0  0  0  0  0  0  0  0
   36.3290   30.3400   34.9800 H   0  0  0  0  0  0  0  0  0  0  0  0
   35.5070   31.6860   34.0750 H   0  0  0  0  0  0  0  0  0  0  0  0
   32.9640   31.3020   37.0700 C   0  0  0  0  0  0  0  0  0  0  0  0
   32.0110   30.2720   36.8580 C   0  0  0  0  0  0  0  0  0  0  0  0
   32.2350   29.3640   35.7990 C   0  0  0  0  0  0  0  0  0  0  0  0
   33.3470   29.5390   35.0570 N   0  0  0  0  0  0  0  0  0  0  0  0
   34.2300   30.5310   35.2900 C   0  0  0  0  0  0  0  0  0  0  0  0
   34.0210   31.3730   36.2730 N   0  0  0  0  0  0  0  0  0  0  0  0
   32.7480   31.9610   37.8820 H   0  0  0  0  0  0  0  0  0  0  0  0
   31.1230   30.1420   37.4570 H   0  0  0  0  0  0  0  0  0  0  0  0
   29.9840   26.7340   36.3040 H   0  0  0  0  0  0  0  0  0  0  0  0
   30.6990   27.4990   36.5820 C   0  0  0  0  0  0  0  0  0  0  0  0
   30.8450   27.4670   37.8310 O   0  0  0  0  0  0  0  0  0  0  0  0
   31.2890   28.3280   35.5740 N   0  0  0  0  0  0  0  0  0  0  0  0
   30.9860   28.1410   34.5960 H   0  0  0  0  0  0  0  0  0  0  0  0
  1  5  2  0  0  0  0
  2  3  2  0  0  0  0
  2  1  1  0  0  0  0
  3  4  1  0  0  0  0
  4  5  1  0  0  0  0
  4  7  1  0  0  0  0
  6  7  1  0  0  0  0
  6 14  1  0  0  0  0
  7  8  2  0  0  0  0
  8  9  1  0  0  0  0
  9 10  1  0  0  0  0
 10 11  2  0  0  0  0
 10 18  1  0  0  0  0
 12 19  1  0  0  0  0
 12 11  1  0  0  0  0
 13 12  2  0  0  0  0
 14 13  1  0  0  0  0
 14  9  2  0  0  0  0
 15  2  1  0  0  0  0
 16  3  1  0  0  0  0
 17  6  1  0  0  0  0
 20  1  1  0  0  0  0
 20 23  1  0  0  0  0
 21 20  1  0  0  0  0
 22 20  1  0  0  0  0
 23 24  1  0  0  0  0
 23 30  1  0  0  0  0
 25 23  1  0  0  0  0
 26 32  1  0  0  0  0
 27 26  1  0  0  0  0
 27 33  1  0  0  0  0
 28 27  2  0  0  0  0
 29 30  2  0  0  0  0
 29 28  1  0  0  0  0
 30 31  1  0  0  0  0
 31 26  2  0  0  0  0
 34 35  1  0  0  0  0
 35 36  2  0  0  0  0
 37 28  1  0  0  0  0
 37 35  1  0  0  0  0
 38 37  1  0  0  0  0
M  END
>  <minimizedAffinity>
-6.12501812

$$$$

 OpenBabel03272502033D

 38 41  0  0  0  0  0  0  0  0999 V2000
   37.9980   27.4680   34.5720 C   0  0  0  0  0  0  0  0  0  0  0  0
   37.8190   27.1450   33.2310 C   0  0  0  0  0  0  0  0  0  0  0  0
   36.6540   27.7560   32.7850 C   0  0  0  0  0  0  0  0  0  0  0  0
   36.1680   28.4260   33.8650 N   0  0  0  0  0  0  0  0  0  0  0  0
   36.9630   28.2510   34.9080 N   0  0  0  0  0  0  0  0  0  0  0  0
   34.1500   29.2490   32.6360 N   0  0  0  0  0  0  0  0  0  0  0  0
   34.9610   29.1590   33.7030 C   0  0  0  0  0  0  0  0  0  0  0  0
   34.4070   29.9360   34.6820 N   0  0  0  0  0  0  0  0  0  0  0  0
   33.2840   30.4900   34.2270 C   0  0  0  0  0  0  0  0  0  0  0  0
   32.3940   31.3380   34.8410 C   0  0  0  0  0  0  0  0  0  0  0  0
   31.3200   31.7640   34.1580 N   0  0  0  0  0  0  0  0  0  0  0  0
   31.1310   31.3530   32.8760 C   0  0  0  0  0  0  0  0  0  0  0  0
   32.0140   30.5170   32.2810 N   0  0  0  0  0  0  0  0  0  0  0  0
   33.0980   30.0710   32.9350 C   0  0  0  0  0  0  0  0  0  0  0  0
   38.4850   26.5180   32.6380 H   0  0  0  0  0  0  0  0  0  0  0  0
   36.2810   27.6660   31.7720 H   0  0  0  0  0  0  0  0  0  0  0  0
   34.2900   28.7710   31.7210 H   0  0  0  0  0  0  0  0  0  0  0  0
   32.5040   31.6930   35.8620 H   0  0  0  0  0  0  0  0  0  0  0  0
   30.3170   31.6130   32.2080 H   0  0  0  0  0  0  0  0  0  0  0  0
   39.1310   27.0230   35.4590 C   0  0  0  0  0  0  0  0  0  0  0  0
   39.8480   26.4120   34.8430 H   0  0  0  0  0  0  0  0  0  0  0  0
   39.6500   27.9140   35.8150 H   0  0  0  0  0  0  0  0  0  0  0  0
   38.4920   26.2010   36.5510 C   0  0  0  0  0  0  0  0  0  0  0  0
   39.0040   26.3060   37.5310 H   0  0  0  0  0  0  0  0  0  0  0  0
   37.4310   26.5320   36.6490 H   0  0  0  0  0  0  0  0  0  0  0  0
   39.3280   22.9670   34.9790 C   0  0  0  0  0  0  0  0  0  0  0  0
   38.3310   22.1130   35.5210 C   0  0  0  0  0  0  0  0  0  0  0  0
   37.3910   22.6690   36.4160 C   0  0  0  0  0  0  0  0  0  0  0  0
   37.5050   23.9830   36.6980 N   0  0  0  0  0  0  0  0  0  0  0  0
   38.4670   24.7620   36.1640 C   0  0  0  0  0  0  0  0  0  0  0  0
   39.3380   24.2450   35.3330 N   0  0  0  0  0  0  0  0  0  0  0  0
   40.0130   22.4970   34.3090 H   0  0  0  0  0  0  0  0  0  0  0  0
   38.2490   21.0620   35.2890 H   0  0  0  0  0  0  0  0  0  0  0  0
   34.8630   20.2750   36.7570 H   0  0  0  0  0  0  0  0  0  0  0  0
   35.6050   20.8720   36.2410 C   0  0  0  0  0  0  0  0  0  0  0  0
   35.5960   20.5470   35.0250 O   0  0  0  0  0  0  0  0  0  0  0  0
   36.3870   21.8270   36.9660 N   0  0  0  0  0  0  0  0  0  0  0  0
   36.1900   21.8960   37.9860 H   0  0  0  0  0  0  0  0  0  0  0  0
  1  5  2  0  0  0  0
  1 20  1  0  0  0  0
  2  1  1  0  0  0  0
  3  2  2  0  0  0  0
  3  4  1  0  0  0  0
  4  5  1  0  0  0  0
  6 14  1  0  0  0  0
  6  7  1  0  0  0  0
  7  4  1  0  0  0  0
  7  8  2  0  0  0  0
  9  8  1  0  0  0  0
  9 10  1  0  0  0  0
 10 18  1  0  0  0  0
 11 10  2  0  0  0  0
 12 11  1  0  0  0  0
 13 12  2  0  0  0  0
 13 14  1  0  0  0  0
 14  9  2  0  0  0  0
 15  2  1  0  0  0  0
 16  3  1  0  0  0  0
 17  6  1  0  0  0  0
 19 12  1  0  0  0  0
 20 22  1  0  0  0  0
 20 23  1  0  0  0  0
 21 20  1  0  0  0  0
 23 25  1  0  0  0  0
 23 24  1  0  0  0  0
 26 31  2  0  0  0  0
 26 27  1  0  0  0  0
 27 28  2  0  0  0  0
 28 29  1  0  0  0  0
 28 37  1  0  0  0  0
 30 23  1  0  0  0  0
 30 29  2  0  0  0  0
 31 30  1  0  0  0  0
 32 26  1  0  0  0  0
 33 27  1  0  0  0  0
 35 34  1  0  0  0  0
 35 37  1  0  0  0  0
 36 35  2  0  0  0  0
 37 38  1  0  0  0  0
M  END
>  <minimizedAffinity>
-5.96697092

$$$$

 OpenBabel03272502033D

 38 41  0  0  0  0  0  0  0  0999 V2000
   35.9210   22.5290   31.4250 C   0  0  0  0  0  0  0  0  0  0  0  0
   37.1460   22.5540   30.7660 C   0  0  0  0  0  0  0  0  0  0  0  0
   37.4950   23.8780   30.5380 C   0  0  0  0  0  0  0  0  0  0  0  0
   36.4750   24.6100   31.0640 N   0  0  0  0  0  0  0  0  0  0  0  0
   35.5570   23.8090   31.5810 N   0  0  0  0  0  0  0  0  0  0  0  0
   37.4850   26.7930   30.3750 N   0  0  0  0  0  0  0  0  0  0  0  0
   36.5600   26.0260   30.9750 C   0  0  0  0  0  0  0  0  0  0  0  0
   35.6450   26.8770   31.5290 N   0  0  0  0  0  0  0  0  0  0  0  0
   36.0000   28.1360   31.2750 C   0  0  0  0  0  0  0  0  0  0  0  0
   35.3970   29.3220   31.6250 C   0  0  0  0  0  0  0  0  0  0  0  0
   35.9610   30.4780   31.2420 N   0  0  0  0  0  0  0  0  0  0  0  0
   37.1130   30.4590   30.5200 C   0  0  0  0  0  0  0  0  0  0  0  0
   37.6970   29.2860   30.1810 N   0  0  0  0  0  0  0  0  0  0  0  0
   37.1600   28.1110   30.5460 C   0  0  0  0  0  0  0  0  0  0  0  0
   37.7280   21.6770   30.4810 H   0  0  0  0  0  0  0  0  0  0  0  0
   38.4080   24.1800   30.0390 H   0  0  0  0  0  0  0  0  0  0  0  0
   38.3200   26.4490   29.8570 H   0  0  0  0  0  0  0  0  0  0  0  0
   34.4790   29.3850   32.2000 H   0  0  0  0  0  0  0  0  0  0  0  0
   37.6770   31.3060   30.1450 H   0  0  0  0  0  0  0  0  0  0  0  0
   35.1650   21.3040   31.8690 C   0  0  0  0  0  0  0  0  0  0  0  0
   34.3340   21.6280   32.5560 H   0  0  0  0  0  0  0  0  0  0  0  0
   34.7240   20.8420   30.9840 H   0  0  0  0  0  0  0  0  0  0  0  0
   36.1750   20.4400   32.5810 C   0  0  0  0  0  0  0  0  0  0  0  0
   35.9020   19.3630   32.5820 H   0  0  0  0  0  0  0  0  0  0  0  0
   37.1580   20.5750   32.0720 H   0  0  0  0  0  0  0  0  0  0  0  0
   35.6190   21.0140   36.1860 C   0  0  0  0  0  0  0  0  0  0  0  0
   36.7510   21.7970   36.5340 C   0  0  0  0  0  0  0  0  0  0  0  0
   37.6820   22.1120   35.5200 C   0  0  0  0  0  0  0  0  0  0  0  0
   37.4310   21.6430   34.2810 N   0  0  0  0  0  0  0  0  0  0  0  0
   36.3450   20.9010   33.9890 C   0  0  0  0  0  0  0  0  0  0  0  0
   35.4810   20.6100   34.9310 N   0  0  0  0  0  0  0  0  0  0  0  0
   34.9470   20.8040   36.9880 H   0  0  0  0  0  0  0  0  0  0  0  0
   36.9420   22.1670   37.5300 H   0  0  0  0  0  0  0  0  0  0  0  0
   39.7410   24.6060   36.8540 H   0  0  0  0  0  0  0  0  0  0  0  0
   38.8140   24.0810   36.6570 C   0  0  0  0  0  0  0  0  0  0  0  0
   37.8810   24.6970   37.2340 O   0  0  0  0  0  0  0  0  0  0  0  0
   38.8200   22.8950   35.8540 N   0  0  0  0  0  0  0  0  0  0  0  0
   39.7480   22.5950   35.4930 H   0  0  0  0  0  0  0  0  0  0  0  0
  1  5  2  0  0  0  0
  1 20  1  0  0  0  0
  2  1  1  0  0  0  0
  3  2  2  0  0  0  0
  3  4  1  0  0  0  0
  4  5  1  0  0  0  0
  6 14  1  0  0  0  0
  6  7  1  0  0  0  0
  7  4  1  0  0  0  0
  7  8  2  0  0  0  0
  9  8  1  0  0  0  0
  9 10  1  0  0  0  0
 10 18  1  0  0  0  0
 11 10  2  0  0  0  0
 12 11  1  0  0  0  0
 13 12  2  0  0  0  0
 13 14  1  0  0  0  0
 14  9  2  0  0  0  0
 15  2  1  0  0  0  0
 16  3  1  0  0  0  0
 17  6  1  0  0  0  0
 19 12  1  0  0  0  0
 20 21  1  0  0  0  0
 20 23  1  0  0  0  0
 22 20  1  0  0  0  0
 23 24  1  0  0  0  0
 23 30  1  0  0  0  0
 25 23  1  0  0  0  0
 26 27  1  0  0  0  0
 26 32  1  0  0  0  0
 27 33  1  0  0  0  0
 28 37  1  0  0  0  0
 28 27  2  0  0  0  0
 29 28  1  0  0  0  0
 30 29  2  0  0  0  0
 30 31  1  0  0  0  0
 31 26  2  0  0  0  0
 35 34  1  0  0  0  0
 35 36  2  0  0  0  0
 37 35  1  0  0  0  0
 38 37  1  0  0  0  0
M  END
>  <minimizedAffinity>
-5.79886961

$$$$

 OpenBabel03272502033D

 38 41  0  0  0  0  0  0  0  0999 V2000
   36.0060   27.7670   31.7900 C   0  0  0  0  0  0  0  0  0  0  0  0
   37.2840   27.7770   31.2410 C   0  0  0  0  0  0  0  0  0  0  0  0
   37.6600   26.4660   30.9800 C   0  0  0  0  0  0  0  0  0  0  0  0
   36.6020   25.7070   31.3770 N   0  0  0  0  0  0  0  0  0  0  0  0
   35.6380   26.4800   31.8510 N   0  0  0  0  0  0  0  0  0  0  0  0
   37.7370   23.5530   30.8010 N   0  0  0  0  0  0  0  0  0  0  0  0
   36.7030   24.2970   31.2260 C   0  0  0  0  0  0  0  0  0  0  0  0
   35.6870   23.4290   31.5130 N   0  0  0  0  0  0  0  0  0  0  0  0
   36.0870   22.1820   31.2690 C   0  0  0  0  0  0  0  0  0  0  0  0
   35.4210   20.9870   31.4050 C   0  0  0  0  0  0  0  0  0  0  0  0
   36.0540   19.8470   31.0890 N   0  0  0  0  0  0  0  0  0  0  0  0
   37.3370   19.8900   30.6400 C   0  0  0  0  0  0  0  0  0  0  0  0
   37.9830   21.0730   30.5100 N   0  0  0  0  0  0  0  0  0  0  0  0
   37.3800   22.2320   30.8180 C   0  0  0  0  0  0  0  0  0  0  0  0
   37.8820   28.6680   31.0500 H   0  0  0  0  0  0  0  0  0  0  0  0
   38.6140   26.1910   30.5470 H   0  0  0  0  0  0  0  0  0  0  0  0
   38.6670   23.9140   30.5040 H   0  0  0  0  0  0  0  0  0  0  0  0
   34.3980   20.9040   31.7590 H   0  0  0  0  0  0  0  0  0  0  0  0
   37.9680   19.0590   30.3490 H   0  0  0  0  0  0  0  0  0  0  0  0
   35.2060   28.9660   32.2260 C   0  0  0  0  0  0  0  0  0  0  0  0
   35.2160   29.7230   31.3930 H   0  0  0  0  0  0  0  0  0  0  0  0
   34.1770   28.6430   32.3900 H   0  0  0  0  0  0  0  0  0  0  0  0
   35.8970   29.4870   33.4620 C   0  0  0  0  0  0  0  0  0  0  0  0
   36.5240   28.7210   33.9650 H   0  0  0  0  0  0  0  0  0  0  0  0
   36.5360   30.3490   33.1560 H   0  0  0  0  0  0  0  0  0  0  0  0
   32.7300   30.1000   35.2580 C   0  0  0  0  0  0  0  0  0  0  0  0
   33.1340   31.0280   36.2530 C   0  0  0  0  0  0  0  0  0  0  0  0
   34.4900   31.4240   36.2850 C   0  0  0  0  0  0  0  0  0  0  0  0
   35.3140   30.8890   35.3620 N   0  0  0  0  0  0  0  0  0  0  0  0
   34.8930   30.0090   34.4310 C   0  0  0  0  0  0  0  0  0  0  0  0
   33.6340   29.6430   34.4020 N   0  0  0  0  0  0  0  0  0  0  0  0
   31.6960   29.8340   35.2770 H   0  0  0  0  0  0  0  0  0  0  0  0
   32.4660   31.4500   36.9880 H   0  0  0  0  0  0  0  0  0  0  0  0
   34.6250   34.1940   38.4170 H   0  0  0  0  0  0  0  0  0  0  0  0
   34.2200   33.5530   37.6440 C   0  0  0  0  0  0  0  0  0  0  0  0
   33.1500   34.0660   37.2250 O   0  0  0  0  0  0  0  0  0  0  0  0
   34.9080   32.3520   37.2760 N   0  0  0  0  0  0  0  0  0  0  0  0
   35.7910   32.1580   37.7910 H   0  0  0  0  0  0  0  0  0  0  0  0
  1  5  2  0  0  0  0
  1 20  1  0  0  0  0
  2  1  1  0  0  0  0
  3  2  2  0  0  0  0
  3  4  1  0  0  0  0
  4  5  1  0  0  0  0
  6 14  1  0  0  0  0
  6  7  1  0  0  0  0
  7  4  1  0  0  0  0
  7  8  2  0  0  0  0
  9 10  1  0  0  0  0
  9  8  1  0  0  0  0
 10 18  1  0  0  0  0
 11 10  2  0  0  0  0
 12 11  1  0  0  0  0
 13 12  2  0  0  0  0
 13 14  1  0  0  0  0
 14  9  2  0  0  0  0
 15  2  1  0  0  0  0
 16  3  1  0  0  0  0
 17  6  1  0  0  0  0
 19 12  1  0  0  0  0
 20 22  1  0  0  0  0
 20 23  1  0  0  0  0
 21 20  1  0  0  0  0
 23 24  1  0  0  0  0
 23 30  1  0  0  0  0
 25 23  1  0  0  0  0
 26 32  1  0  0  0  0
 26 27  1  0  0  0  0
 27 28  2  0  0  0  0
 27 33  1  0  0  0  0
 28 37  1  0  0  0  0
 29 28  1  0  0  0  0
 30 29  2  0  0  0  0
 31 30  1  0  0  0  0
 31 26  2  0  0  0  0
 35 34  1  0  0  0  0
 36 35  2  0  0  0  0
 37 35  1  0  0  0  0
 37 38  1  0  0  0  0
M  END
>  <minimizedAffinity>
-5.71946812

$$$$

 OpenBabel03272502033D

 38 41  0  0  0  0  0  0  0  0999 V2000
   36.9090   28.1670   32.2160 C   0  0  0  0  0  0  0  0  0  0  0  0
   37.9300   27.5760   31.4790 C   0  0  0  0  0  0  0  0  0  0  0  0
   38.5400   26.6110   32.2700 C   0  0  0  0  0  0  0  0  0  0  0  0
   37.8710   26.6480   33.4550 N   0  0  0  0  0  0  0  0  0  0  0  0
   36.9170   27.5640   33.4130 N   0  0  0  0  0  0  0  0  0  0  0  0
   39.3100   24.8850   34.4950 N   0  0  0  0  0  0  0  0  0  0  0  0
   38.2840   25.7520   34.4780 C   0  0  0  0  0  0  0  0  0  0  0  0
   37.6510   25.6330   35.6830 N   0  0  0  0  0  0  0  0  0  0  0  0
   38.2720   24.7140   36.4220 C   0  0  0  0  0  0  0  0  0  0  0  0
   38.0030   24.2560   37.6900 C   0  0  0  0  0  0  0  0  0  0  0  0
   38.7910   23.3090   38.2230 N   0  0  0  0  0  0  0  0  0  0  0  0
   39.8370   22.8200   37.5040 C   0  0  0  0  0  0  0  0  0  0  0  0
   40.0930   23.2790   36.2570 N   0  0  0  0  0  0  0  0  0  0  0  0
   39.3250   24.2260   35.6940 C   0  0  0  0  0  0  0  0  0  0  0  0
   38.1990   27.8330   30.4550 H   0  0  0  0  0  0  0  0  0  0  0  0
   39.3690   26.0000   31.9360 H   0  0  0  0  0  0  0  0  0  0  0  0
   39.9920   24.7310   33.7220 H   0  0  0  0  0  0  0  0  0  0  0  0
   37.1800   24.6160   38.3000 H   0  0  0  0  0  0  0  0  0  0  0  0
   40.5510   22.0610   37.8030 H   0  0  0  0  0  0  0  0  0  0  0  0
   35.9850   29.2630   31.7530 C   0  0  0  0  0  0  0  0  0  0  0  0
   36.5100   29.8580   30.9540 H   0  0  0  0  0  0  0  0  0  0  0  0
   35.1010   28.7960   31.3160 H   0  0  0  0  0  0  0  0  0  0  0  0
   35.7040   30.1000   32.9760 C   0  0  0  0  0  0  0  0  0  0  0  0
   36.3870   29.8760   33.8230 H   0  0  0  0  0  0  0  0  0  0  0  0
   35.8080   31.1720   32.6870 H   0  0  0  0  0  0  0  0  0  0  0  0
   32.1590   29.0720   33.0790 C   0  0  0  0  0  0  0  0  0  0  0  0
   31.7390   29.5990   34.3290 C   0  0  0  0  0  0  0  0  0  0  0  0
   32.6850   30.2980   35.1110 C   0  0  0  0  0  0  0  0  0  0  0  0
   33.9330   30.4170   34.6130 N   0  0  0  0  0  0  0  0  0  0  0  0
   34.2950   29.9020   33.4210 C   0  0  0  0  0  0  0  0  0  0  0  0
   33.4150   29.2550   32.6960 N   0  0  0  0  0  0  0  0  0  0  0  0
   31.4060   28.5540   32.5280 H   0  0  0  0  0  0  0  0  0  0  0  0
   30.7370   29.4970   34.7180 H   0  0  0  0  0  0  0  0  0  0  0  0
   30.8510   31.9170   37.6110 H   0  0  0  0  0  0  0  0  0  0  0  0
   31.0680   31.5520   36.6140 C   0  0  0  0  0  0  0  0  0  0  0  0
   30.1180   31.8820   35.8580 O   0  0  0  0  0  0  0  0  0  0  0  0
   32.2790   30.8300   36.3640 N   0  0  0  0  0  0  0  0  0  0  0  0
   32.9040   30.6920   37.1840 H   0  0  0  0  0  0  0  0  0  0  0  0
  1  5  2  0  0  0  0
  2  1  1  0  0  0  0
  2  3  2  0  0  0  0
  3  4  1  0  0  0  0
  4  7  1  0  0  0  0
  5  4  1  0  0  0  0
  6 14  1  0  0  0  0
  7  6  1  0  0  0  0
  7  8  2  0  0  0  0
  8  9  1  0  0  0  0
  9 10  1  0  0  0  0
 10 11  2  0  0  0  0
 10 18  1  0  0  0  0
 12 19  1  0  0  0  0
 12 11  1  0  0  0  0
 13 12  2  0  0  0  0
 14 13  1  0  0  0  0
 14  9  2  0  0  0  0
 15  2  1  0  0  0  0
 16  3  1  0  0  0  0
 17  6  1  0  0  0  0
 20  1  1  0  0  0  0
 20 23  1  0  0  0  0
 21 20  1  0  0  0  0
 22 20  1  0  0  0  0
 23 30  1  0  0  0  0
 23 24  1  0  0  0  0
 25 23  1  0  0  0  0
 26 27  1  0  0  0  0
 27 33  1  0  0  0  0
 27 28  2  0  0  0  0
 28 37  1  0  0  0  0
 29 28  1  0  0  0  0
 30 29  2  0  0  0  0
 31 26  2  0  0  0  0
 31 30  1  0  0  0  0
 32 26  1  0  0  0  0
 35 34  1  0  0  0  0
 36 35  2  0  0  0  0
 37 35  1  0  0  0  0
 37 38  1  0  0  0  0
M  END
>  <minimizedAffinity>
-5.62257481

$$$$

 OpenBabel03272502033D

 38 41  0  0  0  0  0  0  0  0999 V2000
   38.0110   26.8870   33.6860 C   0  0  0  0  0  0  0  0  0  0  0  0
   37.2090   26.6600   34.8000 C   0  0  0  0  0  0  0  0  0  0  0  0
   37.7970   25.6650   35.5690 C   0  0  0  0  0  0  0  0  0  0  0  0
   38.9320   25.3240   34.9010 N   0  0  0  0  0  0  0  0  0  0  0  0
   39.0490   26.0460   33.7980 N   0  0  0  0  0  0  0  0  0  0  0  0
   39.5550   23.5540   36.5560 N   0  0  0  0  0  0  0  0  0  0  0  0
   39.7540   24.3100   35.4640 C   0  0  0  0  0  0  0  0  0  0  0  0
   40.9560   23.9270   34.9370 N   0  0  0  0  0  0  0  0  0  0  0  0
   41.4830   22.9600   35.6870 C   0  0  0  0  0  0  0  0  0  0  0  0
   42.6640   22.2700   35.5550 C   0  0  0  0  0  0  0  0  0  0  0  0
   42.9730   21.3270   36.4580 N   0  0  0  0  0  0  0  0  0  0  0  0
   42.1180   21.0700   37.4840 C   0  0  0  0  0  0  0  0  0  0  0  0
   40.9570   21.7550   37.6040 N   0  0  0  0  0  0  0  0  0  0  0  0
   40.6160   22.7050   36.7180 C   0  0  0  0  0  0  0  0  0  0  0  0
   36.2770   27.1800   35.0230 H   0  0  0  0  0  0  0  0  0  0  0  0
   37.3750   25.2960   36.4960 H   0  0  0  0  0  0  0  0  0  0  0  0
   38.7280   23.5990   37.1860 H   0  0  0  0  0  0  0  0  0  0  0  0
   43.3770   22.4410   34.7540 H   0  0  0  0  0  0  0  0  0  0  0  0
   42.2340   20.3430   38.2800 H   0  0  0  0  0  0  0  0  0  0  0  0
   37.7570   27.8810   32.5830 C   0  0  0  0  0  0  0  0  0  0  0  0
   36.7010   28.2580   32.6800 H   0  0  0  0  0  0  0  0  0  0  0  0
   38.4400   28.7200   32.7230 H   0  0  0  0  0  0  0  0  0  0  0  0
   37.9640   27.1210   31.2970 C   0  0  0  0  0  0  0  0  0  0  0  0
   37.9210   27.7700   30.3960 H   0  0  0  0  0  0  0  0  0  0  0  0
   38.9620   26.6250   31.3520 H   0  0  0  0  0  0  0  0  0  0  0  0
   34.7440   25.3420   30.9730 C   0  0  0  0  0  0  0  0  0  0  0  0
   35.1630   23.9860   30.9370 C   0  0  0  0  0  0  0  0  0  0  0  0
   36.5460   23.7120   31.0250 C   0  0  0  0  0  0  0  0  0  0  0  0
   37.3800   24.7650   31.1380 N   0  0  0  0  0  0  0  0  0  0  0  0
   36.9450   26.0400   31.1690 C   0  0  0  0  0  0  0  0  0  0  0  0
   35.6610   26.2930   31.0870 N   0  0  0  0  0  0  0  0  0  0  0  0
   33.6900   25.4950   30.9030 H   0  0  0  0  0  0  0  0  0  0  0  0
   34.4860   23.1510   30.8460 H   0  0  0  0  0  0  0  0  0  0  0  0
   36.8020   20.2740   31.6200 H   0  0  0  0  0  0  0  0  0  0  0  0
   36.3940   21.2730   31.7180 C   0  0  0  0  0  0  0  0  0  0  0  0
   35.4230   21.2270   32.5170 O   0  0  0  0  0  0  0  0  0  0  0  0
   36.9790   22.3590   30.9900 N   0  0  0  0  0  0  0  0  0  0  0  0
   37.7910   22.1170   30.3870 H   0  0  0  0  0  0  0  0  0  0  0  0
  1  5  2  0  0  0  0
  1  2  1  0  0  0  0
  2 15  1  0  0  0  0
  2  3  2  0  0  0  0
  3 16  1  0  0  0  0
  4  7  1  0  0  0  0
  4  3  1  0  0  0  0
  5  4  1  0  0  0  0
  6 14  1  0  0  0  0
  6 17  1  0  0  0  0
  7  6  1  0  0  0  0
  8  7  2  0  0  0  0
  8  9  1  0  0  0  0
  9 14  1  0  0  0  0
 10  9  2  0  0  0  0
 10 11  1  0  0  0  0
 11 12  2  0  0  0  0
 12 13  1  0  0  0  0
 12 19  1  0  0  0  0
 14 13  2  0  0  0  0
 18 10  1  0  0  0  0
 20 21  1  0  0  0  0
 20 22  1  0  0  0  0
 20  1  1  0  0  0  0
 23 25  1  0  0  0  0
 23 20  1  0  0  0  0
 24 23  1  0  0  0  0
 26 31  1  0  0  0  0
 27 26  2  0  0  0  0
 27 28  1  0  0  0  0
 28 29  2  0  0  0  0
 29 30  1  0  0  0  0
 30 23  1  0  0  0  0
 31 30  2  0  0  0  0
 32 26  1  0  0  0  0
 33 27  1  0  0  0  0
 34 35  1  0  0  0  0
 35 36  2  0  0  0  0
 37 28  1  0  0  0  0
 37 35  1  0  0  0  0
 38 37  1  0  0  0  0
M  END
>  <minimizedAffinity>
-5.54461622

$$$$

 OpenBabel03272502033D

 38 41  0  0  0  0  0  0  0  0999 V2000
   37.0320   27.2440   31.7670 C   0  0  0  0  0  0  0  0  0  0  0  0
   38.0860   26.5910   31.1370 C   0  0  0  0  0  0  0  0  0  0  0  0
   38.7010   25.7570   32.0620 C   0  0  0  0  0  0  0  0  0  0  0  0
   38.0030   25.9310   33.2170 N   0  0  0  0  0  0  0  0  0  0  0  0
   37.0260   26.8050   33.0340 N   0  0  0  0  0  0  0  0  0  0  0  0
   39.4600   24.3640   34.5130 N   0  0  0  0  0  0  0  0  0  0  0  0
   38.4130   25.1900   34.3590 C   0  0  0  0  0  0  0  0  0  0  0  0
   37.7540   25.2140   35.5560 N   0  0  0  0  0  0  0  0  0  0  0  0
   38.3800   24.4190   36.4230 C   0  0  0  0  0  0  0  0  0  0  0  0
   38.0910   24.1260   37.7350 C   0  0  0  0  0  0  0  0  0  0  0  0
   38.8900   23.2810   38.4050 N   0  0  0  0  0  0  0  0  0  0  0  0
   39.9660   22.7320   37.7810 C   0  0  0  0  0  0  0  0  0  0  0  0
   40.2410   23.0290   36.4890 N   0  0  0  0  0  0  0  0  0  0  0  0
   39.4630   23.8700   35.7890 C   0  0  0  0  0  0  0  0  0  0  0  0
   38.3740   26.7170   30.0930 H   0  0  0  0  0  0  0  0  0  0  0  0
   39.5540   25.1320   31.8300 H   0  0  0  0  0  0  0  0  0  0  0  0
   40.1650   24.1290   33.7820 H   0  0  0  0  0  0  0  0  0  0  0  0
   37.2440   24.5390   38.2730 H   0  0  0  0  0  0  0  0  0  0  0  0
   40.6920   22.0410   38.1930 H   0  0  0  0  0  0  0  0  0  0  0  0
   36.0920   28.2410   31.1430 C   0  0  0  0  0  0  0  0  0  0  0  0
   36.3040   28.2880   30.0380 H   0  0  0  0  0  0  0  0  0  0  0  0
   35.0730   27.8790   31.2870 H   0  0  0  0  0  0  0  0  0  0  0  0
   36.3850   29.5550   31.8230 C   0  0  0  0  0  0  0  0  0  0  0  0
   37.1920   29.4810   32.5820 H   0  0  0  0  0  0  0  0  0  0  0  0
   36.6810   30.2870   31.0350 H   0  0  0  0  0  0  0  0  0  0  0  0
   34.0190   31.7540   33.6110 C   0  0  0  0  0  0  0  0  0  0  0  0
   32.8430   30.9600   33.6340 C   0  0  0  0  0  0  0  0  0  0  0  0
   32.8890   29.6820   33.0330 C   0  0  0  0  0  0  0  0  0  0  0  0
   34.0550   29.3020   32.4740 N   0  0  0  0  0  0  0  0  0  0  0  0
   35.1520   30.0850   32.4720 C   0  0  0  0  0  0  0  0  0  0  0  0
   35.1080   31.2710   33.0300 N   0  0  0  0  0  0  0  0  0  0  0  0
   33.9310   32.7100   34.0780 H   0  0  0  0  0  0  0  0  0  0  0  0
   31.9130   31.2740   34.0840 H   0  0  0  0  0  0  0  0  0  0  0  0
   29.9900   28.0280   34.0820 H   0  0  0  0  0  0  0  0  0  0  0  0
   30.8620   28.6640   34.1760 C   0  0  0  0  0  0  0  0  0  0  0  0
   30.9090   29.0970   35.3570 O   0  0  0  0  0  0  0  0  0  0  0  0
   31.7190   28.8760   33.0480 N   0  0  0  0  0  0  0  0  0  0  0  0
   31.4440   28.3890   32.1710 H   0  0  0  0  0  0  0  0  0  0  0  0
  1  5  2  0  0  0  0
  2  1  1  0  0  0  0
  2  3  2  0  0  0  0
  3  4  1  0  0  0  0
  4  7  1  0  0  0  0
  5  4  1  0  0  0  0
  6 14  1  0  0  0  0
  7  6  1  0  0  0  0
  7  8  2  0  0  0  0
  8  9  1  0  0  0  0
  9 10  1  0  0  0  0
 10 18  1  0  0  0  0
 10 11  2  0  0  0  0
 12 19  1  0  0  0  0
 12 11  1  0  0  0  0
 13 12  2  0  0  0  0
 14  9  2  0  0  0  0
 14 13  1  0  0  0  0
 15  2  1  0  0  0  0
 16  3  1  0  0  0  0
 17  6  1  0  0  0  0
 20 22  1  0  0  0  0
 20  1  1  0  0  0  0
 20 23  1  0  0  0  0
 21 20  1  0  0  0  0
 23 30  1  0  0  0  0
 23 24  1  0  0  0  0
 25 23  1  0  0  0  0
 26 27  1  0  0  0  0
 26 32  1  0  0  0  0
 27 33  1  0  0  0  0
 28 37  1  0  0  0  0
 28 27  2  0  0  0  0
 29 28  1  0  0  0  0
 30 29  2  0  0  0  0
 30 31  1  0  0  0  0
 31 26  2  0  0  0  0
 34 35  1  0  0  0  0
 35 36  2  0  0  0  0
 37 35  1  0  0  0  0
 38 37  1  0  0  0  0
M  END
>  <minimizedAffinity>
-5.53154373

$$$$

 OpenBabel03272502033D

 38 41  0  0  0  0  0  0  0  0999 V2000
   36.6200   27.8910   32.3850 C   0  0  0  0  0  0  0  0  0  0  0  0
   37.7060   27.4250   31.6510 C   0  0  0  0  0  0  0  0  0  0  0  0
   38.4080   26.5180   32.4340 C   0  0  0  0  0  0  0  0  0  0  0  0
   37.7270   26.4640   33.6110 N   0  0  0  0  0  0  0  0  0  0  0  0
   36.6810   27.2720   33.5720 N   0  0  0  0  0  0  0  0  0  0  0  0
   39.3370   24.8480   34.6400 N   0  0  0  0  0  0  0  0  0  0  0  0
   38.2240   25.6000   34.6250 C   0  0  0  0  0  0  0  0  0  0  0  0
   37.5960   25.3930   35.8210 N   0  0  0  0  0  0  0  0  0  0  0  0
   38.3040   24.5350   36.5530 C   0  0  0  0  0  0  0  0  0  0  0  0
   38.0730   24.0290   37.8100 C   0  0  0  0  0  0  0  0  0  0  0  0
   38.9530   23.1640   38.3370 N   0  0  0  0  0  0  0  0  0  0  0  0
   40.0520   22.8020   37.6240 C   0  0  0  0  0  0  0  0  0  0  0  0
   40.2700   23.3060   36.3870 N   0  0  0  0  0  0  0  0  0  0  0  0
   39.4110   24.1740   35.8290 C   0  0  0  0  0  0  0  0  0  0  0  0
   37.9560   27.7260   30.6330 H   0  0  0  0  0  0  0  0  0  0  0  0
   39.3010   26.0050   32.1000 H   0  0  0  0  0  0  0  0  0  0  0  0
   40.0390   24.7810   33.8740 H   0  0  0  0  0  0  0  0  0  0  0  0
   37.2100   24.2890   38.4150 H   0  0  0  0  0  0  0  0  0  0  0  0
   40.8410   22.1190   37.9190 H   0  0  0  0  0  0  0  0  0  0  0  0
   35.5890   28.8890   31.9280 C   0  0  0  0  0  0  0  0  0  0  0  0
   35.2810   28.6280   30.8760 H   0  0  0  0  0  0  0  0  0  0  0  0
   34.7180   28.7950   32.5790 H   0  0  0  0  0  0  0  0  0  0  0  0
   36.2690   30.2340   31.9920 C   0  0  0  0  0  0  0  0  0  0  0  0
   37.3510   30.1620   32.2360 H   0  0  0  0  0  0  0  0  0  0  0  0
   36.1430   30.7270   31.0000 H   0  0  0  0  0  0  0  0  0  0  0  0
   35.4350   33.0950   34.1720 C   0  0  0  0  0  0  0  0  0  0  0  0
   34.2960   32.6100   34.8670 C   0  0  0  0  0  0  0  0  0  0  0  0
   33.8390   31.3060   34.5710 C   0  0  0  0  0  0  0  0  0  0  0  0
   34.5200   30.6060   33.6410 N   0  0  0  0  0  0  0  0  0  0  0  0
   35.5980   31.1020   33.0010 C   0  0  0  0  0  0  0  0  0  0  0  0
   36.0220   32.3120   33.2770 N   0  0  0  0  0  0  0  0  0  0  0  0
   35.7390   34.0840   34.4320 H   0  0  0  0  0  0  0  0  0  0  0  0
   33.7580   33.1790   35.6090 H   0  0  0  0  0  0  0  0  0  0  0  0
   31.5540   30.4990   37.0930 H   0  0  0  0  0  0  0  0  0  0  0  0
   32.4580   30.9150   36.6660 C   0  0  0  0  0  0  0  0  0  0  0  0
   33.1300   31.4360   37.5940 O   0  0  0  0  0  0  0  0  0  0  0  0
   32.7000   30.8070   35.2590 N   0  0  0  0  0  0  0  0  0  0  0  0
   31.9660   30.3180   34.7070 H   0  0  0  0  0  0  0  0  0  0  0  0
  1  5  2  0  0  0  0
  2  1  1  0  0  0  0
  2  3  2  0  0  0  0
  3  4  1  0  0  0  0
  4  7  1  0  0  0  0
  5  4  1  0  0  0  0
  6 14  1  0  0  0  0
  7  6  1  0  0  0  0
  7  8  2  0  0  0  0
  8  9  1  0  0  0  0
  9 10  1  0  0  0  0
 10 11  2  0  0  0  0
 10 18  1  0  0  0  0
 12 19  1  0  0  0  0
 12 11  1  0  0  0  0
 13 12  2  0  0  0  0
 14 13  1  0  0  0  0
 14  9  2  0  0  0  0
 15  2  1  0  0  0  0
 16  3  1  0  0  0  0
 17  6  1  0  0  0  0
 20 23  1  0  0  0  0
 20  1  1  0  0  0  0
 20 22  1  0  0  0  0
 21 20  1  0  0  0  0
 23 24  1  0  0  0  0
 23 30  1  0  0  0  0
 25 23  1  0  0  0  0
 26 32  1  0  0  0  0
 26 27  1  0  0  0  0
 27 33  1  0  0  0  0
 28 27  2  0  0  0  0
 28 37  1  0  0  0  0
 29 28  1  0  0  0  0
 30 31  1  0  0  0  0
 30 29  2  0  0  0  0
 31 26  2  0  0  0  0
 35 34  1  0  0  0  0
 35 36  2  0  0  0  0
 37 35  1  0  0  0  0
 38 37  1  0  0  0  0
M  END
>  <minimizedAffinity>
-5.51246023

$$$$
