
 OpenBabel03272508433D

 23 24  0  0  0  0  0  0  0  0999 V2000
   35.9620   30.3530   49.8700 C   0  0  0  0  0  0  0  0  0  0  0  0
   36.9940   29.7600   50.5550 C   0  0  0  0  0  0  0  0  0  0  0  0
   38.0050   30.7150   50.5100 C   0  0  0  0  0  0  0  0  0  0  0  0
   37.5470   31.8070   49.8200 C   0  0  0  0  0  0  0  0  0  0  0  0
   36.3290   31.5530   49.4570 O   0  0  0  0  0  0  0  0  0  0  0  0
   37.0040   28.7790   51.0150 H   0  0  0  0  0  0  0  0  0  0  0  0
   38.9720   30.5590   50.9640 H   0  0  0  0  0  0  0  0  0  0  0  0
   39.5380   34.1670   48.1660 H   0  0  0  0  0  0  0  0  0  0  0  0
   39.0220   33.2360   48.3760 C   0  0  0  0  0  0  0  0  0  0  0  0
   39.1610   32.3340   47.5210 O   0  0  0  0  0  0  0  0  0  0  0  0
   38.2320   33.0170   49.5270 N   0  0  0  0  0  0  0  0  0  0  0  0
   38.1950   33.8400   50.1590 H   0  0  0  0  0  0  0  0  0  0  0  0
   34.6490   29.7340   49.6400 C   0  0  0  0  0  0  0  0  0  0  0  0
   33.8820   29.6180   50.6230 O   0  0  0  0  0  0  0  0  0  0  0  0
   32.9960   27.8380   47.0100 C   0  0  0  0  0  0  0  0  0  0  0  0
   33.5490   28.3900   45.8400 C   0  0  0  0  0  0  0  0  0  0  0  0
   34.4810   29.4050   45.9420 C   0  0  0  0  0  0  0  0  0  0  0  0
   34.8140   29.8140   47.1880 N   0  0  0  0  0  0  0  0  0  0  0  0
   34.2810   29.2810   48.3080 C   0  0  0  0  0  0  0  0  0  0  0  0
   33.3730   28.2930   48.2100 N   0  0  0  0  0  0  0  0  0  0  0  0
   32.2590   27.0370   46.9860 H   0  0  0  0  0  0  0  0  0  0  0  0
   33.1880   27.9620   44.9140 H   0  0  0  0  0  0  0  0  0  0  0  0
   34.8890   29.8110   45.0450 H   0  0  0  0  0  0  0  0  0  0  0  0
  1  2  2  0  0  0  0
  2  6  1  0  0  0  0
  3  2  1  0  0  0  0
  3  7  1  0  0  0  0
  4  3  2  0  0  0  0
  5  4  1  0  0  0  0
  5  1  1  0  0  0  0
  8  9  1  0  0  0  0
  9 11  1  0  0  0  0
 10  9  2  0  0  0  0
 11  4  1  0  0  0  0
 11 12  1  0  0  0  0
 13  1  1  0  0  0  0
 13 14  2  0  0  0  0
 15 20  1  0  0  0  0
 16 17  1  0  0  0  0
 16 15  2  0  0  0  0
 17 18  2  0  0  0  0
 18 19  1  0  0  0  0
 19 13  1  0  0  0  0
 20 19  2  0  0  0  0
 21 15  1  0  0  0  0
 22 16  1  0  0  0  0
 23 17  1  0  0  0  0
M  END
>  <minimizedAffinity>
-4.65535784

>  <minimizedRMSD>
1.41651964

$$$$
