
 OpenBabel03262522453D

 33 35  0  0  1  0  0  0  0  0999 V2000
   38.6040   24.2360   35.9620 C   0  0  1  0  0  0  0  0  0  0  0  0
   38.4750   25.3870   36.8100 C   0  0  0  0  0  0  0  0  0  0  0  0
   39.0880   25.6210   35.4440 C   0  0  2  0  0  0  0  0  0  0  0  0
   37.8600   23.8950   35.1780 H   0  0  0  0  0  0  0  0  0  0  0  0
   37.4750   25.8290   36.9560 H   0  0  0  0  0  0  0  0  0  0  0  0
   39.1420   25.5300   37.6690 H   0  0  0  0  0  0  0  0  0  0  0  0
   40.0680   26.0710   35.6340 H   0  0  0  0  0  0  0  0  0  0  0  0
   40.6750   22.9110   35.1710 C   0  0  0  0  0  0  0  0  0  0  0  0
   39.7010   23.2350   36.1990 C   0  0  0  0  0  0  0  0  0  0  0  0
   39.8220   22.6840   37.4340 C   0  0  0  0  0  0  0  0  0  0  0  0
   40.8910   21.8240   37.6440 N   0  0  0  0  0  0  0  0  0  0  0  0
   41.7770   21.5410   36.6740 C   0  0  0  0  0  0  0  0  0  0  0  0
   41.6700   22.0810   35.4510 N   0  0  0  0  0  0  0  0  0  0  0  0
   42.8680   20.6510   36.9150 N   0  0  0  0  0  0  0  0  0  0  0  0
   40.5300   23.3820   34.2000 H   0  0  0  0  0  0  0  0  0  0  0  0
   43.7570   20.7390   36.3450 H   0  0  0  0  0  0  0  0  0  0  0  0
   42.8160   19.8930   37.6580 H   0  0  0  0  0  0  0  0  0  0  0  0
   36.9580   23.7940   38.9140 H   0  0  0  0  0  0  0  0  0  0  0  0
   37.6600   23.5840   38.0920 C   0  0  0  0  0  0  0  0  0  0  0  0
   37.3600   23.8790   36.9200 O   0  0  0  0  0  0  0  0  0  0  0  0
   38.9020   22.9620   38.4830 N   0  0  0  0  0  0  0  0  0  0  0  0
   39.0720   22.7470   39.5100 H   0  0  0  0  0  0  0  0  0  0  0  0
   38.7440   24.8370   32.4660 Cl  0  0  0  0  0  0  0  0  0  0  0  0
   37.8670   26.1380   33.2300 C   0  0  0  0  0  0  0  0  0  0  0  0
   38.2000   26.3620   34.5440 C   0  0  0  0  0  0  0  0  0  0  0  0
   37.5360   27.4080   35.1680 C   0  0  0  0  0  0  0  0  0  0  0  0
   36.5960   28.1800   34.4960 C   0  0  0  0  0  0  0  0  0  0  0  0
   36.2900   27.9120   33.1460 C   0  0  0  0  0  0  0  0  0  0  0  0
   35.1680   28.8390   32.1820 Cl  0  0  0  0  0  0  0  0  0  0  0  0
   36.9560   26.8560   32.5180 C   0  0  0  0  0  0  0  0  0  0  0  0
   37.5420   27.8290   36.1590 H   0  0  0  0  0  0  0  0  0  0  0  0
   36.0110   29.0080   34.8370 H   0  0  0  0  0  0  0  0  0  0  0  0
   36.7770   26.5890   31.4980 H   0  0  0  0  0  0  0  0  0  0  0  0
  1  4  1  6  0  0  0
  1  9  1  0  0  0  0
  1  2  1  0  0  0  0
  2  5  1  0  0  0  0
  2  6  1  0  0  0  0
  3  7  1  6  0  0  0
  3  1  1  0  0  0  0
  3  2  1  0  0  0  0
  8 13  2  0  0  0  0
  8  9  1  0  0  0  0
  9 10  2  0  0  0  0
 10 11  1  0  0  0  0
 10 21  1  0  0  0  0
 12 14  1  0  0  0  0
 12 11  2  0  0  0  0
 13 12  1  0  0  0  0
 14 17  1  0  0  0  0
 15  8  1  0  0  0  0
 16 14  1  0  0  0  0
 19 21  1  0  0  0  0
 19 18  1  0  0  0  0
 20 19  2  0  0  0  0
 21 22  1  0  0  0  0
 23 24  1  0  0  0  0
 24 25  1  0  0  0  0
 25 26  2  0  0  0  0
 25  3  1  0  0  0  0
 26 31  1  0  0  0  0
 27 32  1  0  0  0  0
 27 26  1  0  0  0  0
 28 27  2  0  0  0  0
 29 28  1  0  0  0  0
 30 28  1  0  0  0  0
 30 24  2  0  0  0  0
 33 30  1  0  0  0  0
M  END
>  <minimizedAffinity>
-6.02107096

$$$$

 OpenBabel03262522453D

 33 35  0  0  1  0  0  0  0  0999 V2000
   39.1950   23.3480   35.4410 C   0  0  1  0  0  0  0  0  0  0  0  0
   39.4680   24.7430   35.2460 C   0  0  0  0  0  0  0  0  0  0  0  0
   39.4590   23.8780   34.0020 C   0  0  2  0  0  0  0  0  0  0  0  0
   38.1820   22.8470   35.3680 H   0  0  0  0  0  0  0  0  0  0  0  0
   38.6360   25.4630   35.3230 H   0  0  0  0  0  0  0  0  0  0  0  0
   40.4380   25.1720   35.5270 H   0  0  0  0  0  0  0  0  0  0  0  0
   40.4400   24.0170   33.5380 H   0  0  0  0  0  0  0  0  0  0  0  0
   41.2520   21.8210   35.1080 C   0  0  0  0  0  0  0  0  0  0  0  0
   40.2610   22.4320   35.9780 C   0  0  0  0  0  0  0  0  0  0  0  0
   40.3370   22.2400   37.3200 C   0  0  0  0  0  0  0  0  0  0  0  0
   41.3790   21.4530   37.7910 N   0  0  0  0  0  0  0  0  0  0  0  0
   42.2820   20.8990   36.9630 C   0  0  0  0  0  0  0  0  0  0  0  0
   42.2190   21.0830   35.6360 N   0  0  0  0  0  0  0  0  0  0  0  0
   43.3440   20.0910   37.4730 N   0  0  0  0  0  0  0  0  0  0  0  0
   41.1430   22.0100   34.0410 H   0  0  0  0  0  0  0  0  0  0  0  0
   44.2490   20.0030   36.9280 H   0  0  0  0  0  0  0  0  0  0  0  0
   43.2550   19.5670   38.3930 H   0  0  0  0  0  0  0  0  0  0  0  0
   37.4670   23.7630   38.3490 H   0  0  0  0  0  0  0  0  0  0  0  0
   38.1830   23.3230   37.6390 C   0  0  0  0  0  0  0  0  0  0  0  0
   37.9200   23.2890   36.4210 O   0  0  0  0  0  0  0  0  0  0  0  0
   39.3990   22.8120   38.2230 N   0  0  0  0  0  0  0  0  0  0  0  0
   39.5380   22.8840   39.2750 H   0  0  0  0  0  0  0  0  0  0  0  0
   37.9550   21.5870   32.5550 Cl  0  0  0  0  0  0  0  0  0  0  0  0
   37.4680   23.2610   32.4790 C   0  0  0  0  0  0  0  0  0  0  0  0
   38.2970   24.1320   33.1460 C   0  0  0  0  0  0  0  0  0  0  0  0
   37.9470   25.4730   33.0780 C   0  0  0  0  0  0  0  0  0  0  0  0
   36.8280   25.9010   32.3740 C   0  0  0  0  0  0  0  0  0  0  0  0
   36.0110   24.9680   31.7040 C   0  0  0  0  0  0  0  0  0  0  0  0
   34.6110   25.3860   30.7470 Cl  0  0  0  0  0  0  0  0  0  0  0  0
   36.3600   23.6170   31.7730 C   0  0  0  0  0  0  0  0  0  0  0  0
   38.3500   26.3850   33.4850 H   0  0  0  0  0  0  0  0  0  0  0  0
   36.4370   26.8860   32.2330 H   0  0  0  0  0  0  0  0  0  0  0  0
   35.7890   22.8500   31.2950 H   0  0  0  0  0  0  0  0  0  0  0  0
  1  4  1  1  0  0  0
  1  9  1  0  0  0  0
  2  5  1  0  0  0  0
  2  1  1  0  0  0  0
  2  6  1  0  0  0  0
  3  7  1  6  0  0  0
  3  2  1  0  0  0  0
  3  1  1  0  0  0  0
  8 13  2  0  0  0  0
  8  9  1  0  0  0  0
  9 10  2  0  0  0  0
 10 11  1  0  0  0  0
 10 21  1  0  0  0  0
 12 14  1  0  0  0  0
 12 11  2  0  0  0  0
 13 12  1  0  0  0  0
 14 17  1  0  0  0  0
 15  8  1  0  0  0  0
 16 14  1  0  0  0  0
 19 21  1  0  0  0  0
 19 18  1  0  0  0  0
 20 19  2  0  0  0  0
 21 22  1  0  0  0  0
 24 23  1  0  0  0  0
 24 25  1  0  0  0  0
 25  3  1  0  0  0  0
 26 25  2  0  0  0  0
 26 31  1  0  0  0  0
 27 26  1  0  0  0  0
 28 30  1  0  0  0  0
 28 27  2  0  0  0  0
 29 28  1  0  0  0  0
 30 24  2  0  0  0  0
 32 27  1  0  0  0  0
 33 30  1  0  0  0  0
M  END
>  <minimizedAffinity>
-5.57060432

$$$$

 OpenBabel03262522453D

 33 35  0  0  1  0  0  0  0  0999 V2000
   38.5790   24.9310   33.8860 C   0  0  1  0  0  0  0  0  0  0  0  0
   38.3700   25.5100   35.1820 C   0  0  0  0  0  0  0  0  0  0  0  0
   38.1940   24.0090   35.0790 C   0  0  2  0  0  0  0  0  0  0  0  0
   39.5470   24.4880   33.4970 H   0  0  0  0  0  0  0  0  0  0  0  0
   39.2470   25.8410   35.7630 H   0  0  0  0  0  0  0  0  0  0  0  0
   37.4630   26.0880   35.4000 H   0  0  0  0  0  0  0  0  0  0  0  0
   37.1780   23.8060   35.4320 H   0  0  0  0  0  0  0  0  0  0  0  0
   36.7260   23.9100   32.4020 C   0  0  0  0  0  0  0  0  0  0  0  0
   37.5240   25.0510   32.8190 C   0  0  0  0  0  0  0  0  0  0  0  0
   37.2670   26.2760   32.2950 C   0  0  0  0  0  0  0  0  0  0  0  0
   36.2360   26.3680   31.3700 N   0  0  0  0  0  0  0  0  0  0  0  0
   35.5130   25.2960   31.0020 C   0  0  0  0  0  0  0  0  0  0  0  0
   35.7560   24.0800   31.5150 N   0  0  0  0  0  0  0  0  0  0  0  0
   34.4580   25.4170   30.0470 N   0  0  0  0  0  0  0  0  0  0  0  0
   36.9750   22.9520   32.8560 H   0  0  0  0  0  0  0  0  0  0  0  0
   33.6540   24.7270   30.0590 H   0  0  0  0  0  0  0  0  0  0  0  0
   34.4540   26.1860   29.3140 H   0  0  0  0  0  0  0  0  0  0  0  0
   39.8200   28.0950   33.6350 H   0  0  0  0  0  0  0  0  0  0  0  0
   39.2550   27.1930   33.3560 C   0  0  0  0  0  0  0  0  0  0  0  0
   39.6960   26.0630   33.6390 O   0  0  0  0  0  0  0  0  0  0  0  0
   38.0120   27.4310   32.6630 N   0  0  0  0  0  0  0  0  0  0  0  0
   37.7140   28.4320   32.4640 H   0  0  0  0  0  0  0  0  0  0  0  0
   38.3870   23.8020   38.1660 Cl  0  0  0  0  0  0  0  0  0  0  0  0
   39.4920   23.0090   37.0730 C   0  0  0  0  0  0  0  0  0  0  0  0
   39.2700   23.2670   35.7420 C   0  0  0  0  0  0  0  0  0  0  0  0
   40.1520   22.6690   34.8530 C   0  0  0  0  0  0  0  0  0  0  0  0
   41.1960   21.8630   35.2910 C   0  0  0  0  0  0  0  0  0  0  0  0
   41.3830   21.6310   36.6690 C   0  0  0  0  0  0  0  0  0  0  0  0
   42.6840   20.6810   37.3440 Cl  0  0  0  0  0  0  0  0  0  0  0  0
   40.4940   22.2300   37.5650 C   0  0  0  0  0  0  0  0  0  0  0  0
   40.2520   22.6470   33.7810 H   0  0  0  0  0  0  0  0  0  0  0  0
   41.9460   21.3420   34.7350 H   0  0  0  0  0  0  0  0  0  0  0  0
   40.5690   22.0980   38.6230 H   0  0  0  0  0  0  0  0  0  0  0  0
  1  4  1  6  0  0  0
  1  3  1  0  0  0  0
  1  2  1  0  0  0  0
  2  6  1  0  0  0  0
  2  5  1  0  0  0  0
  3  2  1  0  0  0  0
  3  7  1  1  0  0  0
  3 25  1  0  0  0  0
  8  9  1  0  0  0  0
  8 15  1  0  0  0  0
  9  1  1  0  0  0  0
 10 21  1  0  0  0  0
 10  9  2  0  0  0  0
 11 10  1  0  0  0  0
 12 11  2  0  0  0  0
 12 13  1  0  0  0  0
 13  8  2  0  0  0  0
 14 16  1  0  0  0  0
 14 12  1  0  0  0  0
 17 14  1  0  0  0  0
 19 18  1  0  0  0  0
 19 20  2  0  0  0  0
 21 19  1  0  0  0  0
 22 21  1  0  0  0  0
 24 30  1  0  0  0  0
 24 23  1  0  0  0  0
 25 24  2  0  0  0  0
 26 27  2  0  0  0  0
 26 25  1  0  0  0  0
 27 28  1  0  0  0  0
 28 29  1  0  0  0  0
 28 30  2  0  0  0  0
 30 33  1  0  0  0  0
 31 26  1  0  0  0  0
 32 27  1  0  0  0  0
M  END
>  <minimizedAffinity>
-5.53009653

$$$$

 OpenBabel03262522453D

 33 35  0  0  1  0  0  0  0  0999 V2000
   39.0830   26.0320   34.4270 C   0  0  1  0  0  0  0  0  0  0  0  0
   39.0210   25.8190   33.0090 C   0  0  0  0  0  0  0  0  0  0  0  0
   37.6960   25.8540   33.7440 C   0  0  2  0  0  0  0  0  0  0  0  0
   39.0020   27.0290   34.9590 H   0  0  0  0  0  0  0  0  0  0  0  0
   39.2060   26.6720   32.3350 H   0  0  0  0  0  0  0  0  0  0  0  0
   39.3040   24.8530   32.5730 H   0  0  0  0  0  0  0  0  0  0  0  0
   37.2090   24.9000   33.5190 H   0  0  0  0  0  0  0  0  0  0  0  0
   38.4950   24.1880   36.1370 C   0  0  0  0  0  0  0  0  0  0  0  0
   39.4780   24.9110   35.3490 C   0  0  0  0  0  0  0  0  0  0  0  0
   40.7790   24.5220   35.3790 C   0  0  0  0  0  0  0  0  0  0  0  0
   41.0980   23.4340   36.1800 N   0  0  0  0  0  0  0  0  0  0  0  0
   40.1680   22.7830   36.9000 C   0  0  0  0  0  0  0  0  0  0  0  0
   38.8790   23.1570   36.8770 N   0  0  0  0  0  0  0  0  0  0  0  0
   40.5220   21.6680   37.7180 N   0  0  0  0  0  0  0  0  0  0  0  0
   37.4670   24.5430   36.0740 H   0  0  0  0  0  0  0  0  0  0  0  0
   39.7990   20.9260   37.9420 H   0  0  0  0  0  0  0  0  0  0  0  0
   41.5010   21.5560   38.1150 H   0  0  0  0  0  0  0  0  0  0  0  0
   42.2280   26.9870   33.5240 H   0  0  0  0  0  0  0  0  0  0  0  0
   41.4380   26.4840   34.1020 C   0  0  0  0  0  0  0  0  0  0  0  0
   40.3320   27.0340   34.2650 O   0  0  0  0  0  0  0  0  0  0  0  0
   41.7870   25.1880   34.6300 N   0  0  0  0  0  0  0  0  0  0  0  0
   42.7570   24.7960   34.4380 H   0  0  0  0  0  0  0  0  0  0  0  0
   36.5150   26.4070   30.9320 Cl  0  0  0  0  0  0  0  0  0  0  0  0
   36.2700   27.4550   32.3060 C   0  0  0  0  0  0  0  0  0  0  0  0
   36.9200   27.0620   33.4520 C   0  0  0  0  0  0  0  0  0  0  0  0
   36.7630   27.8920   34.5530 C   0  0  0  0  0  0  0  0  0  0  0  0
   35.9970   29.0500   34.4910 C   0  0  0  0  0  0  0  0  0  0  0  0
   35.3500   29.4100   33.2900 C   0  0  0  0  0  0  0  0  0  0  0  0
   34.4030   30.8610   33.0740 Cl  0  0  0  0  0  0  0  0  0  0  0  0
   35.5050   28.5740   32.1820 C   0  0  0  0  0  0  0  0  0  0  0  0
   37.1070   27.8750   35.5730 H   0  0  0  0  0  0  0  0  0  0  0  0
   35.7860   29.7790   35.2430 H   0  0  0  0  0  0  0  0  0  0  0  0
   35.0450   28.7770   31.2390 H   0  0  0  0  0  0  0  0  0  0  0  0
  1  4  1  1  0  0  0
  1  9  1  0  0  0  0
  2  3  1  0  0  0  0
  2  1  1  0  0  0  0
  3  7  1  1  0  0  0
  3  1  1  0  0  0  0
  5  2  1  0  0  0  0
  6  2  1  0  0  0  0
  8 13  1  0  0  0  0
  9 10  1  0  0  0  0
  9  8  2  0  0  0  0
 10 11  2  0  0  0  0
 11 12  1  0  0  0  0
 12 14  1  0  0  0  0
 13 12  2  0  0  0  0
 14 16  1  0  0  0  0
 14 17  1  0  0  0  0
 15  8  1  0  0  0  0
 18 19  1  0  0  0  0
 19 20  2  0  0  0  0
 19 21  1  0  0  0  0
 21 10  1  0  0  0  0
 22 21  1  0  0  0  0
 23 24  1  0  0  0  0
 24 25  1  0  0  0  0
 25  3  1  0  0  0  0
 25 26  2  0  0  0  0
 26 31  1  0  0  0  0
 27 26  1  0  0  0  0
 27 32  1  0  0  0  0
 28 27  2  0  0  0  0
 29 28  1  0  0  0  0
 30 24  2  0  0  0  0
 30 28  1  0  0  0  0
 33 30  1  0  0  0  0
M  END
>  <minimizedAffinity>
-5.44965649

$$$$

 OpenBabel03262522453D

 33 35  0  0  1  0  0  0  0  0999 V2000
   40.3200   24.7210   34.8660 C   0  0  1  0  0  0  0  0  0  0  0  0
   40.0800   24.4840   33.4710 C   0  0  0  0  0  0  0  0  0  0  0  0
   38.8590   24.5310   34.3680 C   0  0  2  0  0  0  0  0  0  0  0  0
   40.3040   25.7260   35.3880 H   0  0  0  0  0  0  0  0  0  0  0  0
   40.1760   25.3270   32.7660 H   0  0  0  0  0  0  0  0  0  0  0  0
   40.3080   23.5120   33.0180 H   0  0  0  0  0  0  0  0  0  0  0  0
   38.3490   23.5730   34.2220 H   0  0  0  0  0  0  0  0  0  0  0  0
   39.9310   22.6880   36.4120 C   0  0  0  0  0  0  0  0  0  0  0  0
   40.8320   23.6150   35.7490 C   0  0  0  0  0  0  0  0  0  0  0  0
   42.1740   23.4390   35.8590 C   0  0  0  0  0  0  0  0  0  0  0  0
   42.6140   22.3620   36.6160 N   0  0  0  0  0  0  0  0  0  0  0  0
   41.7570   21.5200   37.2200 C   0  0  0  0  0  0  0  0  0  0  0  0
   40.4300   21.6820   37.1170 N   0  0  0  0  0  0  0  0  0  0  0  0
   42.2360   20.4210   37.9960 N   0  0  0  0  0  0  0  0  0  0  0  0
   38.8650   22.8760   36.2880 H   0  0  0  0  0  0  0  0  0  0  0  0
   41.6320   19.5580   38.1160 H   0  0  0  0  0  0  0  0  0  0  0  0
   43.1900   20.4400   38.4620 H   0  0  0  0  0  0  0  0  0  0  0  0
   43.3170   26.2330   34.2750 H   0  0  0  0  0  0  0  0  0  0  0  0
   42.5840   25.5690   34.7570 C   0  0  0  0  0  0  0  0  0  0  0  0
   41.3940   25.9200   34.8650 O   0  0  0  0  0  0  0  0  0  0  0  0
   43.1070   24.3110   35.2330 N   0  0  0  0  0  0  0  0  0  0  0  0
   44.1400   24.0960   35.0960 H   0  0  0  0  0  0  0  0  0  0  0  0
   38.2300   26.5090   36.6690 Cl  0  0  0  0  0  0  0  0  0  0  0  0
   37.7150   26.7510   35.0200 C   0  0  0  0  0  0  0  0  0  0  0  0
   38.0490   25.7340   34.1570 C   0  0  0  0  0  0  0  0  0  0  0  0
   37.6280   25.8890   32.8450 C   0  0  0  0  0  0  0  0  0  0  0  0
   36.9110   27.0070   32.4350 C   0  0  0  0  0  0  0  0  0  0  0  0
   36.5910   28.0240   33.3590 C   0  0  0  0  0  0  0  0  0  0  0  0
   35.6550   29.4470   32.9790 Cl  0  0  0  0  0  0  0  0  0  0  0  0
   37.0170   27.8690   34.6810 C   0  0  0  0  0  0  0  0  0  0  0  0
   37.7300   25.3130   31.9400 H   0  0  0  0  0  0  0  0  0  0  0  0
   36.5230   27.2640   31.4730 H   0  0  0  0  0  0  0  0  0  0  0  0
   36.8170   28.5970   35.4380 H   0  0  0  0  0  0  0  0  0  0  0  0
  1  4  1  1  0  0  0
  1  9  1  0  0  0  0
  2  3  1  0  0  0  0
  2  1  1  0  0  0  0
  3  7  1  1  0  0  0
  3  1  1  0  0  0  0
  5  2  1  0  0  0  0
  6  2  1  0  0  0  0
  8 13  1  0  0  0  0
  9 10  1  0  0  0  0
  9  8  2  0  0  0  0
 10 11  2  0  0  0  0
 11 12  1  0  0  0  0
 12 14  1  0  0  0  0
 13 12  2  0  0  0  0
 14 16  1  0  0  0  0
 14 17  1  0  0  0  0
 15  8  1  0  0  0  0
 18 19  1  0  0  0  0
 19 20  2  0  0  0  0
 19 21  1  0  0  0  0
 21 10  1  0  0  0  0
 22 21  1  0  0  0  0
 24 23  1  0  0  0  0
 25  3  1  0  0  0  0
 25 24  2  0  0  0  0
 26 25  1  0  0  0  0
 27 26  2  0  0  0  0
 27 28  1  0  0  0  0
 28 30  2  0  0  0  0
 29 28  1  0  0  0  0
 30 24  1  0  0  0  0
 30 33  1  0  0  0  0
 31 26  1  0  0  0  0
 32 27  1  0  0  0  0
M  END
>  <minimizedAffinity>
-5.37859726

$$$$

 OpenBabel03262522453D

 33 35  0  0  1  0  0  0  0  0999 V2000
   35.6600   29.0480   31.8680 C   0  0  1  0  0  0  0  0  0  0  0  0
   36.4300   28.8420   33.0620 C   0  0  0  0  0  0  0  0  0  0  0  0
   35.7290   30.1800   32.9340 C   0  0  2  0  0  0  0  0  0  0  0  0
   34.5510   28.8540   31.7440 H   0  0  0  0  0  0  0  0  0  0  0  0
   36.0290   28.1760   33.8430 H   0  0  0  0  0  0  0  0  0  0  0  0
   37.5260   28.8690   33.0360 H   0  0  0  0  0  0  0  0  0  0  0  0
   36.5160   30.9350   33.0190 H   0  0  0  0  0  0  0  0  0  0  0  0
   36.4460   30.7310   30.0730 C   0  0  0  0  0  0  0  0  0  0  0  0
   36.3450   29.3680   30.5670 C   0  0  0  0  0  0  0  0  0  0  0  0
   36.9470   28.3610   29.8840 C   0  0  0  0  0  0  0  0  0  0  0  0
   37.6370   28.7000   28.7290 N   0  0  0  0  0  0  0  0  0  0  0  0
   37.7140   29.9700   28.2930 C   0  0  0  0  0  0  0  0  0  0  0  0
   37.1250   30.9740   28.9600 N   0  0  0  0  0  0  0  0  0  0  0  0
   38.4290   30.2930   27.1000 N   0  0  0  0  0  0  0  0  0  0  0  0
   35.9450   31.4990   30.6610 H   0  0  0  0  0  0  0  0  0  0  0  0
   38.8390   31.2620   26.9760 H   0  0  0  0  0  0  0  0  0  0  0  0
   38.5650   29.5830   26.3210 H   0  0  0  0  0  0  0  0  0  0  0  0
   35.8530   25.6530   31.6410 H   0  0  0  0  0  0  0  0  0  0  0  0
   35.8890   26.7030   31.3160 C   0  0  0  0  0  0  0  0  0  0  0  0
   35.1040   27.5390   31.8030 O   0  0  0  0  0  0  0  0  0  0  0  0
   36.8840   27.0080   30.3170 N   0  0  0  0  0  0  0  0  0  0  0  0
   37.5130   26.2280   29.9590 H   0  0  0  0  0  0  0  0  0  0  0  0
   36.0980   31.1690   35.8480 Cl  0  0  0  0  0  0  0  0  0  0  0  0
   34.5460   30.7890   35.1460 C   0  0  0  0  0  0  0  0  0  0  0  0
   34.5980   30.3150   33.8570 C   0  0  0  0  0  0  0  0  0  0  0  0
   33.3800   29.9800   33.2840 C   0  0  0  0  0  0  0  0  0  0  0  0
   32.1840   30.1150   33.9810 C   0  0  0  0  0  0  0  0  0  0  0  0
   32.1840   30.6030   35.3040 C   0  0  0  0  0  0  0  0  0  0  0  0
   30.7570   30.7700   36.2960 Cl  0  0  0  0  0  0  0  0  0  0  0  0
   33.4100   30.9440   35.8800 C   0  0  0  0  0  0  0  0  0  0  0  0
   33.0680   29.6100   32.3220 H   0  0  0  0  0  0  0  0  0  0  0  0
   31.1810   29.9010   33.6780 H   0  0  0  0  0  0  0  0  0  0  0  0
   33.4910   31.3240   36.8750 H   0  0  0  0  0  0  0  0  0  0  0  0
  1  4  1  6  0  0  0
  1  3  1  0  0  0  0
  1  2  1  0  0  0  0
  2  5  1  0  0  0  0
  3  7  1  6  0  0  0
  3  2  1  0  0  0  0
  3 25  1  0  0  0  0
  6  2  1  0  0  0  0
  8  9  1  0  0  0  0
  8 15  1  0  0  0  0
  9  1  1  0  0  0  0
 10 21  1  0  0  0  0
 10  9  2  0  0  0  0
 11 10  1  0  0  0  0
 12 11  2  0  0  0  0
 12 13  1  0  0  0  0
 13  8  2  0  0  0  0
 14 12  1  0  0  0  0
 16 14  1  0  0  0  0
 17 14  1  0  0  0  0
 19 18  1  0  0  0  0
 19 20  2  0  0  0  0
 21 19  1  0  0  0  0
 22 21  1  0  0  0  0
 24 23  1  0  0  0  0
 24 30  1  0  0  0  0
 25 24  2  0  0  0  0
 26 25  1  0  0  0  0
 26 27  2  0  0  0  0
 27 28  1  0  0  0  0
 28 30  2  0  0  0  0
 28 29  1  0  0  0  0
 30 33  1  0  0  0  0
 31 26  1  0  0  0  0
 32 27  1  0  0  0  0
M  END
>  <minimizedAffinity>
-5.31877851

$$$$

 OpenBabel03262522453D

 33 35  0  0  1  0  0  0  0  0999 V2000
   38.8200   25.5720   33.8790 C   0  0  1  0  0  0  0  0  0  0  0  0
   38.4600   24.8670   32.6820 C   0  0  0  0  0  0  0  0  0  0  0  0
   37.4000   25.7710   33.2760 C   0  0  2  0  0  0  0  0  0  0  0  0
   39.2440   26.6210   33.9380 H   0  0  0  0  0  0  0  0  0  0  0  0
   38.8800   25.2060   31.7200 H   0  0  0  0  0  0  0  0  0  0  0  0
   38.2450   23.7920   32.7050 H   0  0  0  0  0  0  0  0  0  0  0  0
   36.5310   25.1300   33.4530 H   0  0  0  0  0  0  0  0  0  0  0  0
   37.7850   25.0270   36.1820 C   0  0  0  0  0  0  0  0  0  0  0  0
   38.8460   24.8580   35.2030 C   0  0  0  0  0  0  0  0  0  0  0  0
   39.8500   23.9780   35.4480 C   0  0  0  0  0  0  0  0  0  0  0  0
   39.8030   23.2770   36.6450 N   0  0  0  0  0  0  0  0  0  0  0  0
   38.8100   23.4530   37.5340 C   0  0  0  0  0  0  0  0  0  0  0  0
   37.8110   24.3190   37.3030 N   0  0  0  0  0  0  0  0  0  0  0  0
   38.7860   22.7210   38.7600 N   0  0  0  0  0  0  0  0  0  0  0  0
   37.0050   25.7450   35.9330 H   0  0  0  0  0  0  0  0  0  0  0  0
   37.8620   22.5360   39.2460 H   0  0  0  0  0  0  0  0  0  0  0  0
   39.6760   22.3520   39.2070 H   0  0  0  0  0  0  0  0  0  0  0  0
   41.8930   24.5810   32.7870 H   0  0  0  0  0  0  0  0  0  0  0  0
   41.0650   24.7570   33.4900 C   0  0  0  0  0  0  0  0  0  0  0  0
   40.3330   25.7560   33.3610 O   0  0  0  0  0  0  0  0  0  0  0  0
   40.9150   23.7680   34.5290 N   0  0  0  0  0  0  0  0  0  0  0  0
   41.5890   22.9450   34.5610 H   0  0  0  0  0  0  0  0  0  0  0  0
   36.1920   28.3540   34.4910 Cl  0  0  0  0  0  0  0  0  0  0  0  0
   36.7040   28.2170   32.8290 C   0  0  0  0  0  0  0  0  0  0  0  0
   37.1650   26.9730   32.4700 C   0  0  0  0  0  0  0  0  0  0  0  0
   37.5540   26.8290   31.1460 C   0  0  0  0  0  0  0  0  0  0  0  0
   37.4760   27.8830   30.2440 C   0  0  0  0  0  0  0  0  0  0  0  0
   36.9940   29.1410   30.6610 C   0  0  0  0  0  0  0  0  0  0  0  0
   36.8030   30.5250   29.6130 Cl  0  0  0  0  0  0  0  0  0  0  0  0
   36.6050   29.2880   31.9950 C   0  0  0  0  0  0  0  0  0  0  0  0
   37.9630   26.0260   30.5560 H   0  0  0  0  0  0  0  0  0  0  0  0
   37.7350   27.9260   29.2070 H   0  0  0  0  0  0  0  0  0  0  0  0
   36.2330   30.2100   32.3870 H   0  0  0  0  0  0  0  0  0  0  0  0
  1  4  1  6  0  0  0
  1  9  1  0  0  0  0
  2  6  1  0  0  0  0
  2  3  1  0  0  0  0
  2  1  1  0  0  0  0
  3  7  1  1  0  0  0
  3  1  1  0  0  0  0
  5  2  1  0  0  0  0
  8 13  1  0  0  0  0
  9 10  1  0  0  0  0
  9  8  2  0  0  0  0
 10 11  2  0  0  0  0
 11 12  1  0  0  0  0
 12 14  1  0  0  0  0
 13 12  2  0  0  0  0
 14 17  1  0  0  0  0
 14 16  1  0  0  0  0
 15  8  1  0  0  0  0
 18 19  1  0  0  0  0
 19 21  1  0  0  0  0
 20 19  2  0  0  0  0
 21 22  1  0  0  0  0
 21 10  1  0  0  0  0
 24 23  1  0  0  0  0
 25 24  1  0  0  0  0
 25  3  1  0  0  0  0
 26 25  2  0  0  0  0
 27 28  2  0  0  0  0
 27 26  1  0  0  0  0
 28 30  1  0  0  0  0
 29 28  1  0  0  0  0
 30 33  1  0  0  0  0
 30 24  2  0  0  0  0
 31 26  1  0  0  0  0
 32 27  1  0  0  0  0
M  END
>  <minimizedAffinity>
-5.31566715

$$$$

 OpenBabel03262522453D

 33 35  0  0  1  0  0  0  0  0999 V2000
   35.8620   29.3900   32.8470 C   0  0  1  0  0  0  0  0  0  0  0  0
   34.4380   29.3500   32.6690 C   0  0  0  0  0  0  0  0  0  0  0  0
   34.9460   29.1560   34.0830 C   0  0  2  0  0  0  0  0  0  0  0  0
   36.4770   30.2990   33.1290 H   0  0  0  0  0  0  0  0  0  0  0  0
   33.8990   30.2960   32.4910 H   0  0  0  0  0  0  0  0  0  0  0  0
   33.9530   28.4810   32.2070 H   0  0  0  0  0  0  0  0  0  0  0  0
   34.5450   28.1920   34.4110 H   0  0  0  0  0  0  0  0  0  0  0  0
   37.1990   27.2640   33.4490 C   0  0  0  0  0  0  0  0  0  0  0  0
   36.7110   28.2100   32.4600 C   0  0  0  0  0  0  0  0  0  0  0  0
   36.9560   27.9890   31.1430 C   0  0  0  0  0  0  0  0  0  0  0  0
   37.6760   26.8490   30.8140 N   0  0  0  0  0  0  0  0  0  0  0  0
   38.1160   25.9900   31.7500 C   0  0  0  0  0  0  0  0  0  0  0  0
   37.8780   26.1960   33.0540 N   0  0  0  0  0  0  0  0  0  0  0  0
   38.8570   24.8250   31.3840 N   0  0  0  0  0  0  0  0  0  0  0  0
   36.9720   27.4900   34.4900 H   0  0  0  0  0  0  0  0  0  0  0  0
   38.8450   23.9730   32.0150 H   0  0  0  0  0  0  0  0  0  0  0  0
   39.4270   24.7840   30.4880 H   0  0  0  0  0  0  0  0  0  0  0  0
   35.7210   30.8560   29.7730 H   0  0  0  0  0  0  0  0  0  0  0  0
   36.0690   30.1800   30.5690 C   0  0  0  0  0  0  0  0  0  0  0  0
   36.0690   30.5560   31.7570 O   0  0  0  0  0  0  0  0  0  0  0  0
   36.5050   28.8770   30.1280 N   0  0  0  0  0  0  0  0  0  0  0  0
   36.4680   28.6430   29.0920 H   0  0  0  0  0  0  0  0  0  0  0  0
   32.0770   29.8070   35.0580 Cl  0  0  0  0  0  0  0  0  0  0  0  0
   33.4880   30.7190   35.5300 C   0  0  0  0  0  0  0  0  0  0  0  0
   34.6630   30.3040   34.9490 C   0  0  0  0  0  0  0  0  0  0  0  0
   35.7960   31.0290   35.2870 C   0  0  0  0  0  0  0  0  0  0  0  0
   35.7380   32.1090   36.1590 C   0  0  0  0  0  0  0  0  0  0  0  0
   34.5070   32.4980   36.7280 C   0  0  0  0  0  0  0  0  0  0  0  0
   34.2980   33.8640   37.7940 Cl  0  0  0  0  0  0  0  0  0  0  0  0
   33.3660   31.7670   36.3900 C   0  0  0  0  0  0  0  0  0  0  0  0
   36.8420   30.9650   35.0370 H   0  0  0  0  0  0  0  0  0  0  0  0
   36.5140   32.7560   36.5100 H   0  0  0  0  0  0  0  0  0  0  0  0
   32.3990   31.9970   36.7830 H   0  0  0  0  0  0  0  0  0  0  0  0
  1  4  1  6  0  0  0
  1  3  1  0  0  0  0
  2  1  1  0  0  0  0
  2  3  1  0  0  0  0
  3  7  1  1  0  0  0
  3 25  1  0  0  0  0
  5  2  1  0  0  0  0
  6  2  1  0  0  0  0
  8 15  1  0  0  0  0
  9  1  1  0  0  0  0
  9  8  2  0  0  0  0
 10  9  1  0  0  0  0
 11 10  2  0  0  0  0
 11 12  1  0  0  0  0
 12 13  2  0  0  0  0
 13  8  1  0  0  0  0
 14 12  1  0  0  0  0
 14 16  1  0  0  0  0
 17 14  1  0  0  0  0
 18 19  1  0  0  0  0
 19 20  2  0  0  0  0
 21 19  1  0  0  0  0
 21 10  1  0  0  0  0
 22 21  1  0  0  0  0
 23 24  1  0  0  0  0
 24 30  1  0  0  0  0
 25 26  1  0  0  0  0
 25 24  2  0  0  0  0
 26 27  2  0  0  0  0
 27 32  1  0  0  0  0
 27 28  1  0  0  0  0
 28 29  1  0  0  0  0
 30 28  2  0  0  0  0
 30 33  1  0  0  0  0
 31 26  1  0  0  0  0
M  END
>  <minimizedAffinity>
-5.30957603

$$$$

 OpenBabel03262522453D

 33 35  0  0  1  0  0  0  0  0999 V2000
   34.3610   29.8620   34.0420 C   0  0  1  0  0  0  0  0  0  0  0  0
   34.5530   30.2900   32.6860 C   0  0  0  0  0  0  0  0  0  0  0  0
   35.7760   29.7540   33.4020 C   0  0  2  0  0  0  0  0  0  0  0  0
   34.1340   28.8070   34.3860 H   0  0  0  0  0  0  0  0  0  0  0  0
   34.1720   29.6540   31.8690 H   0  0  0  0  0  0  0  0  0  0  0  0
   34.5740   31.3570   32.4300 H   0  0  0  0  0  0  0  0  0  0  0  0
   36.5210   30.5540   33.3530 H   0  0  0  0  0  0  0  0  0  0  0  0
   35.4110   31.3200   35.8980 C   0  0  0  0  0  0  0  0  0  0  0  0
   34.2480   30.8730   35.1510 C   0  0  0  0  0  0  0  0  0  0  0  0
   33.0360   31.4320   35.3990 C   0  0  0  0  0  0  0  0  0  0  0  0
   32.9800   32.4180   36.3740 N   0  0  0  0  0  0  0  0  0  0  0  0
   34.0720   32.8130   37.0510 C   0  0  0  0  0  0  0  0  0  0  0  0
   35.2750   32.2690   36.8140 N   0  0  0  0  0  0  0  0  0  0  0  0
   33.9860   33.8280   38.0520 N   0  0  0  0  0  0  0  0  0  0  0  0
   36.3580   30.8380   35.6560 H   0  0  0  0  0  0  0  0  0  0  0  0
   34.8370   34.4170   38.2800 H   0  0  0  0  0  0  0  0  0  0  0  0
   33.0850   34.0150   38.5820 H   0  0  0  0  0  0  0  0  0  0  0  0
   31.0270   29.5100   33.4270 H   0  0  0  0  0  0  0  0  0  0  0  0
   31.9440   29.8020   33.9620 C   0  0  0  0  0  0  0  0  0  0  0  0
   32.9590   29.0830   33.9070 O   0  0  0  0  0  0  0  0  0  0  0  0
   31.8610   31.0380   34.7010 N   0  0  0  0  0  0  0  0  0  0  0  0
   30.9510   31.5880   34.6900 H   0  0  0  0  0  0  0  0  0  0  0  0
   37.3570   27.7500   35.1600 Cl  0  0  0  0  0  0  0  0  0  0  0  0
   36.8410   27.4060   33.5290 C   0  0  0  0  0  0  0  0  0  0  0  0
   36.1980   28.4440   32.8980 C   0  0  0  0  0  0  0  0  0  0  0  0
   35.8000   28.2060   31.5900 C   0  0  0  0  0  0  0  0  0  0  0  0
   36.0440   26.9900   30.9630 C   0  0  0  0  0  0  0  0  0  0  0  0
   36.7110   25.9560   31.6530 C   0  0  0  0  0  0  0  0  0  0  0  0
   37.1190   24.4070   30.9590 Cl  0  0  0  0  0  0  0  0  0  0  0  0
   37.1090   26.1940   32.9710 C   0  0  0  0  0  0  0  0  0  0  0  0
   35.2770   28.7740   30.8400 H   0  0  0  0  0  0  0  0  0  0  0  0
   35.8030   26.6630   29.9750 H   0  0  0  0  0  0  0  0  0  0  0  0
   37.6150   25.4600   33.5600 H   0  0  0  0  0  0  0  0  0  0  0  0
  1  4  1  1  0  0  0
  1  9  1  0  0  0  0
  2  3  1  0  0  0  0
  2  1  1  0  0  0  0
  3  7  1  1  0  0  0
  3  1  1  0  0  0  0
  5  2  1  0  0  0  0
  6  2  1  0  0  0  0
  8 13  1  0  0  0  0
  9 10  1  0  0  0  0
  9  8  2  0  0  0  0
 10 11  2  0  0  0  0
 11 12  1  0  0  0  0
 12 14  1  0  0  0  0
 13 12  2  0  0  0  0
 14 16  1  0  0  0  0
 14 17  1  0  0  0  0
 15  8  1  0  0  0  0
 18 19  1  0  0  0  0
 19 21  1  0  0  0  0
 20 19  2  0  0  0  0
 21 10  1  0  0  0  0
 22 21  1  0  0  0  0
 24 23  1  0  0  0  0
 25  3  1  0  0  0  0
 25 24  2  0  0  0  0
 26 25  1  0  0  0  0
 27 26  2  0  0  0  0
 27 28  1  0  0  0  0
 28 30  2  0  0  0  0
 29 28  1  0  0  0  0
 30 24  1  0  0  0  0
 30 33  1  0  0  0  0
 31 26  1  0  0  0  0
 32 27  1  0  0  0  0
M  END
>  <minimizedAffinity>
-5.17304945

$$$$
