
 OpenBabel03272510093D

 23 24  0  0  0  0  0  0  0  0999 V2000
   37.6030   31.2600   48.6990 C   0  0  0  0  0  0  0  0  0  0  0  0
   38.1410   32.4920   48.9820 C   0  0  0  0  0  0  0  0  0  0  0  0
   38.9760   33.2120   48.1500 C   0  0  0  0  0  0  0  0  0  0  0  0
   39.3080   32.6590   46.9260 C   0  0  0  0  0  0  0  0  0  0  0  0
   38.7630   31.4160   46.6450 C   0  0  0  0  0  0  0  0  0  0  0  0
   37.9600   30.7760   47.4990 N   0  0  0  0  0  0  0  0  0  0  0  0
   37.9110   32.9710   49.9330 H   0  0  0  0  0  0  0  0  0  0  0  0
   39.3640   34.1730   48.4320 H   0  0  0  0  0  0  0  0  0  0  0  0
   39.0340   30.9970   45.6790 H   0  0  0  0  0  0  0  0  0  0  0  0
   37.1410   30.0650   50.8630 C   0  0  0  0  0  0  0  0  0  0  0  0
   36.7280   30.5330   49.6020 C   0  0  0  0  0  0  0  0  0  0  0  0
   35.4280   30.2950   49.1960 C   0  0  0  0  0  0  0  0  0  0  0  0
   34.6190   29.6060   50.0670 N   0  0  0  0  0  0  0  0  0  0  0  0
   35.0380   29.1710   51.2610 C   0  0  0  0  0  0  0  0  0  0  0  0
   36.2900   29.3940   51.6660 N   0  0  0  0  0  0  0  0  0  0  0  0
   38.1730   30.3130   51.0630 H   0  0  0  0  0  0  0  0  0  0  0  0
   34.9930   30.6040   48.2530 H   0  0  0  0  0  0  0  0  0  0  0  0
   34.3860   28.6310   51.9320 H   0  0  0  0  0  0  0  0  0  0  0  0
   40.9090   34.2590   44.2780 H   0  0  0  0  0  0  0  0  0  0  0  0
   40.1060   33.6420   44.6760 C   0  0  0  0  0  0  0  0  0  0  0  0
   39.2020   33.1830   43.9320 O   0  0  0  0  0  0  0  0  0  0  0  0
   40.1680   33.4060   46.0730 N   0  0  0  0  0  0  0  0  0  0  0  0
   40.9090   33.7770   46.7090 H   0  0  0  0  0  0  0  0  0  0  0  0
  1  2  1  0  0  0  0
  1 11  1  0  0  0  0
  2  7  1  0  0  0  0
  3  8  1  0  0  0  0
  3  2  2  0  0  0  0
  4  3  1  0  0  0  0
  5  4  2  0  0  0  0
  5  6  1  0  0  0  0
  6  1  2  0  0  0  0
  9  5  1  0  0  0  0
 10 16  1  0  0  0  0
 10 15  1  0  0  0  0
 11 10  2  0  0  0  0
 12 11  1  0  0  0  0
 12 13  2  0  0  0  0
 13 14  1  0  0  0  0
 14 15  2  0  0  0  0
 14 18  1  0  0  0  0
 17 12  1  0  0  0  0
 19 20  1  0  0  0  0
 20 22  1  0  0  0  0
 21 20  2  0  0  0  0
 22 23  1  0  0  0  0
 22  4  1  0  0  0  0
M  END
>  <minimizedAffinity>
-5.01310253

>  <minimizedRMSD>
1.19954765

$$$$
