
 OpenBabel03272505353D

 31 32  0  0  1  0  0  0  0  0999 V2000
   37.1980   26.1760   33.5520 C   0  0  0  0  0  0  0  0  0  0  0  0
   37.2740   27.4690   34.0720 C   0  0  0  0  0  0  0  0  0  0  0  0
   37.8140   27.6290   35.3560 C   0  0  0  0  0  0  0  0  0  0  0  0
   38.2330   26.5020   36.0190 N   0  0  0  0  0  0  0  0  0  0  0  0
   38.1400   25.2880   35.4780 C   0  0  0  0  0  0  0  0  0  0  0  0
   37.6280   25.1140   34.2570 N   0  0  0  0  0  0  0  0  0  0  0  0
   38.6020   24.1850   36.2470 N   0  0  0  0  0  0  0  0  0  0  0  0
   37.6970   23.4990   37.1400 C   0  0  0  0  0  0  0  0  0  0  0  0
   38.3350   23.2000   38.4730 C   0  0  0  0  0  0  0  0  0  0  0  0
   39.6540   22.6640   38.3430 N   0  0  0  0  0  0  0  0  0  0  0  0
   40.0570   22.4260   36.9960 C   0  0  0  0  0  0  0  0  0  0  0  0
   39.9810   23.7050   36.1690 C   0  0  1  0  0  0  0  0  0  0  0  0
   36.9450   28.3580   33.5530 H   0  0  0  0  0  0  0  0  0  0  0  0
   37.9060   28.5920   35.8270 H   0  0  0  0  0  0  0  0  0  0  0  0
   36.7480   24.0080   37.2780 H   0  0  0  0  0  0  0  0  0  0  0  0
   37.5140   22.5040   36.6610 H   0  0  0  0  0  0  0  0  0  0  0  0
   38.2940   24.0710   39.1720 H   0  0  0  0  0  0  0  0  0  0  0  0
   37.7140   22.4110   38.9490 H   0  0  0  0  0  0  0  0  0  0  0  0
   40.3700   23.2510   38.8270 H   0  0  0  0  0  0  0  0  0  0  0  0
   41.0930   22.0750   36.9760 H   0  0  0  0  0  0  0  0  0  0  0  0
   39.3910   21.6340   36.6060 H   0  0  0  0  0  0  0  0  0  0  0  0
   40.6340   24.4460   36.6580 H   0  0  0  0  0  0  0  0  0  0  0  0
   41.6500   24.1050   33.0980 H   0  0  0  0  0  0  0  0  0  0  0  0
   41.3540   24.3090   34.1140 C   0  0  0  0  0  0  0  0  0  0  0  0
   41.8900   25.3290   34.6670 O   0  0  0  0  0  0  0  0  0  0  0  0
   40.4240   23.5110   34.8360 N   0  0  0  0  0  0  0  0  0  0  0  0
   39.9820   22.6630   34.3690 H   0  0  0  0  0  0  0  0  0  0  0  0
   36.6210   26.0040   32.1780 C   0  0  0  0  0  0  0  0  0  0  0  0
   37.6300   26.1320   31.2270 F   0  0  0  0  0  0  0  0  0  0  0  0
   35.9670   24.8080   32.1470 F   0  0  0  0  0  0  0  0  0  0  0  0
   35.7410   27.0680   31.9690 F   0  0  0  0  0  0  0  0  0  0  0  0
  1  2  2  0  0  0  0
  1  6  1  0  0  0  0
  2  3  1  0  0  0  0
  3 14  1  0  0  0  0
  3  4  2  0  0  0  0
  5  4  1  0  0  0  0
  5  7  1  0  0  0  0
  6  5  2  0  0  0  0
  7  8  1  0  0  0  0
  8 15  1  0  0  0  0
  8  9  1  0  0  0  0
  9 18  1  0  0  0  0
  9 17  1  0  0  0  0
 10  9  1  0  0  0  0
 10 19  1  0  0  0  0
 11 10  1  0  0  0  0
 12  7  1  0  0  0  0
 12 22  1  1  0  0  0
 12 11  1  0  0  0  0
 13  2  1  0  0  0  0
 16  8  1  0  0  0  0
 20 11  1  0  0  0  0
 21 11  1  0  0  0  0
 23 24  1  0  0  0  0
 24 25  2  0  0  0  0
 24 26  1  0  0  0  0
 26 12  1  0  0  0  0
 27 26  1  0  0  0  0
 28  1  1  0  0  0  0
 29 28  1  0  0  0  0
 30 28  1  0  0  0  0
 31 28  1  0  0  0  0
M  END
>  <minimizedAffinity>
-5.26843977

$$$$

 OpenBabel03272505353D

 31 32  0  0  1  0  0  0  0  0999 V2000
   38.8420   23.1490   37.2320 C   0  0  0  0  0  0  0  0  0  0  0  0
   40.1420   22.6420   37.2290 C   0  0  0  0  0  0  0  0  0  0  0  0
   40.6450   22.1340   36.0230 C   0  0  0  0  0  0  0  0  0  0  0  0
   39.8260   22.1700   34.9220 N   0  0  0  0  0  0  0  0  0  0  0  0
   38.5910   22.6660   34.9760 C   0  0  0  0  0  0  0  0  0  0  0  0
   38.0920   23.1540   36.1160 N   0  0  0  0  0  0  0  0  0  0  0  0
   37.8220   22.6570   33.7810 N   0  0  0  0  0  0  0  0  0  0  0  0
   36.9970   21.5150   33.4630 C   0  0  0  0  0  0  0  0  0  0  0  0
   37.1120   21.1190   32.0110 C   0  0  0  0  0  0  0  0  0  0  0  0
   37.0410   22.2410   31.1290 N   0  0  0  0  0  0  0  0  0  0  0  0
   36.7740   23.4810   31.7820 C   0  0  0  0  0  0  0  0  0  0  0  0
   37.8290   23.7780   32.8410 C   0  0  1  0  0  0  0  0  0  0  0  0
   40.7900   22.6120   38.0930 H   0  0  0  0  0  0  0  0  0  0  0  0
   41.6370   21.7250   35.9390 H   0  0  0  0  0  0  0  0  0  0  0  0
   37.1700   20.6570   34.1050 H   0  0  0  0  0  0  0  0  0  0  0  0
   35.9440   21.8690   33.5980 H   0  0  0  0  0  0  0  0  0  0  0  0
   38.0030   20.4750   31.8130 H   0  0  0  0  0  0  0  0  0  0  0  0
   36.2320   20.4790   31.7890 H   0  0  0  0  0  0  0  0  0  0  0  0
   37.8930   22.3320   30.5330 H   0  0  0  0  0  0  0  0  0  0  0  0
   36.7940   24.2960   31.0510 H   0  0  0  0  0  0  0  0  0  0  0  0
   35.7590   23.3960   32.2120 H   0  0  0  0  0  0  0  0  0  0  0  0
   38.8060   23.7960   32.3300 H   0  0  0  0  0  0  0  0  0  0  0  0
   37.9280   27.2130   33.5960 H   0  0  0  0  0  0  0  0  0  0  0  0
   38.1270   26.2950   33.0670 C   0  0  0  0  0  0  0  0  0  0  0  0
   38.8600   26.3880   32.0250 O   0  0  0  0  0  0  0  0  0  0  0  0
   37.6200   25.0300   33.4740 N   0  0  0  0  0  0  0  0  0  0  0  0
   37.0090   24.9610   34.3430 H   0  0  0  0  0  0  0  0  0  0  0  0
   38.3030   23.6930   38.5220 C   0  0  0  0  0  0  0  0  0  0  0  0
   37.9190   25.0200   38.3480 F   0  0  0  0  0  0  0  0  0  0  0  0
   37.3000   22.8660   38.9370 F   0  0  0  0  0  0  0  0  0  0  0  0
   39.3610   23.7020   39.4340 F   0  0  0  0  0  0  0  0  0  0  0  0
  1 28  1  0  0  0  0
  2  1  1  0  0  0  0
  2 13  1  0  0  0  0
  3  2  2  0  0  0  0
  4  5  2  0  0  0  0
  4  3  1  0  0  0  0
  5  6  1  0  0  0  0
  6  1  2  0  0  0  0
  7  5  1  0  0  0  0
  8 16  1  0  0  0  0
  8  7  1  0  0  0  0
  8 15  1  0  0  0  0
  9  8  1  0  0  0  0
 10 11  1  0  0  0  0
 10  9  1  0  0  0  0
 11 21  1  0  0  0  0
 11 12  1  0  0  0  0
 12 22  1  6  0  0  0
 12 26  1  0  0  0  0
 12  7  1  0  0  0  0
 14  3  1  0  0  0  0
 17  9  1  0  0  0  0
 18  9  1  0  0  0  0
 19 10  1  0  0  0  0
 20 11  1  0  0  0  0
 24 26  1  0  0  0  0
 24 23  1  0  0  0  0
 25 24  2  0  0  0  0
 26 27  1  0  0  0  0
 28 30  1  0  0  0  0
 28 31  1  0  0  0  0
 29 28  1  0  0  0  0
M  END
>  <minimizedAffinity>
-5.16789198

$$$$

 OpenBabel03272505353D

 31 32  0  0  1  0  0  0  0  0999 V2000
   38.9160   23.5820   36.6110 C   0  0  0  0  0  0  0  0  0  0  0  0
   40.2610   23.2740   36.4080 C   0  0  0  0  0  0  0  0  0  0  0  0
   40.7300   23.2240   35.0870 C   0  0  0  0  0  0  0  0  0  0  0  0
   39.8340   23.4830   34.0800 N   0  0  0  0  0  0  0  0  0  0  0  0
   38.5580   23.7740   34.3270 C   0  0  0  0  0  0  0  0  0  0  0  0
   38.0900   23.8260   35.5780 N   0  0  0  0  0  0  0  0  0  0  0  0
   37.7090   24.0260   33.2140 N   0  0  0  0  0  0  0  0  0  0  0  0
   37.0000   22.9350   32.5880 C   0  0  0  0  0  0  0  0  0  0  0  0
   37.0530   23.0140   31.0820 C   0  0  0  0  0  0  0  0  0  0  0  0
   36.7900   24.3310   30.5920 N   0  0  0  0  0  0  0  0  0  0  0  0
   36.4320   25.2700   31.6040 C   0  0  0  0  0  0  0  0  0  0  0  0
   37.5210   25.3690   32.6670 C   0  0  1  0  0  0  0  0  0  0  0  0
   40.9690   23.0690   37.1980 H   0  0  0  0  0  0  0  0  0  0  0  0
   41.7530   22.9920   34.8470 H   0  0  0  0  0  0  0  0  0  0  0  0
   37.3150   21.9530   32.9280 H   0  0  0  0  0  0  0  0  0  0  0  0
   35.9250   23.0910   32.8620 H   0  0  0  0  0  0  0  0  0  0  0  0
   37.9950   22.5820   30.6650 H   0  0  0  0  0  0  0  0  0  0  0  0
   36.2370   22.3620   30.7040 H   0  0  0  0  0  0  0  0  0  0  0  0
   37.5820   24.7080   30.0240 H   0  0  0  0  0  0  0  0  0  0  0  0
   36.3060   26.2620   31.1600 H   0  0  0  0  0  0  0  0  0  0  0  0
   35.4680   24.9270   32.0220 H   0  0  0  0  0  0  0  0  0  0  0  0
   38.4500   25.6670   32.1520 H   0  0  0  0  0  0  0  0  0  0  0  0
   37.8240   27.9380   35.0510 H   0  0  0  0  0  0  0  0  0  0  0  0
   38.1220   27.2250   34.2990 C   0  0  0  0  0  0  0  0  0  0  0  0
   39.3620   27.2120   33.9910 O   0  0  0  0  0  0  0  0  0  0  0  0
   37.2170   26.3320   33.6620 N   0  0  0  0  0  0  0  0  0  0  0  0
   36.1860   26.3500   33.9240 H   0  0  0  0  0  0  0  0  0  0  0  0
   38.4140   23.6360   38.0250 C   0  0  0  0  0  0  0  0  0  0  0  0
   37.2760   22.8440   38.1480 F   0  0  0  0  0  0  0  0  0  0  0  0
   39.4420   23.2770   38.8470 F   0  0  0  0  0  0  0  0  0  0  0  0
   38.0100   24.9510   38.2640 F   0  0  0  0  0  0  0  0  0  0  0  0
  1 28  1  0  0  0  0
  2  1  1  0  0  0  0
  2 13  1  0  0  0  0
  3  2  2  0  0  0  0
  4  5  2  0  0  0  0
  4  3  1  0  0  0  0
  5  6  1  0  0  0  0
  6  1  2  0  0  0  0
  7  5  1  0  0  0  0
  8 16  1  0  0  0  0
  8 15  1  0  0  0  0
  8  7  1  0  0  0  0
  9  8  1  0  0  0  0
 10  9  1  0  0  0  0
 10 11  1  0  0  0  0
 11 21  1  0  0  0  0
 11 12  1  0  0  0  0
 12 22  1  6  0  0  0
 12  7  1  0  0  0  0
 12 26  1  0  0  0  0
 14  3  1  0  0  0  0
 17  9  1  0  0  0  0
 18  9  1  0  0  0  0
 19 10  1  0  0  0  0
 20 11  1  0  0  0  0
 24 23  1  0  0  0  0
 25 24  2  0  0  0  0
 26 27  1  0  0  0  0
 26 24  1  0  0  0  0
 28 29  1  0  0  0  0
 28 31  1  0  0  0  0
 28 30  1  0  0  0  0
M  END
>  <minimizedAffinity>
-5.12405252

$$$$

 OpenBabel03272505353D

 31 32  0  0  1  0  0  0  0  0999 V2000
   38.2630   24.1360   36.9070 C   0  0  0  0  0  0  0  0  0  0  0  0
   38.0580   25.4570   36.5060 C   0  0  0  0  0  0  0  0  0  0  0  0
   38.1200   25.7420   35.1350 C   0  0  0  0  0  0  0  0  0  0  0  0
   38.3790   24.7020   34.2760 N   0  0  0  0  0  0  0  0  0  0  0  0
   38.5680   23.4580   34.7090 C   0  0  0  0  0  0  0  0  0  0  0  0
   38.5130   23.1640   36.0120 N   0  0  0  0  0  0  0  0  0  0  0  0
   38.8310   22.4520   33.7390 N   0  0  0  0  0  0  0  0  0  0  0  0
   40.1910   22.1710   33.3430 C   0  0  0  0  0  0  0  0  0  0  0  0
   40.3230   22.0050   31.8490 C   0  0  0  0  0  0  0  0  0  0  0  0
   39.2980   21.1780   31.2960 N   0  0  0  0  0  0  0  0  0  0  0  0
   38.4280   20.5970   32.2660 C   0  0  0  0  0  0  0  0  0  0  0  0
   37.7610   21.6740   33.1150 C   0  0  1  0  0  0  0  0  0  0  0  0
   37.8540   26.2770   37.1790 H   0  0  0  0  0  0  0  0  0  0  0  0
   37.9740   26.7340   34.7450 H   0  0  0  0  0  0  0  0  0  0  0  0
   40.9130   22.8940   33.7100 H   0  0  0  0  0  0  0  0  0  0  0  0
   40.4200   21.1670   33.7810 H   0  0  0  0  0  0  0  0  0  0  0  0
   40.4170   22.9840   31.3170 H   0  0  0  0  0  0  0  0  0  0  0  0
   41.2870   21.4820   31.6750 H   0  0  0  0  0  0  0  0  0  0  0  0
   38.7340   21.6750   30.5700 H   0  0  0  0  0  0  0  0  0  0  0  0
   37.6390   20.0290   31.7640 H   0  0  0  0  0  0  0  0  0  0  0  0
   39.0490   19.9110   32.8710 H   0  0  0  0  0  0  0  0  0  0  0  0
   37.2090   22.3340   32.4250 H   0  0  0  0  0  0  0  0  0  0  0  0
   34.8690   20.3120   34.5850 H   0  0  0  0  0  0  0  0  0  0  0  0
   35.5100   20.7200   33.8200 C   0  0  0  0  0  0  0  0  0  0  0  0
   35.0040   20.8250   32.6520 O   0  0  0  0  0  0  0  0  0  0  0  0
   36.8510   21.1310   34.0570 N   0  0  0  0  0  0  0  0  0  0  0  0
   37.2660   21.0400   35.0330 H   0  0  0  0  0  0  0  0  0  0  0  0
   38.1960   23.8300   38.3750 C   0  0  0  0  0  0  0  0  0  0  0  0
   37.9670   25.0030   39.0890 F   0  0  0  0  0  0  0  0  0  0  0  0
   37.2480   22.8660   38.5570 F   0  0  0  0  0  0  0  0  0  0  0  0
   39.4600   23.3740   38.7550 F   0  0  0  0  0  0  0  0  0  0  0  0
  1 28  1  0  0  0  0
  2  1  1  0  0  0  0
  2 13  1  0  0  0  0
  3  2  2  0  0  0  0
  4  5  2  0  0  0  0
  4  3  1  0  0  0  0
  5  6  1  0  0  0  0
  6  1  2  0  0  0  0
  7  5  1  0  0  0  0
  8 15  1  0  0  0  0
  8  7  1  0  0  0  0
  8 16  1  0  0  0  0
  9  8  1  0  0  0  0
 10  9  1  0  0  0  0
 10 11  1  0  0  0  0
 11 21  1  0  0  0  0
 11 12  1  0  0  0  0
 12 22  1  6  0  0  0
 12  7  1  0  0  0  0
 12 26  1  0  0  0  0
 14  3  1  0  0  0  0
 17  9  1  0  0  0  0
 18  9  1  0  0  0  0
 19 10  1  0  0  0  0
 20 11  1  0  0  0  0
 24 26  1  0  0  0  0
 24 23  1  0  0  0  0
 25 24  2  0  0  0  0
 26 27  1  0  0  0  0
 28 30  1  0  0  0  0
 28 31  1  0  0  0  0
 28 29  1  0  0  0  0
M  END
>  <minimizedAffinity>
-4.98665953

$$$$

 OpenBabel03272505353D

 31 32  0  0  1  0  0  0  0  0999 V2000
   38.2380   23.6680   36.8980 C   0  0  0  0  0  0  0  0  0  0  0  0
   37.8010   22.5060   36.2610 C   0  0  0  0  0  0  0  0  0  0  0  0
   37.8690   22.4600   34.8620 C   0  0  0  0  0  0  0  0  0  0  0  0
   38.3630   23.5620   34.2090 N   0  0  0  0  0  0  0  0  0  0  0  0
   38.7680   24.6490   34.8630 C   0  0  0  0  0  0  0  0  0  0  0  0
   38.7110   24.7140   36.1960 N   0  0  0  0  0  0  0  0  0  0  0  0
   39.2620   25.7380   34.0940 N   0  0  0  0  0  0  0  0  0  0  0  0
   38.3540   26.7590   33.6250 C   0  0  0  0  0  0  0  0  0  0  0  0
   38.6230   27.1390   32.1900 C   0  0  0  0  0  0  0  0  0  0  0  0
   40.0140   27.3300   31.9240 N   0  0  0  0  0  0  0  0  0  0  0  0
   40.8490   27.2260   33.0750 C   0  0  0  0  0  0  0  0  0  0  0  0
   40.6780   25.8710   33.7530 C   0  0  1  0  0  0  0  0  0  0  0  0
   37.4120   21.6370   36.7720 H   0  0  0  0  0  0  0  0  0  0  0  0
   37.5510   21.6010   34.2970 H   0  0  0  0  0  0  0  0  0  0  0  0
   37.3060   26.5110   33.7620 H   0  0  0  0  0  0  0  0  0  0  0  0
   38.6000   27.6680   34.2310 H   0  0  0  0  0  0  0  0  0  0  0  0
   38.1410   26.4400   31.4650 H   0  0  0  0  0  0  0  0  0  0  0  0
   38.1270   28.1200   32.0270 H   0  0  0  0  0  0  0  0  0  0  0  0
   40.3660   26.6930   31.1740 H   0  0  0  0  0  0  0  0  0  0  0  0
   41.8990   27.3240   32.7820 H   0  0  0  0  0  0  0  0  0  0  0  0
   40.5710   28.0660   33.7390 H   0  0  0  0  0  0  0  0  0  0  0  0
   40.9280   25.1010   33.0050 H   0  0  0  0  0  0  0  0  0  0  0  0
   43.3880   24.9650   35.8060 H   0  0  0  0  0  0  0  0  0  0  0  0
   42.7840   25.0440   34.9160 C   0  0  0  0  0  0  0  0  0  0  0  0
   43.2520   24.4920   33.8630 O   0  0  0  0  0  0  0  0  0  0  0  0
   41.5320   25.7180   34.8740 N   0  0  0  0  0  0  0  0  0  0  0  0
   41.1500   26.1760   35.7560 H   0  0  0  0  0  0  0  0  0  0  0  0
   38.1660   23.7180   38.3960 C   0  0  0  0  0  0  0  0  0  0  0  0
   37.9070   25.0220   38.8100 F   0  0  0  0  0  0  0  0  0  0  0  0
   37.2360   22.8050   38.8000 F   0  0  0  0  0  0  0  0  0  0  0  0
   39.4360   23.3930   38.8770 F   0  0  0  0  0  0  0  0  0  0  0  0
  1 28  1  0  0  0  0
  2 13  1  0  0  0  0
  2  1  1  0  0  0  0
  3  2  2  0  0  0  0
  4  3  1  0  0  0  0
  4  5  2  0  0  0  0
  5  6  1  0  0  0  0
  6  1  2  0  0  0  0
  7  5  1  0  0  0  0
  8 15  1  0  0  0  0
  8  7  1  0  0  0  0
  8 16  1  0  0  0  0
  9  8  1  0  0  0  0
 10  9  1  0  0  0  0
 10 11  1  0  0  0  0
 11 21  1  0  0  0  0
 11 12  1  0  0  0  0
 12 22  1  6  0  0  0
 12  7  1  0  0  0  0
 12 26  1  0  0  0  0
 14  3  1  0  0  0  0
 17  9  1  0  0  0  0
 18  9  1  0  0  0  0
 19 10  1  0  0  0  0
 20 11  1  0  0  0  0
 24 23  1  0  0  0  0
 25 24  2  0  0  0  0
 26 24  1  0  0  0  0
 26 27  1  0  0  0  0
 28 30  1  0  0  0  0
 28 29  1  0  0  0  0
 28 31  1  0  0  0  0
M  END
>  <minimizedAffinity>
-4.90902567

$$$$

 OpenBabel03272505353D

 31 32  0  0  1  0  0  0  0  0999 V2000
   39.0000   23.4150   37.2990 C   0  0  0  0  0  0  0  0  0  0  0  0
   40.1640   22.7010   37.5860 C   0  0  0  0  0  0  0  0  0  0  0  0
   41.2440   22.8250   36.7000 C   0  0  0  0  0  0  0  0  0  0  0  0
   41.0860   23.6420   35.6080 N   0  0  0  0  0  0  0  0  0  0  0  0
   39.9530   24.3030   35.3790 C   0  0  0  0  0  0  0  0  0  0  0  0
   38.9110   24.1990   36.2090 N   0  0  0  0  0  0  0  0  0  0  0  0
   39.8890   25.1230   34.2190 N   0  0  0  0  0  0  0  0  0  0  0  0
   39.4340   24.5660   32.9660 C   0  0  0  0  0  0  0  0  0  0  0  0
   40.2920   25.0040   31.8060 C   0  0  0  0  0  0  0  0  0  0  0  0
   40.5780   26.4040   31.8320 N   0  0  0  0  0  0  0  0  0  0  0  0
   39.9170   27.1150   32.8760 C   0  0  0  0  0  0  0  0  0  0  0  0
   40.2710   26.5350   34.2410 C   0  0  1  0  0  0  0  0  0  0  0  0
   40.2920   22.0580   38.4440 H   0  0  0  0  0  0  0  0  0  0  0  0
   42.1750   22.3070   36.8500 H   0  0  0  0  0  0  0  0  0  0  0  0
   39.3330   23.4850   32.9780 H   0  0  0  0  0  0  0  0  0  0  0  0
   38.4290   25.0270   32.7910 H   0  0  0  0  0  0  0  0  0  0  0  0
   41.2140   24.3810   31.6970 H   0  0  0  0  0  0  0  0  0  0  0  0
   39.6990   24.8140   30.8870 H   0  0  0  0  0  0  0  0  0  0  0  0
   41.6030   26.6000   31.8650 H   0  0  0  0  0  0  0  0  0  0  0  0
   40.2310   28.1640   32.8660 H   0  0  0  0  0  0  0  0  0  0  0  0
   38.8340   27.0520   32.6610 H   0  0  0  0  0  0  0  0  0  0  0  0
   41.3670   26.5960   34.3450 H   0  0  0  0  0  0  0  0  0  0  0  0
   37.8870   28.0610   36.3310 H   0  0  0  0  0  0  0  0  0  0  0  0
   38.2820   27.5050   35.4950 C   0  0  0  0  0  0  0  0  0  0  0  0
   37.4270   27.0670   34.6520 O   0  0  0  0  0  0  0  0  0  0  0  0
   39.6680   27.2530   35.3050 N   0  0  0  0  0  0  0  0  0  0  0  0
   40.3740   27.6210   36.0120 H   0  0  0  0  0  0  0  0  0  0  0  0
   37.8440   23.2840   38.2470 C   0  0  0  0  0  0  0  0  0  0  0  0
   37.4840   24.5410   38.7250 F   0  0  0  0  0  0  0  0  0  0  0  0
   36.8440   22.6220   37.5960 F   0  0  0  0  0  0  0  0  0  0  0  0
   38.3000   22.5550   39.3470 F   0  0  0  0  0  0  0  0  0  0  0  0
  1  2  1  0  0  0  0
  1 28  1  0  0  0  0
  2 13  1  0  0  0  0
  3 14  1  0  0  0  0
  3  2  2  0  0  0  0
  4  3  1  0  0  0  0
  5  4  2  0  0  0  0
  5  6  1  0  0  0  0
  6  1  2  0  0  0  0
  7 12  1  0  0  0  0
  7  5  1  0  0  0  0
  8 15  1  0  0  0  0
  8  7  1  0  0  0  0
  9 10  1  0  0  0  0
  9  8  1  0  0  0  0
 10 19  1  0  0  0  0
 10 11  1  0  0  0  0
 11 12  1  0  0  0  0
 12 22  1  1  0  0  0
 12 26  1  0  0  0  0
 16  8  1  0  0  0  0
 17  9  1  0  0  0  0
 18  9  1  0  0  0  0
 20 11  1  0  0  0  0
 21 11  1  0  0  0  0
 24 23  1  0  0  0  0
 25 24  2  0  0  0  0
 26 24  1  0  0  0  0
 26 27  1  0  0  0  0
 28 29  1  0  0  0  0
 28 31  1  0  0  0  0
 30 28  1  0  0  0  0
M  END
>  <minimizedAffinity>
-4.85460663

$$$$

 OpenBabel03272505353D

 31 32  0  0  1  0  0  0  0  0999 V2000
   37.0040   23.3790   32.2750 C   0  0  0  0  0  0  0  0  0  0  0  0
   36.3230   22.1780   32.0710 C   0  0  0  0  0  0  0  0  0  0  0  0
   36.4720   21.1690   33.0330 C   0  0  0  0  0  0  0  0  0  0  0  0
   37.2780   21.4290   34.1140 N   0  0  0  0  0  0  0  0  0  0  0  0
   37.9060   22.5930   34.2630 C   0  0  0  0  0  0  0  0  0  0  0  0
   37.7790   23.5680   33.3590 N   0  0  0  0  0  0  0  0  0  0  0  0
   38.7180   22.7630   35.4180 N   0  0  0  0  0  0  0  0  0  0  0  0
   40.1130   22.3880   35.3800 C   0  0  0  0  0  0  0  0  0  0  0  0
   40.5340   21.6440   36.6220 C   0  0  0  0  0  0  0  0  0  0  0  0
   40.0560   22.2610   37.8200 N   0  0  0  0  0  0  0  0  0  0  0  0
   39.3750   23.4960   37.6100 C   0  0  0  0  0  0  0  0  0  0  0  0
   38.1910   23.3130   36.6670 C   0  0  1  0  0  0  0  0  0  0  0  0
   35.6890   21.9700   31.2220 H   0  0  0  0  0  0  0  0  0  0  0  0
   35.9820   20.2150   32.9480 H   0  0  0  0  0  0  0  0  0  0  0  0
   40.3930   21.8320   34.4900 H   0  0  0  0  0  0  0  0  0  0  0  0
   40.6750   23.3560   35.4010 H   0  0  0  0  0  0  0  0  0  0  0  0
   40.2860   20.5560   36.5730 H   0  0  0  0  0  0  0  0  0  0  0  0
   41.6430   21.6920   36.6570 H   0  0  0  0  0  0  0  0  0  0  0  0
   39.4560   21.6190   38.3850 H   0  0  0  0  0  0  0  0  0  0  0  0
   38.9900   23.8740   38.5620 H   0  0  0  0  0  0  0  0  0  0  0  0
   40.1260   24.2020   37.2090 H   0  0  0  0  0  0  0  0  0  0  0  0
   37.5270   22.5610   37.1230 H   0  0  0  0  0  0  0  0  0  0  0  0
   37.3480   26.6310   35.8570 H   0  0  0  0  0  0  0  0  0  0  0  0
   37.9590   25.7510   35.9780 C   0  0  0  0  0  0  0  0  0  0  0  0
   39.1880   25.8640   35.6470 O   0  0  0  0  0  0  0  0  0  0  0  0
   37.4630   24.5150   36.4760 N   0  0  0  0  0  0  0  0  0  0  0  0
   36.4380   24.4290   36.7500 H   0  0  0  0  0  0  0  0  0  0  0  0
   36.8450   24.4600   31.2460 C   0  0  0  0  0  0  0  0  0  0  0  0
   37.2170   25.6850   31.7930 F   0  0  0  0  0  0  0  0  0  0  0  0
   37.5600   24.0950   30.1440 F   0  0  0  0  0  0  0  0  0  0  0  0
   35.4820   24.5510   30.9580 F   0  0  0  0  0  0  0  0  0  0  0  0
  1  6  1  0  0  0  0
  2  1  2  0  0  0  0
  2  3  1  0  0  0  0
  3  4  2  0  0  0  0
  4  5  1  0  0  0  0
  5  7  1  0  0  0  0
  6  5  2  0  0  0  0
  7 12  1  0  0  0  0
  8 16  1  0  0  0  0
  8  7  1  0  0  0  0
  8  9  1  0  0  0  0
  9 18  1  0  0  0  0
  9 10  1  0  0  0  0
 10 19  1  0  0  0  0
 11 10  1  0  0  0  0
 11 20  1  0  0  0  0
 12 22  1  1  0  0  0
 12 11  1  0  0  0  0
 13  2  1  0  0  0  0
 14  3  1  0  0  0  0
 15  8  1  0  0  0  0
 17  9  1  0  0  0  0
 21 11  1  0  0  0  0
 23 24  1  0  0  0  0
 24 26  1  0  0  0  0
 25 24  2  0  0  0  0
 26 12  1  0  0  0  0
 26 27  1  0  0  0  0
 28 29  1  0  0  0  0
 28  1  1  0  0  0  0
 30 28  1  0  0  0  0
 31 28  1  0  0  0  0
M  END
>  <minimizedAffinity>
-4.80676317

$$$$

 OpenBabel03272505353D

 31 32  0  0  1  0  0  0  0  0999 V2000
   40.0060   23.0800   36.8220 C   0  0  0  0  0  0  0  0  0  0  0  0
   39.1500   23.0950   37.9240 C   0  0  0  0  0  0  0  0  0  0  0  0
   37.9580   23.8260   37.8170 C   0  0  0  0  0  0  0  0  0  0  0  0
   37.7110   24.4790   36.6350 N   0  0  0  0  0  0  0  0  0  0  0  0
   38.5620   24.4330   35.6120 C   0  0  0  0  0  0  0  0  0  0  0  0
   39.7030   23.7430   35.6920 N   0  0  0  0  0  0  0  0  0  0  0  0
   38.2140   25.1450   34.4310 N   0  0  0  0  0  0  0  0  0  0  0  0
   38.6140   26.5240   34.2770 C   0  0  0  0  0  0  0  0  0  0  0  0
   37.5010   27.3780   33.7210 C   0  0  0  0  0  0  0  0  0  0  0  0
   36.8370   26.7630   32.6150 N   0  0  0  0  0  0  0  0  0  0  0  0
   37.4190   25.5300   32.1970 C   0  0  0  0  0  0  0  0  0  0  0  0
   37.4560   24.5270   33.3440 C   0  0  1  0  0  0  0  0  0  0  0  0
   39.3410   22.5820   38.8550 H   0  0  0  0  0  0  0  0  0  0  0  0
   37.2460   23.8870   38.6220 H   0  0  0  0  0  0  0  0  0  0  0  0
   39.0170   26.9680   35.1820 H   0  0  0  0  0  0  0  0  0  0  0  0
   39.4080   26.5110   33.4890 H   0  0  0  0  0  0  0  0  0  0  0  0
   36.7880   27.7190   34.5120 H   0  0  0  0  0  0  0  0  0  0  0  0
   37.9770   28.3040   33.3360 H   0  0  0  0  0  0  0  0  0  0  0  0
   35.8160   26.6300   32.7880 H   0  0  0  0  0  0  0  0  0  0  0  0
   36.8240   25.0940   31.3890 H   0  0  0  0  0  0  0  0  0  0  0  0
   38.4300   25.7730   31.8200 H   0  0  0  0  0  0  0  0  0  0  0  0
   36.4160   24.3850   33.6830 H   0  0  0  0  0  0  0  0  0  0  0  0
   37.7270   21.2250   32.1580 H   0  0  0  0  0  0  0  0  0  0  0  0
   37.2610   22.1550   32.4450 C   0  0  0  0  0  0  0  0  0  0  0  0
   35.9920   22.2170   32.3130 O   0  0  0  0  0  0  0  0  0  0  0  0
   37.9840   23.2720   32.9460 N   0  0  0  0  0  0  0  0  0  0  0  0
   39.0410   23.2120   33.0530 H   0  0  0  0  0  0  0  0  0  0  0  0
   41.2820   22.2970   36.9350 C   0  0  0  0  0  0  0  0  0  0  0  0
   42.3640   23.1710   36.9950 F   0  0  0  0  0  0  0  0  0  0  0  0
   41.1690   21.4680   38.0120 F   0  0  0  0  0  0  0  0  0  0  0  0
   41.4210   21.5720   35.7500 F   0  0  0  0  0  0  0  0  0  0  0  0
  1 28  1  0  0  0  0
  1  2  1  0  0  0  0
  2 13  1  0  0  0  0
  3  2  2  0  0  0  0
  3 14  1  0  0  0  0
  4  3  1  0  0  0  0
  5  6  1  0  0  0  0
  5  4  2  0  0  0  0
  6  1  2  0  0  0  0
  7  5  1  0  0  0  0
  8  7  1  0  0  0  0
  8 15  1  0  0  0  0
  9  8  1  0  0  0  0
  9 17  1  0  0  0  0
 10 19  1  0  0  0  0
 10  9  1  0  0  0  0
 11 10  1  0  0  0  0
 11 12  1  0  0  0  0
 12 22  1  1  0  0  0
 12  7  1  0  0  0  0
 16  8  1  0  0  0  0
 18  9  1  0  0  0  0
 20 11  1  0  0  0  0
 21 11  1  0  0  0  0
 23 24  1  0  0  0  0
 24 26  1  0  0  0  0
 25 24  2  0  0  0  0
 26 27  1  0  0  0  0
 26 12  1  0  0  0  0
 28 29  1  0  0  0  0
 28 30  1  0  0  0  0
 31 28  1  0  0  0  0
M  END
>  <minimizedAffinity>
-4.78837872

$$$$

 OpenBabel03272505353D

 31 32  0  0  1  0  0  0  0  0999 V2000
   37.1700   21.4400   33.3370 C   0  0  0  0  0  0  0  0  0  0  0  0
   38.3490   20.8750   32.8490 C   0  0  0  0  0  0  0  0  0  0  0  0
   39.5240   21.6360   32.9310 C   0  0  0  0  0  0  0  0  0  0  0  0
   39.4380   22.8870   33.4890 N   0  0  0  0  0  0  0  0  0  0  0  0
   38.2880   23.3820   33.9420 C   0  0  0  0  0  0  0  0  0  0  0  0
   37.1560   22.6740   33.8720 N   0  0  0  0  0  0  0  0  0  0  0  0
   38.3040   24.6890   34.5020 N   0  0  0  0  0  0  0  0  0  0  0  0
   38.0870   25.8380   33.6540 C   0  0  0  0  0  0  0  0  0  0  0  0
   39.0510   26.9580   33.9600 C   0  0  0  0  0  0  0  0  0  0  0  0
   39.1870   27.1970   35.3620 N   0  0  0  0  0  0  0  0  0  0  0  0
   38.3190   26.4110   36.1760 C   0  0  0  0  0  0  0  0  0  0  0  0
   38.5350   24.9230   35.9270 C   0  0  1  0  0  0  0  0  0  0  0  0
   38.4200   19.8910   32.4090 H   0  0  0  0  0  0  0  0  0  0  0  0
   40.4720   21.2720   32.5760 H   0  0  0  0  0  0  0  0  0  0  0  0
   38.0950   25.6090   32.5930 H   0  0  0  0  0  0  0  0  0  0  0  0
   37.0750   26.2230   33.9390 H   0  0  0  0  0  0  0  0  0  0  0  0
   40.0360   26.8240   33.4510 H   0  0  0  0  0  0  0  0  0  0  0  0
   38.6130   27.8780   33.5180 H   0  0  0  0  0  0  0  0  0  0  0  0
   40.1730   27.0870   35.6900 H   0  0  0  0  0  0  0  0  0  0  0  0
   38.5230   26.6080   37.2330 H   0  0  0  0  0  0  0  0  0  0  0  0
   37.2880   26.7320   35.9350 H   0  0  0  0  0  0  0  0  0  0  0  0
   39.5940   24.7080   36.1460 H   0  0  0  0  0  0  0  0  0  0  0  0
   37.4720   22.6730   38.4140 H   0  0  0  0  0  0  0  0  0  0  0  0
   38.1480   23.2650   37.8170 C   0  0  0  0  0  0  0  0  0  0  0  0
   39.3890   23.1720   38.1050 O   0  0  0  0  0  0  0  0  0  0  0  0
   37.7200   24.1130   36.7580 N   0  0  0  0  0  0  0  0  0  0  0  0
   36.6850   24.1850   36.5250 H   0  0  0  0  0  0  0  0  0  0  0  0
   35.9120   20.6270   33.2500 C   0  0  0  0  0  0  0  0  0  0  0  0
   34.9250   21.3590   32.5960 F   0  0  0  0  0  0  0  0  0  0  0  0
   36.2230   19.4410   32.6500 F   0  0  0  0  0  0  0  0  0  0  0  0
   35.4620   20.4300   34.5560 F   0  0  0  0  0  0  0  0  0  0  0  0
  1  6  1  0  0  0  0
  2  3  1  0  0  0  0
  2  1  2  0  0  0  0
  3  4  2  0  0  0  0
  4  5  1  0  0  0  0
  5  7  1  0  0  0  0
  6  5  2  0  0  0  0
  7 12  1  0  0  0  0
  8 16  1  0  0  0  0
  8  9  1  0  0  0  0
  8  7  1  0  0  0  0
  9 10  1  0  0  0  0
 10 19  1  0  0  0  0
 10 11  1  0  0  0  0
 11 20  1  0  0  0  0
 12 22  1  1  0  0  0
 12 11  1  0  0  0  0
 12 26  1  0  0  0  0
 13  2  1  0  0  0  0
 14  3  1  0  0  0  0
 15  8  1  0  0  0  0
 17  9  1  0  0  0  0
 18  9  1  0  0  0  0
 21 11  1  0  0  0  0
 24 25  2  0  0  0  0
 24 23  1  0  0  0  0
 26 24  1  0  0  0  0
 27 26  1  0  0  0  0
 28  1  1  0  0  0  0
 28 31  1  0  0  0  0
 29 28  1  0  0  0  0
 30 28  1  0  0  0  0
M  END
>  <minimizedAffinity>
-4.71536684

$$$$
