
 OpenBabel03272504103D

 17 17  0  0  0  0  0  0  0  0999 V2000
   36.8640   29.9970   49.7710 C   0  0  0  0  0  0  0  0  0  0  0  0
   38.0730   30.4720   49.2290 C   0  0  0  0  0  0  0  0  0  0  0  0
   38.0570   30.9290   47.9150 C   0  0  0  0  0  0  0  0  0  0  0  0
   36.8850   30.8910   47.2290 N   0  0  0  0  0  0  0  0  0  0  0  0
   35.7440   30.4280   47.7810 C   0  0  0  0  0  0  0  0  0  0  0  0
   35.7510   29.9860   49.0460 N   0  0  0  0  0  0  0  0  0  0  0  0
   38.9970   30.5030   49.7680 H   0  0  0  0  0  0  0  0  0  0  0  0
   34.8380   30.4260   47.1740 H   0  0  0  0  0  0  0  0  0  0  0  0
   39.9610   32.5900   45.5290 H   0  0  0  0  0  0  0  0  0  0  0  0
   39.1360   32.1670   46.0870 C   0  0  0  0  0  0  0  0  0  0  0  0
   37.9730   32.3490   45.6270 O   0  0  0  0  0  0  0  0  0  0  0  0
   39.2280   31.4260   47.2870 N   0  0  0  0  0  0  0  0  0  0  0  0
   40.1570   31.2580   47.6890 H   0  0  0  0  0  0  0  0  0  0  0  0
   36.8780   29.5040   51.1880 C   0  0  0  0  0  0  0  0  0  0  0  0
   35.5800   29.1820   51.5750 F   0  0  0  0  0  0  0  0  0  0  0  0
   37.7400   28.4540   51.2570 F   0  0  0  0  0  0  0  0  0  0  0  0
   37.2770   30.5550   51.9900 F   0  0  0  0  0  0  0  0  0  0  0  0
  1 14  1  0  0  0  0
  2  7  1  0  0  0  0
  2  1  1  0  0  0  0
  3  2  2  0  0  0  0
  4  5  2  0  0  0  0
  4  3  1  0  0  0  0
  5  6  1  0  0  0  0
  6  1  2  0  0  0  0
  8  5  1  0  0  0  0
  9 10  1  0  0  0  0
 10 12  1  0  0  0  0
 11 10  2  0  0  0  0
 12 13  1  0  0  0  0
 12  3  1  0  0  0  0
 14 16  1  0  0  0  0
 14 15  1  0  0  0  0
 14 17  1  0  0  0  0
M  END
>  <minimizedAffinity>
-5.255476

>  <minimizedRMSD>
1.41221619

$$$$
