
 OpenBabel03272507213D

 39 42  0  0  1  0  0  0  0  0999 V2000
   38.6190   32.7430   48.7080 C   0  0  0  0  0  0  0  0  0  0  0  0
   39.2850   33.9200   48.9580 C   0  0  0  0  0  0  0  0  0  0  0  0
   40.0800   34.3930   47.9070 C   0  0  0  0  0  0  0  0  0  0  0  0
   40.1590   33.7020   46.7340 N   0  0  0  0  0  0  0  0  0  0  0  0
   39.4900   32.5450   46.5210 C   0  0  0  0  0  0  0  0  0  0  0  0
   38.7120   32.0700   47.5300 N   0  0  0  0  0  0  0  0  0  0  0  0
   39.1700   34.4010   49.9060 H   0  0  0  0  0  0  0  0  0  0  0  0
   40.6160   35.3070   48.0610 H   0  0  0  0  0  0  0  0  0  0  0  0
   39.9110   32.5350   44.1260 C   0  0  0  0  0  0  0  0  0  0  0  0
   39.5880   31.8160   45.2570 C   0  0  0  0  0  0  0  0  0  0  0  0
   39.3660   30.4480   45.1630 C   0  0  0  0  0  0  0  0  0  0  0  0
   39.4510   29.7560   43.9710 C   0  0  0  0  0  0  0  0  0  0  0  0
   39.2900   28.4690   43.6130 N   0  0  0  0  0  0  0  0  0  0  0  0
   39.5140   28.4220   42.2850 C   0  0  0  0  0  0  0  0  0  0  0  0
   39.8070   29.6460   41.8190 N   0  0  0  0  0  0  0  0  0  0  0  0
   39.7750   30.5030   42.8580 C   0  0  0  0  0  0  0  0  0  0  0  0
   40.0070   31.8750   42.9100 C   0  0  0  0  0  0  0  0  0  0  0  0
   40.1020   33.5920   44.0900 H   0  0  0  0  0  0  0  0  0  0  0  0
   39.1130   29.8930   46.0570 H   0  0  0  0  0  0  0  0  0  0  0  0
   39.0390   27.6930   44.2760 H   0  0  0  0  0  0  0  0  0  0  0  0
   39.4650   27.5310   41.6760 H   0  0  0  0  0  0  0  0  0  0  0  0
   40.2560   32.3830   41.9890 H   0  0  0  0  0  0  0  0  0  0  0  0
   37.7540   32.1930   49.8200 C   0  0  1  0  0  0  0  0  0  0  0  0
   36.6080   31.3630   49.5360 C   0  0  2  0  0  0  0  0  0  0  0  0
   37.9250   30.6870   49.9820 C   0  0  2  0  0  0  0  0  0  0  0  0
   37.7460   32.8510   50.7190 H   0  0  0  0  0  0  0  0  0  0  0  0
   35.9290   31.0200   50.3940 H   0  0  0  0  0  0  0  0  0  0  0  0
   38.4130   30.1220   49.1880 H   0  0  0  0  0  0  0  0  0  0  0  0
   37.1060   29.1740   53.0180 H   0  0  0  0  0  0  0  0  0  0  0  0
   37.0690   29.5440   52.0040 C   0  0  0  0  0  0  0  0  0  0  0  0
   35.9370   29.2380   51.5170 O   0  0  0  0  0  0  0  0  0  0  0  0
   38.1070   30.2490   51.3360 N   0  0  0  0  0  0  0  0  0  0  0  0
   38.9900   30.4320   51.8600 H   0  0  0  0  0  0  0  0  0  0  0  0
   36.2740   31.1020   48.2510 O   0  0  0  0  0  0  0  0  0  0  0  0
   35.3320   30.4480   47.5840 C   0  0  0  0  0  0  0  0  0  0  0  0
   35.6540   30.0890   46.4100 O   0  0  0  0  0  0  0  0  0  0  0  0
   34.1440   30.2510   48.2510 N   0  0  0  0  0  0  0  0  0  0  0  0
   33.5590   29.5820   48.8180 H   0  0  0  0  0  0  0  0  0  0  0  0
   33.5840   31.1470   48.1510 H   0  0  0  0  0  0  0  0  0  0  0  0
  1  2  1  0  0  0  0
  1 23  1  0  0  0  0
  2  7  1  0  0  0  0
  3  8  1  0  0  0  0
  3  2  2  0  0  0  0
  4  3  1  0  0  0  0
  5  4  2  0  0  0  0
  5  6  1  0  0  0  0
  6  1  2  0  0  0  0
  9 10  1  0  0  0  0
 10  5  1  0  0  0  0
 11 10  2  0  0  0  0
 11 19  1  0  0  0  0
 12 11  1  0  0  0  0
 13 12  1  0  0  0  0
 13 20  1  0  0  0  0
 14 13  1  0  0  0  0
 15 14  2  0  0  0  0
 15 16  1  0  0  0  0
 16 17  1  0  0  0  0
 16 12  2  0  0  0  0
 17  9  2  0  0  0  0
 18  9  1  0  0  0  0
 21 14  1  0  0  0  0
 22 17  1  0  0  0  0
 23 25  1  0  0  0  0
 23 26  1  1  0  0  0
 24 23  1  0  0  0  0
 24 25  1  0  0  0  0
 24 27  1  1  0  0  0
 25 28  1  6  0  0  0
 25 32  1  0  0  0  0
 30 29  1  0  0  0  0
 31 30  2  0  0  0  0
 32 33  1  0  0  0  0
 32 30  1  0  0  0  0
 34 24  1  0  0  0  0
 35 37  1  0  0  0  0
 35 34  1  0  0  0  0
 36 35  2  0  0  0  0
 37 38  1  0  0  0  0
 39 37  1  0  0  0  0
M  END
>  <minimizedAffinity>
-6.81760693

>  <minimizedRMSD>
2.04349566

$$$$
