
 OpenBabel03272509353D

 43 46  0  0  1  0  0  0  0  0999 V2000
   36.4110   30.6280   44.8560 C   0  0  1  0  0  0  0  0  0  0  0  0
   37.4890   31.5240   45.3500 C   0  0  0  0  0  0  0  0  0  0  0  0
   37.9160   30.1620   45.0930 C   0  0  2  0  0  0  0  0  0  0  0  0
   36.1270   30.4860   43.8150 H   0  0  0  0  0  0  0  0  0  0  0  0
   37.5260   32.4160   44.7310 H   0  0  0  0  0  0  0  0  0  0  0  0
   37.3700   31.8200   46.4400 H   0  0  0  0  0  0  0  0  0  0  0  0
   37.8900   29.2760   45.7100 H   0  0  0  0  0  0  0  0  0  0  0  0
   38.7890   30.0870   43.8760 C   0  0  0  0  0  0  0  0  0  0  0  0
   39.3520   31.3410   43.6130 C   0  0  0  0  0  0  0  0  0  0  0  0
   40.2700   31.4840   42.6010 C   0  0  0  0  0  0  0  0  0  0  0  0
   40.6630   30.3950   41.8130 C   0  0  0  0  0  0  0  0  0  0  0  0
   40.0860   29.1670   42.1010 C   0  0  0  0  0  0  0  0  0  0  0  0
   40.3690   28.0290   41.3990 C   0  0  0  0  0  0  0  0  0  0  0  0
   39.7910   26.8130   41.6660 C   0  0  0  0  0  0  0  0  0  0  0  0
   38.8770   26.7190   42.6910 C   0  0  0  0  0  0  0  0  0  0  0  0
   38.5870   27.8620   43.4030 C   0  0  0  0  0  0  0  0  0  0  0  0
   39.1900   29.0720   43.1030 C   0  0  0  0  0  0  0  0  0  0  0  0
   39.2810   32.3280   44.0220 H   0  0  0  0  0  0  0  0  0  0  0  0
   40.8000   32.3610   42.2580 H   0  0  0  0  0  0  0  0  0  0  0  0
   41.3710   30.3760   40.9920 H   0  0  0  0  0  0  0  0  0  0  0  0
   41.0810   28.0490   40.5830 H   0  0  0  0  0  0  0  0  0  0  0  0
   40.0470   25.9340   41.0790 H   0  0  0  0  0  0  0  0  0  0  0  0
   38.3810   25.7980   42.9590 H   0  0  0  0  0  0  0  0  0  0  0  0
   37.8520   27.7740   44.2240 H   0  0  0  0  0  0  0  0  0  0  0  0
   33.7220   28.5570   46.5020 C   0  0  0  0  0  0  0  0  0  0  0  0
   34.6000   29.0830   45.5080 C   0  0  0  0  0  0  0  0  0  0  0  0
   35.4920   30.0500   45.8690 C   0  0  0  0  0  0  0  0  0  0  0  0
   35.4720   30.4470   47.1920 N   0  0  0  0  0  0  0  0  0  0  0  0
   34.6450   29.9460   48.1130 C   0  0  0  0  0  0  0  0  0  0  0  0
   33.7580   28.9980   47.7930 N   0  0  0  0  0  0  0  0  0  0  0  0
   33.0200   27.7830   46.1780 H   0  0  0  0  0  0  0  0  0  0  0  0
   34.5210   28.6910   44.5020 H   0  0  0  0  0  0  0  0  0  0  0  0
   34.7470   30.4790   49.5150 C   0  0  0  0  0  0  0  0  0  0  0  0
   34.1040   31.3750   49.5500 H   0  0  0  0  0  0  0  0  0  0  0  0
   34.4650   29.7250   50.2530 H   0  0  0  0  0  0  0  0  0  0  0  0
   36.2140   30.9150   49.7210 C   0  0  0  0  0  0  0  0  0  0  0  0
   36.3230   31.4590   50.6650 H   0  0  0  0  0  0  0  0  0  0  0  0
   36.5420   31.5070   48.8430 H   0  0  0  0  0  0  0  0  0  0  0  0
   38.1140   28.3970   51.0400 H   0  0  0  0  0  0  0  0  0  0  0  0
   37.5270   29.3140   51.0350 C   0  0  0  0  0  0  0  0  0  0  0  0
   37.3050   30.0080   52.0510 O   0  0  0  0  0  0  0  0  0  0  0  0
   36.9990   29.6990   49.7590 N   0  0  0  0  0  0  0  0  0  0  0  0
   37.1910   29.1100   48.9110 H   0  0  0  0  0  0  0  0  0  0  0  0
  1  4  1  6  0  0  0
  1  3  1  0  0  0  0
  1  2  1  0  0  0  0
  1 27  1  0  0  0  0
  2  6  1  0  0  0  0
  3  2  1  0  0  0  0
  3  7  1  1  0  0  0
  5  2  1  0  0  0  0
  8  3  1  0  0  0  0
  9  8  1  0  0  0  0
  9 18  1  0  0  0  0
 10  9  2  0  0  0  0
 11 12  2  0  0  0  0
 11 10  1  0  0  0  0
 12 17  1  0  0  0  0
 13 14  2  0  0  0  0
 13 12  1  0  0  0  0
 14 15  1  0  0  0  0
 15 23  1  0  0  0  0
 15 16  2  0  0  0  0
 16 24  1  0  0  0  0
 17 16  1  0  0  0  0
 17  8  2  0  0  0  0
 19 10  1  0  0  0  0
 20 11  1  0  0  0  0
 21 13  1  0  0  0  0
 22 14  1  0  0  0  0
 25 30  1  0  0  0  0
 26 27  1  0  0  0  0
 26 25  2  0  0  0  0
 27 28  2  0  0  0  0
 28 29  1  0  0  0  0
 29 33  1  0  0  0  0
 30 29  2  0  0  0  0
 31 25  1  0  0  0  0
 32 26  1  0  0  0  0
 33 34  1  0  0  0  0
 33 36  1  0  0  0  0
 33 35  1  0  0  0  0
 36 42  1  0  0  0  0
 36 37  1  0  0  0  0
 38 36  1  0  0  0  0
 40 39  1  0  0  0  0
 40 41  2  0  0  0  0
 42 40  1  0  0  0  0
 43 42  1  0  0  0  0
M  END
>  <minimizedAffinity>
-5.02250338

>  <minimizedRMSD>
2.66073275

$$$$
