
 OpenBabel03272510003D

 17 17  0  0  0  0  0  0  0  0999 V2000
   38.4030   31.3400   50.1720 C   0  0  0  0  0  0  0  0  0  0  0  0
   38.4210   31.7800   48.8460 C   0  0  0  0  0  0  0  0  0  0  0  0
   37.3660   31.4060   48.0260 C   0  0  0  0  0  0  0  0  0  0  0  0
   36.3720   30.6340   48.5500 N   0  0  0  0  0  0  0  0  0  0  0  0
   36.3950   30.2330   49.8330 C   0  0  0  0  0  0  0  0  0  0  0  0
   37.4040   30.5810   50.6440 N   0  0  0  0  0  0  0  0  0  0  0  0
   39.2480   31.6580   50.7720 H   0  0  0  0  0  0  0  0  0  0  0  0
   39.1920   32.3930   48.3960 H   0  0  0  0  0  0  0  0  0  0  0  0
   38.0290   31.5110   44.6990 H   0  0  0  0  0  0  0  0  0  0  0  0
   38.1200   31.1630   45.7170 C   0  0  0  0  0  0  0  0  0  0  0  0
   38.8940   30.2330   46.1180 O   0  0  0  0  0  0  0  0  0  0  0  0
   37.3020   31.8080   46.6630 N   0  0  0  0  0  0  0  0  0  0  0  0
   36.6450   32.5780   46.4110 H   0  0  0  0  0  0  0  0  0  0  0  0
   35.2680   29.3950   50.3100 C   0  0  0  0  0  0  0  0  0  0  0  0
   35.3500   29.1110   51.6630 F   0  0  0  0  0  0  0  0  0  0  0  0
   34.0460   30.0670   50.1340 F   0  0  0  0  0  0  0  0  0  0  0  0
   35.1320   28.2110   49.6470 F   0  0  0  0  0  0  0  0  0  0  0  0
  1  6  1  0  0  0  0
  1  7  1  0  0  0  0
  2  1  2  0  0  0  0
  3  4  2  0  0  0  0
  3  2  1  0  0  0  0
  4  5  1  0  0  0  0
  5 14  1  0  0  0  0
  5  6  2  0  0  0  0
  8  2  1  0  0  0  0
  9 10  1  0  0  0  0
 10 11  2  0  0  0  0
 10 12  1  0  0  0  0
 12  3  1  0  0  0  0
 13 12  1  0  0  0  0
 14 15  1  0  0  0  0
 16 14  1  0  0  0  0
 17 14  1  0  0  0  0
M  END
>  <minimizedAffinity>
-4.58711863

>  <minimizedRMSD>
0.317333847

$$$$
