
 OpenBabel03272502533D

 23 24  0  0  0  0  0  0  0  0999 V2000
   38.4480   24.0910   36.1610 C   0  0  0  0  0  0  0  0  0  0  0  0
   37.7590   24.6690   37.1960 C   0  0  0  0  0  0  0  0  0  0  0  0
   37.9800   24.3060   38.5080 C   0  0  0  0  0  0  0  0  0  0  0  0
   38.9280   23.3350   38.7180 C   0  0  0  0  0  0  0  0  0  0  0  0
   39.6410   22.7310   37.6930 C   0  0  0  0  0  0  0  0  0  0  0  0
   39.3710   23.1390   36.4150 N   0  0  0  0  0  0  0  0  0  0  0  0
   37.0140   25.4410   36.9520 H   0  0  0  0  0  0  0  0  0  0  0  0
   37.4430   24.7550   39.3340 H   0  0  0  0  0  0  0  0  0  0  0  0
   39.1700   22.9850   39.7110 H   0  0  0  0  0  0  0  0  0  0  0  0
   42.7350   21.2910   36.9300 H   0  0  0  0  0  0  0  0  0  0  0  0
   41.8240   21.8610   37.0580 C   0  0  0  0  0  0  0  0  0  0  0  0
   42.0480   22.8460   36.2810 O   0  0  0  0  0  0  0  0  0  0  0  0
   40.6210   21.7370   37.8080 N   0  0  0  0  0  0  0  0  0  0  0  0
   40.6850   20.8400   38.3670 H   0  0  0  0  0  0  0  0  0  0  0  0
   37.4720   26.1110   33.2730 C   0  0  0  0  0  0  0  0  0  0  0  0
   37.7090   25.2680   32.1850 C   0  0  0  0  0  0  0  0  0  0  0  0
   38.2070   23.9990   32.4640 C   0  0  0  0  0  0  0  0  0  0  0  0
   38.4340   23.6570   33.7690 N   0  0  0  0  0  0  0  0  0  0  0  0
   38.1930   24.4940   34.7830 C   0  0  0  0  0  0  0  0  0  0  0  0
   37.7160   25.7110   34.5250 N   0  0  0  0  0  0  0  0  0  0  0  0
   37.0780   27.1140   33.0590 H   0  0  0  0  0  0  0  0  0  0  0  0
   37.5300   25.5400   31.1650 H   0  0  0  0  0  0  0  0  0  0  0  0
   38.4180   23.2830   31.6720 H   0  0  0  0  0  0  0  0  0  0  0  0
  1  6  2  0  0  0  0
  1  2  1  0  0  0  0
  2  3  2  0  0  0  0
  3  4  1  0  0  0  0
  3  8  1  0  0  0  0
  4  9  1  0  0  0  0
  5 13  1  0  0  0  0
  5  4  2  0  0  0  0
  6  5  1  0  0  0  0
  7  2  1  0  0  0  0
 10 11  1  0  0  0  0
 11 13  1  0  0  0  0
 12 11  2  0  0  0  0
 13 14  1  0  0  0  0
 15 20  1  0  0  0  0
 16 17  1  0  0  0  0
 16 15  2  0  0  0  0
 17 18  2  0  0  0  0
 18 19  1  0  0  0  0
 19  1  1  0  0  0  0
 20 19  2  0  0  0  0
 21 15  1  0  0  0  0
 22 16  1  0  0  0  0
 23 17  1  0  0  0  0
M  END
>  <minimizedAffinity>
-4.9499135

$$$$

 OpenBabel03272502533D

 23 24  0  0  0  0  0  0  0  0999 V2000
   38.4350   23.8940   36.0340 C   0  0  0  0  0  0  0  0  0  0  0  0
   37.7670   24.5590   37.0300 C   0  0  0  0  0  0  0  0  0  0  0  0
   38.0180   24.3130   38.3630 C   0  0  0  0  0  0  0  0  0  0  0  0
   38.9750   23.3660   38.6360 C   0  0  0  0  0  0  0  0  0  0  0  0
   39.6680   22.6770   37.6530 C   0  0  0  0  0  0  0  0  0  0  0  0
   39.3680   22.9700   36.3500 N   0  0  0  0  0  0  0  0  0  0  0  0
   37.0130   25.3050   36.7360 H   0  0  0  0  0  0  0  0  0  0  0  0
   37.4980   24.8320   39.1580 H   0  0  0  0  0  0  0  0  0  0  0  0
   39.2410   23.1060   39.6500 H   0  0  0  0  0  0  0  0  0  0  0  0
   42.7510   21.1830   36.9500 H   0  0  0  0  0  0  0  0  0  0  0  0
   41.8410   21.7600   37.0480 C   0  0  0  0  0  0  0  0  0  0  0  0
   42.0430   22.6730   36.1830 O   0  0  0  0  0  0  0  0  0  0  0  0
   40.6540   21.6990   37.8320 N   0  0  0  0  0  0  0  0  0  0  0  0
   40.7350   20.8550   38.4670 H   0  0  0  0  0  0  0  0  0  0  0  0
   38.0160   23.4270   32.4310 C   0  0  0  0  0  0  0  0  0  0  0  0
   37.6120   24.6860   31.9800 C   0  0  0  0  0  0  0  0  0  0  0  0
   37.4880   25.6910   32.9350 C   0  0  0  0  0  0  0  0  0  0  0  0
   37.7650   25.3920   34.2400 N   0  0  0  0  0  0  0  0  0  0  0  0
   38.1490   24.1730   34.6320 C   0  0  0  0  0  0  0  0  0  0  0  0
   38.2710   23.2040   33.7250 N   0  0  0  0  0  0  0  0  0  0  0  0
   38.1150   22.6300   31.6820 H   0  0  0  0  0  0  0  0  0  0  0  0
   37.3960   24.9150   30.9570 H   0  0  0  0  0  0  0  0  0  0  0  0
   37.1790   26.6980   32.6640 H   0  0  0  0  0  0  0  0  0  0  0  0
  1  6  2  0  0  0  0
  1  2  1  0  0  0  0
  2  3  2  0  0  0  0
  3  4  1  0  0  0  0
  3  8  1  0  0  0  0
  4  9  1  0  0  0  0
  5 13  1  0  0  0  0
  5  4  2  0  0  0  0
  6  5  1  0  0  0  0
  7  2  1  0  0  0  0
 10 11  1  0  0  0  0
 11 13  1  0  0  0  0
 12 11  2  0  0  0  0
 13 14  1  0  0  0  0
 15 20  1  0  0  0  0
 16 15  2  0  0  0  0
 16 17  1  0  0  0  0
 17 18  2  0  0  0  0
 18 19  1  0  0  0  0
 19  1  1  0  0  0  0
 20 19  2  0  0  0  0
 21 15  1  0  0  0  0
 22 16  1  0  0  0  0
 23 17  1  0  0  0  0
M  END
>  <minimizedAffinity>
-4.91218233

$$$$

 OpenBabel03272502533D

 23 24  0  0  0  0  0  0  0  0999 V2000
   37.8710   25.6050   34.8910 C   0  0  0  0  0  0  0  0  0  0  0  0
   37.4290   26.8450   35.2750 C   0  0  0  0  0  0  0  0  0  0  0  0
   36.8870   27.7350   34.3730 C   0  0  0  0  0  0  0  0  0  0  0  0
   36.8160   27.3110   33.0680 C   0  0  0  0  0  0  0  0  0  0  0  0
   37.2550   26.0650   32.6480 C   0  0  0  0  0  0  0  0  0  0  0  0
   37.7820   25.2300   33.5960 N   0  0  0  0  0  0  0  0  0  0  0  0
   37.5170   27.1170   36.3380 H   0  0  0  0  0  0  0  0  0  0  0  0
   36.5340   28.7160   34.6640 H   0  0  0  0  0  0  0  0  0  0  0  0
   36.4080   27.9380   32.2900 H   0  0  0  0  0  0  0  0  0  0  0  0
   36.6380   23.5430   30.3040 H   0  0  0  0  0  0  0  0  0  0  0  0
   36.7750   24.2100   31.1450 C   0  0  0  0  0  0  0  0  0  0  0  0
   36.3970   23.4620   32.1050 O   0  0  0  0  0  0  0  0  0  0  0  0
   37.2250   25.5450   31.3470 N   0  0  0  0  0  0  0  0  0  0  0  0
   37.4780   25.9430   30.3990 H   0  0  0  0  0  0  0  0  0  0  0  0
   38.3610   23.7060   37.9770 C   0  0  0  0  0  0  0  0  0  0  0  0
   39.5040   22.9450   37.7190 C   0  0  0  0  0  0  0  0  0  0  0  0
   40.0990   23.1000   36.4700 C   0  0  0  0  0  0  0  0  0  0  0  0
   39.5370   23.9740   35.5810 N   0  0  0  0  0  0  0  0  0  0  0  0
   38.4410   24.6830   35.8660 C   0  0  0  0  0  0  0  0  0  0  0  0
   37.8650   24.5430   37.0600 N   0  0  0  0  0  0  0  0  0  0  0  0
   37.8870   23.5880   38.9610 H   0  0  0  0  0  0  0  0  0  0  0  0
   39.9410   22.2630   38.4180 H   0  0  0  0  0  0  0  0  0  0  0  0
   40.9920   22.5440   36.1920 H   0  0  0  0  0  0  0  0  0  0  0  0
  1  2  1  0  0  0  0
  1 19  1  0  0  0  0
  2  7  1  0  0  0  0
  3  8  1  0  0  0  0
  3  2  2  0  0  0  0
  4  3  1  0  0  0  0
  5  4  2  0  0  0  0
  5  6  1  0  0  0  0
  6  1  2  0  0  0  0
  9  4  1  0  0  0  0
 10 11  1  0  0  0  0
 11 13  1  0  0  0  0
 11 12  2  0  0  0  0
 13  5  1  0  0  0  0
 14 13  1  0  0  0  0
 15 21  1  0  0  0  0
 16 15  1  0  0  0  0
 16 22  1  0  0  0  0
 17 16  2  0  0  0  0
 18 19  2  0  0  0  0
 18 17  1  0  0  0  0
 19 20  1  0  0  0  0
 20 15  2  0  0  0  0
 23 17  1  0  0  0  0
M  END
>  <minimizedAffinity>
-4.50033998

$$$$

 OpenBabel03272502533D

 23 24  0  0  0  0  0  0  0  0999 V2000
   38.0510   22.3770   36.0130 C   0  0  0  0  0  0  0  0  0  0  0  0
   37.4390   23.1100   36.9970 C   0  0  0  0  0  0  0  0  0  0  0  0
   38.1180   23.5290   38.1210 C   0  0  0  0  0  0  0  0  0  0  0  0
   39.4420   23.1720   38.1980 C   0  0  0  0  0  0  0  0  0  0  0  0
   40.0910   22.4320   37.2210 C   0  0  0  0  0  0  0  0  0  0  0  0
   39.3560   22.0480   36.1320 N   0  0  0  0  0  0  0  0  0  0  0  0
   36.3740   23.3590   36.8670 H   0  0  0  0  0  0  0  0  0  0  0  0
   37.6460   24.1080   38.9040 H   0  0  0  0  0  0  0  0  0  0  0  0
   40.0570   23.4550   39.0400 H   0  0  0  0  0  0  0  0  0  0  0  0
   43.2030   21.9570   35.6980 H   0  0  0  0  0  0  0  0  0  0  0  0
   42.1910   22.1680   36.0180 C   0  0  0  0  0  0  0  0  0  0  0  0
   41.7000   22.6600   34.9500 O   0  0  0  0  0  0  0  0  0  0  0  0
   41.4300   22.0210   37.2120 N   0  0  0  0  0  0  0  0  0  0  0  0
   42.0640   21.5920   37.9430 H   0  0  0  0  0  0  0  0  0  0  0  0
   35.6140   20.6510   33.9040 C   0  0  0  0  0  0  0  0  0  0  0  0
   35.8960   21.1230   32.6190 C   0  0  0  0  0  0  0  0  0  0  0  0
   36.9350   22.0400   32.4960 C   0  0  0  0  0  0  0  0  0  0  0  0
   37.6090   22.4210   33.6230 N   0  0  0  0  0  0  0  0  0  0  0  0
   37.3080   21.9460   34.8350 C   0  0  0  0  0  0  0  0  0  0  0  0
   36.3150   21.0660   34.9630 N   0  0  0  0  0  0  0  0  0  0  0  0
   34.7950   19.9260   34.0070 H   0  0  0  0  0  0  0  0  0  0  0  0
   35.3650   20.8220   31.7400 H   0  0  0  0  0  0  0  0  0  0  0  0
   37.2160   22.4550   31.5300 H   0  0  0  0  0  0  0  0  0  0  0  0
  1  6  2  0  0  0  0
  1  2  1  0  0  0  0
  2  3  2  0  0  0  0
  3  4  1  0  0  0  0
  3  8  1  0  0  0  0
  4  9  1  0  0  0  0
  5  4  2  0  0  0  0
  6  5  1  0  0  0  0
  7  2  1  0  0  0  0
 10 11  1  0  0  0  0
 11 13  1  0  0  0  0
 12 11  2  0  0  0  0
 13  5  1  0  0  0  0
 13 14  1  0  0  0  0
 15 21  1  0  0  0  0
 15 20  1  0  0  0  0
 16 15  2  0  0  0  0
 17 16  1  0  0  0  0
 17 18  2  0  0  0  0
 18 19  1  0  0  0  0
 19 20  2  0  0  0  0
 19  1  1  0  0  0  0
 22 16  1  0  0  0  0
 23 17  1  0  0  0  0
M  END
>  <minimizedAffinity>
-4.39069128

$$$$

 OpenBabel03272502533D

 23 24  0  0  0  0  0  0  0  0999 V2000
   37.2060   26.4450   33.9230 C   0  0  0  0  0  0  0  0  0  0  0  0
   36.9290   27.6850   34.4390 C   0  0  0  0  0  0  0  0  0  0  0  0
   36.2180   28.6260   33.7250 C   0  0  0  0  0  0  0  0  0  0  0  0
   35.8030   28.2520   32.4700 C   0  0  0  0  0  0  0  0  0  0  0  0
   36.0670   27.0060   31.9210 C   0  0  0  0  0  0  0  0  0  0  0  0
   36.7790   26.1200   32.6840 N   0  0  0  0  0  0  0  0  0  0  0  0
   37.2930   27.9160   35.4510 H   0  0  0  0  0  0  0  0  0  0  0  0
   35.9920   29.6080   34.1210 H   0  0  0  0  0  0  0  0  0  0  0  0
   35.2400   28.9210   31.8360 H   0  0  0  0  0  0  0  0  0  0  0  0
   34.7720   24.5940   29.7440 H   0  0  0  0  0  0  0  0  0  0  0  0
   35.1450   25.2250   30.5410 C   0  0  0  0  0  0  0  0  0  0  0  0
   34.9870   24.4580   31.5460 O   0  0  0  0  0  0  0  0  0  0  0  0
   35.6890   26.5350   30.6570 N   0  0  0  0  0  0  0  0  0  0  0  0
   35.7130   26.9580   29.6860 H   0  0  0  0  0  0  0  0  0  0  0  0
   39.6350   23.8550   34.7970 C   0  0  0  0  0  0  0  0  0  0  0  0
   39.3950   23.6220   36.1540 C   0  0  0  0  0  0  0  0  0  0  0  0
   38.3880   24.3690   36.7560 C   0  0  0  0  0  0  0  0  0  0  0  0
   37.7010   25.2760   35.9960 N   0  0  0  0  0  0  0  0  0  0  0  0
   37.9610   25.4690   34.7000 C   0  0  0  0  0  0  0  0  0  0  0  0
   38.9240   24.7580   34.1140 N   0  0  0  0  0  0  0  0  0  0  0  0
   40.4290   23.2680   34.3160 H   0  0  0  0  0  0  0  0  0  0  0  0
   39.9360   22.9110   36.7450 H   0  0  0  0  0  0  0  0  0  0  0  0
   38.1400   24.2470   37.8080 H   0  0  0  0  0  0  0  0  0  0  0  0
  1  2  1  0  0  0  0
  1 19  1  0  0  0  0
  2  7  1  0  0  0  0
  3  8  1  0  0  0  0
  3  2  2  0  0  0  0
  4  3  1  0  0  0  0
  5  4  2  0  0  0  0
  5  6  1  0  0  0  0
  6  1  2  0  0  0  0
  9  4  1  0  0  0  0
 10 11  1  0  0  0  0
 11 13  1  0  0  0  0
 11 12  2  0  0  0  0
 13  5  1  0  0  0  0
 14 13  1  0  0  0  0
 15 16  1  0  0  0  0
 16 22  1  0  0  0  0
 16 17  2  0  0  0  0
 17 23  1  0  0  0  0
 18 17  1  0  0  0  0
 19 18  2  0  0  0  0
 20 19  1  0  0  0  0
 20 15  2  0  0  0  0
 21 15  1  0  0  0  0
M  END
>  <minimizedAffinity>
-4.38952875

$$$$

 OpenBabel03272502533D

 23 24  0  0  0  0  0  0  0  0999 V2000
   38.0110   23.2060   34.5860 C   0  0  0  0  0  0  0  0  0  0  0  0
   38.1260   24.3150   33.7870 C   0  0  0  0  0  0  0  0  0  0  0  0
   37.7880   24.2860   32.4510 C   0  0  0  0  0  0  0  0  0  0  0  0
   37.3280   23.0850   31.9670 C   0  0  0  0  0  0  0  0  0  0  0  0
   37.2010   21.9470   32.7480 C   0  0  0  0  0  0  0  0  0  0  0  0
   37.5550   22.0460   34.0660 N   0  0  0  0  0  0  0  0  0  0  0  0
   38.5020   25.2430   34.2440 H   0  0  0  0  0  0  0  0  0  0  0  0
   37.8730   25.1540   31.8100 H   0  0  0  0  0  0  0  0  0  0  0  0
   37.0390   22.9650   30.9330 H   0  0  0  0  0  0  0  0  0  0  0  0
   35.2920   19.0430   33.1420 H   0  0  0  0  0  0  0  0  0  0  0  0
   35.8130   19.9900   33.1690 C   0  0  0  0  0  0  0  0  0  0  0  0
   35.3740   20.4730   34.2630 O   0  0  0  0  0  0  0  0  0  0  0  0
   36.7450   20.6850   32.3470 N   0  0  0  0  0  0  0  0  0  0  0  0
   36.9460   20.0730   31.5060 H   0  0  0  0  0  0  0  0  0  0  0  0
   39.8820   22.7470   37.6940 C   0  0  0  0  0  0  0  0  0  0  0  0
   39.0810   23.3680   38.6560 C   0  0  0  0  0  0  0  0  0  0  0  0
   37.8940   23.9440   38.2160 C   0  0  0  0  0  0  0  0  0  0  0  0
   37.5830   23.8690   36.8850 N   0  0  0  0  0  0  0  0  0  0  0  0
   38.3770   23.2650   35.9960 C   0  0  0  0  0  0  0  0  0  0  0  0
   39.5160   22.7100   36.4080 N   0  0  0  0  0  0  0  0  0  0  0  0
   40.8200   22.2900   38.0360 H   0  0  0  0  0  0  0  0  0  0  0  0
   39.3280   23.4240   39.6960 H   0  0  0  0  0  0  0  0  0  0  0  0
   37.2160   24.4470   38.9020 H   0  0  0  0  0  0  0  0  0  0  0  0
  1 19  1  0  0  0  0
  2  7  1  0  0  0  0
  2  1  2  0  0  0  0
  3  2  1  0  0  0  0
  4  3  2  0  0  0  0
  4  5  1  0  0  0  0
  5  6  2  0  0  0  0
  6  1  1  0  0  0  0
  8  3  1  0  0  0  0
  9  4  1  0  0  0  0
 10 11  1  0  0  0  0
 11 12  2  0  0  0  0
 13  5  1  0  0  0  0
 13 11  1  0  0  0  0
 14 13  1  0  0  0  0
 15 21  1  0  0  0  0
 15 16  1  0  0  0  0
 16 22  1  0  0  0  0
 17 16  2  0  0  0  0
 17 23  1  0  0  0  0
 18 17  1  0  0  0  0
 19 20  1  0  0  0  0
 19 18  2  0  0  0  0
 20 15  2  0  0  0  0
M  END
>  <minimizedAffinity>
-4.3635788

$$$$

 OpenBabel03272502533D

 23 24  0  0  0  0  0  0  0  0999 V2000
   34.5090   30.7010   35.1670 C   0  0  0  0  0  0  0  0  0  0  0  0
   35.2470   31.6160   35.8740 C   0  0  0  0  0  0  0  0  0  0  0  0
   34.7510   32.2330   37.0020 C   0  0  0  0  0  0  0  0  0  0  0  0
   33.4780   31.8790   37.3780 C   0  0  0  0  0  0  0  0  0  0  0  0
   32.7060   30.9580   36.6850 C   0  0  0  0  0  0  0  0  0  0  0  0
   33.2610   30.3830   35.5730 N   0  0  0  0  0  0  0  0  0  0  0  0
   36.2600   31.8500   35.5130 H   0  0  0  0  0  0  0  0  0  0  0  0
   35.3220   32.9560   37.5690 H   0  0  0  0  0  0  0  0  0  0  0  0
   33.0040   32.3090   38.2480 H   0  0  0  0  0  0  0  0  0  0  0  0
   30.2300   28.5250   37.1080 H   0  0  0  0  0  0  0  0  0  0  0  0
   31.0990   29.1460   36.9370 C   0  0  0  0  0  0  0  0  0  0  0  0
   31.9650   28.2660   36.6230 O   0  0  0  0  0  0  0  0  0  0  0  0
   31.4060   30.5360   36.9890 N   0  0  0  0  0  0  0  0  0  0  0  0
   30.5230   31.0470   37.2720 H   0  0  0  0  0  0  0  0  0  0  0  0
   36.3370   28.3670   33.0250 C   0  0  0  0  0  0  0  0  0  0  0  0
   36.1030   28.8500   31.7350 C   0  0  0  0  0  0  0  0  0  0  0  0
   35.3090   29.9870   31.6200 C   0  0  0  0  0  0  0  0  0  0  0  0
   34.8110   30.5570   32.7590 N   0  0  0  0  0  0  0  0  0  0  0  0
   35.0590   30.0640   33.9760 C   0  0  0  0  0  0  0  0  0  0  0  0
   35.8180   28.9760   34.0970 N   0  0  0  0  0  0  0  0  0  0  0  0
   36.9640   27.4700   33.1230 H   0  0  0  0  0  0  0  0  0  0  0  0
   36.4950   28.4000   30.8470 H   0  0  0  0  0  0  0  0  0  0  0  0
   35.0790   30.4240   30.6500 H   0  0  0  0  0  0  0  0  0  0  0  0
  1  6  2  0  0  0  0
  1  2  1  0  0  0  0
  2  3  2  0  0  0  0
  3  4  1  0  0  0  0
  3  8  1  0  0  0  0
  4  9  1  0  0  0  0
  5 13  1  0  0  0  0
  5  4  2  0  0  0  0
  6  5  1  0  0  0  0
  7  2  1  0  0  0  0
 11 13  1  0  0  0  0
 11 10  1  0  0  0  0
 12 11  2  0  0  0  0
 13 14  1  0  0  0  0
 15 21  1  0  0  0  0
 15 20  1  0  0  0  0
 16 15  2  0  0  0  0
 17 16  1  0  0  0  0
 17 18  2  0  0  0  0
 18 19  1  0  0  0  0
 19 20  2  0  0  0  0
 19  1  1  0  0  0  0
 22 16  1  0  0  0  0
 23 17  1  0  0  0  0
M  END
>  <minimizedAffinity>
-4.3523345

$$$$

 OpenBabel03272502533D

 23 24  0  0  0  0  0  0  0  0999 V2000
   36.0130   21.5200   31.9750 C   0  0  0  0  0  0  0  0  0  0  0  0
   35.6380   20.9190   33.1490 C   0  0  0  0  0  0  0  0  0  0  0  0
   35.4620   19.5550   33.2430 C   0  0  0  0  0  0  0  0  0  0  0  0
   35.6840   18.8330   32.0950 C   0  0  0  0  0  0  0  0  0  0  0  0
   36.0640   19.4100   30.8930 C   0  0  0  0  0  0  0  0  0  0  0  0
   36.2200   20.7700   30.8700 N   0  0  0  0  0  0  0  0  0  0  0  0
   35.4780   21.5610   34.0280 H   0  0  0  0  0  0  0  0  0  0  0  0
   35.1670   19.0690   34.1630 H   0  0  0  0  0  0  0  0  0  0  0  0
   35.5710   17.7590   32.0710 H   0  0  0  0  0  0  0  0  0  0  0  0
   37.9180   18.8210   27.9870 H   0  0  0  0  0  0  0  0  0  0  0  0
   37.4640   19.1200   28.9220 C   0  0  0  0  0  0  0  0  0  0  0  0
   38.2850   20.0140   29.3110 O   0  0  0  0  0  0  0  0  0  0  0  0
   36.3110   18.7620   29.6770 N   0  0  0  0  0  0  0  0  0  0  0  0
   35.8030   18.0030   29.1410 H   0  0  0  0  0  0  0  0  0  0  0  0
   35.5230   25.0230   31.0450 C   0  0  0  0  0  0  0  0  0  0  0  0
   36.5170   25.6960   31.7590 C   0  0  0  0  0  0  0  0  0  0  0  0
   37.3540   24.9250   32.5600 C   0  0  0  0  0  0  0  0  0  0  0  0
   37.1560   23.5720   32.6020 N   0  0  0  0  0  0  0  0  0  0  0  0
   36.1920   22.9650   31.9030 C   0  0  0  0  0  0  0  0  0  0  0  0
   35.3860   23.6950   31.1320 N   0  0  0  0  0  0  0  0  0  0  0  0
   34.8600   25.6260   30.4100 H   0  0  0  0  0  0  0  0  0  0  0  0
   36.6680   26.7550   31.7220 H   0  0  0  0  0  0  0  0  0  0  0  0
   38.1520   25.3740   33.1470 H   0  0  0  0  0  0  0  0  0  0  0  0
  1  2  1  0  0  0  0
  2  3  2  0  0  0  0
  2  7  1  0  0  0  0
  3  8  1  0  0  0  0
  4  3  1  0  0  0  0
  5  4  2  0  0  0  0
  6  5  1  0  0  0  0
  6  1  2  0  0  0  0
  9  4  1  0  0  0  0
 10 11  1  0  0  0  0
 11 12  2  0  0  0  0
 11 13  1  0  0  0  0
 13  5  1  0  0  0  0
 14 13  1  0  0  0  0
 15 20  2  0  0  0  0
 15 16  1  0  0  0  0
 16 17  2  0  0  0  0
 17 18  1  0  0  0  0
 17 23  1  0  0  0  0
 19  1  1  0  0  0  0
 19 18  2  0  0  0  0
 20 19  1  0  0  0  0
 21 15  1  0  0  0  0
 22 16  1  0  0  0  0
M  END
>  <minimizedAffinity>
-4.34286404

$$$$

 OpenBabel03272502533D

 23 24  0  0  0  0  0  0  0  0999 V2000
   37.2020   21.8850   34.6260 C   0  0  0  0  0  0  0  0  0  0  0  0
   36.2380   20.9180   34.7570 C   0  0  0  0  0  0  0  0  0  0  0  0
   35.4800   20.4990   33.6840 C   0  0  0  0  0  0  0  0  0  0  0  0
   35.7450   21.1040   32.4800 C   0  0  0  0  0  0  0  0  0  0  0  0
   36.7120   22.0840   32.3150 C   0  0  0  0  0  0  0  0  0  0  0  0
   37.4280   22.4530   33.4220 N   0  0  0  0  0  0  0  0  0  0  0  0
   36.0810   20.4780   35.7530 H   0  0  0  0  0  0  0  0  0  0  0  0
   34.7170   19.7370   33.7740 H   0  0  0  0  0  0  0  0  0  0  0  0
   35.2030   20.8420   31.5830 H   0  0  0  0  0  0  0  0  0  0  0  0
   38.9940   23.3790   30.0040 H   0  0  0  0  0  0  0  0  0  0  0  0
   38.4260   22.9280   30.8060 C   0  0  0  0  0  0  0  0  0  0  0  0
   39.3660   22.4930   31.5490 O   0  0  0  0  0  0  0  0  0  0  0  0
   37.0520   22.7550   31.1340 N   0  0  0  0  0  0  0  0  0  0  0  0
   36.4820   23.2020   30.3610 H   0  0  0  0  0  0  0  0  0  0  0  0
   40.0500   22.4460   36.8510 C   0  0  0  0  0  0  0  0  0  0  0  0
   39.4880   23.1080   37.9460 C   0  0  0  0  0  0  0  0  0  0  0  0
   38.1190   23.3540   37.9020 C   0  0  0  0  0  0  0  0  0  0  0  0
   37.4140   22.9410   36.8060 N   0  0  0  0  0  0  0  0  0  0  0  0
   37.9890   22.3100   35.7780 C   0  0  0  0  0  0  0  0  0  0  0  0
   39.2990   22.0690   35.8100 N   0  0  0  0  0  0  0  0  0  0  0  0
   41.1300   22.2480   36.8790 H   0  0  0  0  0  0  0  0  0  0  0  0
   40.0440   23.4290   38.8020 H   0  0  0  0  0  0  0  0  0  0  0  0
   37.6070   23.8650   38.7150 H   0  0  0  0  0  0  0  0  0  0  0  0
  1  2  1  0  0  0  0
  1 19  1  0  0  0  0
  2  7  1  0  0  0  0
  3  8  1  0  0  0  0
  3  2  2  0  0  0  0
  4  3  1  0  0  0  0
  5  4  2  0  0  0  0
  5  6  1  0  0  0  0
  6  1  2  0  0  0  0
  9  4  1  0  0  0  0
 10 11  1  0  0  0  0
 11 13  1  0  0  0  0
 11 12  2  0  0  0  0
 13  5  1  0  0  0  0
 14 13  1  0  0  0  0
 15 21  1  0  0  0  0
 15 16  1  0  0  0  0
 16 22  1  0  0  0  0
 17 16  2  0  0  0  0
 17 23  1  0  0  0  0
 18 17  1  0  0  0  0
 19 20  1  0  0  0  0
 19 18  2  0  0  0  0
 20 15  2  0  0  0  0
M  END
>  <minimizedAffinity>
-4.30099773

$$$$
