
 OpenBabel03272510003D

 17 17  0  0  0  0  0  0  0  0999 V2000
   38.4960   31.5440   50.0120 C   0  0  0  0  0  0  0  0  0  0  0  0
   38.4940   31.9270   48.6680 C   0  0  0  0  0  0  0  0  0  0  0  0
   37.4570   31.4690   47.8660 C   0  0  0  0  0  0  0  0  0  0  0  0
   36.5000   30.6760   48.4250 N   0  0  0  0  0  0  0  0  0  0  0  0
   36.5410   30.3320   49.7240 C   0  0  0  0  0  0  0  0  0  0  0  0
   37.5320   30.7620   50.5180 N   0  0  0  0  0  0  0  0  0  0  0  0
   39.3240   31.9260   50.5960 H   0  0  0  0  0  0  0  0  0  0  0  0
   39.2360   32.5540   48.1900 H   0  0  0  0  0  0  0  0  0  0  0  0
   38.0740   31.4190   44.5290 H   0  0  0  0  0  0  0  0  0  0  0  0
   38.1800   31.1180   45.5610 C   0  0  0  0  0  0  0  0  0  0  0  0
   38.9570   30.2060   45.9940 O   0  0  0  0  0  0  0  0  0  0  0  0
   37.3750   31.8090   46.4880 N   0  0  0  0  0  0  0  0  0  0  0  0
   36.7160   32.5670   46.2090 H   0  0  0  0  0  0  0  0  0  0  0  0
   35.4530   29.4650   50.2390 C   0  0  0  0  0  0  0  0  0  0  0  0
   35.5730   29.2070   51.5940 F   0  0  0  0  0  0  0  0  0  0  0  0
   34.2060   30.0930   50.0790 F   0  0  0  0  0  0  0  0  0  0  0  0
   35.3430   28.2670   49.5980 F   0  0  0  0  0  0  0  0  0  0  0  0
  1  6  1  0  0  0  0
  1  7  1  0  0  0  0
  2  1  2  0  0  0  0
  3  4  2  0  0  0  0
  3  2  1  0  0  0  0
  4  5  1  0  0  0  0
  5 14  1  0  0  0  0
  5  6  2  0  0  0  0
  8  2  1  0  0  0  0
  9 10  1  0  0  0  0
 10 11  2  0  0  0  0
 10 12  1  0  0  0  0
 12  3  1  0  0  0  0
 13 12  1  0  0  0  0
 14 15  1  0  0  0  0
 16 14  1  0  0  0  0
 17 14  1  0  0  0  0
M  END
>  <minimizedAffinity>
-4.5630784

>  <minimizedRMSD>
0.720961154

$$$$
