
 OpenBabel03272507563D

 28 29  0  0  0  0  0  0  0  0999 V2000
   35.2120   28.5680   49.8460 C   0  0  0  0  0  0  0  0  0  0  0  0
   36.2590   29.5250   49.6950 C   0  0  0  0  0  0  0  0  0  0  0  0
   36.1390   30.4900   48.6990 C   0  0  0  0  0  0  0  0  0  0  0  0
   35.0130   30.4630   47.9180 N   0  0  0  0  0  0  0  0  0  0  0  0
   34.0370   29.5360   48.0930 C   0  0  0  0  0  0  0  0  0  0  0  0
   34.1290   28.5980   49.0420 N   0  0  0  0  0  0  0  0  0  0  0  0
   32.9760   29.7140   47.1700 N   0  0  0  0  0  0  0  0  0  0  0  0
   35.3030   27.8160   50.6200 H   0  0  0  0  0  0  0  0  0  0  0  0
   33.1680   29.8200   46.1590 H   0  0  0  0  0  0  0  0  0  0  0  0
   32.0460   29.7210   47.6400 H   0  0  0  0  0  0  0  0  0  0  0  0
   37.1850   31.4760   48.5210 C   0  0  0  0  0  0  0  0  0  0  0  0
   37.2180   32.4080   49.5630 C   0  0  0  0  0  0  0  0  0  0  0  0
   38.1660   33.4210   49.5400 C   0  0  0  0  0  0  0  0  0  0  0  0
   39.0590   33.5020   48.5020 C   0  0  0  0  0  0  0  0  0  0  0  0
   38.9990   32.5650   47.4860 C   0  0  0  0  0  0  0  0  0  0  0  0
   38.0700   31.5860   47.5260 N   0  0  0  0  0  0  0  0  0  0  0  0
   36.5840   32.4740   50.4450 H   0  0  0  0  0  0  0  0  0  0  0  0
   38.2660   34.1800   50.2940 H   0  0  0  0  0  0  0  0  0  0  0  0
   39.8430   34.2330   48.3580 H   0  0  0  0  0  0  0  0  0  0  0  0
   39.9850   32.4260   44.1270 H   0  0  0  0  0  0  0  0  0  0  0  0
   39.3360   32.5130   44.9980 C   0  0  0  0  0  0  0  0  0  0  0  0
   38.1010   32.6710   44.7840 O   0  0  0  0  0  0  0  0  0  0  0  0
   39.8190   32.4550   46.3170 N   0  0  0  0  0  0  0  0  0  0  0  0
   40.8480   32.3230   46.4750 H   0  0  0  0  0  0  0  0  0  0  0  0
   37.4280   29.4380   50.6140 C   0  0  0  0  0  0  0  0  0  0  0  0
   38.5870   29.8580   49.9670 F   0  0  0  0  0  0  0  0  0  0  0  0
   37.2100   30.2600   51.6750 F   0  0  0  0  0  0  0  0  0  0  0  0
   37.6510   28.1660   51.0860 F   0  0  0  0  0  0  0  0  0  0  0  0
  1  8  1  0  0  0  0
  2  1  1  0  0  0  0
  2 25  1  0  0  0  0
  3  2  2  0  0  0  0
  4  5  2  0  0  0  0
  4  3  1  0  0  0  0
  5  6  1  0  0  0  0
  6  1  2  0  0  0  0
  7 10  1  0  0  0  0
  7  5  1  0  0  0  0
  9  7  1  0  0  0  0
 11  3  1  0  0  0  0
 11 12  1  0  0  0  0
 12 17  1  0  0  0  0
 13 12  2  0  0  0  0
 13 18  1  0  0  0  0
 14 13  1  0  0  0  0
 15 16  1  0  0  0  0
 15 14  2  0  0  0  0
 16 11  2  0  0  0  0
 19 14  1  0  0  0  0
 20 21  1  0  0  0  0
 21 23  1  0  0  0  0
 22 21  2  0  0  0  0
 23 24  1  0  0  0  0
 23 15  1  0  0  0  0
 25 28  1  0  0  0  0
 25 27  1  0  0  0  0
 26 25  1  0  0  0  0
M  END
>  <minimizedAffinity>
-6.99179316

>  <minimizedRMSD>
0.268698812

$$$$
