
 OpenBabel03272508403D

 38 40  0  0  1  0  0  0  0  0999 V2000
   32.1730   30.1800   46.0540 N   0  0  0  0  0  0  0  0  0  0  0  0
   33.2750   30.5080   46.9580 C   0  0  0  0  0  0  0  0  0  0  0  0
   34.4530   29.6490   46.8090 C   0  0  2  0  0  0  0  0  0  0  0  0
   34.1020   28.2510   46.6150 N   0  0  0  0  0  0  0  0  0  0  0  0
   33.1490   28.1050   45.5490 C   0  0  0  0  0  0  0  0  0  0  0  0
   31.9000   28.7820   46.0880 C   0  0  0  0  0  0  0  0  0  0  0  0
   32.7880   30.2150   47.9500 H   0  0  0  0  0  0  0  0  0  0  0  0
   33.4680   31.5800   46.8900 H   0  0  0  0  0  0  0  0  0  0  0  0
   35.0420   29.8150   45.8860 H   0  0  0  0  0  0  0  0  0  0  0  0
   34.7590   27.5450   46.8180 H   0  0  0  0  0  0  0  0  0  0  0  0
   33.4590   28.6730   44.6450 H   0  0  0  0  0  0  0  0  0  0  0  0
   32.9190   27.0630   45.3280 H   0  0  0  0  0  0  0  0  0  0  0  0
   31.0020   28.5180   45.5170 H   0  0  0  0  0  0  0  0  0  0  0  0
   31.7660   28.3840   47.1300 H   0  0  0  0  0  0  0  0  0  0  0  0
   37.0940   30.8750   46.2180 Cl  0  0  0  0  0  0  0  0  0  0  0  0
   36.5730   30.3850   47.8300 C   0  0  0  0  0  0  0  0  0  0  0  0
   35.3370   29.8080   47.9520 C   0  0  0  0  0  0  0  0  0  0  0  0
   34.7820   29.3680   49.1630 C   0  0  0  0  0  0  0  0  0  0  0  0
   35.5960   29.5520   50.2890 C   0  0  0  0  0  0  0  0  0  0  0  0
   36.8630   30.1390   50.1760 C   0  0  0  0  0  0  0  0  0  0  0  0
   37.3270   30.5440   48.9580 C   0  0  0  0  0  0  0  0  0  0  0  0
   33.8970   28.9170   49.5350 H   0  0  0  0  0  0  0  0  0  0  0  0
   35.4030   29.3000   51.3190 H   0  0  0  0  0  0  0  0  0  0  0  0
   37.5480   30.3150   50.9870 H   0  0  0  0  0  0  0  0  0  0  0  0
   39.4180   33.2040   49.0160 H   0  0  0  0  0  0  0  0  0  0  0  0
   38.5940   32.5380   49.0750 C   0  0  0  0  0  0  0  0  0  0  0  0
   37.5450   33.1560   49.4630 O   0  0  0  0  0  0  0  0  0  0  0  0
   38.6020   31.1480   48.7760 N   0  0  0  0  0  0  0  0  0  0  0  0
   39.4920   30.7200   48.4680 H   0  0  0  0  0  0  0  0  0  0  0  0
   31.4980   31.1610   45.2890 C   0  0  0  0  0  0  0  0  0  0  0  0
   31.9330   32.4770   45.2160 C   0  0  0  0  0  0  0  0  0  0  0  0
   31.2170   33.3870   44.4370 C   0  0  0  0  0  0  0  0  0  0  0  0
   30.1010   32.9210   43.7730 N   0  0  0  0  0  0  0  0  0  0  0  0
   29.7120   31.6250   43.8740 C   0  0  0  0  0  0  0  0  0  0  0  0
   30.3880   30.7650   44.6100 N   0  0  0  0  0  0  0  0  0  0  0  0
   32.8160   32.7910   45.7560 H   0  0  0  0  0  0  0  0  0  0  0  0
   31.5140   34.4250   44.3460 H   0  0  0  0  0  0  0  0  0  0  0  0
   28.8250   31.3550   43.3180 H   0  0  0  0  0  0  0  0  0  0  0  0
  1  6  1  0  0  0  0
  1  2  1  0  0  0  0
  2  7  1  0  0  0  0
  3  9  1  6  0  0  0
  3  2  1  0  0  0  0
  3 17  1  0  0  0  0
  4  3  1  0  0  0  0
  4 10  1  0  0  0  0
  5  6  1  0  0  0  0
  5  4  1  0  0  0  0
  6 14  1  0  0  0  0
  8  2  1  0  0  0  0
 11  5  1  0  0  0  0
 12  5  1  0  0  0  0
 13  6  1  0  0  0  0
 15 16  1  0  0  0  0
 16 17  2  0  0  0  0
 16 21  1  0  0  0  0
 17 18  1  0  0  0  0
 18 22  1  0  0  0  0
 18 19  2  0  0  0  0
 19 23  1  0  0  0  0
 20 19  1  0  0  0  0
 20 24  1  0  0  0  0
 21 20  2  0  0  0  0
 25 26  1  0  0  0  0
 26 27  2  0  0  0  0
 28 21  1  0  0  0  0
 28 26  1  0  0  0  0
 29 28  1  0  0  0  0
 30  1  1  0  0  0  0
 31 30  1  0  0  0  0
 31 36  1  0  0  0  0
 32 31  2  0  0  0  0
 33 34  2  0  0  0  0
 33 32  1  0  0  0  0
 34 35  1  0  0  0  0
 35 30  2  0  0  0  0
 37 32  1  0  0  0  0
 38 34  1  0  0  0  0
M  END
>  <minimizedAffinity>
-5.46839762

>  <minimizedRMSD>
2.49497437

$$$$
