
 OpenBabel03272505483D

 30 32  0  0  0  0  0  0  0  0999 V2000
   38.4580   26.1240   34.9580 C   0  0  0  0  0  0  0  0  0  0  0  0
   38.5450   27.1000   36.0640 C   0  0  0  0  0  0  0  0  0  0  0  0
   39.6590   27.0120   35.0590 C   0  0  0  0  0  0  0  0  0  0  0  0
   37.9210   28.0080   36.0770 H   0  0  0  0  0  0  0  0  0  0  0  0
   38.7170   26.6550   37.0780 H   0  0  0  0  0  0  0  0  0  0  0  0
   40.6310   26.5670   35.3970 H   0  0  0  0  0  0  0  0  0  0  0  0
   39.7610   27.8030   34.2960 H   0  0  0  0  0  0  0  0  0  0  0  0
   38.6420   24.6670   35.2690 C   0  0  0  0  0  0  0  0  0  0  0  0
   39.7720   24.0070   34.9070 C   0  0  0  0  0  0  0  0  0  0  0  0
   39.9450   22.6670   35.2070 C   0  0  0  0  0  0  0  0  0  0  0  0
   38.9190   22.0170   35.8920 C   0  0  0  0  0  0  0  0  0  0  0  0
   37.7540   22.6930   36.2660 C   0  0  0  0  0  0  0  0  0  0  0  0
   37.6720   23.9970   35.9320 N   0  0  0  0  0  0  0  0  0  0  0  0
   40.6290   24.3500   34.3650 H   0  0  0  0  0  0  0  0  0  0  0  0
   40.7930   22.0400   34.9750 H   0  0  0  0  0  0  0  0  0  0  0  0
   38.9400   20.9760   36.1810 H   0  0  0  0  0  0  0  0  0  0  0  0
   35.0780   20.8810   37.3070 H   0  0  0  0  0  0  0  0  0  0  0  0
   35.7110   21.1310   36.4480 C   0  0  0  0  0  0  0  0  0  0  0  0
   35.8070   20.8490   35.2150 O   0  0  0  0  0  0  0  0  0  0  0  0
   36.6900   22.0550   36.9640 N   0  0  0  0  0  0  0  0  0  0  0  0
   36.8410   22.4520   37.9230 H   0  0  0  0  0  0  0  0  0  0  0  0
   36.1920   27.7610   32.5300 C   0  0  0  0  0  0  0  0  0  0  0  0
   35.9140   26.7170   31.6270 C   0  0  0  0  0  0  0  0  0  0  0  0
   36.5040   25.4510   31.8630 C   0  0  0  0  0  0  0  0  0  0  0  0
   37.3040   25.3170   32.9430 N   0  0  0  0  0  0  0  0  0  0  0  0
   37.5610   26.3360   33.8010 C   0  0  0  0  0  0  0  0  0  0  0  0
   37.0080   27.5270   33.5850 N   0  0  0  0  0  0  0  0  0  0  0  0
   35.7210   28.7110   32.3130 H   0  0  0  0  0  0  0  0  0  0  0  0
   35.2710   26.8340   30.7620 H   0  0  0  0  0  0  0  0  0  0  0  0
   36.3250   24.6160   31.2040 H   0  0  0  0  0  0  0  0  0  0  0  0
  1  3  1  0  0  0  0
  1  8  1  0  0  0  0
  1  2  1  0  0  0  0
  2  4  1  0  0  0  0
  2  5  1  0  0  0  0
  3  6  1  0  0  0  0
  3  2  1  0  0  0  0
  7  3  1  0  0  0  0
  8 13  1  0  0  0  0
  9 10  1  0  0  0  0
  9  8  2  0  0  0  0
 10 11  2  0  0  0  0
 11 16  1  0  0  0  0
 11 12  1  0  0  0  0
 12 20  1  0  0  0  0
 13 12  2  0  0  0  0
 14  9  1  0  0  0  0
 15 10  1  0  0  0  0
 18 20  1  0  0  0  0
 18 17  1  0  0  0  0
 19 18  2  0  0  0  0
 20 21  1  0  0  0  0
 22 27  1  0  0  0  0
 23 24  1  0  0  0  0
 23 22  2  0  0  0  0
 24 25  2  0  0  0  0
 25 26  1  0  0  0  0
 26  1  1  0  0  0  0
 27 26  2  0  0  0  0
 28 22  1  0  0  0  0
 29 23  1  0  0  0  0
 30 24  1  0  0  0  0
M  END
>  <minimizedAffinity>
-5.24476385

$$$$

 OpenBabel03272505483D

 30 32  0  0  0  0  0  0  0  0999 V2000
   38.8350   23.2120   36.4300 C   0  0  0  0  0  0  0  0  0  0  0  0
   40.0930   22.6210   36.9330 C   0  0  0  0  0  0  0  0  0  0  0  0
   39.0080   22.9990   37.9020 C   0  0  0  0  0  0  0  0  0  0  0  0
   40.3210   21.5530   36.7910 H   0  0  0  0  0  0  0  0  0  0  0  0
   40.9910   23.2890   36.8660 H   0  0  0  0  0  0  0  0  0  0  0  0
   39.1820   23.8900   38.5580 H   0  0  0  0  0  0  0  0  0  0  0  0
   38.3980   22.2030   38.3660 H   0  0  0  0  0  0  0  0  0  0  0  0
   38.8560   24.6250   35.9250 C   0  0  0  0  0  0  0  0  0  0  0  0
   37.7390   25.3960   35.9440 C   0  0  0  0  0  0  0  0  0  0  0  0
   37.7640   26.7040   35.4900 C   0  0  0  0  0  0  0  0  0  0  0  0
   38.9750   27.2010   35.0100 C   0  0  0  0  0  0  0  0  0  0  0  0
   40.1270   26.4090   34.9880 C   0  0  0  0  0  0  0  0  0  0  0  0
   40.0090   25.1480   35.4500 N   0  0  0  0  0  0  0  0  0  0  0  0
   36.7420   25.1600   36.2530 H   0  0  0  0  0  0  0  0  0  0  0  0
   36.9480   27.4100   35.4570 H   0  0  0  0  0  0  0  0  0  0  0  0
   39.1180   28.2030   34.6310 H   0  0  0  0  0  0  0  0  0  0  0  0
   42.8070   27.4780   33.1980 H   0  0  0  0  0  0  0  0  0  0  0  0
   41.7780   27.1060   33.1340 C   0  0  0  0  0  0  0  0  0  0  0  0
   40.9120   26.8340   32.2490 O   0  0  0  0  0  0  0  0  0  0  0  0
   41.3760   26.8900   34.5020 N   0  0  0  0  0  0  0  0  0  0  0  0
   41.8810   27.0290   35.4110 H   0  0  0  0  0  0  0  0  0  0  0  0
   36.9550   21.4400   33.7770 C   0  0  0  0  0  0  0  0  0  0  0  0
   35.9030   20.8440   34.5000 C   0  0  0  0  0  0  0  0  0  0  0  0
   35.8440   21.0610   35.8990 C   0  0  0  0  0  0  0  0  0  0  0  0
   36.8030   21.8290   36.4620 N   0  0  0  0  0  0  0  0  0  0  0  0
   37.8090   22.3930   35.7480 C   0  0  0  0  0  0  0  0  0  0  0  0
   37.8690   22.1940   34.4330 N   0  0  0  0  0  0  0  0  0  0  0  0
   36.9620   21.2490   32.7120 H   0  0  0  0  0  0  0  0  0  0  0  0
   35.1380   20.2290   34.0400 H   0  0  0  0  0  0  0  0  0  0  0  0
   35.0600   20.6300   36.5020 H   0  0  0  0  0  0  0  0  0  0  0  0
  1  2  1  0  0  0  0
  1  3  1  0  0  0  0
  2  3  1  0  0  0  0
  3  7  1  0  0  0  0
  3  6  1  0  0  0  0
  4  2  1  0  0  0  0
  5  2  1  0  0  0  0
  8  9  1  0  0  0  0
  8  1  1  0  0  0  0
  9 14  1  0  0  0  0
 10  9  2  0  0  0  0
 11 10  1  0  0  0  0
 12 11  2  0  0  0  0
 12 13  1  0  0  0  0
 13  8  2  0  0  0  0
 15 10  1  0  0  0  0
 16 11  1  0  0  0  0
 18 17  1  0  0  0  0
 18 20  1  0  0  0  0
 19 18  2  0  0  0  0
 20 12  1  0  0  0  0
 20 21  1  0  0  0  0
 22 27  2  0  0  0  0
 22 23  1  0  0  0  0
 23 24  2  0  0  0  0
 24 25  1  0  0  0  0
 24 30  1  0  0  0  0
 26  1  1  0  0  0  0
 26 25  2  0  0  0  0
 27 26  1  0  0  0  0
 28 22  1  0  0  0  0
 29 23  1  0  0  0  0
M  END
>  <minimizedAffinity>
-5.14112854

$$$$

 OpenBabel03272505483D

 30 32  0  0  0  0  0  0  0  0999 V2000
   38.6930   25.8780   34.8710 C   0  0  0  0  0  0  0  0  0  0  0  0
   39.7490   26.8820   34.6200 C   0  0  0  0  0  0  0  0  0  0  0  0
   38.4980   27.2840   35.3490 C   0  0  0  0  0  0  0  0  0  0  0  0
   40.6990   26.8650   35.1770 H   0  0  0  0  0  0  0  0  0  0  0  0
   39.8570   27.2000   33.5500 H   0  0  0  0  0  0  0  0  0  0  0  0
   37.7680   27.9400   34.8090 H   0  0  0  0  0  0  0  0  0  0  0  0
   38.5400   27.4500   36.4400 H   0  0  0  0  0  0  0  0  0  0  0  0
   37.8540   25.4140   33.7160 C   0  0  0  0  0  0  0  0  0  0  0  0
   37.0570   26.2760   33.0330 C   0  0  0  0  0  0  0  0  0  0  0  0
   36.2950   25.8480   31.9600 C   0  0  0  0  0  0  0  0  0  0  0  0
   36.3700   24.5020   31.6060 C   0  0  0  0  0  0  0  0  0  0  0  0
   37.1870   23.6120   32.3080 C   0  0  0  0  0  0  0  0  0  0  0  0
   37.8950   24.1160   33.3380 N   0  0  0  0  0  0  0  0  0  0  0  0
   36.8730   27.3180   33.1910 H   0  0  0  0  0  0  0  0  0  0  0  0
   35.6310   26.4350   31.3430 H   0  0  0  0  0  0  0  0  0  0  0  0
   35.8230   24.0530   30.7900 H   0  0  0  0  0  0  0  0  0  0  0  0
   36.7810   20.2780   31.8030 H   0  0  0  0  0  0  0  0  0  0  0  0
   36.3230   21.1840   32.2180 C   0  0  0  0  0  0  0  0  0  0  0  0
   35.2590   21.5320   32.8130 O   0  0  0  0  0  0  0  0  0  0  0  0
   37.2820   22.2320   31.9690 N   0  0  0  0  0  0  0  0  0  0  0  0
   38.2240   22.2240   31.5070 H   0  0  0  0  0  0  0  0  0  0  0  0
   40.0700   23.0490   36.8210 C   0  0  0  0  0  0  0  0  0  0  0  0
   39.1210   22.9040   37.8520 C   0  0  0  0  0  0  0  0  0  0  0  0
   38.0080   23.7790   37.8670 C   0  0  0  0  0  0  0  0  0  0  0  0
   37.9200   24.7070   36.8880 N   0  0  0  0  0  0  0  0  0  0  0  0
   38.8440   24.8310   35.9040 C   0  0  0  0  0  0  0  0  0  0  0  0
   39.8920   24.0100   35.8850 N   0  0  0  0  0  0  0  0  0  0  0  0
   40.9040   22.3600   36.8480 H   0  0  0  0  0  0  0  0  0  0  0  0
   39.2010   22.1560   38.6340 H   0  0  0  0  0  0  0  0  0  0  0  0
   37.2510   23.7130   38.6320 H   0  0  0  0  0  0  0  0  0  0  0  0
  1  3  1  0  0  0  0
  1 26  1  0  0  0  0
  2  1  1  0  0  0  0
  2  4  1  0  0  0  0
  2  3  1  0  0  0  0
  3  7  1  0  0  0  0
  5  2  1  0  0  0  0
  6  3  1  0  0  0  0
  8  1  1  0  0  0  0
  9 14  1  0  0  0  0
  9  8  2  0  0  0  0
 10  9  1  0  0  0  0
 11 10  2  0  0  0  0
 11 12  1  0  0  0  0
 12 13  2  0  0  0  0
 13  8  1  0  0  0  0
 15 10  1  0  0  0  0
 16 11  1  0  0  0  0
 17 18  1  0  0  0  0
 18 19  2  0  0  0  0
 20 18  1  0  0  0  0
 20 12  1  0  0  0  0
 21 20  1  0  0  0  0
 22 28  1  0  0  0  0
 22 23  1  0  0  0  0
 23 24  2  0  0  0  0
 23 29  1  0  0  0  0
 24 30  1  0  0  0  0
 25 24  1  0  0  0  0
 26 25  2  0  0  0  0
 27 26  1  0  0  0  0
 27 22  2  0  0  0  0
M  END
>  <minimizedAffinity>
-5.02391624

$$$$

 OpenBabel03272505483D

 30 32  0  0  0  0  0  0  0  0999 V2000
   38.5130   23.9400   36.6050 C   0  0  0  0  0  0  0  0  0  0  0  0
   37.8530   24.1990   37.9020 C   0  0  0  0  0  0  0  0  0  0  0  0
   37.3980   23.0460   37.0510 C   0  0  0  0  0  0  0  0  0  0  0  0
   38.3580   23.9790   38.8550 H   0  0  0  0  0  0  0  0  0  0  0  0
   37.2070   25.1140   37.9310 H   0  0  0  0  0  0  0  0  0  0  0  0
   36.4020   23.1330   36.5440 H   0  0  0  0  0  0  0  0  0  0  0  0
   37.6710   22.0170   37.3470 H   0  0  0  0  0  0  0  0  0  0  0  0
   38.2400   24.8730   35.4610 C   0  0  0  0  0  0  0  0  0  0  0  0
   38.1480   26.2140   35.6520 C   0  0  0  0  0  0  0  0  0  0  0  0
   37.9100   27.0730   34.5930 C   0  0  0  0  0  0  0  0  0  0  0  0
   37.7640   26.5140   33.3240 C   0  0  0  0  0  0  0  0  0  0  0  0
   37.8570   25.1350   33.1240 C   0  0  0  0  0  0  0  0  0  0  0  0
   38.0920   24.3740   34.2120 N   0  0  0  0  0  0  0  0  0  0  0  0
   38.2110   26.7890   36.5530 H   0  0  0  0  0  0  0  0  0  0  0  0
   37.8190   28.1490   34.6210 H   0  0  0  0  0  0  0  0  0  0  0  0
   37.5770   27.0820   32.4240 H   0  0  0  0  0  0  0  0  0  0  0  0
   36.8280   23.8430   30.1570 H   0  0  0  0  0  0  0  0  0  0  0  0
   36.5020   24.3310   31.0820 C   0  0  0  0  0  0  0  0  0  0  0  0
   35.4290   24.7330   31.6270 O   0  0  0  0  0  0  0  0  0  0  0  0
   37.7120   24.5370   31.8390 N   0  0  0  0  0  0  0  0  0  0  0  0
   38.7150   24.3070   31.6330 H   0  0  0  0  0  0  0  0  0  0  0  0
   42.0390   23.3570   35.6360 C   0  0  0  0  0  0  0  0  0  0  0  0
   42.3800   22.2300   36.4070 C   0  0  0  0  0  0  0  0  0  0  0  0
   41.3910   21.6720   37.2540 C   0  0  0  0  0  0  0  0  0  0  0  0
   40.1730   22.2560   37.2750 N   0  0  0  0  0  0  0  0  0  0  0  0
   39.8640   23.3420   36.5240 C   0  0  0  0  0  0  0  0  0  0  0  0
   40.7880   23.8700   35.7250 N   0  0  0  0  0  0  0  0  0  0  0  0
   42.8230   23.7510   35.0030 H   0  0  0  0  0  0  0  0  0  0  0  0
   43.3610   21.7690   36.3850 H   0  0  0  0  0  0  0  0  0  0  0  0
   41.5970   20.8080   37.8670 H   0  0  0  0  0  0  0  0  0  0  0  0
  1  3  1  0  0  0  0
  1  2  1  0  0  0  0
  2  5  1  0  0  0  0
  2  4  1  0  0  0  0
  3  7  1  0  0  0  0
  3  2  1  0  0  0  0
  6  3  1  0  0  0  0
  8  9  1  0  0  0  0
  8  1  1  0  0  0  0
  9 14  1  0  0  0  0
 10 15  1  0  0  0  0
 10  9  2  0  0  0  0
 11 10  1  0  0  0  0
 12 11  2  0  0  0  0
 12 13  1  0  0  0  0
 13  8  2  0  0  0  0
 16 11  1  0  0  0  0
 17 18  1  0  0  0  0
 18 19  2  0  0  0  0
 18 20  1  0  0  0  0
 20 12  1  0  0  0  0
 21 20  1  0  0  0  0
 22 27  2  0  0  0  0
 22 23  1  0  0  0  0
 23 24  2  0  0  0  0
 24 25  1  0  0  0  0
 24 30  1  0  0  0  0
 26  1  1  0  0  0  0
 26 25  2  0  0  0  0
 27 26  1  0  0  0  0
 28 22  1  0  0  0  0
 29 23  1  0  0  0  0
M  END
>  <minimizedAffinity>
-4.98948193

$$$$

 OpenBabel03272505483D

 30 32  0  0  0  0  0  0  0  0999 V2000
   38.2740   26.6280   34.8670 C   0  0  0  0  0  0  0  0  0  0  0  0
   37.7720   27.7480   35.6900 C   0  0  0  0  0  0  0  0  0  0  0  0
   36.9730   27.2770   34.5070 C   0  0  0  0  0  0  0  0  0  0  0  0
   37.3640   27.5780   36.7000 H   0  0  0  0  0  0  0  0  0  0  0  0
   38.3440   28.7070   35.5880 H   0  0  0  0  0  0  0  0  0  0  0  0
   36.9340   27.9420   33.6070 H   0  0  0  0  0  0  0  0  0  0  0  0
   36.0570   26.6840   34.6770 H   0  0  0  0  0  0  0  0  0  0  0  0
   39.4460   26.8720   33.9600 C   0  0  0  0  0  0  0  0  0  0  0  0
   39.2820   27.0130   32.6200 C   0  0  0  0  0  0  0  0  0  0  0  0
   40.3630   27.2510   31.7880 C   0  0  0  0  0  0  0  0  0  0  0  0
   41.6250   27.3390   32.3730 C   0  0  0  0  0  0  0  0  0  0  0  0
   41.7980   27.1940   33.7520 C   0  0  0  0  0  0  0  0  0  0  0  0
   40.6890   26.9650   34.4850 N   0  0  0  0  0  0  0  0  0  0  0  0
   38.3960   26.9490   32.0220 H   0  0  0  0  0  0  0  0  0  0  0  0
   40.3570   27.3810   30.7160 H   0  0  0  0  0  0  0  0  0  0  0  0
   42.5400   27.5220   31.8280 H   0  0  0  0  0  0  0  0  0  0  0  0
   44.9380   26.7540   34.9670 H   0  0  0  0  0  0  0  0  0  0  0  0
   44.1350   26.3000   34.3750 C   0  0  0  0  0  0  0  0  0  0  0  0
   43.9030   25.2280   33.7380 O   0  0  0  0  0  0  0  0  0  0  0  0
   43.0750   27.2780   34.3760 N   0  0  0  0  0  0  0  0  0  0  0  0
   42.9990   28.2290   34.8140 H   0  0  0  0  0  0  0  0  0  0  0  0
   38.3430   22.9270   34.8830 C   0  0  0  0  0  0  0  0  0  0  0  0
   38.1400   22.6280   36.2440 C   0  0  0  0  0  0  0  0  0  0  0  0
   37.9750   23.7040   37.1500 C   0  0  0  0  0  0  0  0  0  0  0  0
   38.0230   24.9610   36.6540 N   0  0  0  0  0  0  0  0  0  0  0  0
   38.2200   25.2280   35.3400 C   0  0  0  0  0  0  0  0  0  0  0  0
   38.3740   24.2200   34.4840 N   0  0  0  0  0  0  0  0  0  0  0  0
   38.4640   22.0750   34.2270 H   0  0  0  0  0  0  0  0  0  0  0  0
   38.1040   21.6160   36.6330 H   0  0  0  0  0  0  0  0  0  0  0  0
   37.8160   23.5340   38.2030 H   0  0  0  0  0  0  0  0  0  0  0  0
  1 26  1  0  0  0  0
  1  2  1  0  0  0  0
  2  4  1  0  0  0  0
  3  7  1  0  0  0  0
  3  1  1  0  0  0  0
  3  2  1  0  0  0  0
  5  2  1  0  0  0  0
  6  3  1  0  0  0  0
  8 13  1  0  0  0  0
  8  1  1  0  0  0  0
  9  8  2  0  0  0  0
 10 11  2  0  0  0  0
 10  9  1  0  0  0  0
 11 12  1  0  0  0  0
 12 20  1  0  0  0  0
 12 13  2  0  0  0  0
 14  9  1  0  0  0  0
 15 10  1  0  0  0  0
 16 11  1  0  0  0  0
 18 20  1  0  0  0  0
 18 17  1  0  0  0  0
 19 18  2  0  0  0  0
 20 21  1  0  0  0  0
 22 23  1  0  0  0  0
 23 29  1  0  0  0  0
 23 24  2  0  0  0  0
 24 30  1  0  0  0  0
 25 24  1  0  0  0  0
 26 25  2  0  0  0  0
 27 22  2  0  0  0  0
 27 26  1  0  0  0  0
 28 22  1  0  0  0  0
M  END
>  <minimizedAffinity>
-4.89194822

$$$$

 OpenBabel03272505483D

 30 32  0  0  0  0  0  0  0  0999 V2000
   38.6890   23.2370   36.4920 C   0  0  0  0  0  0  0  0  0  0  0  0
   38.8620   22.9940   37.9400 C   0  0  0  0  0  0  0  0  0  0  0  0
   39.9460   22.5870   36.9820 C   0  0  0  0  0  0  0  0  0  0  0  0
   39.0630   23.8220   38.6390 H   0  0  0  0  0  0  0  0  0  0  0  0
   38.2110   22.1880   38.3680 H   0  0  0  0  0  0  0  0  0  0  0  0
   40.0940   21.4920   36.7970 H   0  0  0  0  0  0  0  0  0  0  0  0
   40.8720   23.1880   36.9280 H   0  0  0  0  0  0  0  0  0  0  0  0
   37.7160   22.3830   35.7320 C   0  0  0  0  0  0  0  0  0  0  0  0
   36.7410   21.6870   36.3710 C   0  0  0  0  0  0  0  0  0  0  0  0
   35.8370   20.9110   35.6660 C   0  0  0  0  0  0  0  0  0  0  0  0
   35.9630   20.8660   34.2790 C   0  0  0  0  0  0  0  0  0  0  0  0
   36.9670   21.5790   33.6180 C   0  0  0  0  0  0  0  0  0  0  0  0
   37.8020   22.3090   34.3840 N   0  0  0  0  0  0  0  0  0  0  0  0
   36.5270   21.5990   37.4160 H   0  0  0  0  0  0  0  0  0  0  0  0
   35.0230   20.3200   36.0600 H   0  0  0  0  0  0  0  0  0  0  0  0
   35.3190   20.2970   33.6240 H   0  0  0  0  0  0  0  0  0  0  0  0
   37.5980   20.8690   30.3580 H   0  0  0  0  0  0  0  0  0  0  0  0
   37.6570   20.4910   31.3850 C   0  0  0  0  0  0  0  0  0  0  0  0
   38.0420   19.4520   32.0010 O   0  0  0  0  0  0  0  0  0  0  0  0
   37.1200   21.5500   32.2030 N   0  0  0  0  0  0  0  0  0  0  0  0
   36.7380   22.4970   31.9610 H   0  0  0  0  0  0  0  0  0  0  0  0
   37.8920   26.7090   35.4850 C   0  0  0  0  0  0  0  0  0  0  0  0
   39.0760   27.1150   34.8390 C   0  0  0  0  0  0  0  0  0  0  0  0
   40.1420   26.1860   34.7480 C   0  0  0  0  0  0  0  0  0  0  0  0
   39.9620   24.9610   35.2900 N   0  0  0  0  0  0  0  0  0  0  0  0
   38.8140   24.5900   35.9090 C   0  0  0  0  0  0  0  0  0  0  0  0
   37.8080   25.4580   35.9960 N   0  0  0  0  0  0  0  0  0  0  0  0
   37.1040   27.4490   35.5320 H   0  0  0  0  0  0  0  0  0  0  0  0
   39.2110   28.1000   34.4080 H   0  0  0  0  0  0  0  0  0  0  0  0
   41.0710   26.4420   34.2640 H   0  0  0  0  0  0  0  0  0  0  0  0
  1  3  1  0  0  0  0
  1  2  1  0  0  0  0
  2  5  1  0  0  0  0
  2  4  1  0  0  0  0
  3  2  1  0  0  0  0
  6  3  1  0  0  0  0
  7  3  1  0  0  0  0
  8  9  1  0  0  0  0
  8  1  1  0  0  0  0
  9 14  1  0  0  0  0
 10 15  1  0  0  0  0
 10  9  2  0  0  0  0
 11 10  1  0  0  0  0
 12 11  2  0  0  0  0
 12 13  1  0  0  0  0
 13  8  2  0  0  0  0
 16 11  1  0  0  0  0
 17 18  1  0  0  0  0
 18 19  2  0  0  0  0
 18 20  1  0  0  0  0
 20 12  1  0  0  0  0
 21 20  1  0  0  0  0
 22 28  1  0  0  0  0
 22 27  1  0  0  0  0
 23 22  2  0  0  0  0
 24 23  1  0  0  0  0
 24 25  2  0  0  0  0
 25 26  1  0  0  0  0
 26 27  2  0  0  0  0
 26  1  1  0  0  0  0
 29 23  1  0  0  0  0
 30 24  1  0  0  0  0
M  END
>  <minimizedAffinity>
-4.85927534

$$$$

 OpenBabel03272505483D

 30 32  0  0  0  0  0  0  0  0999 V2000
   35.0020   29.9750   34.0340 C   0  0  0  0  0  0  0  0  0  0  0  0
   35.6530   30.8480   35.0340 C   0  0  0  0  0  0  0  0  0  0  0  0
   35.2150   31.4230   33.7170 C   0  0  0  0  0  0  0  0  0  0  0  0
   35.1240   31.1660   35.9470 H   0  0  0  0  0  0  0  0  0  0  0  0
   36.7470   30.6610   35.1860 H   0  0  0  0  0  0  0  0  0  0  0  0
   36.0110   31.7010   32.9790 H   0  0  0  0  0  0  0  0  0  0  0  0
   34.3160   32.0640   33.6800 H   0  0  0  0  0  0  0  0  0  0  0  0
   35.8430   28.9720   33.3000 C   0  0  0  0  0  0  0  0  0  0  0  0
   36.5650   28.0360   33.9670 C   0  0  0  0  0  0  0  0  0  0  0  0
   37.3290   27.1030   33.2880 C   0  0  0  0  0  0  0  0  0  0  0  0
   37.3340   27.1590   31.8950 C   0  0  0  0  0  0  0  0  0  0  0  0
   36.5930   28.1220   31.2050 C   0  0  0  0  0  0  0  0  0  0  0  0
   35.8770   28.9890   31.9480 N   0  0  0  0  0  0  0  0  0  0  0  0
   36.6850   27.8770   35.0190 H   0  0  0  0  0  0  0  0  0  0  0  0
   37.9390   26.3160   33.7050 H   0  0  0  0  0  0  0  0  0  0  0  0
   37.8900   26.4860   31.2580 H   0  0  0  0  0  0  0  0  0  0  0  0
   37.2040   28.5900   27.8980 H   0  0  0  0  0  0  0  0  0  0  0  0
   37.6110   28.7050   28.9090 C   0  0  0  0  0  0  0  0  0  0  0  0
   38.6630   29.1300   29.4750 O   0  0  0  0  0  0  0  0  0  0  0  0
   36.5800   28.2030   29.7830 N   0  0  0  0  0  0  0  0  0  0  0  0
   35.6300   27.8010   29.5880 H   0  0  0  0  0  0  0  0  0  0  0  0
   31.7770   29.0200   35.5830 C   0  0  0  0  0  0  0  0  0  0  0  0
   30.9900   28.6940   34.4620 C   0  0  0  0  0  0  0  0  0  0  0  0
   31.5760   28.8000   33.1770 C   0  0  0  0  0  0  0  0  0  0  0  0
   32.8620   29.2100   33.0990 N   0  0  0  0  0  0  0  0  0  0  0  0
   33.6030   29.5200   34.1910 C   0  0  0  0  0  0  0  0  0  0  0  0
   33.0580   29.4210   35.4020 N   0  0  0  0  0  0  0  0  0  0  0  0
   31.2900   28.9250   36.5450 H   0  0  0  0  0  0  0  0  0  0  0  0
   29.9590   28.3670   34.5340 H   0  0  0  0  0  0  0  0  0  0  0  0
   31.0200   28.5630   32.2830 H   0  0  0  0  0  0  0  0  0  0  0  0
  1 26  1  0  0  0  0
  1  2  1  0  0  0  0
  2  5  1  0  0  0  0
  2  4  1  0  0  0  0
  3  1  1  0  0  0  0
  3  2  1  0  0  0  0
  6  3  1  0  0  0  0
  7  3  1  0  0  0  0
  8  9  1  0  0  0  0
  8  1  1  0  0  0  0
  9 14  1  0  0  0  0
 10 15  1  0  0  0  0
 10  9  2  0  0  0  0
 11 10  1  0  0  0  0
 12 11  2  0  0  0  0
 12 13  1  0  0  0  0
 13  8  2  0  0  0  0
 16 11  1  0  0  0  0
 17 18  1  0  0  0  0
 18 19  2  0  0  0  0
 18 20  1  0  0  0  0
 20 12  1  0  0  0  0
 21 20  1  0  0  0  0
 22 28  1  0  0  0  0
 23 29  1  0  0  0  0
 23 22  2  0  0  0  0
 24 23  1  0  0  0  0
 25 24  2  0  0  0  0
 25 26  1  0  0  0  0
 26 27  2  0  0  0  0
 27 22  1  0  0  0  0
 30 24  1  0  0  0  0
M  END
>  <minimizedAffinity>
-4.8318696

$$$$

 OpenBabel03272505483D

 30 32  0  0  0  0  0  0  0  0999 V2000
   38.6370   25.6290   33.1880 C   0  0  0  0  0  0  0  0  0  0  0  0
   39.5180   26.7880   32.9350 C   0  0  0  0  0  0  0  0  0  0  0  0
   39.9290   25.4220   32.4600 C   0  0  0  0  0  0  0  0  0  0  0  0
   39.2600   27.5500   32.1820 H   0  0  0  0  0  0  0  0  0  0  0  0
   40.0300   27.2020   33.8420 H   0  0  0  0  0  0  0  0  0  0  0  0
   40.7730   24.9160   32.9950 H   0  0  0  0  0  0  0  0  0  0  0  0
   39.8620   25.1830   31.3830 H   0  0  0  0  0  0  0  0  0  0  0  0
   38.5350   25.0960   34.5880 C   0  0  0  0  0  0  0  0  0  0  0  0
   37.9270   25.8080   35.5700 C   0  0  0  0  0  0  0  0  0  0  0  0
   37.8230   25.3090   36.8570 C   0  0  0  0  0  0  0  0  0  0  0  0
   38.3660   24.0500   37.1100 C   0  0  0  0  0  0  0  0  0  0  0  0
   38.9930   23.3140   36.1020 C   0  0  0  0  0  0  0  0  0  0  0  0
   39.0480   23.8780   34.8790 N   0  0  0  0  0  0  0  0  0  0  0  0
   37.4880   26.7840   35.5450 H   0  0  0  0  0  0  0  0  0  0  0  0
   37.3640   25.7770   37.7140 H   0  0  0  0  0  0  0  0  0  0  0  0
   38.3450   23.5570   38.0720 H   0  0  0  0  0  0  0  0  0  0  0  0
   40.8490   20.6060   36.9700 H   0  0  0  0  0  0  0  0  0  0  0  0
   40.7850   21.7000   37.0140 C   0  0  0  0  0  0  0  0  0  0  0  0
   41.4490   22.6800   37.4670 O   0  0  0  0  0  0  0  0  0  0  0  0
   39.5570   22.0270   36.3320 N   0  0  0  0  0  0  0  0  0  0  0  0
   38.8310   21.4270   35.8700 H   0  0  0  0  0  0  0  0  0  0  0  0
   35.7750   23.9550   31.5400 C   0  0  0  0  0  0  0  0  0  0  0  0
   35.0540   25.0430   31.0100 C   0  0  0  0  0  0  0  0  0  0  0  0
   35.5620   26.3480   31.2180 C   0  0  0  0  0  0  0  0  0  0  0  0
   36.7120   26.4770   31.9170 N   0  0  0  0  0  0  0  0  0  0  0  0
   37.3900   25.4160   32.4200 C   0  0  0  0  0  0  0  0  0  0  0  0
   36.9190   24.1870   32.2270 N   0  0  0  0  0  0  0  0  0  0  0  0
   35.3510   22.9760   31.3580 H   0  0  0  0  0  0  0  0  0  0  0  0
   34.1320   24.9300   30.4510 H   0  0  0  0  0  0  0  0  0  0  0  0
   35.0530   27.2180   30.8340 H   0  0  0  0  0  0  0  0  0  0  0  0
  1  8  1  0  0  0  0
  2  1  1  0  0  0  0
  2  5  1  0  0  0  0
  3  2  1  0  0  0  0
  3  6  1  0  0  0  0
  3  1  1  0  0  0  0
  4  2  1  0  0  0  0
  7  3  1  0  0  0  0
  8 13  2  0  0  0  0
  8  9  1  0  0  0  0
  9 10  2  0  0  0  0
 10 11  1  0  0  0  0
 10 15  1  0  0  0  0
 11 16  1  0  0  0  0
 12 20  1  0  0  0  0
 12 11  2  0  0  0  0
 13 12  1  0  0  0  0
 14  9  1  0  0  0  0
 17 18  1  0  0  0  0
 18 19  2  0  0  0  0
 20 18  1  0  0  0  0
 21 20  1  0  0  0  0
 22 27  1  0  0  0  0
 23 24  1  0  0  0  0
 23 22  2  0  0  0  0
 24 25  2  0  0  0  0
 25 26  1  0  0  0  0
 26  1  1  0  0  0  0
 27 26  2  0  0  0  0
 28 22  1  0  0  0  0
 29 23  1  0  0  0  0
 30 24  1  0  0  0  0
M  END
>  <minimizedAffinity>
-4.8032546

$$$$

 OpenBabel03272505483D

 30 32  0  0  0  0  0  0  0  0999 V2000
   38.4590   23.4230   36.5890 C   0  0  0  0  0  0  0  0  0  0  0  0
   39.4990   22.9790   37.5430 C   0  0  0  0  0  0  0  0  0  0  0  0
   38.2670   23.6730   38.0530 C   0  0  0  0  0  0  0  0  0  0  0  0
   39.6380   21.9130   37.7830 H   0  0  0  0  0  0  0  0  0  0  0  0
   40.4540   23.5650   37.5100 H   0  0  0  0  0  0  0  0  0  0  0  0
   38.3800   24.7190   38.4400 H   0  0  0  0  0  0  0  0  0  0  0  0
   37.4860   23.0800   38.5630 H   0  0  0  0  0  0  0  0  0  0  0  0
   38.7460   24.6070   35.7140 C   0  0  0  0  0  0  0  0  0  0  0  0
   40.0180   24.9560   35.3940 C   0  0  0  0  0  0  0  0  0  0  0  0
   40.2790   26.0410   34.5750 C   0  0  0  0  0  0  0  0  0  0  0  0
   39.1910   26.7660   34.0920 C   0  0  0  0  0  0  0  0  0  0  0  0
   37.8800   26.4110   34.4190 C   0  0  0  0  0  0  0  0  0  0  0  0
   37.7200   25.3400   35.2220 N   0  0  0  0  0  0  0  0  0  0  0  0
   40.9490   24.5240   35.6980 H   0  0  0  0  0  0  0  0  0  0  0  0
   41.2410   26.4110   34.2520 H   0  0  0  0  0  0  0  0  0  0  0  0
   39.2690   27.6290   33.4460 H   0  0  0  0  0  0  0  0  0  0  0  0
   35.3790   28.6100   33.7570 H   0  0  0  0  0  0  0  0  0  0  0  0
   36.2630   28.4190   34.3750 C   0  0  0  0  0  0  0  0  0  0  0  0
   36.9240   28.9810   35.3010 O   0  0  0  0  0  0  0  0  0  0  0  0
   36.7500   27.1330   33.9410 N   0  0  0  0  0  0  0  0  0  0  0  0
   36.4040   26.4640   33.2110 H   0  0  0  0  0  0  0  0  0  0  0  0
   35.6900   21.0170   36.0860 C   0  0  0  0  0  0  0  0  0  0  0  0
   35.8100   20.7020   34.7180 C   0  0  0  0  0  0  0  0  0  0  0  0
   36.8490   21.3160   33.9770 C   0  0  0  0  0  0  0  0  0  0  0  0
   37.6690   22.1740   34.6260 N   0  0  0  0  0  0  0  0  0  0  0  0
   37.5360   22.4640   35.9440 C   0  0  0  0  0  0  0  0  0  0  0  0
   36.5620   21.8890   36.6460 N   0  0  0  0  0  0  0  0  0  0  0  0
   34.8830   20.5260   36.6130 H   0  0  0  0  0  0  0  0  0  0  0  0
   35.1480   20.0140   34.2050 H   0  0  0  0  0  0  0  0  0  0  0  0
   36.9890   21.1120   32.9270 H   0  0  0  0  0  0  0  0  0  0  0  0
  1  2  1  0  0  0  0
  1  3  1  0  0  0  0
  2  4  1  0  0  0  0
  2  3  1  0  0  0  0
  3  6  1  0  0  0  0
  3  7  1  0  0  0  0
  5  2  1  0  0  0  0
  8  1  1  0  0  0  0
  9 14  1  0  0  0  0
  9  8  1  0  0  0  0
 10  9  2  0  0  0  0
 11 12  2  0  0  0  0
 11 10  1  0  0  0  0
 12 13  1  0  0  0  0
 13  8  2  0  0  0  0
 15 10  1  0  0  0  0
 16 11  1  0  0  0  0
 17 18  1  0  0  0  0
 18 19  2  0  0  0  0
 20 18  1  0  0  0  0
 20 12  1  0  0  0  0
 21 20  1  0  0  0  0
 22 28  1  0  0  0  0
 22 27  1  0  0  0  0
 23 22  2  0  0  0  0
 24 25  2  0  0  0  0
 24 23  1  0  0  0  0
 25 26  1  0  0  0  0
 26  1  1  0  0  0  0
 26 27  2  0  0  0  0
 29 23  1  0  0  0  0
 30 24  1  0  0  0  0
M  END
>  <minimizedAffinity>
-4.79330635

$$$$
