
 OpenBabel03272510093D

 23 24  0  0  0  0  0  0  0  0999 V2000
   37.6010   31.2600   48.7000 C   0  0  0  0  0  0  0  0  0  0  0  0
   38.1420   32.4910   48.9850 C   0  0  0  0  0  0  0  0  0  0  0  0
   38.9770   33.2110   48.1520 C   0  0  0  0  0  0  0  0  0  0  0  0
   39.3060   32.6600   46.9270 C   0  0  0  0  0  0  0  0  0  0  0  0
   38.7580   31.4190   46.6440 C   0  0  0  0  0  0  0  0  0  0  0  0
   37.9560   30.7790   47.4980 N   0  0  0  0  0  0  0  0  0  0  0  0
   37.9150   32.9680   49.9370 H   0  0  0  0  0  0  0  0  0  0  0  0
   39.3670   34.1700   48.4370 H   0  0  0  0  0  0  0  0  0  0  0  0
   39.0260   31.0010   45.6760 H   0  0  0  0  0  0  0  0  0  0  0  0
   37.1380   30.0650   50.8630 C   0  0  0  0  0  0  0  0  0  0  0  0
   36.7260   30.5340   49.6020 C   0  0  0  0  0  0  0  0  0  0  0  0
   35.4260   30.2950   49.1960 C   0  0  0  0  0  0  0  0  0  0  0  0
   34.6170   29.6060   50.0670 N   0  0  0  0  0  0  0  0  0  0  0  0
   35.0350   29.1710   51.2610 C   0  0  0  0  0  0  0  0  0  0  0  0
   36.2880   29.3940   51.6660 N   0  0  0  0  0  0  0  0  0  0  0  0
   38.1710   30.3130   51.0640 H   0  0  0  0  0  0  0  0  0  0  0  0
   34.9910   30.6050   48.2530 H   0  0  0  0  0  0  0  0  0  0  0  0
   34.3830   28.6310   51.9320 H   0  0  0  0  0  0  0  0  0  0  0  0
   40.9080   34.2600   44.2790 H   0  0  0  0  0  0  0  0  0  0  0  0
   40.1060   33.6420   44.6770 C   0  0  0  0  0  0  0  0  0  0  0  0
   39.2030   33.1820   43.9330 O   0  0  0  0  0  0  0  0  0  0  0  0
   40.1660   33.4070   46.0740 N   0  0  0  0  0  0  0  0  0  0  0  0
   40.9070   33.7780   46.7110 H   0  0  0  0  0  0  0  0  0  0  0  0
  1  2  1  0  0  0  0
  1 11  1  0  0  0  0
  2  7  1  0  0  0  0
  3  8  1  0  0  0  0
  3  2  2  0  0  0  0
  4  3  1  0  0  0  0
  5  4  2  0  0  0  0
  5  6  1  0  0  0  0
  6  1  2  0  0  0  0
  9  5  1  0  0  0  0
 10 16  1  0  0  0  0
 10 15  1  0  0  0  0
 11 10  2  0  0  0  0
 12 11  1  0  0  0  0
 12 13  2  0  0  0  0
 13 14  1  0  0  0  0
 14 15  2  0  0  0  0
 14 18  1  0  0  0  0
 17 12  1  0  0  0  0
 19 20  1  0  0  0  0
 20 22  1  0  0  0  0
 21 20  2  0  0  0  0
 22 23  1  0  0  0  0
 22  4  1  0  0  0  0
M  END
>  <minimizedAffinity>
-5.01433325

>  <minimizedRMSD>
1.15715945

$$$$
