
 OpenBabel03272505473D

 30 32  0  0  0  0  0  0  0  0999 V2000
   37.2050   30.7600   45.1260 C   0  0  0  0  0  0  0  0  0  0  0  0
   36.8450   29.7450   44.1130 C   0  0  0  0  0  0  0  0  0  0  0  0
   36.2720   31.1310   44.0150 C   0  0  0  0  0  0  0  0  0  0  0  0
   37.5670   29.4210   43.3460 H   0  0  0  0  0  0  0  0  0  0  0  0
   36.1750   28.9260   44.4800 H   0  0  0  0  0  0  0  0  0  0  0  0
   35.1840   31.2630   44.2480 H   0  0  0  0  0  0  0  0  0  0  0  0
   36.6610   31.8230   43.2470 H   0  0  0  0  0  0  0  0  0  0  0  0
   36.6280   30.6340   46.5060 C   0  0  0  0  0  0  0  0  0  0  0  0
   37.3260   31.0320   47.6000 C   0  0  0  0  0  0  0  0  0  0  0  0
   36.7860   30.9270   48.8710 C   0  0  0  0  0  0  0  0  0  0  0  0
   35.5020   30.3960   48.9880 C   0  0  0  0  0  0  0  0  0  0  0  0
   34.7810   29.9850   47.8640 C   0  0  0  0  0  0  0  0  0  0  0  0
   35.3850   30.1240   46.6670 N   0  0  0  0  0  0  0  0  0  0  0  0
   38.3160   31.4310   47.6800 H   0  0  0  0  0  0  0  0  0  0  0  0
   37.2400   31.2100   49.8090 H   0  0  0  0  0  0  0  0  0  0  0  0
   34.9780   30.2660   49.9240 H   0  0  0  0  0  0  0  0  0  0  0  0
   31.9870   28.1090   48.3140 H   0  0  0  0  0  0  0  0  0  0  0  0
   33.0790   28.1230   48.4000 C   0  0  0  0  0  0  0  0  0  0  0  0
   34.0220   27.3530   48.7560 O   0  0  0  0  0  0  0  0  0  0  0  0
   33.4700   29.4380   47.9550 N   0  0  0  0  0  0  0  0  0  0  0  0
   32.9090   30.2560   47.6120 H   0  0  0  0  0  0  0  0  0  0  0  0
   39.8380   33.3570   44.9380 C   0  0  0  0  0  0  0  0  0  0  0  0
   41.0100   32.6150   45.1840 C   0  0  0  0  0  0  0  0  0  0  0  0
   40.8880   31.2220   45.4080 C   0  0  0  0  0  0  0  0  0  0  0  0
   39.6490   30.6820   45.3740 N   0  0  0  0  0  0  0  0  0  0  0  0
   38.5320   31.4130   45.1360 C   0  0  0  0  0  0  0  0  0  0  0  0
   38.6410   32.7230   44.9240 N   0  0  0  0  0  0  0  0  0  0  0  0
   39.9770   34.4170   44.7730 H   0  0  0  0  0  0  0  0  0  0  0  0
   41.9990   33.0580   45.2100 H   0  0  0  0  0  0  0  0  0  0  0  0
   41.7510   30.6050   45.6000 H   0  0  0  0  0  0  0  0  0  0  0  0
  1 26  1  0  0  0  0
  1  8  1  0  0  0  0
  2  5  1  0  0  0  0
  2  1  1  0  0  0  0
  3  2  1  0  0  0  0
  3  6  1  0  0  0  0
  3  1  1  0  0  0  0
  4  2  1  0  0  0  0
  7  3  1  0  0  0  0
  8 13  2  0  0  0  0
  8  9  1  0  0  0  0
  9 14  1  0  0  0  0
  9 10  2  0  0  0  0
 10 11  1  0  0  0  0
 10 15  1  0  0  0  0
 11 16  1  0  0  0  0
 12 20  1  0  0  0  0
 12 11  2  0  0  0  0
 13 12  1  0  0  0  0
 17 18  1  0  0  0  0
 18 19  2  0  0  0  0
 20 18  1  0  0  0  0
 21 20  1  0  0  0  0
 22 23  1  0  0  0  0
 23 29  1  0  0  0  0
 23 24  2  0  0  0  0
 24 30  1  0  0  0  0
 25 24  1  0  0  0  0
 26 25  2  0  0  0  0
 27 22  2  0  0  0  0
 27 26  1  0  0  0  0
 28 22  1  0  0  0  0
M  END
>  <minimizedAffinity>
-5.32606316

>  <minimizedRMSD>
3.32806802

$$$$
