
 OpenBabel03272510003D

 17 17  0  0  0  0  0  0  0  0999 V2000
   38.4030   31.3410   50.1730 C   0  0  0  0  0  0  0  0  0  0  0  0
   38.4200   31.7800   48.8460 C   0  0  0  0  0  0  0  0  0  0  0  0
   37.3650   31.4060   48.0260 C   0  0  0  0  0  0  0  0  0  0  0  0
   36.3720   30.6330   48.5510 N   0  0  0  0  0  0  0  0  0  0  0  0
   36.3950   30.2330   49.8330 C   0  0  0  0  0  0  0  0  0  0  0  0
   37.4040   30.5820   50.6450 N   0  0  0  0  0  0  0  0  0  0  0  0
   39.2470   31.6590   50.7730 H   0  0  0  0  0  0  0  0  0  0  0  0
   39.1910   32.3930   48.3960 H   0  0  0  0  0  0  0  0  0  0  0  0
   38.0290   31.5100   44.6990 H   0  0  0  0  0  0  0  0  0  0  0  0
   38.1200   31.1630   45.7170 C   0  0  0  0  0  0  0  0  0  0  0  0
   38.8950   30.2330   46.1190 O   0  0  0  0  0  0  0  0  0  0  0  0
   37.3010   31.8080   46.6640 N   0  0  0  0  0  0  0  0  0  0  0  0
   36.6430   32.5770   46.4110 H   0  0  0  0  0  0  0  0  0  0  0  0
   35.2680   29.3950   50.3110 C   0  0  0  0  0  0  0  0  0  0  0  0
   35.3500   29.1100   51.6640 F   0  0  0  0  0  0  0  0  0  0  0  0
   34.0460   30.0660   50.1360 F   0  0  0  0  0  0  0  0  0  0  0  0
   35.1320   28.2110   49.6470 F   0  0  0  0  0  0  0  0  0  0  0  0
  1  6  1  0  0  0  0
  1  7  1  0  0  0  0
  2  1  2  0  0  0  0
  3  4  2  0  0  0  0
  3  2  1  0  0  0  0
  4  5  1  0  0  0  0
  5 14  1  0  0  0  0
  5  6  2  0  0  0  0
  8  2  1  0  0  0  0
  9 10  1  0  0  0  0
 10 11  2  0  0  0  0
 10 12  1  0  0  0  0
 12  3  1  0  0  0  0
 13 12  1  0  0  0  0
 14 15  1  0  0  0  0
 16 14  1  0  0  0  0
 17 14  1  0  0  0  0
M  END
>  <minimizedAffinity>
-4.58695555

>  <minimizedRMSD>
0.473097682

$$$$
