
 OpenBabel03272500363D

 17 17  0  0  0  0  0  0  0  0999 V2000
   38.2070   23.7760   36.9470 C   0  0  0  0  0  0  0  0  0  0  0  0
   38.4610   22.5870   36.2560 C   0  0  0  0  0  0  0  0  0  0  0  0
   38.4520   22.6400   34.8500 C   0  0  0  0  0  0  0  0  0  0  0  0
   38.2000   23.8350   34.2480 N   0  0  0  0  0  0  0  0  0  0  0  0
   37.9620   24.9540   34.9590 C   0  0  0  0  0  0  0  0  0  0  0  0
   37.9660   24.9220   36.3030 N   0  0  0  0  0  0  0  0  0  0  0  0
   38.6570   21.6490   36.7600 H   0  0  0  0  0  0  0  0  0  0  0  0
   38.6410   21.7490   34.2610 H   0  0  0  0  0  0  0  0  0  0  0  0
   37.9290   28.3190   34.6070 H   0  0  0  0  0  0  0  0  0  0  0  0
   38.1240   27.3580   35.0790 C   0  0  0  0  0  0  0  0  0  0  0  0
   38.6860   27.3810   36.2040 O   0  0  0  0  0  0  0  0  0  0  0  0
   37.6980   26.2070   34.3240 N   0  0  0  0  0  0  0  0  0  0  0  0
   37.2260   26.2460   33.3730 H   0  0  0  0  0  0  0  0  0  0  0  0
   38.2120   23.7400   38.4360 C   0  0  0  0  0  0  0  0  0  0  0  0
   37.9950   25.0180   38.9390 F   0  0  0  0  0  0  0  0  0  0  0  0
   37.3070   22.8200   38.8600 F   0  0  0  0  0  0  0  0  0  0  0  0
   39.5070   23.3830   38.8370 F   0  0  0  0  0  0  0  0  0  0  0  0
  1 14  1  0  0  0  0
  2  7  1  0  0  0  0
  2  1  2  0  0  0  0
  3  2  1  0  0  0  0
  4  3  2  0  0  0  0
  4  5  1  0  0  0  0
  5  6  2  0  0  0  0
  6  1  1  0  0  0  0
  8  3  1  0  0  0  0
  9 10  1  0  0  0  0
 10 11  2  0  0  0  0
 12  5  1  0  0  0  0
 12 10  1  0  0  0  0
 13 12  1  0  0  0  0
 14 17  1  0  0  0  0
 14 16  1  0  0  0  0
 14 15  1  0  0  0  0
M  END
>  <minimizedAffinity>
-4.55999899

$$$$

 OpenBabel03272500363D

 17 17  0  0  0  0  0  0  0  0999 V2000
   38.1130   23.5520   36.8790 C   0  0  0  0  0  0  0  0  0  0  0  0
   38.6670   24.6120   36.1550 C   0  0  0  0  0  0  0  0  0  0  0  0
   38.6100   24.5400   34.7520 C   0  0  0  0  0  0  0  0  0  0  0  0
   38.0230   23.4510   34.1820 N   0  0  0  0  0  0  0  0  0  0  0  0
   37.5020   22.4540   34.9240 C   0  0  0  0  0  0  0  0  0  0  0  0
   37.5480   22.5060   36.2660 N   0  0  0  0  0  0  0  0  0  0  0  0
   39.1290   25.4660   36.6330 H   0  0  0  0  0  0  0  0  0  0  0  0
   39.0250   25.3330   34.1380 H   0  0  0  0  0  0  0  0  0  0  0  0
   35.3580   19.8500   34.6660 H   0  0  0  0  0  0  0  0  0  0  0  0
   35.8360   20.7190   35.1110 C   0  0  0  0  0  0  0  0  0  0  0  0
   35.4140   21.0840   36.2400 O   0  0  0  0  0  0  0  0  0  0  0  0
   36.8860   21.3130   34.3230 N   0  0  0  0  0  0  0  0  0  0  0  0
   37.2020   20.9620   33.3720 H   0  0  0  0  0  0  0  0  0  0  0  0
   38.1640   23.6100   38.3660 C   0  0  0  0  0  0  0  0  0  0  0  0
   37.9560   24.9180   38.7930 F   0  0  0  0  0  0  0  0  0  0  0  0
   37.2780   22.7160   38.8760 F   0  0  0  0  0  0  0  0  0  0  0  0
   39.4730   23.2850   38.7470 F   0  0  0  0  0  0  0  0  0  0  0  0
  1 14  1  0  0  0  0
  2  7  1  0  0  0  0
  2  1  2  0  0  0  0
  3  2  1  0  0  0  0
  4  3  2  0  0  0  0
  4  5  1  0  0  0  0
  5  6  2  0  0  0  0
  6  1  1  0  0  0  0
  8  3  1  0  0  0  0
  9 10  1  0  0  0  0
 10 11  2  0  0  0  0
 12  5  1  0  0  0  0
 12 10  1  0  0  0  0
 13 12  1  0  0  0  0
 14 17  1  0  0  0  0
 14 15  1  0  0  0  0
 14 16  1  0  0  0  0
M  END
>  <minimizedAffinity>
-4.43065357

$$$$

 OpenBabel03272500363D

 17 17  0  0  0  0  0  0  0  0999 V2000
   38.7860   25.4370   35.0920 C   0  0  0  0  0  0  0  0  0  0  0  0
   38.3970   24.9110   33.8560 C   0  0  0  0  0  0  0  0  0  0  0  0
   38.0390   23.5510   33.8140 C   0  0  0  0  0  0  0  0  0  0  0  0
   38.0890   22.8310   34.9690 N   0  0  0  0  0  0  0  0  0  0  0  0
   38.4710   23.3850   36.1360 C   0  0  0  0  0  0  0  0  0  0  0  0
   38.8170   24.6820   36.1960 N   0  0  0  0  0  0  0  0  0  0  0  0
   38.3660   25.5050   32.9520 H   0  0  0  0  0  0  0  0  0  0  0  0
   37.7300   23.0880   32.8830 H   0  0  0  0  0  0  0  0  0  0  0  0
   38.3090   22.8280   39.4690 H   0  0  0  0  0  0  0  0  0  0  0  0
   38.2730   23.3930   38.5400 C   0  0  0  0  0  0  0  0  0  0  0  0
   38.0230   24.6230   38.6330 O   0  0  0  0  0  0  0  0  0  0  0  0
   38.5230   22.6260   37.3470 N   0  0  0  0  0  0  0  0  0  0  0  0
   38.7300   21.5850   37.3270 H   0  0  0  0  0  0  0  0  0  0  0  0
   39.1700   26.8750   35.1570 C   0  0  0  0  0  0  0  0  0  0  0  0
   40.5540   26.9940   35.1080 F   0  0  0  0  0  0  0  0  0  0  0  0
   38.5230   27.5500   34.1720 F   0  0  0  0  0  0  0  0  0  0  0  0
   38.7860   27.3480   36.4190 F   0  0  0  0  0  0  0  0  0  0  0  0
  1 14  1  0  0  0  0
  1  6  1  0  0  0  0
  2  1  2  0  0  0  0
  3  2  1  0  0  0  0
  3  4  2  0  0  0  0
  4  5  1  0  0  0  0
  5  6  2  0  0  0  0
  5 12  1  0  0  0  0
  7  2  1  0  0  0  0
  8  3  1  0  0  0  0
 10 11  2  0  0  0  0
 10  9  1  0  0  0  0
 12 10  1  0  0  0  0
 13 12  1  0  0  0  0
 14 17  1  0  0  0  0
 15 14  1  0  0  0  0
 16 14  1  0  0  0  0
M  END
>  <minimizedAffinity>
-4.41216707

$$$$

 OpenBabel03272500363D

 17 17  0  0  0  0  0  0  0  0999 V2000
   38.5960   24.1320   36.1100 C   0  0  0  0  0  0  0  0  0  0  0  0
   37.8220   24.7190   37.1160 C   0  0  0  0  0  0  0  0  0  0  0  0
   38.0170   24.2650   38.4330 C   0  0  0  0  0  0  0  0  0  0  0  0
   38.9420   23.2880   38.6510 N   0  0  0  0  0  0  0  0  0  0  0  0
   39.6640   22.7540   37.6470 C   0  0  0  0  0  0  0  0  0  0  0  0
   39.4900   23.1750   36.3830 N   0  0  0  0  0  0  0  0  0  0  0  0
   37.0940   25.4930   36.9140 H   0  0  0  0  0  0  0  0  0  0  0  0
   37.4450   24.6830   39.2540 H   0  0  0  0  0  0  0  0  0  0  0  0
   42.4830   20.9590   37.1210 H   0  0  0  0  0  0  0  0  0  0  0  0
   41.7370   21.7340   36.9550 C   0  0  0  0  0  0  0  0  0  0  0  0
   41.9380   22.5180   35.9920 O   0  0  0  0  0  0  0  0  0  0  0  0
   40.6320   21.7290   37.8800 N   0  0  0  0  0  0  0  0  0  0  0  0
   40.5140   21.0400   38.6790 H   0  0  0  0  0  0  0  0  0  0  0  0
   38.4030   24.5990   34.7090 C   0  0  0  0  0  0  0  0  0  0  0  0
   37.4500   25.6110   34.6780 F   0  0  0  0  0  0  0  0  0  0  0  0
   39.6060   24.9580   34.1920 F   0  0  0  0  0  0  0  0  0  0  0  0
   37.8530   23.5300   33.9890 F   0  0  0  0  0  0  0  0  0  0  0  0
  1  6  2  0  0  0  0
  1  2  1  0  0  0  0
  2  3  2  0  0  0  0
  3  4  1  0  0  0  0
  3  8  1  0  0  0  0
  5 12  1  0  0  0  0
  5  4  2  0  0  0  0
  6  5  1  0  0  0  0
  7  2  1  0  0  0  0
 10  9  1  0  0  0  0
 10 12  1  0  0  0  0
 11 10  2  0  0  0  0
 12 13  1  0  0  0  0
 14  1  1  0  0  0  0
 15 14  1  0  0  0  0
 16 14  1  0  0  0  0
 17 14  1  0  0  0  0
M  END
>  <minimizedAffinity>
-4.31163692

$$$$

 OpenBabel03272500363D

 17 17  0  0  0  0  0  0  0  0999 V2000
   39.2480   23.0880   37.3780 C   0  0  0  0  0  0  0  0  0  0  0  0
   40.4590   22.4590   37.6880 C   0  0  0  0  0  0  0  0  0  0  0  0
   41.1940   21.9080   36.6230 C   0  0  0  0  0  0  0  0  0  0  0  0
   40.6910   22.0190   35.3620 N   0  0  0  0  0  0  0  0  0  0  0  0
   39.5190   22.6360   35.1150 C   0  0  0  0  0  0  0  0  0  0  0  0
   38.8020   23.1670   36.1200 N   0  0  0  0  0  0  0  0  0  0  0  0
   40.8350   22.3840   38.6990 H   0  0  0  0  0  0  0  0  0  0  0  0
   42.1390   21.4080   36.8020 H   0  0  0  0  0  0  0  0  0  0  0  0
   37.7810   24.0230   32.5650 H   0  0  0  0  0  0  0  0  0  0  0  0
   38.1870   23.9230   33.5700 C   0  0  0  0  0  0  0  0  0  0  0  0
   37.9010   24.8320   34.3910 O   0  0  0  0  0  0  0  0  0  0  0  0
   38.9930   22.7500   33.7900 N   0  0  0  0  0  0  0  0  0  0  0  0
   39.2030   22.0110   33.0570 H   0  0  0  0  0  0  0  0  0  0  0  0
   38.4550   23.6760   38.4930 C   0  0  0  0  0  0  0  0  0  0  0  0
   37.3470   22.8770   38.7550 F   0  0  0  0  0  0  0  0  0  0  0  0
   39.2670   23.8610   39.5650 F   0  0  0  0  0  0  0  0  0  0  0  0
   37.9470   24.9010   38.0370 F   0  0  0  0  0  0  0  0  0  0  0  0
  1  2  1  0  0  0  0
  1 14  1  0  0  0  0
  2  7  1  0  0  0  0
  3  8  1  0  0  0  0
  3  2  2  0  0  0  0
  4  3  1  0  0  0  0
  5  4  2  0  0  0  0
  5  6  1  0  0  0  0
  6  1  2  0  0  0  0
  9 10  1  0  0  0  0
 10 12  1  0  0  0  0
 10 11  2  0  0  0  0
 12  5  1  0  0  0  0
 13 12  1  0  0  0  0
 14 15  1  0  0  0  0
 14 16  1  0  0  0  0
 17 14  1  0  0  0  0
M  END
>  <minimizedAffinity>
-4.30459023

$$$$

 OpenBabel03272500363D

 17 17  0  0  0  0  0  0  0  0999 V2000
   38.1750   24.3420   36.8390 C   0  0  0  0  0  0  0  0  0  0  0  0
   38.2340   25.7180   36.5950 C   0  0  0  0  0  0  0  0  0  0  0  0
   38.2390   26.1390   35.2530 C   0  0  0  0  0  0  0  0  0  0  0  0
   38.1870   25.1910   34.2760 N   0  0  0  0  0  0  0  0  0  0  0  0
   38.1310   23.8760   34.5630 C   0  0  0  0  0  0  0  0  0  0  0  0
   38.1260   23.4560   35.8390 N   0  0  0  0  0  0  0  0  0  0  0  0
   38.2750   26.4510   37.3910 H   0  0  0  0  0  0  0  0  0  0  0  0
   38.2840   27.1940   35.0030 H   0  0  0  0  0  0  0  0  0  0  0  0
   37.3200   20.9210   33.1310 H   0  0  0  0  0  0  0  0  0  0  0  0
   37.3700   21.6840   33.9040 C   0  0  0  0  0  0  0  0  0  0  0  0
   36.8120   21.4200   35.0000 O   0  0  0  0  0  0  0  0  0  0  0  0
   38.0770   22.8840   33.5350 N   0  0  0  0  0  0  0  0  0  0  0  0
   38.5310   23.0550   32.5900 H   0  0  0  0  0  0  0  0  0  0  0  0
   38.1690   23.8780   38.2540 C   0  0  0  0  0  0  0  0  0  0  0  0
   37.9960   24.9640   39.1050 F   0  0  0  0  0  0  0  0  0  0  0  0
   37.2290   22.9090   38.3980 F   0  0  0  0  0  0  0  0  0  0  0  0
   39.4480   23.3730   38.5290 F   0  0  0  0  0  0  0  0  0  0  0  0
  1 14  1  0  0  0  0
  2  1  1  0  0  0  0
  2  7  1  0  0  0  0
  3  2  2  0  0  0  0
  4  5  2  0  0  0  0
  4  3  1  0  0  0  0
  5  6  1  0  0  0  0
  6  1  2  0  0  0  0
  8  3  1  0  0  0  0
  9 10  1  0  0  0  0
 10 11  2  0  0  0  0
 12 10  1  0  0  0  0
 12  5  1  0  0  0  0
 13 12  1  0  0  0  0
 14 16  1  0  0  0  0
 14 17  1  0  0  0  0
 14 15  1  0  0  0  0
M  END
>  <minimizedAffinity>
-4.26866913

$$$$

 OpenBabel03272500363D

 17 17  0  0  0  0  0  0  0  0999 V2000
   38.8450   23.5070   37.1460 C   0  0  0  0  0  0  0  0  0  0  0  0
   38.0050   23.7720   36.0590 C   0  0  0  0  0  0  0  0  0  0  0  0
   38.5080   23.5100   34.7720 C   0  0  0  0  0  0  0  0  0  0  0  0
   39.7730   23.0170   34.6580 N   0  0  0  0  0  0  0  0  0  0  0  0
   40.5430   22.7770   35.7370 C   0  0  0  0  0  0  0  0  0  0  0  0
   40.0790   23.0220   36.9740 N   0  0  0  0  0  0  0  0  0  0  0  0
   37.0040   24.1650   36.1770 H   0  0  0  0  0  0  0  0  0  0  0  0
   37.9030   23.6970   33.8910 H   0  0  0  0  0  0  0  0  0  0  0  0
   43.3060   21.0490   36.6450 H   0  0  0  0  0  0  0  0  0  0  0  0
   42.2980   21.4500   36.7260 C   0  0  0  0  0  0  0  0  0  0  0  0
   41.6510   21.1570   37.7650 O   0  0  0  0  0  0  0  0  0  0  0  0
   41.8700   22.2600   35.6140 N   0  0  0  0  0  0  0  0  0  0  0  0
   42.4600   22.4760   34.7580 H   0  0  0  0  0  0  0  0  0  0  0  0
   38.3300   23.7790   38.5170 C   0  0  0  0  0  0  0  0  0  0  0  0
   37.9410   25.1100   38.6170 F   0  0  0  0  0  0  0  0  0  0  0  0
   37.3430   22.8920   38.8020 F   0  0  0  0  0  0  0  0  0  0  0  0
   39.4070   23.6240   39.4000 F   0  0  0  0  0  0  0  0  0  0  0  0
  1 14  1  0  0  0  0
  2  7  1  0  0  0  0
  2  1  2  0  0  0  0
  3  2  1  0  0  0  0
  4  3  2  0  0  0  0
  4  5  1  0  0  0  0
  5  6  2  0  0  0  0
  6  1  1  0  0  0  0
  8  3  1  0  0  0  0
  9 10  1  0  0  0  0
 10 11  2  0  0  0  0
 12  5  1  0  0  0  0
 12 10  1  0  0  0  0
 13 12  1  0  0  0  0
 14 15  1  0  0  0  0
 14 16  1  0  0  0  0
 14 17  1  0  0  0  0
M  END
>  <minimizedAffinity>
-4.14232922

$$$$

 OpenBabel03272500363D

 17 17  0  0  0  0  0  0  0  0999 V2000
   39.1330   23.6440   36.8260 C   0  0  0  0  0  0  0  0  0  0  0  0
   40.0400   22.5800   36.8310 C   0  0  0  0  0  0  0  0  0  0  0  0
   41.0360   22.5720   35.8380 C   0  0  0  0  0  0  0  0  0  0  0  0
   41.0600   23.5930   34.9360 N   0  0  0  0  0  0  0  0  0  0  0  0
   40.1630   24.5980   34.9740 C   0  0  0  0  0  0  0  0  0  0  0  0
   39.2050   24.6210   35.9150 N   0  0  0  0  0  0  0  0  0  0  0  0
   39.9980   21.7800   37.5590 H   0  0  0  0  0  0  0  0  0  0  0  0
   41.7660   21.7710   35.7910 H   0  0  0  0  0  0  0  0  0  0  0  0
   39.7150   27.7460   33.8210 H   0  0  0  0  0  0  0  0  0  0  0  0
   39.6980   26.9230   34.5320 C   0  0  0  0  0  0  0  0  0  0  0  0
   39.2550   27.1740   35.6830 O   0  0  0  0  0  0  0  0  0  0  0  0
   40.1920   25.6670   34.0270 N   0  0  0  0  0  0  0  0  0  0  0  0
   40.5560   25.5110   33.0410 H   0  0  0  0  0  0  0  0  0  0  0  0
   38.0710   23.6690   37.8700 C   0  0  0  0  0  0  0  0  0  0  0  0
   37.9310   24.9600   38.3670 F   0  0  0  0  0  0  0  0  0  0  0  0
   36.9280   23.1510   37.3510 F   0  0  0  0  0  0  0  0  0  0  0  0
   38.5270   22.8900   38.9420 F   0  0  0  0  0  0  0  0  0  0  0  0
  1  2  1  0  0  0  0
  1 14  1  0  0  0  0
  2  7  1  0  0  0  0
  3  2  2  0  0  0  0
  4  5  2  0  0  0  0
  4  3  1  0  0  0  0
  5  6  1  0  0  0  0
  6  1  2  0  0  0  0
  8  3  1  0  0  0  0
  9 10  1  0  0  0  0
 10 11  2  0  0  0  0
 12 10  1  0  0  0  0
 12  5  1  0  0  0  0
 13 12  1  0  0  0  0
 14 15  1  0  0  0  0
 14 17  1  0  0  0  0
 16 14  1  0  0  0  0
M  END
>  <minimizedAffinity>
-3.98488021

$$$$

 OpenBabel03272500363D

 17 17  0  0  0  0  0  0  0  0999 V2000
   38.0120   26.0350   34.7360 C   0  0  0  0  0  0  0  0  0  0  0  0
   37.3240   26.5290   33.6230 C   0  0  0  0  0  0  0  0  0  0  0  0
   36.9610   25.6080   32.6240 C   0  0  0  0  0  0  0  0  0  0  0  0
   37.2970   24.2990   32.7960 N   0  0  0  0  0  0  0  0  0  0  0  0
   37.9610   23.8720   33.8890 C   0  0  0  0  0  0  0  0  0  0  0  0
   38.3160   24.7380   34.8520 N   0  0  0  0  0  0  0  0  0  0  0  0
   37.0700   27.5750   33.5110 H   0  0  0  0  0  0  0  0  0  0  0  0
   36.4270   25.9330   31.7380 H   0  0  0  0  0  0  0  0  0  0  0  0
   38.6380   21.0280   35.5910 H   0  0  0  0  0  0  0  0  0  0  0  0
   38.3720   22.0730   35.4410 C   0  0  0  0  0  0  0  0  0  0  0  0
   38.1570   22.7580   36.4740 O   0  0  0  0  0  0  0  0  0  0  0  0
   38.3110   22.4980   34.0660 N   0  0  0  0  0  0  0  0  0  0  0  0
   38.5030   21.8730   33.2290 H   0  0  0  0  0  0  0  0  0  0  0  0
   38.4050   26.9960   35.8040 C   0  0  0  0  0  0  0  0  0  0  0  0
   37.7120   28.1910   35.6400 F   0  0  0  0  0  0  0  0  0  0  0  0
   38.2190   26.4120   37.0160 F   0  0  0  0  0  0  0  0  0  0  0  0
   39.7580   27.3050   35.6050 F   0  0  0  0  0  0  0  0  0  0  0  0
  1  6  1  0  0  0  0
  1 14  1  0  0  0  0
  2  1  2  0  0  0  0
  3  4  2  0  0  0  0
  3  2  1  0  0  0  0
  4  5  1  0  0  0  0
  5 12  1  0  0  0  0
  5  6  2  0  0  0  0
  7  2  1  0  0  0  0
  8  3  1  0  0  0  0
 10  9  1  0  0  0  0
 10 11  2  0  0  0  0
 12 10  1  0  0  0  0
 13 12  1  0  0  0  0
 14 16  1  0  0  0  0
 15 14  1  0  0  0  0
 17 14  1  0  0  0  0
M  END
>  <minimizedAffinity>
-3.96456051

$$$$
