
 OpenBabel03272509153D

 40 42  0  0  1  0  0  0  0  0999 V2000
   37.6890   23.9330   32.3490 C   0  0  0  0  0  0  0  0  0  0  0  0
   38.0650   24.1780   33.6950 C   0  0  0  0  0  0  0  0  0  0  0  0
   38.0420   23.0870   34.5720 C   0  0  0  0  0  0  0  0  0  0  0  0
   37.6690   21.8740   34.1030 N   0  0  0  0  0  0  0  0  0  0  0  0
   37.3190   21.6800   32.8230 C   0  0  0  0  0  0  0  0  0  0  0  0
   37.3300   22.7000   31.9560 N   0  0  0  0  0  0  0  0  0  0  0  0
   37.6730   24.6770   31.5760 H   0  0  0  0  0  0  0  0  0  0  0  0
   37.0360   20.6780   32.5380 H   0  0  0  0  0  0  0  0  0  0  0  0
   38.4160   25.5300   34.0040 N   0  0  0  0  0  0  0  0  0  0  0  0
   39.6190   26.2860   34.3090 C   0  0  0  0  0  0  0  0  0  0  0  0
   39.1850   27.0460   35.5660 C   0  0  0  0  0  0  0  0  0  0  0  0
   37.6960   27.3090   35.3500 C   0  0  0  0  0  0  0  0  0  0  0  0
   37.3800   26.5880   34.0790 C   0  0  1  0  0  0  0  0  0  0  0  0
   39.9780   26.9220   33.5070 H   0  0  0  0  0  0  0  0  0  0  0  0
   40.3670   25.5510   34.6740 H   0  0  0  0  0  0  0  0  0  0  0  0
   39.7310   28.0210   35.5230 H   0  0  0  0  0  0  0  0  0  0  0  0
   39.3820   26.4860   36.4790 H   0  0  0  0  0  0  0  0  0  0  0  0
   37.5230   28.4070   35.2060 H   0  0  0  0  0  0  0  0  0  0  0  0
   37.0710   26.9680   36.1780 H   0  0  0  0  0  0  0  0  0  0  0  0
   36.3820   26.1630   34.0510 H   0  0  0  0  0  0  0  0  0  0  0  0
   36.6940   27.5620   31.8860 C   0  0  0  0  0  0  0  0  0  0  0  0
   35.7060   26.7940   31.7070 O   0  0  0  0  0  0  0  0  0  0  0  0
   37.6240   27.5030   32.9700 N   0  0  0  0  0  0  0  0  0  0  0  0
   36.8180   28.3340   31.1120 H   0  0  0  0  0  0  0  0  0  0  0  0
   38.4470   28.1340   32.9160 H   0  0  0  0  0  0  0  0  0  0  0  0
   38.4100   23.2220   35.9520 C   0  0  0  0  0  0  0  0  0  0  0  0
   37.5620   23.9030   36.8000 C   0  0  0  0  0  0  0  0  0  0  0  0
   37.8570   24.0680   38.1480 C   0  0  0  0  0  0  0  0  0  0  0  0
   39.0270   23.5340   38.6330 C   0  0  0  0  0  0  0  0  0  0  0  0
   39.9140   22.8440   37.8390 C   0  0  0  0  0  0  0  0  0  0  0  0
   39.5490   22.7210   36.5030 C   0  0  0  0  0  0  0  0  0  0  0  0
   36.6190   24.3540   36.4950 H   0  0  0  0  0  0  0  0  0  0  0  0
   37.1960   24.6000   38.8130 H   0  0  0  0  0  0  0  0  0  0  0  0
   39.2870   23.6430   39.6730 H   0  0  0  0  0  0  0  0  0  0  0  0
   40.8430   22.4100   38.1870 H   0  0  0  0  0  0  0  0  0  0  0  0
   42.4130   22.6130   34.6930 H   0  0  0  0  0  0  0  0  0  0  0  0
   41.5570   22.8650   35.3290 C   0  0  0  0  0  0  0  0  0  0  0  0
   41.8450   24.0620   35.6650 O   0  0  0  0  0  0  0  0  0  0  0  0
   40.4410   22.0240   35.6550 N   0  0  0  0  0  0  0  0  0  0  0  0
   40.5120   21.0960   35.2140 H   0  0  0  0  0  0  0  0  0  0  0  0
  1  2  1  0  0  0  0
  2  9  1  0  0  0  0
  2  3  2  0  0  0  0
  3 26  1  0  0  0  0
  4  3  1  0  0  0  0
  5  4  2  0  0  0  0
  6  1  2  0  0  0  0
  6  5  1  0  0  0  0
  7  1  1  0  0  0  0
  8  5  1  0  0  0  0
  9 13  1  0  0  0  0
  9 10  1  0  0  0  0
 10 15  1  0  0  0  0
 10 11  1  0  0  0  0
 11 17  1  0  0  0  0
 12 11  1  0  0  0  0
 12 19  1  0  0  0  0
 13 20  1  6  0  0  0
 13 12  1  0  0  0  0
 14 10  1  0  0  0  0
 16 11  1  0  0  0  0
 18 12  1  0  0  0  0
 21 23  1  0  0  0  0
 22 21  2  0  0  0  0
 23 13  1  0  0  0  0
 24 21  1  0  0  0  0
 25 23  1  0  0  0  0
 26 31  2  0  0  0  0
 26 27  1  0  0  0  0
 27 28  2  0  0  0  0
 28 29  1  0  0  0  0
 28 33  1  0  0  0  0
 29 34  1  0  0  0  0
 30 35  1  0  0  0  0
 30 29  2  0  0  0  0
 31 30  1  0  0  0  0
 32 27  1  0  0  0  0
 36 37  1  0  0  0  0
 37 39  1  0  0  0  0
 37 38  2  0  0  0  0
 39 31  1  0  0  0  0
 40 39  1  0  0  0  0
M  END
>  <minimizedAffinity>
-5.5868268

$$$$

 OpenBabel03272509153D

 40 42  0  0  1  0  0  0  0  0999 V2000
   37.2120   23.9010   32.4560 C   0  0  0  0  0  0  0  0  0  0  0  0
   38.2350   23.9940   33.4350 C   0  0  0  0  0  0  0  0  0  0  0  0
   38.5850   22.8150   34.1060 C   0  0  0  0  0  0  0  0  0  0  0  0
   37.9420   21.6660   33.7940 N   0  0  0  0  0  0  0  0  0  0  0  0
   36.9790   21.6170   32.8620 C   0  0  0  0  0  0  0  0  0  0  0  0
   36.6180   22.7230   32.2010 N   0  0  0  0  0  0  0  0  0  0  0  0
   36.8580   24.7240   31.8650 H   0  0  0  0  0  0  0  0  0  0  0  0
   36.5210   20.6560   32.6800 H   0  0  0  0  0  0  0  0  0  0  0  0
   38.7870   25.2990   33.6320 N   0  0  0  0  0  0  0  0  0  0  0  0
   40.0300   25.9960   33.3450 C   0  0  0  0  0  0  0  0  0  0  0  0
   40.3420   26.6260   34.7060 C   0  0  0  0  0  0  0  0  0  0  0  0
   38.9680   26.9380   35.2970 C   0  0  0  0  0  0  0  0  0  0  0  0
   38.0060   26.3620   34.3080 C   0  0  1  0  0  0  0  0  0  0  0  0
   39.9810   26.7060   32.5270 H   0  0  0  0  0  0  0  0  0  0  0  0
   40.8070   25.2110   33.2190 H   0  0  0  0  0  0  0  0  0  0  0  0
   40.8580   27.5890   34.4720 H   0  0  0  0  0  0  0  0  0  0  0  0
   40.9310   25.9690   35.3430 H   0  0  0  0  0  0  0  0  0  0  0  0
   38.8240   28.0480   35.3520 H   0  0  0  0  0  0  0  0  0  0  0  0
   38.8230   26.5230   36.2970 H   0  0  0  0  0  0  0  0  0  0  0  0
   37.1040   25.9620   34.7560 H   0  0  0  0  0  0  0  0  0  0  0  0
   36.6750   28.3280   33.5420 C   0  0  0  0  0  0  0  0  0  0  0  0
   35.8490   28.3050   34.4990 O   0  0  0  0  0  0  0  0  0  0  0  0
   37.7230   27.3850   33.3080 N   0  0  0  0  0  0  0  0  0  0  0  0
   36.5410   29.1680   32.8440 H   0  0  0  0  0  0  0  0  0  0  0  0
   38.2470   27.4780   32.4160 H   0  0  0  0  0  0  0  0  0  0  0  0
   39.6100   22.7950   35.1080 C   0  0  0  0  0  0  0  0  0  0  0  0
   40.9200   22.9860   34.7210 C   0  0  0  0  0  0  0  0  0  0  0  0
   41.9600   22.9810   35.6420 C   0  0  0  0  0  0  0  0  0  0  0  0
   41.6600   22.7790   36.9690 C   0  0  0  0  0  0  0  0  0  0  0  0
   40.3740   22.5830   37.4190 C   0  0  0  0  0  0  0  0  0  0  0  0
   39.3890   22.6020   36.4380 C   0  0  0  0  0  0  0  0  0  0  0  0
   41.2380   23.1520   33.6940 H   0  0  0  0  0  0  0  0  0  0  0  0
   42.9850   23.1300   35.3430 H   0  0  0  0  0  0  0  0  0  0  0  0
   42.4430   22.7690   37.7100 H   0  0  0  0  0  0  0  0  0  0  0  0
   40.1030   22.4220   38.4540 H   0  0  0  0  0  0  0  0  0  0  0  0
   36.5470   23.7550   37.8820 H   0  0  0  0  0  0  0  0  0  0  0  0
   37.5450   23.5980   37.4590 C   0  0  0  0  0  0  0  0  0  0  0  0
   38.0760   24.7420   37.6500 O   0  0  0  0  0  0  0  0  0  0  0  0
   38.0560   22.3960   36.8630 N   0  0  0  0  0  0  0  0  0  0  0  0
   37.3610   21.6360   36.8630 H   0  0  0  0  0  0  0  0  0  0  0  0
  1  2  1  0  0  0  0
  2  9  1  0  0  0  0
  2  3  2  0  0  0  0
  3 26  1  0  0  0  0
  4  3  1  0  0  0  0
  5  4  2  0  0  0  0
  6  1  2  0  0  0  0
  6  5  1  0  0  0  0
  7  1  1  0  0  0  0
  8  5  1  0  0  0  0
  9 13  1  0  0  0  0
 10  9  1  0  0  0  0
 10 11  1  0  0  0  0
 11 12  1  0  0  0  0
 11 17  1  0  0  0  0
 12 18  1  0  0  0  0
 12 19  1  0  0  0  0
 13 20  1  1  0  0  0
 13 12  1  0  0  0  0
 14 10  1  0  0  0  0
 15 10  1  0  0  0  0
 16 11  1  0  0  0  0
 21 22  2  0  0  0  0
 23 21  1  0  0  0  0
 23 13  1  0  0  0  0
 24 21  1  0  0  0  0
 25 23  1  0  0  0  0
 26 31  1  0  0  0  0
 27 26  2  0  0  0  0
 27 28  1  0  0  0  0
 28 29  2  0  0  0  0
 29 30  1  0  0  0  0
 29 34  1  0  0  0  0
 30 35  1  0  0  0  0
 31 39  1  0  0  0  0
 31 30  2  0  0  0  0
 32 27  1  0  0  0  0
 33 28  1  0  0  0  0
 37 38  2  0  0  0  0
 37 36  1  0  0  0  0
 39 40  1  0  0  0  0
 39 37  1  0  0  0  0
M  END
>  <minimizedAffinity>
-5.30678654

$$$$

 OpenBabel03272509153D

 40 42  0  0  1  0  0  0  0  0999 V2000
   40.6650   22.1080   33.8100 C   0  0  0  0  0  0  0  0  0  0  0  0
   39.8620   23.1250   34.3890 C   0  0  0  0  0  0  0  0  0  0  0  0
   39.8110   24.3550   33.7200 C   0  0  0  0  0  0  0  0  0  0  0  0
   40.5170   24.5110   32.5760 N   0  0  0  0  0  0  0  0  0  0  0  0
   41.2660   23.5260   32.0590 C   0  0  0  0  0  0  0  0  0  0  0  0
   41.3380   22.3370   32.6710 N   0  0  0  0  0  0  0  0  0  0  0  0
   40.7810   21.1210   34.2140 H   0  0  0  0  0  0  0  0  0  0  0  0
   41.7950   23.7410   31.1430 H   0  0  0  0  0  0  0  0  0  0  0  0
   39.2000   22.7740   35.6080 N   0  0  0  0  0  0  0  0  0  0  0  0
   37.9630   22.1270   36.0120 C   0  0  0  0  0  0  0  0  0  0  0  0
   37.4280   23.1240   37.0450 C   0  0  0  0  0  0  0  0  0  0  0  0
   38.6840   23.6970   37.6990 C   0  0  0  0  0  0  0  0  0  0  0  0
   39.8080   23.0900   36.9220 C   0  0  1  0  0  0  0  0  0  0  0  0
   38.0740   21.1160   36.3870 H   0  0  0  0  0  0  0  0  0  0  0  0
   37.2660   22.2190   35.1520 H   0  0  0  0  0  0  0  0  0  0  0  0
   36.8830   22.5030   37.7980 H   0  0  0  0  0  0  0  0  0  0  0  0
   36.8040   23.8940   36.5950 H   0  0  0  0  0  0  0  0  0  0  0  0
   38.7430   23.3550   38.7650 H   0  0  0  0  0  0  0  0  0  0  0  0
   38.7200   24.7880   37.6850 H   0  0  0  0  0  0  0  0  0  0  0  0
   40.6670   23.7420   36.8110 H   0  0  0  0  0  0  0  0  0  0  0  0
   41.5040   21.3530   37.5000 C   0  0  0  0  0  0  0  0  0  0  0  0
   42.4510   21.8750   36.8460 O   0  0  0  0  0  0  0  0  0  0  0  0
   40.1540   21.8200   37.5490 N   0  0  0  0  0  0  0  0  0  0  0  0
   41.7850   20.4570   38.0730 H   0  0  0  0  0  0  0  0  0  0  0  0
   39.4670   21.2170   38.0430 H   0  0  0  0  0  0  0  0  0  0  0  0
   39.0250   25.4480   34.2140 C   0  0  0  0  0  0  0  0  0  0  0  0
   39.5670   26.2720   35.1770 C   0  0  0  0  0  0  0  0  0  0  0  0
   38.8610   27.3500   35.6970 C   0  0  0  0  0  0  0  0  0  0  0  0
   37.5910   27.5880   35.2280 C   0  0  0  0  0  0  0  0  0  0  0  0
   36.9930   26.8030   34.2680 C   0  0  0  0  0  0  0  0  0  0  0  0
   37.7620   25.7450   33.7980 C   0  0  0  0  0  0  0  0  0  0  0  0
   40.5640   26.1520   35.5980 H   0  0  0  0  0  0  0  0  0  0  0  0
   39.2820   27.9960   36.4500 H   0  0  0  0  0  0  0  0  0  0  0  0
   37.0140   28.4150   35.6090 H   0  0  0  0  0  0  0  0  0  0  0  0
   35.9960   26.9620   33.8760 H   0  0  0  0  0  0  0  0  0  0  0  0
   36.8960   25.1540   30.5740 H   0  0  0  0  0  0  0  0  0  0  0  0
   37.2600   25.5470   31.5310 C   0  0  0  0  0  0  0  0  0  0  0  0
   37.7450   26.6690   31.1680 O   0  0  0  0  0  0  0  0  0  0  0  0
   37.1780   24.9120   32.8160 N   0  0  0  0  0  0  0  0  0  0  0  0
   36.7190   23.9920   32.7670 H   0  0  0  0  0  0  0  0  0  0  0  0
  1  7  1  0  0  0  0
  1  2  1  0  0  0  0
  2  9  1  0  0  0  0
  3 26  1  0  0  0  0
  3  2  2  0  0  0  0
  4  3  1  0  0  0  0
  5  4  2  0  0  0  0
  5  6  1  0  0  0  0
  6  1  2  0  0  0  0
  8  5  1  0  0  0  0
  9 10  1  0  0  0  0
  9 13  1  0  0  0  0
 10 14  1  0  0  0  0
 10 11  1  0  0  0  0
 11 12  1  0  0  0  0
 11 16  1  0  0  0  0
 12 18  1  0  0  0  0
 13 20  1  6  0  0  0
 13 23  1  0  0  0  0
 13 12  1  0  0  0  0
 15 10  1  0  0  0  0
 17 11  1  0  0  0  0
 19 12  1  0  0  0  0
 21 23  1  0  0  0  0
 21 24  1  0  0  0  0
 22 21  2  0  0  0  0
 23 25  1  0  0  0  0
 26 27  1  0  0  0  0
 27 32  1  0  0  0  0
 27 28  2  0  0  0  0
 28 33  1  0  0  0  0
 29 34  1  0  0  0  0
 29 28  1  0  0  0  0
 30 29  2  0  0  0  0
 31 26  2  0  0  0  0
 31 30  1  0  0  0  0
 35 30  1  0  0  0  0
 36 37  1  0  0  0  0
 37 39  1  0  0  0  0
 38 37  2  0  0  0  0
 39 31  1  0  0  0  0
 40 39  1  0  0  0  0
M  END
>  <minimizedAffinity>
-5.25132275

$$$$

 OpenBabel03272509153D

 40 42  0  0  1  0  0  0  0  0999 V2000
   37.4070   23.6880   32.3980 C   0  0  0  0  0  0  0  0  0  0  0  0
   37.8310   23.9350   33.7300 C   0  0  0  0  0  0  0  0  0  0  0  0
   38.0150   22.8190   34.5570 C   0  0  0  0  0  0  0  0  0  0  0  0
   37.7840   21.5840   34.0550 N   0  0  0  0  0  0  0  0  0  0  0  0
   37.3830   21.3900   32.7900 C   0  0  0  0  0  0  0  0  0  0  0  0
   37.1980   22.4330   31.9710 N   0  0  0  0  0  0  0  0  0  0  0  0
   37.2400   24.4510   31.6620 H   0  0  0  0  0  0  0  0  0  0  0  0
   37.2230   20.3690   32.4770 H   0  0  0  0  0  0  0  0  0  0  0  0
   38.0110   25.3100   34.0790 N   0  0  0  0  0  0  0  0  0  0  0  0
   37.4800   26.2520   35.0510 C   0  0  0  0  0  0  0  0  0  0  0  0
   37.1310   27.4430   34.1550 C   0  0  0  0  0  0  0  0  0  0  0  0
   38.1950   27.4120   33.0580 C   0  0  0  0  0  0  0  0  0  0  0  0
   38.9700   26.1640   33.3390 C   0  0  1  0  0  0  0  0  0  0  0  0
   38.1480   26.4930   35.8710 H   0  0  0  0  0  0  0  0  0  0  0  0
   36.4960   25.8490   35.3720 H   0  0  0  0  0  0  0  0  0  0  0  0
   37.2980   28.3480   34.7900 H   0  0  0  0  0  0  0  0  0  0  0  0
   36.1200   27.3820   33.7560 H   0  0  0  0  0  0  0  0  0  0  0  0
   38.8700   28.3000   33.1630 H   0  0  0  0  0  0  0  0  0  0  0  0
   37.7770   27.4150   32.0500 H   0  0  0  0  0  0  0  0  0  0  0  0
   39.3340   25.6650   32.4480 H   0  0  0  0  0  0  0  0  0  0  0  0
   41.1840   27.2230   33.7910 C   0  0  0  0  0  0  0  0  0  0  0  0
   41.4380   27.5090   32.5870 O   0  0  0  0  0  0  0  0  0  0  0  0
   40.0440   26.5020   34.2650 N   0  0  0  0  0  0  0  0  0  0  0  0
   41.9350   27.5770   34.5130 H   0  0  0  0  0  0  0  0  0  0  0  0
   40.0350   26.2490   35.2730 H   0  0  0  0  0  0  0  0  0  0  0  0
   38.4470   22.9540   35.9180 C   0  0  0  0  0  0  0  0  0  0  0  0
   37.5630   23.4610   36.8470 C   0  0  0  0  0  0  0  0  0  0  0  0
   37.9170   23.6150   38.1810 C   0  0  0  0  0  0  0  0  0  0  0  0
   39.1840   23.2490   38.5700 C   0  0  0  0  0  0  0  0  0  0  0  0
   40.1130   22.7370   37.6920 C   0  0  0  0  0  0  0  0  0  0  0  0
   39.6840   22.6130   36.3750 C   0  0  0  0  0  0  0  0  0  0  0  0
   36.5450   23.7720   36.6200 H   0  0  0  0  0  0  0  0  0  0  0  0
   37.2290   24.0110   38.9100 H   0  0  0  0  0  0  0  0  0  0  0  0
   39.4930   23.3550   39.5970 H   0  0  0  0  0  0  0  0  0  0  0  0
   41.1170   22.4390   37.9630 H   0  0  0  0  0  0  0  0  0  0  0  0
   42.4030   23.0250   34.3940 H   0  0  0  0  0  0  0  0  0  0  0  0
   41.5630   23.1160   35.0910 C   0  0  0  0  0  0  0  0  0  0  0  0
   41.6850   24.3290   35.4670 O   0  0  0  0  0  0  0  0  0  0  0  0
   40.6140   22.0980   35.4420 N   0  0  0  0  0  0  0  0  0  0  0  0
   40.7960   21.2100   34.9530 H   0  0  0  0  0  0  0  0  0  0  0  0
  1  2  1  0  0  0  0
  2  9  1  0  0  0  0
  2  3  2  0  0  0  0
  3 26  1  0  0  0  0
  4  3  1  0  0  0  0
  5  4  2  0  0  0  0
  6  1  2  0  0  0  0
  6  5  1  0  0  0  0
  7  1  1  0  0  0  0
  8  5  1  0  0  0  0
  9 10  1  0  0  0  0
 10 15  1  0  0  0  0
 10 14  1  0  0  0  0
 11 16  1  0  0  0  0
 11 10  1  0  0  0  0
 12 18  1  0  0  0  0
 12 13  1  0  0  0  0
 12 11  1  0  0  0  0
 13 20  1  6  0  0  0
 13  9  1  0  0  0  0
 13 23  1  0  0  0  0
 17 11  1  0  0  0  0
 19 12  1  0  0  0  0
 21 23  1  0  0  0  0
 21 24  1  0  0  0  0
 22 21  2  0  0  0  0
 23 25  1  0  0  0  0
 26 31  2  0  0  0  0
 26 27  1  0  0  0  0
 27 28  2  0  0  0  0
 28 29  1  0  0  0  0
 28 33  1  0  0  0  0
 29 34  1  0  0  0  0
 30 35  1  0  0  0  0
 30 29  2  0  0  0  0
 31 30  1  0  0  0  0
 32 27  1  0  0  0  0
 36 37  1  0  0  0  0
 37 39  1  0  0  0  0
 37 38  2  0  0  0  0
 39 31  1  0  0  0  0
 40 39  1  0  0  0  0
M  END
>  <minimizedAffinity>
-5.13597822

$$$$

 OpenBabel03272509153D

 40 42  0  0  1  0  0  0  0  0999 V2000
   36.3820   21.4570   36.0140 C   0  0  0  0  0  0  0  0  0  0  0  0
   37.4450   22.2170   35.4600 C   0  0  0  0  0  0  0  0  0  0  0  0
   37.6420   22.1220   34.0760 C   0  0  0  0  0  0  0  0  0  0  0  0
   36.8240   21.3270   33.3490 N   0  0  0  0  0  0  0  0  0  0  0  0
   35.8300   20.6230   33.9080 C   0  0  0  0  0  0  0  0  0  0  0  0
   35.6120   20.6880   35.2270 N   0  0  0  0  0  0  0  0  0  0  0  0
   36.1180   21.4490   37.0540 H   0  0  0  0  0  0  0  0  0  0  0  0
   35.2280   20.0140   33.2490 H   0  0  0  0  0  0  0  0  0  0  0  0
   38.2070   22.9890   36.3920 N   0  0  0  0  0  0  0  0  0  0  0  0
   39.4570   22.8640   37.1250 C   0  0  0  0  0  0  0  0  0  0  0  0
   39.0090   23.2290   38.5430 C   0  0  0  0  0  0  0  0  0  0  0  0
   37.9070   24.2660   38.3340 C   0  0  0  0  0  0  0  0  0  0  0  0
   37.7310   24.3160   36.8500 C   0  0  1  0  0  0  0  0  0  0  0  0
   40.2740   23.4690   36.7470 H   0  0  0  0  0  0  0  0  0  0  0  0
   39.6820   21.7780   37.1760 H   0  0  0  0  0  0  0  0  0  0  0  0
   39.8920   23.7330   39.0090 H   0  0  0  0  0  0  0  0  0  0  0  0
   38.6660   22.3630   39.1060 H   0  0  0  0  0  0  0  0  0  0  0  0
   38.2550   25.2660   38.7000 H   0  0  0  0  0  0  0  0  0  0  0  0
   36.9760   24.0170   38.8470 H   0  0  0  0  0  0  0  0  0  0  0  0
   36.7100   24.4970   36.5350 H   0  0  0  0  0  0  0  0  0  0  0  0
   38.1560   26.4140   35.5670 C   0  0  0  0  0  0  0  0  0  0  0  0
   36.9620   26.5750   35.1850 O   0  0  0  0  0  0  0  0  0  0  0  0
   38.6590   25.3090   36.3210 N   0  0  0  0  0  0  0  0  0  0  0  0
   38.8420   27.2200   35.2700 H   0  0  0  0  0  0  0  0  0  0  0  0
   39.6880   25.2670   36.4610 H   0  0  0  0  0  0  0  0  0  0  0  0
   38.6830   22.8520   33.4120 C   0  0  0  0  0  0  0  0  0  0  0  0
   39.9520   22.3150   33.3800 C   0  0  0  0  0  0  0  0  0  0  0  0
   41.0050   22.9680   32.7520 C   0  0  0  0  0  0  0  0  0  0  0  0
   40.7590   24.1810   32.1520 C   0  0  0  0  0  0  0  0  0  0  0  0
   39.5150   24.7700   32.1490 C   0  0  0  0  0  0  0  0  0  0  0  0
   38.5150   24.0560   32.7970 C   0  0  0  0  0  0  0  0  0  0  0  0
   40.2280   21.3620   33.8290 H   0  0  0  0  0  0  0  0  0  0  0  0
   41.9990   22.5510   32.7250 H   0  0  0  0  0  0  0  0  0  0  0  0
   41.5530   24.7160   31.6560 H   0  0  0  0  0  0  0  0  0  0  0  0
   39.2870   25.7220   31.6870 H   0  0  0  0  0  0  0  0  0  0  0  0
   35.5750   24.7610   31.2640 H   0  0  0  0  0  0  0  0  0  0  0  0
   36.5780   24.4310   31.5560 C   0  0  0  0  0  0  0  0  0  0  0  0
   36.9650   23.8490   30.4890 O   0  0  0  0  0  0  0  0  0  0  0  0
   37.2240   24.6340   32.8210 N   0  0  0  0  0  0  0  0  0  0  0  0
   36.6290   25.1520   33.4840 H   0  0  0  0  0  0  0  0  0  0  0  0
  1  7  1  0  0  0  0
  2  1  1  0  0  0  0
  2  9  1  0  0  0  0
  3  2  2  0  0  0  0
  4  5  2  0  0  0  0
  4  3  1  0  0  0  0
  5  6  1  0  0  0  0
  6  1  2  0  0  0  0
  8  5  1  0  0  0  0
  9 13  1  0  0  0  0
  9 10  1  0  0  0  0
 10 15  1  0  0  0  0
 10 11  1  0  0  0  0
 11 16  1  0  0  0  0
 11 17  1  0  0  0  0
 12 11  1  0  0  0  0
 12 18  1  0  0  0  0
 12 19  1  0  0  0  0
 13 20  1  6  0  0  0
 13 12  1  0  0  0  0
 14 10  1  0  0  0  0
 21 23  1  0  0  0  0
 22 21  2  0  0  0  0
 23 25  1  0  0  0  0
 23 13  1  0  0  0  0
 24 21  1  0  0  0  0
 26  3  1  0  0  0  0
 27 26  1  0  0  0  0
 27 32  1  0  0  0  0
 28 27  2  0  0  0  0
 29 28  1  0  0  0  0
 30 29  2  0  0  0  0
 30 31  1  0  0  0  0
 31 39  1  0  0  0  0
 31 26  2  0  0  0  0
 33 28  1  0  0  0  0
 34 29  1  0  0  0  0
 35 30  1  0  0  0  0
 36 37  1  0  0  0  0
 37 39  1  0  0  0  0
 38 37  2  0  0  0  0
 39 40  1  0  0  0  0
M  END
>  <minimizedAffinity>
-5.04429579

$$$$

 OpenBabel03272509153D

 40 42  0  0  1  0  0  0  0  0999 V2000
   37.7970   25.0410   34.4430 C   0  0  0  0  0  0  0  0  0  0  0  0
   37.3510   25.8540   33.3680 C   0  0  0  0  0  0  0  0  0  0  0  0
   37.3980   27.2410   33.5580 C   0  0  0  0  0  0  0  0  0  0  0  0
   37.8550   27.7290   34.7340 N   0  0  0  0  0  0  0  0  0  0  0  0
   38.2670   26.9290   35.7270 C   0  0  0  0  0  0  0  0  0  0  0  0
   38.2380   25.5980   35.5820 N   0  0  0  0  0  0  0  0  0  0  0  0
   37.8230   23.9680   34.4230 H   0  0  0  0  0  0  0  0  0  0  0  0
   38.6170   27.4070   36.6300 H   0  0  0  0  0  0  0  0  0  0  0  0
   36.8920   25.1530   32.2090 N   0  0  0  0  0  0  0  0  0  0  0  0
   35.6680   25.0460   31.4320 C   0  0  0  0  0  0  0  0  0  0  0  0
   35.5150   23.5260   31.3220 C   0  0  0  0  0  0  0  0  0  0  0  0
   36.9520   23.0080   31.2680 C   0  0  0  0  0  0  0  0  0  0  0  0
   37.7870   24.2310   31.4720 C   0  0  1  0  0  0  0  0  0  0  0  0
   35.6820   25.5610   30.4780 H   0  0  0  0  0  0  0  0  0  0  0  0
   34.8410   25.3590   32.1050 H   0  0  0  0  0  0  0  0  0  0  0  0
   35.0330   23.3500   30.3290 H   0  0  0  0  0  0  0  0  0  0  0  0
   34.9510   23.1030   32.1520 H   0  0  0  0  0  0  0  0  0  0  0  0
   37.1610   22.5810   30.2520 H   0  0  0  0  0  0  0  0  0  0  0  0
   37.1630   22.2400   32.0140 H   0  0  0  0  0  0  0  0  0  0  0  0
   38.7030   24.0490   32.0230 H   0  0  0  0  0  0  0  0  0  0  0  0
   39.2990   25.4410   29.8980 C   0  0  0  0  0  0  0  0  0  0  0  0
   40.2240   25.6410   30.7360 O   0  0  0  0  0  0  0  0  0  0  0  0
   38.0350   24.8290   30.1650 N   0  0  0  0  0  0  0  0  0  0  0  0
   39.5250   25.7860   28.8780 H   0  0  0  0  0  0  0  0  0  0  0  0
   37.3370   24.8390   29.3950 H   0  0  0  0  0  0  0  0  0  0  0  0
   36.9780   28.1550   32.5350 C   0  0  0  0  0  0  0  0  0  0  0  0
   37.7570   28.2890   31.4050 C   0  0  0  0  0  0  0  0  0  0  0  0
   37.4070   29.1540   30.3760 C   0  0  0  0  0  0  0  0  0  0  0  0
   36.2510   29.8880   30.5020 C   0  0  0  0  0  0  0  0  0  0  0  0
   35.4310   29.8000   31.6040 C   0  0  0  0  0  0  0  0  0  0  0  0
   35.8480   28.9140   32.5900 C   0  0  0  0  0  0  0  0  0  0  0  0
   38.6830   27.7440   31.2300 H   0  0  0  0  0  0  0  0  0  0  0  0
   38.0140   29.2610   29.4920 H   0  0  0  0  0  0  0  0  0  0  0  0
   35.9500   30.5690   29.7230 H   0  0  0  0  0  0  0  0  0  0  0  0
   34.5150   30.3630   31.7350 H   0  0  0  0  0  0  0  0  0  0  0  0
   34.6330   30.2150   35.4740 H   0  0  0  0  0  0  0  0  0  0  0  0
   35.1410   29.9980   34.5280 C   0  0  0  0  0  0  0  0  0  0  0  0
   35.8130   31.0690   34.3580 O   0  0  0  0  0  0  0  0  0  0  0  0
   35.0340   28.8020   33.7410 N   0  0  0  0  0  0  0  0  0  0  0  0
   34.3960   28.1140   34.1630 H   0  0  0  0  0  0  0  0  0  0  0  0
  1  6  1  0  0  0  0
  2  3  1  0  0  0  0
  2  1  2  0  0  0  0
  3  4  2  0  0  0  0
  4  5  1  0  0  0  0
  5  8  1  0  0  0  0
  6  5  2  0  0  0  0
  7  1  1  0  0  0  0
  9  2  1  0  0  0  0
 10 15  1  0  0  0  0
 10  9  1  0  0  0  0
 11 10  1  0  0  0  0
 11 17  1  0  0  0  0
 12 11  1  0  0  0  0
 12 13  1  0  0  0  0
 12 19  1  0  0  0  0
 13 20  1  1  0  0  0
 13  9  1  0  0  0  0
 14 10  1  0  0  0  0
 16 11  1  0  0  0  0
 18 12  1  0  0  0  0
 21 23  1  0  0  0  0
 21 22  2  0  0  0  0
 23 13  1  0  0  0  0
 24 21  1  0  0  0  0
 25 23  1  0  0  0  0
 26 31  1  0  0  0  0
 26  3  1  0  0  0  0
 27 26  2  0  0  0  0
 28 29  2  0  0  0  0
 28 27  1  0  0  0  0
 29 30  1  0  0  0  0
 30 35  1  0  0  0  0
 30 31  2  0  0  0  0
 31 39  1  0  0  0  0
 32 27  1  0  0  0  0
 33 28  1  0  0  0  0
 34 29  1  0  0  0  0
 37 36  1  0  0  0  0
 38 37  2  0  0  0  0
 39 40  1  0  0  0  0
 39 37  1  0  0  0  0
M  END
>  <minimizedAffinity>
-4.91850376

$$$$

 OpenBabel03272509153D

 40 42  0  0  1  0  0  0  0  0999 V2000
   35.9470   23.9390   31.6070 C   0  0  0  0  0  0  0  0  0  0  0  0
   37.1470   24.3040   32.2700 C   0  0  0  0  0  0  0  0  0  0  0  0
   37.4380   25.6720   32.3540 C   0  0  0  0  0  0  0  0  0  0  0  0
   36.5780   26.5610   31.8070 N   0  0  0  0  0  0  0  0  0  0  0  0
   35.4530   26.1790   31.1870 C   0  0  0  0  0  0  0  0  0  0  0  0
   35.1410   24.8800   31.0880 N   0  0  0  0  0  0  0  0  0  0  0  0
   35.6020   22.9300   31.4840 H   0  0  0  0  0  0  0  0  0  0  0  0
   34.8260   26.9580   30.7810 H   0  0  0  0  0  0  0  0  0  0  0  0
   37.9330   23.2190   32.7720 N   0  0  0  0  0  0  0  0  0  0  0  0
   39.3400   22.9100   32.9640 C   0  0  0  0  0  0  0  0  0  0  0  0
   39.4300   21.5170   32.3310 C   0  0  0  0  0  0  0  0  0  0  0  0
   38.0710   20.8840   32.6250 C   0  0  0  0  0  0  0  0  0  0  0  0
   37.2910   21.9820   33.2750 C   0  0  1  0  0  0  0  0  0  0  0  0
   39.6850   22.9540   33.9910 H   0  0  0  0  0  0  0  0  0  0  0  0
   39.9040   23.5670   32.2680 H   0  0  0  0  0  0  0  0  0  0  0  0
   40.2120   20.9770   32.9200 H   0  0  0  0  0  0  0  0  0  0  0  0
   39.6490   21.5580   31.2660 H   0  0  0  0  0  0  0  0  0  0  0  0
   38.1970   20.0390   33.3510 H   0  0  0  0  0  0  0  0  0  0  0  0
   37.5700   20.5010   31.7340 H   0  0  0  0  0  0  0  0  0  0  0  0
   36.2320   21.9660   33.0410 H   0  0  0  0  0  0  0  0  0  0  0  0
   36.6210   21.2350   35.5600 C   0  0  0  0  0  0  0  0  0  0  0  0
   35.5040   20.7550   35.2160 O   0  0  0  0  0  0  0  0  0  0  0  0
   37.5420   21.9230   34.7100 N   0  0  0  0  0  0  0  0  0  0  0  0
   36.8730   21.0920   36.6220 H   0  0  0  0  0  0  0  0  0  0  0  0
   38.3680   22.3570   35.1680 H   0  0  0  0  0  0  0  0  0  0  0  0
   38.6210   26.1510   33.0080 C   0  0  0  0  0  0  0  0  0  0  0  0
   39.7720   26.3080   32.2650 C   0  0  0  0  0  0  0  0  0  0  0  0
   40.9510   26.7700   32.8370 C   0  0  0  0  0  0  0  0  0  0  0  0
   40.9540   27.0740   34.1770 C   0  0  0  0  0  0  0  0  0  0  0  0
   39.8400   26.9390   34.9730 C   0  0  0  0  0  0  0  0  0  0  0  0
   38.7000   26.4720   34.3290 C   0  0  0  0  0  0  0  0  0  0  0  0
   39.8510   26.0900   31.2020 H   0  0  0  0  0  0  0  0  0  0  0  0
   41.8530   26.8930   32.2590 H   0  0  0  0  0  0  0  0  0  0  0  0
   41.8520   27.4340   34.6540 H   0  0  0  0  0  0  0  0  0  0  0  0
   39.8070   27.1690   36.0310 H   0  0  0  0  0  0  0  0  0  0  0  0
   36.9540   24.7890   36.6980 H   0  0  0  0  0  0  0  0  0  0  0  0
   37.6820   25.1700   35.9730 C   0  0  0  0  0  0  0  0  0  0  0  0
   38.6360   24.3360   36.1190 O   0  0  0  0  0  0  0  0  0  0  0  0
   37.5360   26.3130   35.1170 N   0  0  0  0  0  0  0  0  0  0  0  0
   36.6280   26.7820   35.2450 H   0  0  0  0  0  0  0  0  0  0  0  0
  1  2  1  0  0  0  0
  2  3  2  0  0  0  0
  2  9  1  0  0  0  0
  3 26  1  0  0  0  0
  4  3  1  0  0  0  0
  5  4  2  0  0  0  0
  6  5  1  0  0  0  0
  6  1  2  0  0  0  0
  7  1  1  0  0  0  0
  8  5  1  0  0  0  0
  9 10  1  0  0  0  0
  9 13  1  0  0  0  0
 10 14  1  0  0  0  0
 11 12  1  0  0  0  0
 11 16  1  0  0  0  0
 11 10  1  0  0  0  0
 12 13  1  0  0  0  0
 12 18  1  0  0  0  0
 13 20  1  6  0  0  0
 13 23  1  0  0  0  0
 15 10  1  0  0  0  0
 17 11  1  0  0  0  0
 19 12  1  0  0  0  0
 21 24  1  0  0  0  0
 22 21  2  0  0  0  0
 23 25  1  0  0  0  0
 23 21  1  0  0  0  0
 26 31  1  0  0  0  0
 27 28  1  0  0  0  0
 27 26  2  0  0  0  0
 28 29  2  0  0  0  0
 29 34  1  0  0  0  0
 29 30  1  0  0  0  0
 30 35  1  0  0  0  0
 31 30  2  0  0  0  0
 31 39  1  0  0  0  0
 32 27  1  0  0  0  0
 33 28  1  0  0  0  0
 37 38  2  0  0  0  0
 37 36  1  0  0  0  0
 39 40  1  0  0  0  0
 39 37  1  0  0  0  0
M  END
>  <minimizedAffinity>
-4.86658287

$$$$

 OpenBabel03272509153D

 40 42  0  0  1  0  0  0  0  0999 V2000
   37.5420   26.7710   33.4370 C   0  0  0  0  0  0  0  0  0  0  0  0
   38.3430   25.6300   33.7020 C   0  0  0  0  0  0  0  0  0  0  0  0
   38.8670   25.5060   34.9950 C   0  0  0  0  0  0  0  0  0  0  0  0
   38.5890   26.4620   35.9110 N   0  0  0  0  0  0  0  0  0  0  0  0
   37.8280   27.5270   35.6240 C   0  0  0  0  0  0  0  0  0  0  0  0
   37.3090   27.6790   34.3980 N   0  0  0  0  0  0  0  0  0  0  0  0
   37.0730   26.9800   32.4940 H   0  0  0  0  0  0  0  0  0  0  0  0
   37.6590   28.2390   36.4180 H   0  0  0  0  0  0  0  0  0  0  0  0
   38.5340   24.7370   32.6010 N   0  0  0  0  0  0  0  0  0  0  0  0
   39.4690   24.5700   31.5000 C   0  0  0  0  0  0  0  0  0  0  0  0
   38.5110   24.4120   30.3160 C   0  0  0  0  0  0  0  0  0  0  0  0
   37.3010   23.6890   30.9060 C   0  0  0  0  0  0  0  0  0  0  0  0
   37.6040   23.6070   32.3680 C   0  0  1  0  0  0  0  0  0  0  0  0
   40.1730   23.7540   31.6150 H   0  0  0  0  0  0  0  0  0  0  0  0
   39.9450   25.5610   31.3410 H   0  0  0  0  0  0  0  0  0  0  0  0
   39.0320   23.7200   29.6080 H   0  0  0  0  0  0  0  0  0  0  0  0
   38.2470   25.3660   29.8640 H   0  0  0  0  0  0  0  0  0  0  0  0
   37.2360   22.6540   30.4810 H   0  0  0  0  0  0  0  0  0  0  0  0
   36.3560   24.2000   30.7120 H   0  0  0  0  0  0  0  0  0  0  0  0
   36.7270   23.6820   33.0020 H   0  0  0  0  0  0  0  0  0  0  0  0
   37.7880   21.3510   33.4190 C   0  0  0  0  0  0  0  0  0  0  0  0
   36.7190   21.4330   34.0880 O   0  0  0  0  0  0  0  0  0  0  0  0
   38.3550   22.3800   32.6030 N   0  0  0  0  0  0  0  0  0  0  0  0
   38.3040   20.3830   33.4980 H   0  0  0  0  0  0  0  0  0  0  0  0
   39.2970   22.1970   32.2050 H   0  0  0  0  0  0  0  0  0  0  0  0
   39.6850   24.3900   35.3720 C   0  0  0  0  0  0  0  0  0  0  0  0
   41.0200   24.3990   35.0280 C   0  0  0  0  0  0  0  0  0  0  0  0
   41.8670   23.3510   35.3640 C   0  0  0  0  0  0  0  0  0  0  0  0
   41.3460   22.2840   36.0580 C   0  0  0  0  0  0  0  0  0  0  0  0
   40.0230   22.2140   36.4310 C   0  0  0  0  0  0  0  0  0  0  0  0
   39.2400   23.3010   36.0590 C   0  0  0  0  0  0  0  0  0  0  0  0
   41.5070   25.2040   34.4810 H   0  0  0  0  0  0  0  0  0  0  0  0
   42.9110   23.3550   35.0960 H   0  0  0  0  0  0  0  0  0  0  0  0
   41.9750   21.4540   36.3350 H   0  0  0  0  0  0  0  0  0  0  0  0
   39.5810   21.3910   36.9770 H   0  0  0  0  0  0  0  0  0  0  0  0
   36.8010   23.5790   38.3960 H   0  0  0  0  0  0  0  0  0  0  0  0
   37.7320   23.5380   37.8200 C   0  0  0  0  0  0  0  0  0  0  0  0
   38.5930   23.7960   38.7250 O   0  0  0  0  0  0  0  0  0  0  0  0
   37.8730   23.2610   36.4180 N   0  0  0  0  0  0  0  0  0  0  0  0
   36.9650   23.0910   35.9620 H   0  0  0  0  0  0  0  0  0  0  0  0
  1  2  2  0  0  0  0
  1  6  1  0  0  0  0
  2  3  1  0  0  0  0
  3 26  1  0  0  0  0
  3  4  2  0  0  0  0
  5  4  1  0  0  0  0
  5  8  1  0  0  0  0
  6  5  2  0  0  0  0
  7  1  1  0  0  0  0
  9  2  1  0  0  0  0
 10 14  1  0  0  0  0
 10  9  1  0  0  0  0
 11 12  1  0  0  0  0
 11 10  1  0  0  0  0
 12 13  1  0  0  0  0
 13  9  1  0  0  0  0
 13 23  1  0  0  0  0
 13 20  1  1  0  0  0
 15 10  1  0  0  0  0
 16 11  1  0  0  0  0
 17 11  1  0  0  0  0
 18 12  1  0  0  0  0
 19 12  1  0  0  0  0
 21 24  1  0  0  0  0
 21 22  2  0  0  0  0
 23 21  1  0  0  0  0
 25 23  1  0  0  0  0
 26 31  1  0  0  0  0
 27 28  1  0  0  0  0
 27 26  2  0  0  0  0
 28 29  2  0  0  0  0
 29 34  1  0  0  0  0
 29 30  1  0  0  0  0
 30 35  1  0  0  0  0
 31 39  1  0  0  0  0
 31 30  2  0  0  0  0
 32 27  1  0  0  0  0
 33 28  1  0  0  0  0
 37 36  1  0  0  0  0
 37 38  2  0  0  0  0
 39 37  1  0  0  0  0
 40 39  1  0  0  0  0
M  END
>  <minimizedAffinity>
-4.86159897

$$$$

 OpenBabel03272509153D

 40 42  0  0  1  0  0  0  0  0999 V2000
   36.9820   23.8790   32.2470 C   0  0  0  0  0  0  0  0  0  0  0  0
   37.9030   24.0140   33.3180 C   0  0  0  0  0  0  0  0  0  0  0  0
   38.5640   22.8530   33.7400 C   0  0  0  0  0  0  0  0  0  0  0  0
   38.2970   21.6820   33.1180 N   0  0  0  0  0  0  0  0  0  0  0  0
   37.4180   21.5930   32.1100 C   0  0  0  0  0  0  0  0  0  0  0  0
   36.7680   22.6810   31.6790 N   0  0  0  0  0  0  0  0  0  0  0  0
   36.4200   24.6890   31.8220 H   0  0  0  0  0  0  0  0  0  0  0  0
   37.2680   20.6160   31.6740 H   0  0  0  0  0  0  0  0  0  0  0  0
   38.0420   25.3330   33.8540 N   0  0  0  0  0  0  0  0  0  0  0  0
   37.9270   25.9860   35.1480 C   0  0  0  0  0  0  0  0  0  0  0  0
   37.0290   27.1780   34.8030 C   0  0  0  0  0  0  0  0  0  0  0  0
   37.4220   27.5410   33.3710 C   0  0  0  0  0  0  0  0  0  0  0  0
   38.3970   26.4760   32.9810 C   0  0  1  0  0  0  0  0  0  0  0  0
   38.8680   26.2570   35.6120 H   0  0  0  0  0  0  0  0  0  0  0  0
   37.2860   25.3290   35.7740 H   0  0  0  0  0  0  0  0  0  0  0  0
   37.3590   28.0010   35.4840 H   0  0  0  0  0  0  0  0  0  0  0  0
   35.9710   26.9430   34.8980 H   0  0  0  0  0  0  0  0  0  0  0  0
   37.9370   28.5370   33.3630 H   0  0  0  0  0  0  0  0  0  0  0  0
   36.5730   27.5870   32.6880 H   0  0  0  0  0  0  0  0  0  0  0  0
   38.3490   26.2010   31.9330 H   0  0  0  0  0  0  0  0  0  0  0  0
   40.8700   26.4630   32.6470 C   0  0  0  0  0  0  0  0  0  0  0  0
   40.8720   25.5880   31.7350 O   0  0  0  0  0  0  0  0  0  0  0  0
   39.7290   26.9190   33.3770 N   0  0  0  0  0  0  0  0  0  0  0  0
   41.8590   26.8890   32.8730 H   0  0  0  0  0  0  0  0  0  0  0  0
   39.9080   27.5630   34.1730 H   0  0  0  0  0  0  0  0  0  0  0  0
   39.5200   22.8780   34.8090 C   0  0  0  0  0  0  0  0  0  0  0  0
   40.7850   23.3660   34.5560 C   0  0  0  0  0  0  0  0  0  0  0  0
   41.7570   23.4200   35.5470 C   0  0  0  0  0  0  0  0  0  0  0  0
   41.4350   22.9720   36.8060 C   0  0  0  0  0  0  0  0  0  0  0  0
   40.1920   22.4730   37.1230 C   0  0  0  0  0  0  0  0  0  0  0  0
   39.2740   22.4510   36.0790 C   0  0  0  0  0  0  0  0  0  0  0  0
   41.1170   23.7400   33.5890 H   0  0  0  0  0  0  0  0  0  0  0  0
   42.7460   23.8010   35.3520 H   0  0  0  0  0  0  0  0  0  0  0  0
   42.1650   22.9980   37.5990 H   0  0  0  0  0  0  0  0  0  0  0  0
   39.9040   22.1120   38.1020 H   0  0  0  0  0  0  0  0  0  0  0  0
   36.2520   22.7510   37.5840 H   0  0  0  0  0  0  0  0  0  0  0  0
   37.2700   22.8630   37.1950 C   0  0  0  0  0  0  0  0  0  0  0  0
   37.5950   23.9980   37.6800 O   0  0  0  0  0  0  0  0  0  0  0  0
   37.9870   21.9380   36.3640 N   0  0  0  0  0  0  0  0  0  0  0  0
   37.4310   21.1000   36.1460 H   0  0  0  0  0  0  0  0  0  0  0  0
  1  2  1  0  0  0  0
  2  3  2  0  0  0  0
  2  9  1  0  0  0  0
  3 26  1  0  0  0  0
  4  3  1  0  0  0  0
  5  4  2  0  0  0  0
  6  5  1  0  0  0  0
  6  1  2  0  0  0  0
  7  1  1  0  0  0  0
  8  5  1  0  0  0  0
  9 10  1  0  0  0  0
 10 14  1  0  0  0  0
 10 15  1  0  0  0  0
 11 17  1  0  0  0  0
 11 10  1  0  0  0  0
 11 16  1  0  0  0  0
 12 11  1  0  0  0  0
 13 20  1  6  0  0  0
 13 12  1  0  0  0  0
 13 23  1  0  0  0  0
 13  9  1  0  0  0  0
 18 12  1  0  0  0  0
 19 12  1  0  0  0  0
 21 24  1  0  0  0  0
 21 23  1  0  0  0  0
 22 21  2  0  0  0  0
 23 25  1  0  0  0  0
 26 31  1  0  0  0  0
 27 26  2  0  0  0  0
 27 28  1  0  0  0  0
 28 29  2  0  0  0  0
 29 30  1  0  0  0  0
 29 34  1  0  0  0  0
 30 35  1  0  0  0  0
 31 39  1  0  0  0  0
 31 30  2  0  0  0  0
 32 27  1  0  0  0  0
 33 28  1  0  0  0  0
 37 36  1  0  0  0  0
 37 38  2  0  0  0  0
 39 37  1  0  0  0  0
 40 39  1  0  0  0  0
M  END
>  <minimizedAffinity>
-4.84211636

$$$$
