
 OpenBabel03272505573D

 40 42  0  0  1  0  0  0  0  0999 V2000
   35.2440   30.2940   50.0600 C   0  0  2  0  0  0  0  0  0  0  0  0
   36.1570   31.3070   49.4740 C   0  0  0  0  0  0  0  0  0  0  0  0
   37.6300   30.8700   49.5290 C   0  0  2  0  0  0  0  0  0  0  0  0
   38.1090   30.5230   50.8630 C   0  0  0  0  0  0  0  0  0  0  0  0
   37.0830   29.7660   51.6990 C   0  0  0  0  0  0  0  0  0  0  0  0
   35.9620   29.2280   50.8540 C   0  0  0  0  0  0  0  0  0  0  0  0
   34.5230   30.7530   50.7900 H   0  0  0  0  0  0  0  0  0  0  0  0
   36.0510   31.6430   48.4690 H   0  0  0  0  0  0  0  0  0  0  0  0
   36.1500   32.2410   50.1160 H   0  0  0  0  0  0  0  0  0  0  0  0
   37.7540   30.0540   48.8010 H   0  0  0  0  0  0  0  0  0  0  0  0
   38.3600   31.4210   51.4580 H   0  0  0  0  0  0  0  0  0  0  0  0
   39.0590   29.9560   50.7750 H   0  0  0  0  0  0  0  0  0  0  0  0
   37.6130   28.8870   52.1200 H   0  0  0  0  0  0  0  0  0  0  0  0
   36.7200   30.3360   52.5630 H   0  0  0  0  0  0  0  0  0  0  0  0
   36.3410   28.4820   50.1410 H   0  0  0  0  0  0  0  0  0  0  0  0
   35.2280   28.7510   51.5230 H   0  0  0  0  0  0  0  0  0  0  0  0
   38.2410   30.7900   46.6420 Cl  0  0  0  0  0  0  0  0  0  0  0  0
   38.7420   32.1180   47.6770 C   0  0  0  0  0  0  0  0  0  0  0  0
   38.3680   32.0590   49.0060 C   0  0  0  0  0  0  0  0  0  0  0  0
   38.7890   33.1560   49.7310 C   0  0  0  0  0  0  0  0  0  0  0  0
   39.5080   34.1920   49.1710 C   0  0  0  0  0  0  0  0  0  0  0  0
   39.8430   34.1720   47.8220 C   0  0  0  0  0  0  0  0  0  0  0  0
   39.4400   33.0890   47.0520 C   0  0  0  0  0  0  0  0  0  0  0  0
   38.5320   33.1880   50.7820 H   0  0  0  0  0  0  0  0  0  0  0  0
   39.7920   35.0110   49.8360 H   0  0  0  0  0  0  0  0  0  0  0  0
   40.4040   34.9920   47.4140 H   0  0  0  0  0  0  0  0  0  0  0  0
   40.7470   32.4960   43.8640 H   0  0  0  0  0  0  0  0  0  0  0  0
   40.7030   32.2850   44.9190 C   0  0  0  0  0  0  0  0  0  0  0  0
   41.4210   31.4060   45.4400 O   0  0  0  0  0  0  0  0  0  0  0  0
   39.7820   33.0680   45.6710 N   0  0  0  0  0  0  0  0  0  0  0  0
   39.1500   33.8180   45.3140 H   0  0  0  0  0  0  0  0  0  0  0  0
   34.4220   29.6110   49.0490 C   0  0  0  0  0  0  0  0  0  0  0  0
   34.4230   30.2010   47.7850 C   0  0  0  0  0  0  0  0  0  0  0  0
   33.6660   29.5830   46.7810 C   0  0  0  0  0  0  0  0  0  0  0  0
   32.9560   28.4260   47.0880 N   0  0  0  0  0  0  0  0  0  0  0  0
   32.9840   27.8930   48.3270 C   0  0  0  0  0  0  0  0  0  0  0  0
   33.7140   28.5000   49.2650 N   0  0  0  0  0  0  0  0  0  0  0  0
   34.8360   31.0470   47.2660 H   0  0  0  0  0  0  0  0  0  0  0  0
   33.4910   29.8050   45.7600 H   0  0  0  0  0  0  0  0  0  0  0  0
   32.4410   26.9990   48.5830 H   0  0  0  0  0  0  0  0  0  0  0  0
  1  7  1  1  0  0  0
  1  6  1  0  0  0  0
  2  3  1  0  0  0  0
  2  1  1  0  0  0  0
  2  9  1  0  0  0  0
  3 10  1  6  0  0  0
  3  4  1  0  0  0  0
  4 11  1  0  0  0  0
  4  5  1  0  0  0  0
  5 13  1  0  0  0  0
  5 14  1  0  0  0  0
  6 16  1  0  0  0  0
  6  5  1  0  0  0  0
  8  2  1  0  0  0  0
 12  4  1  0  0  0  0
 15  6  1  0  0  0  0
 17 18  1  0  0  0  0
 18 19  1  0  0  0  0
 19  3  1  0  0  0  0
 19 20  2  0  0  0  0
 20 24  1  0  0  0  0
 21 20  1  0  0  0  0
 21 25  1  0  0  0  0
 22 21  2  0  0  0  0
 23 18  2  0  0  0  0
 23 22  1  0  0  0  0
 26 22  1  0  0  0  0
 27 28  1  0  0  0  0
 28 29  2  0  0  0  0
 28 30  1  0  0  0  0
 30 23  1  0  0  0  0
 31 30  1  0  0  0  0
 32 37  1  0  0  0  0
 32  1  1  0  0  0  0
 33 32  2  0  0  0  0
 34 35  2  0  0  0  0
 34 33  1  0  0  0  0
 35 36  1  0  0  0  0
 36 40  1  0  0  0  0
 36 37  2  0  0  0  0
 38 33  1  0  0  0  0
 39 34  1  0  0  0  0
M  END
>  <minimizedAffinity>
-7.70918131

>  <minimizedRMSD>
0.388878733

$$$$
