
 OpenBabel03272510093D

 23 24  0  0  0  0  0  0  0  0999 V2000
   36.3040   30.6360   48.1400 C   0  0  0  0  0  0  0  0  0  0  0  0
   36.7290   31.4190   49.1870 C   0  0  0  0  0  0  0  0  0  0  0  0
   37.7170   32.3820   49.1190 C   0  0  0  0  0  0  0  0  0  0  0  0
   38.3410   32.5870   47.9010 C   0  0  0  0  0  0  0  0  0  0  0  0
   37.9100   31.7960   46.8480 C   0  0  0  0  0  0  0  0  0  0  0  0
   36.9460   30.8820   46.9870 N   0  0  0  0  0  0  0  0  0  0  0  0
   36.2700   31.2950   50.1670 H   0  0  0  0  0  0  0  0  0  0  0  0
   38.0030   32.9600   49.9780 H   0  0  0  0  0  0  0  0  0  0  0  0
   38.4100   31.9710   45.8990 H   0  0  0  0  0  0  0  0  0  0  0  0
   35.2680   28.6210   49.2300 C   0  0  0  0  0  0  0  0  0  0  0  0
   35.2610   29.6330   48.2520 C   0  0  0  0  0  0  0  0  0  0  0  0
   34.2140   29.6790   47.3510 C   0  0  0  0  0  0  0  0  0  0  0  0
   33.2390   28.7200   47.4770 N   0  0  0  0  0  0  0  0  0  0  0  0
   33.2710   27.7680   48.4170 C   0  0  0  0  0  0  0  0  0  0  0  0
   34.2760   27.7110   49.2940 N   0  0  0  0  0  0  0  0  0  0  0  0
   36.1360   28.6910   49.8720 H   0  0  0  0  0  0  0  0  0  0  0  0
   34.0960   30.4070   46.5560 H   0  0  0  0  0  0  0  0  0  0  0  0
   32.4940   27.0220   48.5000 H   0  0  0  0  0  0  0  0  0  0  0  0
   40.7220   35.0510   48.5260 H   0  0  0  0  0  0  0  0  0  0  0  0
   39.9600   34.3540   48.8630 C   0  0  0  0  0  0  0  0  0  0  0  0
   39.6490   34.2590   50.0780 O   0  0  0  0  0  0  0  0  0  0  0  0
   39.3570   33.5810   47.8370 N   0  0  0  0  0  0  0  0  0  0  0  0
   39.5990   33.6430   46.8230 H   0  0  0  0  0  0  0  0  0  0  0  0
  1 11  1  0  0  0  0
  1  2  1  0  0  0  0
  2  7  1  0  0  0  0
  3  2  2  0  0  0  0
  3  8  1  0  0  0  0
  4  3  1  0  0  0  0
  5  6  1  0  0  0  0
  5  4  2  0  0  0  0
  6  1  2  0  0  0  0
  9  5  1  0  0  0  0
 10 15  1  0  0  0  0
 10 16  1  0  0  0  0
 11 10  2  0  0  0  0
 12 13  2  0  0  0  0
 12 11  1  0  0  0  0
 13 14  1  0  0  0  0
 14 18  1  0  0  0  0
 14 15  2  0  0  0  0
 17 12  1  0  0  0  0
 19 20  1  0  0  0  0
 20 21  2  0  0  0  0
 22  4  1  0  0  0  0
 22 20  1  0  0  0  0
 23 22  1  0  0  0  0
M  END
>  <minimizedAffinity>
-4.74738216

>  <minimizedRMSD>
2.79875517

$$$$
