
 OpenBabel03272510103D

 23 24  0  0  0  0  0  0  0  0999 V2000
   37.7910   25.3480   34.8240 C   0  0  0  0  0  0  0  0  0  0  0  0
   37.8450   25.3350   36.1980 C   0  0  0  0  0  0  0  0  0  0  0  0
   38.4080   24.3350   36.9670 C   0  0  0  0  0  0  0  0  0  0  0  0
   38.9680   23.2500   36.3160 C   0  0  0  0  0  0  0  0  0  0  0  0
   38.9100   23.2680   34.9310 C   0  0  0  0  0  0  0  0  0  0  0  0
   38.3490   24.2710   34.2510 N   0  0  0  0  0  0  0  0  0  0  0  0
   37.4190   26.1650   36.7580 H   0  0  0  0  0  0  0  0  0  0  0  0
   38.4180   24.3860   38.0400 H   0  0  0  0  0  0  0  0  0  0  0  0
   39.3540   22.4080   34.4360 H   0  0  0  0  0  0  0  0  0  0  0  0
   36.8160   27.6560   34.6070 C   0  0  0  0  0  0  0  0  0  0  0  0
   37.1890   26.4190   34.0500 C   0  0  0  0  0  0  0  0  0  0  0  0
   36.9770   26.2050   32.7010 C   0  0  0  0  0  0  0  0  0  0  0  0
   36.4070   27.2320   31.9890 N   0  0  0  0  0  0  0  0  0  0  0  0
   36.0600   28.4000   32.5440 C   0  0  0  0  0  0  0  0  0  0  0  0
   36.2600   28.6200   33.8460 N   0  0  0  0  0  0  0  0  0  0  0  0
   37.0320   27.6990   35.6650 H   0  0  0  0  0  0  0  0  0  0  0  0
   37.2210   25.3000   32.1580 H   0  0  0  0  0  0  0  0  0  0  0  0
   35.6130   29.1960   31.9670 H   0  0  0  0  0  0  0  0  0  0  0  0
   41.0620   21.0780   38.0570 H   0  0  0  0  0  0  0  0  0  0  0  0
   40.9030   21.9360   37.4080 C   0  0  0  0  0  0  0  0  0  0  0  0
   41.8680   22.6080   36.9630 O   0  0  0  0  0  0  0  0  0  0  0  0
   39.5460   22.2240   37.1140 N   0  0  0  0  0  0  0  0  0  0  0  0
   38.7290   21.6810   37.4730 H   0  0  0  0  0  0  0  0  0  0  0  0
  1  2  1  0  0  0  0
  2  7  1  0  0  0  0
  2  3  2  0  0  0  0
  3  8  1  0  0  0  0
  4  3  1  0  0  0  0
  4 22  1  0  0  0  0
  5  4  2  0  0  0  0
  6  1  2  0  0  0  0
  6  5  1  0  0  0  0
  9  5  1  0  0  0  0
 10 16  1  0  0  0  0
 11 10  1  0  0  0  0
 11  1  1  0  0  0  0
 12 11  2  0  0  0  0
 13 14  2  0  0  0  0
 13 12  1  0  0  0  0
 14 15  1  0  0  0  0
 15 10  2  0  0  0  0
 17 12  1  0  0  0  0
 18 14  1  0  0  0  0
 20 19  1  0  0  0  0
 21 20  2  0  0  0  0
 22 20  1  0  0  0  0
 22 23  1  0  0  0  0
M  END
>  <minimizedAffinity>
-4.24500656

$$$$

 OpenBabel03272510103D

 23 24  0  0  0  0  0  0  0  0999 V2000
   38.2680   25.3920   35.2900 C   0  0  0  0  0  0  0  0  0  0  0  0
   38.0210   26.6830   35.6920 C   0  0  0  0  0  0  0  0  0  0  0  0
   37.3690   27.6440   34.9440 C   0  0  0  0  0  0  0  0  0  0  0  0
   36.9220   27.2940   33.6830 C   0  0  0  0  0  0  0  0  0  0  0  0
   37.1740   25.9910   33.2820 C   0  0  0  0  0  0  0  0  0  0  0  0
   37.8110   25.1120   34.0590 N   0  0  0  0  0  0  0  0  0  0  0  0
   38.3540   27.0090   36.6770 H   0  0  0  0  0  0  0  0  0  0  0  0
   37.2080   28.6370   35.3190 H   0  0  0  0  0  0  0  0  0  0  0  0
   36.8140   25.7330   32.2880 H   0  0  0  0  0  0  0  0  0  0  0  0
   38.4780   23.9710   37.3540 C   0  0  0  0  0  0  0  0  0  0  0  0
   38.9580   24.4090   36.1060 C   0  0  0  0  0  0  0  0  0  0  0  0
   40.1430   23.8820   35.6270 C   0  0  0  0  0  0  0  0  0  0  0  0
   40.7770   22.9540   36.4160 N   0  0  0  0  0  0  0  0  0  0  0  0
   40.2980   22.5550   37.6010 C   0  0  0  0  0  0  0  0  0  0  0  0
   39.1550   23.0560   38.0760 N   0  0  0  0  0  0  0  0  0  0  0  0
   37.5480   24.4550   37.6170 H   0  0  0  0  0  0  0  0  0  0  0  0
   40.6120   24.1370   34.6840 H   0  0  0  0  0  0  0  0  0  0  0  0
   40.8120   21.8240   38.2070 H   0  0  0  0  0  0  0  0  0  0  0  0
   35.9070   29.6620   31.3380 H   0  0  0  0  0  0  0  0  0  0  0  0
   36.6200   28.9290   31.7080 C   0  0  0  0  0  0  0  0  0  0  0  0
   37.6870   28.6830   31.0890 O   0  0  0  0  0  0  0  0  0  0  0  0
   36.2510   28.2880   32.9180 N   0  0  0  0  0  0  0  0  0  0  0  0
   35.3710   28.4760   33.4480 H   0  0  0  0  0  0  0  0  0  0  0  0
  1  2  1  0  0  0  0
  1 11  1  0  0  0  0
  2  7  1  0  0  0  0
  3  8  1  0  0  0  0
  3  2  2  0  0  0  0
  4  3  1  0  0  0  0
  5  4  2  0  0  0  0
  5  6  1  0  0  0  0
  6  1  2  0  0  0  0
  9  5  1  0  0  0  0
 10 16  1  0  0  0  0
 10 15  1  0  0  0  0
 11 10  2  0  0  0  0
 12 11  1  0  0  0  0
 12 13  2  0  0  0  0
 13 14  1  0  0  0  0
 14 15  2  0  0  0  0
 14 18  1  0  0  0  0
 17 12  1  0  0  0  0
 19 20  1  0  0  0  0
 20 22  1  0  0  0  0
 21 20  2  0  0  0  0
 22 23  1  0  0  0  0
 22  4  1  0  0  0  0
M  END
>  <minimizedAffinity>
-4.22681618

$$$$

 OpenBabel03272510103D

 23 24  0  0  0  0  0  0  0  0999 V2000
   38.3280   25.3740   35.2970 C   0  0  0  0  0  0  0  0  0  0  0  0
   38.0990   26.6600   35.7250 C   0  0  0  0  0  0  0  0  0  0  0  0
   37.4260   27.6340   35.0130 C   0  0  0  0  0  0  0  0  0  0  0  0
   36.9370   27.3030   33.7620 C   0  0  0  0  0  0  0  0  0  0  0  0
   37.1710   26.0060   33.3340 C   0  0  0  0  0  0  0  0  0  0  0  0
   37.8310   25.1140   34.0780 N   0  0  0  0  0  0  0  0  0  0  0  0
   38.4640   26.9710   36.7030 H   0  0  0  0  0  0  0  0  0  0  0  0
   37.2810   28.6220   35.4070 H   0  0  0  0  0  0  0  0  0  0  0  0
   36.7790   25.7630   32.3490 H   0  0  0  0  0  0  0  0  0  0  0  0
   40.2520   23.7960   35.6580 C   0  0  0  0  0  0  0  0  0  0  0  0
   39.0410   24.3780   36.0760 C   0  0  0  0  0  0  0  0  0  0  0  0
   38.4970   23.9860   37.2850 C   0  0  0  0  0  0  0  0  0  0  0  0
   39.1890   23.0420   38.0040 N   0  0  0  0  0  0  0  0  0  0  0  0
   40.3410   22.5050   37.5830 C   0  0  0  0  0  0  0  0  0  0  0  0
   40.8770   22.8740   36.4170 N   0  0  0  0  0  0  0  0  0  0  0  0
   40.5730   24.1830   34.7010 H   0  0  0  0  0  0  0  0  0  0  0  0
   37.5740   24.3600   37.7140 H   0  0  0  0  0  0  0  0  0  0  0  0
   40.8700   21.7640   38.1630 H   0  0  0  0  0  0  0  0  0  0  0  0
   35.8510   29.7020   31.4820 H   0  0  0  0  0  0  0  0  0  0  0  0
   36.5720   28.9600   31.8160 C   0  0  0  0  0  0  0  0  0  0  0  0
   37.6110   28.7120   31.1530 O   0  0  0  0  0  0  0  0  0  0  0  0
   36.2450   28.3100   33.0340 N   0  0  0  0  0  0  0  0  0  0  0  0
   35.3880   28.5010   33.6000 H   0  0  0  0  0  0  0  0  0  0  0  0
  1  2  1  0  0  0  0
  1 11  1  0  0  0  0
  2  7  1  0  0  0  0
  3  8  1  0  0  0  0
  3  2  2  0  0  0  0
  4  3  1  0  0  0  0
  5  4  2  0  0  0  0
  5  6  1  0  0  0  0
  6  1  2  0  0  0  0
  9  5  1  0  0  0  0
 10 11  2  0  0  0  0
 10 15  1  0  0  0  0
 11 12  1  0  0  0  0
 12 17  1  0  0  0  0
 12 13  2  0  0  0  0
 14 13  1  0  0  0  0
 14 18  1  0  0  0  0
 15 14  2  0  0  0  0
 16 10  1  0  0  0  0
 19 20  1  0  0  0  0
 20 22  1  0  0  0  0
 21 20  2  0  0  0  0
 22 23  1  0  0  0  0
 22  4  1  0  0  0  0
M  END
>  <minimizedAffinity>
-4.22499657

$$$$

 OpenBabel03272510103D

 23 24  0  0  0  0  0  0  0  0999 V2000
   37.9890   25.6420   35.1280 C   0  0  0  0  0  0  0  0  0  0  0  0
   37.7330   26.9420   35.4930 C   0  0  0  0  0  0  0  0  0  0  0  0
   37.1670   27.9060   34.6810 C   0  0  0  0  0  0  0  0  0  0  0  0
   36.8250   27.5480   33.3890 C   0  0  0  0  0  0  0  0  0  0  0  0
   37.0860   26.2370   33.0250 C   0  0  0  0  0  0  0  0  0  0  0  0
   37.6360   25.3560   33.8650 N   0  0  0  0  0  0  0  0  0  0  0  0
   37.9850   27.2740   36.5000 H   0  0  0  0  0  0  0  0  0  0  0  0
   36.9940   28.9060   35.0300 H   0  0  0  0  0  0  0  0  0  0  0  0
   36.8100   25.9730   32.0070 H   0  0  0  0  0  0  0  0  0  0  0  0
   39.7100   23.8870   35.6580 C   0  0  0  0  0  0  0  0  0  0  0  0
   38.5860   24.6570   36.0110 C   0  0  0  0  0  0  0  0  0  0  0  0
   38.0180   24.4710   37.2580 C   0  0  0  0  0  0  0  0  0  0  0  0
   38.6000   23.5340   38.0760 N   0  0  0  0  0  0  0  0  0  0  0  0
   39.6700   22.8150   37.7140 C   0  0  0  0  0  0  0  0  0  0  0  0
   40.2290   22.9830   36.5130 N   0  0  0  0  0  0  0  0  0  0  0  0
   40.0600   24.1230   34.6630 H   0  0  0  0  0  0  0  0  0  0  0  0
   37.1560   25.0020   37.6440 H   0  0  0  0  0  0  0  0  0  0  0  0
   40.1130   22.0820   38.3730 H   0  0  0  0  0  0  0  0  0  0  0  0
   34.8200   29.9690   31.8880 H   0  0  0  0  0  0  0  0  0  0  0  0
   35.0180   29.2500   32.6790 C   0  0  0  0  0  0  0  0  0  0  0  0
   34.2050   29.0730   33.6220 O   0  0  0  0  0  0  0  0  0  0  0  0
   36.2430   28.5450   32.5580 N   0  0  0  0  0  0  0  0  0  0  0  0
   36.9320   28.6760   31.7840 H   0  0  0  0  0  0  0  0  0  0  0  0
  1  2  1  0  0  0  0
  1 11  1  0  0  0  0
  2  7  1  0  0  0  0
  3  8  1  0  0  0  0
  3  2  2  0  0  0  0
  4  3  1  0  0  0  0
  5  4  2  0  0  0  0
  5  6  1  0  0  0  0
  6  1  2  0  0  0  0
  9  5  1  0  0  0  0
 10 11  2  0  0  0  0
 10 15  1  0  0  0  0
 11 12  1  0  0  0  0
 12 17  1  0  0  0  0
 12 13  2  0  0  0  0
 14 13  1  0  0  0  0
 14 18  1  0  0  0  0
 15 14  2  0  0  0  0
 16 10  1  0  0  0  0
 19 20  1  0  0  0  0
 20 21  2  0  0  0  0
 22 20  1  0  0  0  0
 22  4  1  0  0  0  0
 23 22  1  0  0  0  0
M  END
>  <minimizedAffinity>
-4.13791752

$$$$

 OpenBabel03272510103D

 23 24  0  0  0  0  0  0  0  0999 V2000
   37.0500   27.3550   34.0760 C   0  0  0  0  0  0  0  0  0  0  0  0
   37.6510   27.5400   35.2990 C   0  0  0  0  0  0  0  0  0  0  0  0
   38.3420   26.5750   36.0060 C   0  0  0  0  0  0  0  0  0  0  0  0
   38.4460   25.3120   35.4510 C   0  0  0  0  0  0  0  0  0  0  0  0
   37.8380   25.1300   34.2190 C   0  0  0  0  0  0  0  0  0  0  0  0
   37.1860   26.1110   33.5900 N   0  0  0  0  0  0  0  0  0  0  0  0
   37.5970   28.5160   35.7780 H   0  0  0  0  0  0  0  0  0  0  0  0
   38.7890   26.7860   36.9590 H   0  0  0  0  0  0  0  0  0  0  0  0
   37.9310   24.1320   33.7970 H   0  0  0  0  0  0  0  0  0  0  0  0
   36.3790   28.5430   31.9640 C   0  0  0  0  0  0  0  0  0  0  0  0
   36.3320   28.3960   33.3630 C   0  0  0  0  0  0  0  0  0  0  0  0
   35.5670   29.2800   34.1000 C   0  0  0  0  0  0  0  0  0  0  0  0
   34.8960   30.2560   33.4030 N   0  0  0  0  0  0  0  0  0  0  0  0
   34.9590   30.3730   32.0720 C   0  0  0  0  0  0  0  0  0  0  0  0
   35.6940   29.5260   31.3470 N   0  0  0  0  0  0  0  0  0  0  0  0
   37.0080   27.7940   31.5040 H   0  0  0  0  0  0  0  0  0  0  0  0
   35.4500   29.2700   35.1770 H   0  0  0  0  0  0  0  0  0  0  0  0
   34.4230   31.1480   31.5420 H   0  0  0  0  0  0  0  0  0  0  0  0
   39.4910   22.7660   37.5860 H   0  0  0  0  0  0  0  0  0  0  0  0
   38.7220   23.4240   37.1900 C   0  0  0  0  0  0  0  0  0  0  0  0
   37.5370   23.3730   37.6100 O   0  0  0  0  0  0  0  0  0  0  0  0
   39.1590   24.3230   36.1850 N   0  0  0  0  0  0  0  0  0  0  0  0
   40.1360   24.3830   35.8220 H   0  0  0  0  0  0  0  0  0  0  0  0
  1  2  1  0  0  0  0
  2  7  1  0  0  0  0
  2  3  2  0  0  0  0
  3  8  1  0  0  0  0
  4  3  1  0  0  0  0
  4 22  1  0  0  0  0
  5  4  2  0  0  0  0
  6  1  2  0  0  0  0
  6  5  1  0  0  0  0
  9  5  1  0  0  0  0
 10 11  1  0  0  0  0
 11  1  1  0  0  0  0
 11 12  2  0  0  0  0
 12 17  1  0  0  0  0
 13 12  1  0  0  0  0
 14 13  2  0  0  0  0
 15 10  2  0  0  0  0
 15 14  1  0  0  0  0
 16 10  1  0  0  0  0
 18 14  1  0  0  0  0
 20 19  1  0  0  0  0
 20 21  2  0  0  0  0
 22 20  1  0  0  0  0
 23 22  1  0  0  0  0
M  END
>  <minimizedAffinity>
-4.10067177

$$$$

 OpenBabel03272510103D

 23 24  0  0  0  0  0  0  0  0999 V2000
   37.0450   27.3580   34.1250 C   0  0  0  0  0  0  0  0  0  0  0  0
   37.6780   27.5280   35.3330 C   0  0  0  0  0  0  0  0  0  0  0  0
   38.3890   26.5560   36.0090 C   0  0  0  0  0  0  0  0  0  0  0  0
   38.4810   25.3010   35.4360 C   0  0  0  0  0  0  0  0  0  0  0  0
   37.8400   25.1330   34.2180 C   0  0  0  0  0  0  0  0  0  0  0  0
   37.1690   26.1200   33.6200 N   0  0  0  0  0  0  0  0  0  0  0  0
   37.6350   28.4980   35.8260 H   0  0  0  0  0  0  0  0  0  0  0  0
   38.8610   26.7560   36.9530 H   0  0  0  0  0  0  0  0  0  0  0  0
   37.9230   24.1400   33.7820 H   0  0  0  0  0  0  0  0  0  0  0  0
   35.4980   29.3400   34.1180 C   0  0  0  0  0  0  0  0  0  0  0  0
   36.3060   28.4060   33.4440 C   0  0  0  0  0  0  0  0  0  0  0  0
   36.4060   28.4830   32.0670 C   0  0  0  0  0  0  0  0  0  0  0  0
   35.6980   29.4830   31.4460 N   0  0  0  0  0  0  0  0  0  0  0  0
   34.9360   30.3590   32.1120 C   0  0  0  0  0  0  0  0  0  0  0  0
   34.8300   30.2950   33.4420 N   0  0  0  0  0  0  0  0  0  0  0  0
   35.5020   29.1750   35.1870 H   0  0  0  0  0  0  0  0  0  0  0  0
   36.9940   27.8260   31.4380 H   0  0  0  0  0  0  0  0  0  0  0  0
   34.3860   31.1380   31.6050 H   0  0  0  0  0  0  0  0  0  0  0  0
   39.5890   22.7370   37.5180 H   0  0  0  0  0  0  0  0  0  0  0  0
   38.8100   23.4020   37.1540 C   0  0  0  0  0  0  0  0  0  0  0  0
   37.6410   23.3560   37.6170 O   0  0  0  0  0  0  0  0  0  0  0  0
   39.2140   24.3040   36.1370 N   0  0  0  0  0  0  0  0  0  0  0  0
   40.1780   24.3600   35.7390 H   0  0  0  0  0  0  0  0  0  0  0  0
  1  2  1  0  0  0  0
  2  7  1  0  0  0  0
  2  3  2  0  0  0  0
  3  8  1  0  0  0  0
  4  3  1  0  0  0  0
  4 22  1  0  0  0  0
  5  4  2  0  0  0  0
  6  1  2  0  0  0  0
  6  5  1  0  0  0  0
  9  5  1  0  0  0  0
 10 16  1  0  0  0  0
 11 10  1  0  0  0  0
 11  1  1  0  0  0  0
 12 11  2  0  0  0  0
 13 12  1  0  0  0  0
 13 14  2  0  0  0  0
 14 15  1  0  0  0  0
 15 10  2  0  0  0  0
 17 12  1  0  0  0  0
 18 14  1  0  0  0  0
 20 19  1  0  0  0  0
 20 21  2  0  0  0  0
 22 20  1  0  0  0  0
 23 22  1  0  0  0  0
M  END
>  <minimizedAffinity>
-4.09327841

$$$$

 OpenBabel03272510103D

 23 24  0  0  0  0  0  0  0  0999 V2000
   35.5860   29.1810   34.0620 C   0  0  0  0  0  0  0  0  0  0  0  0
   36.5020   28.2270   34.4340 C   0  0  0  0  0  0  0  0  0  0  0  0
   36.9740   27.2110   33.6250 C   0  0  0  0  0  0  0  0  0  0  0  0
   36.4930   27.1340   32.3300 C   0  0  0  0  0  0  0  0  0  0  0  0
   35.5680   28.0980   31.9600 C   0  0  0  0  0  0  0  0  0  0  0  0
   35.1570   29.0540   32.7970 N   0  0  0  0  0  0  0  0  0  0  0  0
   36.9110   28.2430   35.4430 H   0  0  0  0  0  0  0  0  0  0  0  0
   37.6920   26.4950   33.9790 H   0  0  0  0  0  0  0  0  0  0  0  0
   35.2010   28.0230   30.9390 H   0  0  0  0  0  0  0  0  0  0  0  0
   35.9780   31.0910   35.6490 C   0  0  0  0  0  0  0  0  0  0  0  0
   35.1140   30.2350   34.9420 C   0  0  0  0  0  0  0  0  0  0  0  0
   33.7490   30.3980   35.0880 C   0  0  0  0  0  0  0  0  0  0  0  0
   33.3260   31.4010   35.9260 N   0  0  0  0  0  0  0  0  0  0  0  0
   34.1700   32.2020   36.5870 C   0  0  0  0  0  0  0  0  0  0  0  0
   35.4910   32.0560   36.4560 N   0  0  0  0  0  0  0  0  0  0  0  0
   37.0160   30.8640   35.4530 H   0  0  0  0  0  0  0  0  0  0  0  0
   32.9850   29.8040   34.5980 H   0  0  0  0  0  0  0  0  0  0  0  0
   33.8180   32.9860   37.2410 H   0  0  0  0  0  0  0  0  0  0  0  0
   36.9870   24.2450   30.4480 H   0  0  0  0  0  0  0  0  0  0  0  0
   36.3760   24.8710   31.0930 C   0  0  0  0  0  0  0  0  0  0  0  0
   35.2170   24.5230   31.4350 O   0  0  0  0  0  0  0  0  0  0  0  0
   36.9820   26.0860   31.5020 N   0  0  0  0  0  0  0  0  0  0  0  0
   37.9420   26.3940   31.2300 H   0  0  0  0  0  0  0  0  0  0  0  0
  1  2  1  0  0  0  0
  1 11  1  0  0  0  0
  2  7  1  0  0  0  0
  3  8  1  0  0  0  0
  3  2  2  0  0  0  0
  4  3  1  0  0  0  0
  5  4  2  0  0  0  0
  5  6  1  0  0  0  0
  6  1  2  0  0  0  0
  9  5  1  0  0  0  0
 10 15  1  0  0  0  0
 11 12  1  0  0  0  0
 11 10  2  0  0  0  0
 12 13  2  0  0  0  0
 13 14  1  0  0  0  0
 14 18  1  0  0  0  0
 15 14  2  0  0  0  0
 16 10  1  0  0  0  0
 17 12  1  0  0  0  0
 19 20  1  0  0  0  0
 20 21  2  0  0  0  0
 20 22  1  0  0  0  0
 22  4  1  0  0  0  0
 23 22  1  0  0  0  0
M  END
>  <minimizedAffinity>
-4.053792

$$$$

 OpenBabel03272510103D

 23 24  0  0  0  0  0  0  0  0999 V2000
   38.4210   26.3810   34.0180 C   0  0  0  0  0  0  0  0  0  0  0  0
   38.4310   27.0390   35.2250 C   0  0  0  0  0  0  0  0  0  0  0  0
   38.2940   26.4430   36.4630 C   0  0  0  0  0  0  0  0  0  0  0  0
   38.1320   25.0700   36.5100 C   0  0  0  0  0  0  0  0  0  0  0  0
   38.1220   24.4110   35.2910 C   0  0  0  0  0  0  0  0  0  0  0  0
   38.2610   25.0530   34.1280 N   0  0  0  0  0  0  0  0  0  0  0  0
   38.5540   28.1210   35.2430 H   0  0  0  0  0  0  0  0  0  0  0  0
   38.3100   27.0170   37.3710 H   0  0  0  0  0  0  0  0  0  0  0  0
   37.9950   23.3320   35.3460 H   0  0  0  0  0  0  0  0  0  0  0  0
   37.5640   27.8480   32.1640 C   0  0  0  0  0  0  0  0  0  0  0  0
   38.5680   27.0430   32.7350 C   0  0  0  0  0  0  0  0  0  0  0  0
   39.7550   26.8720   32.0460 C   0  0  0  0  0  0  0  0  0  0  0  0
   39.8710   27.5090   30.8340 N   0  0  0  0  0  0  0  0  0  0  0  0
   38.8990   28.2680   30.3150 C   0  0  0  0  0  0  0  0  0  0  0  0
   37.7480   28.4430   30.9690 N   0  0  0  0  0  0  0  0  0  0  0  0
   36.6890   27.9030   32.7960 H   0  0  0  0  0  0  0  0  0  0  0  0
   40.5990   26.2800   32.3790 H   0  0  0  0  0  0  0  0  0  0  0  0
   39.0090   28.7610   29.3600 H   0  0  0  0  0  0  0  0  0  0  0  0
   38.4320   23.1830   39.4230 H   0  0  0  0  0  0  0  0  0  0  0  0
   38.7720   23.4670   38.4300 C   0  0  0  0  0  0  0  0  0  0  0  0
   39.7880   22.9380   37.9100 O   0  0  0  0  0  0  0  0  0  0  0  0
   37.9910   24.4620   37.7880 N   0  0  0  0  0  0  0  0  0  0  0  0
   37.1450   24.9140   38.2010 H   0  0  0  0  0  0  0  0  0  0  0  0
  1  6  2  0  0  0  0
  1  2  1  0  0  0  0
  2  7  1  0  0  0  0
  2  3  2  0  0  0  0
  3  4  1  0  0  0  0
  3  8  1  0  0  0  0
  4 22  1  0  0  0  0
  5  9  1  0  0  0  0
  5  4  2  0  0  0  0
  6  5  1  0  0  0  0
 10 11  1  0  0  0  0
 10 16  1  0  0  0  0
 11  1  1  0  0  0  0
 12 17  1  0  0  0  0
 12 11  2  0  0  0  0
 13 12  1  0  0  0  0
 14 13  2  0  0  0  0
 14 15  1  0  0  0  0
 15 10  2  0  0  0  0
 18 14  1  0  0  0  0
 20 19  1  0  0  0  0
 21 20  2  0  0  0  0
 22 23  1  0  0  0  0
 22 20  1  0  0  0  0
M  END
>  <minimizedAffinity>
-4.03688383

$$$$

 OpenBabel03272510103D

 23 24  0  0  0  0  0  0  0  0999 V2000
   36.2770   22.7420   31.4690 C   0  0  0  0  0  0  0  0  0  0  0  0
   35.2980   23.7070   31.4820 C   0  0  0  0  0  0  0  0  0  0  0  0
   35.4870   25.0430   31.1870 C   0  0  0  0  0  0  0  0  0  0  0  0
   36.7620   25.4600   30.8490 C   0  0  0  0  0  0  0  0  0  0  0  0
   37.7450   24.4830   30.8380 C   0  0  0  0  0  0  0  0  0  0  0  0
   37.4900   23.2070   31.1340 N   0  0  0  0  0  0  0  0  0  0  0  0
   34.2770   23.4300   31.7420 H   0  0  0  0  0  0  0  0  0  0  0  0
   34.6770   25.7480   31.2150 H   0  0  0  0  0  0  0  0  0  0  0  0
   38.7410   24.8290   30.5700 H   0  0  0  0  0  0  0  0  0  0  0  0
   36.1950   20.3060   30.8500 C   0  0  0  0  0  0  0  0  0  0  0  0
   36.0380   21.3450   31.7860 C   0  0  0  0  0  0  0  0  0  0  0  0
   35.6380   21.0280   33.0700 C   0  0  0  0  0  0  0  0  0  0  0  0
   35.4190   19.7010   33.3470 N   0  0  0  0  0  0  0  0  0  0  0  0
   35.5760   18.7320   32.4370 C   0  0  0  0  0  0  0  0  0  0  0  0
   35.9620   19.0230   31.1920 N   0  0  0  0  0  0  0  0  0  0  0  0
   36.5100   20.6800   29.8860 H   0  0  0  0  0  0  0  0  0  0  0  0
   35.4840   21.7360   33.8770 H   0  0  0  0  0  0  0  0  0  0  0  0
   35.3980   17.6930   32.6740 H   0  0  0  0  0  0  0  0  0  0  0  0
   37.2840   28.9040   30.8900 H   0  0  0  0  0  0  0  0  0  0  0  0
   37.1720   27.9490   31.3980 C   0  0  0  0  0  0  0  0  0  0  0  0
   37.2390   27.8630   32.6510 O   0  0  0  0  0  0  0  0  0  0  0  0
   36.9500   26.8380   30.5460 N   0  0  0  0  0  0  0  0  0  0  0  0
   36.8910   26.8870   29.5040 H   0  0  0  0  0  0  0  0  0  0  0  0
  1  2  1  0  0  0  0
  1 11  1  0  0  0  0
  2  7  1  0  0  0  0
  3  8  1  0  0  0  0
  3  2  2  0  0  0  0
  4  3  1  0  0  0  0
  5  4  2  0  0  0  0
  5  6  1  0  0  0  0
  6  1  2  0  0  0  0
  9  5  1  0  0  0  0
 10 15  2  0  0  0  0
 10 11  1  0  0  0  0
 11 12  2  0  0  0  0
 12 13  1  0  0  0  0
 12 17  1  0  0  0  0
 14 18  1  0  0  0  0
 14 13  2  0  0  0  0
 15 14  1  0  0  0  0
 16 10  1  0  0  0  0
 19 20  1  0  0  0  0
 20 21  2  0  0  0  0
 22  4  1  0  0  0  0
 22 20  1  0  0  0  0
 23 22  1  0  0  0  0
M  END
>  <minimizedAffinity>
-4.02711153

$$$$
