
 OpenBabel03272507593D

 28 29  0  0  0  0  0  0  0  0999 V2000
   38.8600   26.2870   32.6990 C   0  0  0  0  0  0  0  0  0  0  0  0
   39.1110   25.7960   34.0150 C   0  0  0  0  0  0  0  0  0  0  0  0
   38.4170   24.6700   34.4480 C   0  0  0  0  0  0  0  0  0  0  0  0
   37.5280   24.0960   33.5780 N   0  0  0  0  0  0  0  0  0  0  0  0
   37.3160   24.5910   32.3320 C   0  0  0  0  0  0  0  0  0  0  0  0
   37.9700   25.6730   31.8930 N   0  0  0  0  0  0  0  0  0  0  0  0
   36.3560   23.8270   31.6220 N   0  0  0  0  0  0  0  0  0  0  0  0
   39.3980   27.1630   32.3600 H   0  0  0  0  0  0  0  0  0  0  0  0
   35.4460   23.5900   32.0520 H   0  0  0  0  0  0  0  0  0  0  0  0
   36.6920   23.5660   30.6710 H   0  0  0  0  0  0  0  0  0  0  0  0
   38.6500   24.1460   35.7790 C   0  0  0  0  0  0  0  0  0  0  0  0
   37.8770   24.7950   36.7460 C   0  0  0  0  0  0  0  0  0  0  0  0
   37.9850   24.4090   38.0740 C   0  0  0  0  0  0  0  0  0  0  0  0
   38.8430   23.4000   38.4290 C   0  0  0  0  0  0  0  0  0  0  0  0
   39.5950   22.7790   37.4470 C   0  0  0  0  0  0  0  0  0  0  0  0
   39.4770   23.1680   36.1600 N   0  0  0  0  0  0  0  0  0  0  0  0
   37.1580   25.6040   36.6220 H   0  0  0  0  0  0  0  0  0  0  0  0
   37.4320   24.8500   38.8850 H   0  0  0  0  0  0  0  0  0  0  0  0
   39.0260   23.0020   39.4170 H   0  0  0  0  0  0  0  0  0  0  0  0
   42.6010   20.9830   37.3370 H   0  0  0  0  0  0  0  0  0  0  0  0
   41.9000   21.8090   37.2230 C   0  0  0  0  0  0  0  0  0  0  0  0
   42.3530   22.8870   36.7420 O   0  0  0  0  0  0  0  0  0  0  0  0
   40.5460   21.7160   37.5830 N   0  0  0  0  0  0  0  0  0  0  0  0
   40.1870   20.8140   37.9800 H   0  0  0  0  0  0  0  0  0  0  0  0
   40.1060   26.5190   34.8560 C   0  0  0  0  0  0  0  0  0  0  0  0
   41.0430   25.6280   35.3720 F   0  0  0  0  0  0  0  0  0  0  0  0
   40.7590   27.4240   34.0790 F   0  0  0  0  0  0  0  0  0  0  0  0
   39.5360   27.1840   35.9160 F   0  0  0  0  0  0  0  0  0  0  0  0
  1  2  1  0  0  0  0
  2  3  2  0  0  0  0
  2 25  1  0  0  0  0
  3 11  1  0  0  0  0
  4  3  1  0  0  0  0
  5  4  2  0  0  0  0
  6  5  1  0  0  0  0
  6  1  2  0  0  0  0
  7  9  1  0  0  0  0
  7  5  1  0  0  0  0
  8  1  1  0  0  0  0
 10  7  1  0  0  0  0
 11 16  2  0  0  0  0
 11 12  1  0  0  0  0
 12 13  2  0  0  0  0
 13 14  1  0  0  0  0
 13 18  1  0  0  0  0
 14 19  1  0  0  0  0
 15 23  1  0  0  0  0
 15 14  2  0  0  0  0
 16 15  1  0  0  0  0
 17 12  1  0  0  0  0
 21 20  1  0  0  0  0
 21 23  1  0  0  0  0
 22 21  2  0  0  0  0
 23 24  1  0  0  0  0
 25 26  1  0  0  0  0
 25 28  1  0  0  0  0
 27 25  1  0  0  0  0
M  END
>  <minimizedAffinity>
-5.94154358

$$$$

 OpenBabel03272507593D

 28 29  0  0  0  0  0  0  0  0999 V2000
   37.4240   23.7510   32.2160 C   0  0  0  0  0  0  0  0  0  0  0  0
   37.7190   23.3230   33.5440 C   0  0  0  0  0  0  0  0  0  0  0  0
   38.2830   24.2380   34.4280 C   0  0  0  0  0  0  0  0  0  0  0  0
   38.5230   25.5060   33.9660 N   0  0  0  0  0  0  0  0  0  0  0  0
   38.2290   25.8770   32.6940 C   0  0  0  0  0  0  0  0  0  0  0  0
   37.6870   25.0160   31.8250 N   0  0  0  0  0  0  0  0  0  0  0  0
   38.5650   27.2330   32.4540 N   0  0  0  0  0  0  0  0  0  0  0  0
   36.9860   23.0410   31.5260 H   0  0  0  0  0  0  0  0  0  0  0  0
   39.4990   27.5980   32.7070 H   0  0  0  0  0  0  0  0  0  0  0  0
   37.7790   27.7580   32.0160 H   0  0  0  0  0  0  0  0  0  0  0  0
   38.5930   23.8340   35.7850 C   0  0  0  0  0  0  0  0  0  0  0  0
   37.8210   24.5170   36.7300 C   0  0  0  0  0  0  0  0  0  0  0  0
   37.9990   24.2430   38.0780 C   0  0  0  0  0  0  0  0  0  0  0  0
   38.9230   23.3110   38.4740 C   0  0  0  0  0  0  0  0  0  0  0  0
   39.6710   22.6530   37.5130 C   0  0  0  0  0  0  0  0  0  0  0  0
   39.4840   22.9330   36.2060 N   0  0  0  0  0  0  0  0  0  0  0  0
   37.0560   25.2760   36.5740 H   0  0  0  0  0  0  0  0  0  0  0  0
   37.4530   24.7170   38.8740 H   0  0  0  0  0  0  0  0  0  0  0  0
   39.1630   23.0010   39.4820 H   0  0  0  0  0  0  0  0  0  0  0  0
   42.7630   21.0090   37.4190 H   0  0  0  0  0  0  0  0  0  0  0  0
   42.0150   21.7870   37.2700 C   0  0  0  0  0  0  0  0  0  0  0  0
   42.3920   22.8450   36.6890 O   0  0  0  0  0  0  0  0  0  0  0  0
   40.6820   21.6530   37.6920 N   0  0  0  0  0  0  0  0  0  0  0  0
   40.3870   20.7690   38.1710 H   0  0  0  0  0  0  0  0  0  0  0  0
   37.4050   21.9140   33.9140 C   0  0  0  0  0  0  0  0  0  0  0  0
   36.4860   21.3710   33.0200 F   0  0  0  0  0  0  0  0  0  0  0  0
   38.5490   21.1810   33.8480 F   0  0  0  0  0  0  0  0  0  0  0  0
   36.8800   21.7920   35.1780 F   0  0  0  0  0  0  0  0  0  0  0  0
  1  2  1  0  0  0  0
  2 25  1  0  0  0  0
  2  3  2  0  0  0  0
  3 11  1  0  0  0  0
  4  3  1  0  0  0  0
  5  4  2  0  0  0  0
  6  1  2  0  0  0  0
  6  5  1  0  0  0  0
  7  5  1  0  0  0  0
  7  9  1  0  0  0  0
  8  1  1  0  0  0  0
 10  7  1  0  0  0  0
 11 16  2  0  0  0  0
 11 12  1  0  0  0  0
 12 13  2  0  0  0  0
 13 14  1  0  0  0  0
 13 18  1  0  0  0  0
 14 19  1  0  0  0  0
 15 23  1  0  0  0  0
 15 14  2  0  0  0  0
 16 15  1  0  0  0  0
 17 12  1  0  0  0  0
 21 20  1  0  0  0  0
 21 23  1  0  0  0  0
 22 21  2  0  0  0  0
 23 24  1  0  0  0  0
 25 28  1  0  0  0  0
 26 25  1  0  0  0  0
 27 25  1  0  0  0  0
M  END
>  <minimizedAffinity>
-5.51332712

$$$$

 OpenBabel03272507593D

 28 29  0  0  0  0  0  0  0  0999 V2000
   37.1590   26.8610   33.6220 C   0  0  0  0  0  0  0  0  0  0  0  0
   38.0320   26.1970   34.5340 C   0  0  0  0  0  0  0  0  0  0  0  0
   38.3060   24.8480   34.3300 C   0  0  0  0  0  0  0  0  0  0  0  0
   37.7150   24.2340   33.2560 N   0  0  0  0  0  0  0  0  0  0  0  0
   36.8900   24.8990   32.4090 C   0  0  0  0  0  0  0  0  0  0  0  0
   36.6110   26.1960   32.5850 N   0  0  0  0  0  0  0  0  0  0  0  0
   36.4060   24.0550   31.3790 N   0  0  0  0  0  0  0  0  0  0  0  0
   36.9440   27.9110   33.7790 H   0  0  0  0  0  0  0  0  0  0  0  0
   35.9930   23.1330   31.6020 H   0  0  0  0  0  0  0  0  0  0  0  0
   36.5260   24.4820   30.4360 H   0  0  0  0  0  0  0  0  0  0  0  0
   39.1900   24.1450   35.2370 C   0  0  0  0  0  0  0  0  0  0  0  0
   38.5180   23.6670   36.3660 C   0  0  0  0  0  0  0  0  0  0  0  0
   39.2250   22.9700   37.3350 C   0  0  0  0  0  0  0  0  0  0  0  0
   40.5710   22.7550   37.1810 C   0  0  0  0  0  0  0  0  0  0  0  0
   41.2060   23.2430   36.0520 C   0  0  0  0  0  0  0  0  0  0  0  0
   40.5010   23.9180   35.1200 N   0  0  0  0  0  0  0  0  0  0  0  0
   37.4640   23.7560   36.6280 H   0  0  0  0  0  0  0  0  0  0  0  0
   38.7950   22.5670   38.2340 H   0  0  0  0  0  0  0  0  0  0  0  0
   41.2400   22.2330   37.8500 H   0  0  0  0  0  0  0  0  0  0  0  0
   44.4850   24.1280   35.1930 H   0  0  0  0  0  0  0  0  0  0  0  0
   43.4380   24.2370   35.4720 C   0  0  0  0  0  0  0  0  0  0  0  0
   42.9950   25.4140   35.6040 O   0  0  0  0  0  0  0  0  0  0  0  0
   42.5870   23.1390   35.6850 N   0  0  0  0  0  0  0  0  0  0  0  0
   42.9720   22.1700   35.5700 H   0  0  0  0  0  0  0  0  0  0  0  0
   38.6060   26.9870   35.6590 C   0  0  0  0  0  0  0  0  0  0  0  0
   39.9920   27.0510   35.5510 F   0  0  0  0  0  0  0  0  0  0  0  0
   38.1140   28.2540   35.5980 F   0  0  0  0  0  0  0  0  0  0  0  0
   38.3080   26.4630   36.8950 F   0  0  0  0  0  0  0  0  0  0  0  0
  1  8  1  0  0  0  0
  1  2  1  0  0  0  0
  2 25  1  0  0  0  0
  3  2  2  0  0  0  0
  3 11  1  0  0  0  0
  4  3  1  0  0  0  0
  5  6  1  0  0  0  0
  5  4  2  0  0  0  0
  6  1  2  0  0  0  0
  7  9  1  0  0  0  0
  7  5  1  0  0  0  0
 10  7  1  0  0  0  0
 11 12  1  0  0  0  0
 12 17  1  0  0  0  0
 12 13  2  0  0  0  0
 13 18  1  0  0  0  0
 14 13  1  0  0  0  0
 14 19  1  0  0  0  0
 15 14  2  0  0  0  0
 16 11  2  0  0  0  0
 16 15  1  0  0  0  0
 20 21  1  0  0  0  0
 21 22  2  0  0  0  0
 21 23  1  0  0  0  0
 23 15  1  0  0  0  0
 24 23  1  0  0  0  0
 25 28  1  0  0  0  0
 26 25  1  0  0  0  0
 27 25  1  0  0  0  0
M  END
>  <minimizedAffinity>
-5.38313246

$$$$

 OpenBabel03272507593D

 28 29  0  0  0  0  0  0  0  0999 V2000
   40.9110   23.1020   36.6230 C   0  0  0  0  0  0  0  0  0  0  0  0
   40.2950   23.9610   35.6650 C   0  0  0  0  0  0  0  0  0  0  0  0
   38.9650   24.3230   35.8540 C   0  0  0  0  0  0  0  0  0  0  0  0
   38.3210   23.8280   36.9590 N   0  0  0  0  0  0  0  0  0  0  0  0
   38.9410   23.0120   37.8490 C   0  0  0  0  0  0  0  0  0  0  0  0
   40.2190   22.6500   37.6890 N   0  0  0  0  0  0  0  0  0  0  0  0
   38.0740   22.6350   38.9050 N   0  0  0  0  0  0  0  0  0  0  0  0
   41.9460   22.8190   36.4770 H   0  0  0  0  0  0  0  0  0  0  0  0
   37.1290   22.2640   38.7040 H   0  0  0  0  0  0  0  0  0  0  0  0
   38.5100   22.7810   39.8390 H   0  0  0  0  0  0  0  0  0  0  0  0
   38.3110   25.1950   34.9000 C   0  0  0  0  0  0  0  0  0  0  0  0
   37.9650   26.4280   35.4600 C   0  0  0  0  0  0  0  0  0  0  0  0
   37.3290   27.3780   34.6740 C   0  0  0  0  0  0  0  0  0  0  0  0
   37.0460   27.1040   33.3600 C   0  0  0  0  0  0  0  0  0  0  0  0
   37.4010   25.8730   32.8370 C   0  0  0  0  0  0  0  0  0  0  0  0
   38.0190   24.9620   33.6170 N   0  0  0  0  0  0  0  0  0  0  0  0
   38.1220   26.7900   36.4750 H   0  0  0  0  0  0  0  0  0  0  0  0
   37.0260   28.3510   35.0170 H   0  0  0  0  0  0  0  0  0  0  0  0
   36.5590   27.7450   32.6390 H   0  0  0  0  0  0  0  0  0  0  0  0
   36.3320   23.8670   30.1710 H   0  0  0  0  0  0  0  0  0  0  0  0
   36.4620   24.2250   31.1920 C   0  0  0  0  0  0  0  0  0  0  0  0
   35.9090   23.5570   32.1120 O   0  0  0  0  0  0  0  0  0  0  0  0
   37.2070   25.3730   31.5080 N   0  0  0  0  0  0  0  0  0  0  0  0
   37.6600   25.9150   30.7320 H   0  0  0  0  0  0  0  0  0  0  0  0
   41.1140   24.4260   34.5100 C   0  0  0  0  0  0  0  0  0  0  0  0
   42.4620   24.1590   34.7310 F   0  0  0  0  0  0  0  0  0  0  0  0
   40.7210   23.7500   33.3970 F   0  0  0  0  0  0  0  0  0  0  0  0
   40.9900   25.7740   34.2680 F   0  0  0  0  0  0  0  0  0  0  0  0
  1  6  1  0  0  0  0
  2  3  1  0  0  0  0
  2  1  2  0  0  0  0
  3  4  2  0  0  0  0
  4  5  1  0  0  0  0
  5  7  1  0  0  0  0
  6  5  2  0  0  0  0
  7 10  1  0  0  0  0
  8  1  1  0  0  0  0
  9  7  1  0  0  0  0
 11 12  1  0  0  0  0
 11  3  1  0  0  0  0
 12 17  1  0  0  0  0
 13 18  1  0  0  0  0
 13 12  2  0  0  0  0
 14 13  1  0  0  0  0
 15 14  2  0  0  0  0
 15 16  1  0  0  0  0
 16 11  2  0  0  0  0
 19 14  1  0  0  0  0
 20 21  1  0  0  0  0
 21 23  1  0  0  0  0
 21 22  2  0  0  0  0
 23 15  1  0  0  0  0
 24 23  1  0  0  0  0
 25 26  1  0  0  0  0
 25  2  1  0  0  0  0
 27 25  1  0  0  0  0
 28 25  1  0  0  0  0
M  END
>  <minimizedAffinity>
-5.18506289

$$$$

 OpenBabel03272507593D

 28 29  0  0  0  0  0  0  0  0999 V2000
   36.8750   27.9150   33.3400 C   0  0  0  0  0  0  0  0  0  0  0  0
   37.5080   26.8190   34.0000 C   0  0  0  0  0  0  0  0  0  0  0  0
   37.4840   25.5700   33.3860 C   0  0  0  0  0  0  0  0  0  0  0  0
   36.8480   25.4670   32.1760 N   0  0  0  0  0  0  0  0  0  0  0  0
   36.2570   26.5330   31.5790 C   0  0  0  0  0  0  0  0  0  0  0  0
   36.2660   27.7430   32.1480 N   0  0  0  0  0  0  0  0  0  0  0  0
   35.6710   26.1780   30.3380 N   0  0  0  0  0  0  0  0  0  0  0  0
   36.8920   28.8870   33.8150 H   0  0  0  0  0  0  0  0  0  0  0  0
   35.0450   25.3570   30.2650 H   0  0  0  0  0  0  0  0  0  0  0  0
   35.9510   26.8280   29.5740 H   0  0  0  0  0  0  0  0  0  0  0  0
   38.1180   24.4380   34.0300 C   0  0  0  0  0  0  0  0  0  0  0  0
   39.4710   24.3270   33.6920 C   0  0  0  0  0  0  0  0  0  0  0  0
   40.2220   23.2910   34.2280 C   0  0  0  0  0  0  0  0  0  0  0  0
   39.6390   22.3880   35.0800 C   0  0  0  0  0  0  0  0  0  0  0  0
   38.2970   22.5260   35.3920 C   0  0  0  0  0  0  0  0  0  0  0  0
   37.5820   23.5410   34.8620 N   0  0  0  0  0  0  0  0  0  0  0  0
   40.0700   24.9580   33.0380 H   0  0  0  0  0  0  0  0  0  0  0  0
   41.2650   23.1260   34.0260 H   0  0  0  0  0  0  0  0  0  0  0  0
   40.1010   21.5400   35.5650 H   0  0  0  0  0  0  0  0  0  0  0  0
   35.7410   20.4060   36.5060 H   0  0  0  0  0  0  0  0  0  0  0  0
   36.3380   21.0180   35.8310 C   0  0  0  0  0  0  0  0  0  0  0  0
   35.9580   21.0910   34.6280 O   0  0  0  0  0  0  0  0  0  0  0  0
   37.4870   21.7110   36.2480 N   0  0  0  0  0  0  0  0  0  0  0  0
   37.7880   21.6400   37.2510 H   0  0  0  0  0  0  0  0  0  0  0  0
   38.1630   27.0740   35.3130 C   0  0  0  0  0  0  0  0  0  0  0  0
   39.5470   27.0910   35.1700 F   0  0  0  0  0  0  0  0  0  0  0  0
   37.7650   28.2920   35.7700 F   0  0  0  0  0  0  0  0  0  0  0  0
   37.8530   26.1300   36.2630 F   0  0  0  0  0  0  0  0  0  0  0  0
  1  8  1  0  0  0  0
  1  2  1  0  0  0  0
  2 25  1  0  0  0  0
  3  2  2  0  0  0  0
  3 11  1  0  0  0  0
  4  3  1  0  0  0  0
  5  6  1  0  0  0  0
  5  4  2  0  0  0  0
  6  1  2  0  0  0  0
  7  5  1  0  0  0  0
  9  7  1  0  0  0  0
 10  7  1  0  0  0  0
 11 16  1  0  0  0  0
 12 11  2  0  0  0  0
 12 13  1  0  0  0  0
 13 14  2  0  0  0  0
 14 15  1  0  0  0  0
 14 19  1  0  0  0  0
 15 23  1  0  0  0  0
 16 15  2  0  0  0  0
 17 12  1  0  0  0  0
 18 13  1  0  0  0  0
 21 23  1  0  0  0  0
 21 20  1  0  0  0  0
 22 21  2  0  0  0  0
 23 24  1  0  0  0  0
 25 27  1  0  0  0  0
 25 28  1  0  0  0  0
 26 25  1  0  0  0  0
M  END
>  <minimizedAffinity>
-5.18116379

$$$$

 OpenBabel03272507593D

 28 29  0  0  0  0  0  0  0  0999 V2000
   38.1530   25.1810   36.7210 C   0  0  0  0  0  0  0  0  0  0  0  0
   38.3780   25.6570   35.3950 C   0  0  0  0  0  0  0  0  0  0  0  0
   38.3110   24.7490   34.3420 C   0  0  0  0  0  0  0  0  0  0  0  0
   38.0320   23.4420   34.6450 N   0  0  0  0  0  0  0  0  0  0  0  0
   37.8240   23.0260   35.9200 C   0  0  0  0  0  0  0  0  0  0  0  0
   37.8830   23.8790   36.9490 N   0  0  0  0  0  0  0  0  0  0  0  0
   37.5510   21.6360   35.9790 N   0  0  0  0  0  0  0  0  0  0  0  0
   38.2040   25.8850   37.5410 H   0  0  0  0  0  0  0  0  0  0  0  0
   38.1630   20.9570   35.4950 H   0  0  0  0  0  0  0  0  0  0  0  0
   36.7010   21.4290   36.5440 H   0  0  0  0  0  0  0  0  0  0  0  0
   38.5330   25.2010   32.9840 C   0  0  0  0  0  0  0  0  0  0  0  0
   39.8020   24.8530   32.5110 C   0  0  0  0  0  0  0  0  0  0  0  0
   40.1710   25.2150   31.2240 C   0  0  0  0  0  0  0  0  0  0  0  0
   39.2950   25.9080   30.4270 C   0  0  0  0  0  0  0  0  0  0  0  0
   38.0470   26.2380   30.9260 C   0  0  0  0  0  0  0  0  0  0  0  0
   37.7060   25.8770   32.1810 N   0  0  0  0  0  0  0  0  0  0  0  0
   40.5990   24.3100   33.0170 H   0  0  0  0  0  0  0  0  0  0  0  0
   41.1220   24.9920   30.7750 H   0  0  0  0  0  0  0  0  0  0  0  0
   39.4490   26.2500   29.4140 H   0  0  0  0  0  0  0  0  0  0  0  0
   35.6260   28.6750   30.2410 H   0  0  0  0  0  0  0  0  0  0  0  0
   36.4360   28.1560   30.7520 C   0  0  0  0  0  0  0  0  0  0  0  0
   36.8830   28.6830   31.8100 O   0  0  0  0  0  0  0  0  0  0  0  0
   36.9830   26.9490   30.2830 N   0  0  0  0  0  0  0  0  0  0  0  0
   36.5990   26.5250   29.4030 H   0  0  0  0  0  0  0  0  0  0  0  0
   38.6710   27.1060   35.2090 C   0  0  0  0  0  0  0  0  0  0  0  0
   37.5800   27.7530   34.6360 F   0  0  0  0  0  0  0  0  0  0  0  0
   38.9060   27.6630   36.4270 F   0  0  0  0  0  0  0  0  0  0  0  0
   39.7620   27.3370   34.4050 F   0  0  0  0  0  0  0  0  0  0  0  0
  1  6  1  0  0  0  0
  1  8  1  0  0  0  0
  2  1  2  0  0  0  0
  3  4  2  0  0  0  0
  3  2  1  0  0  0  0
  4  5  1  0  0  0  0
  5  7  1  0  0  0  0
  5  6  2  0  0  0  0
  7 10  1  0  0  0  0
  9  7  1  0  0  0  0
 11  3  1  0  0  0  0
 12 11  1  0  0  0  0
 12 17  1  0  0  0  0
 13 12  2  0  0  0  0
 14 15  2  0  0  0  0
 14 13  1  0  0  0  0
 15 16  1  0  0  0  0
 16 11  2  0  0  0  0
 18 13  1  0  0  0  0
 19 14  1  0  0  0  0
 20 21  1  0  0  0  0
 21 22  2  0  0  0  0
 23 21  1  0  0  0  0
 23 15  1  0  0  0  0
 24 23  1  0  0  0  0
 25  2  1  0  0  0  0
 25 27  1  0  0  0  0
 26 25  1  0  0  0  0
 28 25  1  0  0  0  0
M  END
>  <minimizedAffinity>
-5.13627481

$$$$

 OpenBabel03272507593D

 28 29  0  0  0  0  0  0  0  0999 V2000
   36.1440   20.8150   33.6130 C   0  0  0  0  0  0  0  0  0  0  0  0
   37.2990   21.6460   33.7080 C   0  0  0  0  0  0  0  0  0  0  0  0
   37.6700   22.1290   34.9590 C   0  0  0  0  0  0  0  0  0  0  0  0
   36.8950   21.7750   36.0340 N   0  0  0  0  0  0  0  0  0  0  0  0
   35.8020   20.9810   35.9040 C   0  0  0  0  0  0  0  0  0  0  0  0
   35.4260   20.5040   34.7120 N   0  0  0  0  0  0  0  0  0  0  0  0
   35.1700   20.7540   37.1520 N   0  0  0  0  0  0  0  0  0  0  0  0
   35.8540   20.4380   32.6400 H   0  0  0  0  0  0  0  0  0  0  0  0
   34.9440   21.5440   37.7810 H   0  0  0  0  0  0  0  0  0  0  0  0
   34.9850   19.7420   37.3170 H   0  0  0  0  0  0  0  0  0  0  0  0
   38.8390   22.9750   35.0890 C   0  0  0  0  0  0  0  0  0  0  0  0
   39.9750   22.2530   35.4660 C   0  0  0  0  0  0  0  0  0  0  0  0
   41.1790   22.9200   35.6340 C   0  0  0  0  0  0  0  0  0  0  0  0
   41.2490   24.2750   35.4300 C   0  0  0  0  0  0  0  0  0  0  0  0
   40.1050   24.9600   35.0580 C   0  0  0  0  0  0  0  0  0  0  0  0
   38.9420   24.2940   34.9000 N   0  0  0  0  0  0  0  0  0  0  0  0
   40.0780   21.1870   35.6620 H   0  0  0  0  0  0  0  0  0  0  0  0
   42.1030   22.4500   35.9210 H   0  0  0  0  0  0  0  0  0  0  0  0
   42.1140   24.9160   35.5240 H   0  0  0  0  0  0  0  0  0  0  0  0
   38.9680   28.2660   35.2780 H   0  0  0  0  0  0  0  0  0  0  0  0
   39.0710   27.2040   35.5010 C   0  0  0  0  0  0  0  0  0  0  0  0
   38.3620   26.7410   36.4390 O   0  0  0  0  0  0  0  0  0  0  0  0
   39.9430   26.3590   34.7950 N   0  0  0  0  0  0  0  0  0  0  0  0
   40.5230   26.7610   34.0190 H   0  0  0  0  0  0  0  0  0  0  0  0
   38.0500   21.9520   32.4570 C   0  0  0  0  0  0  0  0  0  0  0  0
   37.4890   21.2760   31.3770 F   0  0  0  0  0  0  0  0  0  0  0  0
   37.9670   23.2880   32.2150 F   0  0  0  0  0  0  0  0  0  0  0  0
   39.3770   21.6020   32.5250 F   0  0  0  0  0  0  0  0  0  0  0  0
  1  2  2  0  0  0  0
  1  6  1  0  0  0  0
  2  3  1  0  0  0  0
  3 11  1  0  0  0  0
  3  4  2  0  0  0  0
  5  4  1  0  0  0  0
  5  7  1  0  0  0  0
  6  5  2  0  0  0  0
  7 10  1  0  0  0  0
  7  9  1  0  0  0  0
  8  1  1  0  0  0  0
 11 12  1  0  0  0  0
 12 13  2  0  0  0  0
 12 17  1  0  0  0  0
 13 18  1  0  0  0  0
 14 19  1  0  0  0  0
 14 13  1  0  0  0  0
 15 14  2  0  0  0  0
 16 15  1  0  0  0  0
 16 11  2  0  0  0  0
 20 21  1  0  0  0  0
 21 22  2  0  0  0  0
 23 15  1  0  0  0  0
 23 21  1  0  0  0  0
 24 23  1  0  0  0  0
 25 28  1  0  0  0  0
 25  2  1  0  0  0  0
 26 25  1  0  0  0  0
 27 25  1  0  0  0  0
M  END
>  <minimizedAffinity>
-5.1026206

$$$$

 OpenBabel03272507593D

 28 29  0  0  0  0  0  0  0  0999 V2000
   36.6530   22.6820   32.0490 C   0  0  0  0  0  0  0  0  0  0  0  0
   37.4230   23.4590   32.9650 C   0  0  0  0  0  0  0  0  0  0  0  0
   37.3050   24.8450   32.9240 C   0  0  0  0  0  0  0  0  0  0  0  0
   36.4490   25.3840   32.0000 N   0  0  0  0  0  0  0  0  0  0  0  0
   35.7310   24.6120   31.1440 C   0  0  0  0  0  0  0  0  0  0  0  0
   35.8280   23.2780   31.1640 N   0  0  0  0  0  0  0  0  0  0  0  0
   34.9180   25.3960   30.2880 N   0  0  0  0  0  0  0  0  0  0  0  0
   36.7440   21.6030   32.0780 H   0  0  0  0  0  0  0  0  0  0  0  0
   35.3160   26.1980   29.7700 H   0  0  0  0  0  0  0  0  0  0  0  0
   33.9330   25.0580   30.2690 H   0  0  0  0  0  0  0  0  0  0  0  0
   38.0730   25.6620   33.8410 C   0  0  0  0  0  0  0  0  0  0  0  0
   37.2680   26.2690   34.8100 C   0  0  0  0  0  0  0  0  0  0  0  0
   37.8540   27.0860   35.7660 C   0  0  0  0  0  0  0  0  0  0  0  0
   39.2100   27.2930   35.7550 C   0  0  0  0  0  0  0  0  0  0  0  0
   39.9780   26.6780   34.7810 C   0  0  0  0  0  0  0  0  0  0  0  0
   39.3900   25.8860   33.8600 N   0  0  0  0  0  0  0  0  0  0  0  0
   36.1900   26.2020   34.9490 H   0  0  0  0  0  0  0  0  0  0  0  0
   37.3180   27.5940   36.5470 H   0  0  0  0  0  0  0  0  0  0  0  0
   39.7940   27.9000   36.4330 H   0  0  0  0  0  0  0  0  0  0  0  0
   43.0860   27.2710   33.2800 H   0  0  0  0  0  0  0  0  0  0  0  0
   42.0050   27.2290   33.4070 C   0  0  0  0  0  0  0  0  0  0  0  0
   41.2950   27.6340   32.4430 O   0  0  0  0  0  0  0  0  0  0  0  0
   41.3940   26.7500   34.5780 N   0  0  0  0  0  0  0  0  0  0  0  0
   41.9990   26.4170   35.3670 H   0  0  0  0  0  0  0  0  0  0  0  0
   38.3150   22.7410   33.9180 C   0  0  0  0  0  0  0  0  0  0  0  0
   39.6510   22.9830   33.6090 F   0  0  0  0  0  0  0  0  0  0  0  0
   38.0760   23.2070   35.1730 F   0  0  0  0  0  0  0  0  0  0  0  0
   38.1260   21.3800   33.9140 F   0  0  0  0  0  0  0  0  0  0  0  0
  1  8  1  0  0  0  0
  1  2  1  0  0  0  0
  2 25  1  0  0  0  0
  3  2  2  0  0  0  0
  3 11  1  0  0  0  0
  4  3  1  0  0  0  0
  5  6  1  0  0  0  0
  5  4  2  0  0  0  0
  6  1  2  0  0  0  0
  7  5  1  0  0  0  0
  9  7  1  0  0  0  0
 10  7  1  0  0  0  0
 11 16  2  0  0  0  0
 11 12  1  0  0  0  0
 12 17  1  0  0  0  0
 12 13  2  0  0  0  0
 13 18  1  0  0  0  0
 14 13  1  0  0  0  0
 14 19  1  0  0  0  0
 15 14  2  0  0  0  0
 16 15  1  0  0  0  0
 20 21  1  0  0  0  0
 21 23  1  0  0  0  0
 22 21  2  0  0  0  0
 23 15  1  0  0  0  0
 23 24  1  0  0  0  0
 25 27  1  0  0  0  0
 26 25  1  0  0  0  0
 28 25  1  0  0  0  0
M  END
>  <minimizedAffinity>
-5.07296991

$$$$

 OpenBabel03272507593D

 28 29  0  0  0  0  0  0  0  0999 V2000
   38.1180   24.4940   36.2460 C   0  0  0  0  0  0  0  0  0  0  0  0
   38.1500   25.5270   35.2630 C   0  0  0  0  0  0  0  0  0  0  0  0
   38.0530   25.1710   33.9210 C   0  0  0  0  0  0  0  0  0  0  0  0
   37.9310   23.8380   33.6230 N   0  0  0  0  0  0  0  0  0  0  0  0
   37.9040   22.8830   34.5870 C   0  0  0  0  0  0  0  0  0  0  0  0
   37.9960   23.2000   35.8830 N   0  0  0  0  0  0  0  0  0  0  0  0
   37.7690   21.5850   34.0330 N   0  0  0  0  0  0  0  0  0  0  0  0
   38.1940   24.7680   37.2910 H   0  0  0  0  0  0  0  0  0  0  0  0
   38.3840   21.2730   33.2630 H   0  0  0  0  0  0  0  0  0  0  0  0
   37.0090   21.0420   34.4940 H   0  0  0  0  0  0  0  0  0  0  0  0
   38.0810   26.1960   32.8980 C   0  0  0  0  0  0  0  0  0  0  0  0
   39.3600   26.3720   32.3600 C   0  0  0  0  0  0  0  0  0  0  0  0
   39.5550   27.3210   31.3670 C   0  0  0  0  0  0  0  0  0  0  0  0
   38.5000   28.0750   30.9200 C   0  0  0  0  0  0  0  0  0  0  0  0
   37.2480   27.8760   31.4750 C   0  0  0  0  0  0  0  0  0  0  0  0
   37.0770   26.9490   32.4400 N   0  0  0  0  0  0  0  0  0  0  0  0
   40.2860   25.8560   32.6070 H   0  0  0  0  0  0  0  0  0  0  0  0
   40.5000   27.5260   30.8960 H   0  0  0  0  0  0  0  0  0  0  0  0
   38.5090   28.8430   30.1590 H   0  0  0  0  0  0  0  0  0  0  0  0
   34.3240   29.7730   31.8330 H   0  0  0  0  0  0  0  0  0  0  0  0
   35.2590   29.2780   32.0950 C   0  0  0  0  0  0  0  0  0  0  0  0
   35.6550   29.3880   33.2900 O   0  0  0  0  0  0  0  0  0  0  0  0
   36.0160   28.5410   31.1680 N   0  0  0  0  0  0  0  0  0  0  0  0
   35.6710   28.4600   30.1810 H   0  0  0  0  0  0  0  0  0  0  0  0
   38.2860   26.9360   35.7280 C   0  0  0  0  0  0  0  0  0  0  0  0
   37.1940   27.6910   35.3130 F   0  0  0  0  0  0  0  0  0  0  0  0
   38.3200   26.9440   37.0880 F   0  0  0  0  0  0  0  0  0  0  0  0
   39.4220   27.5520   35.2590 F   0  0  0  0  0  0  0  0  0  0  0  0
  1  8  1  0  0  0  0
  2 25  1  0  0  0  0
  2  1  2  0  0  0  0
  3  2  1  0  0  0  0
  4  3  2  0  0  0  0
  4  5  1  0  0  0  0
  5  6  2  0  0  0  0
  6  1  1  0  0  0  0
  7 10  1  0  0  0  0
  7  5  1  0  0  0  0
  9  7  1  0  0  0  0
 11  3  1  0  0  0  0
 12 17  1  0  0  0  0
 12 11  2  0  0  0  0
 13 12  1  0  0  0  0
 14 13  2  0  0  0  0
 14 15  1  0  0  0  0
 15 16  2  0  0  0  0
 16 11  1  0  0  0  0
 18 13  1  0  0  0  0
 19 14  1  0  0  0  0
 20 21  1  0  0  0  0
 21 22  2  0  0  0  0
 23 15  1  0  0  0  0
 23 21  1  0  0  0  0
 24 23  1  0  0  0  0
 25 27  1  0  0  0  0
 26 25  1  0  0  0  0
 28 25  1  0  0  0  0
M  END
>  <minimizedAffinity>
-5.04298496

$$$$
