
 OpenBabel03272508193D

 27 28  0  0  0  0  0  0  0  0999 V2000
   38.2080   24.6420   35.3180 C   0  0  0  0  0  0  0  0  0  0  0  0
   37.9210   23.5680   36.1680 C   0  0  0  0  0  0  0  0  0  0  0  0
   37.7530   22.3740   35.4700 C   0  0  0  0  0  0  0  0  0  0  0  0
   37.8570   22.2940   34.1280 N   0  0  0  0  0  0  0  0  0  0  0  0
   38.1310   23.3460   33.3580 C   0  0  0  0  0  0  0  0  0  0  0  0
   38.3060   24.5210   33.9520 N   0  0  0  0  0  0  0  0  0  0  0  0
   37.5270   21.4690   36.0190 H   0  0  0  0  0  0  0  0  0  0  0  0
   38.2470   23.4530   32.2930 H   0  0  0  0  0  0  0  0  0  0  0  0
   38.5100   25.9620   36.0120 C   0  0  0  0  0  0  0  0  0  0  0  0
   39.1350   27.0340   35.3390 C   0  0  0  0  0  0  0  0  0  0  0  0
   37.6220   27.0760   35.3600 C   0  0  0  0  0  0  0  0  0  0  0  0
   38.3170   25.9550   37.1230 H   0  0  0  0  0  0  0  0  0  0  0  0
   39.5950   26.8600   34.3230 H   0  0  0  0  0  0  0  0  0  0  0  0
   39.6090   27.8520   35.9180 H   0  0  0  0  0  0  0  0  0  0  0  0
   37.1270   27.7330   36.0900 H   0  0  0  0  0  0  0  0  0  0  0  0
   37.0620   26.8460   34.4640 H   0  0  0  0  0  0  0  0  0  0  0  0
   37.7900   23.6890   37.6130 C   0  0  0  0  0  0  0  0  0  0  0  0
   37.0600   22.9260   37.9540 H   0  0  0  0  0  0  0  0  0  0  0  0
   37.3520   24.6820   37.9330 H   0  0  0  0  0  0  0  0  0  0  0  0
   39.0440   23.5510   38.3940 C   0  0  0  0  0  0  0  0  0  0  0  0
   39.7410   24.3900   38.1620 H   0  0  0  0  0  0  0  0  0  0  0  0
   38.7910   23.6840   39.4710 H   0  0  0  0  0  0  0  0  0  0  0  0
   41.3310   21.0980   37.3900 H   0  0  0  0  0  0  0  0  0  0  0  0
   40.8700   22.0910   37.4760 C   0  0  0  0  0  0  0  0  0  0  0  0
   41.4020   23.0530   36.8860 O   0  0  0  0  0  0  0  0  0  0  0  0
   39.6900   22.2830   38.2440 N   0  0  0  0  0  0  0  0  0  0  0  0
   39.3170   21.4010   38.7060 H   0  0  0  0  0  0  0  0  0  0  0  0
  1  9  1  0  0  0  0
  1  2  1  0  0  0  0
  2 17  1  0  0  0  0
  3  7  1  0  0  0  0
  3  2  2  0  0  0  0
  4  3  1  0  0  0  0
  5  6  1  0  0  0  0
  5  4  2  0  0  0  0
  6  1  2  0  0  0  0
  8  5  1  0  0  0  0
  9 12  1  0  0  0  0
 10 11  1  0  0  0  0
 10 14  1  0  0  0  0
 10  9  1  0  0  0  0
 11  9  1  0  0  0  0
 11 15  1  0  0  0  0
 13 10  1  0  0  0  0
 16 11  1  0  0  0  0
 17 19  1  0  0  0  0
 17 18  1  0  0  0  0
 17 20  1  0  0  0  0
 20 22  1  0  0  0  0
 21 20  1  0  0  0  0
 23 24  1  0  0  0  0
 24 26  1  0  0  0  0
 25 24  2  0  0  0  0
 26 20  1  0  0  0  0
 26 27  1  0  0  0  0
M  END
>  <minimizedAffinity>
-4.24661589

$$$$

 OpenBabel03272508193D

 27 28  0  0  0  0  0  0  0  0999 V2000
   39.3970   25.4290   35.4910 C   0  0  0  0  0  0  0  0  0  0  0  0
   39.3780   24.0900   35.8960 C   0  0  0  0  0  0  0  0  0  0  0  0
   40.5460   23.4180   35.5460 C   0  0  0  0  0  0  0  0  0  0  0  0
   41.5620   24.0140   34.8890 N   0  0  0  0  0  0  0  0  0  0  0  0
   41.5350   25.2950   34.5220 C   0  0  0  0  0  0  0  0  0  0  0  0
   40.4520   26.0030   34.8210 N   0  0  0  0  0  0  0  0  0  0  0  0
   40.6520   22.3720   35.8060 H   0  0  0  0  0  0  0  0  0  0  0  0
   42.2450   25.9140   34.0020 H   0  0  0  0  0  0  0  0  0  0  0  0
   38.2010   26.2610   35.9290 C   0  0  0  0  0  0  0  0  0  0  0  0
   38.0380   27.6050   35.5280 C   0  0  0  0  0  0  0  0  0  0  0  0
   37.3330   26.5810   34.6630 C   0  0  0  0  0  0  0  0  0  0  0  0
   37.5440   25.7590   36.6950 H   0  0  0  0  0  0  0  0  0  0  0  0
   38.8950   28.1440   35.0280 H   0  0  0  0  0  0  0  0  0  0  0  0
   37.3440   28.2700   36.0810 H   0  0  0  0  0  0  0  0  0  0  0  0
   36.2550   26.4230   34.8130 H   0  0  0  0  0  0  0  0  0  0  0  0
   37.7220   26.3400   33.6840 H   0  0  0  0  0  0  0  0  0  0  0  0
   38.2560   23.4650   36.5830 C   0  0  0  0  0  0  0  0  0  0  0  0
   37.4720   24.2380   36.7270 H   0  0  0  0  0  0  0  0  0  0  0  0
   38.5210   23.1120   37.6240 H   0  0  0  0  0  0  0  0  0  0  0  0
   37.6610   22.2820   35.9130 C   0  0  0  0  0  0  0  0  0  0  0  0
   37.3230   22.5460   34.8850 H   0  0  0  0  0  0  0  0  0  0  0  0
   38.4720   21.5330   35.7600 H   0  0  0  0  0  0  0  0  0  0  0  0
   34.8120   20.3980   36.6770 H   0  0  0  0  0  0  0  0  0  0  0  0
   35.5960   20.8610   36.0640 C   0  0  0  0  0  0  0  0  0  0  0  0
   35.5780   20.6780   34.8310 O   0  0  0  0  0  0  0  0  0  0  0  0
   36.6140   21.6540   36.6590 N   0  0  0  0  0  0  0  0  0  0  0  0
   36.5380   21.7480   37.7150 H   0  0  0  0  0  0  0  0  0  0  0  0
  1  2  1  0  0  0  0
  1  9  1  0  0  0  0
  2 17  1  0  0  0  0
  3  7  1  0  0  0  0
  3  2  2  0  0  0  0
  4  3  1  0  0  0  0
  5  6  1  0  0  0  0
  5  4  2  0  0  0  0
  6  1  2  0  0  0  0
  8  5  1  0  0  0  0
  9 12  1  0  0  0  0
 10  9  1  0  0  0  0
 10 14  1  0  0  0  0
 11 15  1  0  0  0  0
 11 10  1  0  0  0  0
 11  9  1  0  0  0  0
 13 10  1  0  0  0  0
 16 11  1  0  0  0  0
 17 18  1  0  0  0  0
 17 19  1  0  0  0  0
 20 17  1  0  0  0  0
 20 26  1  0  0  0  0
 21 20  1  0  0  0  0
 22 20  1  0  0  0  0
 24 26  1  0  0  0  0
 24 23  1  0  0  0  0
 25 24  2  0  0  0  0
 26 27  1  0  0  0  0
M  END
>  <minimizedAffinity>
-3.93994164

$$$$

 OpenBabel03272508193D

 27 28  0  0  0  0  0  0  0  0999 V2000
   38.0940   25.0490   36.2870 C   0  0  0  0  0  0  0  0  0  0  0  0
   38.0400   23.7400   35.7960 C   0  0  0  0  0  0  0  0  0  0  0  0
   37.9440   22.7980   36.8180 C   0  0  0  0  0  0  0  0  0  0  0  0
   37.9120   23.1390   38.1230 N   0  0  0  0  0  0  0  0  0  0  0  0
   37.9660   24.4020   38.5430 C   0  0  0  0  0  0  0  0  0  0  0  0
   38.0590   25.3580   37.6260 N   0  0  0  0  0  0  0  0  0  0  0  0
   37.8950   21.7460   36.5650 H   0  0  0  0  0  0  0  0  0  0  0  0
   37.9520   24.8390   39.5270 H   0  0  0  0  0  0  0  0  0  0  0  0
   38.0930   26.1430   35.2290 C   0  0  0  0  0  0  0  0  0  0  0  0
   38.2310   27.5070   35.5650 C   0  0  0  0  0  0  0  0  0  0  0  0
   39.5170   26.7970   35.1970 C   0  0  0  0  0  0  0  0  0  0  0  0
   37.8420   25.7820   34.1910 H   0  0  0  0  0  0  0  0  0  0  0  0
   38.1530   27.8240   36.6460 H   0  0  0  0  0  0  0  0  0  0  0  0
   37.9340   28.2900   34.8390 H   0  0  0  0  0  0  0  0  0  0  0  0
   39.9190   26.9360   34.1820 H   0  0  0  0  0  0  0  0  0  0  0  0
   40.2320   26.5400   35.9650 H   0  0  0  0  0  0  0  0  0  0  0  0
   38.1020   23.3990   34.3820 C   0  0  0  0  0  0  0  0  0  0  0  0
   39.0360   23.8330   33.9680 H   0  0  0  0  0  0  0  0  0  0  0  0
   37.2660   23.8660   33.7800 H   0  0  0  0  0  0  0  0  0  0  0  0
   38.0480   21.9520   34.0580 C   0  0  0  0  0  0  0  0  0  0  0  0
   39.0190   21.6120   33.6280 H   0  0  0  0  0  0  0  0  0  0  0  0
   37.9530   21.3910   35.0170 H   0  0  0  0  0  0  0  0  0  0  0  0
   34.9580   20.6770   33.0170 H   0  0  0  0  0  0  0  0  0  0  0  0
   35.7760   20.9420   33.7000 C   0  0  0  0  0  0  0  0  0  0  0  0
   35.6570   20.6730   34.9120 O   0  0  0  0  0  0  0  0  0  0  0  0
   36.9500   21.5810   33.2180 N   0  0  0  0  0  0  0  0  0  0  0  0
   36.9530   21.7660   32.1710 H   0  0  0  0  0  0  0  0  0  0  0  0
  1  6  1  0  0  0  0
  2  1  2  0  0  0  0
  2  3  1  0  0  0  0
  3  4  2  0  0  0  0
  4  5  1  0  0  0  0
  5  8  1  0  0  0  0
  6  5  2  0  0  0  0
  7  3  1  0  0  0  0
  9 10  1  0  0  0  0
  9  1  1  0  0  0  0
 10 13  1  0  0  0  0
 11  9  1  0  0  0  0
 11 10  1  0  0  0  0
 11 16  1  0  0  0  0
 12  9  1  0  0  0  0
 14 10  1  0  0  0  0
 15 11  1  0  0  0  0
 17  2  1  0  0  0  0
 18 17  1  0  0  0  0
 19 17  1  0  0  0  0
 20 17  1  0  0  0  0
 20 22  1  0  0  0  0
 21 20  1  0  0  0  0
 23 24  1  0  0  0  0
 24 25  2  0  0  0  0
 26 24  1  0  0  0  0
 26 20  1  0  0  0  0
 27 26  1  0  0  0  0
M  END
>  <minimizedAffinity>
-3.91005087

$$$$

 OpenBabel03272508193D

 27 28  0  0  0  0  0  0  0  0999 V2000
   38.8940   24.6510   34.5230 C   0  0  0  0  0  0  0  0  0  0  0  0
   39.4550   23.4120   34.8530 C   0  0  0  0  0  0  0  0  0  0  0  0
   38.9630   22.3820   34.0550 C   0  0  0  0  0  0  0  0  0  0  0  0
   38.0500   22.5850   33.0840 N   0  0  0  0  0  0  0  0  0  0  0  0
   37.5430   23.7850   32.8060 C   0  0  0  0  0  0  0  0  0  0  0  0
   37.9630   24.8190   33.5250 N   0  0  0  0  0  0  0  0  0  0  0  0
   39.3230   21.3730   34.2140 H   0  0  0  0  0  0  0  0  0  0  0  0
   36.8200   24.1150   32.0790 H   0  0  0  0  0  0  0  0  0  0  0  0
   39.4580   25.8450   35.2790 C   0  0  0  0  0  0  0  0  0  0  0  0
   38.9800   27.1560   35.0680 C   0  0  0  0  0  0  0  0  0  0  0  0
   38.3350   26.4090   36.2160 C   0  0  0  0  0  0  0  0  0  0  0  0
   40.3630   25.6090   35.9080 H   0  0  0  0  0  0  0  0  0  0  0  0
   38.2990   27.3650   34.1920 H   0  0  0  0  0  0  0  0  0  0  0  0
   39.5850   28.0270   35.3910 H   0  0  0  0  0  0  0  0  0  0  0  0
   38.6780   26.6250   37.2390 H   0  0  0  0  0  0  0  0  0  0  0  0
   37.3280   26.0300   36.1170 H   0  0  0  0  0  0  0  0  0  0  0  0
   40.4220   23.2180   35.9240 C   0  0  0  0  0  0  0  0  0  0  0  0
   40.6030   24.2030   36.4020 H   0  0  0  0  0  0  0  0  0  0  0  0
   41.4340   22.8810   35.5460 H   0  0  0  0  0  0  0  0  0  0  0  0
   40.0500   22.2280   36.9650 C   0  0  0  0  0  0  0  0  0  0  0  0
   39.2340   21.5650   36.5970 H   0  0  0  0  0  0  0  0  0  0  0  0
   40.9200   21.5480   37.1160 H   0  0  0  0  0  0  0  0  0  0  0  0
   38.2170   23.7500   39.5310 H   0  0  0  0  0  0  0  0  0  0  0  0
   38.4270   23.3130   38.5450 C   0  0  0  0  0  0  0  0  0  0  0  0
   37.5090   23.2680   37.7020 O   0  0  0  0  0  0  0  0  0  0  0  0
   39.7170   22.8080   38.2310 N   0  0  0  0  0  0  0  0  0  0  0  0
   40.4280   22.8940   39.0170 H   0  0  0  0  0  0  0  0  0  0  0  0
  1  2  1  0  0  0  0
  1  9  1  0  0  0  0
  2 17  1  0  0  0  0
  3  7  1  0  0  0  0
  3  2  2  0  0  0  0
  4  3  1  0  0  0  0
  5  4  2  0  0  0  0
  5  6  1  0  0  0  0
  6  1  2  0  0  0  0
  8  5  1  0  0  0  0
  9 12  1  0  0  0  0
  9 11  1  0  0  0  0
 10  9  1  0  0  0  0
 10 14  1  0  0  0  0
 10 11  1  0  0  0  0
 11 15  1  0  0  0  0
 13 10  1  0  0  0  0
 16 11  1  0  0  0  0
 17 18  1  0  0  0  0
 17 20  1  0  0  0  0
 19 17  1  0  0  0  0
 20 22  1  0  0  0  0
 20 26  1  0  0  0  0
 21 20  1  0  0  0  0
 24 23  1  0  0  0  0
 25 24  2  0  0  0  0
 26 24  1  0  0  0  0
 26 27  1  0  0  0  0
M  END
>  <minimizedAffinity>
-3.84683609

$$$$

 OpenBabel03272508193D

 27 28  0  0  0  0  0  0  0  0999 V2000
   39.9640   25.9430   34.9900 C   0  0  0  0  0  0  0  0  0  0  0  0
   40.3750   24.6070   35.0530 C   0  0  0  0  0  0  0  0  0  0  0  0
   41.6780   24.4350   34.5880 C   0  0  0  0  0  0  0  0  0  0  0  0
   42.4300   25.4580   34.1330 N   0  0  0  0  0  0  0  0  0  0  0  0
   41.9930   26.7160   34.0910 C   0  0  0  0  0  0  0  0  0  0  0  0
   40.7600   26.9600   34.5180 N   0  0  0  0  0  0  0  0  0  0  0  0
   42.1110   23.4430   34.5870 H   0  0  0  0  0  0  0  0  0  0  0  0
   42.4550   27.6310   33.7640 H   0  0  0  0  0  0  0  0  0  0  0  0
   38.5900   26.2310   35.5780 C   0  0  0  0  0  0  0  0  0  0  0  0
   38.0500   27.5350   35.6120 C   0  0  0  0  0  0  0  0  0  0  0  0
   37.6460   26.6970   34.4170 C   0  0  0  0  0  0  0  0  0  0  0  0
   38.1140   25.3490   36.0940 H   0  0  0  0  0  0  0  0  0  0  0  0
   38.7140   28.4170   35.3740 H   0  0  0  0  0  0  0  0  0  0  0  0
   37.2080   27.7700   36.2940 H   0  0  0  0  0  0  0  0  0  0  0  0
   36.6570   26.2140   34.4280 H   0  0  0  0  0  0  0  0  0  0  0  0
   38.0690   26.9020   33.4440 H   0  0  0  0  0  0  0  0  0  0  0  0
   39.5320   23.5190   35.5270 C   0  0  0  0  0  0  0  0  0  0  0  0
   39.6400   22.6710   34.8180 H   0  0  0  0  0  0  0  0  0  0  0  0
   38.4320   23.7780   35.5140 H   0  0  0  0  0  0  0  0  0  0  0  0
   39.8000   23.0410   36.9060 C   0  0  0  0  0  0  0  0  0  0  0  0
   40.6040   22.2700   36.9020 H   0  0  0  0  0  0  0  0  0  0  0  0
   40.2290   23.8920   37.4840 H   0  0  0  0  0  0  0  0  0  0  0  0
   36.9670   22.9970   38.9620 H   0  0  0  0  0  0  0  0  0  0  0  0
   37.8520   23.3980   38.4510 C   0  0  0  0  0  0  0  0  0  0  0  0
   38.1580   24.5940   38.6310 O   0  0  0  0  0  0  0  0  0  0  0  0
   38.6380   22.5760   37.5990 N   0  0  0  0  0  0  0  0  0  0  0  0
   38.2930   21.5740   37.5140 H   0  0  0  0  0  0  0  0  0  0  0  0
  1  2  1  0  0  0  0
  1  9  1  0  0  0  0
  2 17  1  0  0  0  0
  3  2  2  0  0  0  0
  4  3  1  0  0  0  0
  5  4  2  0  0  0  0
  5  6  1  0  0  0  0
  6  1  2  0  0  0  0
  7  3  1  0  0  0  0
  8  5  1  0  0  0  0
  9 10  1  0  0  0  0
  9 12  1  0  0  0  0
 10 14  1  0  0  0  0
 11 15  1  0  0  0  0
 11  9  1  0  0  0  0
 11 10  1  0  0  0  0
 13 10  1  0  0  0  0
 16 11  1  0  0  0  0
 17 20  1  0  0  0  0
 18 17  1  0  0  0  0
 19 17  1  0  0  0  0
 20 22  1  0  0  0  0
 20 26  1  0  0  0  0
 21 20  1  0  0  0  0
 24 25  2  0  0  0  0
 24 23  1  0  0  0  0
 26 24  1  0  0  0  0
 27 26  1  0  0  0  0
M  END
>  <minimizedAffinity>
-3.78948164

$$$$

 OpenBabel03272508193D

 27 28  0  0  0  0  0  0  0  0999 V2000
   36.2680   22.2480   32.3670 C   0  0  0  0  0  0  0  0  0  0  0  0
   37.4310   22.6300   33.0460 C   0  0  0  0  0  0  0  0  0  0  0  0
   37.7100   23.9860   32.8900 C   0  0  0  0  0  0  0  0  0  0  0  0
   36.9320   24.8110   32.1600 N   0  0  0  0  0  0  0  0  0  0  0  0
   35.8320   24.4010   31.5300 C   0  0  0  0  0  0  0  0  0  0  0  0
   35.4990   23.1190   31.6320 N   0  0  0  0  0  0  0  0  0  0  0  0
   38.5860   24.4040   33.3690 H   0  0  0  0  0  0  0  0  0  0  0  0
   35.1130   24.9180   30.9180 H   0  0  0  0  0  0  0  0  0  0  0  0
   35.8360   20.8040   32.5740 C   0  0  0  0  0  0  0  0  0  0  0  0
   34.6570   20.2870   31.9960 C   0  0  0  0  0  0  0  0  0  0  0  0
   35.9230   20.0620   31.1970 C   0  0  0  0  0  0  0  0  0  0  0  0
   36.4580   20.2380   33.3250 H   0  0  0  0  0  0  0  0  0  0  0  0
   33.9130   20.9930   31.5250 H   0  0  0  0  0  0  0  0  0  0  0  0
   34.2100   19.3520   32.3890 H   0  0  0  0  0  0  0  0  0  0  0  0
   36.4090   19.0770   31.2530 H   0  0  0  0  0  0  0  0  0  0  0  0
   36.1060   20.6370   30.3000 H   0  0  0  0  0  0  0  0  0  0  0  0
   38.2660   21.7120   33.8060 C   0  0  0  0  0  0  0  0  0  0  0  0
   39.0590   21.3330   33.1290 H   0  0  0  0  0  0  0  0  0  0  0  0
   37.7060   20.7920   34.1510 H   0  0  0  0  0  0  0  0  0  0  0  0
   38.8920   22.2650   35.0330 C   0  0  0  0  0  0  0  0  0  0  0  0
   39.9310   21.8800   35.1470 H   0  0  0  0  0  0  0  0  0  0  0  0
   39.0120   23.3640   34.8880 H   0  0  0  0  0  0  0  0  0  0  0  0
   36.9380   22.9010   37.8670 H   0  0  0  0  0  0  0  0  0  0  0  0
   37.5170   23.1100   36.9570 C   0  0  0  0  0  0  0  0  0  0  0  0
   37.6300   24.2920   36.5770 O   0  0  0  0  0  0  0  0  0  0  0  0
   38.1270   22.0570   36.2240 N   0  0  0  0  0  0  0  0  0  0  0  0
   37.9700   21.0880   36.6320 H   0  0  0  0  0  0  0  0  0  0  0  0
  1  9  1  0  0  0  0
  1  2  1  0  0  0  0
  2 17  1  0  0  0  0
  3  2  2  0  0  0  0
  3  7  1  0  0  0  0
  4  3  1  0  0  0  0
  5  6  1  0  0  0  0
  5  4  2  0  0  0  0
  6  1  2  0  0  0  0
  8  5  1  0  0  0  0
  9 12  1  0  0  0  0
 10 14  1  0  0  0  0
 10  9  1  0  0  0  0
 11 15  1  0  0  0  0
 11 10  1  0  0  0  0
 11  9  1  0  0  0  0
 13 10  1  0  0  0  0
 16 11  1  0  0  0  0
 17 19  1  0  0  0  0
 17 20  1  0  0  0  0
 18 17  1  0  0  0  0
 20 21  1  0  0  0  0
 20 26  1  0  0  0  0
 22 20  1  0  0  0  0
 24 23  1  0  0  0  0
 25 24  2  0  0  0  0
 26 27  1  0  0  0  0
 26 24  1  0  0  0  0
M  END
>  <minimizedAffinity>
-3.74348712

$$$$

 OpenBabel03272508193D

 27 28  0  0  0  0  0  0  0  0999 V2000
   39.0310   24.9530   35.8880 C   0  0  0  0  0  0  0  0  0  0  0  0
   39.0810   26.3010   35.5140 C   0  0  0  0  0  0  0  0  0  0  0  0
   40.2540   26.6140   34.8300 C   0  0  0  0  0  0  0  0  0  0  0  0
   41.2140   25.7020   34.5740 N   0  0  0  0  0  0  0  0  0  0  0  0
   41.1210   24.4270   34.9510 C   0  0  0  0  0  0  0  0  0  0  0  0
   40.0300   24.0520   35.6090 N   0  0  0  0  0  0  0  0  0  0  0  0
   40.4100   27.6290   34.4870 H   0  0  0  0  0  0  0  0  0  0  0  0
   41.7830   23.5870   34.8290 H   0  0  0  0  0  0  0  0  0  0  0  0
   37.7340   24.5070   36.5470 C   0  0  0  0  0  0  0  0  0  0  0  0
   37.5820   23.2170   37.0990 C   0  0  0  0  0  0  0  0  0  0  0  0
   38.0070   24.2940   38.0760 C   0  0  0  0  0  0  0  0  0  0  0  0
   36.8820   25.2380   36.4350 H   0  0  0  0  0  0  0  0  0  0  0  0
   38.3610   22.4270   36.8900 H   0  0  0  0  0  0  0  0  0  0  0  0
   36.5690   22.8140   37.2990 H   0  0  0  0  0  0  0  0  0  0  0  0
   37.2420   24.7380   38.7300 H   0  0  0  0  0  0  0  0  0  0  0  0
   39.0250   24.3240   38.4380 H   0  0  0  0  0  0  0  0  0  0  0  0
   38.0400   27.2700   35.8260 C   0  0  0  0  0  0  0  0  0  0  0  0
   38.5190   28.1310   36.3380 H   0  0  0  0  0  0  0  0  0  0  0  0
   37.2780   26.8740   36.5620 H   0  0  0  0  0  0  0  0  0  0  0  0
   37.2450   27.7640   34.6750 C   0  0  0  0  0  0  0  0  0  0  0  0
   36.3340   28.2970   35.0310 H   0  0  0  0  0  0  0  0  0  0  0  0
   37.8450   28.5470   34.1570 H   0  0  0  0  0  0  0  0  0  0  0  0
   37.0110   26.0210   31.6470 H   0  0  0  0  0  0  0  0  0  0  0  0
   37.2870   26.8220   32.3470 C   0  0  0  0  0  0  0  0  0  0  0  0
   37.9350   27.7960   31.9170 O   0  0  0  0  0  0  0  0  0  0  0  0
   36.9150   26.7540   33.7160 N   0  0  0  0  0  0  0  0  0  0  0  0
   36.3640   25.8830   33.9800 H   0  0  0  0  0  0  0  0  0  0  0  0
  1  9  1  0  0  0  0
  2 17  1  0  0  0  0
  2  1  2  0  0  0  0
  3  2  1  0  0  0  0
  4  3  2  0  0  0  0
  4  5  1  0  0  0  0
  5  6  2  0  0  0  0
  6  1  1  0  0  0  0
  7  3  1  0  0  0  0
  8  5  1  0  0  0  0
  9 10  1  0  0  0  0
  9 11  1  0  0  0  0
 10 14  1  0  0  0  0
 10 11  1  0  0  0  0
 11 16  1  0  0  0  0
 11 15  1  0  0  0  0
 12  9  1  0  0  0  0
 13 10  1  0  0  0  0
 17 18  1  0  0  0  0
 17 19  1  0  0  0  0
 20 21  1  0  0  0  0
 20 17  1  0  0  0  0
 22 20  1  0  0  0  0
 23 24  1  0  0  0  0
 24 26  1  0  0  0  0
 25 24  2  0  0  0  0
 26 27  1  0  0  0  0
 26 20  1  0  0  0  0
M  END
>  <minimizedAffinity>
-3.72621703

$$$$

 OpenBabel03272508193D

 27 28  0  0  0  0  0  0  0  0999 V2000
   37.0130   27.7150   33.5100 C   0  0  0  0  0  0  0  0  0  0  0  0
   36.1790   28.8200   33.3150 C   0  0  0  0  0  0  0  0  0  0  0  0
   36.1910   29.2610   31.9930 C   0  0  0  0  0  0  0  0  0  0  0  0
   36.9340   28.6720   31.0350 N   0  0  0  0  0  0  0  0  0  0  0  0
   37.7170   27.6190   31.2690 C   0  0  0  0  0  0  0  0  0  0  0  0
   37.7580   27.1400   32.5070 N   0  0  0  0  0  0  0  0  0  0  0  0
   35.5830   30.1130   31.7150 H   0  0  0  0  0  0  0  0  0  0  0  0
   38.3620   27.0400   30.6310 H   0  0  0  0  0  0  0  0  0  0  0  0
   36.9750   27.1060   34.9050 C   0  0  0  0  0  0  0  0  0  0  0  0
   37.8450   26.0630   35.2890 C   0  0  0  0  0  0  0  0  0  0  0  0
   38.3170   27.4610   35.6330 C   0  0  0  0  0  0  0  0  0  0  0  0
   36.1170   27.4650   35.5420 H   0  0  0  0  0  0  0  0  0  0  0  0
   38.4570   25.5320   34.5040 H   0  0  0  0  0  0  0  0  0  0  0  0
   37.6110   25.4440   36.1780 H   0  0  0  0  0  0  0  0  0  0  0  0
   38.1800   27.8200   36.6640 H   0  0  0  0  0  0  0  0  0  0  0  0
   39.1180   27.9160   35.0690 H   0  0  0  0  0  0  0  0  0  0  0  0
   35.4060   29.4520   34.3740 C   0  0  0  0  0  0  0  0  0  0  0  0
   35.6440   28.9330   35.3260 H   0  0  0  0  0  0  0  0  0  0  0  0
   34.2900   29.3260   34.2380 H   0  0  0  0  0  0  0  0  0  0  0  0
   35.6110   30.9120   34.5470 C   0  0  0  0  0  0  0  0  0  0  0  0
   36.3850   31.2830   33.8360 H   0  0  0  0  0  0  0  0  0  0  0  0
   34.6730   31.4270   34.2360 H   0  0  0  0  0  0  0  0  0  0  0  0
   35.2360   32.2050   37.7790 H   0  0  0  0  0  0  0  0  0  0  0  0
   34.9620   31.9210   36.7540 C   0  0  0  0  0  0  0  0  0  0  0  0
   33.8010   32.1480   36.3590 O   0  0  0  0  0  0  0  0  0  0  0  0
   35.9080   31.3050   35.8900 N   0  0  0  0  0  0  0  0  0  0  0  0
   36.8680   31.1560   36.3230 H   0  0  0  0  0  0  0  0  0  0  0  0
  1  9  1  0  0  0  0
  2  1  1  0  0  0  0
  2 17  1  0  0  0  0
  3  2  2  0  0  0  0
  4  5  2  0  0  0  0
  4  3  1  0  0  0  0
  5  6  1  0  0  0  0
  6  1  2  0  0  0  0
  7  3  1  0  0  0  0
  8  5  1  0  0  0  0
  9 10  1  0  0  0  0
  9 12  1  0  0  0  0
  9 11  1  0  0  0  0
 10 11  1  0  0  0  0
 10 14  1  0  0  0  0
 11 15  1  0  0  0  0
 13 10  1  0  0  0  0
 16 11  1  0  0  0  0
 17 20  1  0  0  0  0
 17 18  1  0  0  0  0
 19 17  1  0  0  0  0
 20 26  1  0  0  0  0
 21 20  1  0  0  0  0
 22 20  1  0  0  0  0
 24 23  1  0  0  0  0
 25 24  2  0  0  0  0
 26 27  1  0  0  0  0
 26 24  1  0  0  0  0
M  END
>  <minimizedAffinity>
-3.71804285

$$$$

 OpenBabel03272508193D

 27 28  0  0  0  0  0  0  0  0999 V2000
   38.7130   24.8620   36.0060 C   0  0  0  0  0  0  0  0  0  0  0  0
   39.8350   24.0840   35.7000 C   0  0  0  0  0  0  0  0  0  0  0  0
   40.0560   23.0850   36.6450 C   0  0  0  0  0  0  0  0  0  0  0  0
   39.2640   22.9130   37.7230 N   0  0  0  0  0  0  0  0  0  0  0  0
   38.2050   23.6820   37.9740 C   0  0  0  0  0  0  0  0  0  0  0  0
   37.9290   24.6580   37.1170 N   0  0  0  0  0  0  0  0  0  0  0  0
   40.8970   22.4140   36.5180 H   0  0  0  0  0  0  0  0  0  0  0  0
   37.4830   23.6810   38.7720 H   0  0  0  0  0  0  0  0  0  0  0  0
   38.3410   25.9090   34.9660 C   0  0  0  0  0  0  0  0  0  0  0  0
   37.2230   26.7550   35.1240 C   0  0  0  0  0  0  0  0  0  0  0  0
   38.5410   27.3270   35.6020 C   0  0  0  0  0  0  0  0  0  0  0  0
   38.9480   25.8550   34.0170 H   0  0  0  0  0  0  0  0  0  0  0  0
   36.4720   26.5380   35.9390 H   0  0  0  0  0  0  0  0  0  0  0  0
   36.8010   27.2880   34.2480 H   0  0  0  0  0  0  0  0  0  0  0  0
   39.0710   28.0360   34.9490 H   0  0  0  0  0  0  0  0  0  0  0  0
   38.7440   27.4060   36.6610 H   0  0  0  0  0  0  0  0  0  0  0  0
   40.6870   24.3070   34.5400 C   0  0  0  0  0  0  0  0  0  0  0  0
   40.1150   24.9170   33.8100 H   0  0  0  0  0  0  0  0  0  0  0  0
   40.9420   23.3510   33.9920 H   0  0  0  0  0  0  0  0  0  0  0  0
   41.9930   24.9580   34.8090 C   0  0  0  0  0  0  0  0  0  0  0  0
   42.4470   24.5500   35.7410 H   0  0  0  0  0  0  0  0  0  0  0  0
   42.6960   24.6590   33.9980 H   0  0  0  0  0  0  0  0  0  0  0  0
   42.0200   28.2980   33.7590 H   0  0  0  0  0  0  0  0  0  0  0  0
   42.0700   27.2030   33.6850 C   0  0  0  0  0  0  0  0  0  0  0  0
   42.2460   26.6850   32.5650 O   0  0  0  0  0  0  0  0  0  0  0  0
   41.9370   26.3880   34.8410 N   0  0  0  0  0  0  0  0  0  0  0  0
   41.7910   26.9270   35.7460 H   0  0  0  0  0  0  0  0  0  0  0  0
  1  6  1  0  0  0  0
  2  1  2  0  0  0  0
  2  3  1  0  0  0  0
  3  4  2  0  0  0  0
  4  5  1  0  0  0  0
  5  8  1  0  0  0  0
  6  5  2  0  0  0  0
  7  3  1  0  0  0  0
  9 10  1  0  0  0  0
  9 11  1  0  0  0  0
  9  1  1  0  0  0  0
 10 11  1  0  0  0  0
 10 13  1  0  0  0  0
 11 16  1  0  0  0  0
 12  9  1  0  0  0  0
 14 10  1  0  0  0  0
 15 11  1  0  0  0  0
 17 20  1  0  0  0  0
 17  2  1  0  0  0  0
 18 17  1  0  0  0  0
 19 17  1  0  0  0  0
 20 26  1  0  0  0  0
 20 21  1  0  0  0  0
 22 20  1  0  0  0  0
 24 23  1  0  0  0  0
 24 26  1  0  0  0  0
 25 24  2  0  0  0  0
 26 27  1  0  0  0  0
M  END
>  <minimizedAffinity>
-3.7176156

$$$$
