
 OpenBabel03272510293D

 24 25  0  0  0  0  0  0  0  0999 V2000
   37.2010   31.1890   49.2470 C   0  0  0  0  0  0  0  0  0  0  0  0
   37.5820   32.4550   49.6900 C   0  0  0  0  0  0  0  0  0  0  0  0
   38.4600   33.1350   48.8580 C   0  0  0  0  0  0  0  0  0  0  0  0
   38.8930   32.5650   47.7010 N   0  0  0  0  0  0  0  0  0  0  0  0
   38.4960   31.3250   47.3060 C   0  0  0  0  0  0  0  0  0  0  0  0
   37.6290   30.6320   48.1080 N   0  0  0  0  0  0  0  0  0  0  0  0
   37.2330   32.8990   50.6110 H   0  0  0  0  0  0  0  0  0  0  0  0
   38.8290   34.1190   49.0880 H   0  0  0  0  0  0  0  0  0  0  0  0
   36.2270   30.4190   50.0970 C   0  0  0  0  0  0  0  0  0  0  0  0
   36.0120   29.0010   49.9460 C   0  0  0  0  0  0  0  0  0  0  0  0
   36.9180   29.4600   51.0670 C   0  0  0  0  0  0  0  0  0  0  0  0
   35.4380   31.0640   50.5340 H   0  0  0  0  0  0  0  0  0  0  0  0
   36.6000   28.4640   49.1450 H   0  0  0  0  0  0  0  0  0  0  0  0
   35.0550   28.5220   50.1550 H   0  0  0  0  0  0  0  0  0  0  0  0
   36.4520   29.4230   52.0710 H   0  0  0  0  0  0  0  0  0  0  0  0
   37.9990   29.3500   50.9990 H   0  0  0  0  0  0  0  0  0  0  0  0
   38.9400   30.6930   46.0680 C   0  0  0  0  0  0  0  0  0  0  0  0
   38.5040   31.1560   45.1760 H   0  0  0  0  0  0  0  0  0  0  0  0
   38.7080   29.6310   46.0270 H   0  0  0  0  0  0  0  0  0  0  0  0
   42.1970   31.5750   45.2260 H   0  0  0  0  0  0  0  0  0  0  0  0
   41.1060   31.5920   45.1410 C   0  0  0  0  0  0  0  0  0  0  0  0
   40.5460   32.3100   44.2580 O   0  0  0  0  0  0  0  0  0  0  0  0
   40.4020   30.7790   46.0560 N   0  0  0  0  0  0  0  0  0  0  0  0
   40.9070   30.1940   46.7780 H   0  0  0  0  0  0  0  0  0  0  0  0
  1  2  1  0  0  0  0
  1  9  1  0  0  0  0
  2  7  1  0  0  0  0
  3  8  1  0  0  0  0
  3  2  2  0  0  0  0
  4  3  1  0  0  0  0
  5  4  2  0  0  0  0
  5  6  1  0  0  0  0
  6  1  2  0  0  0  0
  9 12  1  0  0  0  0
  9 11  1  0  0  0  0
 10  9  1  0  0  0  0
 10 14  1  0  0  0  0
 10 11  1  0  0  0  0
 11 15  1  0  0  0  0
 13 10  1  0  0  0  0
 16 11  1  0  0  0  0
 17  5  1  0  0  0  0
 18 17  1  0  0  0  0
 19 17  1  0  0  0  0
 21 20  1  0  0  0  0
 21 23  1  0  0  0  0
 22 21  2  0  0  0  0
 23 17  1  0  0  0  0
 23 24  1  0  0  0  0
M  END
>  <minimizedAffinity>
-5.11368561

>  <minimizedRMSD>
1.26782393

$$$$
