
 OpenBabel03272507373D

 15 15  0  0  0  0  0  0  0  0999 V2000
   38.6910   23.3650   37.8350 C   0  0  0  0  0  0  0  0  0  0  0  0
   39.4520   22.7440   36.8450 C   0  0  0  0  0  0  0  0  0  0  0  0
   39.4640   23.2680   35.5630 C   0  0  0  0  0  0  0  0  0  0  0  0
   38.7120   24.3860   35.3390 N   0  0  0  0  0  0  0  0  0  0  0  0
   37.9790   24.9760   36.3090 C   0  0  0  0  0  0  0  0  0  0  0  0
   37.9720   24.4670   37.5430 N   0  0  0  0  0  0  0  0  0  0  0  0
   40.0300   22.8400   34.7430 H   0  0  0  0  0  0  0  0  0  0  0  0
   37.3960   25.8550   36.1150 H   0  0  0  0  0  0  0  0  0  0  0  0
   42.5560   21.1420   37.1020 H   0  0  0  0  0  0  0  0  0  0  0  0
   41.6460   21.7110   37.0100 C   0  0  0  0  0  0  0  0  0  0  0  0
   42.5080   22.6440   36.8600 O   0  0  0  0  0  0  0  0  0  0  0  0
   40.2350   21.5990   37.0290 N   0  0  0  0  0  0  0  0  0  0  0  0
   40.0770   20.5850   37.1920 H   0  0  0  0  0  0  0  0  0  0  0  0
   38.7900   22.7180   39.0500 O   0  0  0  0  0  0  0  0  0  0  0  0
   39.3200   23.0670   39.8560 H   0  0  0  0  0  0  0  0  0  0  0  0
  1 14  1  0  0  0  0
  2 12  1  0  0  0  0
  2  1  2  0  0  0  0
  3  2  1  0  0  0  0
  4  3  2  0  0  0  0
  4  5  1  0  0  0  0
  5  6  2  0  0  0  0
  6  1  1  0  0  0  0
  7  3  1  0  0  0  0
  8  5  1  0  0  0  0
 10 12  1  0  0  0  0
 10  9  1  0  0  0  0
 11 10  2  0  0  0  0
 12 13  1  0  0  0  0
 14 15  1  0  0  0  0
M  END
>  <minimizedAffinity>
-3.756814

$$$$

 OpenBabel03272507373D

 15 15  0  0  0  0  0  0  0  0999 V2000
   40.8270   22.5110   37.0360 C   0  0  0  0  0  0  0  0  0  0  0  0
   39.5900   23.0560   36.6960 C   0  0  0  0  0  0  0  0  0  0  0  0
   39.5220   24.0440   35.7270 C   0  0  0  0  0  0  0  0  0  0  0  0
   40.6970   24.4330   35.1500 N   0  0  0  0  0  0  0  0  0  0  0  0
   41.8880   23.8950   35.4900 C   0  0  0  0  0  0  0  0  0  0  0  0
   41.9480   22.9430   36.4250 N   0  0  0  0  0  0  0  0  0  0  0  0
   38.5970   24.5150   35.4120 H   0  0  0  0  0  0  0  0  0  0  0  0
   42.8010   24.2130   35.0250 H   0  0  0  0  0  0  0  0  0  0  0  0
   36.9190   23.6110   38.8930 H   0  0  0  0  0  0  0  0  0  0  0  0
   37.7760   23.5160   38.2470 C   0  0  0  0  0  0  0  0  0  0  0  0
   38.0620   24.6140   38.8390 O   0  0  0  0  0  0  0  0  0  0  0  0
   38.3630   22.6890   37.2600 N   0  0  0  0  0  0  0  0  0  0  0  0
   37.6810   21.9100   37.1630 H   0  0  0  0  0  0  0  0  0  0  0  0
   40.7180   21.5430   38.0130 O   0  0  0  0  0  0  0  0  0  0  0  0
   40.8120   20.5340   37.8510 H   0  0  0  0  0  0  0  0  0  0  0  0
  1 14  1  0  0  0  0
  2  1  1  0  0  0  0
  2 12  1  0  0  0  0
  3  2  2  0  0  0  0
  4  5  2  0  0  0  0
  4  3  1  0  0  0  0
  5  6  1  0  0  0  0
  6  1  2  0  0  0  0
  7  3  1  0  0  0  0
  8  5  1  0  0  0  0
 10 11  2  0  0  0  0
 10  9  1  0  0  0  0
 12 10  1  0  0  0  0
 13 12  1  0  0  0  0
 15 14  1  0  0  0  0
M  END
>  <minimizedAffinity>
-3.73655605

$$$$

 OpenBabel03272507373D

 15 15  0  0  0  0  0  0  0  0999 V2000
   39.6670   22.7560   37.7380 C   0  0  0  0  0  0  0  0  0  0  0  0
   39.7070   23.2100   36.4200 C   0  0  0  0  0  0  0  0  0  0  0  0
   38.8620   24.2340   36.0260 C   0  0  0  0  0  0  0  0  0  0  0  0
   38.0220   24.7500   36.9710 N   0  0  0  0  0  0  0  0  0  0  0  0
   37.9960   24.2990   38.2440 C   0  0  0  0  0  0  0  0  0  0  0  0
   38.8130   23.3110   38.6200 N   0  0  0  0  0  0  0  0  0  0  0  0
   38.8360   24.6380   35.0190 H   0  0  0  0  0  0  0  0  0  0  0  0
   37.3300   24.7170   38.9730 H   0  0  0  0  0  0  0  0  0  0  0  0
   42.6200   23.3710   34.4830 H   0  0  0  0  0  0  0  0  0  0  0  0
   41.7510   23.3950   35.1190 C   0  0  0  0  0  0  0  0  0  0  0  0
   42.3610   24.4420   35.5320 O   0  0  0  0  0  0  0  0  0  0  0  0
   40.5490   22.7120   35.4200 N   0  0  0  0  0  0  0  0  0  0  0  0
   40.5600   21.9070   34.7630 H   0  0  0  0  0  0  0  0  0  0  0  0
   40.5690   21.7360   37.9640 O   0  0  0  0  0  0  0  0  0  0  0  0
   41.4450   21.8360   38.4890 H   0  0  0  0  0  0  0  0  0  0  0  0
  1 14  1  0  0  0  0
  1  6  1  0  0  0  0
  2  1  2  0  0  0  0
  3  2  1  0  0  0  0
  3  4  2  0  0  0  0
  4  5  1  0  0  0  0
  5  6  2  0  0  0  0
  5  8  1  0  0  0  0
  7  3  1  0  0  0  0
  9 10  1  0  0  0  0
 10 12  1  0  0  0  0
 10 11  2  0  0  0  0
 12  2  1  0  0  0  0
 13 12  1  0  0  0  0
 14 15  1  0  0  0  0
M  END
>  <minimizedAffinity>
-3.5072825

$$$$

 OpenBabel03272507373D

 15 15  0  0  0  0  0  0  0  0999 V2000
   39.7130   23.7130   35.6490 C   0  0  0  0  0  0  0  0  0  0  0  0
   39.5340   22.9550   36.8050 C   0  0  0  0  0  0  0  0  0  0  0  0
   40.6380   22.4340   37.4580 C   0  0  0  0  0  0  0  0  0  0  0  0
   41.8640   22.6980   36.9190 N   0  0  0  0  0  0  0  0  0  0  0  0
   42.0220   23.4350   35.7970 C   0  0  0  0  0  0  0  0  0  0  0  0
   40.9540   23.9360   35.1720 N   0  0  0  0  0  0  0  0  0  0  0  0
   40.5760   21.8350   38.3600 H   0  0  0  0  0  0  0  0  0  0  0  0
   42.9940   23.6330   35.3890 H   0  0  0  0  0  0  0  0  0  0  0  0
   36.8910   23.7150   38.9750 H   0  0  0  0  0  0  0  0  0  0  0  0
   37.7420   23.5570   38.3330 C   0  0  0  0  0  0  0  0  0  0  0  0
   38.0660   24.6760   38.8630 O   0  0  0  0  0  0  0  0  0  0  0  0
   38.2980   22.6590   37.3920 N   0  0  0  0  0  0  0  0  0  0  0  0
   37.5910   21.8990   37.3390 H   0  0  0  0  0  0  0  0  0  0  0  0
   38.5160   24.1560   35.1260 O   0  0  0  0  0  0  0  0  0  0  0  0
   38.1760   25.1230   35.1780 H   0  0  0  0  0  0  0  0  0  0  0  0
  1  2  1  0  0  0  0
  2 12  1  0  0  0  0
  2  3  2  0  0  0  0
  3  7  1  0  0  0  0
  4  3  1  0  0  0  0
  5  4  2  0  0  0  0
  6  1  2  0  0  0  0
  6  5  1  0  0  0  0
  8  5  1  0  0  0  0
 10 11  2  0  0  0  0
 10  9  1  0  0  0  0
 12 10  1  0  0  0  0
 13 12  1  0  0  0  0
 14 15  1  0  0  0  0
 14  1  1  0  0  0  0
M  END
>  <minimizedAffinity>
-3.27631187

$$$$

 OpenBabel03272507373D

 15 15  0  0  0  0  0  0  0  0999 V2000
   39.0510   22.8980   35.7710 C   0  0  0  0  0  0  0  0  0  0  0  0
   39.5730   22.5340   37.0110 C   0  0  0  0  0  0  0  0  0  0  0  0
   39.1370   23.1850   38.1530 C   0  0  0  0  0  0  0  0  0  0  0  0
   38.2010   24.1670   37.9930 N   0  0  0  0  0  0  0  0  0  0  0  0
   37.7050   24.5080   36.7840 C   0  0  0  0  0  0  0  0  0  0  0  0
   38.1280   23.8770   35.6860 N   0  0  0  0  0  0  0  0  0  0  0  0
   39.4970   22.9570   39.1500 H   0  0  0  0  0  0  0  0  0  0  0  0
   36.9690   25.2810   36.6780 H   0  0  0  0  0  0  0  0  0  0  0  0
   42.8930   21.4210   37.1080 H   0  0  0  0  0  0  0  0  0  0  0  0
   41.9030   21.8430   37.0540 C   0  0  0  0  0  0  0  0  0  0  0  0
   42.6000   22.8670   36.7340 O   0  0  0  0  0  0  0  0  0  0  0  0
   40.5320   21.5360   37.2220 N   0  0  0  0  0  0  0  0  0  0  0  0
   40.5410   20.5330   37.4940 H   0  0  0  0  0  0  0  0  0  0  0  0
   39.5890   22.1540   34.7410 O   0  0  0  0  0  0  0  0  0  0  0  0
   39.0950   21.4090   34.2370 H   0  0  0  0  0  0  0  0  0  0  0  0
  1  2  1  0  0  0  0
  2 12  1  0  0  0  0
  2  3  2  0  0  0  0
  3  7  1  0  0  0  0
  4  3  1  0  0  0  0
  5  4  2  0  0  0  0
  6  1  2  0  0  0  0
  6  5  1  0  0  0  0
  8  5  1  0  0  0  0
 10  9  1  0  0  0  0
 10 12  1  0  0  0  0
 11 10  2  0  0  0  0
 12 13  1  0  0  0  0
 14  1  1  0  0  0  0
 15 14  1  0  0  0  0
M  END
>  <minimizedAffinity>
-3.21986604

$$$$

 OpenBabel03272507373D

 15 15  0  0  0  0  0  0  0  0999 V2000
   38.0070   27.2760   35.2750 C   0  0  0  0  0  0  0  0  0  0  0  0
   38.2840   25.9490   34.9540 C   0  0  0  0  0  0  0  0  0  0  0  0
   37.7290   25.3910   33.8140 C   0  0  0  0  0  0  0  0  0  0  0  0
   36.9240   26.1920   33.0550 N   0  0  0  0  0  0  0  0  0  0  0  0
   36.6650   27.4780   33.3800 C   0  0  0  0  0  0  0  0  0  0  0  0
   37.2030   28.0110   34.4800 N   0  0  0  0  0  0  0  0  0  0  0  0
   37.8990   24.3660   33.5020 H   0  0  0  0  0  0  0  0  0  0  0  0
   36.0310   28.0920   32.7710 H   0  0  0  0  0  0  0  0  0  0  0  0
   38.7390   23.4500   37.3670 H   0  0  0  0  0  0  0  0  0  0  0  0
   38.5120   24.2130   36.6400 C   0  0  0  0  0  0  0  0  0  0  0  0
   37.3330   23.9410   37.0550 O   0  0  0  0  0  0  0  0  0  0  0  0
   39.1020   25.0920   35.7000 N   0  0  0  0  0  0  0  0  0  0  0  0
   40.1170   24.8840   35.7800 H   0  0  0  0  0  0  0  0  0  0  0  0
   38.6370   27.6740   36.4360 O   0  0  0  0  0  0  0  0  0  0  0  0
   39.4520   28.2960   36.4760 H   0  0  0  0  0  0  0  0  0  0  0  0
  1 14  1  0  0  0  0
  2  1  1  0  0  0  0
  2 12  1  0  0  0  0
  3  2  2  0  0  0  0
  4  5  2  0  0  0  0
  4  3  1  0  0  0  0
  5  6  1  0  0  0  0
  6  1  2  0  0  0  0
  7  3  1  0  0  0  0
  8  5  1  0  0  0  0
 10 11  2  0  0  0  0
 10  9  1  0  0  0  0
 12 13  1  0  0  0  0
 12 10  1  0  0  0  0
 14 15  1  0  0  0  0
M  END
>  <minimizedAffinity>
-3.16244888

$$$$

 OpenBabel03272507373D

 15 15  0  0  0  0  0  0  0  0999 V2000
   39.5430   24.5070   35.3210 C   0  0  0  0  0  0  0  0  0  0  0  0
   38.4710   24.9280   36.1060 C   0  0  0  0  0  0  0  0  0  0  0  0
   38.2390   26.2830   36.2770 C   0  0  0  0  0  0  0  0  0  0  0  0
   39.0950   27.1460   35.6530 N   0  0  0  0  0  0  0  0  0  0  0  0
   40.1300   26.7220   34.8950 C   0  0  0  0  0  0  0  0  0  0  0  0
   40.3480   25.4150   34.7330 N   0  0  0  0  0  0  0  0  0  0  0  0
   37.4270   26.6840   36.8730 H   0  0  0  0  0  0  0  0  0  0  0  0
   40.7910   27.4150   34.4120 H   0  0  0  0  0  0  0  0  0  0  0  0
   37.4880   23.0340   38.8840 H   0  0  0  0  0  0  0  0  0  0  0  0
   37.8630   23.6390   38.0750 C   0  0  0  0  0  0  0  0  0  0  0  0
   38.8030   23.7980   38.9280 O   0  0  0  0  0  0  0  0  0  0  0  0
   37.5700   24.0810   36.7630 N   0  0  0  0  0  0  0  0  0  0  0  0
   36.6560   23.6330   36.5570 H   0  0  0  0  0  0  0  0  0  0  0  0
   39.6310   23.1320   35.2530 O   0  0  0  0  0  0  0  0  0  0  0  0
   39.3800   22.5690   34.4330 H   0  0  0  0  0  0  0  0  0  0  0  0
  1  2  1  0  0  0  0
  2  3  2  0  0  0  0
  2 12  1  0  0  0  0
  3  7  1  0  0  0  0
  4  3  1  0  0  0  0
  5  4  2  0  0  0  0
  6  5  1  0  0  0  0
  6  1  2  0  0  0  0
  8  5  1  0  0  0  0
 10  9  1  0  0  0  0
 10 11  2  0  0  0  0
 12 10  1  0  0  0  0
 13 12  1  0  0  0  0
 14  1  1  0  0  0  0
 15 14  1  0  0  0  0
M  END
>  <minimizedAffinity>
-3.15164757

$$$$

 OpenBabel03272507373D

 15 15  0  0  0  0  0  0  0  0999 V2000
   37.9950   22.2990   35.5610 C   0  0  0  0  0  0  0  0  0  0  0  0
   38.1520   23.5830   36.0810 C   0  0  0  0  0  0  0  0  0  0  0  0
   39.0980   24.4320   35.5310 C   0  0  0  0  0  0  0  0  0  0  0  0
   39.8380   23.9500   34.4890 N   0  0  0  0  0  0  0  0  0  0  0  0
   39.6740   22.7030   33.9960 C   0  0  0  0  0  0  0  0  0  0  0  0
   38.7600   21.8890   34.5300 N   0  0  0  0  0  0  0  0  0  0  0  0
   39.2770   25.4420   35.8820 H   0  0  0  0  0  0  0  0  0  0  0  0
   40.2640   22.3420   33.1770 H   0  0  0  0  0  0  0  0  0  0  0  0
   37.7480   24.3280   39.4800 H   0  0  0  0  0  0  0  0  0  0  0  0
   37.9510   24.0630   38.4550 C   0  0  0  0  0  0  0  0  0  0  0  0
   39.0140   23.6240   39.0140 O   0  0  0  0  0  0  0  0  0  0  0  0
   37.4170   24.1180   37.1460 N   0  0  0  0  0  0  0  0  0  0  0  0
   36.5030   24.5950   37.2780 H   0  0  0  0  0  0  0  0  0  0  0  0
   37.0140   21.5870   36.2200 O   0  0  0  0  0  0  0  0  0  0  0  0
   36.0850   21.3790   35.8380 H   0  0  0  0  0  0  0  0  0  0  0  0
  1  2  1  0  0  0  0
  1 14  1  0  0  0  0
  2 12  1  0  0  0  0
  3  7  1  0  0  0  0
  3  2  2  0  0  0  0
  4  3  1  0  0  0  0
  5  4  2  0  0  0  0
  5  6  1  0  0  0  0
  6  1  2  0  0  0  0
  8  5  1  0  0  0  0
 10 11  2  0  0  0  0
 10  9  1  0  0  0  0
 12 13  1  0  0  0  0
 12 10  1  0  0  0  0
 15 14  1  0  0  0  0
M  END
>  <minimizedAffinity>
-3.11687016

$$$$

 OpenBabel03272507373D

 15 15  0  0  0  0  0  0  0  0999 V2000
   39.7060   23.7260   35.6950 C   0  0  0  0  0  0  0  0  0  0  0  0
   38.5670   24.3310   36.2240 C   0  0  0  0  0  0  0  0  0  0  0  0
   38.2100   24.0830   37.5390 C   0  0  0  0  0  0  0  0  0  0  0  0
   39.0140   23.2420   38.2560 N   0  0  0  0  0  0  0  0  0  0  0  0
   40.1150   22.6640   37.7280 C   0  0  0  0  0  0  0  0  0  0  0  0
   40.4540   22.9070   36.4600 N   0  0  0  0  0  0  0  0  0  0  0  0
   37.3390   24.5160   38.0180 H   0  0  0  0  0  0  0  0  0  0  0  0
   40.7340   22.0070   38.3070 H   0  0  0  0  0  0  0  0  0  0  0  0
   37.5990   27.5380   35.2020 H   0  0  0  0  0  0  0  0  0  0  0  0
   37.9640   26.5900   35.5600 C   0  0  0  0  0  0  0  0  0  0  0  0
   38.8240   27.3750   36.0900 O   0  0  0  0  0  0  0  0  0  0  0  0
   37.7150   25.1970   35.5280 N   0  0  0  0  0  0  0  0  0  0  0  0
   36.8670   25.1180   34.9330 H   0  0  0  0  0  0  0  0  0  0  0  0
   39.9180   24.0780   34.3780 O   0  0  0  0  0  0  0  0  0  0  0  0
   40.6470   24.7230   34.0540 H   0  0  0  0  0  0  0  0  0  0  0  0
  1  2  2  0  0  0  0
  1  6  1  0  0  0  0
  2  3  1  0  0  0  0
  3  7  1  0  0  0  0
  3  4  2  0  0  0  0
  5  4  1  0  0  0  0
  5  8  1  0  0  0  0
  6  5  2  0  0  0  0
  9 10  1  0  0  0  0
 10 11  2  0  0  0  0
 12 10  1  0  0  0  0
 12  2  1  0  0  0  0
 13 12  1  0  0  0  0
 14  1  1  0  0  0  0
 15 14  1  0  0  0  0
M  END
>  <minimizedAffinity>
-3.08160639

$$$$
