
 OpenBabel03272510323D

 24 25  0  0  0  0  0  0  0  0999 V2000
   36.1410   30.2370   48.3460 C   0  0  0  0  0  0  0  0  0  0  0  0
   35.1280   30.3140   47.4380 C   0  0  0  0  0  0  0  0  0  0  0  0
   34.1250   29.3710   47.3690 C   0  0  0  0  0  0  0  0  0  0  0  0
   34.1750   28.3160   48.2720 C   0  0  0  0  0  0  0  0  0  0  0  0
   35.1830   28.2030   49.2050 C   0  0  0  0  0  0  0  0  0  0  0  0
   36.1700   29.1750   49.2360 C   0  0  0  0  0  0  0  0  0  0  0  0
   35.0790   31.1410   46.7230 H   0  0  0  0  0  0  0  0  0  0  0  0
   33.3030   29.3940   46.6660 H   0  0  0  0  0  0  0  0  0  0  0  0
   33.4260   27.5300   48.2870 H   0  0  0  0  0  0  0  0  0  0  0  0
   35.2350   27.3780   49.9200 H   0  0  0  0  0  0  0  0  0  0  0  0
   38.0760   33.1190   49.4220 C   0  0  0  0  0  0  0  0  0  0  0  0
   39.0200   33.3000   48.4130 C   0  0  0  0  0  0  0  0  0  0  0  0
   38.9840   32.3870   47.3190 C   0  0  0  0  0  0  0  0  0  0  0  0
   38.0440   31.4220   47.3400 N   0  0  0  0  0  0  0  0  0  0  0  0
   37.1490   31.2830   48.3350 C   0  0  0  0  0  0  0  0  0  0  0  0
   37.1670   32.1390   49.3820 N   0  0  0  0  0  0  0  0  0  0  0  0
   38.0920   33.8110   50.2660 H   0  0  0  0  0  0  0  0  0  0  0  0
   39.7520   34.1040   48.4640 H   0  0  0  0  0  0  0  0  0  0  0  0
   39.7100   32.5130   46.5280 H   0  0  0  0  0  0  0  0  0  0  0  0
   37.2800   29.3210   52.4330 H   0  0  0  0  0  0  0  0  0  0  0  0
   36.7190   29.3180   51.4970 C   0  0  0  0  0  0  0  0  0  0  0  0
   35.4800   29.5400   51.6210 O   0  0  0  0  0  0  0  0  0  0  0  0
   37.2250   29.0950   50.1810 N   0  0  0  0  0  0  0  0  0  0  0  0
   38.2510   28.9150   50.1160 H   0  0  0  0  0  0  0  0  0  0  0  0
  1  6  1  0  0  0  0
  2  1  2  0  0  0  0
  3  2  1  0  0  0  0
  3  4  2  0  0  0  0
  4  9  1  0  0  0  0
  4  5  1  0  0  0  0
  5  6  2  0  0  0  0
  5 10  1  0  0  0  0
  6 23  1  0  0  0  0
  7  2  1  0  0  0  0
  8  3  1  0  0  0  0
 11 17  1  0  0  0  0
 12 18  1  0  0  0  0
 12 11  2  0  0  0  0
 13 14  2  0  0  0  0
 13 12  1  0  0  0  0
 14 15  1  0  0  0  0
 15  1  1  0  0  0  0
 15 16  2  0  0  0  0
 16 11  1  0  0  0  0
 19 13  1  0  0  0  0
 21 22  2  0  0  0  0
 21 20  1  0  0  0  0
 23 21  1  0  0  0  0
 24 23  1  0  0  0  0
M  END
>  <minimizedAffinity>
-5.16700935

>  <minimizedRMSD>
0.519965112

$$$$
