
 OpenBabel03272504453D

 26 27  0  0  0  0  0  0  0  0999 V2000
   36.3270   29.5580   50.9410 C   0  0  0  0  0  0  0  0  0  0  0  0
   37.2260   30.1060   50.0400 C   0  0  0  0  0  0  0  0  0  0  0  0
   36.9300   30.4420   48.7410 C   0  0  0  0  0  0  0  0  0  0  0  0
   35.6430   30.1960   48.3700 N   0  0  0  0  0  0  0  0  0  0  0  0
   34.7580   29.6590   49.2490 C   0  0  0  0  0  0  0  0  0  0  0  0
   35.0820   29.3470   50.4960 N   0  0  0  0  0  0  0  0  0  0  0  0
   36.6090   29.3100   51.9560 H   0  0  0  0  0  0  0  0  0  0  0  0
   32.4620   27.6910   47.7270 H   0  0  0  0  0  0  0  0  0  0  0  0
   33.3430   28.1290   48.1800 C   0  0  0  0  0  0  0  0  0  0  0  0
   34.2700   27.2540   48.1060 O   0  0  0  0  0  0  0  0  0  0  0  0
   33.4420   29.4440   48.7530 N   0  0  0  0  0  0  0  0  0  0  0  0
   32.5770   30.0290   48.7260 H   0  0  0  0  0  0  0  0  0  0  0  0
   37.6450   33.2250   49.3770 Cl  0  0  0  0  0  0  0  0  0  0  0  0
   38.2880   32.3150   48.0350 C   0  0  0  0  0  0  0  0  0  0  0  0
   37.8940   31.0170   47.8150 C   0  0  0  0  0  0  0  0  0  0  0  0
   38.4450   30.3660   46.7360 C   0  0  0  0  0  0  0  0  0  0  0  0
   39.3580   30.9530   45.8820 C   0  0  0  0  0  0  0  0  0  0  0  0
   39.7260   32.2790   46.1510 C   0  0  0  0  0  0  0  0  0  0  0  0
   40.8800   32.9960   45.0570 Cl  0  0  0  0  0  0  0  0  0  0  0  0
   39.1980   32.9690   47.2230 C   0  0  0  0  0  0  0  0  0  0  0  0
   38.1250   29.3440   46.5760 H   0  0  0  0  0  0  0  0  0  0  0  0
   39.7490   30.3770   45.0530 H   0  0  0  0  0  0  0  0  0  0  0  0
   39.5180   33.9780   47.3750 H   0  0  0  0  0  0  0  0  0  0  0  0
   38.5590   30.3290   50.5220 N   0  0  0  0  0  0  0  0  0  0  0  0
   39.4370   29.8180   50.3810 H   0  0  0  0  0  0  0  0  0  0  0  0
   38.4650   31.2100   51.1120 H   0  0  0  0  0  0  0  0  0  0  0  0
  1  7  1  0  0  0  0
  2 24  1  0  0  0  0
  2  1  2  0  0  0  0
  3  2  1  0  0  0  0
  4  3  2  0  0  0  0
  4  5  1  0  0  0  0
  5  6  2  0  0  0  0
  6  1  1  0  0  0  0
  8  9  1  0  0  0  0
  9 11  1  0  0  0  0
 10  9  2  0  0  0  0
 11  5  1  0  0  0  0
 12 11  1  0  0  0  0
 14 13  1  0  0  0  0
 15 14  1  0  0  0  0
 15  3  1  0  0  0  0
 16 15  2  0  0  0  0
 17 18  2  0  0  0  0
 17 16  1  0  0  0  0
 18 20  1  0  0  0  0
 19 18  1  0  0  0  0
 20 23  1  0  0  0  0
 20 14  2  0  0  0  0
 21 16  1  0  0  0  0
 22 17  1  0  0  0  0
 24 26  1  0  0  0  0
 25 24  1  0  0  0  0
M  END
>  <minimizedAffinity>
-6.5733695

>  <minimizedRMSD>
0.568502605

$$$$
