
 OpenBabel03272510233D

 27 29  0  0  0  0  0  0  0  0999 V2000
   37.5060   26.6150   35.2690 C   0  0  0  0  0  0  0  0  0  0  0  0
   38.2590   25.4950   34.9490 C   0  0  0  0  0  0  0  0  0  0  0  0
   38.6140   25.2680   33.6490 C   0  0  0  0  0  0  0  0  0  0  0  0
   38.2120   26.1670   32.6680 C   0  0  0  0  0  0  0  0  0  0  0  0
   38.4350   26.1610   31.3320 N   0  0  0  0  0  0  0  0  0  0  0  0
   37.8480   27.2370   30.8060 C   0  0  0  0  0  0  0  0  0  0  0  0
   37.2540   27.9330   31.7780 N   0  0  0  0  0  0  0  0  0  0  0  0
   37.4630   27.2940   32.9440 C   0  0  0  0  0  0  0  0  0  0  0  0
   37.1000   27.5260   34.2710 C   0  0  0  0  0  0  0  0  0  0  0  0
   37.1890   26.8590   36.2710 H   0  0  0  0  0  0  0  0  0  0  0  0
   39.1910   24.4120   33.3950 H   0  0  0  0  0  0  0  0  0  0  0  0
   38.9820   25.4130   30.8550 H   0  0  0  0  0  0  0  0  0  0  0  0
   36.5120   28.4000   34.5210 H   0  0  0  0  0  0  0  0  0  0  0  0
   37.4050   29.2650   27.9660 H   0  0  0  0  0  0  0  0  0  0  0  0
   37.4370   28.9400   28.9890 C   0  0  0  0  0  0  0  0  0  0  0  0
   37.1050   29.8040   29.8360 O   0  0  0  0  0  0  0  0  0  0  0  0
   37.8120   27.6510   29.4500 N   0  0  0  0  0  0  0  0  0  0  0  0
   38.0600   27.0400   28.6510 H   0  0  0  0  0  0  0  0  0  0  0  0
   38.3760   23.7280   38.2690 C   0  0  0  0  0  0  0  0  0  0  0  0
   37.9420   24.6080   37.2700 C   0  0  0  0  0  0  0  0  0  0  0  0
   38.6250   24.6220   36.0500 C   0  0  0  0  0  0  0  0  0  0  0  0
   39.6790   23.7850   35.8790 N   0  0  0  0  0  0  0  0  0  0  0  0
   40.0790   22.9380   36.8680 C   0  0  0  0  0  0  0  0  0  0  0  0
   39.4380   22.9090   38.0460 N   0  0  0  0  0  0  0  0  0  0  0  0
   37.8080   23.7680   39.1790 H   0  0  0  0  0  0  0  0  0  0  0  0
   37.1180   25.2560   37.4180 H   0  0  0  0  0  0  0  0  0  0  0  0
   40.9210   22.2730   36.7250 H   0  0  0  0  0  0  0  0  0  0  0  0
  1 10  1  0  0  0  0
  2  1  1  0  0  0  0
  2 21  1  0  0  0  0
  3  2  2  0  0  0  0
  4  8  2  0  0  0  0
  4  3  1  0  0  0  0
  5  4  1  0  0  0  0
  6  5  1  0  0  0  0
  6  7  2  0  0  0  0
  7  8  1  0  0  0  0
  8  9  1  0  0  0  0
  9 13  1  0  0  0  0
  9  1  2  0  0  0  0
 11  3  1  0  0  0  0
 12  5  1  0  0  0  0
 14 15  1  0  0  0  0
 15 17  1  0  0  0  0
 15 16  2  0  0  0  0
 17  6  1  0  0  0  0
 18 17  1  0  0  0  0
 19 25  1  0  0  0  0
 20 26  1  0  0  0  0
 20 19  2  0  0  0  0
 21 20  1  0  0  0  0
 22 21  2  0  0  0  0
 22 23  1  0  0  0  0
 23 24  2  0  0  0  0
 24 19  1  0  0  0  0
 27 23  1  0  0  0  0
M  END
>  <minimizedAffinity>
-5.11991882

$$$$

 OpenBabel03272510233D

 27 29  0  0  0  0  0  0  0  0999 V2000
   37.6680   27.8220   35.2700 C   0  0  0  0  0  0  0  0  0  0  0  0
   37.1150   27.3810   34.0780 C   0  0  0  0  0  0  0  0  0  0  0  0
   37.3320   26.0960   33.6650 C   0  0  0  0  0  0  0  0  0  0  0  0
   38.1080   25.2520   34.4530 C   0  0  0  0  0  0  0  0  0  0  0  0
   38.4610   23.9590   34.2620 N   0  0  0  0  0  0  0  0  0  0  0  0
   39.2150   23.5750   35.2930 C   0  0  0  0  0  0  0  0  0  0  0  0
   39.3530   24.5980   36.1410 N   0  0  0  0  0  0  0  0  0  0  0  0
   38.6770   25.6510   35.6460 C   0  0  0  0  0  0  0  0  0  0  0  0
   38.4550   26.9630   36.0670 C   0  0  0  0  0  0  0  0  0  0  0  0
   37.5410   28.8210   35.6580 H   0  0  0  0  0  0  0  0  0  0  0  0
   36.9120   25.7500   32.7530 H   0  0  0  0  0  0  0  0  0  0  0  0
   38.1600   23.4090   33.4290 H   0  0  0  0  0  0  0  0  0  0  0  0
   38.8870   27.3070   36.9970 H   0  0  0  0  0  0  0  0  0  0  0  0
   40.8030   20.9170   36.9610 H   0  0  0  0  0  0  0  0  0  0  0  0
   40.3480   21.8700   36.7690 C   0  0  0  0  0  0  0  0  0  0  0  0
   40.2990   22.6470   37.7520 O   0  0  0  0  0  0  0  0  0  0  0  0
   39.8120   22.3120   35.5310 N   0  0  0  0  0  0  0  0  0  0  0  0
   39.9180   21.5760   34.8090 H   0  0  0  0  0  0  0  0  0  0  0  0
   34.6170   30.0260   33.1170 C   0  0  0  0  0  0  0  0  0  0  0  0
   35.3250   29.1270   33.9230 C   0  0  0  0  0  0  0  0  0  0  0  0
   36.3230   28.3440   33.3330 C   0  0  0  0  0  0  0  0  0  0  0  0
   36.5660   28.4830   32.0060 N   0  0  0  0  0  0  0  0  0  0  0  0
   35.8610   29.3660   31.2450 C   0  0  0  0  0  0  0  0  0  0  0  0
   34.9010   30.1270   31.7910 N   0  0  0  0  0  0  0  0  0  0  0  0
   33.8680   30.5950   33.6330 H   0  0  0  0  0  0  0  0  0  0  0  0
   35.1240   29.0280   34.9580 H   0  0  0  0  0  0  0  0  0  0  0  0
   36.0610   29.4730   30.1870 H   0  0  0  0  0  0  0  0  0  0  0  0
  1 10  1  0  0  0  0
  1  9  1  0  0  0  0
  2  1  2  0  0  0  0
  3  2  1  0  0  0  0
  3  4  2  0  0  0  0
  4  8  1  0  0  0  0
  5  4  1  0  0  0  0
  5  6  1  0  0  0  0
  6 17  1  0  0  0  0
  6  7  2  0  0  0  0
  8  9  2  0  0  0  0
  8  7  1  0  0  0  0
  9 13  1  0  0  0  0
 11  3  1  0  0  0  0
 12  5  1  0  0  0  0
 15 14  1  0  0  0  0
 15 16  2  0  0  0  0
 17 15  1  0  0  0  0
 18 17  1  0  0  0  0
 19 25  1  0  0  0  0
 19 20  1  0  0  0  0
 20 26  1  0  0  0  0
 21 20  2  0  0  0  0
 21  2  1  0  0  0  0
 22 21  1  0  0  0  0
 23 24  1  0  0  0  0
 23 22  2  0  0  0  0
 24 19  2  0  0  0  0
 27 23  1  0  0  0  0
M  END
>  <minimizedAffinity>
-5.08415127

$$$$

 OpenBabel03272510233D

 27 29  0  0  0  0  0  0  0  0999 V2000
   38.7480   26.9130   33.3850 C   0  0  0  0  0  0  0  0  0  0  0  0
   37.5280   27.0910   34.0170 C   0  0  0  0  0  0  0  0  0  0  0  0
   37.1910   26.2950   35.0760 C   0  0  0  0  0  0  0  0  0  0  0  0
   38.0840   25.3170   35.5010 C   0  0  0  0  0  0  0  0  0  0  0  0
   37.9810   24.4190   36.5090 N   0  0  0  0  0  0  0  0  0  0  0  0
   39.0960   23.6860   36.5300 C   0  0  0  0  0  0  0  0  0  0  0  0
   39.9100   24.0960   35.5540 N   0  0  0  0  0  0  0  0  0  0  0  0
   39.3090   25.1070   34.9000 C   0  0  0  0  0  0  0  0  0  0  0  0
   39.6520   25.9190   33.8180 C   0  0  0  0  0  0  0  0  0  0  0  0
   39.0810   27.5020   32.5440 H   0  0  0  0  0  0  0  0  0  0  0  0
   36.2570   26.4250   35.5660 H   0  0  0  0  0  0  0  0  0  0  0  0
   37.1470   24.3620   37.1300 H   0  0  0  0  0  0  0  0  0  0  0  0
   40.6050   25.7810   33.3250 H   0  0  0  0  0  0  0  0  0  0  0  0
   41.0170   21.2850   38.2370 H   0  0  0  0  0  0  0  0  0  0  0  0
   40.7430   22.0860   37.5760 C   0  0  0  0  0  0  0  0  0  0  0  0
   41.6840   22.5710   36.9040 O   0  0  0  0  0  0  0  0  0  0  0  0
   39.4420   22.6270   37.4070 N   0  0  0  0  0  0  0  0  0  0  0  0
   38.7650   22.1370   38.0190 H   0  0  0  0  0  0  0  0  0  0  0  0
   35.8220   29.5610   31.7470 C   0  0  0  0  0  0  0  0  0  0  0  0
   36.6870   28.5380   32.1520 C   0  0  0  0  0  0  0  0  0  0  0  0
   36.6710   28.1410   33.4930 C   0  0  0  0  0  0  0  0  0  0  0  0
   35.8210   28.7600   34.3500 N   0  0  0  0  0  0  0  0  0  0  0  0
   34.9890   29.7530   33.9290 C   0  0  0  0  0  0  0  0  0  0  0  0
   34.9880   30.1480   32.6470 N   0  0  0  0  0  0  0  0  0  0  0  0
   35.8850   29.8150   30.7070 H   0  0  0  0  0  0  0  0  0  0  0  0
   37.3460   28.0640   31.4720 H   0  0  0  0  0  0  0  0  0  0  0  0
   34.3130   30.2420   34.6180 H   0  0  0  0  0  0  0  0  0  0  0  0
  1  9  2  0  0  0  0
  1  2  1  0  0  0  0
  2  3  2  0  0  0  0
  3  4  1  0  0  0  0
  3 11  1  0  0  0  0
  4  5  1  0  0  0  0
  5  6  1  0  0  0  0
  5 12  1  0  0  0  0
  6 17  1  0  0  0  0
  7  6  2  0  0  0  0
  8  4  2  0  0  0  0
  8  7  1  0  0  0  0
  9  8  1  0  0  0  0
 10  1  1  0  0  0  0
 13  9  1  0  0  0  0
 15 14  1  0  0  0  0
 16 15  2  0  0  0  0
 17 15  1  0  0  0  0
 17 18  1  0  0  0  0
 19 20  2  0  0  0  0
 19 24  1  0  0  0  0
 20 21  1  0  0  0  0
 21  2  1  0  0  0  0
 21 22  2  0  0  0  0
 23 22  1  0  0  0  0
 23 27  1  0  0  0  0
 24 23  2  0  0  0  0
 25 19  1  0  0  0  0
 26 20  1  0  0  0  0
M  END
>  <minimizedAffinity>
-5.0661087

$$$$

 OpenBabel03272510233D

 27 29  0  0  0  0  0  0  0  0999 V2000
   38.8330   27.0970   33.5410 C   0  0  0  0  0  0  0  0  0  0  0  0
   37.5440   27.1350   34.0480 C   0  0  0  0  0  0  0  0  0  0  0  0
   37.1640   26.2300   35.0000 C   0  0  0  0  0  0  0  0  0  0  0  0
   38.0820   25.2840   35.4430 C   0  0  0  0  0  0  0  0  0  0  0  0
   37.9470   24.2980   36.3610 N   0  0  0  0  0  0  0  0  0  0  0  0
   39.1070   23.6450   36.4460 C   0  0  0  0  0  0  0  0  0  0  0  0
   39.9830   24.1930   35.6000 N   0  0  0  0  0  0  0  0  0  0  0  0
   39.3750   25.2110   34.9640 C   0  0  0  0  0  0  0  0  0  0  0  0
   39.7630   26.1350   33.9930 C   0  0  0  0  0  0  0  0  0  0  0  0
   39.2040   27.7770   32.7900 H   0  0  0  0  0  0  0  0  0  0  0  0
   36.1770   26.2520   35.3940 H   0  0  0  0  0  0  0  0  0  0  0  0
   37.0600   24.1300   36.8820 H   0  0  0  0  0  0  0  0  0  0  0  0
   40.7700   26.1050   33.5970 H   0  0  0  0  0  0  0  0  0  0  0  0
   41.0250   21.2470   38.1620 H   0  0  0  0  0  0  0  0  0  0  0  0
   40.7580   22.0810   37.5390 C   0  0  0  0  0  0  0  0  0  0  0  0
   41.7220   22.6850   37.0130 O   0  0  0  0  0  0  0  0  0  0  0  0
   39.4430   22.5420   37.2710 N   0  0  0  0  0  0  0  0  0  0  0  0
   38.7470   21.9560   37.7660 H   0  0  0  0  0  0  0  0  0  0  0  0
   35.0430   29.9260   33.7160 C   0  0  0  0  0  0  0  0  0  0  0  0
   35.8540   28.9630   34.3270 C   0  0  0  0  0  0  0  0  0  0  0  0
   36.6670   28.1620   33.5170 C   0  0  0  0  0  0  0  0  0  0  0  0
   36.6380   28.3480   32.1740 N   0  0  0  0  0  0  0  0  0  0  0  0
   35.8390   29.2940   31.6050 C   0  0  0  0  0  0  0  0  0  0  0  0
   35.0530   30.0720   32.3640 N   0  0  0  0  0  0  0  0  0  0  0  0
   34.4460   30.5050   34.3950 H   0  0  0  0  0  0  0  0  0  0  0  0
   35.8660   28.8280   35.3780 H   0  0  0  0  0  0  0  0  0  0  0  0
   35.8220   29.4370   30.5330 H   0  0  0  0  0  0  0  0  0  0  0  0
  1  9  2  0  0  0  0
  1  2  1  0  0  0  0
  2  3  2  0  0  0  0
  3 11  1  0  0  0  0
  3  4  1  0  0  0  0
  4  5  1  0  0  0  0
  5  6  1  0  0  0  0
  5 12  1  0  0  0  0
  6 17  1  0  0  0  0
  7  6  2  0  0  0  0
  8  4  2  0  0  0  0
  8  7  1  0  0  0  0
  9  8  1  0  0  0  0
 10  1  1  0  0  0  0
 13  9  1  0  0  0  0
 15 14  1  0  0  0  0
 16 15  2  0  0  0  0
 17 15  1  0  0  0  0
 17 18  1  0  0  0  0
 19 20  1  0  0  0  0
 19 25  1  0  0  0  0
 20 26  1  0  0  0  0
 21  2  1  0  0  0  0
 21 20  2  0  0  0  0
 22 21  1  0  0  0  0
 23 22  2  0  0  0  0
 23 24  1  0  0  0  0
 24 19  2  0  0  0  0
 27 23  1  0  0  0  0
M  END
>  <minimizedAffinity>
-5.0617981

$$$$

 OpenBabel03272510233D

 27 29  0  0  0  0  0  0  0  0999 V2000
   37.6760   27.7320   35.1590 C   0  0  0  0  0  0  0  0  0  0  0  0
   37.2350   27.2720   33.9270 C   0  0  0  0  0  0  0  0  0  0  0  0
   37.5310   25.9960   33.5360 C   0  0  0  0  0  0  0  0  0  0  0  0
   38.2720   25.1800   34.3830 C   0  0  0  0  0  0  0  0  0  0  0  0
   38.6860   23.9010   34.2230 N   0  0  0  0  0  0  0  0  0  0  0  0
   39.3700   23.5440   35.3110 C   0  0  0  0  0  0  0  0  0  0  0  0
   39.4030   24.5700   36.1650 N   0  0  0  0  0  0  0  0  0  0  0  0
   38.7300   25.5980   35.6170 C   0  0  0  0  0  0  0  0  0  0  0  0
   38.4290   26.9000   36.0170 C   0  0  0  0  0  0  0  0  0  0  0  0
   37.4820   28.7240   35.5340 H   0  0  0  0  0  0  0  0  0  0  0  0
   37.1960   25.6360   32.5930 H   0  0  0  0  0  0  0  0  0  0  0  0
   38.4720   23.3410   33.3700 H   0  0  0  0  0  0  0  0  0  0  0  0
   38.7730   27.2590   36.9780 H   0  0  0  0  0  0  0  0  0  0  0  0
   40.9170   20.9430   37.1030 H   0  0  0  0  0  0  0  0  0  0  0  0
   40.4440   21.8800   36.8740 C   0  0  0  0  0  0  0  0  0  0  0  0
   40.2900   22.6530   37.8490 O   0  0  0  0  0  0  0  0  0  0  0  0
   39.9930   22.3030   35.5970 N   0  0  0  0  0  0  0  0  0  0  0  0
   40.1810   21.5720   34.8870 H   0  0  0  0  0  0  0  0  0  0  0  0
   35.9650   29.3950   31.0920 C   0  0  0  0  0  0  0  0  0  0  0  0
   36.7650   28.4770   31.7820 C   0  0  0  0  0  0  0  0  0  0  0  0
   36.4690   28.2060   33.1220 C   0  0  0  0  0  0  0  0  0  0  0  0
   35.4210   28.8420   33.7020 N   0  0  0  0  0  0  0  0  0  0  0  0
   34.6580   29.7310   33.0060 C   0  0  0  0  0  0  0  0  0  0  0  0
   34.9250   30.0040   31.7210 N   0  0  0  0  0  0  0  0  0  0  0  0
   36.2480   29.5550   30.0690 H   0  0  0  0  0  0  0  0  0  0  0  0
   37.5820   27.9880   31.3160 H   0  0  0  0  0  0  0  0  0  0  0  0
   33.8220   30.2340   33.4760 H   0  0  0  0  0  0  0  0  0  0  0  0
  1 10  1  0  0  0  0
  1  9  1  0  0  0  0
  2  1  2  0  0  0  0
  3  2  1  0  0  0  0
  3  4  2  0  0  0  0
  4  8  1  0  0  0  0
  5  4  1  0  0  0  0
  5  6  1  0  0  0  0
  6 17  1  0  0  0  0
  6  7  2  0  0  0  0
  8  9  2  0  0  0  0
  8  7  1  0  0  0  0
  9 13  1  0  0  0  0
 11  3  1  0  0  0  0
 12  5  1  0  0  0  0
 15 14  1  0  0  0  0
 15 16  2  0  0  0  0
 17 15  1  0  0  0  0
 18 17  1  0  0  0  0
 19 24  2  0  0  0  0
 19 20  1  0  0  0  0
 20 21  2  0  0  0  0
 21 22  1  0  0  0  0
 21  2  1  0  0  0  0
 23 27  1  0  0  0  0
 23 22  2  0  0  0  0
 24 23  1  0  0  0  0
 25 19  1  0  0  0  0
 26 20  1  0  0  0  0
M  END
>  <minimizedAffinity>
-5.03354454

$$$$

 OpenBabel03272510233D

 27 29  0  0  0  0  0  0  0  0999 V2000
   38.9980   25.4670   33.9260 C   0  0  0  0  0  0  0  0  0  0  0  0
   38.3460   25.5360   35.1480 C   0  0  0  0  0  0  0  0  0  0  0  0
   37.3760   26.4780   35.3450 C   0  0  0  0  0  0  0  0  0  0  0  0
   37.0610   27.3550   34.3130 C   0  0  0  0  0  0  0  0  0  0  0  0
   36.1530   28.3590   34.2660 N   0  0  0  0  0  0  0  0  0  0  0  0
   36.2150   28.9200   33.0570 C   0  0  0  0  0  0  0  0  0  0  0  0
   37.1450   28.2970   32.3290 N   0  0  0  0  0  0  0  0  0  0  0  0
   37.6860   27.3220   33.0820 C   0  0  0  0  0  0  0  0  0  0  0  0
   38.6760   26.3590   32.8800 C   0  0  0  0  0  0  0  0  0  0  0  0
   39.7730   24.7520   33.6980 H   0  0  0  0  0  0  0  0  0  0  0  0
   36.8710   26.5370   36.2780 H   0  0  0  0  0  0  0  0  0  0  0  0
   35.5380   28.6020   35.0710 H   0  0  0  0  0  0  0  0  0  0  0  0
   39.1860   26.3060   31.9270 H   0  0  0  0  0  0  0  0  0  0  0  0
   34.7800   31.1820   30.7770 H   0  0  0  0  0  0  0  0  0  0  0  0
   35.3500   30.3650   31.1770 C   0  0  0  0  0  0  0  0  0  0  0  0
   35.9720   29.6810   30.3280 O   0  0  0  0  0  0  0  0  0  0  0  0
   35.4560   30.0040   32.5450 N   0  0  0  0  0  0  0  0  0  0  0  0
   34.8970   30.6480   33.1330 H   0  0  0  0  0  0  0  0  0  0  0  0
   38.5310   23.4330   38.2630 C   0  0  0  0  0  0  0  0  0  0  0  0
   38.0560   24.3870   37.3550 C   0  0  0  0  0  0  0  0  0  0  0  0
   38.7520   24.5730   36.1560 C   0  0  0  0  0  0  0  0  0  0  0  0
   39.8580   23.8250   35.9180 N   0  0  0  0  0  0  0  0  0  0  0  0
   40.2970   22.9020   36.8190 C   0  0  0  0  0  0  0  0  0  0  0  0
   39.6440   22.7080   37.9740 N   0  0  0  0  0  0  0  0  0  0  0  0
   37.9500   23.3420   39.1600 H   0  0  0  0  0  0  0  0  0  0  0  0
   37.1910   24.9660   37.5550 H   0  0  0  0  0  0  0  0  0  0  0  0
   41.1800   22.3080   36.6220 H   0  0  0  0  0  0  0  0  0  0  0  0
  1  2  1  0  0  0  0
  2  3  2  0  0  0  0
  2 21  1  0  0  0  0
  3 11  1  0  0  0  0
  4  3  1  0  0  0  0
  5  4  1  0  0  0  0
  5 12  1  0  0  0  0
  6  5  1  0  0  0  0
  7  6  2  0  0  0  0
  7  8  1  0  0  0  0
  8  4  2  0  0  0  0
  9  8  1  0  0  0  0
  9  1  2  0  0  0  0
 10  1  1  0  0  0  0
 13  9  1  0  0  0  0
 14 15  1  0  0  0  0
 15 17  1  0  0  0  0
 16 15  2  0  0  0  0
 17  6  1  0  0  0  0
 17 18  1  0  0  0  0
 19 25  1  0  0  0  0
 20 26  1  0  0  0  0
 20 19  2  0  0  0  0
 21 20  1  0  0  0  0
 22 21  2  0  0  0  0
 22 23  1  0  0  0  0
 23 24  2  0  0  0  0
 24 19  1  0  0  0  0
 27 23  1  0  0  0  0
M  END
>  <minimizedAffinity>
-4.95435905

$$$$

 OpenBabel03272510233D

 27 29  0  0  0  0  0  0  0  0999 V2000
   37.8430   23.4370   32.2490 C   0  0  0  0  0  0  0  0  0  0  0  0
   36.5500   23.1010   31.8800 C   0  0  0  0  0  0  0  0  0  0  0  0
   35.7520   24.0350   31.2810 C   0  0  0  0  0  0  0  0  0  0  0  0
   36.2540   25.3120   31.0530 C   0  0  0  0  0  0  0  0  0  0  0  0
   35.6690   26.3930   30.4870 N   0  0  0  0  0  0  0  0  0  0  0  0
   36.5510   27.3940   30.4890 C   0  0  0  0  0  0  0  0  0  0  0  0
   37.6900   26.9760   31.0470 N   0  0  0  0  0  0  0  0  0  0  0  0
   37.5360   25.6890   31.4060 C   0  0  0  0  0  0  0  0  0  0  0  0
   38.3500   24.7340   32.0170 C   0  0  0  0  0  0  0  0  0  0  0  0
   38.5290   22.7540   32.7260 H   0  0  0  0  0  0  0  0  0  0  0  0
   34.7600   23.7850   30.9950 H   0  0  0  0  0  0  0  0  0  0  0  0
   34.6910   26.3810   30.1270 H   0  0  0  0  0  0  0  0  0  0  0  0
   39.3590   24.9970   32.3060 H   0  0  0  0  0  0  0  0  0  0  0  0
   37.3300   30.6430   29.3880 H   0  0  0  0  0  0  0  0  0  0  0  0
   37.4390   29.6400   29.7570 C   0  0  0  0  0  0  0  0  0  0  0  0
   38.6180   29.2800   29.9850 O   0  0  0  0  0  0  0  0  0  0  0  0
   36.3900   28.7160   30.0000 N   0  0  0  0  0  0  0  0  0  0  0  0
   35.4740   29.1410   29.7710 H   0  0  0  0  0  0  0  0  0  0  0  0
   35.4350   19.5230   31.5390 C   0  0  0  0  0  0  0  0  0  0  0  0
   35.8370   20.8090   31.1610 C   0  0  0  0  0  0  0  0  0  0  0  0
   36.1260   21.7410   32.1630 C   0  0  0  0  0  0  0  0  0  0  0  0
   36.0060   21.3660   33.4610 N   0  0  0  0  0  0  0  0  0  0  0  0
   35.6130   20.1060   33.8010 C   0  0  0  0  0  0  0  0  0  0  0  0
   35.3320   19.1980   32.8550 N   0  0  0  0  0  0  0  0  0  0  0  0
   35.2300   18.8590   30.7210 H   0  0  0  0  0  0  0  0  0  0  0  0
   35.9260   21.0890   30.1430 H   0  0  0  0  0  0  0  0  0  0  0  0
   35.5200   19.8130   34.8390 H   0  0  0  0  0  0  0  0  0  0  0  0
  1 10  1  0  0  0  0
  2 21  1  0  0  0  0
  2  1  2  0  0  0  0
  3  2  1  0  0  0  0
  4  3  2  0  0  0  0
  4  8  1  0  0  0  0
  5  6  1  0  0  0  0
  5  4  1  0  0  0  0
  6  7  2  0  0  0  0
  7  8  1  0  0  0  0
  8  9  2  0  0  0  0
  9  1  1  0  0  0  0
  9 13  1  0  0  0  0
 11  3  1  0  0  0  0
 12  5  1  0  0  0  0
 14 15  1  0  0  0  0
 15 16  2  0  0  0  0
 15 17  1  0  0  0  0
 17  6  1  0  0  0  0
 18 17  1  0  0  0  0
 19 24  1  0  0  0  0
 20 19  2  0  0  0  0
 20 21  1  0  0  0  0
 21 22  2  0  0  0  0
 22 23  1  0  0  0  0
 23 27  1  0  0  0  0
 24 23  2  0  0  0  0
 25 19  1  0  0  0  0
 26 20  1  0  0  0  0
M  END
>  <minimizedAffinity>
-4.86433649

$$$$

 OpenBabel03272510233D

 27 29  0  0  0  0  0  0  0  0999 V2000
   37.2000   27.8110   33.5430 C   0  0  0  0  0  0  0  0  0  0  0  0
   37.9250   27.1480   32.5650 C   0  0  0  0  0  0  0  0  0  0  0  0
   38.6150   26.0120   32.8870 C   0  0  0  0  0  0  0  0  0  0  0  0
   38.5760   25.5420   34.1950 C   0  0  0  0  0  0  0  0  0  0  0  0
   39.1660   24.4570   34.7520 N   0  0  0  0  0  0  0  0  0  0  0  0
   38.8350   24.4190   36.0430 C   0  0  0  0  0  0  0  0  0  0  0  0
   38.0450   25.4580   36.3260 N   0  0  0  0  0  0  0  0  0  0  0  0
   37.8670   26.1710   35.1990 C   0  0  0  0  0  0  0  0  0  0  0  0
   37.1630   27.3310   34.8700 C   0  0  0  0  0  0  0  0  0  0  0  0
   36.6330   28.7110   33.3640 H   0  0  0  0  0  0  0  0  0  0  0  0
   39.1730   25.4980   32.1440 H   0  0  0  0  0  0  0  0  0  0  0  0
   39.7660   23.8000   34.2090 H   0  0  0  0  0  0  0  0  0  0  0  0
   36.5970   27.8490   35.6330 H   0  0  0  0  0  0  0  0  0  0  0  0
   38.8820   22.5930   39.0490 H   0  0  0  0  0  0  0  0  0  0  0  0
   38.6040   23.3070   38.2970 C   0  0  0  0  0  0  0  0  0  0  0  0
   37.6440   24.0560   38.5990 O   0  0  0  0  0  0  0  0  0  0  0  0
   39.2150   23.4700   37.0260 N   0  0  0  0  0  0  0  0  0  0  0  0
   39.9890   22.7920   36.9080 H   0  0  0  0  0  0  0  0  0  0  0  0
   36.9900   29.1400   29.5130 C   0  0  0  0  0  0  0  0  0  0  0  0
   36.9290   28.6440   30.8210 C   0  0  0  0  0  0  0  0  0  0  0  0
   37.8980   27.7240   31.2330 C   0  0  0  0  0  0  0  0  0  0  0  0
   38.8590   27.3460   30.3530 N   0  0  0  0  0  0  0  0  0  0  0  0
   38.8950   27.8450   29.0850 C   0  0  0  0  0  0  0  0  0  0  0  0
   37.9750   28.7290   28.6710 N   0  0  0  0  0  0  0  0  0  0  0  0
   36.2170   29.8410   29.2640 H   0  0  0  0  0  0  0  0  0  0  0  0
   36.1720   28.9470   31.4970 H   0  0  0  0  0  0  0  0  0  0  0  0
   39.6650   27.5400   28.3890 H   0  0  0  0  0  0  0  0  0  0  0  0
  1  9  1  0  0  0  0
  2  3  1  0  0  0  0
  2  1  2  0  0  0  0
  3  4  2  0  0  0  0
  4  5  1  0  0  0  0
  4  8  1  0  0  0  0
  5  6  1  0  0  0  0
  6  7  2  0  0  0  0
  6 17  1  0  0  0  0
  8  7  1  0  0  0  0
  9  8  2  0  0  0  0
  9 13  1  0  0  0  0
 10  1  1  0  0  0  0
 11  3  1  0  0  0  0
 12  5  1  0  0  0  0
 15 16  2  0  0  0  0
 15 14  1  0  0  0  0
 17 15  1  0  0  0  0
 18 17  1  0  0  0  0
 19 20  1  0  0  0  0
 20 21  2  0  0  0  0
 20 26  1  0  0  0  0
 21  2  1  0  0  0  0
 22 21  1  0  0  0  0
 23 22  2  0  0  0  0
 24 23  1  0  0  0  0
 24 19  2  0  0  0  0
 25 19  1  0  0  0  0
 27 23  1  0  0  0  0
M  END
>  <minimizedAffinity>
-4.82414961

$$$$

 OpenBabel03272510233D

 27 29  0  0  0  0  0  0  0  0999 V2000
   36.7070   28.4440   35.0380 C   0  0  0  0  0  0  0  0  0  0  0  0
   35.9330   29.1990   34.1710 C   0  0  0  0  0  0  0  0  0  0  0  0
   35.7120   28.7540   32.8980 C   0  0  0  0  0  0  0  0  0  0  0  0
   36.2690   27.5450   32.4940 C   0  0  0  0  0  0  0  0  0  0  0  0
   36.1960   26.9020   31.3050 N   0  0  0  0  0  0  0  0  0  0  0  0
   36.8960   25.7710   31.3980 C   0  0  0  0  0  0  0  0  0  0  0  0
   37.4180   25.6760   32.6240 N   0  0  0  0  0  0  0  0  0  0  0  0
   37.0460   26.7620   33.3260 C   0  0  0  0  0  0  0  0  0  0  0  0
   37.2720   27.2170   34.6250 C   0  0  0  0  0  0  0  0  0  0  0  0
   36.9250   28.7310   36.0540 H   0  0  0  0  0  0  0  0  0  0  0  0
   35.1200   29.3270   32.2270 H   0  0  0  0  0  0  0  0  0  0  0  0
   35.6640   27.2800   30.4920 H   0  0  0  0  0  0  0  0  0  0  0  0
   37.8760   26.6280   35.3020 H   0  0  0  0  0  0  0  0  0  0  0  0
   37.7630   22.7060   29.9060 H   0  0  0  0  0  0  0  0  0  0  0  0
   37.6000   23.4670   30.6460 C   0  0  0  0  0  0  0  0  0  0  0  0
   37.8840   23.1390   31.8230 O   0  0  0  0  0  0  0  0  0  0  0  0
   37.1050   24.7760   30.4090 N   0  0  0  0  0  0  0  0  0  0  0  0
   36.9130   24.9120   29.4010 H   0  0  0  0  0  0  0  0  0  0  0  0
   35.4040   32.3410   36.1730 C   0  0  0  0  0  0  0  0  0  0  0  0
   35.9990   31.1490   35.7420 C   0  0  0  0  0  0  0  0  0  0  0  0
   35.3990   30.4440   34.6930 C   0  0  0  0  0  0  0  0  0  0  0  0
   34.2670   30.9390   34.1350 N   0  0  0  0  0  0  0  0  0  0  0  0
   33.7090   32.1020   34.5740 C   0  0  0  0  0  0  0  0  0  0  0  0
   34.2680   32.7930   35.5780 N   0  0  0  0  0  0  0  0  0  0  0  0
   35.9150   32.8300   36.9800 H   0  0  0  0  0  0  0  0  0  0  0  0
   36.8840   30.7740   36.1880 H   0  0  0  0  0  0  0  0  0  0  0  0
   32.8050   32.4910   34.1230 H   0  0  0  0  0  0  0  0  0  0  0  0
  1 10  1  0  0  0  0
  2 21  1  0  0  0  0
  2  1  2  0  0  0  0
  3  2  1  0  0  0  0
  4  3  2  0  0  0  0
  4  8  1  0  0  0  0
  5  6  1  0  0  0  0
  5  4  1  0  0  0  0
  6  7  2  0  0  0  0
  7  8  1  0  0  0  0
  8  9  2  0  0  0  0
  9  1  1  0  0  0  0
  9 13  1  0  0  0  0
 11  3  1  0  0  0  0
 12  5  1  0  0  0  0
 14 15  1  0  0  0  0
 15 16  2  0  0  0  0
 17 15  1  0  0  0  0
 17  6  1  0  0  0  0
 18 17  1  0  0  0  0
 19 25  1  0  0  0  0
 20 19  1  0  0  0  0
 20 26  1  0  0  0  0
 21 20  2  0  0  0  0
 22 23  2  0  0  0  0
 22 21  1  0  0  0  0
 23 24  1  0  0  0  0
 24 19  2  0  0  0  0
 27 23  1  0  0  0  0
M  END
>  <minimizedAffinity>
-4.81907272

$$$$
