
 OpenBabel03272509563D

 42 44  0  0  0  0  0  0  0  0999 V2000
   34.2140   28.9600   48.0710 C   0  0  0  0  0  0  0  0  0  0  0  0
   34.7800   29.5760   47.3450 H   0  0  0  0  0  0  0  0  0  0  0  0
   33.5290   29.6540   48.6040 H   0  0  0  0  0  0  0  0  0  0  0  0
   33.3790   27.9020   47.4310 C   0  0  0  0  0  0  0  0  0  0  0  0
   33.3910   28.0830   46.3160 H   0  0  0  0  0  0  0  0  0  0  0  0
   33.7450   26.8720   47.5680 H   0  0  0  0  0  0  0  0  0  0  0  0
   31.9300   28.0100   47.8010 C   0  0  0  0  0  0  0  0  0  0  0  0
   31.5840   27.6530   49.0910 C   0  0  0  0  0  0  0  0  0  0  0  0
   30.2920   27.7140   49.5300 C   0  0  0  0  0  0  0  0  0  0  0  0
   29.3430   28.1240   48.7020 N   0  0  0  0  0  0  0  0  0  0  0  0
   29.6870   28.4750   47.4280 C   0  0  0  0  0  0  0  0  0  0  0  0
   30.9600   28.4260   46.9630 N   0  0  0  0  0  0  0  0  0  0  0  0
   32.3270   27.3120   49.8030 H   0  0  0  0  0  0  0  0  0  0  0  0
   29.9840   27.4420   50.5350 H   0  0  0  0  0  0  0  0  0  0  0  0
   28.6100   28.9370   46.5010 C   0  0  0  0  0  0  0  0  0  0  0  0
   27.9790   28.0500   46.2820 H   0  0  0  0  0  0  0  0  0  0  0  0
   29.0530   29.2360   45.5270 H   0  0  0  0  0  0  0  0  0  0  0  0
   26.0690   30.7730   48.0830 H   0  0  0  0  0  0  0  0  0  0  0  0
   26.4990   29.8530   47.7040 C   0  0  0  0  0  0  0  0  0  0  0  0
   25.9930   28.7000   47.7430 O   0  0  0  0  0  0  0  0  0  0  0  0
   27.7980   29.9620   47.0860 N   0  0  0  0  0  0  0  0  0  0  0  0
   28.2810   30.8920   47.0170 H   0  0  0  0  0  0  0  0  0  0  0  0
   35.0520   28.4070   49.0740 O   0  0  0  0  0  0  0  0  0  0  0  0
   37.3070   30.1500   51.3010 C   0  0  0  0  0  0  0  0  0  0  0  0
   38.0810   30.8680   50.3550 C   0  0  0  0  0  0  0  0  0  0  0  0
   37.7740   30.7040   49.0090 C   0  0  0  0  0  0  0  0  0  0  0  0
   36.7390   29.8520   48.7230 N   0  0  0  0  0  0  0  0  0  0  0  0
   36.0220   29.1840   49.6340 C   0  0  0  0  0  0  0  0  0  0  0  0
   36.3180   29.3420   50.9400 N   0  0  0  0  0  0  0  0  0  0  0  0
   37.5890   30.3130   52.3350 H   0  0  0  0  0  0  0  0  0  0  0  0
   38.8850   31.5310   50.5640 H   0  0  0  0  0  0  0  0  0  0  0  0
   38.9490   33.3410   48.9350 F   0  0  0  0  0  0  0  0  0  0  0  0
   39.0020   32.5740   47.8560 C   0  0  0  0  0  0  0  0  0  0  0  0
   38.4480   31.3500   47.9080 C   0  0  0  0  0  0  0  0  0  0  0  0
   38.5560   30.6210   46.7190 C   0  0  0  0  0  0  0  0  0  0  0  0
   39.1710   31.1190   45.6050 C   0  0  0  0  0  0  0  0  0  0  0  0
   39.7250   32.3820   45.5970 C   0  0  0  0  0  0  0  0  0  0  0  0
   39.6280   33.1090   46.7520 C   0  0  0  0  0  0  0  0  0  0  0  0
   38.1480   29.6190   46.6380 H   0  0  0  0  0  0  0  0  0  0  0  0
   39.2360   30.5250   44.6980 H   0  0  0  0  0  0  0  0  0  0  0  0
   40.1990   32.7250   44.6860 H   0  0  0  0  0  0  0  0  0  0  0  0
   40.0600   34.1030   46.7620 H   0  0  0  0  0  0  0  0  0  0  0  0
  1  3  1  0  0  0  0
  1 23  1  0  0  0  0
  2  1  1  0  0  0  0
  4  6  1  0  0  0  0
  4  7  1  0  0  0  0
  4  1  1  0  0  0  0
  5  4  1  0  0  0  0
  7  8  1  0  0  0  0
  8  9  2  0  0  0  0
  8 13  1  0  0  0  0
  9 14  1  0  0  0  0
 10  9  1  0  0  0  0
 11 10  2  0  0  0  0
 12 11  1  0  0  0  0
 12  7  2  0  0  0  0
 15 21  1  0  0  0  0
 15 11  1  0  0  0  0
 16 15  1  0  0  0  0
 17 15  1  0  0  0  0
 19 20  2  0  0  0  0
 19 18  1  0  0  0  0
 21 19  1  0  0  0  0
 22 21  1  0  0  0  0
 23 28  1  0  0  0  0
 24 30  1  0  0  0  0
 25 31  1  0  0  0  0
 25 24  2  0  0  0  0
 26 25  1  0  0  0  0
 27 26  2  0  0  0  0
 27 28  1  0  0  0  0
 28 29  2  0  0  0  0
 29 24  1  0  0  0  0
 33 34  1  0  0  0  0
 33 32  1  0  0  0  0
 34 26  1  0  0  0  0
 35 34  2  0  0  0  0
 36 35  1  0  0  0  0
 37 36  2  0  0  0  0
 37 38  1  0  0  0  0
 38 42  1  0  0  0  0
 38 33  2  0  0  0  0
 39 35  1  0  0  0  0
 40 36  1  0  0  0  0
 41 37  1  0  0  0  0
M  END
>  <minimizedAffinity>
-6.43176937

>  <minimizedRMSD>
1.1075542

$$$$
