
 OpenBabel03272503383D

 15 15  0  0  0  0  0  0  0  0999 V2000
   38.9160   26.9580   35.7230 C   0  0  0  0  0  0  0  0  0  0  0  0
   38.2450   25.8430   36.2410 C   0  0  0  0  0  0  0  0  0  0  0  0
   38.7910   24.5970   35.9650 C   0  0  0  0  0  0  0  0  0  0  0  0
   39.9240   24.5190   35.2230 N   0  0  0  0  0  0  0  0  0  0  0  0
   40.5520   25.6310   34.7330 C   0  0  0  0  0  0  0  0  0  0  0  0
   40.0320   26.8360   34.9950 N   0  0  0  0  0  0  0  0  0  0  0  0
   37.3420   25.8930   36.8340 H   0  0  0  0  0  0  0  0  0  0  0  0
   41.4550   25.5580   34.1420 H   0  0  0  0  0  0  0  0  0  0  0  0
   37.2770   22.5920   38.4050 H   0  0  0  0  0  0  0  0  0  0  0  0
   37.7540   23.3520   37.7940 C   0  0  0  0  0  0  0  0  0  0  0  0
   37.8060   24.2410   38.7060 O   0  0  0  0  0  0  0  0  0  0  0  0
   38.1900   23.3990   36.4420 N   0  0  0  0  0  0  0  0  0  0  0  0
   37.9810   22.4820   36.0000 H   0  0  0  0  0  0  0  0  0  0  0  0
   38.2810   28.1550   36.0620 O   0  0  0  0  0  0  0  0  0  0  0  0
   38.8070   28.9830   36.3250 H   0  0  0  0  0  0  0  0  0  0  0  0
  1 14  1  0  0  0  0
  1  2  1  0  0  0  0
  2  7  1  0  0  0  0
  3  2  2  0  0  0  0
  3 12  1  0  0  0  0
  4  3  1  0  0  0  0
  5  6  1  0  0  0  0
  5  4  2  0  0  0  0
  6  1  2  0  0  0  0
  8  5  1  0  0  0  0
 10  9  1  0  0  0  0
 10 11  2  0  0  0  0
 12 10  1  0  0  0  0
 13 12  1  0  0  0  0
 14 15  1  0  0  0  0
M  END
>  <minimizedAffinity>
-3.82795763

$$$$

 OpenBabel03272503383D

 15 15  0  0  0  0  0  0  0  0999 V2000
   39.6170   22.7250   37.7300 C   0  0  0  0  0  0  0  0  0  0  0  0
   39.4900   23.0190   36.3670 C   0  0  0  0  0  0  0  0  0  0  0  0
   38.5600   23.9890   36.0180 C   0  0  0  0  0  0  0  0  0  0  0  0
   37.8340   24.5930   36.9910 N   0  0  0  0  0  0  0  0  0  0  0  0
   37.9850   24.2780   38.3140 C   0  0  0  0  0  0  0  0  0  0  0  0
   38.8800   23.3450   38.6590 N   0  0  0  0  0  0  0  0  0  0  0  0
   40.0630   22.5450   35.5820 H   0  0  0  0  0  0  0  0  0  0  0  0
   37.4010   24.7650   39.0830 H   0  0  0  0  0  0  0  0  0  0  0  0
   39.6180   24.8730   32.7980 H   0  0  0  0  0  0  0  0  0  0  0  0
   39.4860   24.5870   33.8360 C   0  0  0  0  0  0  0  0  0  0  0  0
   40.7280   24.5040   34.1090 O   0  0  0  0  0  0  0  0  0  0  0  0
   38.3500   24.3650   34.6620 N   0  0  0  0  0  0  0  0  0  0  0  0
   37.4970   24.5270   34.0910 H   0  0  0  0  0  0  0  0  0  0  0  0
   40.5780   21.7380   37.9650 O   0  0  0  0  0  0  0  0  0  0  0  0
   41.2160   21.7920   38.7530 H   0  0  0  0  0  0  0  0  0  0  0  0
  1 14  1  0  0  0  0
  1  6  1  0  0  0  0
  2  1  2  0  0  0  0
  3  2  1  0  0  0  0
  3  4  2  0  0  0  0
  4  5  1  0  0  0  0
  5  6  2  0  0  0  0
  5  8  1  0  0  0  0
  7  2  1  0  0  0  0
  9 10  1  0  0  0  0
 10 11  2  0  0  0  0
 10 12  1  0  0  0  0
 12  3  1  0  0  0  0
 13 12  1  0  0  0  0
 14 15  1  0  0  0  0
M  END
>  <minimizedAffinity>
-3.75440216

$$$$

 OpenBabel03272503383D

 15 15  0  0  0  0  0  0  0  0999 V2000
   36.1290   21.0680   35.7880 C   0  0  0  0  0  0  0  0  0  0  0  0
   35.5290   20.6000   34.6120 C   0  0  0  0  0  0  0  0  0  0  0  0
   36.1480   20.9340   33.4150 C   0  0  0  0  0  0  0  0  0  0  0  0
   37.2790   21.6820   33.4390 N   0  0  0  0  0  0  0  0  0  0  0  0
   37.8360   22.1220   34.6080 C   0  0  0  0  0  0  0  0  0  0  0  0
   37.2460   21.8040   35.7660 N   0  0  0  0  0  0  0  0  0  0  0  0
   34.6280   20.0030   34.5800 H   0  0  0  0  0  0  0  0  0  0  0  0
   38.7380   22.7180   34.6170 H   0  0  0  0  0  0  0  0  0  0  0  0
   34.7710   18.5830   31.2140 H   0  0  0  0  0  0  0  0  0  0  0  0
   35.1970   19.1600   32.0270 C   0  0  0  0  0  0  0  0  0  0  0  0
   35.2010   18.2090   32.8750 O   0  0  0  0  0  0  0  0  0  0  0  0
   35.6230   20.5100   32.1620 N   0  0  0  0  0  0  0  0  0  0  0  0
   35.4660   20.9930   31.2550 H   0  0  0  0  0  0  0  0  0  0  0  0
   35.4250   20.6740   36.9270 O   0  0  0  0  0  0  0  0  0  0  0  0
   35.9020   20.3740   37.7730 H   0  0  0  0  0  0  0  0  0  0  0  0
  1 14  1  0  0  0  0
  2  1  2  0  0  0  0
  3  4  2  0  0  0  0
  3  2  1  0  0  0  0
  4  5  1  0  0  0  0
  5  8  1  0  0  0  0
  5  6  2  0  0  0  0
  6  1  1  0  0  0  0
  7  2  1  0  0  0  0
  9 10  1  0  0  0  0
 10 12  1  0  0  0  0
 10 11  2  0  0  0  0
 12  3  1  0  0  0  0
 13 12  1  0  0  0  0
 14 15  1  0  0  0  0
M  END
>  <minimizedAffinity>
-3.61074281

$$$$

 OpenBabel03272503383D

 15 15  0  0  0  0  0  0  0  0999 V2000
   38.6940   23.3470   37.8270 C   0  0  0  0  0  0  0  0  0  0  0  0
   39.7890   22.9980   37.0260 C   0  0  0  0  0  0  0  0  0  0  0  0
   39.9520   23.7030   35.8420 C   0  0  0  0  0  0  0  0  0  0  0  0
   39.0630   24.6760   35.5220 N   0  0  0  0  0  0  0  0  0  0  0  0
   38.0040   24.9900   36.3290 C   0  0  0  0  0  0  0  0  0  0  0  0
   37.8400   24.3150   37.4730 N   0  0  0  0  0  0  0  0  0  0  0  0
   40.5040   22.2240   37.2710 H   0  0  0  0  0  0  0  0  0  0  0  0
   37.3010   25.7680   36.0650 H   0  0  0  0  0  0  0  0  0  0  0  0
   43.3070   23.0530   35.0750 H   0  0  0  0  0  0  0  0  0  0  0  0
   42.3320   23.2630   35.5020 C   0  0  0  0  0  0  0  0  0  0  0  0
   42.7280   23.3170   36.7120 O   0  0  0  0  0  0  0  0  0  0  0  0
   41.0310   23.4290   34.9560 N   0  0  0  0  0  0  0  0  0  0  0  0
   41.0940   23.3140   33.9240 H   0  0  0  0  0  0  0  0  0  0  0  0
   38.6280   22.5760   38.9890 O   0  0  0  0  0  0  0  0  0  0  0  0
   38.3700   22.9800   39.8850 H   0  0  0  0  0  0  0  0  0  0  0  0
  1 14  1  0  0  0  0
  2  7  1  0  0  0  0
  2  1  2  0  0  0  0
  3  2  1  0  0  0  0
  4  3  2  0  0  0  0
  4  5  1  0  0  0  0
  5  6  2  0  0  0  0
  6  1  1  0  0  0  0
  8  5  1  0  0  0  0
  9 10  1  0  0  0  0
 10 11  2  0  0  0  0
 12 10  1  0  0  0  0
 12  3  1  0  0  0  0
 13 12  1  0  0  0  0
 14 15  1  0  0  0  0
M  END
>  <minimizedAffinity>
-3.52016449

$$$$

 OpenBabel03272503383D

 15 15  0  0  0  0  0  0  0  0999 V2000
   40.2160   22.1780   35.0680 C   0  0  0  0  0  0  0  0  0  0  0  0
   39.3340   22.5070   36.1050 C   0  0  0  0  0  0  0  0  0  0  0  0
   39.8370   22.4510   37.3980 C   0  0  0  0  0  0  0  0  0  0  0  0
   41.1300   22.0880   37.5920 N   0  0  0  0  0  0  0  0  0  0  0  0
   41.9620   21.7730   36.5530 C   0  0  0  0  0  0  0  0  0  0  0  0
   41.4850   21.8250   35.3040 N   0  0  0  0  0  0  0  0  0  0  0  0
   38.3020   22.7970   35.9630 H   0  0  0  0  0  0  0  0  0  0  0  0
   42.9910   21.4850   36.7180 H   0  0  0  0  0  0  0  0  0  0  0  0
   37.5100   24.3880   39.1580 H   0  0  0  0  0  0  0  0  0  0  0  0
   38.2060   23.9230   38.4680 C   0  0  0  0  0  0  0  0  0  0  0  0
   38.0550   24.7780   37.5340 O   0  0  0  0  0  0  0  0  0  0  0  0
   39.0280   22.7650   38.5250 N   0  0  0  0  0  0  0  0  0  0  0  0
   38.8880   22.3120   39.4500 H   0  0  0  0  0  0  0  0  0  0  0  0
   39.6060   22.2680   33.8150 O   0  0  0  0  0  0  0  0  0  0  0  0
   40.0940   22.6490   33.0090 H   0  0  0  0  0  0  0  0  0  0  0  0
  1  6  2  0  0  0  0
  1  2  1  0  0  0  0
  2  3  2  0  0  0  0
  3  4  1  0  0  0  0
  3 12  1  0  0  0  0
  5  8  1  0  0  0  0
  5  4  2  0  0  0  0
  6  5  1  0  0  0  0
  7  2  1  0  0  0  0
 10 12  1  0  0  0  0
 10  9  1  0  0  0  0
 11 10  2  0  0  0  0
 12 13  1  0  0  0  0
 14  1  1  0  0  0  0
 15 14  1  0  0  0  0
M  END
>  <minimizedAffinity>
-3.43222427

$$$$

 OpenBabel03272503383D

 15 15  0  0  0  0  0  0  0  0999 V2000
   38.3480   23.5070   37.7890 C   0  0  0  0  0  0  0  0  0  0  0  0
   37.3980   22.9870   36.9020 C   0  0  0  0  0  0  0  0  0  0  0  0
   37.8660   22.1440   35.9030 C   0  0  0  0  0  0  0  0  0  0  0  0
   39.1920   21.8700   35.8340 N   0  0  0  0  0  0  0  0  0  0  0  0
   40.0920   22.3970   36.7190 C   0  0  0  0  0  0  0  0  0  0  0  0
   39.6490   23.2100   37.6850 N   0  0  0  0  0  0  0  0  0  0  0  0
   36.3380   23.1980   36.9470 H   0  0  0  0  0  0  0  0  0  0  0  0
   41.1480   22.1720   36.6550 H   0  0  0  0  0  0  0  0  0  0  0  0
   34.9350   20.4990   34.9190 H   0  0  0  0  0  0  0  0  0  0  0  0
   35.7660   20.9940   35.4090 C   0  0  0  0  0  0  0  0  0  0  0  0
   35.2930   20.9110   36.5890 O   0  0  0  0  0  0  0  0  0  0  0  0
   36.9860   21.5610   34.9490 N   0  0  0  0  0  0  0  0  0  0  0  0
   37.0310   21.4440   33.9160 H   0  0  0  0  0  0  0  0  0  0  0  0
   37.7680   24.3390   38.7490 O   0  0  0  0  0  0  0  0  0  0  0  0
   38.0690   24.3250   39.7200 H   0  0  0  0  0  0  0  0  0  0  0  0
  1 14  1  0  0  0  0
  2  7  1  0  0  0  0
  2  1  2  0  0  0  0
  3  2  1  0  0  0  0
  4  3  2  0  0  0  0
  4  5  1  0  0  0  0
  5  6  2  0  0  0  0
  6  1  1  0  0  0  0
  8  5  1  0  0  0  0
  9 10  1  0  0  0  0
 10 11  2  0  0  0  0
 12 10  1  0  0  0  0
 12  3  1  0  0  0  0
 13 12  1  0  0  0  0
 14 15  1  0  0  0  0
M  END
>  <minimizedAffinity>
-3.40871644

$$$$

 OpenBabel03272503383D

 15 15  0  0  0  0  0  0  0  0999 V2000
   37.9380   23.0460   36.8580 C   0  0  0  0  0  0  0  0  0  0  0  0
   38.6140   24.2450   36.6010 C   0  0  0  0  0  0  0  0  0  0  0  0
   38.9460   24.5080   35.2790 C   0  0  0  0  0  0  0  0  0  0  0  0
   38.6080   23.6110   34.3190 N   0  0  0  0  0  0  0  0  0  0  0  0
   37.9480   22.4480   34.6090 C   0  0  0  0  0  0  0  0  0  0  0  0
   37.6240   22.1880   35.8810 N   0  0  0  0  0  0  0  0  0  0  0  0
   38.8890   24.9680   37.3570 H   0  0  0  0  0  0  0  0  0  0  0  0
   37.6830   21.7390   33.8370 H   0  0  0  0  0  0  0  0  0  0  0  0
   39.5300   27.9600   35.3560 H   0  0  0  0  0  0  0  0  0  0  0  0
   39.2010   26.9320   35.4610 C   0  0  0  0  0  0  0  0  0  0  0  0
   38.2550   27.1780   36.2790 O   0  0  0  0  0  0  0  0  0  0  0  0
   39.6330   25.6960   34.9060 N   0  0  0  0  0  0  0  0  0  0  0  0
   40.4380   25.8870   34.2760 H   0  0  0  0  0  0  0  0  0  0  0  0
   37.6560   22.8860   38.2170 O   0  0  0  0  0  0  0  0  0  0  0  0
   36.7710   22.5020   38.5370 H   0  0  0  0  0  0  0  0  0  0  0  0
  1 14  1  0  0  0  0
  2  1  1  0  0  0  0
  2  7  1  0  0  0  0
  3  2  2  0  0  0  0
  4  5  2  0  0  0  0
  4  3  1  0  0  0  0
  5  6  1  0  0  0  0
  6  1  2  0  0  0  0
  8  5  1  0  0  0  0
  9 10  1  0  0  0  0
 10 11  2  0  0  0  0
 12  3  1  0  0  0  0
 12 10  1  0  0  0  0
 13 12  1  0  0  0  0
 14 15  1  0  0  0  0
M  END
>  <minimizedAffinity>
-3.40171504

$$$$

 OpenBabel03272503383D

 15 15  0  0  0  0  0  0  0  0999 V2000
   41.2410   21.6520   36.9570 C   0  0  0  0  0  0  0  0  0  0  0  0
   40.2510   22.6110   37.2050 C   0  0  0  0  0  0  0  0  0  0  0  0
   39.8630   23.4050   36.1350 C   0  0  0  0  0  0  0  0  0  0  0  0
   40.4490   23.2210   34.9250 N   0  0  0  0  0  0  0  0  0  0  0  0
   41.4140   22.2730   34.7200 C   0  0  0  0  0  0  0  0  0  0  0  0
   41.7930   21.5030   35.7460 N   0  0  0  0  0  0  0  0  0  0  0  0
   39.7770   22.7670   38.1650 H   0  0  0  0  0  0  0  0  0  0  0  0
   41.8750   22.1340   33.7520 H   0  0  0  0  0  0  0  0  0  0  0  0
   36.7780   24.6420   37.2380 H   0  0  0  0  0  0  0  0  0  0  0  0
   37.6760   24.0890   36.9860 C   0  0  0  0  0  0  0  0  0  0  0  0
   37.3240   23.0010   37.5490 O   0  0  0  0  0  0  0  0  0  0  0  0
   38.8660   24.4100   36.2770 N   0  0  0  0  0  0  0  0  0  0  0  0
   38.7990   25.3980   35.9600 H   0  0  0  0  0  0  0  0  0  0  0  0
   41.5520   20.9120   38.1000 O   0  0  0  0  0  0  0  0  0  0  0  0
   41.7240   19.9120   38.0580 H   0  0  0  0  0  0  0  0  0  0  0  0
  1  2  1  0  0  0  0
  1 14  1  0  0  0  0
  2  7  1  0  0  0  0
  3 12  1  0  0  0  0
  3  2  2  0  0  0  0
  4  3  1  0  0  0  0
  5  4  2  0  0  0  0
  5  6  1  0  0  0  0
  6  1  2  0  0  0  0
  8  5  1  0  0  0  0
 10  9  1  0  0  0  0
 10 11  2  0  0  0  0
 12 10  1  0  0  0  0
 13 12  1  0  0  0  0
 15 14  1  0  0  0  0
M  END
>  <minimizedAffinity>
-3.3260293

$$$$

 OpenBabel03272503383D

 15 15  0  0  0  0  0  0  0  0999 V2000
   35.3330   25.3860   30.9080 C   0  0  0  0  0  0  0  0  0  0  0  0
   35.7530   24.0730   31.1590 C   0  0  0  0  0  0  0  0  0  0  0  0
   36.7280   23.9010   32.1320 C   0  0  0  0  0  0  0  0  0  0  0  0
   37.2190   24.9880   32.7790 N   0  0  0  0  0  0  0  0  0  0  0  0
   36.7850   26.2560   32.5060 C   0  0  0  0  0  0  0  0  0  0  0  0
   35.8450   26.4300   31.5700 N   0  0  0  0  0  0  0  0  0  0  0  0
   35.3690   23.2000   30.6500 H   0  0  0  0  0  0  0  0  0  0  0  0
   37.1830   27.1160   33.0270 H   0  0  0  0  0  0  0  0  0  0  0  0
   36.3910   20.4990   32.8930 H   0  0  0  0  0  0  0  0  0  0  0  0
   36.2950   21.5510   32.6430 C   0  0  0  0  0  0  0  0  0  0  0  0
   35.0250   21.5490   32.5500 O   0  0  0  0  0  0  0  0  0  0  0  0
   37.2250   22.6110   32.4660 N   0  0  0  0  0  0  0  0  0  0  0  0
   38.1820   22.2350   32.6240 H   0  0  0  0  0  0  0  0  0  0  0  0
   34.3530   25.4400   29.9140 O   0  0  0  0  0  0  0  0  0  0  0  0
   33.5570   26.0680   29.9830 H   0  0  0  0  0  0  0  0  0  0  0  0
  1  2  2  0  0  0  0
  1  6  1  0  0  0  0
  2  3  1  0  0  0  0
  3 12  1  0  0  0  0
  3  4  2  0  0  0  0
  5  4  1  0  0  0  0
  5  8  1  0  0  0  0
  6  5  2  0  0  0  0
  7  2  1  0  0  0  0
 10  9  1  0  0  0  0
 11 10  2  0  0  0  0
 12 13  1  0  0  0  0
 12 10  1  0  0  0  0
 14 15  1  0  0  0  0
 14  1  1  0  0  0  0
M  END
>  <minimizedAffinity>
-3.3227067

$$$$
