
 OpenBabel03272506123D

 40 42  0  0  1  0  0  0  0  0999 V2000
   32.7450   29.6430   34.9690 C   0  0  1  0  0  0  0  0  0  0  0  0
   32.1120   28.9440   36.2320 C   0  0  0  0  0  0  0  0  0  0  0  0
   31.1560   27.8350   35.7910 C   0  0  0  0  0  0  0  0  0  0  0  0
   30.2740   28.3080   34.6770 C   0  0  0  0  0  0  0  0  0  0  0  0
   30.2510   29.8060   34.7160 C   0  0  0  0  0  0  0  0  0  0  0  0
   31.6050   30.2830   34.2370 C   0  0  2  0  0  0  0  0  0  0  0  0
   32.9180   28.7820   34.4190 H   0  0  0  0  0  0  0  0  0  0  0  0
   31.6260   29.7340   36.8130 H   0  0  0  0  0  0  0  0  0  0  0  0
   32.9470   28.4920   36.7830 H   0  0  0  0  0  0  0  0  0  0  0  0
   30.5750   27.5920   36.7030 H   0  0  0  0  0  0  0  0  0  0  0  0
   31.8370   26.9900   35.5040 H   0  0  0  0  0  0  0  0  0  0  0  0
   29.2370   27.9470   34.8810 H   0  0  0  0  0  0  0  0  0  0  0  0
   30.5900   27.9020   33.7020 H   0  0  0  0  0  0  0  0  0  0  0  0
   29.9650   30.1450   35.7090 H   0  0  0  0  0  0  0  0  0  0  0  0
   29.5200   30.1890   33.9720 H   0  0  0  0  0  0  0  0  0  0  0  0
   31.5640   31.3690   34.2330 H   0  0  0  0  0  0  0  0  0  0  0  0
   34.9810   30.6350   34.9120 C   0  0  0  0  0  0  0  0  0  0  0  0
   35.8650   31.6170   35.3850 C   0  0  0  0  0  0  0  0  0  0  0  0
   35.5440   32.4960   36.4040 C   0  0  0  0  0  0  0  0  0  0  0  0
   34.3000   32.4230   37.0020 C   0  0  0  0  0  0  0  0  0  0  0  0
   33.4350   31.4480   36.5230 C   0  0  0  0  0  0  0  0  0  0  0  0
   33.7260   30.5570   35.5030 C   0  0  0  0  0  0  0  0  0  0  0  0
   36.8590   31.7380   34.9620 H   0  0  0  0  0  0  0  0  0  0  0  0
   36.2720   33.2250   36.7130 H   0  0  0  0  0  0  0  0  0  0  0  0
   34.0620   33.1130   37.7980 H   0  0  0  0  0  0  0  0  0  0  0  0
   32.4970   31.4720   37.0650 H   0  0  0  0  0  0  0  0  0  0  0  0
   36.1580   28.5470   34.4310 C   0  0  0  0  0  0  0  0  0  0  0  0
   35.5270   29.7520   33.9400 C   0  0  0  0  0  0  0  0  0  0  0  0
   35.4930   29.9140   32.5860 C   0  0  0  0  0  0  0  0  0  0  0  0
   36.0300   28.9650   31.7850 N   0  0  0  0  0  0  0  0  0  0  0  0
   36.6190   27.8330   32.2760 C   0  0  0  0  0  0  0  0  0  0  0  0
   36.6930   27.6060   33.6390 N   0  0  0  0  0  0  0  0  0  0  0  0
   36.2580   28.2860   35.4720 H   0  0  0  0  0  0  0  0  0  0  0  0
   35.1730   30.7100   31.9890 H   0  0  0  0  0  0  0  0  0  0  0  0
   37.0490   27.0710   31.6180 H   0  0  0  0  0  0  0  0  0  0  0  0
   32.1950   30.6880   30.7810 H   0  0  0  0  0  0  0  0  0  0  0  0
   32.1480   30.8830   31.8430 C   0  0  0  0  0  0  0  0  0  0  0  0
   32.5770   32.0200   32.2390 O   0  0  0  0  0  0  0  0  0  0  0  0
   31.6370   29.9420   32.7930 N   0  0  0  0  0  0  0  0  0  0  0  0
   31.3170   29.0440   32.3330 H   0  0  0  0  0  0  0  0  0  0  0  0
  1  7  1  6  0  0  0
  1 22  1  0  0  0  0
  1  2  1  0  0  0  0
  2  9  1  0  0  0  0
  2  8  1  0  0  0  0
  3  2  1  0  0  0  0
  3 10  1  0  0  0  0
  4  5  1  0  0  0  0
  4 12  1  0  0  0  0
  4  3  1  0  0  0  0
  5 14  1  0  0  0  0
  6 16  1  1  0  0  0
  6  5  1  0  0  0  0
  6  1  1  0  0  0  0
 11  3  1  0  0  0  0
 13  4  1  0  0  0  0
 15  5  1  0  0  0  0
 17 18  2  0  0  0  0
 17 22  1  0  0  0  0
 18 19  1  0  0  0  0
 19 24  1  0  0  0  0
 19 20  2  0  0  0  0
 20 25  1  0  0  0  0
 21 20  1  0  0  0  0
 21 26  1  0  0  0  0
 22 21  2  0  0  0  0
 23 18  1  0  0  0  0
 27 33  1  0  0  0  0
 28 27  1  0  0  0  0
 28 17  1  0  0  0  0
 29 28  2  0  0  0  0
 30 31  2  0  0  0  0
 30 29  1  0  0  0  0
 31 32  1  0  0  0  0
 32 27  2  0  0  0  0
 34 29  1  0  0  0  0
 35 31  1  0  0  0  0
 36 37  1  0  0  0  0
 37 38  2  0  0  0  0
 37 39  1  0  0  0  0
 39  6  1  0  0  0  0
 40 39  1  0  0  0  0
M  END
>  <minimizedAffinity>
-5.15102386

$$$$

 OpenBabel03272506123D

 40 42  0  0  1  0  0  0  0  0999 V2000
   38.9160   24.1940   34.7980 C   0  0  1  0  0  0  0  0  0  0  0  0
   39.0150   22.9940   33.7800 C   0  0  0  0  0  0  0  0  0  0  0  0
   37.7660   22.1170   33.8840 C   0  0  0  0  0  0  0  0  0  0  0  0
   37.4190   21.8560   35.3170 C   0  0  0  0  0  0  0  0  0  0  0  0
   38.6550   22.0830   36.1350 C   0  0  0  0  0  0  0  0  0  0  0  0
   38.9000   23.5760   36.1630 C   0  0  2  0  0  0  0  0  0  0  0  0
   37.9180   24.4190   34.6340 H   0  0  0  0  0  0  0  0  0  0  0  0
   39.9420   22.4620   34.0150 H   0  0  0  0  0  0  0  0  0  0  0  0
   39.0490   23.4440   32.7790 H   0  0  0  0  0  0  0  0  0  0  0  0
   38.0370   21.1850   33.3480 H   0  0  0  0  0  0  0  0  0  0  0  0
   36.9830   22.6960   33.3250 H   0  0  0  0  0  0  0  0  0  0  0  0
   37.1420   20.7790   35.4140 H   0  0  0  0  0  0  0  0  0  0  0  0
   36.5590   22.4610   35.6490 H   0  0  0  0  0  0  0  0  0  0  0  0
   39.4740   21.4870   35.7410 H   0  0  0  0  0  0  0  0  0  0  0  0
   38.4640   21.7930   37.1900 H   0  0  0  0  0  0  0  0  0  0  0  0
   39.7740   23.7320   36.7890 H   0  0  0  0  0  0  0  0  0  0  0  0
   39.8840   26.3780   34.2720 C   0  0  0  0  0  0  0  0  0  0  0  0
   41.0320   27.1690   34.1110 C   0  0  0  0  0  0  0  0  0  0  0  0
   42.3170   26.6590   34.1740 C   0  0  0  0  0  0  0  0  0  0  0  0
   42.5050   25.3090   34.4030 C   0  0  0  0  0  0  0  0  0  0  0  0
   41.3610   24.5390   34.5630 C   0  0  0  0  0  0  0  0  0  0  0  0
   40.0630   25.0210   34.5080 C   0  0  0  0  0  0  0  0  0  0  0  0
   40.9640   28.2390   33.9310 H   0  0  0  0  0  0  0  0  0  0  0  0
   43.1500   27.3270   34.0430 H   0  0  0  0  0  0  0  0  0  0  0  0
   43.5120   24.9230   34.4480 H   0  0  0  0  0  0  0  0  0  0  0  0
   41.6200   23.5010   34.7270 H   0  0  0  0  0  0  0  0  0  0  0  0
   38.2440   27.2650   32.6900 C   0  0  0  0  0  0  0  0  0  0  0  0
   38.6520   27.0570   34.0620 C   0  0  0  0  0  0  0  0  0  0  0  0
   37.8000   27.5100   35.0260 C   0  0  0  0  0  0  0  0  0  0  0  0
   36.6420   28.1110   34.6680 N   0  0  0  0  0  0  0  0  0  0  0  0
   36.2800   28.2920   33.3610 C   0  0  0  0  0  0  0  0  0  0  0  0
   37.0980   27.8620   32.3320 N   0  0  0  0  0  0  0  0  0  0  0  0
   38.8140   26.9600   31.8270 H   0  0  0  0  0  0  0  0  0  0  0  0
   37.8890   27.5540   36.0670 H   0  0  0  0  0  0  0  0  0  0  0  0
   35.3390   28.7790   33.0840 H   0  0  0  0  0  0  0  0  0  0  0  0
   37.1320   24.5450   39.0600 H   0  0  0  0  0  0  0  0  0  0  0  0
   37.9060   24.1570   38.4130 C   0  0  0  0  0  0  0  0  0  0  0  0
   38.9600   23.7100   38.9790 O   0  0  0  0  0  0  0  0  0  0  0  0
   37.7940   24.1260   36.9850 N   0  0  0  0  0  0  0  0  0  0  0  0
   36.8730   24.5250   36.6490 H   0  0  0  0  0  0  0  0  0  0  0  0
  1  7  1  6  0  0  0
  1  6  1  0  0  0  0
  2  3  1  0  0  0  0
  2  8  1  0  0  0  0
  2  1  1  0  0  0  0
  3  4  1  0  0  0  0
  4 12  1  0  0  0  0
  4 13  1  0  0  0  0
  4  5  1  0  0  0  0
  5  6  1  0  0  0  0
  5 15  1  0  0  0  0
  6 16  1  1  0  0  0
  6 39  1  0  0  0  0
  9  2  1  0  0  0  0
 10  3  1  0  0  0  0
 11  3  1  0  0  0  0
 14  5  1  0  0  0  0
 17 22  1  0  0  0  0
 18 19  1  0  0  0  0
 18 17  2  0  0  0  0
 19 20  2  0  0  0  0
 20 25  1  0  0  0  0
 20 21  1  0  0  0  0
 21 26  1  0  0  0  0
 22 21  2  0  0  0  0
 22  1  1  0  0  0  0
 23 18  1  0  0  0  0
 24 19  1  0  0  0  0
 27 28  1  0  0  0  0
 28 17  1  0  0  0  0
 28 29  2  0  0  0  0
 29 34  1  0  0  0  0
 30 29  1  0  0  0  0
 31 30  2  0  0  0  0
 32 27  2  0  0  0  0
 32 31  1  0  0  0  0
 33 27  1  0  0  0  0
 35 31  1  0  0  0  0
 37 38  2  0  0  0  0
 37 36  1  0  0  0  0
 39 37  1  0  0  0  0
 40 39  1  0  0  0  0
M  END
>  <minimizedAffinity>
-5.13869715

$$$$

 OpenBabel03272506123D

 40 42  0  0  1  0  0  0  0  0999 V2000
   38.1700   26.7990   33.4140 C   0  0  1  0  0  0  0  0  0  0  0  0
   38.9950   27.1410   34.7120 C   0  0  0  0  0  0  0  0  0  0  0  0
   40.1710   26.1730   34.8540 C   0  0  0  0  0  0  0  0  0  0  0  0
   39.7320   24.7650   34.5960 C   0  0  0  0  0  0  0  0  0  0  0  0
   38.2480   24.7040   34.7980 C   0  0  0  0  0  0  0  0  0  0  0  0
   37.6120   25.4250   33.6300 C   0  0  2  0  0  0  0  0  0  0  0  0
   38.9790   26.6240   32.7900 H   0  0  0  0  0  0  0  0  0  0  0  0
   38.2910   27.0970   35.5490 H   0  0  0  0  0  0  0  0  0  0  0  0
   39.3880   28.1560   34.5670 H   0  0  0  0  0  0  0  0  0  0  0  0
   40.5200   26.3120   35.8970 H   0  0  0  0  0  0  0  0  0  0  0  0
   40.9260   26.5570   34.1170 H   0  0  0  0  0  0  0  0  0  0  0  0
   40.2070   24.1090   35.3640 H   0  0  0  0  0  0  0  0  0  0  0  0
   40.0520   24.4110   33.6010 H   0  0  0  0  0  0  0  0  0  0  0  0
   37.9930   25.0960   35.7790 H   0  0  0  0  0  0  0  0  0  0  0  0
   37.9040   23.6510   34.7210 H   0  0  0  0  0  0  0  0  0  0  0  0
   36.5370   25.3420   33.7670 H   0  0  0  0  0  0  0  0  0  0  0  0
   36.9410   28.4340   32.0710 C   0  0  0  0  0  0  0  0  0  0  0  0
   35.9000   29.3710   31.9870 C   0  0  0  0  0  0  0  0  0  0  0  0
   35.1260   29.7400   33.0740 C   0  0  0  0  0  0  0  0  0  0  0  0
   35.3700   29.1730   34.3100 C   0  0  0  0  0  0  0  0  0  0  0  0
   36.4000   28.2450   34.3770 C   0  0  0  0  0  0  0  0  0  0  0  0
   37.1900   27.8540   33.3080 C   0  0  0  0  0  0  0  0  0  0  0  0
   35.6470   29.8570   31.0490 H   0  0  0  0  0  0  0  0  0  0  0  0
   34.3430   30.4650   32.9340 H   0  0  0  0  0  0  0  0  0  0  0  0
   34.7600   29.4700   35.1500 H   0  0  0  0  0  0  0  0  0  0  0  0
   36.5120   27.8720   35.3880 H   0  0  0  0  0  0  0  0  0  0  0  0
   37.1340   28.8110   29.6630 C   0  0  0  0  0  0  0  0  0  0  0  0
   37.6980   28.2680   30.8780 C   0  0  0  0  0  0  0  0  0  0  0  0
   38.9180   27.6680   30.7680 C   0  0  0  0  0  0  0  0  0  0  0  0
   39.5320   27.6160   29.5640 N   0  0  0  0  0  0  0  0  0  0  0  0
   38.9770   28.1410   28.4300 C   0  0  0  0  0  0  0  0  0  0  0  0
   37.7390   28.7580   28.4670 N   0  0  0  0  0  0  0  0  0  0  0  0
   36.1810   29.3120   29.5980 H   0  0  0  0  0  0  0  0  0  0  0  0
   39.4980   27.1400   31.4600 H   0  0  0  0  0  0  0  0  0  0  0  0
   39.4840   28.0930   27.4610 H   0  0  0  0  0  0  0  0  0  0  0  0
   37.0330   23.8200   30.5400 H   0  0  0  0  0  0  0  0  0  0  0  0
   36.8970   24.4410   31.4150 C   0  0  0  0  0  0  0  0  0  0  0  0
   35.8020   25.0950   31.4920 O   0  0  0  0  0  0  0  0  0  0  0  0
   37.8710   24.5520   32.4590 N   0  0  0  0  0  0  0  0  0  0  0  0
   38.7280   23.9600   32.2690 H   0  0  0  0  0  0  0  0  0  0  0  0
  1  7  1  6  0  0  0
  1  6  1  0  0  0  0
  1  2  1  0  0  0  0
  2  3  1  0  0  0  0
  2  8  1  0  0  0  0
  3 10  1  0  0  0  0
  4  5  1  0  0  0  0
  4  3  1  0  0  0  0
  4 12  1  0  0  0  0
  5 14  1  0  0  0  0
  6 16  1  1  0  0  0
  6  5  1  0  0  0  0
  9  2  1  0  0  0  0
 11  3  1  0  0  0  0
 13  4  1  0  0  0  0
 15  5  1  0  0  0  0
 17 22  1  0  0  0  0
 18 17  2  0  0  0  0
 18 19  1  0  0  0  0
 19 20  2  0  0  0  0
 20 21  1  0  0  0  0
 20 25  1  0  0  0  0
 21 26  1  0  0  0  0
 22  1  1  0  0  0  0
 22 21  2  0  0  0  0
 23 18  1  0  0  0  0
 24 19  1  0  0  0  0
 27 28  1  0  0  0  0
 28 17  1  0  0  0  0
 29 28  2  0  0  0  0
 29 34  1  0  0  0  0
 30 29  1  0  0  0  0
 31 32  1  0  0  0  0
 31 30  2  0  0  0  0
 32 27  2  0  0  0  0
 33 27  1  0  0  0  0
 35 31  1  0  0  0  0
 36 37  1  0  0  0  0
 37 38  2  0  0  0  0
 37 39  1  0  0  0  0
 39  6  1  0  0  0  0
 40 39  1  0  0  0  0
M  END
>  <minimizedAffinity>
-5.1109271

$$$$

 OpenBabel03272506123D

 40 42  0  0  1  0  0  0  0  0999 V2000
   38.0770   26.4830   33.1260 C   0  0  1  0  0  0  0  0  0  0  0  0
   37.8920   26.1370   34.6530 C   0  0  0  0  0  0  0  0  0  0  0  0
   38.8350   26.9930   35.5000 C   0  0  0  0  0  0  0  0  0  0  0  0
   40.2070   27.0220   34.9010 C   0  0  0  0  0  0  0  0  0  0  0  0
   40.3380   25.8290   34.0020 C   0  0  0  0  0  0  0  0  0  0  0  0
   39.4830   26.0960   32.7830 C   0  0  2  0  0  0  0  0  0  0  0  0
   38.1410   27.5120   33.2350 H   0  0  0  0  0  0  0  0  0  0  0  0
   38.0710   25.0620   34.7520 H   0  0  0  0  0  0  0  0  0  0  0  0
   36.8560   26.4000   34.9030 H   0  0  0  0  0  0  0  0  0  0  0  0
   38.8300   26.5060   36.4960 H   0  0  0  0  0  0  0  0  0  0  0  0
   38.3320   27.9960   35.5340 H   0  0  0  0  0  0  0  0  0  0  0  0
   40.9480   26.9060   35.7280 H   0  0  0  0  0  0  0  0  0  0  0  0
   40.4120   27.9770   34.3900 H   0  0  0  0  0  0  0  0  0  0  0  0
   40.0920   24.9240   34.5510 H   0  0  0  0  0  0  0  0  0  0  0  0
   41.3810   25.7580   33.6240 H   0  0  0  0  0  0  0  0  0  0  0  0
   39.6160   25.2430   32.1220 H   0  0  0  0  0  0  0  0  0  0  0  0
   36.1370   26.4010   31.6370 C   0  0  0  0  0  0  0  0  0  0  0  0
   35.2260   25.6260   30.9040 C   0  0  0  0  0  0  0  0  0  0  0  0
   35.1940   24.2430   30.9580 C   0  0  0  0  0  0  0  0  0  0  0  0
   36.0910   23.5700   31.7650 C   0  0  0  0  0  0  0  0  0  0  0  0
   36.9880   24.3500   32.4840 C   0  0  0  0  0  0  0  0  0  0  0  0
   37.0460   25.7340   32.4480 C   0  0  0  0  0  0  0  0  0  0  0  0
   34.4920   26.0830   30.2450 H   0  0  0  0  0  0  0  0  0  0  0  0
   34.4680   23.7150   30.3650 H   0  0  0  0  0  0  0  0  0  0  0  0
   36.0550   22.4920   31.8000 H   0  0  0  0  0  0  0  0  0  0  0  0
   37.6360   23.7270   33.0880 H   0  0  0  0  0  0  0  0  0  0  0  0
   36.6010   28.4860   30.4480 C   0  0  0  0  0  0  0  0  0  0  0  0
   35.9440   27.8070   31.5420 C   0  0  0  0  0  0  0  0  0  0  0  0
   35.1790   28.5790   32.3660 C   0  0  0  0  0  0  0  0  0  0  0  0
   35.0660   29.9050   32.1270 N   0  0  0  0  0  0  0  0  0  0  0  0
   35.6970   30.5220   31.0820 C   0  0  0  0  0  0  0  0  0  0  0  0
   36.4940   29.8020   30.2100 N   0  0  0  0  0  0  0  0  0  0  0  0
   37.2350   28.0060   29.7200 H   0  0  0  0  0  0  0  0  0  0  0  0
   34.6710   28.3570   33.2530 H   0  0  0  0  0  0  0  0  0  0  0  0
   35.5980   31.5960   30.8990 H   0  0  0  0  0  0  0  0  0  0  0  0
   40.6240   28.0290   30.0600 H   0  0  0  0  0  0  0  0  0  0  0  0
   40.1350   27.2550   30.6340 C   0  0  0  0  0  0  0  0  0  0  0  0
   39.4950   26.3670   29.9760 O   0  0  0  0  0  0  0  0  0  0  0  0
   40.1790   27.1910   32.0640 N   0  0  0  0  0  0  0  0  0  0  0  0
   40.7410   27.9850   32.4810 H   0  0  0  0  0  0  0  0  0  0  0  0
  1  7  1  6  0  0  0
  1  2  1  0  0  0  0
  2  8  1  0  0  0  0
  2  9  1  0  0  0  0
  2  3  1  0  0  0  0
  3 11  1  0  0  0  0
  3 10  1  0  0  0  0
  4  3  1  0  0  0  0
  4 12  1  0  0  0  0
  5 14  1  0  0  0  0
  5  4  1  0  0  0  0
  6 16  1  6  0  0  0
  6  1  1  0  0  0  0
  6  5  1  0  0  0  0
 13  4  1  0  0  0  0
 15  5  1  0  0  0  0
 17 22  1  0  0  0  0
 18 19  1  0  0  0  0
 18 17  2  0  0  0  0
 19 20  2  0  0  0  0
 20 25  1  0  0  0  0
 20 21  1  0  0  0  0
 21 26  1  0  0  0  0
 22 21  2  0  0  0  0
 22  1  1  0  0  0  0
 23 18  1  0  0  0  0
 24 19  1  0  0  0  0
 27 28  1  0  0  0  0
 28 17  1  0  0  0  0
 28 29  2  0  0  0  0
 29 34  1  0  0  0  0
 30 29  1  0  0  0  0
 31 30  2  0  0  0  0
 32 27  2  0  0  0  0
 32 31  1  0  0  0  0
 33 27  1  0  0  0  0
 35 31  1  0  0  0  0
 36 37  1  0  0  0  0
 37 39  1  0  0  0  0
 38 37  2  0  0  0  0
 39 40  1  0  0  0  0
 39  6  1  0  0  0  0
M  END
>  <minimizedAffinity>
-5.03774452

$$$$

 OpenBabel03272506123D

 40 42  0  0  1  0  0  0  0  0999 V2000
   38.7570   27.0440   31.6460 C   0  0  1  0  0  0  0  0  0  0  0  0
   40.2040   27.5040   31.2220 C   0  0  0  0  0  0  0  0  0  0  0  0
   40.2930   27.6040   29.6980 C   0  0  0  0  0  0  0  0  0  0  0  0
   39.6680   26.4070   29.0500 C   0  0  0  0  0  0  0  0  0  0  0  0
   39.6370   25.3030   30.0640 C   0  0  0  0  0  0  0  0  0  0  0  0
   38.5800   25.6670   31.0830 C   0  0  2  0  0  0  0  0  0  0  0  0
   38.2320   27.6360   30.9770 H   0  0  0  0  0  0  0  0  0  0  0  0
   40.9000   26.7770   31.6530 H   0  0  0  0  0  0  0  0  0  0  0  0
   40.3450   28.5040   31.6510 H   0  0  0  0  0  0  0  0  0  0  0  0
   41.3800   27.6660   29.4880 H   0  0  0  0  0  0  0  0  0  0  0  0
   39.7760   28.5720   29.4610 H   0  0  0  0  0  0  0  0  0  0  0  0
   40.3320   26.0810   28.2140 H   0  0  0  0  0  0  0  0  0  0  0  0
   38.6770   26.6400   28.6280 H   0  0  0  0  0  0  0  0  0  0  0  0
   40.6340   25.1430   30.4670 H   0  0  0  0  0  0  0  0  0  0  0  0
   39.2790   24.3670   29.5850 H   0  0  0  0  0  0  0  0  0  0  0  0
   38.5390   24.8430   31.7900 H   0  0  0  0  0  0  0  0  0  0  0  0
   37.6540   27.6880   33.7340 C   0  0  0  0  0  0  0  0  0  0  0  0
   37.6320   27.6450   35.1360 C   0  0  0  0  0  0  0  0  0  0  0  0
   38.6430   27.0780   35.8910 C   0  0  0  0  0  0  0  0  0  0  0  0
   39.7390   26.5220   35.2580 C   0  0  0  0  0  0  0  0  0  0  0  0
   39.7470   26.5710   33.8700 C   0  0  0  0  0  0  0  0  0  0  0  0
   38.7490   27.1280   33.0870 C   0  0  0  0  0  0  0  0  0  0  0  0
   36.8030   28.0580   35.7040 H   0  0  0  0  0  0  0  0  0  0  0  0
   38.5560   27.0790   36.9640 H   0  0  0  0  0  0  0  0  0  0  0  0
   40.5220   26.0850   35.8580 H   0  0  0  0  0  0  0  0  0  0  0  0
   40.6500   26.1190   33.4780 H   0  0  0  0  0  0  0  0  0  0  0  0
   35.5110   28.8310   34.0090 C   0  0  0  0  0  0  0  0  0  0  0  0
   36.5840   28.4110   33.1370 C   0  0  0  0  0  0  0  0  0  0  0  0
   36.4800   28.7710   31.8250 C   0  0  0  0  0  0  0  0  0  0  0  0
   35.4120   29.4910   31.4110 N   0  0  0  0  0  0  0  0  0  0  0  0
   34.4110   29.8770   32.2600 C   0  0  0  0  0  0  0  0  0  0  0  0
   34.4480   29.5420   33.6010 N   0  0  0  0  0  0  0  0  0  0  0  0
   35.4580   28.6190   35.0650 H   0  0  0  0  0  0  0  0  0  0  0  0
   37.0650   28.5360   30.9910 H   0  0  0  0  0  0  0  0  0  0  0  0
   33.5510   30.4590   31.9130 H   0  0  0  0  0  0  0  0  0  0  0  0
   35.1650   24.9550   30.5440 H   0  0  0  0  0  0  0  0  0  0  0  0
   36.1270   25.0610   31.0260 C   0  0  0  0  0  0  0  0  0  0  0  0
   36.1940   24.7280   32.2570 O   0  0  0  0  0  0  0  0  0  0  0  0
   37.2930   25.5490   30.3540 N   0  0  0  0  0  0  0  0  0  0  0  0
   37.0990   25.7880   29.3410 H   0  0  0  0  0  0  0  0  0  0  0  0
  1  7  1  6  0  0  0
  1 22  1  0  0  0  0
  2  1  1  0  0  0  0
  2  9  1  0  0  0  0
  2  8  1  0  0  0  0
  3  2  1  0  0  0  0
  4  3  1  0  0  0  0
  4  5  1  0  0  0  0
  5 14  1  0  0  0  0
  5  6  1  0  0  0  0
  6  1  1  0  0  0  0
  6 16  1  1  0  0  0
 10  3  1  0  0  0  0
 11  3  1  0  0  0  0
 12  4  1  0  0  0  0
 13  4  1  0  0  0  0
 15  5  1  0  0  0  0
 17 18  1  0  0  0  0
 18 23  1  0  0  0  0
 18 19  2  0  0  0  0
 19 24  1  0  0  0  0
 20 25  1  0  0  0  0
 20 19  1  0  0  0  0
 21 20  2  0  0  0  0
 22 17  2  0  0  0  0
 22 21  1  0  0  0  0
 26 21  1  0  0  0  0
 27 33  1  0  0  0  0
 28 17  1  0  0  0  0
 28 27  2  0  0  0  0
 29 28  1  0  0  0  0
 30 29  2  0  0  0  0
 30 31  1  0  0  0  0
 31 32  2  0  0  0  0
 32 27  1  0  0  0  0
 34 29  1  0  0  0  0
 35 31  1  0  0  0  0
 36 37  1  0  0  0  0
 37 38  2  0  0  0  0
 39 37  1  0  0  0  0
 39  6  1  0  0  0  0
 40 39  1  0  0  0  0
M  END
>  <minimizedAffinity>
-5.03382015

$$$$

 OpenBabel03272506123D

 40 42  0  0  1  0  0  0  0  0999 V2000
   37.9280   25.4080   32.8420 C   0  0  1  0  0  0  0  0  0  0  0  0
   37.2600   26.3920   31.8070 C   0  0  0  0  0  0  0  0  0  0  0  0
   35.8570   25.8980   31.4480 C   0  0  0  0  0  0  0  0  0  0  0  0
   35.8650   24.4250   31.1820 C   0  0  0  0  0  0  0  0  0  0  0  0
   37.2720   24.0280   30.8490 C   0  0  0  0  0  0  0  0  0  0  0  0
   38.0680   24.0960   32.1330 C   0  0  2  0  0  0  0  0  0  0  0  0
   37.0920   25.2610   33.4370 H   0  0  0  0  0  0  0  0  0  0  0  0
   37.9360   26.4450   30.9480 H   0  0  0  0  0  0  0  0  0  0  0  0
   37.1750   27.3600   32.3160 H   0  0  0  0  0  0  0  0  0  0  0  0
   35.5820   26.4790   30.5450 H   0  0  0  0  0  0  0  0  0  0  0  0
   35.2320   26.1980   32.3310 H   0  0  0  0  0  0  0  0  0  0  0  0
   35.2350   24.2330   30.2810 H   0  0  0  0  0  0  0  0  0  0  0  0
   35.4390   23.8540   32.0240 H   0  0  0  0  0  0  0  0  0  0  0  0
   37.6470   24.6470   30.0370 H   0  0  0  0  0  0  0  0  0  0  0  0
   37.2950   22.9610   30.5390 H   0  0  0  0  0  0  0  0  0  0  0  0
   39.0760   23.7700   31.8870 H   0  0  0  0  0  0  0  0  0  0  0  0
   39.7710   25.7200   34.4210 C   0  0  0  0  0  0  0  0  0  0  0  0
   41.0320   26.2710   34.6910 C   0  0  0  0  0  0  0  0  0  0  0  0
   41.6900   27.1180   33.8170 C   0  0  0  0  0  0  0  0  0  0  0  0
   41.0970   27.4530   32.6140 C   0  0  0  0  0  0  0  0  0  0  0  0
   39.8500   26.8990   32.3590 C   0  0  0  0  0  0  0  0  0  0  0  0
   39.1680   26.0460   33.2130 C   0  0  0  0  0  0  0  0  0  0  0  0
   41.5620   26.0520   35.6140 H   0  0  0  0  0  0  0  0  0  0  0  0
   42.6580   27.5010   34.0910 H   0  0  0  0  0  0  0  0  0  0  0  0
   41.6200   28.1160   31.9410 H   0  0  0  0  0  0  0  0  0  0  0  0
   39.4740   27.2320   31.4000 H   0  0  0  0  0  0  0  0  0  0  0  0
   39.8040   23.6820   35.7710 C   0  0  0  0  0  0  0  0  0  0  0  0
   39.2030   24.9660   35.4850 C   0  0  0  0  0  0  0  0  0  0  0  0
   38.1620   25.3420   36.2820 C   0  0  0  0  0  0  0  0  0  0  0  0
   37.7540   24.5260   37.2810 N   0  0  0  0  0  0  0  0  0  0  0  0
   38.3430   23.3170   37.5310 C   0  0  0  0  0  0  0  0  0  0  0  0
   39.3990   22.8690   36.7590 N   0  0  0  0  0  0  0  0  0  0  0  0
   40.6310   23.2560   35.2270 H   0  0  0  0  0  0  0  0  0  0  0  0
   37.5190   26.1650   36.2420 H   0  0  0  0  0  0  0  0  0  0  0  0
   38.0040   22.6650   38.3420 H   0  0  0  0  0  0  0  0  0  0  0  0
   37.9520   20.9160   33.6590 H   0  0  0  0  0  0  0  0  0  0  0  0
   38.2840   21.7590   33.0710 C   0  0  0  0  0  0  0  0  0  0  0  0
   39.3950   21.6280   32.4520 O   0  0  0  0  0  0  0  0  0  0  0  0
   37.5470   22.9810   32.9620 N   0  0  0  0  0  0  0  0  0  0  0  0
   36.6480   22.9560   33.5220 H   0  0  0  0  0  0  0  0  0  0  0  0
  1 22  1  0  0  0  0
  1  7  1  1  0  0  0
  2  9  1  0  0  0  0
  2  1  1  0  0  0  0
  3  2  1  0  0  0  0
  3 11  1  0  0  0  0
  4  3  1  0  0  0  0
  4 13  1  0  0  0  0
  5  4  1  0  0  0  0
  5  6  1  0  0  0  0
  6 16  1  6  0  0  0
  6  1  1  0  0  0  0
  6 39  1  0  0  0  0
  8  2  1  0  0  0  0
 10  3  1  0  0  0  0
 12  4  1  0  0  0  0
 14  5  1  0  0  0  0
 15  5  1  0  0  0  0
 17 18  1  0  0  0  0
 17 28  1  0  0  0  0
 18 23  1  0  0  0  0
 19 24  1  0  0  0  0
 19 18  2  0  0  0  0
 20 19  1  0  0  0  0
 21 20  2  0  0  0  0
 21 22  1  0  0  0  0
 22 17  2  0  0  0  0
 25 20  1  0  0  0  0
 26 21  1  0  0  0  0
 27 32  1  0  0  0  0
 28 27  2  0  0  0  0
 28 29  1  0  0  0  0
 29 30  2  0  0  0  0
 30 31  1  0  0  0  0
 31 35  1  0  0  0  0
 32 31  2  0  0  0  0
 33 27  1  0  0  0  0
 34 29  1  0  0  0  0
 37 36  1  0  0  0  0
 38 37  2  0  0  0  0
 39 37  1  0  0  0  0
 39 40  1  0  0  0  0
M  END
>  <minimizedAffinity>
-4.97871733

$$$$

 OpenBabel03272506123D

 40 42  0  0  1  0  0  0  0  0999 V2000
   38.7110   25.6700   33.0440 C   0  0  1  0  0  0  0  0  0  0  0  0
   39.3310   27.0800   32.7070 C   0  0  0  0  0  0  0  0  0  0  0  0
   40.7070   27.2150   33.3610 C   0  0  0  0  0  0  0  0  0  0  0  0
   40.6700   26.7340   34.7780 C   0  0  0  0  0  0  0  0  0  0  0  0
   39.2430   26.7730   35.2370 C   0  0  0  0  0  0  0  0  0  0  0  0
   38.5190   25.6490   34.5290 C   0  0  2  0  0  0  0  0  0  0  0  0
   39.5770   25.1160   32.9150 H   0  0  0  0  0  0  0  0  0  0  0  0
   38.6090   27.8280   33.0510 H   0  0  0  0  0  0  0  0  0  0  0  0
   39.4540   27.1080   31.6160 H   0  0  0  0  0  0  0  0  0  0  0  0
   40.9380   28.2980   33.2980 H   0  0  0  0  0  0  0  0  0  0  0  0
   41.3820   26.6160   32.6940 H   0  0  0  0  0  0  0  0  0  0  0  0
   41.2470   27.4570   35.4040 H   0  0  0  0  0  0  0  0  0  0  0  0
   41.1360   25.7410   34.8870 H   0  0  0  0  0  0  0  0  0  0  0  0
   38.8300   27.7660   35.0750 H   0  0  0  0  0  0  0  0  0  0  0  0
   39.1920   26.5260   36.3190 H   0  0  0  0  0  0  0  0  0  0  0  0
   37.4960   25.6630   34.8980 H   0  0  0  0  0  0  0  0  0  0  0  0
   37.0320   24.3670   31.8320 C   0  0  0  0  0  0  0  0  0  0  0  0
   35.7910   24.3300   31.1780 C   0  0  0  0  0  0  0  0  0  0  0  0
   35.0260   25.4590   30.9450 C   0  0  0  0  0  0  0  0  0  0  0  0
   35.4840   26.6930   31.3650 C   0  0  0  0  0  0  0  0  0  0  0  0
   36.7120   26.7140   32.0120 C   0  0  0  0  0  0  0  0  0  0  0  0
   37.4990   25.6020   32.2630 C   0  0  0  0  0  0  0  0  0  0  0  0
   35.3650   23.3960   30.8220 H   0  0  0  0  0  0  0  0  0  0  0  0
   34.0820   25.3530   30.4390 H   0  0  0  0  0  0  0  0  0  0  0  0
   34.8780   27.5660   31.1760 H   0  0  0  0  0  0  0  0  0  0  0  0
   36.9790   27.7270   32.2900 H   0  0  0  0  0  0  0  0  0  0  0  0
   37.3320   22.1950   32.9130 C   0  0  0  0  0  0  0  0  0  0  0  0
   37.7250   23.1250   31.8790 C   0  0  0  0  0  0  0  0  0  0  0  0
   38.7080   22.7120   31.0290 C   0  0  0  0  0  0  0  0  0  0  0  0
   39.2520   21.4820   31.1810 N   0  0  0  0  0  0  0  0  0  0  0  0
   38.8590   20.6210   32.1680 C   0  0  0  0  0  0  0  0  0  0  0  0
   37.8720   20.9760   33.0690 N   0  0  0  0  0  0  0  0  0  0  0  0
   36.5720   22.3840   33.6530 H   0  0  0  0  0  0  0  0  0  0  0  0
   39.2180   23.2070   30.2620 H   0  0  0  0  0  0  0  0  0  0  0  0
   39.3070   19.6280   32.2810 H   0  0  0  0  0  0  0  0  0  0  0  0
   38.8120   22.9140   36.7410 H   0  0  0  0  0  0  0  0  0  0  0  0
   38.4510   23.8160   36.2680 C   0  0  0  0  0  0  0  0  0  0  0  0
   37.4130   24.3590   36.7810 O   0  0  0  0  0  0  0  0  0  0  0  0
   39.0740   24.4080   35.1230 N   0  0  0  0  0  0  0  0  0  0  0  0
   39.9200   23.8590   34.8020 H   0  0  0  0  0  0  0  0  0  0  0  0
  1  7  1  6  0  0  0
  1  6  1  0  0  0  0
  2  1  1  0  0  0  0
  2  8  1  0  0  0  0
  2  3  1  0  0  0  0
  3  4  1  0  0  0  0
  4 13  1  0  0  0  0
  4  5  1  0  0  0  0
  4 12  1  0  0  0  0
  5 15  1  0  0  0  0
  6 16  1  1  0  0  0
  6 39  1  0  0  0  0
  6  5  1  0  0  0  0
  9  2  1  0  0  0  0
 10  3  1  0  0  0  0
 11  3  1  0  0  0  0
 14  5  1  0  0  0  0
 17 28  1  0  0  0  0
 17 22  1  0  0  0  0
 18 17  2  0  0  0  0
 19 18  1  0  0  0  0
 19 20  2  0  0  0  0
 20 21  1  0  0  0  0
 21 22  2  0  0  0  0
 21 26  1  0  0  0  0
 22  1  1  0  0  0  0
 23 18  1  0  0  0  0
 24 19  1  0  0  0  0
 25 20  1  0  0  0  0
 27 32  1  0  0  0  0
 27 33  1  0  0  0  0
 28 27  2  0  0  0  0
 29 30  2  0  0  0  0
 29 28  1  0  0  0  0
 30 31  1  0  0  0  0
 31 35  1  0  0  0  0
 31 32  2  0  0  0  0
 34 29  1  0  0  0  0
 37 36  1  0  0  0  0
 37 38  2  0  0  0  0
 39 37  1  0  0  0  0
 40 39  1  0  0  0  0
M  END
>  <minimizedAffinity>
-4.94169188

$$$$

 OpenBabel03272506123D

 40 42  0  0  1  0  0  0  0  0999 V2000
   38.3320   22.5280   33.7490 C   0  0  1  0  0  0  0  0  0  0  0  0
   39.7310   22.5780   33.0230 C   0  0  0  0  0  0  0  0  0  0  0  0
   40.7580   21.7630   33.8120 C   0  0  0  0  0  0  0  0  0  0  0  0
   40.6640   22.0670   35.2750 C   0  0  0  0  0  0  0  0  0  0  0  0
   39.9900   23.3980   35.4240 C   0  0  0  0  0  0  0  0  0  0  0  0
   38.5320   23.1980   35.0740 C   0  0  2  0  0  0  0  0  0  0  0  0
   38.3510   21.5210   33.9950 H   0  0  0  0  0  0  0  0  0  0  0  0
   39.9940   23.6360   32.9270 H   0  0  0  0  0  0  0  0  0  0  0  0
   39.5840   22.1060   32.0430 H   0  0  0  0  0  0  0  0  0  0  0  0
   41.7360   22.0690   33.3900 H   0  0  0  0  0  0  0  0  0  0  0  0
   40.5160   20.6990   33.5510 H   0  0  0  0  0  0  0  0  0  0  0  0
   41.7010   22.1650   35.6750 H   0  0  0  0  0  0  0  0  0  0  0  0
   40.1590   21.2580   35.8310 H   0  0  0  0  0  0  0  0  0  0  0  0
   40.5120   24.1440   34.8300 H   0  0  0  0  0  0  0  0  0  0  0  0
   40.0010   23.7050   36.4920 H   0  0  0  0  0  0  0  0  0  0  0  0
   38.0470   24.1600   35.2220 H   0  0  0  0  0  0  0  0  0  0  0  0
   36.3790   22.4810   32.2760 C   0  0  0  0  0  0  0  0  0  0  0  0
   35.4490   23.1910   31.5020 C   0  0  0  0  0  0  0  0  0  0  0  0
   35.5310   24.5560   31.2850 C   0  0  0  0  0  0  0  0  0  0  0  0
   36.5690   25.2750   31.8460 C   0  0  0  0  0  0  0  0  0  0  0  0
   37.4800   24.5600   32.6110 C   0  0  0  0  0  0  0  0  0  0  0  0
   37.4240   23.1960   32.8490 C   0  0  0  0  0  0  0  0  0  0  0  0
   34.6050   22.6950   31.0310 H   0  0  0  0  0  0  0  0  0  0  0  0
   34.7800   25.0340   30.6810 H   0  0  0  0  0  0  0  0  0  0  0  0
   36.6230   26.3390   31.6680 H   0  0  0  0  0  0  0  0  0  0  0  0
   38.2540   25.2150   32.9940 H   0  0  0  0  0  0  0  0  0  0  0  0
   36.7940   20.3210   31.2100 C   0  0  0  0  0  0  0  0  0  0  0  0
   36.1970   21.0710   32.2920 C   0  0  0  0  0  0  0  0  0  0  0  0
   35.5340   20.3480   33.2400 C   0  0  0  0  0  0  0  0  0  0  0  0
   35.4730   19.0010   33.1350 N   0  0  0  0  0  0  0  0  0  0  0  0
   36.0510   18.3160   32.1010 C   0  0  0  0  0  0  0  0  0  0  0  0
   36.7330   18.9850   31.1010 N   0  0  0  0  0  0  0  0  0  0  0  0
   37.3460   20.7560   30.3930 H   0  0  0  0  0  0  0  0  0  0  0  0
   34.9620   20.6430   34.0650 H   0  0  0  0  0  0  0  0  0  0  0  0
   35.9950   17.2260   32.0270 H   0  0  0  0  0  0  0  0  0  0  0  0
   37.0220   22.4470   38.1740 H   0  0  0  0  0  0  0  0  0  0  0  0
   37.4320   22.9990   37.3410 C   0  0  0  0  0  0  0  0  0  0  0  0
   37.4070   24.2740   37.4260 O   0  0  0  0  0  0  0  0  0  0  0  0
   37.9870   22.3720   36.1790 N   0  0  0  0  0  0  0  0  0  0  0  0
   37.9440   21.3160   36.2380 H   0  0  0  0  0  0  0  0  0  0  0  0
  1  7  1  1  0  0  0
  1  6  1  0  0  0  0
  2  1  1  0  0  0  0
  2  3  1  0  0  0  0
  3  4  1  0  0  0  0
  4  5  1  0  0  0  0
  4 12  1  0  0  0  0
  4 13  1  0  0  0  0
  5 15  1  0  0  0  0
  6 16  1  6  0  0  0
  6  5  1  0  0  0  0
  6 39  1  0  0  0  0
  8  2  1  0  0  0  0
  9  2  1  0  0  0  0
 10  3  1  0  0  0  0
 11  3  1  0  0  0  0
 14  5  1  0  0  0  0
 17 28  1  0  0  0  0
 17 22  1  0  0  0  0
 18 17  2  0  0  0  0
 19 18  1  0  0  0  0
 19 20  2  0  0  0  0
 20 21  1  0  0  0  0
 21 22  2  0  0  0  0
 21 26  1  0  0  0  0
 22  1  1  0  0  0  0
 23 18  1  0  0  0  0
 24 19  1  0  0  0  0
 25 20  1  0  0  0  0
 27 28  1  0  0  0  0
 28 29  2  0  0  0  0
 29 34  1  0  0  0  0
 30 29  1  0  0  0  0
 31 30  2  0  0  0  0
 32 27  2  0  0  0  0
 32 31  1  0  0  0  0
 33 27  1  0  0  0  0
 35 31  1  0  0  0  0
 37 38  2  0  0  0  0
 37 36  1  0  0  0  0
 39 40  1  0  0  0  0
 39 37  1  0  0  0  0
M  END
>  <minimizedAffinity>
-4.91258907

$$$$

 OpenBabel03272506123D

 40 42  0  0  1  0  0  0  0  0999 V2000
   39.3360   24.8660   34.7000 C   0  0  1  0  0  0  0  0  0  0  0  0
   38.0330   25.6910   34.3730 C   0  0  0  0  0  0  0  0  0  0  0  0
   38.1010   26.2290   32.9420 C   0  0  0  0  0  0  0  0  0  0  0  0
   39.4490   26.8160   32.6600 C   0  0  0  0  0  0  0  0  0  0  0  0
   40.0860   27.1510   33.9760 C   0  0  0  0  0  0  0  0  0  0  0  0
   40.4700   25.8420   34.6290 C   0  0  2  0  0  0  0  0  0  0  0  0
   39.4030   24.3680   33.7950 H   0  0  0  0  0  0  0  0  0  0  0  0
   37.9640   26.4780   35.1310 H   0  0  0  0  0  0  0  0  0  0  0  0
   37.1960   24.9840   34.4450 H   0  0  0  0  0  0  0  0  0  0  0  0
   37.3000   26.9930   32.8950 H   0  0  0  0  0  0  0  0  0  0  0  0
   37.8520   25.3370   32.3070 H   0  0  0  0  0  0  0  0  0  0  0  0
   39.3000   27.7710   32.1020 H   0  0  0  0  0  0  0  0  0  0  0  0
   40.0660   26.1490   32.0350 H   0  0  0  0  0  0  0  0  0  0  0  0
   39.4190   27.7820   34.5580 H   0  0  0  0  0  0  0  0  0  0  0  0
   41.0420   27.6900   33.8010 H   0  0  0  0  0  0  0  0  0  0  0  0
   40.9650   26.0990   35.5620 H   0  0  0  0  0  0  0  0  0  0  0  0
   39.8740   23.2300   36.4380 C   0  0  0  0  0  0  0  0  0  0  0  0
   39.6890   22.7800   37.7540 C   0  0  0  0  0  0  0  0  0  0  0  0
   38.7700   23.3420   38.6230 C   0  0  0  0  0  0  0  0  0  0  0  0
   37.9850   24.3970   38.1980 C   0  0  0  0  0  0  0  0  0  0  0  0
   38.1810   24.8340   36.8950 C   0  0  0  0  0  0  0  0  0  0  0  0
   39.0940   24.2940   36.0030 C   0  0  0  0  0  0  0  0  0  0  0  0
   40.2700   21.9560   38.1590 H   0  0  0  0  0  0  0  0  0  0  0  0
   38.6840   22.9440   39.6190 H   0  0  0  0  0  0  0  0  0  0  0  0
   37.2710   24.8260   38.8850 H   0  0  0  0  0  0  0  0  0  0  0  0
   37.5130   25.6540   36.6640 H   0  0  0  0  0  0  0  0  0  0  0  0
   42.0650   22.1610   36.2520 C   0  0  0  0  0  0  0  0  0  0  0  0
   40.7800   22.4580   35.6600 C   0  0  0  0  0  0  0  0  0  0  0  0
   40.5500   21.9450   34.4170 C   0  0  0  0  0  0  0  0  0  0  0  0
   41.5020   21.1980   33.8130 N   0  0  0  0  0  0  0  0  0  0  0  0
   42.7090   20.9300   34.3990 C   0  0  0  0  0  0  0  0  0  0  0  0
   43.0130   21.4230   35.6550 N   0  0  0  0  0  0  0  0  0  0  0  0
   42.3850   22.4980   37.2250 H   0  0  0  0  0  0  0  0  0  0  0  0
   39.7540   22.0710   33.7500 H   0  0  0  0  0  0  0  0  0  0  0  0
   43.4720   20.3240   33.9010 H   0  0  0  0  0  0  0  0  0  0  0  0
   43.7290   24.7750   33.7930 H   0  0  0  0  0  0  0  0  0  0  0  0
   42.8870   25.1540   34.3540 C   0  0  0  0  0  0  0  0  0  0  0  0
   43.1010   25.4680   35.5740 O   0  0  0  0  0  0  0  0  0  0  0  0
   41.5780   25.3140   33.7950 N   0  0  0  0  0  0  0  0  0  0  0  0
   41.5400   25.0170   32.7790 H   0  0  0  0  0  0  0  0  0  0  0  0
  1  7  1  6  0  0  0
  1 22  1  0  0  0  0
  2  9  1  0  0  0  0
  2  1  1  0  0  0  0
  2  8  1  0  0  0  0
  3  2  1  0  0  0  0
  4  3  1  0  0  0  0
  4  5  1  0  0  0  0
  5 14  1  0  0  0  0
  5  6  1  0  0  0  0
  6  1  1  0  0  0  0
  6 16  1  1  0  0  0
 10  3  1  0  0  0  0
 11  3  1  0  0  0  0
 12  4  1  0  0  0  0
 13  4  1  0  0  0  0
 15  5  1  0  0  0  0
 17 18  1  0  0  0  0
 18 23  1  0  0  0  0
 18 19  2  0  0  0  0
 19 24  1  0  0  0  0
 20 19  1  0  0  0  0
 20 25  1  0  0  0  0
 21 20  2  0  0  0  0
 22 17  2  0  0  0  0
 22 21  1  0  0  0  0
 26 21  1  0  0  0  0
 27 33  1  0  0  0  0
 28 27  1  0  0  0  0
 28 17  1  0  0  0  0
 29 28  2  0  0  0  0
 30 31  2  0  0  0  0
 30 29  1  0  0  0  0
 31 32  1  0  0  0  0
 32 27  2  0  0  0  0
 34 29  1  0  0  0  0
 35 31  1  0  0  0  0
 36 37  1  0  0  0  0
 37 38  2  0  0  0  0
 39 37  1  0  0  0  0
 39  6  1  0  0  0  0
 40 39  1  0  0  0  0
M  END
>  <minimizedAffinity>
-4.87820816

$$$$
