
 OpenBabel03272509393D

 31 32  0  0  1  0  0  0  0  0999 V2000
   37.0680   30.9540   49.0480 C   0  0  0  0  0  0  0  0  0  0  0  0
   36.8130   31.9050   50.0490 C   0  0  0  0  0  0  0  0  0  0  0  0
   37.4320   33.1390   50.0600 C   0  0  0  0  0  0  0  0  0  0  0  0
   38.3440   33.4760   49.0540 C   0  0  0  0  0  0  0  0  0  0  0  0
   38.5810   32.5400   48.0880 C   0  0  0  0  0  0  0  0  0  0  0  0
   37.9500   31.3110   48.0950 C   0  0  0  0  0  0  0  0  0  0  0  0
   36.1110   31.6730   50.8420 H   0  0  0  0  0  0  0  0  0  0  0  0
   37.1970   33.8320   50.8560 H   0  0  0  0  0  0  0  0  0  0  0  0
   38.8090   34.4530   49.0970 H   0  0  0  0  0  0  0  0  0  0  0  0
   39.2990   32.8800   47.3470 H   0  0  0  0  0  0  0  0  0  0  0  0
   36.3770   29.6860   49.1110 C   0  0  2  0  0  0  0  0  0  0  0  0
   36.9180   28.8340   49.9210 O   0  0  0  0  0  0  0  0  0  0  0  0
   33.6140   30.1530   46.8230 C   0  0  0  0  0  0  0  0  0  0  0  0
   32.9420   28.9390   46.8380 C   0  0  0  0  0  0  0  0  0  0  0  0
   33.4460   27.9290   47.6540 C   0  0  0  0  0  0  0  0  0  0  0  0
   34.5640   28.1710   48.3930 N   0  0  0  0  0  0  0  0  0  0  0  0
   35.1790   29.3440   48.3530 C   0  0  0  0  0  0  0  0  0  0  0  0
   34.6950   30.3330   47.5630 N   0  0  0  0  0  0  0  0  0  0  0  0
   33.2600   30.9730   46.2030 H   0  0  0  0  0  0  0  0  0  0  0  0
   32.0590   28.8440   46.2120 H   0  0  0  0  0  0  0  0  0  0  0  0
   32.9290   26.9880   47.6680 H   0  0  0  0  0  0  0  0  0  0  0  0
   38.3220   30.4470   46.9920 C   0  0  0  0  0  0  0  0  0  0  0  0
   38.8900   30.7930   45.8570 C   0  0  0  0  0  0  0  0  0  0  0  0
   39.3330   30.0560   44.6840 C   0  0  0  0  0  0  0  0  0  0  0  0
   39.7030   29.0480   44.9870 H   0  0  0  0  0  0  0  0  0  0  0  0
   40.1440   30.6350   44.1880 H   0  0  0  0  0  0  0  0  0  0  0  0
   37.9160   27.9340   42.3970 H   0  0  0  0  0  0  0  0  0  0  0  0
   38.4380   28.5260   43.1290 C   0  0  0  0  0  0  0  0  0  0  0  0
   39.2700   27.5820   43.2200 O   0  0  0  0  0  0  0  0  0  0  0  0
   38.2770   29.8080   43.7360 N   0  0  0  0  0  0  0  0  0  0  0  0
   37.3980   30.2180   43.2990 H   0  0  0  0  0  0  0  0  0  0  0  0
  1 11  1  0  0  0  0
  1  2  1  0  0  0  0
  2  3  2  0  0  0  0
  2  7  1  0  0  0  0
  3  8  1  0  0  0  0
  4  9  1  0  0  0  0
  4  3  1  0  0  0  0
  5  6  1  0  0  0  0
  5  4  2  0  0  0  0
  6  1  2  0  0  0  0
 10  5  1  0  0  0  0
 11 12  1  6  0  0  0
 13 14  2  0  0  0  0
 13 18  1  0  0  0  0
 14 15  1  0  0  0  0
 15 21  1  0  0  0  0
 15 16  2  0  0  0  0
 17 16  1  0  0  0  0
 17 11  1  0  0  0  0
 18 17  2  0  0  0  0
 19 13  1  0  0  0  0
 20 14  1  0  0  0  0
 22  6  1  0  0  0  0
 23 22  2  0  0  0  0
 24 25  1  0  0  0  0
 24 23  1  0  0  0  0
 26 24  1  0  0  0  0
 27 28  1  0  0  0  0
 28 29  2  0  0  0  0
 28 30  1  0  0  0  0
 30 24  1  0  0  0  0
 31 30  1  0  0  0  0
M  END
>  <minimizedAffinity>
-5.42276144

>  <minimizedRMSD>
0.807952762

$$$$
