
 OpenBabel03272507493D

 24 25  0  0  0  0  0  0  0  0999 V2000
   35.6390   29.3370   49.8230 C   0  0  0  0  0  0  0  0  0  0  0  0
   35.7500   30.2910   48.7890 C   0  0  0  0  0  0  0  0  0  0  0  0
   34.9100   30.1580   47.6820 C   0  0  0  0  0  0  0  0  0  0  0  0
   34.0320   29.1210   47.6580 N   0  0  0  0  0  0  0  0  0  0  0  0
   33.9440   28.2290   48.6470 C   0  0  0  0  0  0  0  0  0  0  0  0
   34.7470   28.3240   49.7470 N   0  0  0  0  0  0  0  0  0  0  0  0
   35.0380   30.9120   46.9250 H   0  0  0  0  0  0  0  0  0  0  0  0
   33.2080   27.4430   48.5200 H   0  0  0  0  0  0  0  0  0  0  0  0
   38.0000   29.8460   52.3550 H   0  0  0  0  0  0  0  0  0  0  0  0
   37.6440   30.0560   51.3530 C   0  0  0  0  0  0  0  0  0  0  0  0
   38.2130   30.8330   50.5440 O   0  0  0  0  0  0  0  0  0  0  0  0
   36.4330   29.3570   51.0030 N   0  0  0  0  0  0  0  0  0  0  0  0
   35.9620   28.7100   51.6820 H   0  0  0  0  0  0  0  0  0  0  0  0
   36.7160   31.3270   48.9510 N   0  0  0  0  0  0  0  0  0  0  0  0
   36.5480   32.3330   49.8190 C   0  0  0  0  0  0  0  0  0  0  0  0
   37.5260   33.3220   49.9360 C   0  0  0  0  0  0  0  0  0  0  0  0
   38.6080   33.1490   49.1120 C   0  0  0  0  0  0  0  0  0  0  0  0
   39.4990   34.0510   49.2220 O   0  0  0  0  0  0  0  0  0  0  0  0
   38.8110   32.1610   48.2340 N   0  0  0  0  0  0  0  0  0  0  0  0
   37.8250   31.2370   48.1700 C   0  0  0  0  0  0  0  0  0  0  0  0
   37.9950   30.2870   47.3440 O   0  0  0  0  0  0  0  0  0  0  0  0
   35.6640   32.3960   50.4340 H   0  0  0  0  0  0  0  0  0  0  0  0
   37.4370   34.1490   50.6200 H   0  0  0  0  0  0  0  0  0  0  0  0
   39.6720   32.1170   47.6490 H   0  0  0  0  0  0  0  0  0  0  0  0
  1 12  1  0  0  0  0
  2 14  1  0  0  0  0
  2  1  2  0  0  0  0
  3  2  1  0  0  0  0
  4  3  2  0  0  0  0
  4  5  1  0  0  0  0
  5  6  2  0  0  0  0
  6  1  1  0  0  0  0
  7  3  1  0  0  0  0
  8  5  1  0  0  0  0
 10  9  1  0  0  0  0
 11 10  2  0  0  0  0
 12 10  1  0  0  0  0
 12 13  1  0  0  0  0
 14 15  1  0  0  0  0
 15 16  2  0  0  0  0
 15 22  1  0  0  0  0
 16 23  1  0  0  0  0
 17 18  2  0  0  0  0
 17 16  1  0  0  0  0
 19 17  1  0  0  0  0
 20 19  1  0  0  0  0
 20 14  1  0  0  0  0
 21 20  2  0  0  0  0
 24 19  1  0  0  0  0
M  END
>  <minimizedAffinity>
-5.61414433

>  <minimizedRMSD>
0.815033317

$$$$
