
 OpenBabel03272508153D

 24 25  0  0  0  0  0  0  0  0999 V2000
   37.9240   23.6160   33.3340 Cl  0  0  0  0  0  0  0  0  0  0  0  0
   37.8030   25.2010   34.0520 C   0  0  0  0  0  0  0  0  0  0  0  0
   38.4800   25.3200   35.2440 C   0  0  0  0  0  0  0  0  0  0  0  0
   38.4410   26.5640   35.9020 C   0  0  0  0  0  0  0  0  0  0  0  0
   37.7630   27.6210   35.3900 C   0  0  0  0  0  0  0  0  0  0  0  0
   37.0940   27.4780   34.1950 C   0  0  0  0  0  0  0  0  0  0  0  0
   36.2140   28.8180   33.5120 Cl  0  0  0  0  0  0  0  0  0  0  0  0
   37.1220   26.2800   33.5500 C   0  0  0  0  0  0  0  0  0  0  0  0
   38.9410   26.7570   36.8430 H   0  0  0  0  0  0  0  0  0  0  0  0
   37.7160   28.6000   35.8810 H   0  0  0  0  0  0  0  0  0  0  0  0
   38.7100   23.7740   37.1460 C   0  0  0  0  0  0  0  0  0  0  0  0
   39.2690   24.3230   35.9750 C   0  0  0  0  0  0  0  0  0  0  0  0
   40.5330   23.8890   35.5820 C   0  0  0  0  0  0  0  0  0  0  0  0
   41.1660   22.9600   36.3420 N   0  0  0  0  0  0  0  0  0  0  0  0
   40.5930   22.4500   37.4710 C   0  0  0  0  0  0  0  0  0  0  0  0
   39.3700   22.8600   37.8630 N   0  0  0  0  0  0  0  0  0  0  0  0
   37.7280   24.1180   37.4410 H   0  0  0  0  0  0  0  0  0  0  0  0
   40.9550   24.3140   34.6850 H   0  0  0  0  0  0  0  0  0  0  0  0
   41.0930   21.7140   38.0750 H   0  0  0  0  0  0  0  0  0  0  0  0
   36.9630   26.2550   30.1180 H   0  0  0  0  0  0  0  0  0  0  0  0
   37.2550   26.3570   31.1610 C   0  0  0  0  0  0  0  0  0  0  0  0
   38.4290   26.8130   31.2280 O   0  0  0  0  0  0  0  0  0  0  0  0
   36.4620   26.0360   32.3130 N   0  0  0  0  0  0  0  0  0  0  0  0
   35.4960   25.6620   32.1080 H   0  0  0  0  0  0  0  0  0  0  0  0
  1  2  1  0  0  0  0
  2  3  1  0  0  0  0
  3  4  2  0  0  0  0
  3 12  1  0  0  0  0
  4  9  1  0  0  0  0
  5 10  1  0  0  0  0
  5  4  1  0  0  0  0
  6  5  2  0  0  0  0
  7  6  1  0  0  0  0
  8  2  2  0  0  0  0
  8  6  1  0  0  0  0
 11 17  1  0  0  0  0
 11 16  1  0  0  0  0
 12 11  2  0  0  0  0
 13 12  1  0  0  0  0
 13 14  2  0  0  0  0
 14 15  1  0  0  0  0
 15 16  2  0  0  0  0
 15 19  1  0  0  0  0
 18 13  1  0  0  0  0
 20 21  1  0  0  0  0
 21 22  2  0  0  0  0
 21 23  1  0  0  0  0
 23  8  1  0  0  0  0
 24 23  1  0  0  0  0
M  END
>  <minimizedAffinity>
-4.68708897

$$$$

 OpenBabel03272508153D

 24 25  0  0  0  0  0  0  0  0999 V2000
   38.9460   23.9550   33.4990 Cl  0  0  0  0  0  0  0  0  0  0  0  0
   37.7230   22.7150   33.5850 C   0  0  0  0  0  0  0  0  0  0  0  0
   37.5290   22.2170   34.8520 C   0  0  0  0  0  0  0  0  0  0  0  0
   36.5610   21.2100   35.0240 C   0  0  0  0  0  0  0  0  0  0  0  0
   35.8340   20.7350   33.9830 C   0  0  0  0  0  0  0  0  0  0  0  0
   36.0440   21.2500   32.7230 C   0  0  0  0  0  0  0  0  0  0  0  0
   35.1250   20.6610   31.3650 Cl  0  0  0  0  0  0  0  0  0  0  0  0
   36.9780   22.2230   32.5430 C   0  0  0  0  0  0  0  0  0  0  0  0
   36.3360   20.7540   35.9800 H   0  0  0  0  0  0  0  0  0  0  0  0
   35.0730   19.9520   34.0870 H   0  0  0  0  0  0  0  0  0  0  0  0
   37.4540   23.3150   37.0540 C   0  0  0  0  0  0  0  0  0  0  0  0
   38.1940   22.5760   36.1100 C   0  0  0  0  0  0  0  0  0  0  0  0
   39.5060   22.2330   36.4250 C   0  0  0  0  0  0  0  0  0  0  0  0
   40.0110   22.6240   37.6220 N   0  0  0  0  0  0  0  0  0  0  0  0
   39.2630   23.3400   38.5120 C   0  0  0  0  0  0  0  0  0  0  0  0
   37.9920   23.6790   38.2220 N   0  0  0  0  0  0  0  0  0  0  0  0
   36.4350   23.5760   36.7990 H   0  0  0  0  0  0  0  0  0  0  0  0
   40.0660   21.6670   35.6970 H   0  0  0  0  0  0  0  0  0  0  0  0
   39.6610   23.6510   39.4620 H   0  0  0  0  0  0  0  0  0  0  0  0
   36.4410   24.5200   30.0460 H   0  0  0  0  0  0  0  0  0  0  0  0
   36.4100   23.9180   30.9510 C   0  0  0  0  0  0  0  0  0  0  0  0
   35.4840   24.3310   31.7010 O   0  0  0  0  0  0  0  0  0  0  0  0
   37.2670   22.8150   31.2820 N   0  0  0  0  0  0  0  0  0  0  0  0
   38.0000   22.5780   30.5590 H   0  0  0  0  0  0  0  0  0  0  0  0
  1  2  1  0  0  0  0
  2  3  1  0  0  0  0
  3  4  2  0  0  0  0
  3 12  1  0  0  0  0
  4  9  1  0  0  0  0
  5 10  1  0  0  0  0
  5  4  1  0  0  0  0
  6  5  2  0  0  0  0
  7  6  1  0  0  0  0
  8  6  1  0  0  0  0
  8  2  2  0  0  0  0
 11 16  1  0  0  0  0
 12 13  1  0  0  0  0
 12 11  2  0  0  0  0
 13 14  2  0  0  0  0
 14 15  1  0  0  0  0
 15 19  1  0  0  0  0
 16 15  2  0  0  0  0
 17 11  1  0  0  0  0
 18 13  1  0  0  0  0
 20 21  1  0  0  0  0
 21 23  1  0  0  0  0
 21 22  2  0  0  0  0
 23  8  1  0  0  0  0
 24 23  1  0  0  0  0
M  END
>  <minimizedAffinity>
-4.61363506

$$$$

 OpenBabel03272508153D

 24 25  0  0  0  0  0  0  0  0999 V2000
   34.8050   30.1280   31.5200 Cl  0  0  0  0  0  0  0  0  0  0  0  0
   35.7920   28.8590   32.1980 C   0  0  0  0  0  0  0  0  0  0  0  0
   35.8670   28.8920   33.5710 C   0  0  0  0  0  0  0  0  0  0  0  0
   36.6410   27.9080   34.2120 C   0  0  0  0  0  0  0  0  0  0  0  0
   37.2980   26.9500   33.5130 C   0  0  0  0  0  0  0  0  0  0  0  0
   37.2080   26.9360   32.1390 C   0  0  0  0  0  0  0  0  0  0  0  0
   38.0400   25.7170   31.2130 Cl  0  0  0  0  0  0  0  0  0  0  0  0
   36.4630   27.8830   31.5060 C   0  0  0  0  0  0  0  0  0  0  0  0
   36.7620   27.8500   35.2870 H   0  0  0  0  0  0  0  0  0  0  0  0
   37.9080   26.1710   33.9860 H   0  0  0  0  0  0  0  0  0  0  0  0
   33.8610   29.7040   34.7450 C   0  0  0  0  0  0  0  0  0  0  0  0
   35.2470   29.8240   34.5190 C   0  0  0  0  0  0  0  0  0  0  0  0
   35.9420   30.8170   35.2050 C   0  0  0  0  0  0  0  0  0  0  0  0
   35.2560   31.6200   36.0580 N   0  0  0  0  0  0  0  0  0  0  0  0
   33.9130   31.4730   36.2510 C   0  0  0  0  0  0  0  0  0  0  0  0
   33.2270   30.5170   35.5950 N   0  0  0  0  0  0  0  0  0  0  0  0
   33.3310   28.9290   34.2070 H   0  0  0  0  0  0  0  0  0  0  0  0
   37.0020   30.9030   35.0270 H   0  0  0  0  0  0  0  0  0  0  0  0
   33.3670   32.1080   36.9260 H   0  0  0  0  0  0  0  0  0  0  0  0
   37.4280   28.8960   28.3690 H   0  0  0  0  0  0  0  0  0  0  0  0
   37.3370   28.7080   29.4360 C   0  0  0  0  0  0  0  0  0  0  0  0
   38.2910   29.2660   30.0450 O   0  0  0  0  0  0  0  0  0  0  0  0
   36.3110   27.9510   30.0940 N   0  0  0  0  0  0  0  0  0  0  0  0
   35.5740   27.5390   29.4580 H   0  0  0  0  0  0  0  0  0  0  0  0
  1  2  1  0  0  0  0
  2  3  1  0  0  0  0
  3  4  2  0  0  0  0
  3 12  1  0  0  0  0
  4  9  1  0  0  0  0
  5 10  1  0  0  0  0
  5  4  1  0  0  0  0
  6  5  2  0  0  0  0
  7  6  1  0  0  0  0
  8  6  1  0  0  0  0
  8  2  2  0  0  0  0
 11 16  1  0  0  0  0
 12 11  2  0  0  0  0
 12 13  1  0  0  0  0
 13 14  2  0  0  0  0
 14 15  1  0  0  0  0
 15 19  1  0  0  0  0
 16 15  2  0  0  0  0
 17 11  1  0  0  0  0
 18 13  1  0  0  0  0
 20 21  1  0  0  0  0
 21 22  2  0  0  0  0
 21 23  1  0  0  0  0
 23  8  1  0  0  0  0
 24 23  1  0  0  0  0
M  END
>  <minimizedAffinity>
-4.4799614

$$$$

 OpenBabel03272508153D

 24 25  0  0  0  0  0  0  0  0999 V2000
   32.8590   29.3150   33.6870 Cl  0  0  0  0  0  0  0  0  0  0  0  0
   33.7860   30.3400   34.7530 C   0  0  0  0  0  0  0  0  0  0  0  0
   35.1460   30.1710   34.6360 C   0  0  0  0  0  0  0  0  0  0  0  0
   35.9790   30.9540   35.4560 C   0  0  0  0  0  0  0  0  0  0  0  0
   35.4730   31.8510   36.3380 C   0  0  0  0  0  0  0  0  0  0  0  0
   34.1080   32.0030   36.4370 C   0  0  0  0  0  0  0  0  0  0  0  0
   33.4280   33.1470   37.5610 Cl  0  0  0  0  0  0  0  0  0  0  0  0
   33.2910   31.2510   35.6510 C   0  0  0  0  0  0  0  0  0  0  0  0
   37.0600   30.8950   35.4380 H   0  0  0  0  0  0  0  0  0  0  0  0
   36.0990   32.4740   36.9880 H   0  0  0  0  0  0  0  0  0  0  0  0
   36.4620   28.1120   34.3350 C   0  0  0  0  0  0  0  0  0  0  0  0
   35.9050   29.2720   33.7600 C   0  0  0  0  0  0  0  0  0  0  0  0
   36.1070   29.4940   32.4000 C   0  0  0  0  0  0  0  0  0  0  0  0
   36.8280   28.5870   31.6940 N   0  0  0  0  0  0  0  0  0  0  0  0
   37.3530   27.4750   32.2860 C   0  0  0  0  0  0  0  0  0  0  0  0
   37.1660   27.2470   33.6010 N   0  0  0  0  0  0  0  0  0  0  0  0
   36.2990   27.9500   35.3930 H   0  0  0  0  0  0  0  0  0  0  0  0
   35.6760   30.3830   31.9670 H   0  0  0  0  0  0  0  0  0  0  0  0
   37.9250   26.7550   31.7280 H   0  0  0  0  0  0  0  0  0  0  0  0
   30.1950   30.3410   36.8290 H   0  0  0  0  0  0  0  0  0  0  0  0
   31.2580   30.4510   36.6310 C   0  0  0  0  0  0  0  0  0  0  0  0
   31.9090   29.6660   37.3730 O   0  0  0  0  0  0  0  0  0  0  0  0
   31.8710   31.3360   35.6810 N   0  0  0  0  0  0  0  0  0  0  0  0
   31.2030   31.9380   35.1270 H   0  0  0  0  0  0  0  0  0  0  0  0
  1  2  1  0  0  0  0
  2  8  1  0  0  0  0
  3  2  2  0  0  0  0
  3  4  1  0  0  0  0
  4  5  2  0  0  0  0
  5  6  1  0  0  0  0
  5 10  1  0  0  0  0
  6  7  1  0  0  0  0
  8 23  1  0  0  0  0
  8  6  2  0  0  0  0
  9  4  1  0  0  0  0
 11 17  1  0  0  0  0
 12 11  1  0  0  0  0
 12  3  1  0  0  0  0
 13 12  2  0  0  0  0
 14 15  2  0  0  0  0
 14 13  1  0  0  0  0
 15 16  1  0  0  0  0
 16 11  2  0  0  0  0
 18 13  1  0  0  0  0
 19 15  1  0  0  0  0
 21 20  1  0  0  0  0
 21 22  2  0  0  0  0
 23 21  1  0  0  0  0
 24 23  1  0  0  0  0
M  END
>  <minimizedAffinity>
-4.44312286

$$$$

 OpenBabel03272508153D

 24 25  0  0  0  0  0  0  0  0999 V2000
   36.4750   27.8650   34.6320 Cl  0  0  0  0  0  0  0  0  0  0  0  0
   36.2930   28.7810   33.1590 C   0  0  0  0  0  0  0  0  0  0  0  0
   35.6160   29.9670   33.3260 C   0  0  0  0  0  0  0  0  0  0  0  0
   35.4180   30.7780   32.1930 C   0  0  0  0  0  0  0  0  0  0  0  0
   35.8740   30.4160   30.9690 C   0  0  0  0  0  0  0  0  0  0  0  0
   36.5500   29.2250   30.8260 C   0  0  0  0  0  0  0  0  0  0  0  0
   37.1480   28.7320   29.2650 Cl  0  0  0  0  0  0  0  0  0  0  0  0
   36.7470   28.4300   31.9130 C   0  0  0  0  0  0  0  0  0  0  0  0
   34.8980   31.7280   32.2220 H   0  0  0  0  0  0  0  0  0  0  0  0
   35.7350   31.0280   30.0690 H   0  0  0  0  0  0  0  0  0  0  0  0
   35.8800   31.3510   35.3450 C   0  0  0  0  0  0  0  0  0  0  0  0
   35.0410   30.5520   34.5430 C   0  0  0  0  0  0  0  0  0  0  0  0
   33.7230   30.3660   34.9500 C   0  0  0  0  0  0  0  0  0  0  0  0
   33.3070   30.9600   36.0970 N   0  0  0  0  0  0  0  0  0  0  0  0
   34.1490   31.7270   36.8490 C   0  0  0  0  0  0  0  0  0  0  0  0
   35.4270   31.9170   36.4680 N   0  0  0  0  0  0  0  0  0  0  0  0
   36.9030   31.4890   35.0190 H   0  0  0  0  0  0  0  0  0  0  0  0
   33.0870   29.7540   34.3300 H   0  0  0  0  0  0  0  0  0  0  0  0
   33.8210   32.1990   37.7590 H   0  0  0  0  0  0  0  0  0  0  0  0
   36.8890   25.0350   31.4150 H   0  0  0  0  0  0  0  0  0  0  0  0
   36.5900   26.0750   31.5130 C   0  0  0  0  0  0  0  0  0  0  0  0
   35.3570   26.1850   31.2680 O   0  0  0  0  0  0  0  0  0  0  0  0
   37.4310   27.1840   31.8650 N   0  0  0  0  0  0  0  0  0  0  0  0
   38.4450   26.9450   32.0420 H   0  0  0  0  0  0  0  0  0  0  0  0
  2  3  1  0  0  0  0
  2  1  1  0  0  0  0
  3 12  1  0  0  0  0
  4  9  1  0  0  0  0
  4  3  2  0  0  0  0
  5  4  1  0  0  0  0
  6  5  2  0  0  0  0
  6  8  1  0  0  0  0
  7  6  1  0  0  0  0
  8  2  2  0  0  0  0
 10  5  1  0  0  0  0
 11 16  1  0  0  0  0
 12 13  1  0  0  0  0
 12 11  2  0  0  0  0
 13 14  2  0  0  0  0
 14 15  1  0  0  0  0
 15 19  1  0  0  0  0
 16 15  2  0  0  0  0
 17 11  1  0  0  0  0
 18 13  1  0  0  0  0
 20 21  1  0  0  0  0
 21 23  1  0  0  0  0
 22 21  2  0  0  0  0
 23  8  1  0  0  0  0
 23 24  1  0  0  0  0
M  END
>  <minimizedAffinity>
-4.38049459

$$$$

 OpenBabel03272508153D

 24 25  0  0  0  0  0  0  0  0999 V2000
   37.8800   22.7460   33.7230 Cl  0  0  0  0  0  0  0  0  0  0  0  0
   38.4800   24.3790   33.5960 C   0  0  0  0  0  0  0  0  0  0  0  0
   38.9040   24.9070   34.7930 C   0  0  0  0  0  0  0  0  0  0  0  0
   39.4060   26.2220   34.7930 C   0  0  0  0  0  0  0  0  0  0  0  0
   39.4750   26.9580   33.6570 C   0  0  0  0  0  0  0  0  0  0  0  0
   39.0450   26.4090   32.4700 C   0  0  0  0  0  0  0  0  0  0  0  0
   39.1220   27.3300   30.9920 Cl  0  0  0  0  0  0  0  0  0  0  0  0
   38.5560   25.1390   32.4560 C   0  0  0  0  0  0  0  0  0  0  0  0
   39.7630   26.7250   35.6830 H   0  0  0  0  0  0  0  0  0  0  0  0
   39.8610   27.9840   33.6270 H   0  0  0  0  0  0  0  0  0  0  0  0
   37.9360   24.7090   37.0480 C   0  0  0  0  0  0  0  0  0  0  0  0
   38.9220   24.3000   36.1280 C   0  0  0  0  0  0  0  0  0  0  0  0
   39.8510   23.3470   36.5400 C   0  0  0  0  0  0  0  0  0  0  0  0
   39.7640   22.8590   37.8030 N   0  0  0  0  0  0  0  0  0  0  0  0
   38.7940   23.2800   38.6660 C   0  0  0  0  0  0  0  0  0  0  0  0
   37.8880   24.2010   38.2820 N   0  0  0  0  0  0  0  0  0  0  0  0
   37.2190   25.4500   36.7170 H   0  0  0  0  0  0  0  0  0  0  0  0
   40.6020   23.0390   35.8310 H   0  0  0  0  0  0  0  0  0  0  0  0
   38.7240   22.8940   39.6680 H   0  0  0  0  0  0  0  0  0  0  0  0
   36.1160   24.2880   30.1930 H   0  0  0  0  0  0  0  0  0  0  0  0
   36.6910   24.6870   31.0250 C   0  0  0  0  0  0  0  0  0  0  0  0
   35.9380   25.3740   31.7680 O   0  0  0  0  0  0  0  0  0  0  0  0
   38.0890   24.4870   31.2810 N   0  0  0  0  0  0  0  0  0  0  0  0
   38.5980   23.8880   30.5750 H   0  0  0  0  0  0  0  0  0  0  0  0
  2  1  1  0  0  0  0
  2  3  1  0  0  0  0
  3 12  1  0  0  0  0
  4  3  2  0  0  0  0
  4  9  1  0  0  0  0
  5  4  1  0  0  0  0
  6  5  2  0  0  0  0
  7  6  1  0  0  0  0
  8  6  1  0  0  0  0
  8  2  2  0  0  0  0
 10  5  1  0  0  0  0
 11 16  1  0  0  0  0
 12 13  1  0  0  0  0
 12 11  2  0  0  0  0
 13 14  2  0  0  0  0
 14 15  1  0  0  0  0
 15 19  1  0  0  0  0
 16 15  2  0  0  0  0
 17 11  1  0  0  0  0
 18 13  1  0  0  0  0
 20 21  1  0  0  0  0
 21 23  1  0  0  0  0
 21 22  2  0  0  0  0
 23  8  1  0  0  0  0
 24 23  1  0  0  0  0
M  END
>  <minimizedAffinity>
-4.36117125

$$$$

 OpenBabel03272508153D

 24 25  0  0  0  0  0  0  0  0999 V2000
   32.7110   29.2330   35.2910 Cl  0  0  0  0  0  0  0  0  0  0  0  0
   33.7400   30.5820   35.6940 C   0  0  0  0  0  0  0  0  0  0  0  0
   34.9370   30.5860   35.0160 C   0  0  0  0  0  0  0  0  0  0  0  0
   35.8370   31.6360   35.2740 C   0  0  0  0  0  0  0  0  0  0  0  0
   35.5490   32.6220   36.1590 C   0  0  0  0  0  0  0  0  0  0  0  0
   34.3440   32.5970   36.8250 C   0  0  0  0  0  0  0  0  0  0  0  0
   33.9430   33.8500   37.9690 Cl  0  0  0  0  0  0  0  0  0  0  0  0
   33.4650   31.5870   36.5860 C   0  0  0  0  0  0  0  0  0  0  0  0
   36.8030   31.7270   34.7920 H   0  0  0  0  0  0  0  0  0  0  0  0
   36.2300   33.4520   36.3800 H   0  0  0  0  0  0  0  0  0  0  0  0
   35.1550   29.8730   32.6700 C   0  0  0  0  0  0  0  0  0  0  0  0
   35.4540   29.6350   34.0260 C   0  0  0  0  0  0  0  0  0  0  0  0
   36.2180   28.5140   34.3440 C   0  0  0  0  0  0  0  0  0  0  0  0
   36.6390   27.7070   33.3380 N   0  0  0  0  0  0  0  0  0  0  0  0
   36.3290   27.9700   32.0350 C   0  0  0  0  0  0  0  0  0  0  0  0
   35.5910   29.0500   31.7110 N   0  0  0  0  0  0  0  0  0  0  0  0
   34.5610   30.7460   32.4330 H   0  0  0  0  0  0  0  0  0  0  0  0
   36.4430   28.3390   35.3850 H   0  0  0  0  0  0  0  0  0  0  0  0
   36.6610   27.3320   31.2360 H   0  0  0  0  0  0  0  0  0  0  0  0
   30.1020   32.2370   36.8470 H   0  0  0  0  0  0  0  0  0  0  0  0
   31.1460   32.1790   36.5470 C   0  0  0  0  0  0  0  0  0  0  0  0
   31.3170   32.8360   35.4840 O   0  0  0  0  0  0  0  0  0  0  0  0
   32.1980   31.4760   37.2250 N   0  0  0  0  0  0  0  0  0  0  0  0
   31.9100   30.9670   38.1050 H   0  0  0  0  0  0  0  0  0  0  0  0
  1  2  1  0  0  0  0
  2  8  1  0  0  0  0
  3  4  1  0  0  0  0
  3  2  2  0  0  0  0
  4  5  2  0  0  0  0
  5 10  1  0  0  0  0
  5  6  1  0  0  0  0
  6  7  1  0  0  0  0
  8  6  2  0  0  0  0
  8 23  1  0  0  0  0
  9  4  1  0  0  0  0
 11 12  1  0  0  0  0
 12 13  2  0  0  0  0
 12  3  1  0  0  0  0
 13 18  1  0  0  0  0
 14 13  1  0  0  0  0
 15 14  2  0  0  0  0
 16 15  1  0  0  0  0
 16 11  2  0  0  0  0
 17 11  1  0  0  0  0
 19 15  1  0  0  0  0
 21 20  1  0  0  0  0
 21 23  1  0  0  0  0
 22 21  2  0  0  0  0
 23 24  1  0  0  0  0
M  END
>  <minimizedAffinity>
-4.35917807

$$$$

 OpenBabel03272508153D

 24 25  0  0  0  0  0  0  0  0999 V2000
   39.2380   22.6390   33.4910 Cl  0  0  0  0  0  0  0  0  0  0  0  0
   38.7630   23.5930   34.8720 C   0  0  0  0  0  0  0  0  0  0  0  0
   38.2580   24.8290   34.5420 C   0  0  0  0  0  0  0  0  0  0  0  0
   37.8460   25.6730   35.5900 C   0  0  0  0  0  0  0  0  0  0  0  0
   37.9380   25.2950   36.8890 C   0  0  0  0  0  0  0  0  0  0  0  0
   38.4460   24.0530   37.1950 C   0  0  0  0  0  0  0  0  0  0  0  0
   38.5760   23.5380   38.8540 Cl  0  0  0  0  0  0  0  0  0  0  0  0
   38.8490   23.2270   36.1910 C   0  0  0  0  0  0  0  0  0  0  0  0
   37.4370   26.6640   35.4330 H   0  0  0  0  0  0  0  0  0  0  0  0
   37.6250   25.9320   37.7250 H   0  0  0  0  0  0  0  0  0  0  0  0
   39.0720   26.3110   32.7520 C   0  0  0  0  0  0  0  0  0  0  0  0
   38.0690   25.4400   33.2220 C   0  0  0  0  0  0  0  0  0  0  0  0
   36.9620   25.2120   32.4080 C   0  0  0  0  0  0  0  0  0  0  0  0
   36.9000   25.8360   31.2050 N   0  0  0  0  0  0  0  0  0  0  0  0
   37.8920   26.6740   30.7840 C   0  0  0  0  0  0  0  0  0  0  0  0
   38.9690   26.9040   31.5600 N   0  0  0  0  0  0  0  0  0  0  0  0
   39.9280   26.4810   33.3930 H   0  0  0  0  0  0  0  0  0  0  0  0
   36.1980   24.5430   32.7740 H   0  0  0  0  0  0  0  0  0  0  0  0
   37.8450   27.1700   29.8300 H   0  0  0  0  0  0  0  0  0  0  0  0
   41.4170   21.0540   36.8870 H   0  0  0  0  0  0  0  0  0  0  0  0
   40.7930   21.9230   36.6900 C   0  0  0  0  0  0  0  0  0  0  0  0
   41.4980   22.9680   36.7430 O   0  0  0  0  0  0  0  0  0  0  0  0
   39.3860   21.9270   36.4080 N   0  0  0  0  0  0  0  0  0  0  0  0
   38.9230   20.9780   36.3960 H   0  0  0  0  0  0  0  0  0  0  0  0
  1  2  1  0  0  0  0
  2  8  1  0  0  0  0
  3  2  2  0  0  0  0
  3  4  1  0  0  0  0
  4  5  2  0  0  0  0
  5  6  1  0  0  0  0
  5 10  1  0  0  0  0
  6  7  1  0  0  0  0
  8 23  1  0  0  0  0
  8  6  2  0  0  0  0
  9  4  1  0  0  0  0
 11 12  1  0  0  0  0
 11 17  1  0  0  0  0
 12  3  1  0  0  0  0
 13 18  1  0  0  0  0
 13 12  2  0  0  0  0
 14 13  1  0  0  0  0
 15 14  2  0  0  0  0
 15 16  1  0  0  0  0
 16 11  2  0  0  0  0
 19 15  1  0  0  0  0
 21 22  2  0  0  0  0
 21 20  1  0  0  0  0
 23 21  1  0  0  0  0
 24 23  1  0  0  0  0
M  END
>  <minimizedAffinity>
-4.35773993

$$$$

 OpenBabel03272508153D

 24 25  0  0  0  0  0  0  0  0999 V2000
   38.5140   23.0170   33.2130 Cl  0  0  0  0  0  0  0  0  0  0  0  0
   37.2640   23.9010   32.3760 C   0  0  0  0  0  0  0  0  0  0  0  0
   36.2340   23.1080   31.9250 C   0  0  0  0  0  0  0  0  0  0  0  0
   35.1770   23.7310   31.2370 C   0  0  0  0  0  0  0  0  0  0  0  0
   35.1570   25.0690   31.0180 C   0  0  0  0  0  0  0  0  0  0  0  0
   36.1990   25.8420   31.4800 C   0  0  0  0  0  0  0  0  0  0  0  0
   36.2030   27.5650   31.2140 Cl  0  0  0  0  0  0  0  0  0  0  0  0
   37.2290   25.2530   32.1450 C   0  0  0  0  0  0  0  0  0  0  0  0
   34.3220   23.1940   30.8440 H   0  0  0  0  0  0  0  0  0  0  0  0
   34.3470   25.5800   30.4850 H   0  0  0  0  0  0  0  0  0  0  0  0
   36.3270   20.8640   30.9180 C   0  0  0  0  0  0  0  0  0  0  0  0
   36.0480   21.6580   32.0480 C   0  0  0  0  0  0  0  0  0  0  0  0
   35.6130   21.0230   33.2090 C   0  0  0  0  0  0  0  0  0  0  0  0
   35.4790   19.6730   33.1990 N   0  0  0  0  0  0  0  0  0  0  0  0
   35.7590   18.9360   32.0850 C   0  0  0  0  0  0  0  0  0  0  0  0
   36.1810   19.5360   30.9550 N   0  0  0  0  0  0  0  0  0  0  0  0
   36.6640   21.3680   30.0220 H   0  0  0  0  0  0  0  0  0  0  0  0
   35.4020   21.6380   34.0690 H   0  0  0  0  0  0  0  0  0  0  0  0
   35.6530   17.8650   32.0750 H   0  0  0  0  0  0  0  0  0  0  0  0
   38.8470   27.0750   34.5660 H   0  0  0  0  0  0  0  0  0  0  0  0
   38.1390   26.4980   33.9760 C   0  0  0  0  0  0  0  0  0  0  0  0
   37.0690   26.3500   34.6270 O   0  0  0  0  0  0  0  0  0  0  0  0
   38.3470   25.9670   32.6590 N   0  0  0  0  0  0  0  0  0  0  0  0
   39.2930   26.1680   32.2330 H   0  0  0  0  0  0  0  0  0  0  0  0
  2  1  1  0  0  0  0
  3 12  1  0  0  0  0
  3  2  2  0  0  0  0
  4  3  1  0  0  0  0
  5  4  2  0  0  0  0
  5  6  1  0  0  0  0
  6  8  2  0  0  0  0
  7  6  1  0  0  0  0
  8  2  1  0  0  0  0
  8 23  1  0  0  0  0
  9  4  1  0  0  0  0
 10  5  1  0  0  0  0
 11 16  2  0  0  0  0
 11 12  1  0  0  0  0
 12 13  2  0  0  0  0
 13 18  1  0  0  0  0
 14 13  1  0  0  0  0
 15 14  2  0  0  0  0
 16 15  1  0  0  0  0
 17 11  1  0  0  0  0
 19 15  1  0  0  0  0
 21 20  1  0  0  0  0
 21 22  2  0  0  0  0
 23 21  1  0  0  0  0
 24 23  1  0  0  0  0
M  END
>  <minimizedAffinity>
-4.33995295

$$$$
