
 OpenBabel03272510323D

 24 25  0  0  0  0  0  0  0  0999 V2000
   36.1010   30.3830   48.8710 C   0  0  0  0  0  0  0  0  0  0  0  0
   35.4090   29.9560   47.7790 C   0  0  0  0  0  0  0  0  0  0  0  0
   34.3970   29.0230   47.8650 C   0  0  0  0  0  0  0  0  0  0  0  0
   34.0950   28.5210   49.1260 C   0  0  0  0  0  0  0  0  0  0  0  0
   34.7730   28.9280   50.2530 C   0  0  0  0  0  0  0  0  0  0  0  0
   35.7830   29.8670   50.1180 C   0  0  0  0  0  0  0  0  0  0  0  0
   35.6380   30.3460   46.7830 H   0  0  0  0  0  0  0  0  0  0  0  0
   33.8220   28.6560   47.0250 H   0  0  0  0  0  0  0  0  0  0  0  0
   33.3140   27.7830   49.2830 H   0  0  0  0  0  0  0  0  0  0  0  0
   34.5470   28.5410   51.2500 H   0  0  0  0  0  0  0  0  0  0  0  0
   38.1010   33.3790   49.3540 C   0  0  0  0  0  0  0  0  0  0  0  0
   39.0940   33.2960   48.3810 C   0  0  0  0  0  0  0  0  0  0  0  0
   39.0680   32.1560   47.5240 C   0  0  0  0  0  0  0  0  0  0  0  0
   38.0910   31.2490   47.7190 N   0  0  0  0  0  0  0  0  0  0  0  0
   37.1500   31.3690   48.6720 C   0  0  0  0  0  0  0  0  0  0  0  0
   37.1570   32.4430   49.4950 N   0  0  0  0  0  0  0  0  0  0  0  0
   38.1080   34.2470   50.0170 H   0  0  0  0  0  0  0  0  0  0  0  0
   39.8540   34.0690   48.2820 H   0  0  0  0  0  0  0  0  0  0  0  0
   39.8320   32.0760   46.7630 H   0  0  0  0  0  0  0  0  0  0  0  0
   38.3280   29.5020   52.3220 H   0  0  0  0  0  0  0  0  0  0  0  0
   37.5930   29.4290   51.5190 C   0  0  0  0  0  0  0  0  0  0  0  0
   37.7460   28.4370   50.7490 O   0  0  0  0  0  0  0  0  0  0  0  0
   36.5040   30.3130   51.2540 N   0  0  0  0  0  0  0  0  0  0  0  0
   36.4090   31.1200   51.9090 H   0  0  0  0  0  0  0  0  0  0  0  0
  1  6  1  0  0  0  0
  2  3  1  0  0  0  0
  2  1  2  0  0  0  0
  3  4  2  0  0  0  0
  4  9  1  0  0  0  0
  4  5  1  0  0  0  0
  5 10  1  0  0  0  0
  6  5  2  0  0  0  0
  6 23  1  0  0  0  0
  7  2  1  0  0  0  0
  8  3  1  0  0  0  0
 11 16  1  0  0  0  0
 11 17  1  0  0  0  0
 12 11  2  0  0  0  0
 13 14  2  0  0  0  0
 13 12  1  0  0  0  0
 14 15  1  0  0  0  0
 15  1  1  0  0  0  0
 15 16  2  0  0  0  0
 18 12  1  0  0  0  0
 19 13  1  0  0  0  0
 21 20  1  0  0  0  0
 22 21  2  0  0  0  0
 23 21  1  0  0  0  0
 23 24  1  0  0  0  0
M  END
>  <minimizedAffinity>
-4.97200203

>  <minimizedRMSD>
0.699961066

$$$$
