
 OpenBabel03272510303D

 24 25  0  0  0  0  0  0  0  0999 V2000
   38.4180   25.0150   36.3910 C   0  0  0  0  0  0  0  0  0  0  0  0
   37.8120   25.1340   37.6400 C   0  0  0  0  0  0  0  0  0  0  0  0
   38.0820   24.1060   38.5320 C   0  0  0  0  0  0  0  0  0  0  0  0
   38.8890   23.0730   38.1660 N   0  0  0  0  0  0  0  0  0  0  0  0
   39.4610   22.9960   36.9340 C   0  0  0  0  0  0  0  0  0  0  0  0
   39.2110   23.9980   36.0350 N   0  0  0  0  0  0  0  0  0  0  0  0
   37.1720   25.9600   37.9220 H   0  0  0  0  0  0  0  0  0  0  0  0
   37.6740   24.0810   39.5270 H   0  0  0  0  0  0  0  0  0  0  0  0
   38.1810   26.1190   35.3950 C   0  0  0  0  0  0  0  0  0  0  0  0
   38.1390   27.5100   35.7700 C   0  0  0  0  0  0  0  0  0  0  0  0
   39.4210   26.9830   35.1650 C   0  0  0  0  0  0  0  0  0  0  0  0
   37.6610   25.7660   34.4820 H   0  0  0  0  0  0  0  0  0  0  0  0
   38.2800   27.7640   36.8610 H   0  0  0  0  0  0  0  0  0  0  0  0
   37.5290   28.2460   35.2450 H   0  0  0  0  0  0  0  0  0  0  0  0
   39.5770   27.2730   34.1070 H   0  0  0  0  0  0  0  0  0  0  0  0
   40.3000   26.7960   35.7810 H   0  0  0  0  0  0  0  0  0  0  0  0
   40.3330   21.9030   36.5180 C   0  0  0  0  0  0  0  0  0  0  0  0
   41.0550   22.2050   35.7510 H   0  0  0  0  0  0  0  0  0  0  0  0
   39.7860   21.0480   36.1280 H   0  0  0  0  0  0  0  0  0  0  0  0
   42.6270   20.3900   38.6500 H   0  0  0  0  0  0  0  0  0  0  0  0
   42.2180   20.6970   37.6830 C   0  0  0  0  0  0  0  0  0  0  0  0
   42.8240   20.4000   36.6080 O   0  0  0  0  0  0  0  0  0  0  0  0
   41.0070   21.4220   37.7270 N   0  0  0  0  0  0  0  0  0  0  0  0
   40.5330   21.6500   38.6440 H   0  0  0  0  0  0  0  0  0  0  0  0
  1  2  1  0  0  0  0
  2  7  1  0  0  0  0
  2  3  2  0  0  0  0
  3  8  1  0  0  0  0
  4  3  1  0  0  0  0
  5  4  2  0  0  0  0
  6  1  2  0  0  0  0
  6  5  1  0  0  0  0
  9 10  1  0  0  0  0
  9  1  1  0  0  0  0
 10 13  1  0  0  0  0
 11  9  1  0  0  0  0
 11 10  1  0  0  0  0
 11 16  1  0  0  0  0
 12  9  1  0  0  0  0
 14 10  1  0  0  0  0
 15 11  1  0  0  0  0
 17  5  1  0  0  0  0
 17 23  1  0  0  0  0
 18 17  1  0  0  0  0
 19 17  1  0  0  0  0
 21 23  1  0  0  0  0
 21 20  1  0  0  0  0
 22 21  2  0  0  0  0
 23 24  1  0  0  0  0
M  END
>  <minimizedAffinity>
-4.27502871

$$$$

 OpenBabel03272510303D

 24 25  0  0  0  0  0  0  0  0999 V2000
   36.6870   21.4180   33.4510 C   0  0  0  0  0  0  0  0  0  0  0  0
   35.7060   20.6890   34.1230 C   0  0  0  0  0  0  0  0  0  0  0  0
   35.7470   20.7740   35.5070 C   0  0  0  0  0  0  0  0  0  0  0  0
   36.6980   21.5290   36.1220 N   0  0  0  0  0  0  0  0  0  0  0  0
   37.6370   22.2260   35.4280 C   0  0  0  0  0  0  0  0  0  0  0  0
   37.6190   22.1590   34.0600 N   0  0  0  0  0  0  0  0  0  0  0  0
   34.9550   20.0920   33.6250 H   0  0  0  0  0  0  0  0  0  0  0  0
   35.0460   20.2580   36.1390 H   0  0  0  0  0  0  0  0  0  0  0  0
   36.6700   21.3840   31.9470 C   0  0  0  0  0  0  0  0  0  0  0  0
   35.4860   21.0680   31.1880 C   0  0  0  0  0  0  0  0  0  0  0  0
   35.8550   22.5270   31.3390 C   0  0  0  0  0  0  0  0  0  0  0  0
   37.6770   21.2230   31.5120 H   0  0  0  0  0  0  0  0  0  0  0  0
   34.5440   20.8270   31.7620 H   0  0  0  0  0  0  0  0  0  0  0  0
   35.5200   20.5750   30.2150 H   0  0  0  0  0  0  0  0  0  0  0  0
   36.3140   22.9740   30.4360 H   0  0  0  0  0  0  0  0  0  0  0  0
   35.3040   23.1810   32.0130 H   0  0  0  0  0  0  0  0  0  0  0  0
   38.6640   23.0460   36.0610 C   0  0  0  0  0  0  0  0  0  0  0  0
   38.4360   24.1170   36.0200 H   0  0  0  0  0  0  0  0  0  0  0  0
   39.6490   22.9090   35.6210 H   0  0  0  0  0  0  0  0  0  0  0  0
   38.5840   22.9300   39.5360 H   0  0  0  0  0  0  0  0  0  0  0  0
   38.4570   23.3900   38.5520 C   0  0  0  0  0  0  0  0  0  0  0  0
   38.0410   24.5840   38.4530 O   0  0  0  0  0  0  0  0  0  0  0  0
   38.7810   22.5760   37.4440 N   0  0  0  0  0  0  0  0  0  0  0  0
   39.1250   21.5840   37.5690 H   0  0  0  0  0  0  0  0  0  0  0  0
  1  6  2  0  0  0  0
  1  2  1  0  0  0  0
  2  3  2  0  0  0  0
  3  4  1  0  0  0  0
  3  8  1  0  0  0  0
  5 17  1  0  0  0  0
  5  4  2  0  0  0  0
  6  5  1  0  0  0  0
  7  2  1  0  0  0  0
  9  1  1  0  0  0  0
 10 11  1  0  0  0  0
 10 13  1  0  0  0  0
 10  9  1  0  0  0  0
 11  9  1  0  0  0  0
 11 16  1  0  0  0  0
 12  9  1  0  0  0  0
 14 10  1  0  0  0  0
 15 11  1  0  0  0  0
 17 23  1  0  0  0  0
 18 17  1  0  0  0  0
 19 17  1  0  0  0  0
 21 20  1  0  0  0  0
 22 21  2  0  0  0  0
 23 24  1  0  0  0  0
 23 21  1  0  0  0  0
M  END
>  <minimizedAffinity>
-4.08096981

$$$$

 OpenBabel03272510303D

 24 25  0  0  0  0  0  0  0  0999 V2000
   39.8020   25.7950   34.9450 C   0  0  0  0  0  0  0  0  0  0  0  0
   41.1590   25.9540   34.6700 C   0  0  0  0  0  0  0  0  0  0  0  0
   41.9680   24.8890   35.0380 C   0  0  0  0  0  0  0  0  0  0  0  0
   41.4290   23.7860   35.6240 N   0  0  0  0  0  0  0  0  0  0  0  0
   40.0970   23.6710   35.8750 C   0  0  0  0  0  0  0  0  0  0  0  0
   39.2750   24.7090   35.5210 N   0  0  0  0  0  0  0  0  0  0  0  0
   41.5790   26.8350   34.2030 H   0  0  0  0  0  0  0  0  0  0  0  0
   43.0330   24.8900   34.8800 H   0  0  0  0  0  0  0  0  0  0  0  0
   38.8750   26.9090   34.5390 C   0  0  0  0  0  0  0  0  0  0  0  0
   37.4440   26.8260   34.6930 C   0  0  0  0  0  0  0  0  0  0  0  0
   38.2190   27.5970   35.7370 C   0  0  0  0  0  0  0  0  0  0  0  0
   39.3210   27.5810   33.7790 H   0  0  0  0  0  0  0  0  0  0  0  0
   37.0170   25.8750   35.1260 H   0  0  0  0  0  0  0  0  0  0  0  0
   36.7460   27.3300   34.0220 H   0  0  0  0  0  0  0  0  0  0  0  0
   38.1450   28.6990   35.6370 H   0  0  0  0  0  0  0  0  0  0  0  0
   38.3960   27.1830   36.7290 H   0  0  0  0  0  0  0  0  0  0  0  0
   39.4920   22.4990   36.4970 C   0  0  0  0  0  0  0  0  0  0  0  0
   39.9030   21.5570   36.1160 H   0  0  0  0  0  0  0  0  0  0  0  0
   38.4130   22.4570   36.3650 H   0  0  0  0  0  0  0  0  0  0  0  0
   39.0550   23.3230   39.8470 H   0  0  0  0  0  0  0  0  0  0  0  0
   38.7860   23.2850   38.7880 C   0  0  0  0  0  0  0  0  0  0  0  0
   37.7020   23.8060   38.3840 O   0  0  0  0  0  0  0  0  0  0  0  0
   39.7080   22.6330   37.9400 N   0  0  0  0  0  0  0  0  0  0  0  0
   40.6010   22.2110   38.3160 H   0  0  0  0  0  0  0  0  0  0  0  0
  1  6  1  0  0  0  0
  2  1  2  0  0  0  0
  2  3  1  0  0  0  0
  3  4  2  0  0  0  0
  4  5  1  0  0  0  0
  5 17  1  0  0  0  0
  6  5  2  0  0  0  0
  7  2  1  0  0  0  0
  8  3  1  0  0  0  0
  9 10  1  0  0  0  0
  9  1  1  0  0  0  0
  9 11  1  0  0  0  0
 10 13  1  0  0  0  0
 10 11  1  0  0  0  0
 11 16  1  0  0  0  0
 12  9  1  0  0  0  0
 14 10  1  0  0  0  0
 15 11  1  0  0  0  0
 17 23  1  0  0  0  0
 18 17  1  0  0  0  0
 19 17  1  0  0  0  0
 21 20  1  0  0  0  0
 22 21  2  0  0  0  0
 23 24  1  0  0  0  0
 23 21  1  0  0  0  0
M  END
>  <minimizedAffinity>
-3.99151421

$$$$

 OpenBabel03272510303D

 24 25  0  0  0  0  0  0  0  0999 V2000
   35.8830   21.9050   31.7830 C   0  0  0  0  0  0  0  0  0  0  0  0
   37.1820   21.6560   31.3400 C   0  0  0  0  0  0  0  0  0  0  0  0
   37.8290   22.7390   30.7630 C   0  0  0  0  0  0  0  0  0  0  0  0
   37.2000   23.9410   30.6580 N   0  0  0  0  0  0  0  0  0  0  0  0
   35.9310   24.1410   31.1040 C   0  0  0  0  0  0  0  0  0  0  0  0
   35.2680   23.0880   31.6780 N   0  0  0  0  0  0  0  0  0  0  0  0
   37.6730   20.6970   31.4280 H   0  0  0  0  0  0  0  0  0  0  0  0
   38.8340   22.6760   30.3810 H   0  0  0  0  0  0  0  0  0  0  0  0
   35.1450   20.7720   32.4440 C   0  0  0  0  0  0  0  0  0  0  0  0
   35.7900   19.5410   32.8280 C   0  0  0  0  0  0  0  0  0  0  0  0
   35.5500   20.5760   33.9050 C   0  0  0  0  0  0  0  0  0  0  0  0
   34.0550   20.7970   32.2420 H   0  0  0  0  0  0  0  0  0  0  0  0
   36.8930   19.4350   32.6070 H   0  0  0  0  0  0  0  0  0  0  0  0
   35.2730   18.5810   32.8430 H   0  0  0  0  0  0  0  0  0  0  0  0
   34.7020   20.3410   34.5780 H   0  0  0  0  0  0  0  0  0  0  0  0
   36.3660   21.1800   34.2990 H   0  0  0  0  0  0  0  0  0  0  0  0
   35.2350   25.4190   31.0080 C   0  0  0  0  0  0  0  0  0  0  0  0
   34.8400   25.7600   31.9720 H   0  0  0  0  0  0  0  0  0  0  0  0
   34.4030   25.3990   30.3080 H   0  0  0  0  0  0  0  0  0  0  0  0
   37.0550   28.3270   30.4350 H   0  0  0  0  0  0  0  0  0  0  0  0
   36.3030   27.7030   30.9270 C   0  0  0  0  0  0  0  0  0  0  0  0
   35.5910   28.1780   31.8630 O   0  0  0  0  0  0  0  0  0  0  0  0
   36.1940   26.3770   30.4530 N   0  0  0  0  0  0  0  0  0  0  0  0
   36.8070   26.0190   29.6700 H   0  0  0  0  0  0  0  0  0  0  0  0
  1  9  1  0  0  0  0
  2  7  1  0  0  0  0
  2  1  2  0  0  0  0
  3  2  1  0  0  0  0
  4  3  2  0  0  0  0
  4  5  1  0  0  0  0
  5  6  2  0  0  0  0
  6  1  1  0  0  0  0
  8  3  1  0  0  0  0
  9 10  1  0  0  0  0
  9 11  1  0  0  0  0
 10 14  1  0  0  0  0
 10 11  1  0  0  0  0
 11 16  1  0  0  0  0
 11 15  1  0  0  0  0
 12  9  1  0  0  0  0
 13 10  1  0  0  0  0
 17  5  1  0  0  0  0
 17 18  1  0  0  0  0
 19 17  1  0  0  0  0
 20 21  1  0  0  0  0
 21 22  2  0  0  0  0
 23 21  1  0  0  0  0
 23 17  1  0  0  0  0
 24 23  1  0  0  0  0
M  END
>  <minimizedAffinity>
-3.91164446

$$$$

 OpenBabel03272510303D

 24 25  0  0  0  0  0  0  0  0999 V2000
   37.0340   27.5750   34.3820 C   0  0  0  0  0  0  0  0  0  0  0  0
   36.1990   28.6810   34.5380 C   0  0  0  0  0  0  0  0  0  0  0  0
   35.5570   29.1060   33.3840 C   0  0  0  0  0  0  0  0  0  0  0  0
   35.7590   28.4580   32.2050 N   0  0  0  0  0  0  0  0  0  0  0  0
   36.5840   27.3810   32.0970 C   0  0  0  0  0  0  0  0  0  0  0  0
   37.2300   26.9400   33.2210 N   0  0  0  0  0  0  0  0  0  0  0  0
   36.0450   29.1890   35.4790 H   0  0  0  0  0  0  0  0  0  0  0  0
   34.8870   29.9480   33.3720 H   0  0  0  0  0  0  0  0  0  0  0  0
   37.7340   27.0540   35.6090 C   0  0  0  0  0  0  0  0  0  0  0  0
   38.4780   25.8190   35.6150 C   0  0  0  0  0  0  0  0  0  0  0  0
   39.2570   27.1090   35.4880 C   0  0  0  0  0  0  0  0  0  0  0  0
   37.3070   27.4590   36.5480 H   0  0  0  0  0  0  0  0  0  0  0  0
   38.5190   25.2260   34.6550 H   0  0  0  0  0  0  0  0  0  0  0  0
   38.5710   25.1890   36.5010 H   0  0  0  0  0  0  0  0  0  0  0  0
   39.7700   27.4230   36.4190 H   0  0  0  0  0  0  0  0  0  0  0  0
   39.6870   27.4170   34.5370 H   0  0  0  0  0  0  0  0  0  0  0  0
   36.8150   26.6650   30.8480 C   0  0  0  0  0  0  0  0  0  0  0  0
   37.4800   25.8020   30.9700 H   0  0  0  0  0  0  0  0  0  0  0  0
   37.2420   27.2940   30.0700 H   0  0  0  0  0  0  0  0  0  0  0  0
   33.8830   24.8700   30.3200 H   0  0  0  0  0  0  0  0  0  0  0  0
   34.8640   25.0680   30.7620 C   0  0  0  0  0  0  0  0  0  0  0  0
   35.3690   24.2510   31.5900 O   0  0  0  0  0  0  0  0  0  0  0  0
   35.4980   26.2600   30.3480 N   0  0  0  0  0  0  0  0  0  0  0  0
   35.0440   26.9150   29.6550 H   0  0  0  0  0  0  0  0  0  0  0  0
  1  2  1  0  0  0  0
  1  9  1  0  0  0  0
  2  7  1  0  0  0  0
  3  2  2  0  0  0  0
  4  3  1  0  0  0  0
  5  4  2  0  0  0  0
  5  6  1  0  0  0  0
  6  1  2  0  0  0  0
  8  3  1  0  0  0  0
  9 10  1  0  0  0  0
  9 12  1  0  0  0  0
 10 14  1  0  0  0  0
 11  9  1  0  0  0  0
 11 10  1  0  0  0  0
 11 15  1  0  0  0  0
 13 10  1  0  0  0  0
 16 11  1  0  0  0  0
 17 18  1  0  0  0  0
 17  5  1  0  0  0  0
 19 17  1  0  0  0  0
 20 21  1  0  0  0  0
 21 22  2  0  0  0  0
 23 21  1  0  0  0  0
 23 17  1  0  0  0  0
 24 23  1  0  0  0  0
M  END
>  <minimizedAffinity>
-3.90312672

$$$$

 OpenBabel03272510303D

 24 25  0  0  0  0  0  0  0  0999 V2000
   38.0830   24.8930   35.2970 C   0  0  0  0  0  0  0  0  0  0  0  0
   37.8980   24.6080   36.6500 C   0  0  0  0  0  0  0  0  0  0  0  0
   37.7460   23.2640   36.9570 C   0  0  0  0  0  0  0  0  0  0  0  0
   37.7800   22.3240   35.9730 N   0  0  0  0  0  0  0  0  0  0  0  0
   37.9630   22.6460   34.6640 C   0  0  0  0  0  0  0  0  0  0  0  0
   38.1170   23.9660   34.3330 N   0  0  0  0  0  0  0  0  0  0  0  0
   37.8720   25.3610   37.4250 H   0  0  0  0  0  0  0  0  0  0  0  0
   37.5960   22.9140   37.9640 H   0  0  0  0  0  0  0  0  0  0  0  0
   38.2820   26.3340   34.9120 C   0  0  0  0  0  0  0  0  0  0  0  0
   38.6250   27.3560   35.8690 C   0  0  0  0  0  0  0  0  0  0  0  0
   39.7410   26.7790   35.0260 C   0  0  0  0  0  0  0  0  0  0  0  0
   37.7680   26.5980   33.9660 H   0  0  0  0  0  0  0  0  0  0  0  0
   38.7340   27.0470   36.9500 H   0  0  0  0  0  0  0  0  0  0  0  0
   38.3160   28.3960   35.7600 H   0  0  0  0  0  0  0  0  0  0  0  0
   40.0740   27.4400   34.2010 H   0  0  0  0  0  0  0  0  0  0  0  0
   40.4610   26.0790   35.4460 H   0  0  0  0  0  0  0  0  0  0  0  0
   38.0090   21.6600   33.5910 C   0  0  0  0  0  0  0  0  0  0  0  0
   38.1300   20.6350   33.9610 H   0  0  0  0  0  0  0  0  0  0  0  0
   38.8120   21.8430   32.8800 H   0  0  0  0  0  0  0  0  0  0  0  0
   34.7350   21.2670   32.4880 H   0  0  0  0  0  0  0  0  0  0  0  0
   35.6020   21.0690   33.1250 C   0  0  0  0  0  0  0  0  0  0  0  0
   35.5260   20.2170   34.0620 O   0  0  0  0  0  0  0  0  0  0  0  0
   36.7670   21.8110   32.8300 N   0  0  0  0  0  0  0  0  0  0  0  0
   36.7890   22.5130   32.0400 H   0  0  0  0  0  0  0  0  0  0  0  0
  1  2  1  0  0  0  0
  2  3  2  0  0  0  0
  2  7  1  0  0  0  0
  3  8  1  0  0  0  0
  4  3  1  0  0  0  0
  5  4  2  0  0  0  0
  6  5  1  0  0  0  0
  6  1  2  0  0  0  0
  9 11  1  0  0  0  0
  9  1  1  0  0  0  0
  9 10  1  0  0  0  0
 10 13  1  0  0  0  0
 11 16  1  0  0  0  0
 11 10  1  0  0  0  0
 12  9  1  0  0  0  0
 14 10  1  0  0  0  0
 15 11  1  0  0  0  0
 17 18  1  0  0  0  0
 17  5  1  0  0  0  0
 19 17  1  0  0  0  0
 20 21  1  0  0  0  0
 21 22  2  0  0  0  0
 23 21  1  0  0  0  0
 23 17  1  0  0  0  0
 24 23  1  0  0  0  0
M  END
>  <minimizedAffinity>
-3.88232994

$$$$

 OpenBabel03272510303D

 24 25  0  0  0  0  0  0  0  0999 V2000
   38.1550   25.3140   34.1010 C   0  0  0  0  0  0  0  0  0  0  0  0
   37.7230   24.9460   32.8280 C   0  0  0  0  0  0  0  0  0  0  0  0
   37.4730   23.5930   32.6530 C   0  0  0  0  0  0  0  0  0  0  0  0
   37.6510   22.7220   33.6840 N   0  0  0  0  0  0  0  0  0  0  0  0
   38.0740   23.1230   34.9120 C   0  0  0  0  0  0  0  0  0  0  0  0
   38.3280   24.4550   35.1120 N   0  0  0  0  0  0  0  0  0  0  0  0
   37.5840   25.6460   32.0150 H   0  0  0  0  0  0  0  0  0  0  0  0
   37.1360   23.1830   31.7170 H   0  0  0  0  0  0  0  0  0  0  0  0
   38.4130   26.7750   34.3530 C   0  0  0  0  0  0  0  0  0  0  0  0
   38.7460   27.2930   35.6570 C   0  0  0  0  0  0  0  0  0  0  0  0
   39.8780   27.0680   34.6790 C   0  0  0  0  0  0  0  0  0  0  0  0
   37.9460   27.4290   33.5900 H   0  0  0  0  0  0  0  0  0  0  0  0
   38.8000   26.5610   36.5150 H   0  0  0  0  0  0  0  0  0  0  0  0
   38.4730   28.2980   35.9820 H   0  0  0  0  0  0  0  0  0  0  0  0
   40.2650   27.9950   34.2110 H   0  0  0  0  0  0  0  0  0  0  0  0
   40.5590   26.2260   34.7890 H   0  0  0  0  0  0  0  0  0  0  0  0
   38.2690   22.2120   36.0350 C   0  0  0  0  0  0  0  0  0  0  0  0
   39.3060   22.1870   36.3860 H   0  0  0  0  0  0  0  0  0  0  0  0
   37.9810   21.1890   35.8060 H   0  0  0  0  0  0  0  0  0  0  0  0
   37.0390   23.4980   39.0230 H   0  0  0  0  0  0  0  0  0  0  0  0
   37.8140   23.2060   38.3080 C   0  0  0  0  0  0  0  0  0  0  0  0
   39.0400   23.3720   38.5910 O   0  0  0  0  0  0  0  0  0  0  0  0
   37.3550   22.6520   37.0930 N   0  0  0  0  0  0  0  0  0  0  0  0
   36.3250   22.5300   36.8960 H   0  0  0  0  0  0  0  0  0  0  0  0
  1  9  1  0  0  0  0
  1  6  1  0  0  0  0
  2  1  2  0  0  0  0
  3  2  1  0  0  0  0
  3  4  2  0  0  0  0
  4  5  1  0  0  0  0
  5  6  2  0  0  0  0
  5 17  1  0  0  0  0
  7  2  1  0  0  0  0
  8  3  1  0  0  0  0
  9 11  1  0  0  0  0
  9 10  1  0  0  0  0
 10 14  1  0  0  0  0
 10 13  1  0  0  0  0
 11 16  1  0  0  0  0
 11 10  1  0  0  0  0
 12  9  1  0  0  0  0
 15 11  1  0  0  0  0
 17 18  1  0  0  0  0
 17 23  1  0  0  0  0
 19 17  1  0  0  0  0
 21 22  2  0  0  0  0
 21 20  1  0  0  0  0
 23 21  1  0  0  0  0
 24 23  1  0  0  0  0
M  END
>  <minimizedAffinity>
-3.83152676

$$$$

 OpenBabel03272510303D

 24 25  0  0  0  0  0  0  0  0999 V2000
   37.0800   27.1570   33.9720 C   0  0  0  0  0  0  0  0  0  0  0  0
   36.4690   28.2540   33.3660 C   0  0  0  0  0  0  0  0  0  0  0  0
   35.8700   27.9980   32.1410 C   0  0  0  0  0  0  0  0  0  0  0  0
   35.9020   26.7470   31.6080 N   0  0  0  0  0  0  0  0  0  0  0  0
   36.5100   25.7030   32.2330 C   0  0  0  0  0  0  0  0  0  0  0  0
   37.1090   25.9280   33.4440 N   0  0  0  0  0  0  0  0  0  0  0  0
   36.4490   29.2450   33.7990 H   0  0  0  0  0  0  0  0  0  0  0  0
   35.3670   28.7610   31.5730 H   0  0  0  0  0  0  0  0  0  0  0  0
   37.7200   27.3720   35.3170 C   0  0  0  0  0  0  0  0  0  0  0  0
   38.2750   26.2930   36.0970 C   0  0  0  0  0  0  0  0  0  0  0  0
   39.2330   27.1460   35.2940 C   0  0  0  0  0  0  0  0  0  0  0  0
   37.3770   28.3040   35.8090 H   0  0  0  0  0  0  0  0  0  0  0  0
   38.2080   25.2490   35.6710 H   0  0  0  0  0  0  0  0  0  0  0  0
   38.2930   26.3000   37.1870 H   0  0  0  0  0  0  0  0  0  0  0  0
   39.8050   27.8770   35.8980 H   0  0  0  0  0  0  0  0  0  0  0  0
   39.6830   26.7750   34.3750 H   0  0  0  0  0  0  0  0  0  0  0  0
   36.5550   24.3520   31.6860 C   0  0  0  0  0  0  0  0  0  0  0  0
   35.5640   23.8860   31.6230 H   0  0  0  0  0  0  0  0  0  0  0  0
   37.1900   23.6810   32.2610 H   0  0  0  0  0  0  0  0  0  0  0  0
   38.9130   24.3150   29.1300 H   0  0  0  0  0  0  0  0  0  0  0  0
   38.5570   24.2060   30.1590 C   0  0  0  0  0  0  0  0  0  0  0  0
   39.3620   23.8750   31.0820 O   0  0  0  0  0  0  0  0  0  0  0  0
   37.1820   24.4550   30.3660 N   0  0  0  0  0  0  0  0  0  0  0  0
   36.5440   24.7300   29.5700 H   0  0  0  0  0  0  0  0  0  0  0  0
  1  9  1  0  0  0  0
  2  7  1  0  0  0  0
  2  1  2  0  0  0  0
  3  2  1  0  0  0  0
  4  3  2  0  0  0  0
  4  5  1  0  0  0  0
  5  6  2  0  0  0  0
  6  1  1  0  0  0  0
  8  3  1  0  0  0  0
  9 12  1  0  0  0  0
  9 10  1  0  0  0  0
 10 14  1  0  0  0  0
 11  9  1  0  0  0  0
 11 15  1  0  0  0  0
 11 10  1  0  0  0  0
 13 10  1  0  0  0  0
 16 11  1  0  0  0  0
 17  5  1  0  0  0  0
 17 19  1  0  0  0  0
 18 17  1  0  0  0  0
 20 21  1  0  0  0  0
 21 23  1  0  0  0  0
 21 22  2  0  0  0  0
 23 17  1  0  0  0  0
 24 23  1  0  0  0  0
M  END
>  <minimizedAffinity>
-3.75489283

$$$$

 OpenBabel03272510303D

 24 25  0  0  0  0  0  0  0  0999 V2000
   38.2400   25.2330   35.5500 C   0  0  0  0  0  0  0  0  0  0  0  0
   38.3400   26.4300   36.2570 C   0  0  0  0  0  0  0  0  0  0  0  0
   37.9390   27.5640   35.5660 C   0  0  0  0  0  0  0  0  0  0  0  0
   37.4850   27.4650   34.2870 N   0  0  0  0  0  0  0  0  0  0  0  0
   37.4030   26.2760   33.6320 C   0  0  0  0  0  0  0  0  0  0  0  0
   37.7930   25.1400   34.2920 N   0  0  0  0  0  0  0  0  0  0  0  0
   38.7020   26.4990   37.2740 H   0  0  0  0  0  0  0  0  0  0  0  0
   37.9690   28.5480   36.0010 H   0  0  0  0  0  0  0  0  0  0  0  0
   38.6350   23.9690   36.2630 C   0  0  0  0  0  0  0  0  0  0  0  0
   38.5450   23.8210   37.6940 C   0  0  0  0  0  0  0  0  0  0  0  0
   37.4370   23.2240   36.8540 C   0  0  0  0  0  0  0  0  0  0  0  0
   39.3480   23.3530   35.6770 H   0  0  0  0  0  0  0  0  0  0  0  0
   38.1700   24.7040   38.2900 H   0  0  0  0  0  0  0  0  0  0  0  0
   39.2220   23.1860   38.2680 H   0  0  0  0  0  0  0  0  0  0  0  0
   37.4940   22.1230   36.7440 H   0  0  0  0  0  0  0  0  0  0  0  0
   36.4580   23.6960   36.7940 H   0  0  0  0  0  0  0  0  0  0  0  0
   36.9170   26.1410   32.2640 C   0  0  0  0  0  0  0  0  0  0  0  0
   37.6700   26.4170   31.5170 H   0  0  0  0  0  0  0  0  0  0  0  0
   36.0310   26.7410   32.0660 H   0  0  0  0  0  0  0  0  0  0  0  0
   35.1800   23.3050   31.2460 H   0  0  0  0  0  0  0  0  0  0  0  0
   35.4050   24.3750   31.2840 C   0  0  0  0  0  0  0  0  0  0  0  0
   34.7090   25.1990   30.6170 O   0  0  0  0  0  0  0  0  0  0  0  0
   36.4920   24.7480   32.1070 N   0  0  0  0  0  0  0  0  0  0  0  0
   37.0470   24.0290   32.6470 H   0  0  0  0  0  0  0  0  0  0  0  0
  1  2  1  0  0  0  0
  1  9  1  0  0  0  0
  2  7  1  0  0  0  0
  3  8  1  0  0  0  0
  3  2  2  0  0  0  0
  4  3  1  0  0  0  0
  5  4  2  0  0  0  0
  5  6  1  0  0  0  0
  6  1  2  0  0  0  0
  9 11  1  0  0  0  0
  9 10  1  0  0  0  0
 10 14  1  0  0  0  0
 10 13  1  0  0  0  0
 11 10  1  0  0  0  0
 12  9  1  0  0  0  0
 15 11  1  0  0  0  0
 16 11  1  0  0  0  0
 17  5  1  0  0  0  0
 18 17  1  0  0  0  0
 19 17  1  0  0  0  0
 20 21  1  0  0  0  0
 21 23  1  0  0  0  0
 22 21  2  0  0  0  0
 23 17  1  0  0  0  0
 23 24  1  0  0  0  0
M  END
>  <minimizedAffinity>
-3.73628831

$$$$
