
 OpenBabel03272510323D

 24 25  0  0  0  0  0  0  0  0999 V2000
   36.1240   30.3950   48.8420 C   0  0  0  0  0  0  0  0  0  0  0  0
   35.4490   29.9700   47.7380 C   0  0  0  0  0  0  0  0  0  0  0  0
   34.4450   29.0280   47.8040 C   0  0  0  0  0  0  0  0  0  0  0  0
   34.1320   28.5120   49.0560 C   0  0  0  0  0  0  0  0  0  0  0  0
   34.7920   28.9170   50.1960 C   0  0  0  0  0  0  0  0  0  0  0  0
   35.7950   29.8660   50.0810 C   0  0  0  0  0  0  0  0  0  0  0  0
   35.6880   30.3700   46.7480 H   0  0  0  0  0  0  0  0  0  0  0  0
   33.8840   28.6630   46.9540 H   0  0  0  0  0  0  0  0  0  0  0  0
   33.3550   27.7670   49.1980 H   0  0  0  0  0  0  0  0  0  0  0  0
   34.5570   28.5190   51.1870 H   0  0  0  0  0  0  0  0  0  0  0  0
   38.0960   33.4000   49.3810 C   0  0  0  0  0  0  0  0  0  0  0  0
   39.0970   33.3370   48.4140 C   0  0  0  0  0  0  0  0  0  0  0  0
   39.0860   32.2100   47.5420 C   0  0  0  0  0  0  0  0  0  0  0  0
   38.1150   31.2930   47.7160 N   0  0  0  0  0  0  0  0  0  0  0  0
   37.1660   31.3920   48.6640 C   0  0  0  0  0  0  0  0  0  0  0  0
   37.1590   32.4540   49.5020 N   0  0  0  0  0  0  0  0  0  0  0  0
   38.0920   34.2580   50.0560 H   0  0  0  0  0  0  0  0  0  0  0  0
   39.8520   34.1180   48.3320 H   0  0  0  0  0  0  0  0  0  0  0  0
   39.8560   32.1460   46.7850 H   0  0  0  0  0  0  0  0  0  0  0  0
   38.3080   29.4970   52.3220 H   0  0  0  0  0  0  0  0  0  0  0  0
   37.5840   29.4260   51.5070 C   0  0  0  0  0  0  0  0  0  0  0  0
   37.7510   28.4370   50.7370 O   0  0  0  0  0  0  0  0  0  0  0  0
   36.4980   30.3090   51.2300 N   0  0  0  0  0  0  0  0  0  0  0  0
   36.3910   31.1130   51.8860 H   0  0  0  0  0  0  0  0  0  0  0  0
  1  6  1  0  0  0  0
  2  3  1  0  0  0  0
  2  1  2  0  0  0  0
  3  4  2  0  0  0  0
  4  9  1  0  0  0  0
  4  5  1  0  0  0  0
  5 10  1  0  0  0  0
  6  5  2  0  0  0  0
  6 23  1  0  0  0  0
  7  2  1  0  0  0  0
  8  3  1  0  0  0  0
 11 16  1  0  0  0  0
 11 17  1  0  0  0  0
 12 11  2  0  0  0  0
 13 14  2  0  0  0  0
 13 12  1  0  0  0  0
 14 15  1  0  0  0  0
 15  1  1  0  0  0  0
 15 16  2  0  0  0  0
 18 12  1  0  0  0  0
 19 13  1  0  0  0  0
 21 20  1  0  0  0  0
 22 21  2  0  0  0  0
 23 21  1  0  0  0  0
 23 24  1  0  0  0  0
M  END
>  <minimizedAffinity>
-4.98428392

>  <minimizedRMSD>
0.631928921

$$$$
