
 OpenBabel03272510323D

 24 25  0  0  0  0  0  0  0  0999 V2000
   37.0000   30.3580   47.6170 C   0  0  0  0  0  0  0  0  0  0  0  0
   35.8390   30.2340   46.9160 C   0  0  0  0  0  0  0  0  0  0  0  0
   34.7250   29.6090   47.4370 C   0  0  0  0  0  0  0  0  0  0  0  0
   34.8210   29.1000   48.7270 C   0  0  0  0  0  0  0  0  0  0  0  0
   35.9780   29.2060   49.4670 C   0  0  0  0  0  0  0  0  0  0  0  0
   37.0720   29.8410   48.9010 C   0  0  0  0  0  0  0  0  0  0  0  0
   35.7520   30.6320   45.9000 H   0  0  0  0  0  0  0  0  0  0  0  0
   33.7840   29.4890   46.9160 H   0  0  0  0  0  0  0  0  0  0  0  0
   33.9930   28.5940   49.2120 H   0  0  0  0  0  0  0  0  0  0  0  0
   36.0680   28.8090   50.4820 H   0  0  0  0  0  0  0  0  0  0  0  0
   39.4170   32.9550   46.8310 C   0  0  0  0  0  0  0  0  0  0  0  0
   40.2100   32.4010   45.8280 C   0  0  0  0  0  0  0  0  0  0  0  0
   39.8930   31.0750   45.4100 C   0  0  0  0  0  0  0  0  0  0  0  0
   38.8570   30.4600   46.0110 N   0  0  0  0  0  0  0  0  0  0  0  0
   38.1160   31.0330   46.9760 C   0  0  0  0  0  0  0  0  0  0  0  0
   38.4000   32.2900   47.3870 N   0  0  0  0  0  0  0  0  0  0  0  0
   39.6470   33.9700   47.1610 H   0  0  0  0  0  0  0  0  0  0  0  0
   41.0340   32.9590   45.3870 H   0  0  0  0  0  0  0  0  0  0  0  0
   40.4990   30.6300   44.6330 H   0  0  0  0  0  0  0  0  0  0  0  0
   38.9310   31.3860   51.2730 H   0  0  0  0  0  0  0  0  0  0  0  0
   38.1730   31.0390   50.5700 C   0  0  0  0  0  0  0  0  0  0  0  0
   37.0800   31.6770   50.6120 O   0  0  0  0  0  0  0  0  0  0  0  0
   38.2810   29.9710   49.6310 N   0  0  0  0  0  0  0  0  0  0  0  0
   39.1960   29.4680   49.6220 H   0  0  0  0  0  0  0  0  0  0  0  0
  1  6  1  0  0  0  0
  2  3  1  0  0  0  0
  2  1  2  0  0  0  0
  3  4  2  0  0  0  0
  4  9  1  0  0  0  0
  4  5  1  0  0  0  0
  5 10  1  0  0  0  0
  6  5  2  0  0  0  0
  6 23  1  0  0  0  0
  7  2  1  0  0  0  0
  8  3  1  0  0  0  0
 11 17  1  0  0  0  0
 11 16  1  0  0  0  0
 12 11  2  0  0  0  0
 13 12  1  0  0  0  0
 13 14  2  0  0  0  0
 14 15  1  0  0  0  0
 15 16  2  0  0  0  0
 15  1  1  0  0  0  0
 18 12  1  0  0  0  0
 19 13  1  0  0  0  0
 21 22  2  0  0  0  0
 21 20  1  0  0  0  0
 23 21  1  0  0  0  0
 24 23  1  0  0  0  0
M  END
>  <minimizedAffinity>
-5.21532393

>  <minimizedRMSD>
2.30082798

$$$$
