
 OpenBabel03272509393D

 26 27  0  0  0  0  0  0  0  0999 V2000
   38.9510   24.2560   35.3260 C   0  0  0  0  0  0  0  0  0  0  0  0
   39.7670   25.0120   34.4890 C   0  0  0  0  0  0  0  0  0  0  0  0
   39.8320   26.4050   34.5890 C   0  0  0  0  0  0  0  0  0  0  0  0
   39.0710   27.0770   35.5430 C   0  0  0  0  0  0  0  0  0  0  0  0
   38.2590   26.3060   36.3740 C   0  0  0  0  0  0  0  0  0  0  0  0
   38.2010   24.9410   36.2690 C   0  0  0  0  0  0  0  0  0  0  0  0
   40.3850   24.5570   33.7270 H   0  0  0  0  0  0  0  0  0  0  0  0
   40.4750   26.9590   33.9240 H   0  0  0  0  0  0  0  0  0  0  0  0
   39.1500   28.1340   35.5840 H   0  0  0  0  0  0  0  0  0  0  0  0
   37.6610   26.8010   37.1190 H   0  0  0  0  0  0  0  0  0  0  0  0
   37.4550   23.2260   39.1700 H   0  0  0  0  0  0  0  0  0  0  0  0
   37.9580   23.8030   38.3820 C   0  0  0  0  0  0  0  0  0  0  0  0
   38.9780   23.8180   39.1010 O   0  0  0  0  0  0  0  0  0  0  0  0
   37.3550   24.1980   37.1420 N   0  0  0  0  0  0  0  0  0  0  0  0
   36.3670   23.8650   37.0830 H   0  0  0  0  0  0  0  0  0  0  0  0
   38.9330   22.8140   35.1660 C   0  0  0  0  0  0  0  0  0  0  0  0
   40.0610   22.2600   35.3830 O   0  0  0  0  0  0  0  0  0  0  0  0
   36.5510   21.1080   33.0130 C   0  0  0  0  0  0  0  0  0  0  0  0
   35.6110   20.5950   33.8960 C   0  0  0  0  0  0  0  0  0  0  0  0
   35.7760   20.8270   35.2520 C   0  0  0  0  0  0  0  0  0  0  0  0
   36.8570   21.5510   35.6830 N   0  0  0  0  0  0  0  0  0  0  0  0
   37.7440   22.0290   34.7920 C   0  0  0  0  0  0  0  0  0  0  0  0
   37.5900   21.8080   33.4790 N   0  0  0  0  0  0  0  0  0  0  0  0
   36.3670   20.8930   31.9690 H   0  0  0  0  0  0  0  0  0  0  0  0
   34.7480   20.0180   33.5670 H   0  0  0  0  0  0  0  0  0  0  0  0
   35.0720   20.4480   35.9750 H   0  0  0  0  0  0  0  0  0  0  0  0
  1  6  1  0  0  0  0
  2  3  1  0  0  0  0
  2  1  2  0  0  0  0
  3  4  2  0  0  0  0
  4  9  1  0  0  0  0
  4  5  1  0  0  0  0
  5 10  1  0  0  0  0
  6  5  2  0  0  0  0
  6 14  1  0  0  0  0
  7  2  1  0  0  0  0
  8  3  1  0  0  0  0
 12 13  2  0  0  0  0
 12 11  1  0  0  0  0
 14 12  1  0  0  0  0
 15 14  1  0  0  0  0
 16  1  1  0  0  0  0
 16 17  2  0  0  0  0
 18 23  2  0  0  0  0
 18 19  1  0  0  0  0
 19 20  2  0  0  0  0
 20 21  1  0  0  0  0
 20 26  1  0  0  0  0
 22 16  1  0  0  0  0
 22 21  2  0  0  0  0
 23 22  1  0  0  0  0
 24 18  1  0  0  0  0
 25 19  1  0  0  0  0
M  END
>  <minimizedAffinity>
-4.96396112

$$$$

 OpenBabel03272509393D

 26 27  0  0  0  0  0  0  0  0999 V2000
   39.6610   23.3670   35.5610 C   0  0  0  0  0  0  0  0  0  0  0  0
   40.9470   23.5350   35.0560 C   0  0  0  0  0  0  0  0  0  0  0  0
   42.0740   23.0870   35.7510 C   0  0  0  0  0  0  0  0  0  0  0  0
   41.9320   22.4530   36.9830 C   0  0  0  0  0  0  0  0  0  0  0  0
   40.6380   22.2920   37.4760 C   0  0  0  0  0  0  0  0  0  0  0  0
   39.5390   22.7340   36.7890 C   0  0  0  0  0  0  0  0  0  0  0  0
   41.1310   24.0180   34.1050 H   0  0  0  0  0  0  0  0  0  0  0  0
   43.0550   23.2340   35.3300 H   0  0  0  0  0  0  0  0  0  0  0  0
   42.8130   22.1280   37.4780 H   0  0  0  0  0  0  0  0  0  0  0  0
   40.5020   21.8050   38.4260 H   0  0  0  0  0  0  0  0  0  0  0  0
   36.8670   23.5420   38.8190 H   0  0  0  0  0  0  0  0  0  0  0  0
   37.8340   23.5310   38.2980 C   0  0  0  0  0  0  0  0  0  0  0  0
   38.1380   24.5670   38.9250 O   0  0  0  0  0  0  0  0  0  0  0  0
   38.2370   22.5460   37.3350 N   0  0  0  0  0  0  0  0  0  0  0  0
   37.4870   21.8340   37.1930 H   0  0  0  0  0  0  0  0  0  0  0  0
   38.5370   23.8570   34.7870 C   0  0  0  0  0  0  0  0  0  0  0  0
   37.9370   22.9480   34.1220 O   0  0  0  0  0  0  0  0  0  0  0  0
   38.1630   27.3140   35.8520 C   0  0  0  0  0  0  0  0  0  0  0  0
   37.3910   27.8890   34.8520 C   0  0  0  0  0  0  0  0  0  0  0  0
   36.9820   27.0990   33.7910 C   0  0  0  0  0  0  0  0  0  0  0  0
   37.3480   25.7790   33.7550 N   0  0  0  0  0  0  0  0  0  0  0  0
   38.0970   25.2620   34.7450 C   0  0  0  0  0  0  0  0  0  0  0  0
   38.4970   26.0210   35.7760 N   0  0  0  0  0  0  0  0  0  0  0  0
   38.4510   27.9810   36.6530 H   0  0  0  0  0  0  0  0  0  0  0  0
   37.0940   28.9360   34.8680 H   0  0  0  0  0  0  0  0  0  0  0  0
   36.3810   27.5020   32.9910 H   0  0  0  0  0  0  0  0  0  0  0  0
  1  6  1  0  0  0  0
  2  1  2  0  0  0  0
  2  3  1  0  0  0  0
  3  4  2  0  0  0  0
  4  5  1  0  0  0  0
  4  9  1  0  0  0  0
  5 10  1  0  0  0  0
  6 14  1  0  0  0  0
  6  5  2  0  0  0  0
  7  2  1  0  0  0  0
  8  3  1  0  0  0  0
 12 11  1  0  0  0  0
 12 13  2  0  0  0  0
 14 12  1  0  0  0  0
 15 14  1  0  0  0  0
 16  1  1  0  0  0  0
 17 16  2  0  0  0  0
 18 24  1  0  0  0  0
 19 25  1  0  0  0  0
 19 18  2  0  0  0  0
 20 19  1  0  0  0  0
 21 20  2  0  0  0  0
 21 22  1  0  0  0  0
 22 16  1  0  0  0  0
 22 23  2  0  0  0  0
 23 18  1  0  0  0  0
 26 20  1  0  0  0  0
M  END
>  <minimizedAffinity>
-4.87671041

$$$$

 OpenBabel03272509393D

 26 27  0  0  0  0  0  0  0  0999 V2000
   39.3020   24.3630   35.4140 C   0  0  0  0  0  0  0  0  0  0  0  0
   40.1420   25.2210   34.7120 C   0  0  0  0  0  0  0  0  0  0  0  0
   40.0210   26.6110   34.8090 C   0  0  0  0  0  0  0  0  0  0  0  0
   39.0420   27.1740   35.6240 C   0  0  0  0  0  0  0  0  0  0  0  0
   38.2080   26.3020   36.3210 C   0  0  0  0  0  0  0  0  0  0  0  0
   38.3330   24.9420   36.2200 C   0  0  0  0  0  0  0  0  0  0  0  0
   40.9240   24.8530   34.0610 H   0  0  0  0  0  0  0  0  0  0  0  0
   40.6890   27.2460   34.2500 H   0  0  0  0  0  0  0  0  0  0  0  0
   38.9840   28.2330   35.6680 H   0  0  0  0  0  0  0  0  0  0  0  0
   37.4430   26.7130   36.9570 H   0  0  0  0  0  0  0  0  0  0  0  0
   37.3640   23.0900   38.9680 H   0  0  0  0  0  0  0  0  0  0  0  0
   37.9100   23.7350   38.2660 C   0  0  0  0  0  0  0  0  0  0  0  0
   38.8060   23.8450   39.1290 O   0  0  0  0  0  0  0  0  0  0  0  0
   37.4550   24.0920   36.9530 N   0  0  0  0  0  0  0  0  0  0  0  0
   36.5300   23.6550   36.7460 H   0  0  0  0  0  0  0  0  0  0  0  0
   39.4830   22.9310   35.2660 C   0  0  0  0  0  0  0  0  0  0  0  0
   38.5370   22.3580   34.6320 O   0  0  0  0  0  0  0  0  0  0  0  0
   42.6190   21.0910   35.2070 C   0  0  0  0  0  0  0  0  0  0  0  0
   42.8420   20.7690   36.5390 C   0  0  0  0  0  0  0  0  0  0  0  0
   41.9160   21.1780   37.4860 C   0  0  0  0  0  0  0  0  0  0  0  0
   40.8130   21.8860   37.0850 N   0  0  0  0  0  0  0  0  0  0  0  0
   40.6370   22.1760   35.7830 C   0  0  0  0  0  0  0  0  0  0  0  0
   41.5290   21.7840   34.8620 N   0  0  0  0  0  0  0  0  0  0  0  0
   43.3770   20.7450   34.5170 H   0  0  0  0  0  0  0  0  0  0  0  0
   43.7140   20.2090   36.8710 H   0  0  0  0  0  0  0  0  0  0  0  0
   42.0470   20.9520   38.5320 H   0  0  0  0  0  0  0  0  0  0  0  0
  1  6  1  0  0  0  0
  2  3  1  0  0  0  0
  2  1  2  0  0  0  0
  3  4  2  0  0  0  0
  4  9  1  0  0  0  0
  4  5  1  0  0  0  0
  5 10  1  0  0  0  0
  6  5  2  0  0  0  0
  6 14  1  0  0  0  0
  7  2  1  0  0  0  0
  8  3  1  0  0  0  0
 12 11  1  0  0  0  0
 12 13  2  0  0  0  0
 14 12  1  0  0  0  0
 15 14  1  0  0  0  0
 16  1  1  0  0  0  0
 16 22  1  0  0  0  0
 17 16  2  0  0  0  0
 18 19  1  0  0  0  0
 19 25  1  0  0  0  0
 19 20  2  0  0  0  0
 20 26  1  0  0  0  0
 21 20  1  0  0  0  0
 22 21  2  0  0  0  0
 23 18  2  0  0  0  0
 23 22  1  0  0  0  0
 24 18  1  0  0  0  0
M  END
>  <minimizedAffinity>
-4.73739767

$$$$

 OpenBabel03272509393D

 26 27  0  0  0  0  0  0  0  0999 V2000
   38.9030   24.4350   35.8860 C   0  0  0  0  0  0  0  0  0  0  0  0
   38.1050   25.4380   36.4280 C   0  0  0  0  0  0  0  0  0  0  0  0
   38.3150   26.7870   36.1290 C   0  0  0  0  0  0  0  0  0  0  0  0
   39.3440   27.1630   35.2680 C   0  0  0  0  0  0  0  0  0  0  0  0
   40.1350   26.1470   34.7330 C   0  0  0  0  0  0  0  0  0  0  0  0
   39.9220   24.8270   35.0320 C   0  0  0  0  0  0  0  0  0  0  0  0
   37.2870   25.2190   37.1030 H   0  0  0  0  0  0  0  0  0  0  0  0
   37.6770   27.5380   36.5670 H   0  0  0  0  0  0  0  0  0  0  0  0
   39.4700   28.1970   35.0680 H   0  0  0  0  0  0  0  0  0  0  0  0
   40.9370   26.4110   34.0660 H   0  0  0  0  0  0  0  0  0  0  0  0
   42.8360   23.0010   34.7330 H   0  0  0  0  0  0  0  0  0  0  0  0
   42.0620   23.7150   35.0480 C   0  0  0  0  0  0  0  0  0  0  0  0
   42.8610   24.1380   35.9090 O   0  0  0  0  0  0  0  0  0  0  0  0
   40.7580   23.8260   34.4600 N   0  0  0  0  0  0  0  0  0  0  0  0
   40.6370   23.1350   33.6870 H   0  0  0  0  0  0  0  0  0  0  0  0
   38.6280   23.0560   36.2400 C   0  0  0  0  0  0  0  0  0  0  0  0
   39.3680   22.6100   37.1790 O   0  0  0  0  0  0  0  0  0  0  0  0
   36.8470   21.3280   33.5820 C   0  0  0  0  0  0  0  0  0  0  0  0
   35.7970   20.7000   34.2380 C   0  0  0  0  0  0  0  0  0  0  0  0
   35.6790   20.8590   35.6090 C   0  0  0  0  0  0  0  0  0  0  0  0
   36.5960   21.6260   36.2780 N   0  0  0  0  0  0  0  0  0  0  0  0
   37.5990   22.2170   35.6030 C   0  0  0  0  0  0  0  0  0  0  0  0
   37.7190   22.0670   34.2760 N   0  0  0  0  0  0  0  0  0  0  0  0
   36.8860   21.1650   32.5130 H   0  0  0  0  0  0  0  0  0  0  0  0
   35.0620   20.0870   33.7190 H   0  0  0  0  0  0  0  0  0  0  0  0
   34.8800   20.3900   36.1610 H   0  0  0  0  0  0  0  0  0  0  0  0
  1 16  1  0  0  0  0
  1  2  1  0  0  0  0
  2  7  1  0  0  0  0
  3  2  2  0  0  0  0
  3  8  1  0  0  0  0
  4  3  1  0  0  0  0
  5  6  1  0  0  0  0
  5  4  2  0  0  0  0
  6  1  2  0  0  0  0
  9  4  1  0  0  0  0
 10  5  1  0  0  0  0
 11 12  1  0  0  0  0
 12 13  2  0  0  0  0
 14  6  1  0  0  0  0
 14 12  1  0  0  0  0
 15 14  1  0  0  0  0
 16 17  2  0  0  0  0
 18 19  2  0  0  0  0
 18 23  1  0  0  0  0
 19 20  1  0  0  0  0
 20 26  1  0  0  0  0
 20 21  2  0  0  0  0
 22 16  1  0  0  0  0
 22 21  1  0  0  0  0
 23 22  2  0  0  0  0
 24 18  1  0  0  0  0
 25 19  1  0  0  0  0
M  END
>  <minimizedAffinity>
-4.67555761

$$$$

 OpenBabel03272509393D

 26 27  0  0  0  0  0  0  0  0999 V2000
   39.6060   23.3860   35.5890 C   0  0  0  0  0  0  0  0  0  0  0  0
   40.8960   23.5020   35.0780 C   0  0  0  0  0  0  0  0  0  0  0  0
   42.0080   23.0210   35.7730 C   0  0  0  0  0  0  0  0  0  0  0  0
   41.8490   22.4050   37.0120 C   0  0  0  0  0  0  0  0  0  0  0  0
   40.5520   22.2950   37.5110 C   0  0  0  0  0  0  0  0  0  0  0  0
   39.4670   22.7700   36.8230 C   0  0  0  0  0  0  0  0  0  0  0  0
   41.0930   23.9690   34.1210 H   0  0  0  0  0  0  0  0  0  0  0  0
   42.9930   23.1290   35.3460 H   0  0  0  0  0  0  0  0  0  0  0  0
   42.7200   22.0540   37.5070 H   0  0  0  0  0  0  0  0  0  0  0  0
   40.4030   21.8230   38.4670 H   0  0  0  0  0  0  0  0  0  0  0  0
   36.8390   23.6870   38.8650 H   0  0  0  0  0  0  0  0  0  0  0  0
   37.8020   23.6360   38.3390 C   0  0  0  0  0  0  0  0  0  0  0  0
   38.1500   24.6610   38.9620 O   0  0  0  0  0  0  0  0  0  0  0  0
   38.1610   22.6340   37.3770 N   0  0  0  0  0  0  0  0  0  0  0  0
   37.3830   21.9520   37.2390 H   0  0  0  0  0  0  0  0  0  0  0  0
   38.4980   23.9080   34.8140 C   0  0  0  0  0  0  0  0  0  0  0  0
   38.1870   25.1100   35.1080 O   0  0  0  0  0  0  0  0  0  0  0  0
   36.7260   21.1350   33.2670 C   0  0  0  0  0  0  0  0  0  0  0  0
   36.4200   21.6020   31.9950 C   0  0  0  0  0  0  0  0  0  0  0  0
   36.8190   22.8810   31.6440 C   0  0  0  0  0  0  0  0  0  0  0  0
   37.4990   23.6470   32.5540 N   0  0  0  0  0  0  0  0  0  0  0  0
   37.7740   23.1550   33.7750 C   0  0  0  0  0  0  0  0  0  0  0  0
   37.3910   21.9180   34.1220 N   0  0  0  0  0  0  0  0  0  0  0  0
   36.3870   20.1300   33.4810 H   0  0  0  0  0  0  0  0  0  0  0  0
   35.8800   21.0040   31.2630 H   0  0  0  0  0  0  0  0  0  0  0  0
   36.6040   23.2860   30.6680 H   0  0  0  0  0  0  0  0  0  0  0  0
  1  6  1  0  0  0  0
  2  1  2  0  0  0  0
  2  3  1  0  0  0  0
  3  4  2  0  0  0  0
  4  9  1  0  0  0  0
  4  5  1  0  0  0  0
  5 10  1  0  0  0  0
  6 14  1  0  0  0  0
  6  5  2  0  0  0  0
  7  2  1  0  0  0  0
  8  3  1  0  0  0  0
 12 11  1  0  0  0  0
 12 13  2  0  0  0  0
 14 12  1  0  0  0  0
 15 14  1  0  0  0  0
 16 17  2  0  0  0  0
 16  1  1  0  0  0  0
 18 24  1  0  0  0  0
 18 23  1  0  0  0  0
 19 18  2  0  0  0  0
 20 19  1  0  0  0  0
 20 21  2  0  0  0  0
 21 22  1  0  0  0  0
 22 23  2  0  0  0  0
 22 16  1  0  0  0  0
 25 19  1  0  0  0  0
 26 20  1  0  0  0  0
M  END
>  <minimizedAffinity>
-4.56802607

$$$$

 OpenBabel03272509393D

 26 27  0  0  0  0  0  0  0  0999 V2000
   38.9370   24.0290   35.8800 C   0  0  0  0  0  0  0  0  0  0  0  0
   37.9790   24.6030   36.7100 C   0  0  0  0  0  0  0  0  0  0  0  0
   37.9030   24.2920   38.0710 C   0  0  0  0  0  0  0  0  0  0  0  0
   38.7990   23.3860   38.6350 C   0  0  0  0  0  0  0  0  0  0  0  0
   39.7530   22.8190   37.7920 C   0  0  0  0  0  0  0  0  0  0  0  0
   39.8210   23.1300   36.4590 C   0  0  0  0  0  0  0  0  0  0  0  0
   37.2520   25.3140   36.3400 H   0  0  0  0  0  0  0  0  0  0  0  0
   37.1470   24.7560   38.6840 H   0  0  0  0  0  0  0  0  0  0  0  0
   38.7060   23.1780   39.6710 H   0  0  0  0  0  0  0  0  0  0  0  0
   40.4560   22.1170   38.2030 H   0  0  0  0  0  0  0  0  0  0  0  0
   43.0490   22.5800   35.3680 H   0  0  0  0  0  0  0  0  0  0  0  0
   42.1610   22.9420   35.9030 C   0  0  0  0  0  0  0  0  0  0  0  0
   42.9170   23.6620   36.5870 O   0  0  0  0  0  0  0  0  0  0  0  0
   40.8140   22.5230   35.6390 N   0  0  0  0  0  0  0  0  0  0  0  0
   40.7860   21.8220   34.8650 H   0  0  0  0  0  0  0  0  0  0  0  0
   38.9580   24.3970   34.4780 C   0  0  0  0  0  0  0  0  0  0  0  0
   39.9670   25.1040   34.1490 O   0  0  0  0  0  0  0  0  0  0  0  0
   36.4270   24.8000   31.8990 C   0  0  0  0  0  0  0  0  0  0  0  0
   36.0140   23.5020   31.6310 C   0  0  0  0  0  0  0  0  0  0  0  0
   36.5970   22.4610   32.3350 C   0  0  0  0  0  0  0  0  0  0  0  0
   37.5610   22.7370   33.2690 N   0  0  0  0  0  0  0  0  0  0  0  0
   37.9310   24.0100   33.4960 C   0  0  0  0  0  0  0  0  0  0  0  0
   37.3710   25.0230   32.8180 N   0  0  0  0  0  0  0  0  0  0  0  0
   35.9350   25.5680   31.3170 H   0  0  0  0  0  0  0  0  0  0  0  0
   35.2490   23.2680   30.8920 H   0  0  0  0  0  0  0  0  0  0  0  0
   36.3080   21.4360   32.1610 H   0  0  0  0  0  0  0  0  0  0  0  0
  1  6  2  0  0  0  0
  1  2  1  0  0  0  0
  2  3  2  0  0  0  0
  3  4  1  0  0  0  0
  3  8  1  0  0  0  0
  4  9  1  0  0  0  0
  5 10  1  0  0  0  0
  5  4  2  0  0  0  0
  6  5  1  0  0  0  0
  7  2  1  0  0  0  0
 11 12  1  0  0  0  0
 12 13  2  0  0  0  0
 14 12  1  0  0  0  0
 14  6  1  0  0  0  0
 15 14  1  0  0  0  0
 16  1  1  0  0  0  0
 17 16  2  0  0  0  0
 18 23  1  0  0  0  0
 19 18  2  0  0  0  0
 19 20  1  0  0  0  0
 20 21  2  0  0  0  0
 21 22  1  0  0  0  0
 22 16  1  0  0  0  0
 23 22  2  0  0  0  0
 24 18  1  0  0  0  0
 25 19  1  0  0  0  0
 26 20  1  0  0  0  0
M  END
>  <minimizedAffinity>
-4.54961443

$$$$

 OpenBabel03272509393D

 26 27  0  0  0  0  0  0  0  0999 V2000
   38.9280   23.6920   35.6240 C   0  0  0  0  0  0  0  0  0  0  0  0
   39.6880   22.7440   36.3030 C   0  0  0  0  0  0  0  0  0  0  0  0
   39.6600   22.6410   37.6970 C   0  0  0  0  0  0  0  0  0  0  0  0
   38.8590   23.4970   38.4480 C   0  0  0  0  0  0  0  0  0  0  0  0
   38.1040   24.4410   37.7550 C   0  0  0  0  0  0  0  0  0  0  0  0
   38.1360   24.5360   36.3880 C   0  0  0  0  0  0  0  0  0  0  0  0
   40.3320   22.0460   35.7830 H   0  0  0  0  0  0  0  0  0  0  0  0
   40.2620   21.8940   38.1890 H   0  0  0  0  0  0  0  0  0  0  0  0
   38.8680   23.3860   39.5030 H   0  0  0  0  0  0  0  0  0  0  0  0
   37.4770   25.1150   38.3120 H   0  0  0  0  0  0  0  0  0  0  0  0
   37.5010   27.6800   35.1130 H   0  0  0  0  0  0  0  0  0  0  0  0
   37.9630   26.8070   35.5940 C   0  0  0  0  0  0  0  0  0  0  0  0
   38.9670   27.5140   35.8180 O   0  0  0  0  0  0  0  0  0  0  0  0
   37.3460   25.5180   35.7260 N   0  0  0  0  0  0  0  0  0  0  0  0
   36.3910   25.5160   35.3030 H   0  0  0  0  0  0  0  0  0  0  0  0
   39.0050   23.7430   34.1770 C   0  0  0  0  0  0  0  0  0  0  0  0
   40.1510   24.0900   33.7370 O   0  0  0  0  0  0  0  0  0  0  0  0
   36.3090   24.3320   31.8090 C   0  0  0  0  0  0  0  0  0  0  0  0
   35.8150   23.0630   31.5440 C   0  0  0  0  0  0  0  0  0  0  0  0
   36.3980   21.9770   32.1760 C   0  0  0  0  0  0  0  0  0  0  0  0
   37.4420   22.1830   33.0400 N   0  0  0  0  0  0  0  0  0  0  0  0
   37.8900   23.4310   33.2670 C   0  0  0  0  0  0  0  0  0  0  0  0
   37.3300   24.4860   32.6590 N   0  0  0  0  0  0  0  0  0  0  0  0
   35.8130   25.1380   31.2850 H   0  0  0  0  0  0  0  0  0  0  0  0
   34.9870   22.8850   30.8600 H   0  0  0  0  0  0  0  0  0  0  0  0
   36.0480   20.9720   32.0010 H   0  0  0  0  0  0  0  0  0  0  0  0
  1  2  2  0  0  0  0
  1  6  1  0  0  0  0
  2  3  1  0  0  0  0
  3  8  1  0  0  0  0
  3  4  2  0  0  0  0
  4  9  1  0  0  0  0
  5 10  1  0  0  0  0
  5  4  1  0  0  0  0
  6  5  2  0  0  0  0
  7  2  1  0  0  0  0
 11 12  1  0  0  0  0
 12 14  1  0  0  0  0
 12 13  2  0  0  0  0
 14  6  1  0  0  0  0
 15 14  1  0  0  0  0
 16  1  1  0  0  0  0
 17 16  2  0  0  0  0
 18 23  1  0  0  0  0
 19 18  2  0  0  0  0
 19 20  1  0  0  0  0
 20 21  2  0  0  0  0
 21 22  1  0  0  0  0
 22 16  1  0  0  0  0
 23 22  2  0  0  0  0
 24 18  1  0  0  0  0
 25 19  1  0  0  0  0
 26 20  1  0  0  0  0
M  END
>  <minimizedAffinity>
-4.5242486

$$$$

 OpenBabel03272509393D

 26 27  0  0  0  0  0  0  0  0999 V2000
   38.1630   25.0260   34.0360 C   0  0  0  0  0  0  0  0  0  0  0  0
   37.4980   26.0870   33.4270 C   0  0  0  0  0  0  0  0  0  0  0  0
   37.2800   27.2970   34.0920 C   0  0  0  0  0  0  0  0  0  0  0  0
   37.7310   27.4710   35.3990 C   0  0  0  0  0  0  0  0  0  0  0  0
   38.3950   26.4000   35.9950 C   0  0  0  0  0  0  0  0  0  0  0  0
   38.6040   25.2170   35.3360 C   0  0  0  0  0  0  0  0  0  0  0  0
   37.1210   26.0220   32.4150 H   0  0  0  0  0  0  0  0  0  0  0  0
   36.7610   28.0970   33.5900 H   0  0  0  0  0  0  0  0  0  0  0  0
   37.5450   28.4040   35.8670 H   0  0  0  0  0  0  0  0  0  0  0  0
   38.7530   26.5090   37.0040 H   0  0  0  0  0  0  0  0  0  0  0  0
   38.8340   22.4890   37.4390 H   0  0  0  0  0  0  0  0  0  0  0  0
   38.4750   23.3490   36.8570 C   0  0  0  0  0  0  0  0  0  0  0  0
   37.3400   23.1470   37.3360 O   0  0  0  0  0  0  0  0  0  0  0  0
   39.2880   24.1520   35.9900 N   0  0  0  0  0  0  0  0  0  0  0  0
   40.2760   23.8130   35.9830 H   0  0  0  0  0  0  0  0  0  0  0  0
   38.3530   23.7990   33.2870 C   0  0  0  0  0  0  0  0  0  0  0  0
   39.5390   23.6490   32.8420 O   0  0  0  0  0  0  0  0  0  0  0  0
   35.6350   22.1030   31.5670 C   0  0  0  0  0  0  0  0  0  0  0  0
   35.3200   21.0420   32.4060 C   0  0  0  0  0  0  0  0  0  0  0  0
   36.0370   20.8900   33.5820 C   0  0  0  0  0  0  0  0  0  0  0  0
   37.0310   21.7830   33.8840 N   0  0  0  0  0  0  0  0  0  0  0  0
   37.3030   22.7960   33.0420 C   0  0  0  0  0  0  0  0  0  0  0  0
   36.6140   22.9500   31.9020 N   0  0  0  0  0  0  0  0  0  0  0  0
   35.0410   22.1690   30.6650 H   0  0  0  0  0  0  0  0  0  0  0  0
   34.5340   20.3260   32.1770 H   0  0  0  0  0  0  0  0  0  0  0  0
   35.8280   20.0810   34.2640 H   0  0  0  0  0  0  0  0  0  0  0  0
  1  6  1  0  0  0  0
  2  1  2  0  0  0  0
  2  3  1  0  0  0  0
  3  4  2  0  0  0  0
  4  9  1  0  0  0  0
  4  5  1  0  0  0  0
  5 10  1  0  0  0  0
  6 14  1  0  0  0  0
  6  5  2  0  0  0  0
  7  2  1  0  0  0  0
  8  3  1  0  0  0  0
 12 13  2  0  0  0  0
 12 11  1  0  0  0  0
 14 12  1  0  0  0  0
 15 14  1  0  0  0  0
 16  1  1  0  0  0  0
 17 16  2  0  0  0  0
 18 23  2  0  0  0  0
 18 19  1  0  0  0  0
 19 20  2  0  0  0  0
 20 21  1  0  0  0  0
 20 26  1  0  0  0  0
 22 16  1  0  0  0  0
 22 21  2  0  0  0  0
 23 22  1  0  0  0  0
 24 18  1  0  0  0  0
 25 19  1  0  0  0  0
M  END
>  <minimizedAffinity>
-4.39189816

$$$$

 OpenBabel03272509393D

 26 27  0  0  0  0  0  0  0  0999 V2000
   37.4840   22.3410   33.4770 C   0  0  0  0  0  0  0  0  0  0  0  0
   36.7950   21.1730   33.7870 C   0  0  0  0  0  0  0  0  0  0  0  0
   35.6350   20.8000   33.1010 C   0  0  0  0  0  0  0  0  0  0  0  0
   35.1360   21.6020   32.0770 C   0  0  0  0  0  0  0  0  0  0  0  0
   35.8380   22.7690   31.7780 C   0  0  0  0  0  0  0  0  0  0  0  0
   36.9740   23.1270   32.4540 C   0  0  0  0  0  0  0  0  0  0  0  0
   37.1250   20.5030   34.5700 H   0  0  0  0  0  0  0  0  0  0  0  0
   35.1260   19.8880   33.3680 H   0  0  0  0  0  0  0  0  0  0  0  0
   34.2540   21.2830   31.5830 H   0  0  0  0  0  0  0  0  0  0  0  0
   35.4730   23.4060   30.9910 H   0  0  0  0  0  0  0  0  0  0  0  0
   38.8070   25.1850   30.3760 H   0  0  0  0  0  0  0  0  0  0  0  0
   38.2460   24.3430   30.8040 C   0  0  0  0  0  0  0  0  0  0  0  0
   38.4490   23.7200   29.7420 O   0  0  0  0  0  0  0  0  0  0  0  0
   37.6540   24.3300   32.1120 N   0  0  0  0  0  0  0  0  0  0  0  0
   37.8280   25.2320   32.6090 H   0  0  0  0  0  0  0  0  0  0  0  0
   38.6810   22.6670   34.2290 C   0  0  0  0  0  0  0  0  0  0  0  0
   39.7390   22.7040   33.5180 O   0  0  0  0  0  0  0  0  0  0  0  0
   39.9460   22.6760   37.6380 C   0  0  0  0  0  0  0  0  0  0  0  0
   38.9600   23.3370   38.3580 C   0  0  0  0  0  0  0  0  0  0  0  0
   37.8380   23.7930   37.6850 C   0  0  0  0  0  0  0  0  0  0  0  0
   37.7320   23.5820   36.3350 N   0  0  0  0  0  0  0  0  0  0  0  0
   38.7120   22.9360   35.6770 C   0  0  0  0  0  0  0  0  0  0  0  0
   39.8000   22.4920   36.3220 N   0  0  0  0  0  0  0  0  0  0  0  0
   40.7960   22.3450   38.2190 H   0  0  0  0  0  0  0  0  0  0  0  0
   39.0320   23.5130   39.4300 H   0  0  0  0  0  0  0  0  0  0  0  0
   37.0470   24.3130   38.2020 H   0  0  0  0  0  0  0  0  0  0  0  0
  1  2  1  0  0  0  0
  1 16  1  0  0  0  0
  2  7  1  0  0  0  0
  3  8  1  0  0  0  0
  3  2  2  0  0  0  0
  4  3  1  0  0  0  0
  5  4  2  0  0  0  0
  5  6  1  0  0  0  0
  6  1  2  0  0  0  0
  9  4  1  0  0  0  0
 10  5  1  0  0  0  0
 11 12  1  0  0  0  0
 12 14  1  0  0  0  0
 13 12  2  0  0  0  0
 14  6  1  0  0  0  0
 14 15  1  0  0  0  0
 16 22  1  0  0  0  0
 17 16  2  0  0  0  0
 18 24  1  0  0  0  0
 18 19  1  0  0  0  0
 19 25  1  0  0  0  0
 20 26  1  0  0  0  0
 20 19  2  0  0  0  0
 21 20  1  0  0  0  0
 22 23  1  0  0  0  0
 22 21  2  0  0  0  0
 23 18  2  0  0  0  0
M  END
>  <minimizedAffinity>
-4.38650417

$$$$
