
 OpenBabel03272504003D

 20 20  0  0  0  0  0  0  0  0999 V2000
   38.0390   24.6180   37.5850 C   0  0  0  0  0  0  0  0  0  0  0  0
   38.8270   25.0780   38.2570 H   0  0  0  0  0  0  0  0  0  0  0  0
   37.1110   24.7930   38.1110 H   0  0  0  0  0  0  0  0  0  0  0  0
   38.1710   25.3190   36.3120 C   0  0  0  0  0  0  0  0  0  0  0  0
   38.3550   26.6870   36.2130 C   0  0  0  0  0  0  0  0  0  0  0  0
   38.4600   27.2510   34.9230 C   0  0  0  0  0  0  0  0  0  0  0  0
   38.3730   26.4010   33.8420 N   0  0  0  0  0  0  0  0  0  0  0  0
   38.1940   25.0700   33.9880 C   0  0  0  0  0  0  0  0  0  0  0  0
   38.0950   24.5430   35.2280 N   0  0  0  0  0  0  0  0  0  0  0  0
   38.4120   27.2700   37.1220 H   0  0  0  0  0  0  0  0  0  0  0  0
   38.6030   28.3050   34.8340 H   0  0  0  0  0  0  0  0  0  0  0  0
   38.1320   24.4440   33.1090 H   0  0  0  0  0  0  0  0  0  0  0  0
   38.2590   23.1290   37.4950 C   0  0  0  0  0  0  0  0  0  0  0  0
   37.3300   22.6650   37.8860 H   0  0  0  0  0  0  0  0  0  0  0  0
   38.4560   22.8240   36.4480 H   0  0  0  0  0  0  0  0  0  0  0  0
   41.4780   22.0500   37.8030 H   0  0  0  0  0  0  0  0  0  0  0  0
   40.4760   22.3850   37.5720 C   0  0  0  0  0  0  0  0  0  0  0  0
   40.5470   22.3580   36.2980 O   0  0  0  0  0  0  0  0  0  0  0  0
   39.3580   22.7620   38.3660 N   0  0  0  0  0  0  0  0  0  0  0  0
   39.5870   22.6880   39.3780 H   0  0  0  0  0  0  0  0  0  0  0  0
  1  3  1  0  0  0  0
  1  2  1  0  0  0  0
  4  1  1  0  0  0  0
  5  4  1  0  0  0  0
  5 10  1  0  0  0  0
  6  5  2  0  0  0  0
  7  8  2  0  0  0  0
  7  6  1  0  0  0  0
  8  9  1  0  0  0  0
  9  4  2  0  0  0  0
 11  6  1  0  0  0  0
 12  8  1  0  0  0  0
 13  1  1  0  0  0  0
 13 14  1  0  0  0  0
 13 19  1  0  0  0  0
 15 13  1  0  0  0  0
 17 16  1  0  0  0  0
 17 19  1  0  0  0  0
 18 17  2  0  0  0  0
 19 20  1  0  0  0  0
M  END
>  <minimizedAffinity>
-3.52727771

$$$$

 OpenBabel03272504003D

 20 20  0  0  0  0  0  0  0  0999 V2000
   37.7370   25.6750   35.6290 C   0  0  0  0  0  0  0  0  0  0  0  0
   37.7590   25.2340   34.5840 H   0  0  0  0  0  0  0  0  0  0  0  0
   36.6860   25.8370   35.8230 H   0  0  0  0  0  0  0  0  0  0  0  0
   38.3780   24.6750   36.4760 C   0  0  0  0  0  0  0  0  0  0  0  0
   37.9900   24.4230   37.7810 C   0  0  0  0  0  0  0  0  0  0  0  0
   38.6950   23.4370   38.5040 C   0  0  0  0  0  0  0  0  0  0  0  0
   39.7260   22.7850   37.8620 N   0  0  0  0  0  0  0  0  0  0  0  0
   40.0680   23.0650   36.5860 C   0  0  0  0  0  0  0  0  0  0  0  0
   39.3850   24.0120   35.9050 N   0  0  0  0  0  0  0  0  0  0  0  0
   37.1660   24.9880   38.1950 H   0  0  0  0  0  0  0  0  0  0  0  0
   38.4040   23.2340   39.5110 H   0  0  0  0  0  0  0  0  0  0  0  0
   40.8850   22.5270   36.1260 H   0  0  0  0  0  0  0  0  0  0  0  0
   38.4290   27.0150   35.6250 C   0  0  0  0  0  0  0  0  0  0  0  0
   37.9340   27.6050   34.8270 H   0  0  0  0  0  0  0  0  0  0  0  0
   38.3340   27.5080   36.6130 H   0  0  0  0  0  0  0  0  0  0  0  0
   40.8080   26.9730   33.1840 H   0  0  0  0  0  0  0  0  0  0  0  0
   39.9660   27.0180   33.8600 C   0  0  0  0  0  0  0  0  0  0  0  0
   39.0520   27.3090   33.0190 O   0  0  0  0  0  0  0  0  0  0  0  0
   39.8190   26.8260   35.2620 N   0  0  0  0  0  0  0  0  0  0  0  0
   40.7360   26.5960   35.6970 H   0  0  0  0  0  0  0  0  0  0  0  0
  1  3  1  0  0  0  0
  1  4  1  0  0  0  0
  2  1  1  0  0  0  0
  4  5  1  0  0  0  0
  5 10  1  0  0  0  0
  5  6  2  0  0  0  0
  6 11  1  0  0  0  0
  7  6  1  0  0  0  0
  8  7  2  0  0  0  0
  9  4  2  0  0  0  0
  9  8  1  0  0  0  0
 12  8  1  0  0  0  0
 13  1  1  0  0  0  0
 13 15  1  0  0  0  0
 14 13  1  0  0  0  0
 16 17  1  0  0  0  0
 17 19  1  0  0  0  0
 18 17  2  0  0  0  0
 19 13  1  0  0  0  0
 19 20  1  0  0  0  0
M  END
>  <minimizedAffinity>
-3.36425567

$$$$

 OpenBabel03272504003D

 20 20  0  0  0  0  0  0  0  0999 V2000
   38.0960   23.3030   35.8090 C   0  0  0  0  0  0  0  0  0  0  0  0
   37.3980   23.3910   36.6980 H   0  0  0  0  0  0  0  0  0  0  0  0
   37.4560   22.9670   35.0060 H   0  0  0  0  0  0  0  0  0  0  0  0
   38.6600   24.6370   35.6360 C   0  0  0  0  0  0  0  0  0  0  0  0
   38.0200   25.7930   36.0510 C   0  0  0  0  0  0  0  0  0  0  0  0
   38.6630   27.0280   35.8190 C   0  0  0  0  0  0  0  0  0  0  0  0
   39.8910   27.0040   35.1940 N   0  0  0  0  0  0  0  0  0  0  0  0
   40.4770   25.8510   34.8070 C   0  0  0  0  0  0  0  0  0  0  0  0
   39.8500   24.6760   35.0340 N   0  0  0  0  0  0  0  0  0  0  0  0
   37.0560   25.7070   36.5360 H   0  0  0  0  0  0  0  0  0  0  0  0
   38.1790   27.9250   36.1360 H   0  0  0  0  0  0  0  0  0  0  0  0
   41.4410   25.8840   34.3190 H   0  0  0  0  0  0  0  0  0  0  0  0
   39.1210   22.2300   36.0780 C   0  0  0  0  0  0  0  0  0  0  0  0
   38.5650   21.2710   36.0520 H   0  0  0  0  0  0  0  0  0  0  0  0
   39.9240   22.2550   35.3140 H   0  0  0  0  0  0  0  0  0  0  0  0
   41.7280   21.8200   38.2360 H   0  0  0  0  0  0  0  0  0  0  0  0
   40.9790   21.8910   37.4590 C   0  0  0  0  0  0  0  0  0  0  0  0
   41.6280   21.3380   36.5090 O   0  0  0  0  0  0  0  0  0  0  0  0
   39.6580   22.4150   37.4110 N   0  0  0  0  0  0  0  0  0  0  0  0
   39.3870   22.8070   38.3360 H   0  0  0  0  0  0  0  0  0  0  0  0
  1 13  1  0  0  0  0
  1  2  1  0  0  0  0
  3  1  1  0  0  0  0
  4  1  1  0  0  0  0
  4  5  1  0  0  0  0
  5 10  1  0  0  0  0
  6  5  2  0  0  0  0
  6 11  1  0  0  0  0
  7  6  1  0  0  0  0
  8  9  1  0  0  0  0
  8  7  2  0  0  0  0
  9  4  2  0  0  0  0
 12  8  1  0  0  0  0
 13 19  1  0  0  0  0
 14 13  1  0  0  0  0
 15 13  1  0  0  0  0
 17 16  1  0  0  0  0
 18 17  2  0  0  0  0
 19 17  1  0  0  0  0
 19 20  1  0  0  0  0
M  END
>  <minimizedAffinity>
-3.26337123

$$$$

 OpenBabel03272504003D

 20 20  0  0  0  0  0  0  0  0999 V2000
   38.1950   23.9810   34.5730 C   0  0  0  0  0  0  0  0  0  0  0  0
   38.8200   23.2610   33.9590 H   0  0  0  0  0  0  0  0  0  0  0  0
   37.1770   23.7460   34.2970 H   0  0  0  0  0  0  0  0  0  0  0  0
   38.5440   23.6970   35.9610 C   0  0  0  0  0  0  0  0  0  0  0  0
   39.6840   23.0050   36.3310 C   0  0  0  0  0  0  0  0  0  0  0  0
   39.9080   22.7830   37.7080 C   0  0  0  0  0  0  0  0  0  0  0  0
   38.9750   23.2720   38.5960 N   0  0  0  0  0  0  0  0  0  0  0  0
   37.8770   23.9430   38.1870 C   0  0  0  0  0  0  0  0  0  0  0  0
   37.6740   24.1480   36.8670 N   0  0  0  0  0  0  0  0  0  0  0  0
   40.3580   22.6620   35.5580 H   0  0  0  0  0  0  0  0  0  0  0  0
   40.7840   22.2510   38.0050 H   0  0  0  0  0  0  0  0  0  0  0  0
   37.1730   24.3070   38.9220 H   0  0  0  0  0  0  0  0  0  0  0  0
   38.4880   25.3970   34.1410 C   0  0  0  0  0  0  0  0  0  0  0  0
   39.3180   25.7420   34.7900 H   0  0  0  0  0  0  0  0  0  0  0  0
   38.7700   25.4280   33.0690 H   0  0  0  0  0  0  0  0  0  0  0  0
   37.1450   28.0950   35.7320 H   0  0  0  0  0  0  0  0  0  0  0  0
   37.6870   27.2730   35.2860 C   0  0  0  0  0  0  0  0  0  0  0  0
   38.8380   27.4990   35.7900 O   0  0  0  0  0  0  0  0  0  0  0  0
   37.3240   26.2190   34.4030 N   0  0  0  0  0  0  0  0  0  0  0  0
   36.3160   26.2830   34.1540 H   0  0  0  0  0  0  0  0  0  0  0  0
  1  4  1  0  0  0  0
  2  1  1  0  0  0  0
  3  1  1  0  0  0  0
  4  5  2  0  0  0  0
  4  9  1  0  0  0  0
  5  6  1  0  0  0  0
  6 11  1  0  0  0  0
  6  7  2  0  0  0  0
  8  7  1  0  0  0  0
  8 12  1  0  0  0  0
  9  8  2  0  0  0  0
 10  5  1  0  0  0  0
 13 19  1  0  0  0  0
 13  1  1  0  0  0  0
 13 14  1  0  0  0  0
 15 13  1  0  0  0  0
 17 16  1  0  0  0  0
 17 18  2  0  0  0  0
 19 17  1  0  0  0  0
 20 19  1  0  0  0  0
M  END
>  <minimizedAffinity>
-3.23880267

$$$$

 OpenBabel03272504003D

 20 20  0  0  0  0  0  0  0  0999 V2000
   40.2790   22.9770   35.6540 C   0  0  0  0  0  0  0  0  0  0  0  0
   40.1380   22.4520   34.6590 H   0  0  0  0  0  0  0  0  0  0  0  0
   41.2250   22.6010   36.0170 H   0  0  0  0  0  0  0  0  0  0  0  0
   40.2560   24.4010   35.3380 C   0  0  0  0  0  0  0  0  0  0  0  0
   41.3340   25.0750   34.7890 C   0  0  0  0  0  0  0  0  0  0  0  0
   41.1930   26.4570   34.5380 C   0  0  0  0  0  0  0  0  0  0  0  0
   39.9900   27.0480   34.8540 N   0  0  0  0  0  0  0  0  0  0  0  0
   38.9660   26.3480   35.3880 C   0  0  0  0  0  0  0  0  0  0  0  0
   39.1130   25.0260   35.6250 N   0  0  0  0  0  0  0  0  0  0  0  0
   42.2380   24.5210   34.5750 H   0  0  0  0  0  0  0  0  0  0  0  0
   42.0180   26.9860   34.1140 H   0  0  0  0  0  0  0  0  0  0  0  0
   38.0400   26.8570   35.6200 H   0  0  0  0  0  0  0  0  0  0  0  0
   39.1980   22.5400   36.6110 C   0  0  0  0  0  0  0  0  0  0  0  0
   38.3720   23.2690   36.4830 H   0  0  0  0  0  0  0  0  0  0  0  0
   38.8680   21.5070   36.3840 H   0  0  0  0  0  0  0  0  0  0  0  0
   38.7370   23.6780   39.7910 H   0  0  0  0  0  0  0  0  0  0  0  0
   38.7640   23.3730   38.7540 C   0  0  0  0  0  0  0  0  0  0  0  0
   37.6530   23.8720   38.3730 O   0  0  0  0  0  0  0  0  0  0  0  0
   39.6990   22.6460   37.9670 N   0  0  0  0  0  0  0  0  0  0  0  0
   40.5170   22.3610   38.5430 H   0  0  0  0  0  0  0  0  0  0  0  0
  1  3  1  0  0  0  0
  1 13  1  0  0  0  0
  2  1  1  0  0  0  0
  4  9  1  0  0  0  0
  4  1  1  0  0  0  0
  5  4  2  0  0  0  0
  6  5  1  0  0  0  0
  6  7  2  0  0  0  0
  7  8  1  0  0  0  0
  8 12  1  0  0  0  0
  8  9  2  0  0  0  0
 10  5  1  0  0  0  0
 11  6  1  0  0  0  0
 13 19  1  0  0  0  0
 14 13  1  0  0  0  0
 15 13  1  0  0  0  0
 17 16  1  0  0  0  0
 18 17  2  0  0  0  0
 19 20  1  0  0  0  0
 19 17  1  0  0  0  0
M  END
>  <minimizedAffinity>
-3.20935392

$$$$

 OpenBabel03272504003D

 20 20  0  0  0  0  0  0  0  0999 V2000
   38.6970   23.5010   35.3000 C   0  0  0  0  0  0  0  0  0  0  0  0
   38.7410   22.6980   34.5010 H   0  0  0  0  0  0  0  0  0  0  0  0
   39.7280   23.6340   35.5950 H   0  0  0  0  0  0  0  0  0  0  0  0
   38.0850   24.6530   34.6470 C   0  0  0  0  0  0  0  0  0  0  0  0
   37.8680   24.7250   33.2810 C   0  0  0  0  0  0  0  0  0  0  0  0
   37.2760   25.8980   32.7650 C   0  0  0  0  0  0  0  0  0  0  0  0
   36.9510   26.8980   33.6550 N   0  0  0  0  0  0  0  0  0  0  0  0
   37.1820   26.7820   34.9800 C   0  0  0  0  0  0  0  0  0  0  0  0
   37.7490   25.6540   35.4620 N   0  0  0  0  0  0  0  0  0  0  0  0
   38.1570   23.8850   32.6640 H   0  0  0  0  0  0  0  0  0  0  0  0
   37.1030   25.9640   31.7130 H   0  0  0  0  0  0  0  0  0  0  0  0
   36.9090   27.5950   35.6390 H   0  0  0  0  0  0  0  0  0  0  0  0
   37.9270   22.9860   36.4910 C   0  0  0  0  0  0  0  0  0  0  0  0
   37.3170   23.8420   36.8450 H   0  0  0  0  0  0  0  0  0  0  0  0
   37.2920   22.1250   36.2030 H   0  0  0  0  0  0  0  0  0  0  0  0
   39.1980   23.6150   39.5910 H   0  0  0  0  0  0  0  0  0  0  0  0
   38.7130   23.5210   38.6290 C   0  0  0  0  0  0  0  0  0  0  0  0
   37.9010   24.5010   38.7190 O   0  0  0  0  0  0  0  0  0  0  0  0
   38.8630   22.6230   37.5360 N   0  0  0  0  0  0  0  0  0  0  0  0
   39.6040   21.9210   37.7390 H   0  0  0  0  0  0  0  0  0  0  0  0
  1  3  1  0  0  0  0
  1 13  1  0  0  0  0
  2  1  1  0  0  0  0
  4  1  1  0  0  0  0
  4  9  1  0  0  0  0
  5  4  2  0  0  0  0
  6  5  1  0  0  0  0
  6  7  2  0  0  0  0
  7  8  1  0  0  0  0
  8  9  2  0  0  0  0
  8 12  1  0  0  0  0
 10  5  1  0  0  0  0
 11  6  1  0  0  0  0
 13 14  1  0  0  0  0
 13 19  1  0  0  0  0
 15 13  1  0  0  0  0
 17 18  2  0  0  0  0
 17 16  1  0  0  0  0
 19 20  1  0  0  0  0
 19 17  1  0  0  0  0
M  END
>  <minimizedAffinity>
-3.18678927

$$$$

 OpenBabel03272504003D

 20 20  0  0  0  0  0  0  0  0999 V2000
   38.3050   26.9330   31.5210 C   0  0  0  0  0  0  0  0  0  0  0  0
   37.9360   27.9170   31.0970 H   0  0  0  0  0  0  0  0  0  0  0  0
   39.2830   26.8070   31.0810 H   0  0  0  0  0  0  0  0  0  0  0  0
   38.2950   27.1170   32.9690 C   0  0  0  0  0  0  0  0  0  0  0  0
   39.4010   26.8970   33.7710 C   0  0  0  0  0  0  0  0  0  0  0  0
   39.2640   27.1000   35.1610 C   0  0  0  0  0  0  0  0  0  0  0  0
   38.0350   27.5050   35.6320 N   0  0  0  0  0  0  0  0  0  0  0  0
   36.9830   27.7080   34.8100 C   0  0  0  0  0  0  0  0  0  0  0  0
   37.1270   27.5100   33.4810 N   0  0  0  0  0  0  0  0  0  0  0  0
   40.3250   26.5800   33.3050 H   0  0  0  0  0  0  0  0  0  0  0  0
   40.1120   26.9340   35.7890 H   0  0  0  0  0  0  0  0  0  0  0  0
   36.0380   28.0260   35.2270 H   0  0  0  0  0  0  0  0  0  0  0  0
   37.4190   25.8120   31.0360 C   0  0  0  0  0  0  0  0  0  0  0  0
   37.9300   25.3920   30.1460 H   0  0  0  0  0  0  0  0  0  0  0  0
   37.2870   25.0480   31.8270 H   0  0  0  0  0  0  0  0  0  0  0  0
   34.0380   25.4480   30.8020 H   0  0  0  0  0  0  0  0  0  0  0  0
   35.1110   25.4420   30.9350 C   0  0  0  0  0  0  0  0  0  0  0  0
   35.2350   24.3020   31.4940 O   0  0  0  0  0  0  0  0  0  0  0  0
   36.1470   26.3650   30.6190 N   0  0  0  0  0  0  0  0  0  0  0  0
   35.7520   27.2140   30.1660 H   0  0  0  0  0  0  0  0  0  0  0  0
  1  4  1  0  0  0  0
  2  1  1  0  0  0  0
  3  1  1  0  0  0  0
  4  9  2  0  0  0  0
  4  5  1  0  0  0  0
  5  6  2  0  0  0  0
  6  7  1  0  0  0  0
  6 11  1  0  0  0  0
  8 12  1  0  0  0  0
  8  7  2  0  0  0  0
  9  8  1  0  0  0  0
 10  5  1  0  0  0  0
 13  1  1  0  0  0  0
 13 15  1  0  0  0  0
 14 13  1  0  0  0  0
 16 17  1  0  0  0  0
 17 18  2  0  0  0  0
 19 17  1  0  0  0  0
 19 13  1  0  0  0  0
 20 19  1  0  0  0  0
M  END
>  <minimizedAffinity>
-3.16769004

$$$$

 OpenBabel03272504003D

 20 20  0  0  0  0  0  0  0  0999 V2000
   36.4920   27.5570   32.5600 C   0  0  0  0  0  0  0  0  0  0  0  0
   35.5180   27.3430   33.0990 H   0  0  0  0  0  0  0  0  0  0  0  0
   36.3750   28.5690   32.1980 H   0  0  0  0  0  0  0  0  0  0  0  0
   37.5310   27.3750   33.5680 C   0  0  0  0  0  0  0  0  0  0  0  0
   37.2940   27.4680   34.9290 C   0  0  0  0  0  0  0  0  0  0  0  0
   38.3840   27.2810   35.8060 C   0  0  0  0  0  0  0  0  0  0  0  0
   39.6170   27.0180   35.2510 N   0  0  0  0  0  0  0  0  0  0  0  0
   39.8000   26.9370   33.9150 C   0  0  0  0  0  0  0  0  0  0  0  0
   38.7480   27.1180   33.0860 N   0  0  0  0  0  0  0  0  0  0  0  0
   36.2880   27.6770   35.2680 H   0  0  0  0  0  0  0  0  0  0  0  0
   38.2130   27.3500   36.8580 H   0  0  0  0  0  0  0  0  0  0  0  0
   40.7870   26.7280   33.5270 H   0  0  0  0  0  0  0  0  0  0  0  0
   36.6210   26.6400   31.3690 C   0  0  0  0  0  0  0  0  0  0  0  0
   35.7460   26.8630   30.7250 H   0  0  0  0  0  0  0  0  0  0  0  0
   37.5750   26.8230   30.8360 H   0  0  0  0  0  0  0  0  0  0  0  0
   34.9110   23.6910   31.3320 H   0  0  0  0  0  0  0  0  0  0  0  0
   35.3570   24.6740   31.2610 C   0  0  0  0  0  0  0  0  0  0  0  0
   34.5060   25.2220   30.4850 O   0  0  0  0  0  0  0  0  0  0  0  0
   36.5230   25.2670   31.8200 N   0  0  0  0  0  0  0  0  0  0  0  0
   37.0300   24.5820   32.4180 H   0  0  0  0  0  0  0  0  0  0  0  0
  1  2  1  0  0  0  0
  1  4  1  0  0  0  0
  3  1  1  0  0  0  0
  4  5  1  0  0  0  0
  5 10  1  0  0  0  0
  5  6  2  0  0  0  0
  6 11  1  0  0  0  0
  7  6  1  0  0  0  0
  8  7  2  0  0  0  0
  9  4  2  0  0  0  0
  9  8  1  0  0  0  0
 12  8  1  0  0  0  0
 13 19  1  0  0  0  0
 13  1  1  0  0  0  0
 14 13  1  0  0  0  0
 15 13  1  0  0  0  0
 17 16  1  0  0  0  0
 17 19  1  0  0  0  0
 18 17  2  0  0  0  0
 19 20  1  0  0  0  0
M  END
>  <minimizedAffinity>
-3.1545341

$$$$

 OpenBabel03272504003D

 20 20  0  0  0  0  0  0  0  0999 V2000
   36.0130   31.1020   35.7100 C   0  0  0  0  0  0  0  0  0  0  0  0
   36.0590   30.3910   36.5920 H   0  0  0  0  0  0  0  0  0  0  0  0
   37.0430   31.2070   35.4030 H   0  0  0  0  0  0  0  0  0  0  0  0
   35.1390   30.4480   34.7410 C   0  0  0  0  0  0  0  0  0  0  0  0
   35.5820   29.9740   33.5180 C   0  0  0  0  0  0  0  0  0  0  0  0
   34.6380   29.3680   32.6610 C   0  0  0  0  0  0  0  0  0  0  0  0
   33.3340   29.2860   33.0980 N   0  0  0  0  0  0  0  0  0  0  0  0
   32.9490   29.7630   34.3010 C   0  0  0  0  0  0  0  0  0  0  0  0
   33.8620   30.3410   35.1120 N   0  0  0  0  0  0  0  0  0  0  0  0
   36.6280   30.0840   33.2660 H   0  0  0  0  0  0  0  0  0  0  0  0
   34.9680   28.9980   31.7150 H   0  0  0  0  0  0  0  0  0  0  0  0
   31.9130   29.6760   34.5990 H   0  0  0  0  0  0  0  0  0  0  0  0
   35.5180   32.4490   36.1750 C   0  0  0  0  0  0  0  0  0  0  0  0
   36.4280   33.0620   36.3360 H   0  0  0  0  0  0  0  0  0  0  0  0
   34.8510   32.9040   35.4170 H   0  0  0  0  0  0  0  0  0  0  0  0
   32.8390   33.1970   38.1450 H   0  0  0  0  0  0  0  0  0  0  0  0
   33.6310   33.0370   37.4260 C   0  0  0  0  0  0  0  0  0  0  0  0
   33.1760   33.7490   36.4700 O   0  0  0  0  0  0  0  0  0  0  0  0
   34.8400   32.2880   37.4450 N   0  0  0  0  0  0  0  0  0  0  0  0
   34.9540   31.8040   38.3590 H   0  0  0  0  0  0  0  0  0  0  0  0
  1 13  1  0  0  0  0
  1  2  1  0  0  0  0
  3  1  1  0  0  0  0
  4  9  1  0  0  0  0
  4  1  1  0  0  0  0
  5  4  2  0  0  0  0
  6  7  2  0  0  0  0
  6  5  1  0  0  0  0
  7  8  1  0  0  0  0
  8 12  1  0  0  0  0
  8  9  2  0  0  0  0
 10  5  1  0  0  0  0
 11  6  1  0  0  0  0
 13 14  1  0  0  0  0
 13 19  1  0  0  0  0
 15 13  1  0  0  0  0
 17 19  1  0  0  0  0
 17 16  1  0  0  0  0
 18 17  2  0  0  0  0
 19 20  1  0  0  0  0
M  END
>  <minimizedAffinity>
-3.13919926

$$$$
