
 OpenBabel03272510323D

 24 25  0  0  0  0  0  0  0  0999 V2000
   37.0010   30.3580   47.6170 C   0  0  0  0  0  0  0  0  0  0  0  0
   35.8400   30.2340   46.9150 C   0  0  0  0  0  0  0  0  0  0  0  0
   34.7260   29.6100   47.4360 C   0  0  0  0  0  0  0  0  0  0  0  0
   34.8220   29.1010   48.7260 C   0  0  0  0  0  0  0  0  0  0  0  0
   35.9780   29.2070   49.4660 C   0  0  0  0  0  0  0  0  0  0  0  0
   37.0730   29.8420   48.9010 C   0  0  0  0  0  0  0  0  0  0  0  0
   35.7540   30.6320   45.9000 H   0  0  0  0  0  0  0  0  0  0  0  0
   33.7850   29.4900   46.9150 H   0  0  0  0  0  0  0  0  0  0  0  0
   33.9930   28.5950   49.2110 H   0  0  0  0  0  0  0  0  0  0  0  0
   36.0680   28.8100   50.4810 H   0  0  0  0  0  0  0  0  0  0  0  0
   39.4180   32.9550   46.8300 C   0  0  0  0  0  0  0  0  0  0  0  0
   40.2120   32.4000   45.8290 C   0  0  0  0  0  0  0  0  0  0  0  0
   39.8960   31.0740   45.4110 C   0  0  0  0  0  0  0  0  0  0  0  0
   38.8590   30.4590   46.0120 N   0  0  0  0  0  0  0  0  0  0  0  0
   38.1170   31.0330   46.9760 C   0  0  0  0  0  0  0  0  0  0  0  0
   38.4010   32.2900   47.3860 N   0  0  0  0  0  0  0  0  0  0  0  0
   39.6490   33.9700   47.1600 H   0  0  0  0  0  0  0  0  0  0  0  0
   41.0370   32.9580   45.3880 H   0  0  0  0  0  0  0  0  0  0  0  0
   40.5020   30.6280   44.6350 H   0  0  0  0  0  0  0  0  0  0  0  0
   38.9310   31.3870   51.2740 H   0  0  0  0  0  0  0  0  0  0  0  0
   38.1730   31.0400   50.5700 C   0  0  0  0  0  0  0  0  0  0  0  0
   37.0810   31.6760   50.6120 O   0  0  0  0  0  0  0  0  0  0  0  0
   38.2820   29.9710   49.6310 N   0  0  0  0  0  0  0  0  0  0  0  0
   39.1970   29.4690   49.6220 H   0  0  0  0  0  0  0  0  0  0  0  0
  1  6  1  0  0  0  0
  2  3  1  0  0  0  0
  2  1  2  0  0  0  0
  3  4  2  0  0  0  0
  4  9  1  0  0  0  0
  4  5  1  0  0  0  0
  5 10  1  0  0  0  0
  6  5  2  0  0  0  0
  6 23  1  0  0  0  0
  7  2  1  0  0  0  0
  8  3  1  0  0  0  0
 11 17  1  0  0  0  0
 11 16  1  0  0  0  0
 12 11  2  0  0  0  0
 13 12  1  0  0  0  0
 13 14  2  0  0  0  0
 14 15  1  0  0  0  0
 15 16  2  0  0  0  0
 15  1  1  0  0  0  0
 18 12  1  0  0  0  0
 19 13  1  0  0  0  0
 21 22  2  0  0  0  0
 21 20  1  0  0  0  0
 23 21  1  0  0  0  0
 24 23  1  0  0  0  0
M  END
>  <minimizedAffinity>
-5.21532297

>  <minimizedRMSD>
1.91388452

$$$$
