
 OpenBabel03272509463D

 21 21  0  0  0  0  0  0  0  0999 V2000
   33.8630   28.6960   48.7580 C   0  0  0  0  0  0  0  0  0  0  0  0
   34.4580   29.0760   47.8990 H   0  0  0  0  0  0  0  0  0  0  0  0
   33.1940   29.5250   49.0740 H   0  0  0  0  0  0  0  0  0  0  0  0
   33.0630   27.5260   48.2820 C   0  0  0  0  0  0  0  0  0  0  0  0
   33.7260   26.8640   47.6670 H   0  0  0  0  0  0  0  0  0  0  0  0
   32.7860   26.9130   49.1720 H   0  0  0  0  0  0  0  0  0  0  0  0
   29.6320   28.1170   47.8290 H   0  0  0  0  0  0  0  0  0  0  0  0
   30.5910   27.8750   48.2430 C   0  0  0  0  0  0  0  0  0  0  0  0
   30.4520   27.5700   49.4570 O   0  0  0  0  0  0  0  0  0  0  0  0
   31.8530   27.8750   47.5930 N   0  0  0  0  0  0  0  0  0  0  0  0
   31.7970   28.1560   46.5730 H   0  0  0  0  0  0  0  0  0  0  0  0
   34.7310   28.2900   49.8080 O   0  0  0  0  0  0  0  0  0  0  0  0
   37.3320   30.2270   51.4070 C   0  0  0  0  0  0  0  0  0  0  0  0
   38.0160   30.6540   50.2580 C   0  0  0  0  0  0  0  0  0  0  0  0
   37.5700   30.2680   48.9990 C   0  0  0  0  0  0  0  0  0  0  0  0
   36.4610   29.4770   48.9630 N   0  0  0  0  0  0  0  0  0  0  0  0
   35.8140   29.0760   50.0840 C   0  0  0  0  0  0  0  0  0  0  0  0
   36.2600   29.4580   51.3020 N   0  0  0  0  0  0  0  0  0  0  0  0
   37.7360   30.5640   52.3460 H   0  0  0  0  0  0  0  0  0  0  0  0
   38.9000   31.2840   50.2790 H   0  0  0  0  0  0  0  0  0  0  0  0
   38.0660   30.5740   48.0920 H   0  0  0  0  0  0  0  0  0  0  0  0
  1  3  1  0  0  0  0
  1 12  1  0  0  0  0
  2  1  1  0  0  0  0
  4  1  1  0  0  0  0
  4  6  1  0  0  0  0
  5  4  1  0  0  0  0
  7  8  1  0  0  0  0
  8  9  2  0  0  0  0
 10  8  1  0  0  0  0
 10  4  1  0  0  0  0
 11 10  1  0  0  0  0
 12 17  1  0  0  0  0
 13 19  1  0  0  0  0
 14 20  1  0  0  0  0
 14 13  2  0  0  0  0
 15 14  1  0  0  0  0
 16 15  2  0  0  0  0
 16 17  1  0  0  0  0
 17 18  2  0  0  0  0
 18 13  1  0  0  0  0
 21 15  1  0  0  0  0
M  END
>  <minimizedAffinity>
-3.60355592

>  <minimizedRMSD>
1.80473185

$$$$
