
 OpenBabel03272508133D

 30 31  0  0  0  0  0  0  0  0999 V2000
   36.9900   26.8070   33.8730 O   0  0  0  0  0  0  0  0  0  0  0  0
   37.6480   26.1210   31.1120 Cl  0  0  0  0  0  0  0  0  0  0  0  0
   36.8850   27.6030   31.7240 C   0  0  0  0  0  0  0  0  0  0  0  0
   36.6100   27.8410   33.0660 C   0  0  0  0  0  0  0  0  0  0  0  0
   36.0130   29.0390   33.3910 C   0  0  0  0  0  0  0  0  0  0  0  0
   35.7030   29.9610   32.4260 C   0  0  0  0  0  0  0  0  0  0  0  0
   35.9690   29.7420   31.0970 C   0  0  0  0  0  0  0  0  0  0  0  0
   36.5620   28.5580   30.7480 C   0  0  0  0  0  0  0  0  0  0  0  0
   35.8260   29.1600   34.4450 H   0  0  0  0  0  0  0  0  0  0  0  0
   35.2340   30.8830   32.7570 H   0  0  0  0  0  0  0  0  0  0  0  0
   35.7210   30.4730   30.3510 H   0  0  0  0  0  0  0  0  0  0  0  0
   37.8500   28.4330   27.4960 H   0  0  0  0  0  0  0  0  0  0  0  0
   37.8890   28.7780   28.5200 C   0  0  0  0  0  0  0  0  0  0  0  0
   38.8370   29.5400   28.8790 O   0  0  0  0  0  0  0  0  0  0  0  0
   36.8410   28.3230   29.3690 N   0  0  0  0  0  0  0  0  0  0  0  0
   36.0860   27.6950   29.0140 H   0  0  0  0  0  0  0  0  0  0  0  0
   39.5410   27.2020   33.9380 O   0  0  0  0  0  0  0  0  0  0  0  0
   38.4200   26.5710   34.6990 P   0  0  1  0  0  0  0  0  0  0  0  0
   38.2230   27.3970   36.1870 O   0  0  0  0  0  0  0  0  0  0  0  0
   38.3640   28.3630   35.9780 H   0  0  0  0  0  0  0  0  0  0  0  0
   38.6430   24.9230   35.0020 O   0  0  0  0  0  0  0  0  0  0  0  0
   39.7970   22.8280   37.8100 C   0  0  0  0  0  0  0  0  0  0  0  0
   39.7870   23.3330   36.5100 C   0  0  0  0  0  0  0  0  0  0  0  0
   38.8430   24.2990   36.1750 C   0  0  0  0  0  0  0  0  0  0  0  0
   37.9650   24.7040   37.1520 N   0  0  0  0  0  0  0  0  0  0  0  0
   38.0120   24.1870   38.3950 C   0  0  0  0  0  0  0  0  0  0  0  0
   38.9310   23.2490   38.7160 N   0  0  0  0  0  0  0  0  0  0  0  0
   40.5610   22.0830   37.9840 H   0  0  0  0  0  0  0  0  0  0  0  0
   40.4350   23.0680   35.6940 H   0  0  0  0  0  0  0  0  0  0  0  0
   37.3210   24.5040   39.1750 H   0  0  0  0  0  0  0  0  0  0  0  0
  1 18  1  0  0  0  0
  2  3  1  0  0  0  0
  3  4  1  0  0  0  0
  4  5  2  0  0  0  0
  4  1  1  0  0  0  0
  5  9  1  0  0  0  0
  6 10  1  0  0  0  0
  6  5  1  0  0  0  0
  7  6  2  0  0  0  0
  8  7  1  0  0  0  0
  8  3  2  0  0  0  0
 11  7  1  0  0  0  0
 12 13  1  0  0  0  0
 13 14  2  0  0  0  0
 13 15  1  0  0  0  0
 15  8  1  0  0  0  0
 16 15  1  0  0  0  0
 18 17  2  6  0  0  0
 18 21  1  0  0  0  0
 18 19  1  0  0  0  0
 20 19  1  0  0  0  0
 21 24  1  0  0  0  0
 22 28  1  0  0  0  0
 22 27  1  0  0  0  0
 23 22  2  0  0  0  0
 24 23  1  0  0  0  0
 24 25  2  0  0  0  0
 25 26  1  0  0  0  0
 26 27  2  0  0  0  0
 26 30  1  0  0  0  0
 29 23  1  0  0  0  0
M  END
>  <minimizedAffinity>
-5.32810402

$$$$

 OpenBabel03272508133D

 30 31  0  0  0  0  0  0  0  0999 V2000
   37.7990   25.4120   35.3240 O   0  0  0  0  0  0  0  0  0  0  0  0
   39.5080   23.1620   34.5890 Cl  0  0  0  0  0  0  0  0  0  0  0  0
   38.9600   23.6420   36.2080 C   0  0  0  0  0  0  0  0  0  0  0  0
   38.1410   24.7370   36.4610 C   0  0  0  0  0  0  0  0  0  0  0  0
   37.7970   24.9870   37.7710 C   0  0  0  0  0  0  0  0  0  0  0  0
   38.2480   24.1840   38.7870 C   0  0  0  0  0  0  0  0  0  0  0  0
   39.0560   23.1000   38.5550 C   0  0  0  0  0  0  0  0  0  0  0  0
   39.4120   22.8300   37.2600 C   0  0  0  0  0  0  0  0  0  0  0  0
   37.1640   25.8480   37.8980 H   0  0  0  0  0  0  0  0  0  0  0  0
   37.9350   24.4430   39.7940 H   0  0  0  0  0  0  0  0  0  0  0  0
   39.4010   22.4790   39.3600 H   0  0  0  0  0  0  0  0  0  0  0  0
   42.0310   20.5900   36.6490 H   0  0  0  0  0  0  0  0  0  0  0  0
   41.6580   21.5900   36.8240 C   0  0  0  0  0  0  0  0  0  0  0  0
   42.4750   22.5590   36.8490 O   0  0  0  0  0  0  0  0  0  0  0  0
   40.2520   21.7040   37.0110 N   0  0  0  0  0  0  0  0  0  0  0  0
   39.6280   20.8680   36.9790 H   0  0  0  0  0  0  0  0  0  0  0  0
   36.6950   27.6660   34.7170 O   0  0  0  0  0  0  0  0  0  0  0  0
   38.0250   27.0170   34.9300 P   0  0  1  0  0  0  0  0  0  0  0  0
   38.7730   27.7180   36.3020 O   0  0  0  0  0  0  0  0  0  0  0  0
   38.0400   27.8600   36.9650 H   0  0  0  0  0  0  0  0  0  0  0  0
   39.0640   27.1420   33.6030 O   0  0  0  0  0  0  0  0  0  0  0  0
   42.6550   27.1110   32.7550 C   0  0  0  0  0  0  0  0  0  0  0  0
   41.2990   27.3910   32.5770 C   0  0  0  0  0  0  0  0  0  0  0  0
   40.3980   26.9850   33.5560 C   0  0  0  0  0  0  0  0  0  0  0  0
   40.8980   26.3250   34.6540 N   0  0  0  0  0  0  0  0  0  0  0  0
   42.2160   26.0760   34.7820 C   0  0  0  0  0  0  0  0  0  0  0  0
   43.0870   26.4720   33.8290 N   0  0  0  0  0  0  0  0  0  0  0  0
   43.2840   27.4600   31.9480 H   0  0  0  0  0  0  0  0  0  0  0  0
   40.8340   27.9000   31.7520 H   0  0  0  0  0  0  0  0  0  0  0  0
   42.6180   25.5540   35.6490 H   0  0  0  0  0  0  0  0  0  0  0  0
  1  4  1  0  0  0  0
  2  3  1  0  0  0  0
  3  4  2  0  0  0  0
  3  8  1  0  0  0  0
  4  5  1  0  0  0  0
  5  9  1  0  0  0  0
  5  6  2  0  0  0  0
  6 10  1  0  0  0  0
  7  6  1  0  0  0  0
  7 11  1  0  0  0  0
  8  7  2  0  0  0  0
 12 13  1  0  0  0  0
 13 14  2  0  0  0  0
 13 15  1  0  0  0  0
 15  8  1  0  0  0  0
 16 15  1  0  0  0  0
 18 17  2  6  0  0  0
 18  1  1  0  0  0  0
 18 19  1  0  0  0  0
 19 20  1  0  0  0  0
 21 18  1  0  0  0  0
 22 27  1  0  0  0  0
 23 22  2  0  0  0  0
 23 24  1  0  0  0  0
 24 21  1  0  0  0  0
 24 25  2  0  0  0  0
 25 26  1  0  0  0  0
 26 30  1  0  0  0  0
 27 26  2  0  0  0  0
 28 22  1  0  0  0  0
 29 23  1  0  0  0  0
M  END
>  <minimizedAffinity>
-5.22381639

$$$$

 OpenBabel03272508133D

 30 31  0  0  0  0  0  0  0  0999 V2000
   37.5000   27.4290   33.8410 O   0  0  0  0  0  0  0  0  0  0  0  0
   35.6200   29.6440   33.5470 Cl  0  0  0  0  0  0  0  0  0  0  0  0
   36.5430   28.8110   32.2800 C   0  0  0  0  0  0  0  0  0  0  0  0
   37.4200   27.7590   32.5180 C   0  0  0  0  0  0  0  0  0  0  0  0
   38.0670   27.2100   31.4320 C   0  0  0  0  0  0  0  0  0  0  0  0
   37.8530   27.6860   30.1650 C   0  0  0  0  0  0  0  0  0  0  0  0
   36.9900   28.7230   29.9130 C   0  0  0  0  0  0  0  0  0  0  0  0
   36.3340   29.2850   30.9750 C   0  0  0  0  0  0  0  0  0  0  0  0
   38.7320   26.4020   31.6850 H   0  0  0  0  0  0  0  0  0  0  0  0
   38.3980   27.2040   29.3590 H   0  0  0  0  0  0  0  0  0  0  0  0
   36.8300   29.0860   28.9150 H   0  0  0  0  0  0  0  0  0  0  0  0
   34.7540   32.3630   30.4410 H   0  0  0  0  0  0  0  0  0  0  0  0
   35.6340   31.7720   30.6570 C   0  0  0  0  0  0  0  0  0  0  0  0
   36.7440   32.3580   30.8340 O   0  0  0  0  0  0  0  0  0  0  0  0
   35.4350   30.3640   30.7210 N   0  0  0  0  0  0  0  0  0  0  0  0
   34.4950   29.9380   30.5660 H   0  0  0  0  0  0  0  0  0  0  0  0
   40.0690   27.2820   34.0500 O   0  0  0  0  0  0  0  0  0  0  0  0
   38.8000   26.8660   34.7210 P   0  0  1  0  0  0  0  0  0  0  0  0
   38.6910   27.6510   36.2400 O   0  0  0  0  0  0  0  0  0  0  0  0
   39.0390   28.5750   36.0910 H   0  0  0  0  0  0  0  0  0  0  0  0
   38.6620   25.1970   34.9460 O   0  0  0  0  0  0  0  0  0  0  0  0
   39.7540   22.8600   37.5830 C   0  0  0  0  0  0  0  0  0  0  0  0
   39.7630   23.4670   36.3270 C   0  0  0  0  0  0  0  0  0  0  0  0
   38.8410   24.4770   36.0660 C   0  0  0  0  0  0  0  0  0  0  0  0
   37.9670   24.8220   37.0690 N   0  0  0  0  0  0  0  0  0  0  0  0
   37.9960   24.2070   38.2680 C   0  0  0  0  0  0  0  0  0  0  0  0
   38.8930   23.2270   38.5160 N   0  0  0  0  0  0  0  0  0  0  0  0
   40.5010   22.0870   37.7010 H   0  0  0  0  0  0  0  0  0  0  0  0
   40.4100   23.2540   35.4950 H   0  0  0  0  0  0  0  0  0  0  0  0
   37.3080   24.4760   39.0670 H   0  0  0  0  0  0  0  0  0  0  0  0
  1 18  1  0  0  0  0
  3  4  1  0  0  0  0
  3  2  1  0  0  0  0
  4  1  1  0  0  0  0
  5  9  1  0  0  0  0
  5  4  2  0  0  0  0
  6  5  1  0  0  0  0
  7  6  2  0  0  0  0
  7  8  1  0  0  0  0
  8  3  2  0  0  0  0
 10  6  1  0  0  0  0
 11  7  1  0  0  0  0
 12 13  1  0  0  0  0
 13 15  1  0  0  0  0
 13 14  2  0  0  0  0
 15  8  1  0  0  0  0
 16 15  1  0  0  0  0
 18 17  2  6  0  0  0
 18 21  1  0  0  0  0
 18 19  1  0  0  0  0
 20 19  1  0  0  0  0
 21 24  1  0  0  0  0
 22 28  1  0  0  0  0
 22 27  1  0  0  0  0
 23 22  2  0  0  0  0
 24 23  1  0  0  0  0
 24 25  2  0  0  0  0
 25 26  1  0  0  0  0
 26 27  2  0  0  0  0
 26 30  1  0  0  0  0
 29 23  1  0  0  0  0
M  END
>  <minimizedAffinity>
-5.19302559

$$$$

 OpenBabel03272508133D

 30 31  0  0  0  0  0  0  0  0999 V2000
   39.2460   24.3270   35.8780 O   0  0  0  0  0  0  0  0  0  0  0  0
   37.9420   23.7030   33.3420 Cl  0  0  0  0  0  0  0  0  0  0  0  0
   37.9310   25.2380   34.2350 C   0  0  0  0  0  0  0  0  0  0  0  0
   38.5870   25.4410   35.4440 C   0  0  0  0  0  0  0  0  0  0  0  0
   38.4880   26.6880   36.0200 C   0  0  0  0  0  0  0  0  0  0  0  0
   37.7690   27.6910   35.4230 C   0  0  0  0  0  0  0  0  0  0  0  0
   37.1170   27.5070   34.2290 C   0  0  0  0  0  0  0  0  0  0  0  0
   37.1990   26.2760   33.6350 C   0  0  0  0  0  0  0  0  0  0  0  0
   39.0170   26.7790   36.9540 H   0  0  0  0  0  0  0  0  0  0  0  0
   37.7360   28.6470   35.9360 H   0  0  0  0  0  0  0  0  0  0  0  0
   36.5570   28.3010   33.7710 H   0  0  0  0  0  0  0  0  0  0  0  0
   36.1470   26.1530   30.2990 H   0  0  0  0  0  0  0  0  0  0  0  0
   36.8610   26.4380   31.0600 C   0  0  0  0  0  0  0  0  0  0  0  0
   37.9140   27.0560   30.7180 O   0  0  0  0  0  0  0  0  0  0  0  0
   36.5240   26.0770   32.3940 N   0  0  0  0  0  0  0  0  0  0  0  0
   35.6400   25.5670   32.6150 H   0  0  0  0  0  0  0  0  0  0  0  0
   37.9160   23.9430   38.0580 O   0  0  0  0  0  0  0  0  0  0  0  0
   38.8560   23.2710   37.1090 P   0  0  1  0  0  0  0  0  0  0  0  0
   38.0420   21.9710   36.3470 O   0  0  0  0  0  0  0  0  0  0  0  0
   37.1150   22.2990   36.1730 H   0  0  0  0  0  0  0  0  0  0  0  0
   40.2660   22.6940   37.8400 O   0  0  0  0  0  0  0  0  0  0  0  0
   43.4970   22.5290   36.0660 C   0  0  0  0  0  0  0  0  0  0  0  0
   42.3420   23.1290   36.5710 C   0  0  0  0  0  0  0  0  0  0  0  0
   41.4310   22.3430   37.2700 C   0  0  0  0  0  0  0  0  0  0  0  0
   41.7220   21.0090   37.4260 N   0  0  0  0  0  0  0  0  0  0  0  0
   42.8500   20.4730   36.9200 C   0  0  0  0  0  0  0  0  0  0  0  0
   43.7320   21.2400   36.2420 N   0  0  0  0  0  0  0  0  0  0  0  0
   44.1480   23.2100   35.5370 H   0  0  0  0  0  0  0  0  0  0  0  0
   42.0450   24.1590   36.4900 H   0  0  0  0  0  0  0  0  0  0  0  0
   43.0880   19.4170   37.0410 H   0  0  0  0  0  0  0  0  0  0  0  0
  1 18  1  0  0  0  0
  2  3  1  0  0  0  0
  3  4  1  0  0  0  0
  4  1  1  0  0  0  0
  4  5  2  0  0  0  0
  5  9  1  0  0  0  0
  6 10  1  0  0  0  0
  6  5  1  0  0  0  0
  7  6  2  0  0  0  0
  8  7  1  0  0  0  0
  8  3  2  0  0  0  0
 11  7  1  0  0  0  0
 12 13  1  0  0  0  0
 13 15  1  0  0  0  0
 14 13  2  0  0  0  0
 15 16  1  0  0  0  0
 15  8  1  0  0  0  0
 18 21  1  0  0  0  0
 18 17  2  1  0  0  0
 19 18  1  0  0  0  0
 20 19  1  0  0  0  0
 22 27  2  0  0  0  0
 22 23  1  0  0  0  0
 23 24  2  0  0  0  0
 24 25  1  0  0  0  0
 24 21  1  0  0  0  0
 26 30  1  0  0  0  0
 26 25  2  0  0  0  0
 27 26  1  0  0  0  0
 28 22  1  0  0  0  0
 29 23  1  0  0  0  0
M  END
>  <minimizedAffinity>
-5.12584543

$$$$

 OpenBabel03272508133D

 30 31  0  0  0  0  0  0  0  0999 V2000
   37.7750   27.7240   31.8970 O   0  0  0  0  0  0  0  0  0  0  0  0
   40.6350   27.1500   32.0130 Cl  0  0  0  0  0  0  0  0  0  0  0  0
   39.4670   27.1890   33.3500 C   0  0  0  0  0  0  0  0  0  0  0  0
   38.1150   27.4740   33.1960 C   0  0  0  0  0  0  0  0  0  0  0  0
   37.3290   27.4680   34.3270 C   0  0  0  0  0  0  0  0  0  0  0  0
   37.8630   27.1920   35.5590 C   0  0  0  0  0  0  0  0  0  0  0  0
   39.1950   26.9070   35.7280 C   0  0  0  0  0  0  0  0  0  0  0  0
   39.9970   26.9070   34.6190 C   0  0  0  0  0  0  0  0  0  0  0  0
   36.2940   27.6980   34.1390 H   0  0  0  0  0  0  0  0  0  0  0  0
   37.1820   27.2050   36.4050 H   0  0  0  0  0  0  0  0  0  0  0  0
   39.6000   26.6910   36.6990 H   0  0  0  0  0  0  0  0  0  0  0  0
   43.1540   25.4600   35.0610 H   0  0  0  0  0  0  0  0  0  0  0  0
   42.0800   25.3830   34.9560 C   0  0  0  0  0  0  0  0  0  0  0  0
   41.5370   24.2380   34.9900 O   0  0  0  0  0  0  0  0  0  0  0  0
   41.3830   26.6120   34.7870 N   0  0  0  0  0  0  0  0  0  0  0  0
   41.8870   27.5260   34.7670 H   0  0  0  0  0  0  0  0  0  0  0  0
   35.4310   28.7430   31.5290 O   0  0  0  0  0  0  0  0  0  0  0  0
   36.2950   27.5880   31.1390 P   0  0  1  0  0  0  0  0  0  0  0  0
   36.6360   27.6880   29.4630 O   0  0  0  0  0  0  0  0  0  0  0  0
   36.7770   28.6590   29.2750 H   0  0  0  0  0  0  0  0  0  0  0  0
   35.6120   26.0800   31.4790 O   0  0  0  0  0  0  0  0  0  0  0  0
   36.3210   22.4640   31.2890 C   0  0  0  0  0  0  0  0  0  0  0  0
   35.5820   23.6100   31.5860 C   0  0  0  0  0  0  0  0  0  0  0  0
   36.1290   24.8540   31.2870 C   0  0  0  0  0  0  0  0  0  0  0  0
   37.3770   24.8850   30.7110 N   0  0  0  0  0  0  0  0  0  0  0  0
   38.0530   23.7510   30.4420 C   0  0  0  0  0  0  0  0  0  0  0  0
   37.5180   22.5450   30.7340 N   0  0  0  0  0  0  0  0  0  0  0  0
   35.8230   21.5420   31.5530 H   0  0  0  0  0  0  0  0  0  0  0  0
   34.6070   23.6690   32.0350 H   0  0  0  0  0  0  0  0  0  0  0  0
   39.0410   23.7680   29.9840 H   0  0  0  0  0  0  0  0  0  0  0  0
  1  4  1  0  0  0  0
  2  3  1  0  0  0  0
  3  8  1  0  0  0  0
  4  3  2  0  0  0  0
  4  5  1  0  0  0  0
  5  6  2  0  0  0  0
  6  7  1  0  0  0  0
  6 10  1  0  0  0  0
  7 11  1  0  0  0  0
  8 15  1  0  0  0  0
  8  7  2  0  0  0  0
  9  5  1  0  0  0  0
 13 14  2  0  0  0  0
 13 12  1  0  0  0  0
 15 13  1  0  0  0  0
 16 15  1  0  0  0  0
 18 21  1  0  0  0  0
 18 17  2  1  0  0  0
 18  1  1  0  0  0  0
 19 18  1  0  0  0  0
 20 19  1  0  0  0  0
 22 28  1  0  0  0  0
 22 23  1  0  0  0  0
 23 29  1  0  0  0  0
 24 21  1  0  0  0  0
 24 23  2  0  0  0  0
 25 24  1  0  0  0  0
 26 25  2  0  0  0  0
 26 27  1  0  0  0  0
 27 22  2  0  0  0  0
 30 26  1  0  0  0  0
M  END
>  <minimizedAffinity>
-5.12454367

$$$$

 OpenBabel03272508133D

 30 31  0  0  0  0  0  0  0  0999 V2000
   37.7910   25.3290   35.3330 O   0  0  0  0  0  0  0  0  0  0  0  0
   39.4820   23.0430   34.6690 Cl  0  0  0  0  0  0  0  0  0  0  0  0
   38.9630   23.5970   36.2750 C   0  0  0  0  0  0  0  0  0  0  0  0
   38.1510   24.7040   36.4920 C   0  0  0  0  0  0  0  0  0  0  0  0
   37.8310   25.0130   37.7960 C   0  0  0  0  0  0  0  0  0  0  0  0
   38.2970   24.2550   38.8390 C   0  0  0  0  0  0  0  0  0  0  0  0
   39.0980   23.1590   38.6410 C   0  0  0  0  0  0  0  0  0  0  0  0
   39.4310   22.8300   37.3540 C   0  0  0  0  0  0  0  0  0  0  0  0
   37.2020   25.8820   37.8960 H   0  0  0  0  0  0  0  0  0  0  0  0
   38.0030   24.5600   39.8390 H   0  0  0  0  0  0  0  0  0  0  0  0
   39.4560   22.5730   39.4670 H   0  0  0  0  0  0  0  0  0  0  0  0
   42.0340   20.5570   36.8000 H   0  0  0  0  0  0  0  0  0  0  0  0
   41.6660   21.5650   36.9380 C   0  0  0  0  0  0  0  0  0  0  0  0
   42.4870   22.5310   36.9100 O   0  0  0  0  0  0  0  0  0  0  0  0
   40.2630   21.6920   37.1400 N   0  0  0  0  0  0  0  0  0  0  0  0
   39.6370   20.8570   37.1530 H   0  0  0  0  0  0  0  0  0  0  0  0
   37.6990   27.9040   35.5020 O   0  0  0  0  0  0  0  0  0  0  0  0
   38.3000   26.7890   34.7080 P   0  0  1  0  0  0  0  0  0  0  0  0
   39.9990   26.8050   34.9230 O   0  0  0  0  0  0  0  0  0  0  0  0
   40.1460   27.0290   35.8850 H   0  0  0  0  0  0  0  0  0  0  0  0
   37.9470   26.8620   33.0560 O   0  0  0  0  0  0  0  0  0  0  0  0
   36.6920   23.9770   31.1290 C   0  0  0  0  0  0  0  0  0  0  0  0
   37.5840   24.6910   31.9300 C   0  0  0  0  0  0  0  0  0  0  0  0
   37.2550   25.9920   32.3010 C   0  0  0  0  0  0  0  0  0  0  0  0
   36.0610   26.5040   31.8520 N   0  0  0  0  0  0  0  0  0  0  0  0
   35.2320   25.7760   31.0790 C   0  0  0  0  0  0  0  0  0  0  0  0
   35.5550   24.5140   30.7230 N   0  0  0  0  0  0  0  0  0  0  0  0
   37.0250   22.9770   30.8890 H   0  0  0  0  0  0  0  0  0  0  0  0
   38.5310   24.3620   32.3180 H   0  0  0  0  0  0  0  0  0  0  0  0
   34.2840   26.1750   30.7210 H   0  0  0  0  0  0  0  0  0  0  0  0
  1  4  1  0  0  0  0
  2  3  1  0  0  0  0
  3  4  2  0  0  0  0
  3  8  1  0  0  0  0
  4  5  1  0  0  0  0
  5  9  1  0  0  0  0
  5  6  2  0  0  0  0
  6 10  1  0  0  0  0
  7  6  1  0  0  0  0
  7 11  1  0  0  0  0
  8  7  2  0  0  0  0
 12 13  1  0  0  0  0
 13 15  1  0  0  0  0
 14 13  2  0  0  0  0
 15 16  1  0  0  0  0
 15  8  1  0  0  0  0
 18 19  1  0  0  0  0
 18  1  1  0  0  0  0
 18 17  2  1  0  0  0
 19 20  1  0  0  0  0
 21 18  1  0  0  0  0
 22 23  1  0  0  0  0
 23 24  2  0  0  0  0
 23 29  1  0  0  0  0
 24 21  1  0  0  0  0
 25 24  1  0  0  0  0
 26 25  2  0  0  0  0
 27 26  1  0  0  0  0
 27 22  2  0  0  0  0
 28 22  1  0  0  0  0
 30 26  1  0  0  0  0
M  END
>  <minimizedAffinity>
-5.09496117

$$$$

 OpenBabel03272508133D

 30 31  0  0  0  0  0  0  0  0999 V2000
   38.2430   24.8130   32.5590 O   0  0  0  0  0  0  0  0  0  0  0  0
   37.8050   22.8620   34.6870 Cl  0  0  0  0  0  0  0  0  0  0  0  0
   38.1170   24.6040   34.8390 C   0  0  0  0  0  0  0  0  0  0  0  0
   38.3140   25.4580   33.7600 C   0  0  0  0  0  0  0  0  0  0  0  0
   38.5460   26.7880   34.0350 C   0  0  0  0  0  0  0  0  0  0  0  0
   38.5810   27.2500   35.3250 C   0  0  0  0  0  0  0  0  0  0  0  0
   38.3880   26.4200   36.4010 C   0  0  0  0  0  0  0  0  0  0  0  0
   38.1550   25.0930   36.1550 C   0  0  0  0  0  0  0  0  0  0  0  0
   38.6920   27.3940   33.1570 H   0  0  0  0  0  0  0  0  0  0  0  0
   38.7700   28.3100   35.4630 H   0  0  0  0  0  0  0  0  0  0  0  0
   38.4170   26.7950   37.4070 H   0  0  0  0  0  0  0  0  0  0  0  0
   38.3800   22.7500   38.7450 H   0  0  0  0  0  0  0  0  0  0  0  0
   38.8060   23.2780   37.9030 C   0  0  0  0  0  0  0  0  0  0  0  0
   39.9970   23.0240   37.5520 O   0  0  0  0  0  0  0  0  0  0  0  0
   37.9530   24.2250   37.2680 N   0  0  0  0  0  0  0  0  0  0  0  0
   36.9790   24.3910   37.6030 H   0  0  0  0  0  0  0  0  0  0  0  0
   36.5560   26.2710   31.2570 O   0  0  0  0  0  0  0  0  0  0  0  0
   37.0550   24.8680   31.3890 P   0  0  1  0  0  0  0  0  0  0  0  0
   37.8350   24.4160   29.9320 O   0  0  0  0  0  0  0  0  0  0  0  0
   38.3350   25.2260   29.6330 H   0  0  0  0  0  0  0  0  0  0  0  0
   35.8450   23.7440   31.7460 O   0  0  0  0  0  0  0  0  0  0  0  0
   35.3000   20.1100   32.0780 C   0  0  0  0  0  0  0  0  0  0  0  0
   35.0320   21.4670   32.2610 C   0  0  0  0  0  0  0  0  0  0  0  0
   35.8980   22.4020   31.7030 C   0  0  0  0  0  0  0  0  0  0  0  0
   36.9800   21.9320   30.9970 N   0  0  0  0  0  0  0  0  0  0  0  0
   37.1990   20.6110   30.8460 C   0  0  0  0  0  0  0  0  0  0  0  0
   36.3550   19.7070   31.3900 N   0  0  0  0  0  0  0  0  0  0  0  0
   34.5780   19.4540   32.5440 H   0  0  0  0  0  0  0  0  0  0  0  0
   34.2120   21.9110   32.7980 H   0  0  0  0  0  0  0  0  0  0  0  0
   38.0540   20.2320   30.2870 H   0  0  0  0  0  0  0  0  0  0  0  0
  1  4  1  0  0  0  0
  2  3  1  0  0  0  0
  3  8  1  0  0  0  0
  4  5  1  0  0  0  0
  4  3  2  0  0  0  0
  5  6  2  0  0  0  0
  6 10  1  0  0  0  0
  6  7  1  0  0  0  0
  7 11  1  0  0  0  0
  8  7  2  0  0  0  0
  8 15  1  0  0  0  0
  9  5  1  0  0  0  0
 13 12  1  0  0  0  0
 14 13  2  0  0  0  0
 15 16  1  0  0  0  0
 15 13  1  0  0  0  0
 18 17  2  6  0  0  0
 18 21  1  0  0  0  0
 18  1  1  0  0  0  0
 19 18  1  0  0  0  0
 20 19  1  0  0  0  0
 22 23  1  0  0  0  0
 22 28  1  0  0  0  0
 23 29  1  0  0  0  0
 24 21  1  0  0  0  0
 24 23  2  0  0  0  0
 25 24  1  0  0  0  0
 26 25  2  0  0  0  0
 26 27  1  0  0  0  0
 27 22  2  0  0  0  0
 30 26  1  0  0  0  0
M  END
>  <minimizedAffinity>
-5.07330036

$$$$

 OpenBabel03272508133D

 30 31  0  0  0  0  0  0  0  0999 V2000
   37.8230   24.2720   34.6190 O   0  0  0  0  0  0  0  0  0  0  0  0
   39.7970   22.1200   34.5900 Cl  0  0  0  0  0  0  0  0  0  0  0  0
   39.1350   22.9870   35.9920 C   0  0  0  0  0  0  0  0  0  0  0  0
   38.1920   24.0040   35.9060 C   0  0  0  0  0  0  0  0  0  0  0  0
   37.7720   24.5850   37.0830 C   0  0  0  0  0  0  0  0  0  0  0  0
   38.2670   24.1730   38.2920 C   0  0  0  0  0  0  0  0  0  0  0  0
   39.1980   23.1700   38.3950 C   0  0  0  0  0  0  0  0  0  0  0  0
   39.6310   22.5760   37.2400 C   0  0  0  0  0  0  0  0  0  0  0  0
   37.0430   25.3660   36.9460 H   0  0  0  0  0  0  0  0  0  0  0  0
   37.8880   24.6770   39.1770 H   0  0  0  0  0  0  0  0  0  0  0  0
   39.5770   22.8560   39.3500 H   0  0  0  0  0  0  0  0  0  0  0  0
   42.4940   20.5630   37.2680 H   0  0  0  0  0  0  0  0  0  0  0  0
   42.0040   21.5140   37.1140 C   0  0  0  0  0  0  0  0  0  0  0  0
   42.6960   22.5140   36.7530 O   0  0  0  0  0  0  0  0  0  0  0  0
   40.5990   21.5320   37.3390 N   0  0  0  0  0  0  0  0  0  0  0  0
   40.0830   20.6740   37.6350 H   0  0  0  0  0  0  0  0  0  0  0  0
   39.4730   26.0580   33.7490 O   0  0  0  0  0  0  0  0  0  0  0  0
   38.0320   25.6600   33.7180 P   0  0  1  0  0  0  0  0  0  0  0  0
   37.6090   25.2270   32.1160 O   0  0  0  0  0  0  0  0  0  0  0  0
   38.3970   24.7310   31.7550 H   0  0  0  0  0  0  0  0  0  0  0  0
   36.9810   26.8650   34.2660 O   0  0  0  0  0  0  0  0  0  0  0  0
   35.5080   30.0990   33.2740 C   0  0  0  0  0  0  0  0  0  0  0  0
   35.7800   29.0200   34.1170 C   0  0  0  0  0  0  0  0  0  0  0  0
   36.5860   27.9890   33.6450 C   0  0  0  0  0  0  0  0  0  0  0  0
   37.0730   28.0910   32.3640 N   0  0  0  0  0  0  0  0  0  0  0  0
   36.7830   29.1520   31.5860 C   0  0  0  0  0  0  0  0  0  0  0  0
   36.0000   30.1510   32.0490 N   0  0  0  0  0  0  0  0  0  0  0  0
   34.8750   30.8530   33.7200 H   0  0  0  0  0  0  0  0  0  0  0  0
   35.4380   28.8680   35.1260 H   0  0  0  0  0  0  0  0  0  0  0  0
   37.1660   29.2400   30.5700 H   0  0  0  0  0  0  0  0  0  0  0  0
  1  4  1  0  0  0  0
  2  3  1  0  0  0  0
  3  8  1  0  0  0  0
  4  3  2  0  0  0  0
  4  5  1  0  0  0  0
  5  6  2  0  0  0  0
  6  7  1  0  0  0  0
  6 10  1  0  0  0  0
  7 11  1  0  0  0  0
  8 15  1  0  0  0  0
  8  7  2  0  0  0  0
  9  5  1  0  0  0  0
 13 12  1  0  0  0  0
 13 15  1  0  0  0  0
 14 13  2  0  0  0  0
 15 16  1  0  0  0  0
 18 17  2  1  0  0  0
 18 21  1  0  0  0  0
 18  1  1  0  0  0  0
 19 18  1  0  0  0  0
 20 19  1  0  0  0  0
 22 28  1  0  0  0  0
 22 23  1  0  0  0  0
 23 29  1  0  0  0  0
 24 23  2  0  0  0  0
 24 21  1  0  0  0  0
 25 24  1  0  0  0  0
 26 27  1  0  0  0  0
 26 25  2  0  0  0  0
 27 22  2  0  0  0  0
 30 26  1  0  0  0  0
M  END
>  <minimizedAffinity>
-5.00597382

$$$$

 OpenBabel03272508133D

 30 31  0  0  0  0  0  0  0  0999 V2000
   38.4720   23.8880   32.8360 O   0  0  0  0  0  0  0  0  0  0  0  0
   38.4940   26.8080   32.8760 Cl  0  0  0  0  0  0  0  0  0  0  0  0
   37.2590   25.7270   32.1980 C   0  0  0  0  0  0  0  0  0  0  0  0
   37.3360   24.3390   32.2270 C   0  0  0  0  0  0  0  0  0  0  0  0
   36.2990   23.6320   31.6600 C   0  0  0  0  0  0  0  0  0  0  0  0
   35.2320   24.2740   31.0880 C   0  0  0  0  0  0  0  0  0  0  0  0
   35.1400   25.6430   31.0520 C   0  0  0  0  0  0  0  0  0  0  0  0
   36.1570   26.3700   31.6100 C   0  0  0  0  0  0  0  0  0  0  0  0
   36.4210   22.5630   31.7140 H   0  0  0  0  0  0  0  0  0  0  0  0
   34.4530   23.6500   30.6610 H   0  0  0  0  0  0  0  0  0  0  0  0
   34.2970   26.1340   30.6020 H   0  0  0  0  0  0  0  0  0  0  0  0
   36.2570   29.7820   30.8360 H   0  0  0  0  0  0  0  0  0  0  0  0
   36.4450   28.7460   30.5880 C   0  0  0  0  0  0  0  0  0  0  0  0
   36.9710   28.4640   29.4700 O   0  0  0  0  0  0  0  0  0  0  0  0
   36.0690   27.7930   31.5760 N   0  0  0  0  0  0  0  0  0  0  0  0
   35.6390   28.0870   32.4810 H   0  0  0  0  0  0  0  0  0  0  0  0
   38.5790   21.3560   32.3400 O   0  0  0  0  0  0  0  0  0  0  0  0
   38.8390   22.3660   33.4110 P   0  0  1  0  0  0  0  0  0  0  0  0
   40.5190   22.4020   33.7450 O   0  0  0  0  0  0  0  0  0  0  0  0
   40.9710   22.3080   32.8600 H   0  0  0  0  0  0  0  0  0  0  0  0
   37.9920   22.0730   34.8440 O   0  0  0  0  0  0  0  0  0  0  0  0
   37.9150   23.4890   38.2500 C   0  0  0  0  0  0  0  0  0  0  0  0
   37.4030   23.1150   37.0070 C   0  0  0  0  0  0  0  0  0  0  0  0
   38.2550   22.5130   36.0860 C   0  0  0  0  0  0  0  0  0  0  0  0
   39.5650   22.3190   36.4560 N   0  0  0  0  0  0  0  0  0  0  0  0
   40.0140   22.6970   37.6680 C   0  0  0  0  0  0  0  0  0  0  0  0
   39.1830   23.2810   38.5590 N   0  0  0  0  0  0  0  0  0  0  0  0
   37.1860   23.9490   38.9020 H   0  0  0  0  0  0  0  0  0  0  0  0
   36.3970   23.2330   36.6450 H   0  0  0  0  0  0  0  0  0  0  0  0
   41.0500   22.5460   37.9680 H   0  0  0  0  0  0  0  0  0  0  0  0
  1 18  1  0  0  0  0
  3  4  1  0  0  0  0
  3  2  1  0  0  0  0
  4  1  1  0  0  0  0
  5  9  1  0  0  0  0
  5  4  2  0  0  0  0
  6  5  1  0  0  0  0
  7  6  2  0  0  0  0
  7  8  1  0  0  0  0
  8  3  2  0  0  0  0
 10  6  1  0  0  0  0
 11  7  1  0  0  0  0
 13 12  1  0  0  0  0
 13 15  1  0  0  0  0
 14 13  2  0  0  0  0
 15  8  1  0  0  0  0
 15 16  1  0  0  0  0
 18 17  2  6  0  0  0
 18 19  1  0  0  0  0
 18 21  1  0  0  0  0
 20 19  1  0  0  0  0
 21 24  1  0  0  0  0
 22 27  1  0  0  0  0
 22 28  1  0  0  0  0
 23 22  2  0  0  0  0
 24 25  2  0  0  0  0
 24 23  1  0  0  0  0
 25 26  1  0  0  0  0
 26 30  1  0  0  0  0
 26 27  2  0  0  0  0
 29 23  1  0  0  0  0
M  END
>  <minimizedAffinity>
-4.88891077

$$$$
