
 OpenBabel03272510143D

 24 25  0  0  0  0  0  0  0  0999 V2000
   37.3840   29.4260   51.1450 Br  0  0  0  0  0  0  0  0  0  0  0  0
   35.9710   29.4150   49.8460 C   0  0  0  0  0  0  0  0  0  0  0  0
   35.9740   30.3180   48.8020 C   0  0  0  0  0  0  0  0  0  0  0  0
   34.9240   30.2490   47.9050 C   0  0  0  0  0  0  0  0  0  0  0  0
   33.8980   29.3250   48.0220 C   0  0  0  0  0  0  0  0  0  0  0  0
   33.9400   28.4480   49.0770 C   0  0  0  0  0  0  0  0  0  0  0  0
   34.9760   28.4960   49.9840 C   0  0  0  0  0  0  0  0  0  0  0  0
   34.9780   30.9840   47.1030 H   0  0  0  0  0  0  0  0  0  0  0  0
   33.1220   27.7460   49.1290 H   0  0  0  0  0  0  0  0  0  0  0  0
   34.9070   27.7610   50.7720 H   0  0  0  0  0  0  0  0  0  0  0  0
   38.0490   33.2580   49.4190 C   0  0  0  0  0  0  0  0  0  0  0  0
   39.0620   33.1720   48.4130 C   0  0  0  0  0  0  0  0  0  0  0  0
   38.9960   32.0940   47.5480 C   0  0  0  0  0  0  0  0  0  0  0  0
   37.9870   31.1810   47.6930 N   0  0  0  0  0  0  0  0  0  0  0  0
   37.0470   31.3010   48.6600 C   0  0  0  0  0  0  0  0  0  0  0  0
   37.0790   32.3380   49.5200 N   0  0  0  0  0  0  0  0  0  0  0  0
   38.0970   34.1020   50.0980 H   0  0  0  0  0  0  0  0  0  0  0  0
   39.8420   33.9200   48.3380 H   0  0  0  0  0  0  0  0  0  0  0  0
   39.7370   31.9650   46.7570 H   0  0  0  0  0  0  0  0  0  0  0  0
   32.6210   28.4440   44.9020 H   0  0  0  0  0  0  0  0  0  0  0  0
   33.1120   28.6330   45.8330 C   0  0  0  0  0  0  0  0  0  0  0  0
   34.0180   27.8310   45.4890 O   0  0  0  0  0  0  0  0  0  0  0  0
   32.9210   29.4170   47.0080 N   0  0  0  0  0  0  0  0  0  0  0  0
   32.0290   29.9410   46.8720 H   0  0  0  0  0  0  0  0  0  0  0  0
  2  7  1  0  0  0  0
  2  1  1  0  0  0  0
  3  2  2  0  0  0  0
  4  5  2  0  0  0  0
  4  3  1  0  0  0  0
  5  6  1  0  0  0  0
  6  9  1  0  0  0  0
  6  7  2  0  0  0  0
  7 10  1  0  0  0  0
  8  4  1  0  0  0  0
 11 16  1  0  0  0  0
 11 17  1  0  0  0  0
 12 11  2  0  0  0  0
 13 14  2  0  0  0  0
 13 12  1  0  0  0  0
 14 15  1  0  0  0  0
 15  3  1  0  0  0  0
 15 16  2  0  0  0  0
 18 12  1  0  0  0  0
 19 13  1  0  0  0  0
 20 21  1  0  0  0  0
 21 23  1  0  0  0  0
 22 21  2  0  0  0  0
 23  5  1  0  0  0  0
 24 23  1  0  0  0  0
M  END
>  <minimizedAffinity>
-5.45368242

>  <minimizedRMSD>
0.485066235

$$$$
