
 OpenBabel03272509063D

 29 30  0  0  0  0  0  0  0  0999 V2000
   34.9310   29.9290   34.0420 C   0  0  0  0  0  3  0  0  0  0  0  0
   35.5170   28.7680   34.1310 C   0  0  0  0  0  3  0  0  0  0  0  0
   32.2300   30.2970   36.4730 C   0  0  0  0  0  0  0  0  0  0  0  0
   32.6880   31.3840   37.2490 C   0  0  0  0  0  0  0  0  0  0  0  0
   33.9300   31.9510   36.8980 C   0  0  0  0  0  0  0  0  0  0  0  0
   34.5820   31.4070   35.8420 N   0  0  0  0  0  0  0  0  0  0  0  0
   34.1150   30.3850   35.1400 C   0  0  0  0  0  0  0  0  0  0  0  0
   32.9440   29.8270   35.4490 N   0  0  0  0  0  0  0  0  0  0  0  0
   31.2670   29.8750   36.7650 H   0  0  0  0  0  0  0  0  0  0  0  0
   32.1210   31.7690   38.0750 H   0  0  0  0  0  0  0  0  0  0  0  0
   34.5340   35.0350   38.5210 H   0  0  0  0  0  0  0  0  0  0  0  0
   34.0120   34.2410   38.0110 C   0  0  0  0  0  0  0  0  0  0  0  0
   32.7940   34.4640   37.8130 O   0  0  0  0  0  0  0  0  0  0  0  0
   34.5250   33.0290   37.5610 N   0  0  0  0  0  0  0  0  0  0  0  0
   35.5520   32.9750   37.7930 H   0  0  0  0  0  0  0  0  0  0  0  0
   36.3840   28.1100   33.1490 C   0  0  0  0  0  0  0  0  0  0  0  0
   35.8800   27.1890   32.7420 H   0  0  0  0  0  0  0  0  0  0  0  0
   36.6000   28.8150   32.3190 H   0  0  0  0  0  0  0  0  0  0  0  0
   37.6550   27.6060   33.7500 C   0  0  0  0  0  0  0  0  0  0  0  0
   38.7810   27.1960   33.0600 C   0  0  0  0  0  0  0  0  0  0  0  0
   39.8980   26.7500   33.7380 C   0  0  0  0  0  0  0  0  0  0  0  0
   39.9210   26.7000   35.1440 C   0  0  0  0  0  0  0  0  0  0  0  0
   38.7990   27.1090   35.8420 C   0  0  0  0  0  0  0  0  0  0  0  0
   37.6840   27.5540   35.1450 C   0  0  0  0  0  0  0  0  0  0  0  0
   38.7190   27.2500   31.9900 H   0  0  0  0  0  0  0  0  0  0  0  0
   40.7650   26.4350   33.1780 H   0  0  0  0  0  0  0  0  0  0  0  0
   40.8150   26.3460   35.6090 H   0  0  0  0  0  0  0  0  0  0  0  0
   38.8240   27.0680   36.9220 H   0  0  0  0  0  0  0  0  0  0  0  0
   36.8490   27.8560   35.7500 H   0  0  0  0  0  0  0  0  0  0  0  0
  1  2  2  0  0  0  0
  1  7  1  0  0  0  0
  3  9  1  0  0  0  0
  3  4  1  0  0  0  0
  4 10  1  0  0  0  0
  5  4  2  0  0  0  0
  5 14  1  0  0  0  0
  6  5  1  0  0  0  0
  7  8  1  0  0  0  0
  7  6  2  0  0  0  0
  8  3  2  0  0  0  0
 12 11  1  0  0  0  0
 13 12  2  0  0  0  0
 14 15  1  0  0  0  0
 14 12  1  0  0  0  0
 16 19  1  0  0  0  0
 16  2  1  0  0  0  0
 17 16  1  0  0  0  0
 18 16  1  0  0  0  0
 19 24  1  0  0  0  0
 20 21  1  0  0  0  0
 20 19  2  0  0  0  0
 21 22  2  0  0  0  0
 22 27  1  0  0  0  0
 22 23  1  0  0  0  0
 23 28  1  0  0  0  0
 24 29  1  0  0  0  0
 24 23  2  0  0  0  0
 25 20  1  0  0  0  0
 26 21  1  0  0  0  0
M  END
>  <minimizedAffinity>
-5.30691814

$$$$

 OpenBabel03272509063D

 29 30  0  0  0  0  0  0  0  0999 V2000
   36.7560   27.8620   33.4500 C   0  0  0  0  0  3  0  0  0  0  0  0
   36.0290   28.6120   34.2290 C   0  0  0  0  0  3  0  0  0  0  0  0
   39.9050   26.1740   34.2100 C   0  0  0  0  0  0  0  0  0  0  0  0
   39.5220   25.3110   35.2590 C   0  0  0  0  0  0  0  0  0  0  0  0
   38.1730   25.3490   35.6690 C   0  0  0  0  0  0  0  0  0  0  0  0
   37.3540   26.2120   35.0210 N   0  0  0  0  0  0  0  0  0  0  0  0
   37.7560   27.0060   34.0380 C   0  0  0  0  0  0  0  0  0  0  0  0
   39.0250   26.9920   33.6300 N   0  0  0  0  0  0  0  0  0  0  0  0
   40.9530   26.1260   33.9120 H   0  0  0  0  0  0  0  0  0  0  0  0
   40.2220   24.6490   35.7320 H   0  0  0  0  0  0  0  0  0  0  0  0
   37.3150   22.6630   37.8030 H   0  0  0  0  0  0  0  0  0  0  0  0
   37.7660   23.2100   36.9910 C   0  0  0  0  0  0  0  0  0  0  0  0
   38.4940   22.5180   36.2400 O   0  0  0  0  0  0  0  0  0  0  0  0
   37.6330   24.5620   36.6910 N   0  0  0  0  0  0  0  0  0  0  0  0
   36.9980   25.0180   37.3980 H   0  0  0  0  0  0  0  0  0  0  0  0
   34.9650   29.5480   33.8550 C   0  0  0  0  0  0  0  0  0  0  0  0
   35.3270   30.2440   33.0470 H   0  0  0  0  0  0  0  0  0  0  0  0
   34.0850   28.9780   33.4900 H   0  0  0  0  0  0  0  0  0  0  0  0
   34.5720   30.4520   34.9780 C   0  0  0  0  0  0  0  0  0  0  0  0
   33.3150   30.5580   35.5420 C   0  0  0  0  0  0  0  0  0  0  0  0
   33.0820   31.4360   36.5820 C   0  0  0  0  0  0  0  0  0  0  0  0
   34.1150   32.2430   37.0950 C   0  0  0  0  0  0  0  0  0  0  0  0
   35.3760   32.1410   36.5370 C   0  0  0  0  0  0  0  0  0  0  0  0
   35.5940   31.2550   35.4910 C   0  0  0  0  0  0  0  0  0  0  0  0
   32.5580   29.9250   35.1190 H   0  0  0  0  0  0  0  0  0  0  0  0
   32.0920   31.5020   37.0060 H   0  0  0  0  0  0  0  0  0  0  0  0
   33.8710   32.9010   37.9000 H   0  0  0  0  0  0  0  0  0  0  0  0
   36.1650   32.7640   36.9360 H   0  0  0  0  0  0  0  0  0  0  0  0
   36.5960   31.2280   35.1060 H   0  0  0  0  0  0  0  0  0  0  0  0
  1  7  1  0  0  0  0
  1  2  2  0  0  0  0
  3  4  1  0  0  0  0
  4  5  2  0  0  0  0
  4 10  1  0  0  0  0
  5 14  1  0  0  0  0
  6  5  1  0  0  0  0
  7  6  2  0  0  0  0
  8  7  1  0  0  0  0
  8  3  2  0  0  0  0
  9  3  1  0  0  0  0
 12 11  1  0  0  0  0
 13 12  2  0  0  0  0
 14 12  1  0  0  0  0
 14 15  1  0  0  0  0
 16  2  1  0  0  0  0
 16 19  1  0  0  0  0
 17 16  1  0  0  0  0
 18 16  1  0  0  0  0
 19 24  2  0  0  0  0
 19 20  1  0  0  0  0
 20 21  2  0  0  0  0
 21 26  1  0  0  0  0
 21 22  1  0  0  0  0
 22 27  1  0  0  0  0
 23 28  1  0  0  0  0
 23 22  2  0  0  0  0
 24 23  1  0  0  0  0
 25 20  1  0  0  0  0
 29 24  1  0  0  0  0
M  END
>  <minimizedAffinity>
-5.1736207

$$$$

 OpenBabel03272509063D

 29 30  0  0  0  0  0  0  0  0999 V2000
   36.6310   28.4520   34.5150 C   0  0  0  0  0  3  0  0  0  0  0  0
   35.9300   28.9550   33.5380 C   0  0  0  0  0  3  0  0  0  0  0  0
   37.6030   25.1770   33.2230 C   0  0  0  0  0  0  0  0  0  0  0  0
   37.9820   24.5030   34.4040 C   0  0  0  0  0  0  0  0  0  0  0  0
   37.8880   25.2190   35.6150 C   0  0  0  0  0  0  0  0  0  0  0  0
   37.4400   26.4950   35.5460 N   0  0  0  0  0  0  0  0  0  0  0  0
   37.0930   27.0900   34.4140 C   0  0  0  0  0  0  0  0  0  0  0  0
   37.1730   26.4390   33.2530 N   0  0  0  0  0  0  0  0  0  0  0  0
   37.6860   24.6030   32.2990 H   0  0  0  0  0  0  0  0  0  0  0  0
   38.3300   23.4870   34.3900 H   0  0  0  0  0  0  0  0  0  0  0  0
   38.2320   23.1440   38.4590 H   0  0  0  0  0  0  0  0  0  0  0  0
   37.9390   23.4820   37.4780 C   0  0  0  0  0  0  0  0  0  0  0  0
   37.2570   22.6540   36.8270 O   0  0  0  0  0  0  0  0  0  0  0  0
   38.2240   24.7000   36.8700 N   0  0  0  0  0  0  0  0  0  0  0  0
   38.7980   25.2930   37.5250 H   0  0  0  0  0  0  0  0  0  0  0  0
   35.3620   30.3020   33.4270 C   0  0  0  0  0  0  0  0  0  0  0  0
   36.1580   31.0330   33.1110 H   0  0  0  0  0  0  0  0  0  0  0  0
   34.5430   30.2940   32.6770 H   0  0  0  0  0  0  0  0  0  0  0  0
   34.8680   30.8280   34.7340 C   0  0  0  0  0  0  0  0  0  0  0  0
   35.5800   31.6120   35.6230 C   0  0  0  0  0  0  0  0  0  0  0  0
   35.0040   32.0370   36.8040 C   0  0  0  0  0  0  0  0  0  0  0  0
   33.6800   31.6850   37.1330 C   0  0  0  0  0  0  0  0  0  0  0  0
   32.9610   30.9030   36.2480 C   0  0  0  0  0  0  0  0  0  0  0  0
   33.5560   30.4830   35.0650 C   0  0  0  0  0  0  0  0  0  0  0  0
   36.5840   31.8540   35.3330 H   0  0  0  0  0  0  0  0  0  0  0  0
   35.5780   32.6470   37.4830 H   0  0  0  0  0  0  0  0  0  0  0  0
   33.2920   32.0460   38.0610 H   0  0  0  0  0  0  0  0  0  0  0  0
   31.9460   30.6370   36.5070 H   0  0  0  0  0  0  0  0  0  0  0  0
   32.9400   29.8790   34.4250 H   0  0  0  0  0  0  0  0  0  0  0  0
  2  1  2  0  0  0  0
  3  8  2  0  0  0  0
  3  4  1  0  0  0  0
  4  5  2  0  0  0  0
  5 14  1  0  0  0  0
  6  5  1  0  0  0  0
  7  1  1  0  0  0  0
  7  6  2  0  0  0  0
  8  7  1  0  0  0  0
  9  3  1  0  0  0  0
 10  4  1  0  0  0  0
 12 11  1  0  0  0  0
 13 12  2  0  0  0  0
 14 12  1  0  0  0  0
 14 15  1  0  0  0  0
 16  2  1  0  0  0  0
 16 19  1  0  0  0  0
 17 16  1  0  0  0  0
 18 16  1  0  0  0  0
 19 24  2  0  0  0  0
 19 20  1  0  0  0  0
 20 21  2  0  0  0  0
 21 22  1  0  0  0  0
 21 26  1  0  0  0  0
 22 27  1  0  0  0  0
 23 28  1  0  0  0  0
 23 22  2  0  0  0  0
 24 23  1  0  0  0  0
 25 20  1  0  0  0  0
 29 24  1  0  0  0  0
M  END
>  <minimizedAffinity>
-5.16288996

$$$$

 OpenBabel03272509063D

 29 30  0  0  0  0  0  0  0  0999 V2000
   38.2810   25.3060   36.4060 C   0  0  0  0  0  3  0  0  0  0  0  0
   38.6560   24.0630   36.3030 C   0  0  0  0  0  3  0  0  0  0  0  0
   36.8980   27.8170   34.1420 C   0  0  0  0  0  0  0  0  0  0  0  0
   36.7250   27.0710   32.9560 C   0  0  0  0  0  0  0  0  0  0  0  0
   37.1020   25.7130   32.9860 C   0  0  0  0  0  0  0  0  0  0  0  0
   37.5980   25.2340   34.1530 N   0  0  0  0  0  0  0  0  0  0  0  0
   37.7420   25.9710   35.2440 C   0  0  0  0  0  0  0  0  0  0  0  0
   37.3960   27.2590   35.2460 N   0  0  0  0  0  0  0  0  0  0  0  0
   36.6000   28.8660   34.0930 H   0  0  0  0  0  0  0  0  0  0  0  0
   36.3240   27.5110   32.0630 H   0  0  0  0  0  0  0  0  0  0  0  0
   35.9600   23.9130   30.1630 H   0  0  0  0  0  0  0  0  0  0  0  0
   35.9750   24.6130   30.9840 C   0  0  0  0  0  0  0  0  0  0  0  0
   34.9290   25.2950   31.1030 O   0  0  0  0  0  0  0  0  0  0  0  0
   36.9960   24.8370   31.9010 N   0  0  0  0  0  0  0  0  0  0  0  0
   37.8080   24.2000   31.6840 H   0  0  0  0  0  0  0  0  0  0  0  0
   39.2260   23.1970   37.3400 C   0  0  0  0  0  0  0  0  0  0  0  0
   39.3930   23.7830   38.2870 H   0  0  0  0  0  0  0  0  0  0  0  0
   38.5280   22.3550   37.5400 H   0  0  0  0  0  0  0  0  0  0  0  0
   40.5790   22.6780   36.9780 C   0  0  0  0  0  0  0  0  0  0  0  0
   41.1870   21.5490   37.4920 C   0  0  0  0  0  0  0  0  0  0  0  0
   42.4480   21.1750   37.0700 C   0  0  0  0  0  0  0  0  0  0  0  0
   43.1450   21.9310   36.1090 C   0  0  0  0  0  0  0  0  0  0  0  0
   42.5430   23.0620   35.5900 C   0  0  0  0  0  0  0  0  0  0  0  0
   41.2750   23.4250   36.0250 C   0  0  0  0  0  0  0  0  0  0  0  0
   40.6200   21.0030   38.2220 H   0  0  0  0  0  0  0  0  0  0  0  0
   42.9030   20.2890   37.4860 H   0  0  0  0  0  0  0  0  0  0  0  0
   44.1170   21.5890   35.8240 H   0  0  0  0  0  0  0  0  0  0  0  0
   43.0840   23.6380   34.8520 H   0  0  0  0  0  0  0  0  0  0  0  0
   40.8680   24.3140   35.5790 H   0  0  0  0  0  0  0  0  0  0  0  0
  2  1  2  0  0  0  0
  2 16  1  0  0  0  0
  3  8  1  0  0  0  0
  4  5  1  0  0  0  0
  4  3  2  0  0  0  0
  5  6  2  0  0  0  0
  6  7  1  0  0  0  0
  7  8  2  0  0  0  0
  7  1  1  0  0  0  0
  9  3  1  0  0  0  0
 10  4  1  0  0  0  0
 11 12  1  0  0  0  0
 12 13  2  0  0  0  0
 12 14  1  0  0  0  0
 14  5  1  0  0  0  0
 15 14  1  0  0  0  0
 16 18  1  0  0  0  0
 16 17  1  0  0  0  0
 19 16  1  0  0  0  0
 19 20  1  0  0  0  0
 20 25  1  0  0  0  0
 21 26  1  0  0  0  0
 21 20  2  0  0  0  0
 22 21  1  0  0  0  0
 23 24  1  0  0  0  0
 23 22  2  0  0  0  0
 24 19  2  0  0  0  0
 27 22  1  0  0  0  0
 28 23  1  0  0  0  0
 29 24  1  0  0  0  0
M  END
>  <minimizedAffinity>
-4.97139454

$$$$

 OpenBabel03272509063D

 29 30  0  0  0  0  0  0  0  0999 V2000
   36.3680   28.3290   33.3780 C   0  0  0  0  0  3  0  0  0  0  0  0
   35.6610   28.8270   34.3530 C   0  0  0  0  0  3  0  0  0  0  0  0
   38.4420   25.3560   32.9230 C   0  0  0  0  0  0  0  0  0  0  0  0
   38.6010   24.9110   34.2520 C   0  0  0  0  0  0  0  0  0  0  0  0
   37.9800   25.6680   35.2670 C   0  0  0  0  0  0  0  0  0  0  0  0
   37.2780   26.7610   34.8810 N   0  0  0  0  0  0  0  0  0  0  0  0
   37.1540   27.1440   33.6180 C   0  0  0  0  0  0  0  0  0  0  0  0
   37.7310   26.4490   32.6380 N   0  0  0  0  0  0  0  0  0  0  0  0
   38.9320   24.7550   32.1560 H   0  0  0  0  0  0  0  0  0  0  0  0
   39.1710   24.0330   34.4910 H   0  0  0  0  0  0  0  0  0  0  0  0
   37.9470   24.0060   38.3880 H   0  0  0  0  0  0  0  0  0  0  0  0
   37.8880   24.1680   37.3240 C   0  0  0  0  0  0  0  0  0  0  0  0
   37.6530   23.1350   36.6530 O   0  0  0  0  0  0  0  0  0  0  0  0
   38.0390   25.3650   36.6310 N   0  0  0  0  0  0  0  0  0  0  0  0
   38.2310   26.1450   37.3140 H   0  0  0  0  0  0  0  0  0  0  0  0
   34.7980   30.0110   34.3380 C   0  0  0  0  0  0  0  0  0  0  0  0
   34.2390   30.0710   33.3620 H   0  0  0  0  0  0  0  0  0  0  0  0
   34.0740   29.9490   35.1780 H   0  0  0  0  0  0  0  0  0  0  0  0
   35.5700   31.2880   34.4060 C   0  0  0  0  0  0  0  0  0  0  0  0
   36.0460   31.8960   35.5520 C   0  0  0  0  0  0  0  0  0  0  0  0
   36.7510   33.0810   35.4790 C   0  0  0  0  0  0  0  0  0  0  0  0
   37.0030   33.7000   34.2390 C   0  0  0  0  0  0  0  0  0  0  0  0
   36.5300   33.0970   33.0880 C   0  0  0  0  0  0  0  0  0  0  0  0
   35.8220   31.9060   33.1790 C   0  0  0  0  0  0  0  0  0  0  0  0
   35.8310   31.3900   36.4740 H   0  0  0  0  0  0  0  0  0  0  0  0
   37.1130   33.5380   36.3870 H   0  0  0  0  0  0  0  0  0  0  0  0
   37.5540   34.6150   34.2490 H   0  0  0  0  0  0  0  0  0  0  0  0
   36.7260   33.5780   32.1400 H   0  0  0  0  0  0  0  0  0  0  0  0
   35.4850   31.4940   32.2460 H   0  0  0  0  0  0  0  0  0  0  0  0
  1  7  1  0  0  0  0
  1  2  2  0  0  0  0
  3  4  1  0  0  0  0
  4 10  1  0  0  0  0
  4  5  2  0  0  0  0
  5 14  1  0  0  0  0
  6  5  1  0  0  0  0
  7  6  2  0  0  0  0
  8  3  2  0  0  0  0
  8  7  1  0  0  0  0
  9  3  1  0  0  0  0
 12 11  1  0  0  0  0
 13 12  2  0  0  0  0
 14 15  1  0  0  0  0
 14 12  1  0  0  0  0
 16  2  1  0  0  0  0
 16 19  1  0  0  0  0
 16 18  1  0  0  0  0
 17 16  1  0  0  0  0
 19 20  1  0  0  0  0
 20 25  1  0  0  0  0
 21 20  2  0  0  0  0
 21 26  1  0  0  0  0
 22 27  1  0  0  0  0
 22 21  1  0  0  0  0
 23 24  1  0  0  0  0
 23 22  2  0  0  0  0
 24 19  2  0  0  0  0
 28 23  1  0  0  0  0
 29 24  1  0  0  0  0
M  END
>  <minimizedAffinity>
-4.82990122

$$$$

 OpenBabel03272509063D

 29 30  0  0  0  0  0  0  0  0999 V2000
   36.5640   28.4680   34.5040 C   0  0  0  0  0  3  0  0  0  0  0  0
   35.9590   29.0530   33.5090 C   0  0  0  0  0  3  0  0  0  0  0  0
   37.9980   25.1660   35.1180 C   0  0  0  0  0  0  0  0  0  0  0  0
   37.8500   24.5490   33.8580 C   0  0  0  0  0  0  0  0  0  0  0  0
   37.2490   25.3080   32.8330 C   0  0  0  0  0  0  0  0  0  0  0  0
   36.8640   26.5700   33.1430 N   0  0  0  0  0  0  0  0  0  0  0  0
   37.0240   27.1110   34.3420 C   0  0  0  0  0  0  0  0  0  0  0  0
   37.5870   26.4170   35.3310 N   0  0  0  0  0  0  0  0  0  0  0  0
   38.4650   24.5570   35.8950 H   0  0  0  0  0  0  0  0  0  0  0  0
   38.1780   23.5430   33.6770 H   0  0  0  0  0  0  0  0  0  0  0  0
   37.6020   23.8230   29.6420 H   0  0  0  0  0  0  0  0  0  0  0  0
   37.8390   24.1490   30.6420 C   0  0  0  0  0  0  0  0  0  0  0  0
   38.9940   23.8470   31.0260 O   0  0  0  0  0  0  0  0  0  0  0  0
   37.0280   24.8480   31.5310 N   0  0  0  0  0  0  0  0  0  0  0  0
   36.0930   25.0340   31.0810 H   0  0  0  0  0  0  0  0  0  0  0  0
   35.4140   30.4120   33.4480 C   0  0  0  0  0  0  0  0  0  0  0  0
   36.2320   31.1490   33.2140 H   0  0  0  0  0  0  0  0  0  0  0  0
   34.6310   30.4600   32.6610 H   0  0  0  0  0  0  0  0  0  0  0  0
   34.8630   30.8700   34.7590 C   0  0  0  0  0  0  0  0  0  0  0  0
   35.5280   31.6230   35.7080 C   0  0  0  0  0  0  0  0  0  0  0  0
   34.9020   31.9840   36.8850 C   0  0  0  0  0  0  0  0  0  0  0  0
   33.5740   31.5970   37.1490 C   0  0  0  0  0  0  0  0  0  0  0  0
   32.9020   30.8440   36.2040 C   0  0  0  0  0  0  0  0  0  0  0  0
   33.5460   30.4890   35.0260 C   0  0  0  0  0  0  0  0  0  0  0  0
   36.5370   31.8960   35.4660 H   0  0  0  0  0  0  0  0  0  0  0  0
   35.4410   32.5720   37.6120 H   0  0  0  0  0  0  0  0  0  0  0  0
   33.1470   31.9080   38.0770 H   0  0  0  0  0  0  0  0  0  0  0  0
   31.8830   30.5490   36.4130 H   0  0  0  0  0  0  0  0  0  0  0  0
   32.9650   29.9040   34.3380 H   0  0  0  0  0  0  0  0  0  0  0  0
  2  1  2  0  0  0  0
  3  8  1  0  0  0  0
  3  9  1  0  0  0  0
  4  3  2  0  0  0  0
  5  6  2  0  0  0  0
  5  4  1  0  0  0  0
  6  7  1  0  0  0  0
  7  1  1  0  0  0  0
  7  8  2  0  0  0  0
 10  4  1  0  0  0  0
 11 12  1  0  0  0  0
 12 13  2  0  0  0  0
 12 14  1  0  0  0  0
 14  5  1  0  0  0  0
 15 14  1  0  0  0  0
 16  2  1  0  0  0  0
 16 19  1  0  0  0  0
 17 16  1  0  0  0  0
 18 16  1  0  0  0  0
 19 24  2  0  0  0  0
 19 20  1  0  0  0  0
 20 21  2  0  0  0  0
 21 22  1  0  0  0  0
 21 26  1  0  0  0  0
 22 27  1  0  0  0  0
 23 28  1  0  0  0  0
 23 22  2  0  0  0  0
 24 23  1  0  0  0  0
 25 20  1  0  0  0  0
 29 24  1  0  0  0  0
M  END
>  <minimizedAffinity>
-4.74100971

$$$$

 OpenBabel03272509063D

 29 30  0  0  0  0  0  0  0  0999 V2000
   36.4220   28.3950   33.8800 C   0  0  0  0  0  3  0  0  0  0  0  0
   35.7270   29.4600   33.5970 C   0  0  0  0  0  3  0  0  0  0  0  0
   35.7330   26.2400   31.0120 C   0  0  0  0  0  0  0  0  0  0  0  0
   36.4230   25.0610   31.3660 C   0  0  0  0  0  0  0  0  0  0  0  0
   37.1120   25.0590   32.5970 C   0  0  0  0  0  0  0  0  0  0  0  0
   37.0520   26.1900   33.3400 N   0  0  0  0  0  0  0  0  0  0  0  0
   36.3900   27.2770   32.9690 C   0  0  0  0  0  0  0  0  0  0  0  0
   35.7310   27.3080   31.8110 N   0  0  0  0  0  0  0  0  0  0  0  0
   35.2090   26.2170   30.0550 H   0  0  0  0  0  0  0  0  0  0  0  0
   36.4310   24.1960   30.7300 H   0  0  0  0  0  0  0  0  0  0  0  0
   38.1750   21.8280   33.5650 H   0  0  0  0  0  0  0  0  0  0  0  0
   37.5580   22.6160   33.1640 C   0  0  0  0  0  0  0  0  0  0  0  0
   36.4540   22.2310   32.7110 O   0  0  0  0  0  0  0  0  0  0  0  0
   37.8430   23.9760   33.0940 N   0  0  0  0  0  0  0  0  0  0  0  0
   38.7960   24.1560   33.5080 H   0  0  0  0  0  0  0  0  0  0  0  0
   35.6110   30.7010   34.3670 C   0  0  0  0  0  0  0  0  0  0  0  0
   36.4850   30.8050   35.0700 H   0  0  0  0  0  0  0  0  0  0  0  0
   35.5870   31.5660   33.6700 H   0  0  0  0  0  0  0  0  0  0  0  0
   34.4120   30.7160   35.2580 C   0  0  0  0  0  0  0  0  0  0  0  0
   33.2770   29.9410   35.1160 C   0  0  0  0  0  0  0  0  0  0  0  0
   32.2330   30.0500   36.0140 C   0  0  0  0  0  0  0  0  0  0  0  0
   32.2980   30.9500   37.0950 C   0  0  0  0  0  0  0  0  0  0  0  0
   33.4310   31.7280   37.2450 C   0  0  0  0  0  0  0  0  0  0  0  0
   34.4710   31.6070   36.3330 C   0  0  0  0  0  0  0  0  0  0  0  0
   33.2700   29.2710   34.2790 H   0  0  0  0  0  0  0  0  0  0  0  0
   31.3560   29.4360   35.8830 H   0  0  0  0  0  0  0  0  0  0  0  0
   31.4580   30.9870   37.7550 H   0  0  0  0  0  0  0  0  0  0  0  0
   33.4740   32.4170   38.0770 H   0  0  0  0  0  0  0  0  0  0  0  0
   35.3200   32.2410   36.5100 H   0  0  0  0  0  0  0  0  0  0  0  0
  2  1  2  0  0  0  0
  2 16  1  0  0  0  0
  3  4  2  0  0  0  0
  3  8  1  0  0  0  0
  4  5  1  0  0  0  0
  5 14  1  0  0  0  0
  5  6  2  0  0  0  0
  7  6  1  0  0  0  0
  7  1  1  0  0  0  0
  8  7  2  0  0  0  0
  9  3  1  0  0  0  0
 10  4  1  0  0  0  0
 12 11  1  0  0  0  0
 13 12  2  0  0  0  0
 14 12  1  0  0  0  0
 14 15  1  0  0  0  0
 16 17  1  0  0  0  0
 16 19  1  0  0  0  0
 18 16  1  0  0  0  0
 19 24  1  0  0  0  0
 20 19  2  0  0  0  0
 20 21  1  0  0  0  0
 21 22  2  0  0  0  0
 22 23  1  0  0  0  0
 22 27  1  0  0  0  0
 23 28  1  0  0  0  0
 24 29  1  0  0  0  0
 24 23  2  0  0  0  0
 25 20  1  0  0  0  0
 26 21  1  0  0  0  0
M  END
>  <minimizedAffinity>
-4.72587299

$$$$

 OpenBabel03272509063D

 29 30  0  0  0  0  0  0  0  0999 V2000
   37.0070   27.1910   34.1850 C   0  0  0  0  0  3  0  0  0  0  0  0
   38.0440   27.4160   34.9400 C   0  0  0  0  0  3  0  0  0  0  0  0
   37.6240   28.3650   30.7810 C   0  0  0  0  0  0  0  0  0  0  0  0
   36.5570   29.2700   30.5910 C   0  0  0  0  0  0  0  0  0  0  0  0
   35.6530   29.4370   31.6610 C   0  0  0  0  0  0  0  0  0  0  0  0
   35.8840   28.7160   32.7840 N   0  0  0  0  0  0  0  0  0  0  0  0
   36.9010   27.8770   32.9210 C   0  0  0  0  0  0  0  0  0  0  0  0
   37.7710   27.6970   31.9270 N   0  0  0  0  0  0  0  0  0  0  0  0
   38.3090   28.2530   29.9400 H   0  0  0  0  0  0  0  0  0  0  0  0
   36.4300   29.8120   29.6740 H   0  0  0  0  0  0  0  0  0  0  0  0
   33.5020   32.2080   31.2120 H   0  0  0  0  0  0  0  0  0  0  0  0
   34.3940   31.6040   31.2010 C   0  0  0  0  0  0  0  0  0  0  0  0
   35.4060   32.1800   30.7350 O   0  0  0  0  0  0  0  0  0  0  0  0
   34.5460   30.2910   31.6360 N   0  0  0  0  0  0  0  0  0  0  0  0
   33.6240   29.9330   32.0010 H   0  0  0  0  0  0  0  0  0  0  0  0
   38.3570   26.8380   36.2500 C   0  0  0  0  0  0  0  0  0  0  0  0
   39.3720   27.1840   36.5950 H   0  0  0  0  0  0  0  0  0  0  0  0
   37.5860   27.1520   36.9850 H   0  0  0  0  0  0  0  0  0  0  0  0
   38.4650   25.3480   36.2110 C   0  0  0  0  0  0  0  0  0  0  0  0
   37.6560   24.4510   36.8840 C   0  0  0  0  0  0  0  0  0  0  0  0
   37.8610   23.0910   36.7620 C   0  0  0  0  0  0  0  0  0  0  0  0
   38.8940   22.5830   35.9510 C   0  0  0  0  0  0  0  0  0  0  0  0
   39.7070   23.4740   35.2750 C   0  0  0  0  0  0  0  0  0  0  0  0
   39.4880   24.8380   35.4090 C   0  0  0  0  0  0  0  0  0  0  0  0
   36.8830   24.8820   37.4900 H   0  0  0  0  0  0  0  0  0  0  0  0
   37.2180   22.4090   37.2960 H   0  0  0  0  0  0  0  0  0  0  0  0
   39.0010   21.5210   35.8980 H   0  0  0  0  0  0  0  0  0  0  0  0
   40.4980   23.0770   34.6540 H   0  0  0  0  0  0  0  0  0  0  0  0
   40.1560   25.4720   34.8550 H   0  0  0  0  0  0  0  0  0  0  0  0
  1  2  2  0  0  0  0
  2 16  1  0  0  0  0
  3  8  1  0  0  0  0
  4  3  2  0  0  0  0
  4  5  1  0  0  0  0
  5  6  2  0  0  0  0
  6  7  1  0  0  0  0
  7  1  1  0  0  0  0
  8  7  2  0  0  0  0
  9  3  1  0  0  0  0
 10  4  1  0  0  0  0
 12 11  1  0  0  0  0
 12 14  1  0  0  0  0
 13 12  2  0  0  0  0
 14  5  1  0  0  0  0
 14 15  1  0  0  0  0
 16 17  1  0  0  0  0
 16 18  1  0  0  0  0
 19 16  1  0  0  0  0
 19 20  1  0  0  0  0
 20 25  1  0  0  0  0
 21 20  2  0  0  0  0
 21 26  1  0  0  0  0
 22 21  1  0  0  0  0
 23 24  1  0  0  0  0
 23 22  2  0  0  0  0
 24 19  2  0  0  0  0
 27 22  1  0  0  0  0
 28 23  1  0  0  0  0
 29 24  1  0  0  0  0
M  END
>  <minimizedAffinity>
-4.69587612

$$$$

 OpenBabel03272509063D

 29 30  0  0  0  0  0  0  0  0999 V2000
   36.3330   24.9690   31.8680 C   0  0  0  0  0  3  0  0  0  0  0  0
   36.3720   23.6680   31.9200 C   0  0  0  0  0  3  0  0  0  0  0  0
   37.4040   27.5580   34.2120 C   0  0  0  0  0  0  0  0  0  0  0  0
   38.6440   27.0490   34.6550 C   0  0  0  0  0  0  0  0  0  0  0  0
   39.0640   25.8130   34.1210 C   0  0  0  0  0  0  0  0  0  0  0  0
   38.2420   25.2160   33.2240 N   0  0  0  0  0  0  0  0  0  0  0  0
   37.0850   25.7310   32.8350 C   0  0  0  0  0  0  0  0  0  0  0  0
   36.6610   26.8960   33.3230 N   0  0  0  0  0  0  0  0  0  0  0  0
   37.1010   28.5140   34.6400 H   0  0  0  0  0  0  0  0  0  0  0  0
   39.2490   27.5740   35.3700 H   0  0  0  0  0  0  0  0  0  0  0  0
   42.4480   25.0890   34.8470 H   0  0  0  0  0  0  0  0  0  0  0  0
   41.5630   25.6450   34.5850 C   0  0  0  0  0  0  0  0  0  0  0  0
   41.7590   26.8670   34.3790 O   0  0  0  0  0  0  0  0  0  0  0  0
   40.2610   25.1720   34.4540 N   0  0  0  0  0  0  0  0  0  0  0  0
   40.2420   24.1370   34.6530 H   0  0  0  0  0  0  0  0  0  0  0  0
   35.6950   22.7020   31.0500 C   0  0  0  0  0  0  0  0  0  0  0  0
   34.6020   22.9580   30.9630 H   0  0  0  0  0  0  0  0  0  0  0  0
   36.1640   22.7230   30.0430 H   0  0  0  0  0  0  0  0  0  0  0  0
   35.7120   21.3160   31.6050 C   0  0  0  0  0  0  0  0  0  0  0  0
   35.3420   20.9410   32.8830 C   0  0  0  0  0  0  0  0  0  0  0  0
   35.4020   19.6180   33.2740 C   0  0  0  0  0  0  0  0  0  0  0  0
   35.8410   18.6180   32.3840 C   0  0  0  0  0  0  0  0  0  0  0  0
   36.2120   18.9860   31.1040 C   0  0  0  0  0  0  0  0  0  0  0  0
   36.1460   20.3200   30.7270 C   0  0  0  0  0  0  0  0  0  0  0  0
   35.0150   21.7350   33.5270 H   0  0  0  0  0  0  0  0  0  0  0  0
   35.1090   19.3490   34.2760 H   0  0  0  0  0  0  0  0  0  0  0  0
   35.8650   17.6140   32.7460 H   0  0  0  0  0  0  0  0  0  0  0  0
   36.5480   18.2130   30.4260 H   0  0  0  0  0  0  0  0  0  0  0  0
   36.4490   20.5330   29.7190 H   0  0  0  0  0  0  0  0  0  0  0  0
  1  2  2  0  0  0  0
  1  7  1  0  0  0  0
  3  9  1  0  0  0  0
  3  4  1  0  0  0  0
  4 10  1  0  0  0  0
  5 14  1  0  0  0  0
  5  4  2  0  0  0  0
  6  5  1  0  0  0  0
  7  6  2  0  0  0  0
  7  8  1  0  0  0  0
  8  3  2  0  0  0  0
 12 11  1  0  0  0  0
 13 12  2  0  0  0  0
 14 12  1  0  0  0  0
 14 15  1  0  0  0  0
 16 19  1  0  0  0  0
 16  2  1  0  0  0  0
 17 16  1  0  0  0  0
 18 16  1  0  0  0  0
 19 20  1  0  0  0  0
 20 21  2  0  0  0  0
 20 25  1  0  0  0  0
 21 26  1  0  0  0  0
 22 27  1  0  0  0  0
 22 21  1  0  0  0  0
 23 22  2  0  0  0  0
 24 23  1  0  0  0  0
 24 19  2  0  0  0  0
 28 23  1  0  0  0  0
 29 24  1  0  0  0  0
M  END
>  <minimizedAffinity>
-4.69412613

$$$$
