
 OpenBabel03262520383D

 30 31  0  0  1  0  0  0  0  0999 V2000
   36.0610   30.6960   49.0780 C   0  0  2  0  0  0  0  0  0  0  0  0
   37.0510   31.6380   49.7330 C   0  0  0  0  0  0  0  0  0  0  0  0
   38.0470   30.9460   50.6160 C   0  0  0  0  0  0  0  0  0  0  0  0
   37.3590   30.0820   51.6610 C   0  0  0  0  0  0  0  0  0  0  0  0
   36.1750   29.3280   51.1310 C   0  0  0  0  0  0  0  0  0  0  0  0
   36.2120   29.3090   49.6120 C   0  0  1  0  0  0  0  0  0  0  0  0
   35.0420   31.0680   49.2160 H   0  0  0  0  0  0  0  0  0  0  0  0
   37.6250   32.2000   48.9650 H   0  0  0  0  0  0  0  0  0  0  0  0
   36.5210   32.3800   50.3850 H   0  0  0  0  0  0  0  0  0  0  0  0
   38.7290   30.3330   49.9820 H   0  0  0  0  0  0  0  0  0  0  0  0
   38.6370   31.7050   51.1320 H   0  0  0  0  0  0  0  0  0  0  0  0
   38.1220   29.2980   51.9440 H   0  0  0  0  0  0  0  0  0  0  0  0
   37.1530   30.6810   52.5570 H   0  0  0  0  0  0  0  0  0  0  0  0
   36.0870   28.3050   51.5350 H   0  0  0  0  0  0  0  0  0  0  0  0
   35.2230   29.8510   51.3860 H   0  0  0  0  0  0  0  0  0  0  0  0
   37.2730   28.9940   49.3740 H   0  0  0  0  0  0  0  0  0  0  0  0
   36.3230   30.6460   47.6080 C   0  0  0  0  0  0  0  0  0  0  0  0
   37.5630   31.1470   47.1750 C   0  0  0  0  0  0  0  0  0  0  0  0
   37.8020   31.1100   45.7960 C   0  0  0  0  0  0  0  0  0  0  0  0
   36.8450   30.6030   44.9610 N   0  0  0  0  0  0  0  0  0  0  0  0
   35.6550   30.1270   45.4230 C   0  0  0  0  0  0  0  0  0  0  0  0
   35.4160   30.1590   46.7440 N   0  0  0  0  0  0  0  0  0  0  0  0
   38.3340   31.5490   47.7820 H   0  0  0  0  0  0  0  0  0  0  0  0
   38.7240   31.4700   45.3610 H   0  0  0  0  0  0  0  0  0  0  0  0
   34.9660   29.7480   44.6820 H   0  0  0  0  0  0  0  0  0  0  0  0
   33.2930   27.4950   48.8120 H   0  0  0  0  0  0  0  0  0  0  0  0
   33.9250   28.2400   49.2490 C   0  0  0  0  0  0  0  0  0  0  0  0
   33.0230   28.8720   49.8960 O   0  0  0  0  0  0  0  0  0  0  0  0
   35.3510   28.3340   49.0450 N   0  0  0  0  0  0  0  0  0  0  0  0
   35.6870   27.5860   48.4200 H   0  0  0  0  0  0  0  0  0  0  0  0
  1  7  1  1  0  0  0
  1  6  1  0  0  0  0
  1  2  1  0  0  0  0
  2  9  1  0  0  0  0
  2  3  1  0  0  0  0
  3 11  1  0  0  0  0
  3  4  1  0  0  0  0
  4 12  1  0  0  0  0
  4 13  1  0  0  0  0
  5 15  1  0  0  0  0
  5 14  1  0  0  0  0
  5  4  1  0  0  0  0
  6 16  1  6  0  0  0
  6  5  1  0  0  0  0
  8  2  1  0  0  0  0
 10  3  1  0  0  0  0
 17  1  1  0  0  0  0
 18 17  1  0  0  0  0
 18 23  1  0  0  0  0
 19 18  2  0  0  0  0
 20 21  2  0  0  0  0
 20 19  1  0  0  0  0
 21 22  1  0  0  0  0
 22 17  2  0  0  0  0
 24 19  1  0  0  0  0
 25 21  1  0  0  0  0
 26 27  1  0  0  0  0
 27 28  2  0  0  0  0
 29 27  1  0  0  0  0
 29  6  1  0  0  0  0
 30 29  1  0  0  0  0
M  END
>  <minimizedAffinity>
-5.16621494

>  <minimizedRMSD>
3.00369453

$$$$
