
 OpenBabel03262520393D

 30 31  0  0  1  0  0  0  0  0999 V2000
   38.8820   25.8710   34.7720 C   0  0  2  0  0  0  0  0  0  0  0  0
   38.5140   27.2170   35.3640 C   0  0  0  0  0  0  0  0  0  0  0  0
   37.1510   27.6980   34.9620 C   0  0  0  0  0  0  0  0  0  0  0  0
   36.9890   27.7170   33.4500 C   0  0  0  0  0  0  0  0  0  0  0  0
   37.5970   26.5260   32.7680 C   0  0  0  0  0  0  0  0  0  0  0  0
   37.8560   25.4250   33.7830 C   0  0  1  0  0  0  0  0  0  0  0  0
   39.8770   25.9210   34.3210 H   0  0  0  0  0  0  0  0  0  0  0  0
   38.5360   27.1760   36.4750 H   0  0  0  0  0  0  0  0  0  0  0  0
   39.2330   28.0080   35.0290 H   0  0  0  0  0  0  0  0  0  0  0  0
   36.3820   27.0430   35.4340 H   0  0  0  0  0  0  0  0  0  0  0  0
   37.0200   28.7160   35.3340 H   0  0  0  0  0  0  0  0  0  0  0  0
   35.8770   27.6400   33.2720 H   0  0  0  0  0  0  0  0  0  0  0  0
   37.3230   28.6850   33.0560 H   0  0  0  0  0  0  0  0  0  0  0  0
   36.9960   26.1480   31.9230 H   0  0  0  0  0  0  0  0  0  0  0  0
   38.6020   26.7740   32.3540 H   0  0  0  0  0  0  0  0  0  0  0  0
   36.8810   25.3510   34.3530 H   0  0  0  0  0  0  0  0  0  0  0  0
   38.9370   24.8490   35.8600 C   0  0  0  0  0  0  0  0  0  0  0  0
   37.9920   24.9830   36.8930 C   0  0  0  0  0  0  0  0  0  0  0  0
   38.0520   24.0310   37.9190 C   0  0  0  0  0  0  0  0  0  0  0  0
   38.9990   23.0460   37.8670 N   0  0  0  0  0  0  0  0  0  0  0  0
   39.8960   22.9530   36.8460 C   0  0  0  0  0  0  0  0  0  0  0  0
   39.8470   23.8610   35.8590 N   0  0  0  0  0  0  0  0  0  0  0  0
   37.2420   25.7280   36.9770 H   0  0  0  0  0  0  0  0  0  0  0  0
   37.3720   24.0450   38.7580 H   0  0  0  0  0  0  0  0  0  0  0  0
   40.6040   22.1380   36.8980 H   0  0  0  0  0  0  0  0  0  0  0  0
   37.3550   22.4770   31.9090 H   0  0  0  0  0  0  0  0  0  0  0  0
   37.1610   23.4330   32.3500 C   0  0  0  0  0  0  0  0  0  0  0  0
   35.9800   23.5970   31.8900 O   0  0  0  0  0  0  0  0  0  0  0  0
   38.0870   24.1590   33.1860 N   0  0  0  0  0  0  0  0  0  0  0  0
   38.9680   23.6360   33.3050 H   0  0  0  0  0  0  0  0  0  0  0  0
  1  7  1  6  0  0  0
  1  2  1  0  0  0  0
  1 17  1  0  0  0  0
  2  8  1  0  0  0  0
  3 11  1  0  0  0  0
  3  2  1  0  0  0  0
  3 10  1  0  0  0  0
  4  3  1  0  0  0  0
  5  4  1  0  0  0  0
  5  6  1  0  0  0  0
  6 16  1  1  0  0  0
  6  1  1  0  0  0  0
  9  2  1  0  0  0  0
 12  4  1  0  0  0  0
 13  4  1  0  0  0  0
 14  5  1  0  0  0  0
 15  5  1  0  0  0  0
 17 18  1  0  0  0  0
 18 23  1  0  0  0  0
 18 19  2  0  0  0  0
 19 24  1  0  0  0  0
 20 19  1  0  0  0  0
 21 25  1  0  0  0  0
 21 20  2  0  0  0  0
 22 17  2  0  0  0  0
 22 21  1  0  0  0  0
 26 27  1  0  0  0  0
 27 29  1  0  0  0  0
 28 27  2  0  0  0  0
 29 30  1  0  0  0  0
 29  6  1  0  0  0  0
M  END
>  <minimizedAffinity>
-4.40157604

$$$$

 OpenBabel03262520393D

 30 31  0  0  1  0  0  0  0  0999 V2000
   39.3290   25.0910   34.7160 C   0  0  2  0  0  0  0  0  0  0  0  0
   40.2930   24.2820   33.8700 C   0  0  0  0  0  0  0  0  0  0  0  0
   41.6120   24.9620   33.6460 C   0  0  0  0  0  0  0  0  0  0  0  0
   41.4290   26.3540   33.0630 C   0  0  0  0  0  0  0  0  0  0  0  0
   40.2870   27.1140   33.6730 C   0  0  0  0  0  0  0  0  0  0  0  0
   39.8690   26.4580   34.9780 C   0  0  1  0  0  0  0  0  0  0  0  0
   38.3510   25.1340   34.2290 H   0  0  0  0  0  0  0  0  0  0  0  0
   40.5050   23.3000   34.3480 H   0  0  0  0  0  0  0  0  0  0  0  0
   39.8650   24.0900   32.8530 H   0  0  0  0  0  0  0  0  0  0  0  0
   42.1660   25.0070   34.6120 H   0  0  0  0  0  0  0  0  0  0  0  0
   42.1900   24.3660   32.9370 H   0  0  0  0  0  0  0  0  0  0  0  0
   42.3630   26.9190   33.3500 H   0  0  0  0  0  0  0  0  0  0  0  0
   41.4010   26.2940   31.9670 H   0  0  0  0  0  0  0  0  0  0  0  0
   40.5010   28.1860   33.8220 H   0  0  0  0  0  0  0  0  0  0  0  0
   39.3810   27.0600   33.0240 H   0  0  0  0  0  0  0  0  0  0  0  0
   40.8470   26.3100   35.5290 H   0  0  0  0  0  0  0  0  0  0  0  0
   39.1420   24.4160   36.0350 C   0  0  0  0  0  0  0  0  0  0  0  0
   40.0780   23.4220   36.3690 C   0  0  0  0  0  0  0  0  0  0  0  0
   39.8930   22.7830   37.6020 C   0  0  0  0  0  0  0  0  0  0  0  0
   38.8430   23.1470   38.3980 N   0  0  0  0  0  0  0  0  0  0  0  0
   37.9580   24.1170   38.0350 C   0  0  0  0  0  0  0  0  0  0  0  0
   38.1260   24.7360   36.8550 N   0  0  0  0  0  0  0  0  0  0  0  0
   40.9050   23.1050   35.7870 H   0  0  0  0  0  0  0  0  0  0  0  0
   40.5570   22.0050   37.9520 H   0  0  0  0  0  0  0  0  0  0  0  0
   37.1630   24.3310   38.7340 H   0  0  0  0  0  0  0  0  0  0  0  0
   37.1530   28.4290   36.0690 H   0  0  0  0  0  0  0  0  0  0  0  0
   37.7490   27.7970   35.4440 C   0  0  0  0  0  0  0  0  0  0  0  0
   36.9360   27.7140   34.4620 O   0  0  0  0  0  0  0  0  0  0  0  0
   39.0570   27.2950   35.7870 N   0  0  0  0  0  0  0  0  0  0  0  0
   39.3480   27.6240   36.7210 H   0  0  0  0  0  0  0  0  0  0  0  0
  1  7  1  6  0  0  0
  1  6  1  0  0  0  0
  1 17  1  0  0  0  0
  2  8  1  0  0  0  0
  2  1  1  0  0  0  0
  3  2  1  0  0  0  0
  3 10  1  0  0  0  0
  4 12  1  0  0  0  0
  4  3  1  0  0  0  0
  4  5  1  0  0  0  0
  5 14  1  0  0  0  0
  5  6  1  0  0  0  0
  6 16  1  1  0  0  0
  6 29  1  0  0  0  0
  9  2  1  0  0  0  0
 11  3  1  0  0  0  0
 13  4  1  0  0  0  0
 15  5  1  0  0  0  0
 17 18  2  0  0  0  0
 17 22  1  0  0  0  0
 18 19  1  0  0  0  0
 19 24  1  0  0  0  0
 19 20  2  0  0  0  0
 21 20  1  0  0  0  0
 21 25  1  0  0  0  0
 22 21  2  0  0  0  0
 23 18  1  0  0  0  0
 27 29  1  0  0  0  0
 27 26  1  0  0  0  0
 28 27  2  0  0  0  0
 29 30  1  0  0  0  0
M  END
>  <minimizedAffinity>
-4.23418999

$$$$

 OpenBabel03262520393D

 30 31  0  0  1  0  0  0  0  0999 V2000
   39.9300   23.8640   35.8220 C   0  0  2  0  0  0  0  0  0  0  0  0
   41.3390   23.7730   35.2700 C   0  0  0  0  0  0  0  0  0  0  0  0
   41.9550   22.4130   35.4150 C   0  0  0  0  0  0  0  0  0  0  0  0
   41.9140   21.9330   36.8570 C   0  0  0  0  0  0  0  0  0  0  0  0
   40.6270   22.2520   37.5590 C   0  0  0  0  0  0  0  0  0  0  0  0
   39.5570   22.6080   36.5400 C   0  0  1  0  0  0  0  0  0  0  0  0
   39.8390   24.7380   36.4730 H   0  0  0  0  0  0  0  0  0  0  0  0
   41.3530   24.0290   34.1880 H   0  0  0  0  0  0  0  0  0  0  0  0
   42.0220   24.4820   35.8050 H   0  0  0  0  0  0  0  0  0  0  0  0
   41.4200   21.7000   34.7450 H   0  0  0  0  0  0  0  0  0  0  0  0
   42.9990   22.4720   35.1020 H   0  0  0  0  0  0  0  0  0  0  0  0
   41.9600   20.8070   36.7940 H   0  0  0  0  0  0  0  0  0  0  0  0
   42.8150   22.2730   37.3840 H   0  0  0  0  0  0  0  0  0  0  0  0
   40.2790   21.4480   38.2290 H   0  0  0  0  0  0  0  0  0  0  0  0
   40.7330   23.1660   38.1910 H   0  0  0  0  0  0  0  0  0  0  0  0
   39.6280   21.7760   35.7750 H   0  0  0  0  0  0  0  0  0  0  0  0
   38.9670   24.0450   34.6950 C   0  0  0  0  0  0  0  0  0  0  0  0
   38.4900   25.3500   34.4820 C   0  0  0  0  0  0  0  0  0  0  0  0
   37.5780   25.5150   33.4310 C   0  0  0  0  0  0  0  0  0  0  0  0
   37.2070   24.4310   32.6860 N   0  0  0  0  0  0  0  0  0  0  0  0
   37.6940   23.1810   32.9280 C   0  0  0  0  0  0  0  0  0  0  0  0
   38.5680   23.0120   33.9320 N   0  0  0  0  0  0  0  0  0  0  0  0
   38.7470   26.2190   35.0310 H   0  0  0  0  0  0  0  0  0  0  0  0
   37.1520   26.4770   33.1840 H   0  0  0  0  0  0  0  0  0  0  0  0
   37.3380   22.3910   32.2830 H   0  0  0  0  0  0  0  0  0  0  0  0
   36.7150   23.4190   38.4690 H   0  0  0  0  0  0  0  0  0  0  0  0
   37.7110   23.4640   38.0770 C   0  0  0  0  0  0  0  0  0  0  0  0
   38.1190   24.4610   38.7640 O   0  0  0  0  0  0  0  0  0  0  0  0
   38.2440   22.5730   37.0750 N   0  0  0  0  0  0  0  0  0  0  0  0
   37.5380   21.8810   36.7800 H   0  0  0  0  0  0  0  0  0  0  0  0
  1  7  1  1  0  0  0
  1  6  1  0  0  0  0
  2  3  1  0  0  0  0
  2  9  1  0  0  0  0
  2  1  1  0  0  0  0
  3  4  1  0  0  0  0
  4 13  1  0  0  0  0
  4  5  1  0  0  0  0
  5 15  1  0  0  0  0
  5 14  1  0  0  0  0
  6 16  1  6  0  0  0
  6 29  1  0  0  0  0
  6  5  1  0  0  0  0
  8  2  1  0  0  0  0
 10  3  1  0  0  0  0
 11  3  1  0  0  0  0
 12  4  1  0  0  0  0
 17  1  1  0  0  0  0
 18 17  1  0  0  0  0
 18 23  1  0  0  0  0
 19 18  2  0  0  0  0
 20 21  2  0  0  0  0
 20 19  1  0  0  0  0
 21 22  1  0  0  0  0
 22 17  2  0  0  0  0
 24 19  1  0  0  0  0
 25 21  1  0  0  0  0
 27 26  1  0  0  0  0
 27 28  2  0  0  0  0
 29 27  1  0  0  0  0
 30 29  1  0  0  0  0
M  END
>  <minimizedAffinity>
-4.20581388

$$$$

 OpenBabel03262520393D

 30 31  0  0  1  0  0  0  0  0999 V2000
   38.2350   23.8920   35.7470 C   0  0  2  0  0  0  0  0  0  0  0  0
   37.4210   23.9060   37.0260 C   0  0  0  0  0  0  0  0  0  0  0  0
   38.2510   24.0820   38.2640 C   0  0  0  0  0  0  0  0  0  0  0  0
   39.3580   23.0410   38.3450 C   0  0  0  0  0  0  0  0  0  0  0  0
   40.0230   22.7700   37.0280 C   0  0  0  0  0  0  0  0  0  0  0  0
   39.6980   23.8830   36.0450 C   0  0  1  0  0  0  0  0  0  0  0  0
   37.9470   23.0360   35.1310 H   0  0  0  0  0  0  0  0  0  0  0  0
   36.6770   24.7320   37.0080 H   0  0  0  0  0  0  0  0  0  0  0  0
   36.8690   22.9400   37.1560 H   0  0  0  0  0  0  0  0  0  0  0  0
   38.6760   25.1120   38.2730 H   0  0  0  0  0  0  0  0  0  0  0  0
   37.6030   23.9620   39.1340 H   0  0  0  0  0  0  0  0  0  0  0  0
   40.1500   23.5050   39.0010 H   0  0  0  0  0  0  0  0  0  0  0  0
   38.9840   22.1460   38.8590 H   0  0  0  0  0  0  0  0  0  0  0  0
   41.1140   22.6220   37.1070 H   0  0  0  0  0  0  0  0  0  0  0  0
   39.6120   21.8460   36.5570 H   0  0  0  0  0  0  0  0  0  0  0  0
   39.9050   24.8280   36.6330 H   0  0  0  0  0  0  0  0  0  0  0  0
   37.9410   25.1270   34.9590 C   0  0  0  0  0  0  0  0  0  0  0  0
   37.9170   26.3360   35.6760 C   0  0  0  0  0  0  0  0  0  0  0  0
   37.6290   27.4910   34.9380 C   0  0  0  0  0  0  0  0  0  0  0  0
   37.3930   27.3900   33.5950 N   0  0  0  0  0  0  0  0  0  0  0  0
   37.4270   26.1960   32.9390 C   0  0  0  0  0  0  0  0  0  0  0  0
   37.7010   25.0830   33.6380 N   0  0  0  0  0  0  0  0  0  0  0  0
   38.0920   26.4650   36.7140 H   0  0  0  0  0  0  0  0  0  0  0  0
   37.5870   28.4710   35.3940 H   0  0  0  0  0  0  0  0  0  0  0  0
   37.2260   26.2230   31.8780 H   0  0  0  0  0  0  0  0  0  0  0  0
   41.9830   25.0100   33.6040 H   0  0  0  0  0  0  0  0  0  0  0  0
   41.3420   25.0200   34.4610 C   0  0  0  0  0  0  0  0  0  0  0  0
   41.5500   26.2290   34.8170 O   0  0  0  0  0  0  0  0  0  0  0  0
   40.5560   23.8980   34.9160 N   0  0  0  0  0  0  0  0  0  0  0  0
   40.6930   23.0770   34.3060 H   0  0  0  0  0  0  0  0  0  0  0  0
  1  7  1  6  0  0  0
  1  6  1  0  0  0  0
  1  2  1  0  0  0  0
  2  9  1  0  0  0  0
  2  3  1  0  0  0  0
  3 10  1  0  0  0  0
  3  4  1  0  0  0  0
  3 11  1  0  0  0  0
  4 13  1  0  0  0  0
  4 12  1  0  0  0  0
  5 14  1  0  0  0  0
  5  4  1  0  0  0  0
  6 16  1  1  0  0  0
  6  5  1  0  0  0  0
  8  2  1  0  0  0  0
 15  5  1  0  0  0  0
 17 18  1  0  0  0  0
 17  1  1  0  0  0  0
 18 23  1  0  0  0  0
 19 24  1  0  0  0  0
 19 18  2  0  0  0  0
 20 19  1  0  0  0  0
 21 20  2  0  0  0  0
 21 22  1  0  0  0  0
 22 17  2  0  0  0  0
 25 21  1  0  0  0  0
 26 27  1  0  0  0  0
 27 28  2  0  0  0  0
 27 29  1  0  0  0  0
 29  6  1  0  0  0  0
 30 29  1  0  0  0  0
M  END
>  <minimizedAffinity>
-4.1786828

$$$$

 OpenBabel03262520393D

 30 31  0  0  1  0  0  0  0  0999 V2000
   36.8520   27.8780   32.2480 C   0  0  2  0  0  0  0  0  0  0  0  0
   36.4210   28.2420   33.6550 C   0  0  0  0  0  0  0  0  0  0  0  0
   35.3190   29.2600   33.7010 C   0  0  0  0  0  0  0  0  0  0  0  0
   35.6800   30.5090   32.9120 C   0  0  0  0  0  0  0  0  0  0  0  0
   36.3790   30.2180   31.6170 C   0  0  0  0  0  0  0  0  0  0  0  0
   36.1860   28.7580   31.2410 C   0  0  1  0  0  0  0  0  0  0  0  0
   37.9410   27.9300   32.1650 H   0  0  0  0  0  0  0  0  0  0  0  0
   36.0620   27.3420   34.2000 H   0  0  0  0  0  0  0  0  0  0  0  0
   37.2750   28.6830   34.2300 H   0  0  0  0  0  0  0  0  0  0  0  0
   34.3840   28.8000   33.3070 H   0  0  0  0  0  0  0  0  0  0  0  0
   35.1580   29.5460   34.7420 H   0  0  0  0  0  0  0  0  0  0  0  0
   34.6920   30.9760   32.6310 H   0  0  0  0  0  0  0  0  0  0  0  0
   36.2080   31.2170   33.5640 H   0  0  0  0  0  0  0  0  0  0  0  0
   36.0690   30.8800   30.7900 H   0  0  0  0  0  0  0  0  0  0  0  0
   37.4830   30.3410   31.7220 H   0  0  0  0  0  0  0  0  0  0  0  0
   35.0730   28.5940   31.3670 H   0  0  0  0  0  0  0  0  0  0  0  0
   36.4490   26.4700   31.9550 C   0  0  0  0  0  0  0  0  0  0  0  0
   37.2850   25.4600   32.4630 C   0  0  0  0  0  0  0  0  0  0  0  0
   36.9110   24.1410   32.1780 C   0  0  0  0  0  0  0  0  0  0  0  0
   35.7840   23.9060   31.4410 N   0  0  0  0  0  0  0  0  0  0  0  0
   35.0010   24.9150   30.9680 C   0  0  0  0  0  0  0  0  0  0  0  0
   35.3510   26.1830   31.2350 N   0  0  0  0  0  0  0  0  0  0  0  0
   38.1670   25.5920   33.0360 H   0  0  0  0  0  0  0  0  0  0  0  0
   37.4860   23.2920   32.5210 H   0  0  0  0  0  0  0  0  0  0  0  0
   34.1320   24.6240   30.3960 H   0  0  0  0  0  0  0  0  0  0  0  0
   38.0010   28.4380   28.2320 H   0  0  0  0  0  0  0  0  0  0  0  0
   37.7880   28.6490   29.2600 C   0  0  0  0  0  0  0  0  0  0  0  0
   38.9580   29.0310   29.6020 O   0  0  0  0  0  0  0  0  0  0  0  0
   36.4970   28.4860   29.8840 N   0  0  0  0  0  0  0  0  0  0  0  0
   35.8000   28.1360   29.2100 H   0  0  0  0  0  0  0  0  0  0  0  0
  1  7  1  6  0  0  0
  1  2  1  0  0  0  0
  2  3  1  0  0  0  0
  2  8  1  0  0  0  0
  2  9  1  0  0  0  0
  3 11  1  0  0  0  0
  4 13  1  0  0  0  0
  4  3  1  0  0  0  0
  5 15  1  0  0  0  0
  5  4  1  0  0  0  0
  6 16  1  1  0  0  0
  6  5  1  0  0  0  0
  6  1  1  0  0  0  0
 10  3  1  0  0  0  0
 12  4  1  0  0  0  0
 14  5  1  0  0  0  0
 17  1  1  0  0  0  0
 17 18  1  0  0  0  0
 18 23  1  0  0  0  0
 19 18  2  0  0  0  0
 19 24  1  0  0  0  0
 20 19  1  0  0  0  0
 21 22  1  0  0  0  0
 21 20  2  0  0  0  0
 22 17  2  0  0  0  0
 25 21  1  0  0  0  0
 26 27  1  0  0  0  0
 27 28  2  0  0  0  0
 27 29  1  0  0  0  0
 29  6  1  0  0  0  0
 30 29  1  0  0  0  0
M  END
>  <minimizedAffinity>
-4.15578461

$$$$

 OpenBabel03262520393D

 30 31  0  0  1  0  0  0  0  0999 V2000
   39.7570   24.3300   34.9020 C   0  0  2  0  0  0  0  0  0  0  0  0
   40.4760   25.4520   34.1780 C   0  0  0  0  0  0  0  0  0  0  0  0
   40.2310   26.8060   34.7750 C   0  0  0  0  0  0  0  0  0  0  0  0
   38.7450   27.1070   34.8830 C   0  0  0  0  0  0  0  0  0  0  0  0
   37.9260   25.9320   35.3300 C   0  0  0  0  0  0  0  0  0  0  0  0
   38.8310   24.8740   35.9400 C   0  0  1  0  0  0  0  0  0  0  0  0
   39.2250   23.7010   34.1830 H   0  0  0  0  0  0  0  0  0  0  0  0
   41.5750   25.2810   34.1850 H   0  0  0  0  0  0  0  0  0  0  0  0
   40.1390   25.5160   33.1120 H   0  0  0  0  0  0  0  0  0  0  0  0
   40.7190   26.8550   35.7760 H   0  0  0  0  0  0  0  0  0  0  0  0
   40.6870   27.5560   34.1250 H   0  0  0  0  0  0  0  0  0  0  0  0
   38.6590   27.8740   35.7070 H   0  0  0  0  0  0  0  0  0  0  0  0
   38.3950   27.5780   33.9550 H   0  0  0  0  0  0  0  0  0  0  0  0
   37.1120   26.2000   36.0250 H   0  0  0  0  0  0  0  0  0  0  0  0
   37.4450   25.4270   34.4600 H   0  0  0  0  0  0  0  0  0  0  0  0
   39.4770   25.4590   36.6630 H   0  0  0  0  0  0  0  0  0  0  0  0
   40.7580   23.4660   35.5960 C   0  0  0  0  0  0  0  0  0  0  0  0
   42.0670   23.9720   35.6870 C   0  0  0  0  0  0  0  0  0  0  0  0
   43.0070   23.1550   36.3280 C   0  0  0  0  0  0  0  0  0  0  0  0
   42.6180   21.9410   36.8190 N   0  0  0  0  0  0  0  0  0  0  0  0
   41.3370   21.4880   36.7100 C   0  0  0  0  0  0  0  0  0  0  0  0
   40.4290   22.2630   36.0970 N   0  0  0  0  0  0  0  0  0  0  0  0
   42.4150   24.9040   35.3210 H   0  0  0  0  0  0  0  0  0  0  0  0
   44.0390   23.4510   36.4500 H   0  0  0  0  0  0  0  0  0  0  0  0
   41.1310   20.5150   37.1310 H   0  0  0  0  0  0  0  0  0  0  0  0
   37.2890   23.2480   38.6660 H   0  0  0  0  0  0  0  0  0  0  0  0
   37.8230   23.9900   38.1100 C   0  0  0  0  0  0  0  0  0  0  0  0
   38.0270   24.8080   39.0700 O   0  0  0  0  0  0  0  0  0  0  0  0
   38.1240   23.9070   36.7010 N   0  0  0  0  0  0  0  0  0  0  0  0
   37.7550   23.0350   36.2930 H   0  0  0  0  0  0  0  0  0  0  0  0
  1  7  1  6  0  0  0
  1 17  1  0  0  0  0
  1  6  1  0  0  0  0
  2  8  1  0  0  0  0
  2  3  1  0  0  0  0
  2  1  1  0  0  0  0
  3  4  1  0  0  0  0
  3 10  1  0  0  0  0
  4  5  1  0  0  0  0
  4 12  1  0  0  0  0
  5  6  1  0  0  0  0
  5 14  1  0  0  0  0
  6 16  1  1  0  0  0
  6 29  1  0  0  0  0
  9  2  1  0  0  0  0
 11  3  1  0  0  0  0
 13  4  1  0  0  0  0
 15  5  1  0  0  0  0
 17 18  2  0  0  0  0
 17 22  1  0  0  0  0
 18 19  1  0  0  0  0
 19 24  1  0  0  0  0
 19 20  2  0  0  0  0
 21 20  1  0  0  0  0
 21 25  1  0  0  0  0
 22 21  2  0  0  0  0
 23 18  1  0  0  0  0
 27 26  1  0  0  0  0
 27 28  2  0  0  0  0
 29 27  1  0  0  0  0
 30 29  1  0  0  0  0
M  END
>  <minimizedAffinity>
-4.14484262

$$$$

 OpenBabel03262520393D

 30 31  0  0  1  0  0  0  0  0999 V2000
   34.6030   30.6400   34.2000 C   0  0  2  0  0  0  0  0  0  0  0  0
   35.6780   31.5720   34.7230 C   0  0  0  0  0  0  0  0  0  0  0  0
   35.6890   31.6970   36.2190 C   0  0  0  0  0  0  0  0  0  0  0  0
   34.3250   32.1000   36.7550 C   0  0  0  0  0  0  0  0  0  0  0  0
   33.1830   31.4090   36.0680 C   0  0  0  0  0  0  0  0  0  0  0  0
   33.6960   30.2010   35.3020 C   0  0  1  0  0  0  0  0  0  0  0  0
   34.0470   31.1260   33.3940 H   0  0  0  0  0  0  0  0  0  0  0  0
   36.6870   31.2210   34.4140 H   0  0  0  0  0  0  0  0  0  0  0  0
   35.5320   32.6090   34.3260 H   0  0  0  0  0  0  0  0  0  0  0  0
   36.0180   30.7280   36.6610 H   0  0  0  0  0  0  0  0  0  0  0  0
   36.4090   32.4700   36.4950 H   0  0  0  0  0  0  0  0  0  0  0  0
   34.3080   31.7340   37.8230 H   0  0  0  0  0  0  0  0  0  0  0  0
   34.2460   33.1940   36.7770 H   0  0  0  0  0  0  0  0  0  0  0  0
   32.3660   31.1230   36.7510 H   0  0  0  0  0  0  0  0  0  0  0  0
   32.7290   32.0670   35.2900 H   0  0  0  0  0  0  0  0  0  0  0  0
   34.3500   29.6640   36.0540 H   0  0  0  0  0  0  0  0  0  0  0  0
   35.2440   29.4180   33.6270 C   0  0  0  0  0  0  0  0  0  0  0  0
   36.2230   28.7930   34.4190 C   0  0  0  0  0  0  0  0  0  0  0  0
   36.8300   27.6550   33.8750 C   0  0  0  0  0  0  0  0  0  0  0  0
   36.4530   27.2180   32.6360 N   0  0  0  0  0  0  0  0  0  0  0  0
   35.4980   27.8550   31.9000 C   0  0  0  0  0  0  0  0  0  0  0  0
   34.9100   28.9470   32.4130 N   0  0  0  0  0  0  0  0  0  0  0  0
   36.5490   29.0940   35.3820 H   0  0  0  0  0  0  0  0  0  0  0  0
   37.5940   27.1010   34.4030 H   0  0  0  0  0  0  0  0  0  0  0  0
   35.2720   27.4310   30.9330 H   0  0  0  0  0  0  0  0  0  0  0  0
   31.0540   27.8720   35.5260 H   0  0  0  0  0  0  0  0  0  0  0  0
   31.8260   28.5480   35.8300 C   0  0  0  0  0  0  0  0  0  0  0  0
   31.6880   28.4100   37.0920 O   0  0  0  0  0  0  0  0  0  0  0  0
   32.6660   29.3000   34.9280 N   0  0  0  0  0  0  0  0  0  0  0  0
   32.4250   29.1010   33.9440 H   0  0  0  0  0  0  0  0  0  0  0  0
  1  7  1  6  0  0  0
  1  2  1  0  0  0  0
  1  6  1  0  0  0  0
  2  3  1  0  0  0  0
  3 11  1  0  0  0  0
  3 10  1  0  0  0  0
  3  4  1  0  0  0  0
  4 13  1  0  0  0  0
  4 12  1  0  0  0  0
  5 14  1  0  0  0  0
  5  4  1  0  0  0  0
  6 16  1  1  0  0  0
  6  5  1  0  0  0  0
  8  2  1  0  0  0  0
  9  2  1  0  0  0  0
 15  5  1  0  0  0  0
 17  1  1  0  0  0  0
 17 18  1  0  0  0  0
 18 23  1  0  0  0  0
 19 24  1  0  0  0  0
 19 18  2  0  0  0  0
 20 19  1  0  0  0  0
 21 22  1  0  0  0  0
 21 20  2  0  0  0  0
 22 17  2  0  0  0  0
 25 21  1  0  0  0  0
 26 27  1  0  0  0  0
 27 28  2  0  0  0  0
 29  6  1  0  0  0  0
 29 27  1  0  0  0  0
 30 29  1  0  0  0  0
M  END
>  <minimizedAffinity>
-4.09394693

$$$$

 OpenBabel03262520393D

 30 31  0  0  1  0  0  0  0  0999 V2000
   37.0480   26.9700   34.4920 C   0  0  2  0  0  0  0  0  0  0  0  0
   38.0970   27.4610   35.4710 C   0  0  0  0  0  0  0  0  0  0  0  0
   39.4710   26.9240   35.1990 C   0  0  0  0  0  0  0  0  0  0  0  0
   39.4730   25.4050   35.1310 C   0  0  0  0  0  0  0  0  0  0  0  0
   38.2880   24.8360   34.4060 C   0  0  0  0  0  0  0  0  0  0  0  0
   37.6120   25.9230   33.5870 C   0  0  1  0  0  0  0  0  0  0  0  0
   36.1740   26.6010   35.0340 H   0  0  0  0  0  0  0  0  0  0  0  0
   38.1650   28.5710   35.4480 H   0  0  0  0  0  0  0  0  0  0  0  0
   37.8410   27.1480   36.5150 H   0  0  0  0  0  0  0  0  0  0  0  0
   39.8500   27.3630   34.2470 H   0  0  0  0  0  0  0  0  0  0  0  0
   40.1290   27.2320   36.0140 H   0  0  0  0  0  0  0  0  0  0  0  0
   40.3740   25.1390   34.5050 H   0  0  0  0  0  0  0  0  0  0  0  0
   39.6330   24.9920   36.1350 H   0  0  0  0  0  0  0  0  0  0  0  0
   38.5340   23.9650   33.7750 H   0  0  0  0  0  0  0  0  0  0  0  0
   37.5070   24.4950   35.1260 H   0  0  0  0  0  0  0  0  0  0  0  0
   38.4690   26.4140   33.0340 H   0  0  0  0  0  0  0  0  0  0  0  0
   36.5960   28.1100   33.6380 C   0  0  0  0  0  0  0  0  0  0  0  0
   35.6500   28.9810   34.2070 C   0  0  0  0  0  0  0  0  0  0  0  0
   35.2190   30.0420   33.4010 C   0  0  0  0  0  0  0  0  0  0  0  0
   35.7230   30.1750   32.1370 N   0  0  0  0  0  0  0  0  0  0  0  0
   36.6390   29.3070   31.6250 C   0  0  0  0  0  0  0  0  0  0  0  0
   37.0590   28.2860   32.3890 N   0  0  0  0  0  0  0  0  0  0  0  0
   35.2300   28.9190   35.1780 H   0  0  0  0  0  0  0  0  0  0  0  0
   34.4940   30.7680   33.7430 H   0  0  0  0  0  0  0  0  0  0  0  0
   36.9750   29.4990   30.6160 H   0  0  0  0  0  0  0  0  0  0  0  0
   36.4060   24.4700   30.6070 H   0  0  0  0  0  0  0  0  0  0  0  0
   37.0950   24.8500   31.3330 C   0  0  0  0  0  0  0  0  0  0  0  0
   38.1700   24.6230   30.6820 O   0  0  0  0  0  0  0  0  0  0  0  0
   36.7220   25.4120   32.6090 N   0  0  0  0  0  0  0  0  0  0  0  0
   35.6980   25.4010   32.7340 H   0  0  0  0  0  0  0  0  0  0  0  0
  1  7  1  1  0  0  0
  1  2  1  0  0  0  0
  2  9  1  0  0  0  0
  3  2  1  0  0  0  0
  3 11  1  0  0  0  0
  4  3  1  0  0  0  0
  4 13  1  0  0  0  0
  5 15  1  0  0  0  0
  5  4  1  0  0  0  0
  6 16  1  6  0  0  0
  6  5  1  0  0  0  0
  6  1  1  0  0  0  0
  8  2  1  0  0  0  0
 10  3  1  0  0  0  0
 12  4  1  0  0  0  0
 14  5  1  0  0  0  0
 17 18  1  0  0  0  0
 17  1  1  0  0  0  0
 18 23  1  0  0  0  0
 19 24  1  0  0  0  0
 19 18  2  0  0  0  0
 20 19  1  0  0  0  0
 21 20  2  0  0  0  0
 21 22  1  0  0  0  0
 22 17  2  0  0  0  0
 25 21  1  0  0  0  0
 26 27  1  0  0  0  0
 27 29  1  0  0  0  0
 28 27  2  0  0  0  0
 29 30  1  0  0  0  0
 29  6  1  0  0  0  0
M  END
>  <minimizedAffinity>
-4.07900858

$$$$

 OpenBabel03262520393D

 30 31  0  0  1  0  0  0  0  0999 V2000
   38.6300   23.0280   36.1780 C   0  0  2  0  0  0  0  0  0  0  0  0
   37.8410   24.3200   36.1070 C   0  0  0  0  0  0  0  0  0  0  0  0
   38.1730   25.2890   37.2040 C   0  0  0  0  0  0  0  0  0  0  0  0
   38.0290   24.6490   38.5760 C   0  0  0  0  0  0  0  0  0  0  0  0
   38.5430   23.2410   38.6370 C   0  0  0  0  0  0  0  0  0  0  0  0
   39.4330   22.9620   37.4370 C   0  0  1  0  0  0  0  0  0  0  0  0
   37.9560   22.1720   36.0890 H   0  0  0  0  0  0  0  0  0  0  0  0
   38.0240   24.8390   35.1410 H   0  0  0  0  0  0  0  0  0  0  0  0
   36.7420   24.1190   36.1930 H   0  0  0  0  0  0  0  0  0  0  0  0
   39.2100   25.6680   37.0510 H   0  0  0  0  0  0  0  0  0  0  0  0
   37.4800   26.1300   37.1430 H   0  0  0  0  0  0  0  0  0  0  0  0
   38.7000   25.2520   39.2540 H   0  0  0  0  0  0  0  0  0  0  0  0
   36.9990   24.7730   38.9330 H   0  0  0  0  0  0  0  0  0  0  0  0
   39.0690   23.0040   39.5780 H   0  0  0  0  0  0  0  0  0  0  0  0
   37.7080   22.5070   38.5490 H   0  0  0  0  0  0  0  0  0  0  0  0
   40.1340   23.8510   37.4100 H   0  0  0  0  0  0  0  0  0  0  0  0
   39.5840   22.9660   35.0300 C   0  0  0  0  0  0  0  0  0  0  0  0
   40.3140   24.1370   34.7580 C   0  0  0  0  0  0  0  0  0  0  0  0
   41.1990   24.0800   33.6740 C   0  0  0  0  0  0  0  0  0  0  0  0
   41.3060   22.9230   32.9530 N   0  0  0  0  0  0  0  0  0  0  0  0
   40.5790   21.8100   33.2510 C   0  0  0  0  0  0  0  0  0  0  0  0
   39.7280   21.8550   34.2890 N   0  0  0  0  0  0  0  0  0  0  0  0
   40.2640   25.0550   35.2860 H   0  0  0  0  0  0  0  0  0  0  0  0
   41.8070   24.9250   33.3810 H   0  0  0  0  0  0  0  0  0  0  0  0
   40.7360   20.9470   32.6210 H   0  0  0  0  0  0  0  0  0  0  0  0
   42.2300   20.8110   37.4180 H   0  0  0  0  0  0  0  0  0  0  0  0
   41.6430   21.6980   37.2920 C   0  0  0  0  0  0  0  0  0  0  0  0
   42.5690   22.4550   36.8460 O   0  0  0  0  0  0  0  0  0  0  0  0
   40.2350   21.8030   37.5940 N   0  0  0  0  0  0  0  0  0  0  0  0
   39.8640   20.9090   37.9500 H   0  0  0  0  0  0  0  0  0  0  0  0
  1  7  1  6  0  0  0
  1  6  1  0  0  0  0
  2  1  1  0  0  0  0
  2  9  1  0  0  0  0
  2  3  1  0  0  0  0
  3  4  1  0  0  0  0
  4  5  1  0  0  0  0
  4 13  1  0  0  0  0
  4 12  1  0  0  0  0
  5 14  1  0  0  0  0
  6 16  1  6  0  0  0
  6 29  1  0  0  0  0
  6  5  1  0  0  0  0
  8  2  1  0  0  0  0
 10  3  1  0  0  0  0
 11  3  1  0  0  0  0
 15  5  1  0  0  0  0
 17  1  1  0  0  0  0
 18 17  1  0  0  0  0
 18 23  1  0  0  0  0
 19 18  2  0  0  0  0
 20 21  2  0  0  0  0
 20 19  1  0  0  0  0
 21 22  1  0  0  0  0
 22 17  2  0  0  0  0
 24 19  1  0  0  0  0
 25 21  1  0  0  0  0
 27 26  1  0  0  0  0
 27 29  1  0  0  0  0
 28 27  2  0  0  0  0
 29 30  1  0  0  0  0
M  END
>  <minimizedAffinity>
-4.05416203

$$$$
