
 OpenBabel03272510153D

 24 25  0  0  0  0  0  0  0  0999 V2000
   37.2350   29.3870   51.1210 Br  0  0  0  0  0  0  0  0  0  0  0  0
   35.9470   29.2790   49.7020 C   0  0  0  0  0  0  0  0  0  0  0  0
   36.0050   30.1570   48.6380 C   0  0  0  0  0  0  0  0  0  0  0  0
   35.0440   30.0180   47.6540 C   0  0  0  0  0  0  0  0  0  0  0  0
   34.0530   29.0510   47.7040 C   0  0  0  0  0  0  0  0  0  0  0  0
   34.0390   28.2020   48.7810 C   0  0  0  0  0  0  0  0  0  0  0  0
   34.9850   28.3180   49.7760 C   0  0  0  0  0  0  0  0  0  0  0  0
   35.1370   30.7360   46.8400 H   0  0  0  0  0  0  0  0  0  0  0  0
   33.2510   27.4630   48.7800 H   0  0  0  0  0  0  0  0  0  0  0  0
   34.8780   27.6000   50.5740 H   0  0  0  0  0  0  0  0  0  0  0  0
   37.9390   33.1520   49.4250 C   0  0  0  0  0  0  0  0  0  0  0  0
   38.9870   33.1410   48.4500 C   0  0  0  0  0  0  0  0  0  0  0  0
   38.9920   32.0930   47.5470 C   0  0  0  0  0  0  0  0  0  0  0  0
   38.0160   31.1360   47.6270 N   0  0  0  0  0  0  0  0  0  0  0  0
   37.0420   31.1860   48.5660 C   0  0  0  0  0  0  0  0  0  0  0  0
   37.0050   32.1910   49.4610 N   0  0  0  0  0  0  0  0  0  0  0  0
   37.9330   33.9720   50.1330 H   0  0  0  0  0  0  0  0  0  0  0  0
   39.7380   33.9210   48.4270 H   0  0  0  0  0  0  0  0  0  0  0  0
   39.7620   32.0210   46.7770 H   0  0  0  0  0  0  0  0  0  0  0  0
   30.9420   28.4520   46.2540 H   0  0  0  0  0  0  0  0  0  0  0  0
   31.8460   28.5880   46.8100 C   0  0  0  0  0  0  0  0  0  0  0  0
   31.2640   28.1160   47.8220 O   0  0  0  0  0  0  0  0  0  0  0  0
   33.1690   29.0730   46.6040 N   0  0  0  0  0  0  0  0  0  0  0  0
   33.2230   29.3710   45.6050 H   0  0  0  0  0  0  0  0  0  0  0  0
  2  7  1  0  0  0  0
  2  1  1  0  0  0  0
  3  2  2  0  0  0  0
  4  5  2  0  0  0  0
  4  3  1  0  0  0  0
  5  6  1  0  0  0  0
  6  7  2  0  0  0  0
  7 10  1  0  0  0  0
  8  4  1  0  0  0  0
  9  6  1  0  0  0  0
 11 16  1  0  0  0  0
 11 17  1  0  0  0  0
 12 11  2  0  0  0  0
 13 14  2  0  0  0  0
 13 12  1  0  0  0  0
 14 15  1  0  0  0  0
 15  3  1  0  0  0  0
 15 16  2  0  0  0  0
 18 12  1  0  0  0  0
 19 13  1  0  0  0  0
 20 21  1  0  0  0  0
 21 22  2  0  0  0  0
 23 21  1  0  0  0  0
 23  5  1  0  0  0  0
 24 23  1  0  0  0  0
M  END
>  <minimizedAffinity>
-5.54063416

>  <minimizedRMSD>
0.128671393

$$$$
