
 OpenBabel03272510153D

 24 25  0  0  0  0  0  0  0  0999 V2000
   37.1450   29.5190   51.2050 Br  0  0  0  0  0  0  0  0  0  0  0  0
   35.9640   29.3030   49.7070 C   0  0  0  0  0  0  0  0  0  0  0  0
   36.0760   30.1260   48.6050 C   0  0  0  0  0  0  0  0  0  0  0  0
   35.1910   29.9100   47.5650 C   0  0  0  0  0  0  0  0  0  0  0  0
   34.2220   28.9200   47.5980 C   0  0  0  0  0  0  0  0  0  0  0  0
   34.1520   28.1280   48.7150 C   0  0  0  0  0  0  0  0  0  0  0  0
   35.0220   28.3210   49.7660 C   0  0  0  0  0  0  0  0  0  0  0  0
   35.3240   30.5870   46.7220 H   0  0  0  0  0  0  0  0  0  0  0  0
   33.3840   27.3690   48.6990 H   0  0  0  0  0  0  0  0  0  0  0  0
   34.8760   27.6420   50.5910 H   0  0  0  0  0  0  0  0  0  0  0  0
   37.9360   33.1580   49.4290 C   0  0  0  0  0  0  0  0  0  0  0  0
   38.9940   33.1750   48.4660 C   0  0  0  0  0  0  0  0  0  0  0  0
   39.0320   32.1320   47.5580 C   0  0  0  0  0  0  0  0  0  0  0  0
   38.0760   31.1540   47.6220 N   0  0  0  0  0  0  0  0  0  0  0  0
   37.0910   31.1770   48.5500 C   0  0  0  0  0  0  0  0  0  0  0  0
   37.0220   32.1770   49.4500 N   0  0  0  0  0  0  0  0  0  0  0  0
   37.9030   33.9740   50.1420 H   0  0  0  0  0  0  0  0  0  0  0  0
   39.7280   33.9710   48.4560 H   0  0  0  0  0  0  0  0  0  0  0  0
   39.8120   32.0820   46.7960 H   0  0  0  0  0  0  0  0  0  0  0  0
   31.1660   28.3960   46.0060 H   0  0  0  0  0  0  0  0  0  0  0  0
   32.0420   28.5310   46.6070 C   0  0  0  0  0  0  0  0  0  0  0  0
   31.3530   28.2640   47.6250 O   0  0  0  0  0  0  0  0  0  0  0  0
   33.4170   28.8620   46.4400 N   0  0  0  0  0  0  0  0  0  0  0  0
   33.5650   29.0050   45.4160 H   0  0  0  0  0  0  0  0  0  0  0  0
  2  7  1  0  0  0  0
  2  1  1  0  0  0  0
  3  2  2  0  0  0  0
  4  5  2  0  0  0  0
  4  3  1  0  0  0  0
  5  6  1  0  0  0  0
  6  7  2  0  0  0  0
  7 10  1  0  0  0  0
  8  4  1  0  0  0  0
  9  6  1  0  0  0  0
 11 16  1  0  0  0  0
 11 17  1  0  0  0  0
 12 11  2  0  0  0  0
 13 14  2  0  0  0  0
 13 12  1  0  0  0  0
 14 15  1  0  0  0  0
 15  3  1  0  0  0  0
 15 16  2  0  0  0  0
 18 12  1  0  0  0  0
 19 13  1  0  0  0  0
 20 21  1  0  0  0  0
 21 22  2  0  0  0  0
 23 21  1  0  0  0  0
 23  5  1  0  0  0  0
 24 23  1  0  0  0  0
M  END
>  <minimizedAffinity>
-5.53541994

>  <minimizedRMSD>
0.490597218

$$$$
