
 OpenBabel03272509203D

 42 45  0  0  0  0  0  0  0  0999 V2000
   38.0900   31.3340   47.8050 C   0  0  0  0  0  0  0  0  0  0  0  0
   37.0980   31.3310   48.7680 C   0  0  0  0  0  0  0  0  0  0  0  0
   37.1340   32.4350   49.6220 C   0  0  0  0  0  0  0  0  0  0  0  0
   38.0990   33.4440   49.4970 C   0  0  0  0  0  0  0  0  0  0  0  0
   39.0670   33.3440   48.4740 C   0  0  0  0  0  0  0  0  0  0  0  0
   39.0510   32.2580   47.6130 C   0  0  0  0  0  0  0  0  0  0  0  0
   36.4060   32.5450   50.4210 H   0  0  0  0  0  0  0  0  0  0  0  0
   38.1250   34.2840   50.1480 H   0  0  0  0  0  0  0  0  0  0  0  0
   39.8180   34.1220   48.3690 H   0  0  0  0  0  0  0  0  0  0  0  0
   34.9890   30.3060   48.0840 C   0  0  0  0  0  0  0  0  0  0  0  0
   36.1160   30.3090   48.9010 C   0  0  0  0  0  0  0  0  0  0  0  0
   36.2340   29.2750   49.8430 C   0  0  0  0  0  0  0  0  0  0  0  0
   35.2560   28.3350   49.9110 N   0  0  0  0  0  0  0  0  0  0  0  0
   34.1800   28.3800   49.0900 C   0  0  0  0  0  0  0  0  0  0  0  0
   34.0500   29.3570   48.1870 N   0  0  0  0  0  0  0  0  0  0  0  0
   34.8810   31.0960   47.3500 H   0  0  0  0  0  0  0  0  0  0  0  0
   33.3930   27.6230   49.1450 H   0  0  0  0  0  0  0  0  0  0  0  0
   37.4160   29.2220   50.7480 C   0  0  0  0  0  0  0  0  0  0  0  0
   37.5920   28.2080   51.1170 H   0  0  0  0  0  0  0  0  0  0  0  0
   37.2930   29.9720   51.5740 H   0  0  0  0  0  0  0  0  0  0  0  0
   38.3020   29.5500   50.1760 H   0  0  0  0  0  0  0  0  0  0  0  0
   38.1370   30.2570   46.8920 O   0  0  0  0  0  0  0  0  0  0  0  0
   37.2400   29.8970   46.5880 H   0  0  0  0  0  0  0  0  0  0  0  0
   40.0210   32.2240   46.6410 O   0  0  0  0  0  0  0  0  0  0  0  0
   40.5130   31.1170   44.4680 C   0  0  0  0  0  0  0  0  0  0  0  0
   39.8390   31.9850   45.3100 C   0  0  0  0  0  0  0  0  0  0  0  0
   38.8170   32.7510   44.7770 C   0  0  0  0  0  0  0  0  0  0  0  0
   38.4580   32.6660   43.4210 C   0  0  0  0  0  0  0  0  0  0  0  0
   37.5380   33.2630   42.6370 N   0  0  0  0  0  0  0  0  0  0  0  0
   37.6370   32.7900   41.3810 C   0  0  0  0  0  0  0  0  0  0  0  0
   38.6370   31.8820   41.3810 N   0  0  0  0  0  0  0  0  0  0  0  0
   39.1570   31.7890   42.6260 C   0  0  0  0  0  0  0  0  0  0  0  0
   40.1690   31.0240   43.1400 C   0  0  0  0  0  0  0  0  0  0  0  0
   41.2950   30.5570   44.9670 H   0  0  0  0  0  0  0  0  0  0  0  0
   38.2080   33.4690   45.3160 H   0  0  0  0  0  0  0  0  0  0  0  0
   36.8570   33.9840   42.9750 H   0  0  0  0  0  0  0  0  0  0  0  0
   37.0370   33.0720   40.5170 H   0  0  0  0  0  0  0  0  0  0  0  0
   40.6210   27.9020   41.8840 H   0  0  0  0  0  0  0  0  0  0  0  0
   40.3090   28.7980   42.3800 C   0  0  0  0  0  0  0  0  0  0  0  0
   39.2740   28.7090   43.1250 O   0  0  0  0  0  0  0  0  0  0  0  0
   40.9000   30.1130   42.3280 N   0  0  0  0  0  0  0  0  0  0  0  0
   41.7380   30.1840   41.7240 H   0  0  0  0  0  0  0  0  0  0  0  0
  1  2  1  0  0  0  0
  2 11  1  0  0  0  0
  2  3  2  0  0  0  0
  3  7  1  0  0  0  0
  4  3  1  0  0  0  0
  4  8  1  0  0  0  0
  5  4  2  0  0  0  0
  6  1  2  0  0  0  0
  6  5  1  0  0  0  0
  9  5  1  0  0  0  0
 10 15  2  0  0  0  0
 10 11  1  0  0  0  0
 11 12  2  0  0  0  0
 12 13  1  0  0  0  0
 12 18  1  0  0  0  0
 14 17  1  0  0  0  0
 14 13  2  0  0  0  0
 15 14  1  0  0  0  0
 16 10  1  0  0  0  0
 18 19  1  0  0  0  0
 18 20  1  0  0  0  0
 21 18  1  0  0  0  0
 22  1  1  0  0  0  0
 23 22  1  0  0  0  0
 24  6  1  0  0  0  0
 25 34  1  0  0  0  0
 25 26  1  0  0  0  0
 26 24  1  0  0  0  0
 27 26  2  0  0  0  0
 27 35  1  0  0  0  0
 28 27  1  0  0  0  0
 29 36  1  0  0  0  0
 29 28  1  0  0  0  0
 30 31  2  0  0  0  0
 30 29  1  0  0  0  0
 31 32  1  0  0  0  0
 32 33  1  0  0  0  0
 32 28  2  0  0  0  0
 33 25  2  0  0  0  0
 37 30  1  0  0  0  0
 38 39  1  0  0  0  0
 39 40  2  0  0  0  0
 41 39  1  0  0  0  0
 41 33  1  0  0  0  0
 42 41  1  0  0  0  0
M  END
>  <minimizedAffinity>
-7.25853491

>  <minimizedRMSD>
0.322679192

$$$$
