
 OpenBabel03272500533D

 24 25  0  0  0  0  0  0  0  0999 V2000
   38.0880   31.2050   47.8870 C   0  0  0  0  0  0  0  0  0  0  0  0
   38.3350   30.4250   46.7630 C   0  0  0  0  0  0  0  0  0  0  0  0
   39.1580   30.8130   45.7210 C   0  0  0  0  0  0  0  0  0  0  0  0
   39.7860   32.0740   45.8020 C   0  0  0  0  0  0  0  0  0  0  0  0
   39.5270   32.8300   46.9230 C   0  0  0  0  0  0  0  0  0  0  0  0
   38.7100   32.4350   47.9470 C   0  0  0  0  0  0  0  0  0  0  0  0
   37.8850   29.4460   46.6390 H   0  0  0  0  0  0  0  0  0  0  0  0
   39.3360   30.1910   44.8580 H   0  0  0  0  0  0  0  0  0  0  0  0
   40.4370   32.4500   45.0400 H   0  0  0  0  0  0  0  0  0  0  0  0
   39.9690   33.8110   47.0620 H   0  0  0  0  0  0  0  0  0  0  0  0
   37.8400   29.9430   49.9550 C   0  0  0  0  0  0  0  0  0  0  0  0
   37.1920   30.6170   48.8700 C   0  0  0  0  0  0  0  0  0  0  0  0
   35.8080   30.6350   48.8740 C   0  0  0  0  0  0  0  0  0  0  0  0
   35.1380   30.0330   49.8760 N   0  0  0  0  0  0  0  0  0  0  0  0
   35.7570   29.4000   50.8930 C   0  0  0  0  0  0  0  0  0  0  0  0
   37.1160   29.3580   50.9290 N   0  0  0  0  0  0  0  0  0  0  0  0
   38.9120   29.8610   50.0620 H   0  0  0  0  0  0  0  0  0  0  0  0
   35.3620   31.1550   48.0380 H   0  0  0  0  0  0  0  0  0  0  0  0
   35.1560   28.9340   51.6710 H   0  0  0  0  0  0  0  0  0  0  0  0
   39.3610   35.0420   50.0250 H   0  0  0  0  0  0  0  0  0  0  0  0
   39.3440   34.2900   49.2240 C   0  0  0  0  0  0  0  0  0  0  0  0
   40.2370   34.4420   48.3400 O   0  0  0  0  0  0  0  0  0  0  0  0
   38.4330   33.2040   49.1120 N   0  0  0  0  0  0  0  0  0  0  0  0
   37.7100   33.1120   49.8620 H   0  0  0  0  0  0  0  0  0  0  0  0
  1  6  1  0  0  0  0
  1 12  1  0  0  0  0
  2  1  2  0  0  0  0
  3  4  2  0  0  0  0
  3  2  1  0  0  0  0
  4  5  1  0  0  0  0
  5 10  1  0  0  0  0
  5  6  2  0  0  0  0
  6 23  1  0  0  0  0
  7  2  1  0  0  0  0
  8  3  1  0  0  0  0
  9  4  1  0  0  0  0
 11 17  1  0  0  0  0
 11 16  1  0  0  0  0
 12 13  1  0  0  0  0
 12 11  2  0  0  0  0
 13 14  2  0  0  0  0
 14 15  1  0  0  0  0
 15 16  2  0  0  0  0
 15 19  1  0  0  0  0
 18 13  1  0  0  0  0
 21 20  1  0  0  0  0
 22 21  2  0  0  0  0
 23 21  1  0  0  0  0
 23 24  1  0  0  0  0
M  END
>  <minimizedAffinity>
-5.32174921

>  <minimizedRMSD>
1.76082385

$$$$
