
 OpenBabel03272500413D

 36 38  0  0  1  0  0  0  0  0999 V2000
   36.3950   31.1460   48.0310 C   0  0  1  0  0  0  0  0  0  0  0  0
   36.2970   30.1750   46.9810 C   0  0  0  0  0  0  0  0  0  0  0  0
   36.7350   29.7620   48.3560 C   0  0  2  0  0  0  0  0  0  0  0  0
   35.5150   31.7130   48.2760 H   0  0  0  0  0  0  0  0  0  0  0  0
   37.0830   30.1560   46.1770 H   0  0  0  0  0  0  0  0  0  0  0  0
   35.3270   29.8610   46.5980 H   0  0  0  0  0  0  0  0  0  0  0  0
   37.7950   29.4700   48.4560 H   0  0  0  0  0  0  0  0  0  0  0  0
   37.5710   32.1040   48.1570 C   0  0  0  0  0  0  0  0  0  0  0  0
   37.7700   32.7220   49.3820 C   0  0  0  0  0  0  0  0  0  0  0  0
   38.8430   33.5940   49.4500 C   0  0  0  0  0  0  0  0  0  0  0  0
   39.6220   33.7940   48.3470 N   0  0  0  0  0  0  0  0  0  0  0  0
   39.4060   33.1750   47.1590 C   0  0  0  0  0  0  0  0  0  0  0  0
   38.3580   32.3140   47.0690 N   0  0  0  0  0  0  0  0  0  0  0  0
   37.1460   32.5510   50.2310 H   0  0  0  0  0  0  0  0  0  0  0  0
   39.1020   34.1360   50.3490 H   0  0  0  0  0  0  0  0  0  0  0  0
   40.8880   33.6540   44.0250 H   0  0  0  0  0  0  0  0  0  0  0  0
   40.0290   33.4160   44.6460 C   0  0  0  0  0  0  0  0  0  0  0  0
   38.8050   33.1130   44.4450 O   0  0  0  0  0  0  0  0  0  0  0  0
   40.2560   33.4280   46.0460 N   0  0  0  0  0  0  0  0  0  0  0  0
   41.1460   33.6360   46.5540 H   0  0  0  0  0  0  0  0  0  0  0  0
   36.1950   28.7420   50.5510 C   0  0  2  0  0  0  0  0  0  0  0  0
   35.8290   28.8630   49.1360 C   0  0  1  0  0  0  0  0  0  0  0  0
   34.4610   29.4560   49.1440 C   0  0  0  0  0  0  0  0  0  0  0  0
   34.2950   30.1210   50.3620 O   0  0  0  0  0  0  0  0  0  0  0  0
   34.8120   29.2220   51.2390 C   0  0  0  0  0  0  0  0  0  0  0  0
   36.2760   27.8470   51.1290 H   0  0  0  0  0  0  0  0  0  0  0  0
   35.8450   27.8730   48.5950 H   0  0  0  0  0  0  0  0  0  0  0  0
   33.8110   28.5550   49.3070 H   0  0  0  0  0  0  0  0  0  0  0  0
   34.0380   29.8990   48.2810 H   0  0  0  0  0  0  0  0  0  0  0  0
   34.1930   28.2850   51.1310 H   0  0  0  0  0  0  0  0  0  0  0  0
   34.9730   29.4660   52.2570 H   0  0  0  0  0  0  0  0  0  0  0  0
   37.0290   29.7700   50.9550 O   0  0  0  0  0  0  0  0  0  0  0  0
   37.4440   29.8600   52.1540 C   0  0  0  0  0  0  0  0  0  0  0  0
   38.0180   28.9800   52.5870 H   0  0  0  0  0  0  0  0  0  0  0  0
   36.7390   30.2580   52.9480 H   0  0  0  0  0  0  0  0  0  0  0  0
   38.2540   30.7020   52.2110 H   0  0  0  0  0  0  0  0  0  0  0  0
  1  8  1  0  0  0  0
  1  4  1  1  0  0  0
  1  3  1  0  0  0  0
  2  1  1  0  0  0  0
  2  3  1  0  0  0  0
  3  7  1  1  0  0  0
  3 22  1  0  0  0  0
  5  2  1  0  0  0  0
  6  2  1  0  0  0  0
  8  9  1  0  0  0  0
  9 10  2  0  0  0  0
  9 14  1  0  0  0  0
 10 15  1  0  0  0  0
 11 10  1  0  0  0  0
 12 11  2  0  0  0  0
 13 12  1  0  0  0  0
 13  8  2  0  0  0  0
 16 17  1  0  0  0  0
 17 19  1  0  0  0  0
 18 17  2  0  0  0  0
 19 20  1  0  0  0  0
 19 12  1  0  0  0  0
 21 32  1  0  0  0  0
 21 26  1  1  0  0  0
 21 25  1  0  0  0  0
 22 27  1  6  0  0  0
 22 23  1  0  0  0  0
 22 21  1  0  0  0  0
 23 28  1  0  0  0  0
 23 24  1  0  0  0  0
 24 25  1  0  0  0  0
 25 31  1  0  0  0  0
 29 23  1  0  0  0  0
 30 25  1  0  0  0  0
 32 33  1  0  0  0  0
 33 36  1  0  0  0  0
 33 34  1  0  0  0  0
 33 35  1  0  0  0  0
M  END
>  <minimizedAffinity>
-5.05960989

>  <minimizedRMSD>
1.2050159

$$$$
