
 OpenBabel03272503543D

 40 42  0  0  1  0  0  0  0  0999 V2000
   40.0060   24.6050   34.8070 C   0  0  1  0  0  0  0  0  0  0  0  0
   41.4140   25.2200   34.9950 C   0  0  0  0  0  0  0  0  0  0  0  0
   42.3630   24.0360   34.7230 C   0  0  0  0  0  0  0  0  0  0  0  0
   42.2380   23.1120   35.8780 C   0  0  0  0  0  0  0  0  0  0  0  0
   40.8250   22.6120   35.9920 C   0  0  0  0  0  0  0  0  0  0  0  0
   39.8070   23.7270   36.0110 C   0  0  2  0  0  0  0  0  0  0  0  0
   40.1150   24.0940   33.8400 H   0  0  0  0  0  0  0  0  0  0  0  0
   41.5530   25.4790   36.0500 H   0  0  0  0  0  0  0  0  0  0  0  0
   41.6230   26.0030   34.2670 H   0  0  0  0  0  0  0  0  0  0  0  0
   43.4090   24.4090   34.6050 H   0  0  0  0  0  0  0  0  0  0  0  0
   41.9580   23.5460   33.8270 H   0  0  0  0  0  0  0  0  0  0  0  0
   42.9080   22.2520   35.8620 H   0  0  0  0  0  0  0  0  0  0  0  0
   42.4660   23.6540   36.8360 H   0  0  0  0  0  0  0  0  0  0  0  0
   40.7370   22.0540   36.9530 H   0  0  0  0  0  0  0  0  0  0  0  0
   40.6610   21.8660   35.2000 H   0  0  0  0  0  0  0  0  0  0  0  0
   40.0260   24.3160   36.9240 H   0  0  0  0  0  0  0  0  0  0  0  0
   37.9810   25.6280   33.7310 C   0  0  0  0  0  0  0  0  0  0  0  0
   37.0170   26.6290   33.7090 C   0  0  0  0  0  0  0  0  0  0  0  0
   37.0520   27.6680   34.6480 C   0  0  0  0  0  0  0  0  0  0  0  0
   38.0790   27.6520   35.5870 C   0  0  0  0  0  0  0  0  0  0  0  0
   39.0280   26.6730   35.6150 C   0  0  0  0  0  0  0  0  0  0  0  0
   38.9790   25.6340   34.6620 C   0  0  0  0  0  0  0  0  0  0  0  0
   36.2230   26.6430   32.9840 H   0  0  0  0  0  0  0  0  0  0  0  0
   36.2860   28.4390   34.6100 H   0  0  0  0  0  0  0  0  0  0  0  0
   38.0420   28.4820   36.2770 H   0  0  0  0  0  0  0  0  0  0  0  0
   39.7610   26.7840   36.3880 H   0  0  0  0  0  0  0  0  0  0  0  0
   38.0210   23.7760   30.4440 C   0  0  0  0  0  0  0  0  0  0  0  0
   38.1780   24.8350   31.3590 C   0  0  0  0  0  0  0  0  0  0  0  0
   37.8540   24.6220   32.6980 C   0  0  0  0  0  0  0  0  0  0  0  0
   37.4050   23.3950   33.0190 N   0  0  0  0  0  0  0  0  0  0  0  0
   37.2560   22.3860   32.1420 C   0  0  0  0  0  0  0  0  0  0  0  0
   37.5630   22.5830   30.8690 N   0  0  0  0  0  0  0  0  0  0  0  0
   38.3170   24.1100   29.4500 H   0  0  0  0  0  0  0  0  0  0  0  0
   38.5380   25.8270   31.1140 H   0  0  0  0  0  0  0  0  0  0  0  0
   36.8960   21.4130   32.4190 H   0  0  0  0  0  0  0  0  0  0  0  0
   36.5790   22.8310   36.9910 H   0  0  0  0  0  0  0  0  0  0  0  0
   37.5300   23.3500   37.0650 C   0  0  0  0  0  0  0  0  0  0  0  0
   37.6820   24.1070   38.0310 O   0  0  0  0  0  0  0  0  0  0  0  0
   38.5010   23.1160   36.0550 N   0  0  0  0  0  0  0  0  0  0  0  0
   38.3490   22.4670   35.2420 H   0  0  0  0  0  0  0  0  0  0  0  0
  1  7  1  6  0  0  0
  1  2  1  0  0  0  0
  1  6  1  0  0  0  0
  2  8  1  0  0  0  0
  3  2  1  0  0  0  0
  3  4  1  0  0  0  0
  4  5  1  0  0  0  0
  4 13  1  0  0  0  0
  5  6  1  0  0  0  0
  5 14  1  0  0  0  0
  6 39  1  0  0  0  0
  6 16  1  1  0  0  0
  9  2  1  0  0  0  0
 10  3  1  0  0  0  0
 11  3  1  0  0  0  0
 12  4  1  0  0  0  0
 15  5  1  0  0  0  0
 17 22  1  0  0  0  0
 18 17  2  0  0  0  0
 18 19  1  0  0  0  0
 19 20  2  0  0  0  0
 20 21  1  0  0  0  0
 20 25  1  0  0  0  0
 21 26  1  0  0  0  0
 22  1  1  0  0  0  0
 22 21  2  0  0  0  0
 23 18  1  0  0  0  0
 24 19  1  0  0  0  0
 27 32  2  0  0  0  0
 27 28  1  0  0  0  0
 28 29  2  0  0  0  0
 29 30  1  0  0  0  0
 29 17  1  0  0  0  0
 31 35  1  0  0  0  0
 31 30  2  0  0  0  0
 32 31  1  0  0  0  0
 33 27  1  0  0  0  0
 34 28  1  0  0  0  0
 36 37  1  0  0  0  0
 37 38  2  0  0  0  0
 39 37  1  0  0  0  0
 40 39  1  0  0  0  0
M  END
>  <minimizedAffinity>
-5.1397748

$$$$

 OpenBabel03272503543D

 40 42  0  0  1  0  0  0  0  0999 V2000
   35.3570   30.4980   34.0670 C   0  0  1  0  0  0  0  0  0  0  0  0
   35.8090   31.8360   34.7010 C   0  0  0  0  0  0  0  0  0  0  0  0
   35.5480   31.6270   36.2060 C   0  0  0  0  0  0  0  0  0  0  0  0
   34.0750   31.6420   36.3920 C   0  0  0  0  0  0  0  0  0  0  0  0
   33.4410   30.5270   35.6090 C   0  0  0  0  0  0  0  0  0  0  0  0
   33.8560   30.5180   34.1570 C   0  0  2  0  0  0  0  0  0  0  0  0
   35.8770   29.7660   34.7010 H   0  0  0  0  0  0  0  0  0  0  0  0
   35.1250   32.6310   34.3860 H   0  0  0  0  0  0  0  0  0  0  0  0
   36.8730   32.0210   34.5580 H   0  0  0  0  0  0  0  0  0  0  0  0
   36.0460   32.4350   36.7920 H   0  0  0  0  0  0  0  0  0  0  0  0
   35.9260   30.6180   36.4230 H   0  0  0  0  0  0  0  0  0  0  0  0
   33.7350   31.5750   37.4260 H   0  0  0  0  0  0  0  0  0  0  0  0
   33.6440   32.6010   35.9940 H   0  0  0  0  0  0  0  0  0  0  0  0
   32.3360   30.6680   35.6470 H   0  0  0  0  0  0  0  0  0  0  0  0
   33.6380   29.5830   36.1380 H   0  0  0  0  0  0  0  0  0  0  0  0
   33.4850   31.4740   33.7350 H   0  0  0  0  0  0  0  0  0  0  0  0
   36.4520   29.2300   32.1960 C   0  0  0  0  0  0  0  0  0  0  0  0
   36.8440   29.1680   30.8640 C   0  0  0  0  0  0  0  0  0  0  0  0
   36.6310   30.2580   30.0100 C   0  0  0  0  0  0  0  0  0  0  0  0
   36.0200   31.3870   30.5480 C   0  0  0  0  0  0  0  0  0  0  0  0
   35.6330   31.4550   31.8540 C   0  0  0  0  0  0  0  0  0  0  0  0
   35.8540   30.3490   32.7020 C   0  0  0  0  0  0  0  0  0  0  0  0
   37.3160   28.2970   30.4470 H   0  0  0  0  0  0  0  0  0  0  0  0
   36.9460   30.1840   28.9720 H   0  0  0  0  0  0  0  0  0  0  0  0
   35.8880   32.1850   29.8330 H   0  0  0  0  0  0  0  0  0  0  0  0
   35.1770   32.3830   32.1370 H   0  0  0  0  0  0  0  0  0  0  0  0
   37.1610   26.8470   35.0330 C   0  0  0  0  0  0  0  0  0  0  0  0
   36.8830   28.0590   34.3720 C   0  0  0  0  0  0  0  0  0  0  0  0
   36.7450   28.0530   32.9850 C   0  0  0  0  0  0  0  0  0  0  0  0
   36.8920   26.8630   32.3720 N   0  0  0  0  0  0  0  0  0  0  0  0
   37.1580   25.7080   33.0070 C   0  0  0  0  0  0  0  0  0  0  0  0
   37.2900   25.7080   34.3250 N   0  0  0  0  0  0  0  0  0  0  0  0
   37.2370   27.0290   36.1050 H   0  0  0  0  0  0  0  0  0  0  0  0
   36.7630   29.0220   34.8520 H   0  0  0  0  0  0  0  0  0  0  0  0
   37.2720   24.7690   32.5000 H   0  0  0  0  0  0  0  0  0  0  0  0
   31.5770   28.4340   32.5310 H   0  0  0  0  0  0  0  0  0  0  0  0
   31.9360   29.3610   32.9690 C   0  0  0  0  0  0  0  0  0  0  0  0
   31.1730   30.3330   32.9290 O   0  0  0  0  0  0  0  0  0  0  0  0
   33.2370   29.3720   33.5400 N   0  0  0  0  0  0  0  0  0  0  0  0
   33.8690   28.5320   33.5620 H   0  0  0  0  0  0  0  0  0  0  0  0
  1  6  1  0  0  0  0
  1  7  1  1  0  0  0
  1  2  1  0  0  0  0
  2  3  1  0  0  0  0
  3  4  1  0  0  0  0
  3 11  1  0  0  0  0
  3 10  1  0  0  0  0
  4 12  1  0  0  0  0
  5 14  1  0  0  0  0
  5 15  1  0  0  0  0
  5  4  1  0  0  0  0
  6 16  1  6  0  0  0
  6  5  1  0  0  0  0
  8  2  1  0  0  0  0
  9  2  1  0  0  0  0
 13  4  1  0  0  0  0
 17 22  1  0  0  0  0
 17 29  1  0  0  0  0
 18 17  2  0  0  0  0
 19 20  2  0  0  0  0
 19 18  1  0  0  0  0
 20 21  1  0  0  0  0
 21 26  1  0  0  0  0
 21 22  2  0  0  0  0
 22  1  1  0  0  0  0
 23 18  1  0  0  0  0
 24 19  1  0  0  0  0
 25 20  1  0  0  0  0
 27 33  1  0  0  0  0
 28 34  1  0  0  0  0
 28 27  1  0  0  0  0
 29 28  2  0  0  0  0
 30 29  1  0  0  0  0
 30 31  2  0  0  0  0
 31 32  1  0  0  0  0
 32 27  2  0  0  0  0
 35 31  1  0  0  0  0
 36 37  1  0  0  0  0
 37 39  1  0  0  0  0
 38 37  2  0  0  0  0
 39 40  1  0  0  0  0
 39  6  1  0  0  0  0
M  END
>  <minimizedAffinity>
-5.11611509

$$$$

 OpenBabel03272503543D

 40 42  0  0  1  0  0  0  0  0999 V2000
   35.4170   29.8450   33.3210 C   0  0  1  0  0  0  0  0  0  0  0  0
   35.8270   30.7600   32.1420 C   0  0  0  0  0  0  0  0  0  0  0  0
   35.7240   29.8320   30.9150 C   0  0  0  0  0  0  0  0  0  0  0  0
   36.8500   28.8690   31.0080 C   0  0  0  0  0  0  0  0  0  0  0  0
   36.7360   28.0570   32.2680 C   0  0  0  0  0  0  0  0  0  0  0  0
   36.5790   28.9090   33.5040 C   0  0  2  0  0  0  0  0  0  0  0  0
   34.4840   29.4020   32.9430 H   0  0  0  0  0  0  0  0  0  0  0  0
   36.8890   31.0120   32.2380 H   0  0  0  0  0  0  0  0  0  0  0  0
   35.1370   31.5900   32.0040 H   0  0  0  0  0  0  0  0  0  0  0  0
   35.7750   30.4360   29.9780 H   0  0  0  0  0  0  0  0  0  0  0  0
   34.7780   29.2890   31.0470 H   0  0  0  0  0  0  0  0  0  0  0  0
   36.9510   28.1860   30.1650 H   0  0  0  0  0  0  0  0  0  0  0  0
   37.8280   29.4210   31.0690 H   0  0  0  0  0  0  0  0  0  0  0  0
   37.6740   27.4650   32.3790 H   0  0  0  0  0  0  0  0  0  0  0  0
   35.9340   27.3180   32.1260 H   0  0  0  0  0  0  0  0  0  0  0  0
   37.5110   29.5050   33.5770 H   0  0  0  0  0  0  0  0  0  0  0  0
   33.9550   30.4940   35.2580 C   0  0  0  0  0  0  0  0  0  0  0  0
   33.7680   31.2380   36.4170 C   0  0  0  0  0  0  0  0  0  0  0  0
   34.7550   32.1320   36.8530 C   0  0  0  0  0  0  0  0  0  0  0  0
   35.9110   32.2390   36.0850 C   0  0  0  0  0  0  0  0  0  0  0  0
   36.1010   31.5120   34.9460 C   0  0  0  0  0  0  0  0  0  0  0  0
   35.0970   30.6160   34.5200 C   0  0  0  0  0  0  0  0  0  0  0  0
   32.8760   31.1570   37.0110 H   0  0  0  0  0  0  0  0  0  0  0  0
   34.5850   32.7020   37.7630 H   0  0  0  0  0  0  0  0  0  0  0  0
   36.6250   32.9450   36.4810 H   0  0  0  0  0  0  0  0  0  0  0  0
   37.0340   31.6940   34.4520 H   0  0  0  0  0  0  0  0  0  0  0  0
   31.2950   28.6020   33.3660 C   0  0  0  0  0  0  0  0  0  0  0  0
   32.3640   29.4880   33.5980 C   0  0  0  0  0  0  0  0  0  0  0  0
   32.8570   29.6230   34.8960 C   0  0  0  0  0  0  0  0  0  0  0  0
   32.2590   28.8790   35.8450 N   0  0  0  0  0  0  0  0  0  0  0  0
   31.2390   28.0340   35.6180 C   0  0  0  0  0  0  0  0  0  0  0  0
   30.7660   27.9020   34.3880 N   0  0  0  0  0  0  0  0  0  0  0  0
   31.0360   28.6180   32.3070 H   0  0  0  0  0  0  0  0  0  0  0  0
   32.8540   30.0930   32.8450 H   0  0  0  0  0  0  0  0  0  0  0  0
   30.7750   27.4490   36.3910 H   0  0  0  0  0  0  0  0  0  0  0  0
   37.2290   26.7220   36.1460 H   0  0  0  0  0  0  0  0  0  0  0  0
   37.4780   27.3750   35.3150 C   0  0  0  0  0  0  0  0  0  0  0  0
   38.6770   27.5040   35.0420 O   0  0  0  0  0  0  0  0  0  0  0  0
   36.4140   28.0160   34.6240 N   0  0  0  0  0  0  0  0  0  0  0  0
   35.4010   27.8910   34.8740 H   0  0  0  0  0  0  0  0  0  0  0  0
  1  7  1  6  0  0  0
  1  6  1  0  0  0  0
  1 22  1  0  0  0  0
  2  8  1  0  0  0  0
  2  1  1  0  0  0  0
  3  4  1  0  0  0  0
  3 11  1  0  0  0  0
  3  2  1  0  0  0  0
  4 13  1  0  0  0  0
  4  5  1  0  0  0  0
  5 14  1  0  0  0  0
  5  6  1  0  0  0  0
  6 16  1  1  0  0  0
  6 39  1  0  0  0  0
  9  2  1  0  0  0  0
 10  3  1  0  0  0  0
 12  4  1  0  0  0  0
 15  5  1  0  0  0  0
 17 18  1  0  0  0  0
 18 19  2  0  0  0  0
 18 23  1  0  0  0  0
 19 24  1  0  0  0  0
 20 25  1  0  0  0  0
 20 19  1  0  0  0  0
 21 20  2  0  0  0  0
 22 21  1  0  0  0  0
 22 17  2  0  0  0  0
 26 21  1  0  0  0  0
 27 28  2  0  0  0  0
 27 32  1  0  0  0  0
 28 29  1  0  0  0  0
 29 17  1  0  0  0  0
 29 30  2  0  0  0  0
 31 30  1  0  0  0  0
 31 35  1  0  0  0  0
 32 31  2  0  0  0  0
 33 27  1  0  0  0  0
 34 28  1  0  0  0  0
 37 36  1  0  0  0  0
 38 37  2  0  0  0  0
 39 40  1  0  0  0  0
 39 37  1  0  0  0  0
M  END
>  <minimizedAffinity>
-5.10308266

$$$$

 OpenBabel03272503543D

 40 42  0  0  1  0  0  0  0  0999 V2000
   38.1340   26.4060   33.1620 C   0  0  1  0  0  0  0  0  0  0  0  0
   38.3320   25.8300   34.5850 C   0  0  0  0  0  0  0  0  0  0  0  0
   39.1430   26.9260   35.3060 C   0  0  0  0  0  0  0  0  0  0  0  0
   40.5120   26.8950   34.7310 C   0  0  0  0  0  0  0  0  0  0  0  0
   40.4630   27.1880   33.2580 C   0  0  0  0  0  0  0  0  0  0  0  0
   39.4870   26.3070   32.5150 C   0  0  2  0  0  0  0  0  0  0  0  0
   37.7670   27.4180   33.3820 H   0  0  0  0  0  0  0  0  0  0  0  0
   38.9920   24.9570   34.5290 H   0  0  0  0  0  0  0  0  0  0  0  0
   37.3880   25.6980   35.1120 H   0  0  0  0  0  0  0  0  0  0  0  0
   39.1530   26.7290   36.4040 H   0  0  0  0  0  0  0  0  0  0  0  0
   38.6580   27.8710   35.0240 H   0  0  0  0  0  0  0  0  0  0  0  0
   41.2280   27.5740   35.1940 H   0  0  0  0  0  0  0  0  0  0  0  0
   40.9550   25.8670   34.8410 H   0  0  0  0  0  0  0  0  0  0  0  0
   41.4790   27.0000   32.8380 H   0  0  0  0  0  0  0  0  0  0  0  0
   40.2830   28.2650   33.1290 H   0  0  0  0  0  0  0  0  0  0  0  0
   39.8670   25.2720   32.6360 H   0  0  0  0  0  0  0  0  0  0  0  0
   36.1420   26.2790   31.6360 C   0  0  0  0  0  0  0  0  0  0  0  0
   35.2200   25.5100   30.9370 C   0  0  0  0  0  0  0  0  0  0  0  0
   35.2430   24.1120   31.0350 C   0  0  0  0  0  0  0  0  0  0  0  0
   36.2150   23.5400   31.8510 C   0  0  0  0  0  0  0  0  0  0  0  0
   37.1230   24.2890   32.5400 C   0  0  0  0  0  0  0  0  0  0  0  0
   37.0870   25.6950   32.4300 C   0  0  0  0  0  0  0  0  0  0  0  0
   34.4690   25.9490   30.3070 H   0  0  0  0  0  0  0  0  0  0  0  0
   34.5110   23.5320   30.4790 H   0  0  0  0  0  0  0  0  0  0  0  0
   36.1720   22.4610   31.8780 H   0  0  0  0  0  0  0  0  0  0  0  0
   37.8130   23.7210   33.1310 H   0  0  0  0  0  0  0  0  0  0  0  0
   35.1800   29.9030   32.0520 C   0  0  0  0  0  0  0  0  0  0  0  0
   35.2300   28.5180   32.3040 C   0  0  0  0  0  0  0  0  0  0  0  0
   36.0060   27.7100   31.4740 C   0  0  0  0  0  0  0  0  0  0  0  0
   36.6600   28.3300   30.4740 N   0  0  0  0  0  0  0  0  0  0  0  0
   36.6090   29.6530   30.2370 C   0  0  0  0  0  0  0  0  0  0  0  0
   35.8740   30.4250   31.0230 N   0  0  0  0  0  0  0  0  0  0  0  0
   34.5340   30.3810   32.7890 H   0  0  0  0  0  0  0  0  0  0  0  0
   34.7090   28.0070   33.1040 H   0  0  0  0  0  0  0  0  0  0  0  0
   37.1390   30.1290   29.4330 H   0  0  0  0  0  0  0  0  0  0  0  0
   39.5920   26.2980   29.0260 H   0  0  0  0  0  0  0  0  0  0  0  0
   39.6050   25.8610   30.0200 C   0  0  0  0  0  0  0  0  0  0  0  0
   39.7200   24.6310   30.0910 O   0  0  0  0  0  0  0  0  0  0  0  0
   39.4880   26.7310   31.1370 N   0  0  0  0  0  0  0  0  0  0  0  0
   39.3900   27.7740   31.0530 H   0  0  0  0  0  0  0  0  0  0  0  0
  1  7  1  1  0  0  0
  1  2  1  0  0  0  0
  2  9  1  0  0  0  0
  2  3  1  0  0  0  0
  3 10  1  0  0  0  0
  4 13  1  0  0  0  0
  4 12  1  0  0  0  0
  4  3  1  0  0  0  0
  5  4  1  0  0  0  0
  6 16  1  1  0  0  0
  6  1  1  0  0  0  0
  6  5  1  0  0  0  0
  8  2  1  0  0  0  0
 11  3  1  0  0  0  0
 14  5  1  0  0  0  0
 15  5  1  0  0  0  0
 17 22  1  0  0  0  0
 18 19  1  0  0  0  0
 18 17  2  0  0  0  0
 19 20  2  0  0  0  0
 20 25  1  0  0  0  0
 20 21  1  0  0  0  0
 21 26  1  0  0  0  0
 22 21  2  0  0  0  0
 22  1  1  0  0  0  0
 23 18  1  0  0  0  0
 24 19  1  0  0  0  0
 27 28  1  0  0  0  0
 27 33  1  0  0  0  0
 28 34  1  0  0  0  0
 29 17  1  0  0  0  0
 29 28  2  0  0  0  0
 30 29  1  0  0  0  0
 31 30  2  0  0  0  0
 31 32  1  0  0  0  0
 32 27  2  0  0  0  0
 35 31  1  0  0  0  0
 36 37  1  0  0  0  0
 37 38  2  0  0  0  0
 37 39  1  0  0  0  0
 39  6  1  0  0  0  0
 40 39  1  0  0  0  0
M  END
>  <minimizedAffinity>
-5.05784082

$$$$

 OpenBabel03272503543D

 40 42  0  0  1  0  0  0  0  0999 V2000
   32.6910   29.6720   35.3960 C   0  0  1  0  0  0  0  0  0  0  0  0
   31.9490   29.1820   36.6630 C   0  0  0  0  0  0  0  0  0  0  0  0
   31.2150   27.9150   36.1820 C   0  0  0  0  0  0  0  0  0  0  0  0
   30.1140   28.3670   35.2950 C   0  0  0  0  0  0  0  0  0  0  0  0
   30.6710   29.1090   34.1120 C   0  0  0  0  0  0  0  0  0  0  0  0
   31.6110   30.2220   34.5070 C   0  0  2  0  0  0  0  0  0  0  0  0
   33.1830   28.7500   35.0570 H   0  0  0  0  0  0  0  0  0  0  0  0
   31.1660   29.9030   36.9200 H   0  0  0  0  0  0  0  0  0  0  0  0
   32.6360   28.9000   37.4600 H   0  0  0  0  0  0  0  0  0  0  0  0
   30.8290   27.3450   37.0600 H   0  0  0  0  0  0  0  0  0  0  0  0
   31.9550   27.3670   35.5820 H   0  0  0  0  0  0  0  0  0  0  0  0
   29.4560   27.5790   34.9290 H   0  0  0  0  0  0  0  0  0  0  0  0
   29.4460   29.0880   35.8420 H   0  0  0  0  0  0  0  0  0  0  0  0
   29.8150   29.5650   33.5610 H   0  0  0  0  0  0  0  0  0  0  0  0
   31.1100   28.3730   33.4230 H   0  0  0  0  0  0  0  0  0  0  0  0
   30.9980   30.9390   35.0900 H   0  0  0  0  0  0  0  0  0  0  0  0
   34.9740   30.6930   35.1550 C   0  0  0  0  0  0  0  0  0  0  0  0
   35.8750   31.6960   35.4900 C   0  0  0  0  0  0  0  0  0  0  0  0
   35.5240   32.6840   36.4200 C   0  0  0  0  0  0  0  0  0  0  0  0
   34.2520   32.6160   36.9810 C   0  0  0  0  0  0  0  0  0  0  0  0
   33.3620   31.6340   36.6560 C   0  0  0  0  0  0  0  0  0  0  0  0
   33.7310   30.6470   35.7180 C   0  0  0  0  0  0  0  0  0  0  0  0
   36.8580   31.7500   35.0580 H   0  0  0  0  0  0  0  0  0  0  0  0
   36.2470   33.4570   36.6660 H   0  0  0  0  0  0  0  0  0  0  0  0
   34.0510   33.4080   37.6870 H   0  0  0  0  0  0  0  0  0  0  0  0
   32.4200   31.7000   37.1640 H   0  0  0  0  0  0  0  0  0  0  0  0
   36.6550   27.7340   33.5280 C   0  0  0  0  0  0  0  0  0  0  0  0
   36.2500   28.6220   34.5420 C   0  0  0  0  0  0  0  0  0  0  0  0
   35.4570   29.7170   34.2020 C   0  0  0  0  0  0  0  0  0  0  0  0
   35.1350   29.8430   32.9010 N   0  0  0  0  0  0  0  0  0  0  0  0
   35.5240   28.9920   31.9350 C   0  0  0  0  0  0  0  0  0  0  0  0
   36.2770   27.9500   32.2530 N   0  0  0  0  0  0  0  0  0  0  0  0
   37.2630   26.9410   33.9630 H   0  0  0  0  0  0  0  0  0  0  0  0
   36.5020   28.5330   35.5920 H   0  0  0  0  0  0  0  0  0  0  0  0
   35.2560   29.1110   30.9020 H   0  0  0  0  0  0  0  0  0  0  0  0
   32.5550   32.5160   32.0510 H   0  0  0  0  0  0  0  0  0  0  0  0
   32.1440   32.1960   33.0040 C   0  0  0  0  0  0  0  0  0  0  0  0
   31.7280   33.0810   33.7610 O   0  0  0  0  0  0  0  0  0  0  0  0
   32.1220   30.8050   33.2910 N   0  0  0  0  0  0  0  0  0  0  0  0
   32.4810   30.0700   32.6300 H   0  0  0  0  0  0  0  0  0  0  0  0
  1  7  1  6  0  0  0
  1 22  1  0  0  0  0
  1  2  1  0  0  0  0
  2  8  1  0  0  0  0
  2  9  1  0  0  0  0
  3  2  1  0  0  0  0
  3 10  1  0  0  0  0
  4 13  1  0  0  0  0
  4  3  1  0  0  0  0
  5  6  1  0  0  0  0
  5  4  1  0  0  0  0
  6 16  1  1  0  0  0
  6  1  1  0  0  0  0
 11  3  1  0  0  0  0
 12  4  1  0  0  0  0
 14  5  1  0  0  0  0
 15  5  1  0  0  0  0
 17 18  2  0  0  0  0
 17 22  1  0  0  0  0
 18 19  1  0  0  0  0
 19 24  1  0  0  0  0
 19 20  2  0  0  0  0
 20 25  1  0  0  0  0
 21 20  1  0  0  0  0
 21 26  1  0  0  0  0
 22 21  2  0  0  0  0
 23 18  1  0  0  0  0
 27 33  1  0  0  0  0
 27 28  1  0  0  0  0
 28 34  1  0  0  0  0
 29 28  2  0  0  0  0
 29 17  1  0  0  0  0
 30 29  1  0  0  0  0
 31 32  1  0  0  0  0
 31 30  2  0  0  0  0
 32 27  2  0  0  0  0
 35 31  1  0  0  0  0
 36 37  1  0  0  0  0
 37 39  1  0  0  0  0
 37 38  2  0  0  0  0
 39  6  1  0  0  0  0
 40 39  1  0  0  0  0
M  END
>  <minimizedAffinity>
-4.99678993

$$$$

 OpenBabel03272503543D

 40 42  0  0  1  0  0  0  0  0999 V2000
   39.0530   24.7960   33.7110 C   0  0  1  0  0  0  0  0  0  0  0  0
   40.5280   24.6180   33.2750 C   0  0  0  0  0  0  0  0  0  0  0  0
   41.2320   25.8520   33.8730 C   0  0  0  0  0  0  0  0  0  0  0  0
   40.7820   27.0270   33.0840 C   0  0  0  0  0  0  0  0  0  0  0  0
   39.2920   27.1900   33.1980 C   0  0  0  0  0  0  0  0  0  0  0  0
   38.5360   25.9260   32.8640 C   0  0  2  0  0  0  0  0  0  0  0  0
   39.1640   24.9990   34.7860 H   0  0  0  0  0  0  0  0  0  0  0  0
   40.5950   24.7320   32.1870 H   0  0  0  0  0  0  0  0  0  0  0  0
   40.9790   23.7230   33.7020 H   0  0  0  0  0  0  0  0  0  0  0  0
   42.3380   25.7190   33.8200 H   0  0  0  0  0  0  0  0  0  0  0  0
   40.8390   25.9360   34.8960 H   0  0  0  0  0  0  0  0  0  0  0  0
   41.2540   27.9730   33.3470 H   0  0  0  0  0  0  0  0  0  0  0  0
   41.0070   26.8710   31.9930 H   0  0  0  0  0  0  0  0  0  0  0  0
   38.9780   27.9760   32.4730 H   0  0  0  0  0  0  0  0  0  0  0  0
   39.0680   27.5980   34.1940 H   0  0  0  0  0  0  0  0  0  0  0  0
   38.7670   25.7110   31.8010 H   0  0  0  0  0  0  0  0  0  0  0  0
   37.9490   22.7120   34.5750 C   0  0  0  0  0  0  0  0  0  0  0  0
   37.1720   21.5860   34.3370 C   0  0  0  0  0  0  0  0  0  0  0  0
   36.7190   21.2970   33.0420 C   0  0  0  0  0  0  0  0  0  0  0  0
   37.0780   22.1760   32.0240 C   0  0  0  0  0  0  0  0  0  0  0  0
   37.8410   23.2840   32.2520 C   0  0  0  0  0  0  0  0  0  0  0  0
   38.2890   23.5600   33.5600 C   0  0  0  0  0  0  0  0  0  0  0  0
   36.8930   20.9060   35.1210 H   0  0  0  0  0  0  0  0  0  0  0  0
   36.1120   20.4100   32.8810 H   0  0  0  0  0  0  0  0  0  0  0  0
   36.6950   21.8910   31.0560 H   0  0  0  0  0  0  0  0  0  0  0  0
   38.0450   23.8710   31.3790 H   0  0  0  0  0  0  0  0  0  0  0  0
   39.9260   22.7310   37.7880 C   0  0  0  0  0  0  0  0  0  0  0  0
   39.6200   22.4950   36.4340 C   0  0  0  0  0  0  0  0  0  0  0  0
   38.3760   22.8930   35.9460 C   0  0  0  0  0  0  0  0  0  0  0  0
   37.5460   23.4830   36.8270 N   0  0  0  0  0  0  0  0  0  0  0  0
   37.8430   23.7060   38.1190 C   0  0  0  0  0  0  0  0  0  0  0  0
   39.0240   23.3300   38.5880 N   0  0  0  0  0  0  0  0  0  0  0  0
   40.9300   22.3610   38.0010 H   0  0  0  0  0  0  0  0  0  0  0  0
   40.2770   22.0210   35.7150 H   0  0  0  0  0  0  0  0  0  0  0  0
   37.1670   24.1790   38.8070 H   0  0  0  0  0  0  0  0  0  0  0  0
   35.2030   26.8270   32.3550 H   0  0  0  0  0  0  0  0  0  0  0  0
   36.2390   26.6600   32.0760 C   0  0  0  0  0  0  0  0  0  0  0  0
   36.5480   26.8910   30.9010 O   0  0  0  0  0  0  0  0  0  0  0  0
   37.1350   26.1950   33.0750 N   0  0  0  0  0  0  0  0  0  0  0  0
   36.8500   26.0040   34.0690 H   0  0  0  0  0  0  0  0  0  0  0  0
  1  7  1  1  0  0  0
  2  9  1  0  0  0  0
  2  1  1  0  0  0  0
  2  3  1  0  0  0  0
  3 11  1  0  0  0  0
  4  5  1  0  0  0  0
  4 12  1  0  0  0  0
  4  3  1  0  0  0  0
  5 15  1  0  0  0  0
  6 16  1  6  0  0  0
  6 39  1  0  0  0  0
  6  5  1  0  0  0  0
  6  1  1  0  0  0  0
  8  2  1  0  0  0  0
 10  3  1  0  0  0  0
 13  4  1  0  0  0  0
 14  5  1  0  0  0  0
 17 29  1  0  0  0  0
 18 17  1  0  0  0  0
 18 23  1  0  0  0  0
 19 18  2  0  0  0  0
 20 21  2  0  0  0  0
 20 19  1  0  0  0  0
 21 22  1  0  0  0  0
 22  1  1  0  0  0  0
 22 17  2  0  0  0  0
 24 19  1  0  0  0  0
 25 20  1  0  0  0  0
 26 21  1  0  0  0  0
 27 33  1  0  0  0  0
 27 32  1  0  0  0  0
 28 27  2  0  0  0  0
 29 28  1  0  0  0  0
 29 30  2  0  0  0  0
 30 31  1  0  0  0  0
 31 32  2  0  0  0  0
 31 35  1  0  0  0  0
 34 28  1  0  0  0  0
 37 36  1  0  0  0  0
 37 39  1  0  0  0  0
 38 37  2  0  0  0  0
 39 40  1  0  0  0  0
M  END
>  <minimizedAffinity>
-4.83143806

$$$$

 OpenBabel03272503543D

 40 42  0  0  1  0  0  0  0  0999 V2000
   39.4700   24.3550   35.0660 C   0  0  1  0  0  0  0  0  0  0  0  0
   40.6060   23.7600   35.9330 C   0  0  0  0  0  0  0  0  0  0  0  0
   39.9460   22.5360   36.5990 C   0  0  0  0  0  0  0  0  0  0  0  0
   38.9870   23.0590   37.6040 C   0  0  0  0  0  0  0  0  0  0  0  0
   37.9360   23.8980   36.9330 C   0  0  0  0  0  0  0  0  0  0  0  0
   38.5200   24.9760   36.0510 C   0  0  2  0  0  0  0  0  0  0  0  0
   39.1110   23.4650   34.5310 H   0  0  0  0  0  0  0  0  0  0  0  0
   40.8370   24.4560   36.7470 H   0  0  0  0  0  0  0  0  0  0  0  0
   41.4460   23.4140   35.3320 H   0  0  0  0  0  0  0  0  0  0  0  0
   40.7280   21.8940   37.0700 H   0  0  0  0  0  0  0  0  0  0  0  0
   39.3860   22.0410   35.7930 H   0  0  0  0  0  0  0  0  0  0  0  0
   38.4890   22.3030   38.2110 H   0  0  0  0  0  0  0  0  0  0  0  0
   39.5180   23.7310   38.3340 H   0  0  0  0  0  0  0  0  0  0  0  0
   37.3370   24.3960   37.7290 H   0  0  0  0  0  0  0  0  0  0  0  0
   37.2390   23.2220   36.4150 H   0  0  0  0  0  0  0  0  0  0  0  0
   39.0910   25.6400   36.7300 H   0  0  0  0  0  0  0  0  0  0  0  0
   39.5390   25.4170   32.7910 C   0  0  0  0  0  0  0  0  0  0  0  0
   40.0540   26.3880   31.9410 C   0  0  0  0  0  0  0  0  0  0  0  0
   41.0440   27.2720   32.3910 C   0  0  0  0  0  0  0  0  0  0  0  0
   41.4800   27.1340   33.7050 C   0  0  0  0  0  0  0  0  0  0  0  0
   40.9780   26.1830   34.5450 C   0  0  0  0  0  0  0  0  0  0  0  0
   39.9820   25.3010   34.0770 C   0  0  0  0  0  0  0  0  0  0  0  0
   39.7190   26.4950   30.9250 H   0  0  0  0  0  0  0  0  0  0  0  0
   41.4310   28.0230   31.7060 H   0  0  0  0  0  0  0  0  0  0  0  0
   42.2420   27.8470   33.9810 H   0  0  0  0  0  0  0  0  0  0  0  0
   41.4040   26.1870   35.5280 H   0  0  0  0  0  0  0  0  0  0  0  0
   37.7720   22.5950   31.0150 C   0  0  0  0  0  0  0  0  0  0  0  0
   38.8320   23.3620   31.5360 C   0  0  0  0  0  0  0  0  0  0  0  0
   38.5390   24.5490   32.2070 C   0  0  0  0  0  0  0  0  0  0  0  0
   37.2370   24.8750   32.3070 N   0  0  0  0  0  0  0  0  0  0  0  0
   36.2270   24.1390   31.8090 C   0  0  0  0  0  0  0  0  0  0  0  0
   36.5010   23.0120   31.1700 N   0  0  0  0  0  0  0  0  0  0  0  0
   38.1750   21.7080   30.5260 H   0  0  0  0  0  0  0  0  0  0  0  0
   39.8830   23.1120   31.4620 H   0  0  0  0  0  0  0  0  0  0  0  0
   35.1940   24.4180   31.8990 H   0  0  0  0  0  0  0  0  0  0  0  0
   36.4320   27.4670   34.7800 H   0  0  0  0  0  0  0  0  0  0  0  0
   37.3120   27.0680   35.2740 C   0  0  0  0  0  0  0  0  0  0  0  0
   38.1520   27.8840   35.6700 O   0  0  0  0  0  0  0  0  0  0  0  0
   37.4180   25.6590   35.4200 N   0  0  0  0  0  0  0  0  0  0  0  0
   36.6900   24.9820   35.0750 H   0  0  0  0  0  0  0  0  0  0  0  0
  1  7  1  6  0  0  0
  1  2  1  0  0  0  0
  1  6  1  0  0  0  0
  2  3  1  0  0  0  0
  2  8  1  0  0  0  0
  3 10  1  0  0  0  0
  3  4  1  0  0  0  0
  4 12  1  0  0  0  0
  4 13  1  0  0  0  0
  5  4  1  0  0  0  0
  5 14  1  0  0  0  0
  6 16  1  1  0  0  0
  6  5  1  0  0  0  0
  9  2  1  0  0  0  0
 11  3  1  0  0  0  0
 15  5  1  0  0  0  0
 17 22  1  0  0  0  0
 18 19  1  0  0  0  0
 18 17  2  0  0  0  0
 19 20  2  0  0  0  0
 20 25  1  0  0  0  0
 20 21  1  0  0  0  0
 21 26  1  0  0  0  0
 22 21  2  0  0  0  0
 22  1  1  0  0  0  0
 23 18  1  0  0  0  0
 24 19  1  0  0  0  0
 27 32  2  0  0  0  0
 27 28  1  0  0  0  0
 28 29  2  0  0  0  0
 29 30  1  0  0  0  0
 29 17  1  0  0  0  0
 31 35  1  0  0  0  0
 31 30  2  0  0  0  0
 32 31  1  0  0  0  0
 33 27  1  0  0  0  0
 34 28  1  0  0  0  0
 36 37  1  0  0  0  0
 37 39  1  0  0  0  0
 37 38  2  0  0  0  0
 39  6  1  0  0  0  0
 40 39  1  0  0  0  0
M  END
>  <minimizedAffinity>
-4.78991985

$$$$

 OpenBabel03272503543D

 40 42  0  0  1  0  0  0  0  0999 V2000
   38.4920   26.5960   34.0660 C   0  0  1  0  0  0  0  0  0  0  0  0
   38.0800   27.7650   34.9940 C   0  0  0  0  0  0  0  0  0  0  0  0
   36.5510   27.8450   34.8130 C   0  0  0  0  0  0  0  0  0  0  0  0
   36.3090   28.3880   33.4520 C   0  0  0  0  0  0  0  0  0  0  0  0
   36.8930   27.4700   32.4150 C   0  0  0  0  0  0  0  0  0  0  0  0
   38.3440   27.1410   32.6730 C   0  0  2  0  0  0  0  0  0  0  0  0
   37.7810   25.8140   34.3660 H   0  0  0  0  0  0  0  0  0  0  0  0
   38.4800   28.7010   34.5890 H   0  0  0  0  0  0  0  0  0  0  0  0
   38.2920   27.5540   36.0410 H   0  0  0  0  0  0  0  0  0  0  0  0
   36.1110   28.5000   35.6020 H   0  0  0  0  0  0  0  0  0  0  0  0
   36.2050   26.8030   34.8490 H   0  0  0  0  0  0  0  0  0  0  0  0
   35.2630   28.5700   33.2020 H   0  0  0  0  0  0  0  0  0  0  0  0
   36.8250   29.3800   33.3320 H   0  0  0  0  0  0  0  0  0  0  0  0
   36.8310   27.9860   31.4290 H   0  0  0  0  0  0  0  0  0  0  0  0
   36.2400   26.5890   32.3310 H   0  0  0  0  0  0  0  0  0  0  0  0
   38.8860   28.1060   32.6060 H   0  0  0  0  0  0  0  0  0  0  0  0
   40.1580   24.8580   34.7830 C   0  0  0  0  0  0  0  0  0  0  0  0
   41.4800   24.4830   34.9870 C   0  0  0  0  0  0  0  0  0  0  0  0
   42.5190   25.3970   34.7620 C   0  0  0  0  0  0  0  0  0  0  0  0
   42.1710   26.6740   34.3340 C   0  0  0  0  0  0  0  0  0  0  0  0
   40.8750   27.0490   34.1320 C   0  0  0  0  0  0  0  0  0  0  0  0
   39.8410   26.1180   34.3620 C   0  0  0  0  0  0  0  0  0  0  0  0
   41.7510   23.4970   35.3180 H   0  0  0  0  0  0  0  0  0  0  0  0
   43.5460   25.0790   34.9290 H   0  0  0  0  0  0  0  0  0  0  0  0
   43.0220   27.3220   34.1820 H   0  0  0  0  0  0  0  0  0  0  0  0
   40.7500   28.0610   33.8040 H   0  0  0  0  0  0  0  0  0  0  0  0
   37.7870   21.9340   34.5410 C   0  0  0  0  0  0  0  0  0  0  0  0
   38.7480   22.8830   34.1450 C   0  0  0  0  0  0  0  0  0  0  0  0
   39.1730   23.8380   35.0690 C   0  0  0  0  0  0  0  0  0  0  0  0
   38.6180   23.7750   36.2940 N   0  0  0  0  0  0  0  0  0  0  0  0
   37.7000   22.8660   36.6680 C   0  0  0  0  0  0  0  0  0  0  0  0
   37.2930   21.9580   35.7950 N   0  0  0  0  0  0  0  0  0  0  0  0
   37.5700   21.2690   33.7050 H   0  0  0  0  0  0  0  0  0  0  0  0
   39.2010   22.9450   33.1640 H   0  0  0  0  0  0  0  0  0  0  0  0
   37.2690   22.8340   37.6510 H   0  0  0  0  0  0  0  0  0  0  0  0
   39.9430   25.7090   29.9200 H   0  0  0  0  0  0  0  0  0  0  0  0
   39.7080   26.4930   30.6340 C   0  0  0  0  0  0  0  0  0  0  0  0
   40.2940   27.5730   30.4930 O   0  0  0  0  0  0  0  0  0  0  0  0
   38.7610   26.2100   31.6540 N   0  0  0  0  0  0  0  0  0  0  0  0
   38.2750   25.2830   31.7550 H   0  0  0  0  0  0  0  0  0  0  0  0
  1 22  1  0  0  0  0
  1  7  1  1  0  0  0
  1  2  1  0  0  0  0
  2  9  1  0  0  0  0
  3 11  1  0  0  0  0
  3  2  1  0  0  0  0
  3 10  1  0  0  0  0
  4  3  1  0  0  0  0
  5  6  1  0  0  0  0
  5  4  1  0  0  0  0
  6 16  1  6  0  0  0
  6  1  1  0  0  0  0
  8  2  1  0  0  0  0
 12  4  1  0  0  0  0
 13  4  1  0  0  0  0
 14  5  1  0  0  0  0
 15  5  1  0  0  0  0
 17 18  1  0  0  0  0
 17 29  1  0  0  0  0
 18 23  1  0  0  0  0
 19 24  1  0  0  0  0
 19 18  2  0  0  0  0
 20 19  1  0  0  0  0
 21 20  2  0  0  0  0
 21 22  1  0  0  0  0
 22 17  2  0  0  0  0
 25 20  1  0  0  0  0
 26 21  1  0  0  0  0
 27 32  1  0  0  0  0
 28 27  2  0  0  0  0
 28 29  1  0  0  0  0
 29 30  2  0  0  0  0
 30 31  1  0  0  0  0
 31 35  1  0  0  0  0
 32 31  2  0  0  0  0
 33 27  1  0  0  0  0
 34 28  1  0  0  0  0
 36 37  1  0  0  0  0
 37 39  1  0  0  0  0
 38 37  2  0  0  0  0
 39 40  1  0  0  0  0
 39  6  1  0  0  0  0
M  END
>  <minimizedAffinity>
-4.73897123

$$$$

 OpenBabel03272503543D

 40 42  0  0  1  0  0  0  0  0999 V2000
   38.6580   26.5210   33.0250 C   0  0  1  0  0  0  0  0  0  0  0  0
   39.7470   26.9320   34.0450 C   0  0  0  0  0  0  0  0  0  0  0  0
   39.1060   26.6030   35.4080 C   0  0  0  0  0  0  0  0  0  0  0  0
   38.0340   27.6060   35.6310 C   0  0  0  0  0  0  0  0  0  0  0  0
   36.9970   27.5080   34.5460 C   0  0  0  0  0  0  0  0  0  0  0  0
   37.5910   27.5710   33.1590 C   0  0  2  0  0  0  0  0  0  0  0  0
   38.4000   25.5110   33.3710 H   0  0  0  0  0  0  0  0  0  0  0  0
   39.8650   28.0210   34.0240 H   0  0  0  0  0  0  0  0  0  0  0  0
   40.6550   26.3390   33.9400 H   0  0  0  0  0  0  0  0  0  0  0  0
   39.8800   26.6420   36.2100 H   0  0  0  0  0  0  0  0  0  0  0  0
   38.6470   25.6130   35.2750 H   0  0  0  0  0  0  0  0  0  0  0  0
   37.5300   27.5440   36.5950 H   0  0  0  0  0  0  0  0  0  0  0  0
   38.4580   28.6460   35.5780 H   0  0  0  0  0  0  0  0  0  0  0  0
   36.3020   28.3720   34.6590 H   0  0  0  0  0  0  0  0  0  0  0  0
   36.3890   26.6110   34.7350 H   0  0  0  0  0  0  0  0  0  0  0  0
   38.0600   28.5720   33.0800 H   0  0  0  0  0  0  0  0  0  0  0  0
   38.8530   25.4550   30.7590 C   0  0  0  0  0  0  0  0  0  0  0  0
   39.3830   25.4670   29.4740 C   0  0  0  0  0  0  0  0  0  0  0  0
   40.2860   26.4680   29.0890 C   0  0  0  0  0  0  0  0  0  0  0  0
   40.6220   27.4300   30.0360 C   0  0  0  0  0  0  0  0  0  0  0  0
   40.1050   27.4240   31.2990 C   0  0  0  0  0  0  0  0  0  0  0  0
   39.1970   26.4110   31.6710 C   0  0  0  0  0  0  0  0  0  0  0  0
   39.1250   24.7240   28.7420 H   0  0  0  0  0  0  0  0  0  0  0  0
   40.6870   26.4550   28.0780 H   0  0  0  0  0  0  0  0  0  0  0  0
   41.3210   28.1670   29.6700 H   0  0  0  0  0  0  0  0  0  0  0  0
   40.4500   28.2220   31.9260 H   0  0  0  0  0  0  0  0  0  0  0  0
   37.3910   22.1110   31.7150 C   0  0  0  0  0  0  0  0  0  0  0  0
   38.3640   23.0950   31.4560 C   0  0  0  0  0  0  0  0  0  0  0  0
   37.9490   24.3620   31.0470 C   0  0  0  0  0  0  0  0  0  0  0  0
   36.6220   24.5490   30.9270 N   0  0  0  0  0  0  0  0  0  0  0  0
   35.6950   23.6070   31.1760 C   0  0  0  0  0  0  0  0  0  0  0  0
   36.0840   22.4020   31.5650 N   0  0  0  0  0  0  0  0  0  0  0  0
   37.8830   21.1880   32.0220 H   0  0  0  0  0  0  0  0  0  0  0  0
   39.4340   22.9580   31.5470 H   0  0  0  0  0  0  0  0  0  0  0  0
   34.6400   23.7760   31.0740 H   0  0  0  0  0  0  0  0  0  0  0  0
   35.3810   28.0460   30.4990 H   0  0  0  0  0  0  0  0  0  0  0  0
   36.2250   28.2800   31.1410 C   0  0  0  0  0  0  0  0  0  0  0  0
   36.8710   29.2990   30.8710 O   0  0  0  0  0  0  0  0  0  0  0  0
   36.5090   27.4010   32.2210 N   0  0  0  0  0  0  0  0  0  0  0  0
   35.9450   26.5380   32.4320 H   0  0  0  0  0  0  0  0  0  0  0  0
  1  6  1  0  0  0  0
  1  7  1  1  0  0  0
  1  2  1  0  0  0  0
  2  3  1  0  0  0  0
  3  4  1  0  0  0  0
  3 10  1  0  0  0  0
  4 12  1  0  0  0  0
  5 14  1  0  0  0  0
  5 15  1  0  0  0  0
  5  4  1  0  0  0  0
  6 16  1  6  0  0  0
  6  5  1  0  0  0  0
  8  2  1  0  0  0  0
  9  2  1  0  0  0  0
 11  3  1  0  0  0  0
 13  4  1  0  0  0  0
 17 29  1  0  0  0  0
 17 22  1  0  0  0  0
 18 17  2  0  0  0  0
 19 18  1  0  0  0  0
 19 20  2  0  0  0  0
 20 21  1  0  0  0  0
 21 22  2  0  0  0  0
 21 26  1  0  0  0  0
 22  1  1  0  0  0  0
 23 18  1  0  0  0  0
 24 19  1  0  0  0  0
 25 20  1  0  0  0  0
 27 33  1  0  0  0  0
 28 34  1  0  0  0  0
 28 27  2  0  0  0  0
 29 28  1  0  0  0  0
 30 29  2  0  0  0  0
 30 31  1  0  0  0  0
 31 32  2  0  0  0  0
 32 27  1  0  0  0  0
 35 31  1  0  0  0  0
 36 37  1  0  0  0  0
 37 39  1  0  0  0  0
 38 37  2  0  0  0  0
 39 40  1  0  0  0  0
 39  6  1  0  0  0  0
M  END
>  <minimizedAffinity>
-4.73397255

$$$$
