
 OpenBabel03272510153D

 24 25  0  0  0  0  0  0  0  0999 V2000
   37.2590   29.3100   51.0140 Br  0  0  0  0  0  0  0  0  0  0  0  0
   35.9220   29.3040   49.6360 C   0  0  0  0  0  0  0  0  0  0  0  0
   35.9670   30.2330   48.6160 C   0  0  0  0  0  0  0  0  0  0  0  0
   34.9700   30.1670   47.6600 C   0  0  0  0  0  0  0  0  0  0  0  0
   33.9570   29.2220   47.6960 C   0  0  0  0  0  0  0  0  0  0  0  0
   33.9570   28.3210   48.7310 C   0  0  0  0  0  0  0  0  0  0  0  0
   34.9390   28.3650   49.6970 C   0  0  0  0  0  0  0  0  0  0  0  0
   35.0550   30.9220   46.8790 H   0  0  0  0  0  0  0  0  0  0  0  0
   33.1510   27.6030   48.7210 H   0  0  0  0  0  0  0  0  0  0  0  0
   34.8400   27.6110   50.4620 H   0  0  0  0  0  0  0  0  0  0  0  0
   37.9730   33.1680   49.4480 C   0  0  0  0  0  0  0  0  0  0  0  0
   39.0170   33.1500   48.4690 C   0  0  0  0  0  0  0  0  0  0  0  0
   38.9950   32.1180   47.5480 C   0  0  0  0  0  0  0  0  0  0  0  0
   37.9970   31.1830   47.6150 N   0  0  0  0  0  0  0  0  0  0  0  0
   37.0270   31.2380   48.5580 C   0  0  0  0  0  0  0  0  0  0  0  0
   37.0160   32.2290   49.4710 N   0  0  0  0  0  0  0  0  0  0  0  0
   37.9880   33.9750   50.1710 H   0  0  0  0  0  0  0  0  0  0  0  0
   39.7860   33.9120   48.4570 H   0  0  0  0  0  0  0  0  0  0  0  0
   39.7610   32.0420   46.7740 H   0  0  0  0  0  0  0  0  0  0  0  0
   32.8690   28.3850   44.4930 H   0  0  0  0  0  0  0  0  0  0  0  0
   33.3050   28.5630   45.4550 C   0  0  0  0  0  0  0  0  0  0  0  0
   34.2390   27.7780   45.1470 O   0  0  0  0  0  0  0  0  0  0  0  0
   33.0370   29.3210   46.6310 N   0  0  0  0  0  0  0  0  0  0  0  0
   32.1470   29.8380   46.4540 H   0  0  0  0  0  0  0  0  0  0  0  0
  2  7  1  0  0  0  0
  2  1  1  0  0  0  0
  3  2  2  0  0  0  0
  4  5  2  0  0  0  0
  4  3  1  0  0  0  0
  5  6  1  0  0  0  0
  6  7  2  0  0  0  0
  7 10  1  0  0  0  0
  8  4  1  0  0  0  0
  9  6  1  0  0  0  0
 11 16  1  0  0  0  0
 11 17  1  0  0  0  0
 12 11  2  0  0  0  0
 13 14  2  0  0  0  0
 13 12  1  0  0  0  0
 14 15  1  0  0  0  0
 15  3  1  0  0  0  0
 15 16  2  0  0  0  0
 18 12  1  0  0  0  0
 19 13  1  0  0  0  0
 20 21  1  0  0  0  0
 21 23  1  0  0  0  0
 22 21  2  0  0  0  0
 23  5  1  0  0  0  0
 24 23  1  0  0  0  0
M  END
>  <minimizedAffinity>
-5.40193272

>  <minimizedRMSD>
0.185813084

$$$$
