
 OpenBabel03272510153D

 24 25  0  0  0  0  0  0  0  0999 V2000
   37.3780   29.4190   51.1400 Br  0  0  0  0  0  0  0  0  0  0  0  0
   35.9650   29.4080   49.8410 C   0  0  0  0  0  0  0  0  0  0  0  0
   35.9680   30.3100   48.7970 C   0  0  0  0  0  0  0  0  0  0  0  0
   34.9170   30.2410   47.9010 C   0  0  0  0  0  0  0  0  0  0  0  0
   33.8900   29.3190   48.0190 C   0  0  0  0  0  0  0  0  0  0  0  0
   33.9330   28.4430   49.0740 C   0  0  0  0  0  0  0  0  0  0  0  0
   34.9680   28.4900   49.9810 C   0  0  0  0  0  0  0  0  0  0  0  0
   34.9710   30.9760   47.0980 H   0  0  0  0  0  0  0  0  0  0  0  0
   33.1140   27.7410   49.1270 H   0  0  0  0  0  0  0  0  0  0  0  0
   34.8990   27.7560   50.7690 H   0  0  0  0  0  0  0  0  0  0  0  0
   38.0450   33.2500   49.4100 C   0  0  0  0  0  0  0  0  0  0  0  0
   39.0590   33.1610   48.4040 C   0  0  0  0  0  0  0  0  0  0  0  0
   38.9920   32.0820   47.5410 C   0  0  0  0  0  0  0  0  0  0  0  0
   37.9820   31.1690   47.6870 N   0  0  0  0  0  0  0  0  0  0  0  0
   37.0420   31.2920   48.6540 C   0  0  0  0  0  0  0  0  0  0  0  0
   37.0750   32.3300   49.5120 N   0  0  0  0  0  0  0  0  0  0  0  0
   38.0950   34.0940   50.0880 H   0  0  0  0  0  0  0  0  0  0  0  0
   39.8390   33.9080   48.3280 H   0  0  0  0  0  0  0  0  0  0  0  0
   39.7330   31.9510   46.7500 H   0  0  0  0  0  0  0  0  0  0  0  0
   32.5220   28.3160   44.9750 H   0  0  0  0  0  0  0  0  0  0  0  0
   33.0350   28.5340   45.8890 C   0  0  0  0  0  0  0  0  0  0  0  0
   33.8760   27.6440   45.5990 O   0  0  0  0  0  0  0  0  0  0  0  0
   32.9130   29.4110   47.0050 N   0  0  0  0  0  0  0  0  0  0  0  0
   32.0600   29.9880   46.8360 H   0  0  0  0  0  0  0  0  0  0  0  0
  2  7  1  0  0  0  0
  2  1  1  0  0  0  0
  3  2  2  0  0  0  0
  4  5  2  0  0  0  0
  4  3  1  0  0  0  0
  5  6  1  0  0  0  0
  6  9  1  0  0  0  0
  6  7  2  0  0  0  0
  7 10  1  0  0  0  0
  8  4  1  0  0  0  0
 11 16  1  0  0  0  0
 11 17  1  0  0  0  0
 12 11  2  0  0  0  0
 13 14  2  0  0  0  0
 13 12  1  0  0  0  0
 14 15  1  0  0  0  0
 15  3  1  0  0  0  0
 15 16  2  0  0  0  0
 18 12  1  0  0  0  0
 19 13  1  0  0  0  0
 20 21  1  0  0  0  0
 21 23  1  0  0  0  0
 22 21  2  0  0  0  0
 23  5  1  0  0  0  0
 24 23  1  0  0  0  0
M  END
>  <minimizedAffinity>
-5.45139694

>  <minimizedRMSD>
1.01034975

$$$$
