
 OpenBabel03272509303D

 35 37  0  0  1  0  0  0  0  0999 V2000
   36.8130   31.0660   48.3980 C   0  0  2  0  0  0  0  0  0  0  0  0
   37.7620   31.8850   49.2140 C   0  0  0  0  0  0  0  0  0  0  0  0
   38.4230   31.0960   50.3230 C   0  0  0  0  0  0  0  0  0  0  0  0
   37.3810   30.4500   51.2290 C   0  0  0  0  0  0  0  0  0  0  0  0
   36.1470   29.9770   50.5050 C   0  0  0  0  0  0  0  0  0  0  0  0
   36.5240   29.7430   49.0290 C   0  0  1  0  0  0  0  0  0  0  0  0
   35.8050   31.5650   48.2390 H   0  0  0  0  0  0  0  0  0  0  0  0
   37.0920   32.6230   49.7740 H   0  0  0  0  0  0  0  0  0  0  0  0
   38.4620   32.5020   48.6860 H   0  0  0  0  0  0  0  0  0  0  0  0
   38.9860   31.8180   50.9420 H   0  0  0  0  0  0  0  0  0  0  0  0
   39.0870   30.3040   49.9710 H   0  0  0  0  0  0  0  0  0  0  0  0
   37.1070   31.1350   52.0670 H   0  0  0  0  0  0  0  0  0  0  0  0
   37.8260   29.5500   51.7040 H   0  0  0  0  0  0  0  0  0  0  0  0
   35.8040   28.9830   50.8810 H   0  0  0  0  0  0  0  0  0  0  0  0
   35.2930   30.6610   50.5910 H   0  0  0  0  0  0  0  0  0  0  0  0
   37.4100   29.1690   49.1470 H   0  0  0  0  0  0  0  0  0  0  0  0
   34.2960   29.2390   47.9250 C   0  0  0  0  0  0  0  0  0  0  0  0
   33.6400   30.3240   47.9660 O   0  0  0  0  0  0  0  0  0  0  0  0
   35.6260   28.9190   48.3080 N   0  0  0  0  0  0  0  0  0  0  0  0
   35.9300   27.9420   47.9890 H   0  0  0  0  0  0  0  0  0  0  0  0
   33.4720   28.2020   47.3820 N   0  0  0  0  0  0  0  0  0  0  0  0
   33.7450   26.8870   46.8570 C   0  0  0  0  0  2  0  0  0  0  0  0
   32.8010   25.9130   47.5170 C   0  0  0  0  0  2  0  0  0  0  0  0
   31.5990   26.7940   47.7670 C   0  0  0  0  0  2  0  0  0  0  0  0
   32.0500   28.0790   47.1520 C   0  0  0  0  0  3  0  0  0  0  0  0
   31.5720   28.9740   47.5960 H   0  0  0  0  0  0  0  0  0  0  0  0
   37.3400   30.8360   47.0290 C   0  0  0  0  0  0  0  0  0  0  0  0
   38.7310   30.8930   46.8970 C   0  0  0  0  0  0  0  0  0  0  0  0
   39.2620   30.6760   45.6210 C   0  0  0  0  0  0  0  0  0  0  0  0
   38.3920   30.4210   44.5830 N   0  0  0  0  0  0  0  0  0  0  0  0
   37.0360   30.3750   44.7630 C   0  0  0  0  0  0  0  0  0  0  0  0
   36.5320   30.5850   45.9900 N   0  0  0  0  0  0  0  0  0  0  0  0
   39.5230   31.0670   47.5990 H   0  0  0  0  0  0  0  0  0  0  0  0
   40.3010   30.6870   45.3590 H   0  0  0  0  0  0  0  0  0  0  0  0
   36.4810   30.1690   43.8760 H   0  0  0  0  0  0  0  0  0  0  0  0
  1  7  1  6  0  0  0
  1  6  1  0  0  0  0
  1  2  1  0  0  0  0
  2  8  1  0  0  0  0
  2  3  1  0  0  0  0
  3 10  1  0  0  0  0
  3  4  1  0  0  0  0
  4 13  1  0  0  0  0
  4 12  1  0  0  0  0
  5 15  1  0  0  0  0
  5 14  1  0  0  0  0
  5  4  1  0  0  0  0
  6 16  1  1  0  0  0
  6  5  1  0  0  0  0
  9  2  1  0  0  0  0
 11  3  1  0  0  0  0
 17 18  2  0  0  0  0
 17 19  1  0  0  0  0
 19  6  1  0  0  0  0
 20 19  1  0  0  0  0
 21 17  1  0  0  0  0
 22 21  1  0  0  0  0
 22 23  1  0  0  0  0
 23 24  1  0  0  0  0
 25 21  1  0  0  0  0
 25 26  1  0  0  0  0
 25 24  1  0  0  0  0
 27  1  1  0  0  0  0
 28 27  1  0  0  0  0
 28 33  1  0  0  0  0
 29 28  2  0  0  0  0
 30 31  2  0  0  0  0
 30 29  1  0  0  0  0
 31 32  1  0  0  0  0
 32 27  2  0  0  0  0
 34 29  1  0  0  0  0
 35 31  1  0  0  0  0
M  END
>  <minimizedAffinity>
-5.63839388

>  <minimizedRMSD>
1.50511456

$$$$
