
 OpenBabel03272509303D

 35 37  0  0  1  0  0  0  0  0999 V2000
   36.1860   30.6340   48.9520 C   0  0  2  0  0  0  0  0  0  0  0  0
   37.0850   31.3900   49.8770 C   0  0  0  0  0  0  0  0  0  0  0  0
   37.8000   30.5000   50.8700 C   0  0  0  0  0  0  0  0  0  0  0  0
   36.8050   29.6710   51.6740 C   0  0  0  0  0  0  0  0  0  0  0  0
   35.6000   29.2260   50.8860 C   0  0  0  0  0  0  0  0  0  0  0  0
   35.9840   29.2210   49.3940 C   0  0  1  0  0  0  0  0  0  0  0  0
   35.1490   31.0860   48.8580 H   0  0  0  0  0  0  0  0  0  0  0  0
   36.3730   32.0010   50.5300 H   0  0  0  0  0  0  0  0  0  0  0  0
   37.7430   32.1180   49.4420 H   0  0  0  0  0  0  0  0  0  0  0  0
   38.3190   31.1630   51.5850 H   0  0  0  0  0  0  0  0  0  0  0  0
   38.5110   29.8070   50.4160 H   0  0  0  0  0  0  0  0  0  0  0  0
   36.4920   30.2160   52.5970 H   0  0  0  0  0  0  0  0  0  0  0  0
   37.3070   28.7450   52.0230 H   0  0  0  0  0  0  0  0  0  0  0  0
   35.3210   28.1700   51.1200 H   0  0  0  0  0  0  0  0  0  0  0  0
   34.7050   29.8370   51.0620 H   0  0  0  0  0  0  0  0  0  0  0  0
   36.9040   28.6930   49.4360 H   0  0  0  0  0  0  0  0  0  0  0  0
   33.7500   28.2010   48.7530 C   0  0  0  0  0  0  0  0  0  0  0  0
   32.9050   28.6940   49.5590 O   0  0  0  0  0  0  0  0  0  0  0  0
   35.1360   28.4490   48.5620 N   0  0  0  0  0  0  0  0  0  0  0  0
   35.5280   27.9820   47.6810 H   0  0  0  0  0  0  0  0  0  0  0  0
   33.1080   27.2290   47.9220 N   0  0  0  0  0  0  0  0  0  0  0  0
   31.9920   26.3350   48.1170 C   0  0  0  0  0  2  0  0  0  0  0  0
   31.0590   26.4880   46.9420 C   0  0  0  0  0  2  0  0  0  0  0  0
   32.0310   26.8460   45.8410 C   0  0  0  0  0  2  0  0  0  0  0  0
   33.3330   26.7710   46.5710 C   0  0  0  0  0  3  0  0  0  0  0  0
   34.1210   27.4180   46.1370 H   0  0  0  0  0  0  0  0  0  0  0  0
   36.7210   30.6280   47.5670 C   0  0  0  0  0  0  0  0  0  0  0  0
   38.0970   30.8450   47.4460 C   0  0  0  0  0  0  0  0  0  0  0  0
   38.6350   30.8410   46.1550 C   0  0  0  0  0  0  0  0  0  0  0  0
   37.7860   30.6250   45.0920 N   0  0  0  0  0  0  0  0  0  0  0  0
   36.4440   30.4150   45.2610 C   0  0  0  0  0  0  0  0  0  0  0  0
   35.9330   30.4210   46.5030 N   0  0  0  0  0  0  0  0  0  0  0  0
   38.8740   31.0150   48.1660 H   0  0  0  0  0  0  0  0  0  0  0  0
   39.6650   30.9930   45.9000 H   0  0  0  0  0  0  0  0  0  0  0  0
   35.9050   30.2610   44.3540 H   0  0  0  0  0  0  0  0  0  0  0  0
  1  7  1  6  0  0  0
  1  6  1  0  0  0  0
  1  2  1  0  0  0  0
  2  8  1  0  0  0  0
  2  3  1  0  0  0  0
  3 10  1  0  0  0  0
  3  4  1  0  0  0  0
  4 13  1  0  0  0  0
  4 12  1  0  0  0  0
  5 15  1  0  0  0  0
  5 14  1  0  0  0  0
  5  4  1  0  0  0  0
  6 16  1  6  0  0  0
  6  5  1  0  0  0  0
  9  2  1  0  0  0  0
 11  3  1  0  0  0  0
 17 18  2  0  0  0  0
 19 17  1  0  0  0  0
 19  6  1  0  0  0  0
 20 19  1  0  0  0  0
 21 22  1  0  0  0  0
 21 17  1  0  0  0  0
 23 22  1  0  0  0  0
 24 25  1  0  0  0  0
 24 23  1  0  0  0  0
 25 21  1  0  0  0  0
 26 25  1  0  0  0  0
 27  1  1  0  0  0  0
 28 27  1  0  0  0  0
 28 33  1  0  0  0  0
 29 28  2  0  0  0  0
 30 31  2  0  0  0  0
 30 29  1  0  0  0  0
 31 32  1  0  0  0  0
 32 27  2  0  0  0  0
 34 29  1  0  0  0  0
 35 31  1  0  0  0  0
M  END
>  <minimizedAffinity>
-5.80113029

>  <minimizedRMSD>
0.756430268

$$$$
