
 OpenBabel03262522563D

 30 32  0  0  1  0  0  0  0  0999 V2000
   36.4030   31.0180   47.2500 Cl  0  0  0  0  0  0  0  0  0  0  0  0
   35.8010   30.3040   45.7830 C   0  0  0  0  0  0  0  0  0  0  0  0
   34.8250   29.3330   45.8420 C   0  0  0  0  0  0  0  0  0  0  0  0
   34.3860   28.8060   44.6350 C   0  0  0  0  0  0  0  0  0  0  0  0
   34.8880   29.2230   43.4260 C   0  0  0  0  0  0  0  0  0  0  0  0
   35.8640   30.1970   43.4110 C   0  0  0  0  0  0  0  0  0  0  0  0
   36.4440   30.6710   41.8370 Cl  0  0  0  0  0  0  0  0  0  0  0  0
   36.3280   30.7460   44.5880 C   0  0  0  0  0  0  0  0  0  0  0  0
   33.6080   28.0360   44.7300 H   0  0  0  0  0  0  0  0  0  0  0  0
   34.4990   28.7710   42.5330 H   0  0  0  0  0  0  0  0  0  0  0  0
   34.7230   28.4500   49.5090 C   0  0  0  0  0  0  0  0  0  0  0  0
   35.1990   28.8330   48.2530 C   0  0  0  0  0  0  0  0  0  0  0  0
   34.3350   28.9360   47.1460 C   0  0  0  0  0  0  0  0  0  0  0  0
   33.0410   28.6440   47.3830 N   0  0  0  0  0  0  0  0  0  0  0  0
   32.6030   28.2750   48.6040 C   0  0  0  0  0  0  0  0  0  0  0  0
   33.4180   28.1820   49.6310 N   0  0  0  0  0  0  0  0  0  0  0  0
   30.9390   26.6510   48.2540 C   0  0  0  0  0  0  0  0  0  0  0  0
   31.7580   25.7150   48.0210 O   0  0  0  0  0  0  0  0  0  0  0  0
   31.1890   28.0240   48.5700 N   0  0  0  0  0  0  0  0  0  0  0  0
   35.3780   28.3690   50.3580 H   0  0  0  0  0  0  0  0  0  0  0  0
   36.2540   29.0510   48.1430 H   0  0  0  0  0  0  0  0  0  0  0  0
   29.9600   26.1950   48.1640 H   0  0  0  0  0  0  0  0  0  0  0  0
   30.3870   28.6270   48.7250 H   0  0  0  0  0  0  0  0  0  0  0  0
   37.3250   31.7370   44.5390 O   0  0  0  0  0  0  0  0  0  0  0  0
   39.6700   32.7350   43.1530 H   0  0  0  0  0  0  0  0  0  0  0  0
   39.5550   32.4030   44.1360 N   0  0  0  0  0  0  0  0  0  0  0  0
   40.8240   31.8760   44.6580 C   0  0  0  0  0  2  0  0  0  0  0  0
   40.3110   31.1470   45.8820 C   0  0  0  0  0  2  0  0  0  0  0  0
   39.1980   30.3260   45.2250 C   0  0  0  0  0  2  0  0  0  0  0  0
   38.6340   31.2870   44.2310 C   0  0  1  0  0  3  0  0  0  0  0  0
  2  3  1  0  0  0  0
  2  1  1  0  0  0  0
  3 13  1  0  0  0  0
  4  9  1  0  0  0  0
  4  3  2  0  0  0  0
  5  4  1  0  0  0  0
  6  5  2  0  0  0  0
  6  8  1  0  0  0  0
  7  6  1  0  0  0  0
  8  2  2  0  0  0  0
 10  5  1  0  0  0  0
 11 16  1  0  0  0  0
 11 20  1  0  0  0  0
 12 11  2  0  0  0  0
 13 14  2  0  0  0  0
 13 12  1  0  0  0  0
 14 15  1  0  0  0  0
 15 16  2  0  0  0  0
 17 19  1  0  0  0  0
 18 17  2  0  0  0  0
 19 15  1  0  0  0  0
 19 23  1  0  0  0  0
 21 12  1  0  0  0  0
 22 17  1  0  0  0  0
 24  8  1  0  0  0  0
 25 26  1  0  0  0  0
 26 30  1  0  0  0  0
 26 27  1  0  0  0  0
 27 28  1  0  0  0  0
 29 28  1  0  0  0  0
 30 24  1  1  0  0  0
 30 29  1  0  0  0  0
M  END
>  <minimizedAffinity>
-4.50198078

>  <minimizedRMSD>
4.57789803

$$$$
