
 OpenBabel03272506363D

 20 21  0  0  1  0  0  0  0  0999 V2000
   37.6720   31.4280   47.6060 C   0  0  0  0  0  0  0  0  0  0  0  0
   39.0340   31.3720   47.2550 C   0  0  0  0  0  0  0  0  0  0  0  0
   39.3750   31.2280   45.9130 C   0  0  0  0  0  0  0  0  0  0  0  0
   38.3560   31.1460   44.9920 N   0  0  0  0  0  0  0  0  0  0  0  0
   37.0520   31.2030   45.3690 C   0  0  0  0  0  0  0  0  0  0  0  0
   36.7150   31.3430   46.6640 N   0  0  0  0  0  0  0  0  0  0  0  0
   35.1490   29.9790   44.6220 C   0  0  0  0  0  0  0  0  0  0  0  0
   35.2050   29.1110   45.5490 O   0  0  0  0  0  0  0  0  0  0  0  0
   36.0150   31.1150   44.3830 N   0  0  0  0  0  0  0  0  0  0  0  0
   39.8500   31.4320   47.9370 H   0  0  0  0  0  0  0  0  0  0  0  0
   40.3770   31.1780   45.5620 H   0  0  0  0  0  0  0  0  0  0  0  0
   34.3030   29.7350   43.9900 H   0  0  0  0  0  0  0  0  0  0  0  0
   35.7930   31.7000   43.5670 H   0  0  0  0  0  0  0  0  0  0  0  0
   37.4930   31.5710   48.9600 O   0  0  0  0  0  0  0  0  0  0  0  0
   34.7250   30.1790   49.0290 H   0  0  0  0  0  0  0  0  0  0  0  0
   35.7530   30.0880   49.0530 N   0  0  0  0  0  0  0  0  0  0  0  0
   36.2680   28.9020   49.6600 C   0  0  0  0  0  2  0  0  0  0  0  0
   37.3940   29.3260   50.5880 C   0  0  0  0  0  2  0  0  0  0  0  0
   36.8360   30.6820   51.0440 C   0  0  0  0  0  2  0  0  0  0  0  0
   36.3730   31.2350   49.7110 C   0  0  1  0  0  3  0  0  0  0  0  0
  1 14  1  0  0  0  0
  2  1  1  0  0  0  0
  2 10  1  0  0  0  0
  3  2  2  0  0  0  0
  4  5  2  0  0  0  0
  4  3  1  0  0  0  0
  5  6  1  0  0  0  0
  6  1  2  0  0  0  0
  7  8  2  0  0  0  0
  9  7  1  0  0  0  0
  9  5  1  0  0  0  0
 11  3  1  0  0  0  0
 12  7  1  0  0  0  0
 13  9  1  0  0  0  0
 15 16  1  0  0  0  0
 16 17  1  0  0  0  0
 16 20  1  0  0  0  0
 17 18  1  0  0  0  0
 18 19  1  0  0  0  0
 20 14  1  6  0  0  0
 20 19  1  0  0  0  0
M  END
>  <minimizedAffinity>
-3.76440263

>  <minimizedRMSD>
4.07558489

$$$$
