
 OpenBabel03272509303D

 35 37  0  0  1  0  0  0  0  0999 V2000
   36.9690   31.1850   48.2700 C   0  0  2  0  0  0  0  0  0  0  0  0
   37.8820   31.9390   49.1830 C   0  0  0  0  0  0  0  0  0  0  0  0
   38.4100   31.0970   50.3240 C   0  0  0  0  0  0  0  0  0  0  0  0
   37.2660   30.4840   51.1230 C   0  0  0  0  0  0  0  0  0  0  0  0
   36.0770   30.0860   50.2870 C   0  0  0  0  0  0  0  0  0  0  0  0
   36.5660   29.8650   48.8430 C   0  0  1  0  0  0  0  0  0  0  0  0
   36.0030   31.7360   48.0400 H   0  0  0  0  0  0  0  0  0  0  0  0
   37.2030   32.6980   49.7030 H   0  0  0  0  0  0  0  0  0  0  0  0
   38.6530   32.5330   48.7310 H   0  0  0  0  0  0  0  0  0  0  0  0
   38.9510   31.7770   51.0050 H   0  0  0  0  0  0  0  0  0  0  0  0
   39.0630   30.2810   50.0100 H   0  0  0  0  0  0  0  0  0  0  0  0
   36.9540   31.1640   51.9520 H   0  0  0  0  0  0  0  0  0  0  0  0
   37.6260   29.5540   51.6120 H   0  0  0  0  0  0  0  0  0  0  0  0
   35.6570   29.1030   50.6080 H   0  0  0  0  0  0  0  0  0  0  0  0
   35.2520   30.8100   50.3180 H   0  0  0  0  0  0  0  0  0  0  0  0
   37.4100   29.2460   49.0200 H   0  0  0  0  0  0  0  0  0  0  0  0
   34.3930   29.4680   47.5940 C   0  0  0  0  0  0  0  0  0  0  0  0
   33.7550   30.5630   47.6600 O   0  0  0  0  0  0  0  0  0  0  0  0
   35.6940   29.1010   48.0280 N   0  0  0  0  0  0  0  0  0  0  0  0
   35.9990   28.1370   47.6720 H   0  0  0  0  0  0  0  0  0  0  0  0
   33.5820   28.4800   46.9490 N   0  0  0  0  0  0  0  0  0  0  0  0
   32.2960   27.8990   47.2500 C   0  0  0  0  0  2  0  0  0  0  0  0
   31.4500   27.9620   46.0040 C   0  0  0  0  0  2  0  0  0  0  0  0
   32.5060   27.8540   44.9270 C   0  0  0  0  0  2  0  0  0  0  0  0
   33.7410   27.6900   45.7500 C   0  0  0  0  0  3  0  0  0  0  0  0
   34.6600   28.0480   45.2470 H   0  0  0  0  0  0  0  0  0  0  0  0
   37.5990   30.9570   46.9450 C   0  0  0  0  0  0  0  0  0  0  0  0
   38.9930   31.0590   46.9110 C   0  0  0  0  0  0  0  0  0  0  0  0
   39.6200   30.8460   45.6780 C   0  0  0  0  0  0  0  0  0  0  0  0
   38.8340   30.5520   44.5850 N   0  0  0  0  0  0  0  0  0  0  0  0
   37.4710   30.4620   44.6700 C   0  0  0  0  0  0  0  0  0  0  0  0
   36.8750   30.6680   45.8550 N   0  0  0  0  0  0  0  0  0  0  0  0
   39.7270   31.2680   47.6640 H   0  0  0  0  0  0  0  0  0  0  0  0
   40.6740   30.8890   45.4900 H   0  0  0  0  0  0  0  0  0  0  0  0
   36.9870   30.2270   43.7490 H   0  0  0  0  0  0  0  0  0  0  0  0
  1  7  1  6  0  0  0
  1  6  1  0  0  0  0
  1  2  1  0  0  0  0
  2  8  1  0  0  0  0
  2  3  1  0  0  0  0
  3 10  1  0  0  0  0
  3  4  1  0  0  0  0
  4 13  1  0  0  0  0
  4 12  1  0  0  0  0
  5 15  1  0  0  0  0
  5 14  1  0  0  0  0
  5  4  1  0  0  0  0
  6 16  1  1  0  0  0
  6  5  1  0  0  0  0
  9  2  1  0  0  0  0
 11  3  1  0  0  0  0
 17 18  2  0  0  0  0
 17 19  1  0  0  0  0
 19  6  1  0  0  0  0
 20 19  1  0  0  0  0
 21 22  1  0  0  0  0
 21 17  1  0  0  0  0
 23 22  1  0  0  0  0
 24 25  1  0  0  0  0
 24 23  1  0  0  0  0
 25 21  1  0  0  0  0
 26 25  1  0  0  0  0
 27  1  1  0  0  0  0
 28 27  1  0  0  0  0
 28 33  1  0  0  0  0
 29 28  2  0  0  0  0
 30 31  2  0  0  0  0
 30 29  1  0  0  0  0
 31 32  1  0  0  0  0
 32 27  2  0  0  0  0
 34 29  1  0  0  0  0
 35 31  1  0  0  0  0
M  END
>  <minimizedAffinity>
-5.44128847

>  <minimizedRMSD>
1.9617672

$$$$
