
 OpenBabel03272506363D

 20 21  0  0  1  0  0  0  0  0999 V2000
   37.9580   30.7600   47.0340 C   0  0  0  0  0  0  0  0  0  0  0  0
   39.1600   30.5380   46.3350 C   0  0  0  0  0  0  0  0  0  0  0  0
   39.1270   30.4870   44.9440 C   0  0  0  0  0  0  0  0  0  0  0  0
   37.9140   30.6560   44.3190 N   0  0  0  0  0  0  0  0  0  0  0  0
   36.7730   30.8680   45.0280 C   0  0  0  0  0  0  0  0  0  0  0  0
   36.7980   30.9190   46.3720 N   0  0  0  0  0  0  0  0  0  0  0  0
   34.5630   30.0290   44.7300 C   0  0  0  0  0  0  0  0  0  0  0  0
   34.6970   29.0690   45.5530 O   0  0  0  0  0  0  0  0  0  0  0  0
   35.5250   31.0410   44.3450 N   0  0  0  0  0  0  0  0  0  0  0  0
   40.1180   30.4030   46.7810 H   0  0  0  0  0  0  0  0  0  0  0  0
   39.9860   30.3250   44.3400 H   0  0  0  0  0  0  0  0  0  0  0  0
   33.5580   29.9820   44.3280 H   0  0  0  0  0  0  0  0  0  0  0  0
   35.2110   31.7350   43.6540 H   0  0  0  0  0  0  0  0  0  0  0  0
   38.1490   30.7850   48.3930 O   0  0  0  0  0  0  0  0  0  0  0  0
   35.2130   31.2830   49.2530 H   0  0  0  0  0  0  0  0  0  0  0  0
   35.9950   30.6180   49.1480 N   0  0  0  0  0  0  0  0  0  0  0  0
   35.9490   29.4550   49.9750 C   0  0  0  0  0  0  0  0  0  0  0  0
   37.3330   29.2730   50.5720 C   0  0  0  0  0  0  0  0  0  0  0  0
   37.7330   30.7490   50.7150 C   0  0  0  0  0  0  0  0  0  0  0  0
   37.2830   31.2720   49.3660 C   0  0  1  0  0  0  0  0  0  0  0  0
  1 14  1  0  0  0  0
  2 10  1  0  0  0  0
  2  1  2  0  0  0  0
  3  2  1  0  0  0  0
  4  3  2  0  0  0  0
  4  5  1  0  0  0  0
  5  6  2  0  0  0  0
  6  1  1  0  0  0  0
  7  8  2  0  0  0  0
  9  7  1  0  0  0  0
  9  5  1  0  0  0  0
 11  3  1  0  0  0  0
 12  7  1  0  0  0  0
 13  9  1  0  0  0  0
 16 15  1  0  0  0  0
 16 20  1  0  0  0  0
 16 17  1  0  0  0  0
 17 18  1  0  0  0  0
 18 19  1  0  0  0  0
 20 14  1  6  0  0  0
 20 19  1  0  0  0  0
M  END
>  <minimizedAffinity>
-4.27008104

>  <minimizedRMSD>
4.28818369

$$$$
