
 OpenBabel03272508433D

 17 18  0  0  0  0  0  0  0  0999 V2000
   34.8040   25.2450   30.7990 C   0  0  0  0  0  0  0  0  0  0  0  0
   35.3060   23.9430   30.9570 C   0  0  0  0  0  0  0  0  0  0  0  0
   36.4810   23.7750   31.6850 C   0  0  0  0  0  0  0  0  0  0  0  0
   37.0650   24.8920   32.1940 N   0  0  0  0  0  0  0  0  0  0  0  0
   36.5630   26.1180   32.0260 C   0  0  0  0  0  0  0  0  0  0  0  0
   35.4280   26.2980   31.3260 N   0  0  0  0  0  0  0  0  0  0  0  0
   33.8910   25.3930   30.2380 H   0  0  0  0  0  0  0  0  0  0  0  0
   34.7940   23.0930   30.5270 H   0  0  0  0  0  0  0  0  0  0  0  0
   36.8900   22.7840   31.8220 H   0  0  0  0  0  0  0  0  0  0  0  0
   37.2140   27.3120   32.5870 C   0  0  0  0  0  0  0  0  0  0  0  0
   37.1260   28.4490   32.0270 O   0  0  0  0  0  0  0  0  0  0  0  0
   37.9340   27.0460   33.8030 N   0  0  0  0  0  0  0  0  0  0  0  0
   37.4920   26.8050   35.1660 C   0  0  0  0  0  2  0  0  0  0  0  0
   38.6400   27.3830   35.9690 C   0  0  0  0  0  2  0  0  0  0  0  0
   39.8160   26.7720   35.2020 C   0  0  0  0  0  2  0  0  0  0  0  0
   39.3970   26.9840   33.7860 C   0  0  0  0  0  3  0  0  0  0  0  0
   39.7310   26.2050   33.0880 H   0  0  0  0  0  0  0  0  0  0  0  0
  1  2  2  0  0  0  0
  1  6  1  0  0  0  0
  2  3  1  0  0  0  0
  3  9  1  0  0  0  0
  3  4  2  0  0  0  0
  5  4  1  0  0  0  0
  5 10  1  0  0  0  0
  6  5  2  0  0  0  0
  7  1  1  0  0  0  0
  8  2  1  0  0  0  0
 10 12  1  0  0  0  0
 11 10  2  0  0  0  0
 12 13  1  0  0  0  0
 13 14  1  0  0  0  0
 15 14  1  0  0  0  0
 16 12  1  0  0  0  0
 16 15  1  0  0  0  0
 17 16  1  0  0  0  0
M  END
>  <minimizedAffinity>
-4.08798885

$$$$

 OpenBabel03272508433D

 17 18  0  0  0  0  0  0  0  0999 V2000
   35.7360   20.8350   35.4770 C   0  0  0  0  0  0  0  0  0  0  0  0
   35.6480   20.6120   34.0930 C   0  0  0  0  0  0  0  0  0  0  0  0
   36.6330   21.1590   33.2750 C   0  0  0  0  0  0  0  0  0  0  0  0
   37.6170   21.8770   33.8770 N   0  0  0  0  0  0  0  0  0  0  0  0
   37.6740   22.0730   35.1970 C   0  0  0  0  0  0  0  0  0  0  0  0
   36.7310   21.5500   36.0020 N   0  0  0  0  0  0  0  0  0  0  0  0
   34.9800   20.4160   36.1270 H   0  0  0  0  0  0  0  0  0  0  0  0
   34.8380   20.0310   33.6740 H   0  0  0  0  0  0  0  0  0  0  0  0
   36.5890   21.0040   32.2060 H   0  0  0  0  0  0  0  0  0  0  0  0
   38.7500   22.8530   35.8260 C   0  0  0  0  0  0  0  0  0  0  0  0
   39.6610   22.3020   36.5190 O   0  0  0  0  0  0  0  0  0  0  0  0
   38.6510   24.2640   35.5700 N   0  0  0  0  0  0  0  0  0  0  0  0
   38.9350   25.0640   34.3900 C   0  0  0  0  0  2  0  0  0  0  0  0
   39.3770   26.3760   35.0070 C   0  0  0  0  0  2  0  0  0  0  0  0
   38.2760   26.5440   36.0570 C   0  0  0  0  0  2  0  0  0  0  0  0
   38.1860   25.1670   36.6250 C   0  0  0  0  0  3  0  0  0  0  0  0
   37.1810   24.8720   36.9550 H   0  0  0  0  0  0  0  0  0  0  0  0
  1  6  1  0  0  0  0
  1  7  1  0  0  0  0
  2  1  2  0  0  0  0
  3  4  2  0  0  0  0
  3  2  1  0  0  0  0
  4  5  1  0  0  0  0
  5 10  1  0  0  0  0
  5  6  2  0  0  0  0
  8  2  1  0  0  0  0
  9  3  1  0  0  0  0
 10 11  2  0  0  0  0
 12 10  1  0  0  0  0
 12 16  1  0  0  0  0
 13 14  1  0  0  0  0
 13 12  1  0  0  0  0
 14 15  1  0  0  0  0
 15 16  1  0  0  0  0
 16 17  1  0  0  0  0
M  END
>  <minimizedAffinity>
-3.99715233

$$$$

 OpenBabel03272508433D

 17 18  0  0  0  0  0  0  0  0999 V2000
   40.9530   22.1100   37.4540 C   0  0  0  0  0  0  0  0  0  0  0  0
   41.9760   22.4070   36.5380 C   0  0  0  0  0  0  0  0  0  0  0  0
   41.7230   23.3650   35.5590 C   0  0  0  0  0  0  0  0  0  0  0  0
   40.4960   23.9490   35.5590 N   0  0  0  0  0  0  0  0  0  0  0  0
   39.5430   23.6450   36.4440 C   0  0  0  0  0  0  0  0  0  0  0  0
   39.7710   22.7220   37.3970 N   0  0  0  0  0  0  0  0  0  0  0  0
   41.1330   21.3690   38.2210 H   0  0  0  0  0  0  0  0  0  0  0  0
   42.9330   21.9070   36.5900 H   0  0  0  0  0  0  0  0  0  0  0  0
   42.4920   23.6130   34.8410 H   0  0  0  0  0  0  0  0  0  0  0  0
   38.2230   24.2920   36.4230 C   0  0  0  0  0  0  0  0  0  0  0  0
   37.2100   23.7650   36.9800 O   0  0  0  0  0  0  0  0  0  0  0  0
   38.2160   25.5460   35.7220 N   0  0  0  0  0  0  0  0  0  0  0  0
   38.7130   26.8650   36.0770 C   0  0  0  0  0  2  0  0  0  0  0  0
   37.7370   27.7670   35.3500 C   0  0  0  0  0  2  0  0  0  0  0  0
   37.7150   27.0690   33.9880 C   0  0  0  0  0  2  0  0  0  0  0  0
   37.6230   25.6330   34.3860 C   0  0  0  0  0  3  0  0  0  0  0  0
   38.1290   24.9360   33.7050 H   0  0  0  0  0  0  0  0  0  0  0  0
  1  7  1  0  0  0  0
  2  8  1  0  0  0  0
  2  1  2  0  0  0  0
  3  2  1  0  0  0  0
  4  3  2  0  0  0  0
  4  5  1  0  0  0  0
  5  6  2  0  0  0  0
  6  1  1  0  0  0  0
  9  3  1  0  0  0  0
 10  5  1  0  0  0  0
 10 11  2  0  0  0  0
 12 13  1  0  0  0  0
 12 10  1  0  0  0  0
 14 13  1  0  0  0  0
 15 16  1  0  0  0  0
 15 14  1  0  0  0  0
 16 12  1  0  0  0  0
 17 16  1  0  0  0  0
M  END
>  <minimizedAffinity>
-3.96612859

$$$$

 OpenBabel03272508433D

 17 18  0  0  0  0  0  0  0  0999 V2000
   37.9960   23.3820   37.4060 C   0  0  0  0  0  0  0  0  0  0  0  0
   37.9910   24.7690   37.1810 C   0  0  0  0  0  0  0  0  0  0  0  0
   38.0520   25.2210   35.8650 C   0  0  0  0  0  0  0  0  0  0  0  0
   38.1150   24.2830   34.8840 N   0  0  0  0  0  0  0  0  0  0  0  0
   38.1190   22.9700   35.1300 C   0  0  0  0  0  0  0  0  0  0  0  0
   38.0590   22.5160   36.3960 N   0  0  0  0  0  0  0  0  0  0  0  0
   37.9480   23.0140   38.4220 H   0  0  0  0  0  0  0  0  0  0  0  0
   37.9400   25.4660   38.0050 H   0  0  0  0  0  0  0  0  0  0  0  0
   38.0500   26.2830   35.6630 H   0  0  0  0  0  0  0  0  0  0  0  0
   38.1870   21.9730   34.0510 C   0  0  0  0  0  0  0  0  0  0  0  0
   39.2960   21.5330   33.6140 O   0  0  0  0  0  0  0  0  0  0  0  0
   36.8940   21.5700   33.5690 N   0  0  0  0  0  0  0  0  0  0  0  0
   35.8710   20.7040   34.1290 C   0  0  0  0  0  2  0  0  0  0  0  0
   35.2430   20.1210   32.8790 C   0  0  0  0  0  2  0  0  0  0  0  0
   35.0920   21.4010   32.0520 C   0  0  0  0  0  2  0  0  0  0  0  0
   36.4100   22.0640   32.2780 C   0  0  0  0  0  3  0  0  0  0  0  0
   36.3750   23.1610   32.2860 H   0  0  0  0  0  0  0  0  0  0  0  0
  1  7  1  0  0  0  0
  2  1  1  0  0  0  0
  2  8  1  0  0  0  0
  3  2  2  0  0  0  0
  4  5  2  0  0  0  0
  4  3  1  0  0  0  0
  5  6  1  0  0  0  0
  6  1  2  0  0  0  0
  9  3  1  0  0  0  0
 10  5  1  0  0  0  0
 11 10  2  0  0  0  0
 12 10  1  0  0  0  0
 12 13  1  0  0  0  0
 14 13  1  0  0  0  0
 15 16  1  0  0  0  0
 15 14  1  0  0  0  0
 16 17  1  0  0  0  0
 16 12  1  0  0  0  0
M  END
>  <minimizedAffinity>
-3.88636208

$$$$

 OpenBabel03272508433D

 17 18  0  0  0  0  0  0  0  0999 V2000
   39.8100   22.8760   37.6700 C   0  0  0  0  0  0  0  0  0  0  0  0
   38.9480   23.3560   38.6710 C   0  0  0  0  0  0  0  0  0  0  0  0
   37.7960   24.0320   38.2770 C   0  0  0  0  0  0  0  0  0  0  0  0
   37.5850   24.1830   36.9440 N   0  0  0  0  0  0  0  0  0  0  0  0
   38.4250   23.7160   36.0150 C   0  0  0  0  0  0  0  0  0  0  0  0
   39.5420   23.0590   36.3780 N   0  0  0  0  0  0  0  0  0  0  0  0
   40.7080   22.3480   37.9590 H   0  0  0  0  0  0  0  0  0  0  0  0
   39.1710   23.2040   39.7180 H   0  0  0  0  0  0  0  0  0  0  0  0
   37.1150   24.4120   39.0270 H   0  0  0  0  0  0  0  0  0  0  0  0
   38.1750   23.8920   34.5770 C   0  0  0  0  0  0  0  0  0  0  0  0
   37.8370   22.9200   33.8310 O   0  0  0  0  0  0  0  0  0  0  0  0
   38.3530   25.2470   34.1320 N   0  0  0  0  0  0  0  0  0  0  0  0
   37.5370   26.4400   34.2880 C   0  0  0  0  0  2  0  0  0  0  0  0
   37.8530   27.1970   33.0140 C   0  0  0  0  0  2  0  0  0  0  0  0
   39.3770   27.0520   33.0050 C   0  0  0  0  0  2  0  0  0  0  0  0
   39.5460   25.6140   33.3660 C   0  0  0  0  0  3  0  0  0  0  0  0
   40.4490   25.3920   33.9500 H   0  0  0  0  0  0  0  0  0  0  0  0
  1  7  1  0  0  0  0
  1  2  1  0  0  0  0
  2  8  1  0  0  0  0
  3  2  2  0  0  0  0
  3  9  1  0  0  0  0
  4  3  1  0  0  0  0
  5  6  1  0  0  0  0
  5  4  2  0  0  0  0
  6  1  2  0  0  0  0
 10  5  1  0  0  0  0
 11 10  2  0  0  0  0
 12 13  1  0  0  0  0
 12 10  1  0  0  0  0
 14 13  1  0  0  0  0
 15 14  1  0  0  0  0
 15 16  1  0  0  0  0
 16 17  1  0  0  0  0
 16 12  1  0  0  0  0
M  END
>  <minimizedAffinity>
-3.83467293

$$$$

 OpenBabel03272508433D

 17 18  0  0  0  0  0  0  0  0999 V2000
   39.7910   22.8400   37.7420 C   0  0  0  0  0  0  0  0  0  0  0  0
   38.8610   23.3200   38.6790 C   0  0  0  0  0  0  0  0  0  0  0  0
   37.9160   24.2490   38.2510 C   0  0  0  0  0  0  0  0  0  0  0  0
   37.9600   24.6300   36.9470 N   0  0  0  0  0  0  0  0  0  0  0  0
   38.8580   24.1560   36.0790 C   0  0  0  0  0  0  0  0  0  0  0  0
   39.7780   23.2560   36.4760 N   0  0  0  0  0  0  0  0  0  0  0  0
   40.5310   22.1170   38.0580 H   0  0  0  0  0  0  0  0  0  0  0  0
   38.8770   22.9770   39.7040 H   0  0  0  0  0  0  0  0  0  0  0  0
   37.1880   24.6350   38.9510 H   0  0  0  0  0  0  0  0  0  0  0  0
   38.8860   24.5830   34.6730 C   0  0  0  0  0  0  0  0  0  0  0  0
   38.0090   24.1990   33.8380 O   0  0  0  0  0  0  0  0  0  0  0  0
   39.9870   25.4560   34.3670 N   0  0  0  0  0  0  0  0  0  0  0  0
   40.2310   26.8580   34.6640 C   0  0  0  0  0  2  0  0  0  0  0  0
   41.0580   27.2860   33.4690 C   0  0  0  0  0  2  0  0  0  0  0  0
   42.0430   26.1150   33.4130 C   0  0  0  0  0  2  0  0  0  0  0  0
   41.1370   24.9470   33.6190 C   0  0  0  0  0  3  0  0  0  0  0  0
   41.5920   24.1050   34.1570 H   0  0  0  0  0  0  0  0  0  0  0  0
  1  7  1  0  0  0  0
  1  2  1  0  0  0  0
  2  8  1  0  0  0  0
  3  2  2  0  0  0  0
  3  9  1  0  0  0  0
  4  3  1  0  0  0  0
  5  6  1  0  0  0  0
  5  4  2  0  0  0  0
  6  1  2  0  0  0  0
 10  5  1  0  0  0  0
 11 10  2  0  0  0  0
 12 13  1  0  0  0  0
 12 10  1  0  0  0  0
 14 13  1  0  0  0  0
 15 14  1  0  0  0  0
 15 16  1  0  0  0  0
 16 17  1  0  0  0  0
 16 12  1  0  0  0  0
M  END
>  <minimizedAffinity>
-3.77166867

$$$$

 OpenBabel03272508433D

 17 18  0  0  0  0  0  0  0  0999 V2000
   36.5910   27.1000   32.5980 C   0  0  0  0  0  0  0  0  0  0  0  0
   36.3160   25.9350   31.8630 C   0  0  0  0  0  0  0  0  0  0  0  0
   36.9090   24.7440   32.2740 C   0  0  0  0  0  0  0  0  0  0  0  0
   37.7180   24.7930   33.3650 N   0  0  0  0  0  0  0  0  0  0  0  0
   37.9600   25.9170   34.0440 C   0  0  0  0  0  0  0  0  0  0  0  0
   37.3950   27.0770   33.6600 N   0  0  0  0  0  0  0  0  0  0  0  0
   36.1380   28.0340   32.2930 H   0  0  0  0  0  0  0  0  0  0  0  0
   35.6630   25.9610   31.0020 H   0  0  0  0  0  0  0  0  0  0  0  0
   36.7150   23.8320   31.7270 H   0  0  0  0  0  0  0  0  0  0  0  0
   38.8400   25.9450   35.2220 C   0  0  0  0  0  0  0  0  0  0  0  0
   39.5790   26.9440   35.4830 O   0  0  0  0  0  0  0  0  0  0  0  0
   38.7640   24.7480   36.0140 N   0  0  0  0  0  0  0  0  0  0  0  0
   37.7580   24.2510   36.9370 C   0  0  0  0  0  2  0  0  0  0  0  0
   38.6030   23.4740   37.9260 C   0  0  0  0  0  2  0  0  0  0  0  0
   39.4930   22.7040   36.9460 C   0  0  0  0  0  2  0  0  0  0  0  0
   39.8510   23.7680   35.9620 C   0  0  0  0  0  3  0  0  0  0  0  0
   39.9860   23.4120   34.9320 H   0  0  0  0  0  0  0  0  0  0  0  0
  1  6  1  0  0  0  0
  2  3  1  0  0  0  0
  2  1  2  0  0  0  0
  3  4  2  0  0  0  0
  4  5  1  0  0  0  0
  5 10  1  0  0  0  0
  6  5  2  0  0  0  0
  7  1  1  0  0  0  0
  8  2  1  0  0  0  0
  9  3  1  0  0  0  0
 10 11  2  0  0  0  0
 10 12  1  0  0  0  0
 12 13  1  0  0  0  0
 13 14  1  0  0  0  0
 15 14  1  0  0  0  0
 16 12  1  0  0  0  0
 16 15  1  0  0  0  0
 17 16  1  0  0  0  0
M  END
>  <minimizedAffinity>
-3.74937415

$$$$

 OpenBabel03272508433D

 17 18  0  0  0  0  0  0  0  0999 V2000
   35.9860   23.3710   31.5210 C   0  0  0  0  0  0  0  0  0  0  0  0
   35.5940   24.6640   31.1350 C   0  0  0  0  0  0  0  0  0  0  0  0
   36.2430   25.7490   31.7170 C   0  0  0  0  0  0  0  0  0  0  0  0
   37.2160   25.4810   32.6260 N   0  0  0  0  0  0  0  0  0  0  0  0
   37.5670   24.2390   32.9740 C   0  0  0  0  0  0  0  0  0  0  0  0
   36.9500   23.1790   32.4200 N   0  0  0  0  0  0  0  0  0  0  0  0
   35.4930   22.5170   31.0770 H   0  0  0  0  0  0  0  0  0  0  0  0
   34.8100   24.8130   30.4050 H   0  0  0  0  0  0  0  0  0  0  0  0
   35.9610   26.7560   31.4390 H   0  0  0  0  0  0  0  0  0  0  0  0
   38.6250   23.9740   33.9610 C   0  0  0  0  0  0  0  0  0  0  0  0
   39.8240   23.7450   33.6120 O   0  0  0  0  0  0  0  0  0  0  0  0
   38.1540   24.0030   35.3190 N   0  0  0  0  0  0  0  0  0  0  0  0
   37.7860   25.0990   36.2000 C   0  0  0  0  0  2  0  0  0  0  0  0
   38.1640   24.5420   37.5570 C   0  0  0  0  0  2  0  0  0  0  0  0
   37.5550   23.1430   37.4340 C   0  0  0  0  0  2  0  0  0  0  0  0
   37.9710   22.7510   36.0560 C   0  0  0  0  0  3  0  0  0  0  0  0
   37.2580   22.1060   35.5280 H   0  0  0  0  0  0  0  0  0  0  0  0
  1  6  1  0  0  0  0
  2  1  2  0  0  0  0
  2  3  1  0  0  0  0
  3  4  2  0  0  0  0
  4  5  1  0  0  0  0
  5 10  1  0  0  0  0
  6  5  2  0  0  0  0
  7  1  1  0  0  0  0
  8  2  1  0  0  0  0
  9  3  1  0  0  0  0
 10 12  1  0  0  0  0
 11 10  2  0  0  0  0
 12 16  1  0  0  0  0
 12 13  1  0  0  0  0
 13 14  1  0  0  0  0
 15 14  1  0  0  0  0
 16 15  1  0  0  0  0
 17 16  1  0  0  0  0
M  END
>  <minimizedAffinity>
-3.73118973

$$$$

 OpenBabel03272508433D

 17 18  0  0  0  0  0  0  0  0999 V2000
   41.9390   21.8580   36.1840 C   0  0  0  0  0  0  0  0  0  0  0  0
   41.2570   21.6910   37.4010 C   0  0  0  0  0  0  0  0  0  0  0  0
   40.1340   22.4800   37.6380 C   0  0  0  0  0  0  0  0  0  0  0  0
   39.7750   23.3630   36.6700 N   0  0  0  0  0  0  0  0  0  0  0  0
   40.4450   23.4990   35.5220 C   0  0  0  0  0  0  0  0  0  0  0  0
   41.5310   22.7430   35.2770 N   0  0  0  0  0  0  0  0  0  0  0  0
   42.8120   21.2520   35.9840 H   0  0  0  0  0  0  0  0  0  0  0  0
   41.5930   20.9700   38.1330 H   0  0  0  0  0  0  0  0  0  0  0  0
   39.5900   22.3730   38.5670 H   0  0  0  0  0  0  0  0  0  0  0  0
   40.0370   24.4620   34.4890 C   0  0  0  0  0  0  0  0  0  0  0  0
   40.4770   24.3950   33.2990 O   0  0  0  0  0  0  0  0  0  0  0  0
   39.1120   25.4520   34.9700 N   0  0  0  0  0  0  0  0  0  0  0  0
   37.6950   25.3900   35.2890 C   0  0  0  0  0  2  0  0  0  0  0  0
   37.2420   26.7960   34.9520 C   0  0  0  0  0  2  0  0  0  0  0  0
   38.3610   27.5900   35.6310 C   0  0  0  0  0  2  0  0  0  0  0  0
   39.5710   26.8190   35.2220 C   0  0  0  0  0  3  0  0  0  0  0  0
   40.3810   26.8110   35.9640 H   0  0  0  0  0  0  0  0  0  0  0  0
  1  2  1  0  0  0  0
  2  3  2  0  0  0  0
  2  8  1  0  0  0  0
  3  9  1  0  0  0  0
  4  3  1  0  0  0  0
  5  4  2  0  0  0  0
  6  5  1  0  0  0  0
  6  1  2  0  0  0  0
  7  1  1  0  0  0  0
 10 12  1  0  0  0  0
 10  5  1  0  0  0  0
 11 10  2  0  0  0  0
 12 16  1  0  0  0  0
 12 13  1  0  0  0  0
 14 13  1  0  0  0  0
 14 15  1  0  0  0  0
 16 15  1  0  0  0  0
 16 17  1  0  0  0  0
M  END
>  <minimizedAffinity>
-3.68044972

$$$$
