
 OpenBabel03272506363D

 20 21  0  0  1  0  0  0  0  0999 V2000
   37.9000   30.7890   47.0650 C   0  0  0  0  0  0  0  0  0  0  0  0
   39.1500   30.7500   46.4190 C   0  0  0  0  0  0  0  0  0  0  0  0
   39.1920   30.8730   45.0320 C   0  0  0  0  0  0  0  0  0  0  0  0
   38.0020   31.0270   44.3610 N   0  0  0  0  0  0  0  0  0  0  0  0
   36.8130   31.0600   45.0200 C   0  0  0  0  0  0  0  0  0  0  0  0
   36.7660   30.9420   46.3590 N   0  0  0  0  0  0  0  0  0  0  0  0
   34.6980   30.0990   44.4880 C   0  0  0  0  0  0  0  0  0  0  0  0
   34.8700   29.0560   45.1950 O   0  0  0  0  0  0  0  0  0  0  0  0
   35.5910   31.2220   44.2890 N   0  0  0  0  0  0  0  0  0  0  0  0
   40.0920   30.6320   46.9020 H   0  0  0  0  0  0  0  0  0  0  0  0
   40.0910   30.8540   44.4660 H   0  0  0  0  0  0  0  0  0  0  0  0
   33.7220   30.0270   44.0230 H   0  0  0  0  0  0  0  0  0  0  0  0
   35.2560   31.9720   43.6700 H   0  0  0  0  0  0  0  0  0  0  0  0
   38.0190   30.6570   48.4260 O   0  0  0  0  0  0  0  0  0  0  0  0
   38.7100   28.8930   50.8790 H   0  0  0  0  0  0  0  0  0  0  0  0
   38.2990   29.7660   50.5150 N   0  0  0  0  0  0  0  0  0  0  0  0
   37.3410   30.4110   51.3570 C   0  0  0  0  0  2  0  0  0  0  0  0
   36.1610   30.7970   50.4830 C   0  0  0  0  0  2  0  0  0  0  0  0
   36.1920   29.6180   49.4990 C   0  0  0  0  0  2  0  0  0  0  0  0
   37.6780   29.5590   49.2080 C   0  0  1  0  0  3  0  0  0  0  0  0
  1 14  1  0  0  0  0
  2 10  1  0  0  0  0
  2  1  1  0  0  0  0
  3  2  2  0  0  0  0
  4  5  2  0  0  0  0
  4  3  1  0  0  0  0
  5  6  1  0  0  0  0
  6  1  2  0  0  0  0
  7  8  2  0  0  0  0
  9  7  1  0  0  0  0
  9  5  1  0  0  0  0
 11  3  1  0  0  0  0
 12  7  1  0  0  0  0
 13  9  1  0  0  0  0
 16 15  1  0  0  0  0
 16 17  1  0  0  0  0
 18 17  1  0  0  0  0
 19 18  1  0  0  0  0
 20 14  1  6  0  0  0
 20 19  1  0  0  0  0
 20 16  1  0  0  0  0
M  END
>  <minimizedAffinity>
-4.08305407

>  <minimizedRMSD>
4.42320871

$$$$
