
 OpenBabel03272509303D

 35 37  0  0  1  0  0  0  0  0999 V2000
   36.5760   30.8520   48.6790 C   0  0  2  0  0  0  0  0  0  0  0  0
   37.4430   31.6770   49.5750 C   0  0  0  0  0  0  0  0  0  0  0  0
   38.1480   30.8610   50.6360 C   0  0  0  0  0  0  0  0  0  0  0  0
   37.1460   30.0680   51.4690 C   0  0  0  0  0  0  0  0  0  0  0  0
   35.9660   29.5570   50.6840 C   0  0  0  0  0  0  0  0  0  0  0  0
   36.3830   29.4650   49.2040 C   0  0  1  0  0  0  0  0  0  0  0  0
   35.5340   31.2810   48.5360 H   0  0  0  0  0  0  0  0  0  0  0  0
   36.7080   32.3160   50.1730 H   0  0  0  0  0  0  0  0  0  0  0  0
   38.1000   32.3860   49.1090 H   0  0  0  0  0  0  0  0  0  0  0  0
   38.6410   31.5750   51.3190 H   0  0  0  0  0  0  0  0  0  0  0  0
   38.8780   30.1520   50.2410 H   0  0  0  0  0  0  0  0  0  0  0  0
   36.8060   30.6640   52.3490 H   0  0  0  0  0  0  0  0  0  0  0  0
   37.6540   29.1730   51.8850 H   0  0  0  0  0  0  0  0  0  0  0  0
   35.6970   28.5130   50.9780 H   0  0  0  0  0  0  0  0  0  0  0  0
   35.0590   30.1640   50.8030 H   0  0  0  0  0  0  0  0  0  0  0  0
   37.3090   28.9550   49.2980 H   0  0  0  0  0  0  0  0  0  0  0  0
   34.1840   28.8100   48.1200 C   0  0  0  0  0  0  0  0  0  0  0  0
   33.3920   29.7760   48.3410 O   0  0  0  0  0  0  0  0  0  0  0  0
   35.5640   28.6310   48.4040 N   0  0  0  0  0  0  0  0  0  0  0  0
   35.9790   27.7600   47.9360 H   0  0  0  0  0  0  0  0  0  0  0  0
   33.4780   27.7530   47.4630 N   0  0  0  0  0  0  0  0  0  0  0  0
   33.6220   26.3170   47.4510 C   0  0  0  0  0  2  0  0  0  0  0  0
   32.2680   25.7080   47.7140 C   0  0  0  0  0  2  0  0  0  0  0  0
   31.3540   26.7490   47.1090 C   0  0  0  0  0  2  0  0  0  0  0  0
   32.3490   27.7210   46.5610 C   0  0  0  0  0  3  0  0  0  0  0  0
   31.9620   28.7570   46.4910 H   0  0  0  0  0  0  0  0  0  0  0  0
   37.1410   30.7670   47.3090 C   0  0  0  0  0  0  0  0  0  0  0  0
   38.5280   30.9110   47.2150 C   0  0  0  0  0  0  0  0  0  0  0  0
   39.0950   30.8330   45.9390 C   0  0  0  0  0  0  0  0  0  0  0  0
   38.2610   30.6210   44.8630 N   0  0  0  0  0  0  0  0  0  0  0  0
   36.9070   30.4860   45.0060 C   0  0  0  0  0  0  0  0  0  0  0  0
   36.3680   30.5620   46.2340 N   0  0  0  0  0  0  0  0  0  0  0  0
   39.2960   31.0670   47.9480 H   0  0  0  0  0  0  0  0  0  0  0  0
   40.1370   30.9230   45.7040 H   0  0  0  0  0  0  0  0  0  0  0  0
   36.3810   30.3260   44.0920 H   0  0  0  0  0  0  0  0  0  0  0  0
  1  7  1  6  0  0  0
  1  6  1  0  0  0  0
  1  2  1  0  0  0  0
  2  8  1  0  0  0  0
  2  3  1  0  0  0  0
  3 10  1  0  0  0  0
  3  4  1  0  0  0  0
  4 13  1  0  0  0  0
  4 12  1  0  0  0  0
  5 15  1  0  0  0  0
  5 14  1  0  0  0  0
  5  4  1  0  0  0  0
  6 16  1  6  0  0  0
  6  5  1  0  0  0  0
  9  2  1  0  0  0  0
 11  3  1  0  0  0  0
 17 18  2  0  0  0  0
 17 19  1  0  0  0  0
 19  6  1  0  0  0  0
 20 19  1  0  0  0  0
 21 17  1  0  0  0  0
 22 21  1  0  0  0  0
 22 23  1  0  0  0  0
 24 23  1  0  0  0  0
 25 24  1  0  0  0  0
 25 21  1  0  0  0  0
 26 25  1  0  0  0  0
 27  1  1  0  0  0  0
 28 27  1  0  0  0  0
 28 33  1  0  0  0  0
 29 28  2  0  0  0  0
 30 31  2  0  0  0  0
 30 29  1  0  0  0  0
 31 32  1  0  0  0  0
 32 27  2  0  0  0  0
 34 29  1  0  0  0  0
 35 31  1  0  0  0  0
M  END
>  <minimizedAffinity>
-5.41814518

>  <minimizedRMSD>
1.23912776

$$$$
