
 OpenBabel03272508503D

 26 28  0  0  1  0  0  0  0  0999 V2000
   38.9540   32.7210   45.4630 C   0  0  2  0  0  0  0  0  0  0  0  0
   40.3350   32.8250   45.9110 C   0  0  0  0  0  0  0  0  0  0  0  0
   39.4820   31.5660   46.1730 C   0  0  1  0  0  0  0  0  0  0  0  0
   38.1470   33.2760   46.0520 H   0  0  0  0  0  0  0  0  0  0  0  0
   40.5760   33.3760   46.8260 H   0  0  0  0  0  0  0  0  0  0  0  0
   41.1570   32.7200   45.1720 H   0  0  0  0  0  0  0  0  0  0  0  0
   39.9360   30.6870   45.6990 H   0  0  0  0  0  0  0  0  0  0  0  0
   37.7830   30.8410   47.8110 C   0  0  0  0  0  0  0  0  0  0  0  0
   37.0720   30.4140   46.8680 O   0  0  0  0  0  0  0  0  0  0  0  0
   39.0810   31.4210   47.5760 N   0  0  0  0  0  0  0  0  0  0  0  0
   39.7240   31.7280   48.3150 H   0  0  0  0  0  0  0  0  0  0  0  0
   37.3940   30.8000   49.1890 N   0  0  0  0  0  0  0  0  0  0  0  0
   38.0950   30.6880   50.4540 C   0  0  0  0  0  0  0  0  0  0  0  0
   37.3760   29.6870   51.3020 C   0  0  0  0  0  0  0  0  0  0  0  0
   35.9920   29.6580   50.6870 C   0  0  0  0  0  0  0  0  0  0  0  0
   36.0600   30.8650   49.7620 C   0  0  0  0  0  0  0  0  0  0  0  0
   35.8350   31.8160   50.2650 H   0  0  0  0  0  0  0  0  0  0  0  0
   36.9450   32.3770   42.3780 C   0  0  0  0  0  0  0  0  0  0  0  0
   37.9460   32.3390   41.3680 C   0  0  0  0  0  0  0  0  0  0  0  0
   39.3170   32.4330   41.7880 C   0  0  0  0  0  0  0  0  0  0  0  0
   39.5890   32.5540   43.1040 N   0  0  0  0  0  0  0  0  0  0  0  0
   38.5840   32.5870   44.0220 C   0  0  0  0  0  0  0  0  0  0  0  0
   37.2660   32.5010   43.6890 N   0  0  0  0  0  0  0  0  0  0  0  0
   35.9100   32.3090   42.1100 H   0  0  0  0  0  0  0  0  0  0  0  0
   37.6810   32.2410   40.3340 H   0  0  0  0  0  0  0  0  0  0  0  0
   40.0900   32.4050   41.0350 H   0  0  0  0  0  0  0  0  0  0  0  0
  1  2  1  0  0  0  0
  1  4  1  1  0  0  0
  1  3  1  0  0  0  0
  2  3  1  0  0  0  0
  2  5  1  0  0  0  0
  3  7  1  6  0  0  0
  3 10  1  0  0  0  0
  6  2  1  0  0  0  0
  8 12  1  0  0  0  0
  9  8  2  0  0  0  0
 10  8  1  0  0  0  0
 10 11  1  0  0  0  0
 12 16  1  0  0  0  0
 12 13  1  0  0  0  0
 13 14  1  0  0  0  0
 15 14  1  0  0  0  0
 16 17  1  0  0  0  0
 16 15  1  0  0  0  0
 18 23  1  0  0  0  0
 19 20  1  0  0  0  0
 19 18  2  0  0  0  0
 20 21  2  0  0  0  0
 21 22  1  0  0  0  0
 22  1  1  0  0  0  0
 23 22  2  0  0  0  0
 24 18  1  0  0  0  0
 25 19  1  0  0  0  0
 26 20  1  0  0  0  0
M  END
>  <minimizedAffinity>
-5.46332264

>  <minimizedRMSD>
3.28945422

$$$$
