
 OpenBabel03272506363D

 20 21  0  0  1  0  0  0  0  0999 V2000
   37.5800   30.4550   46.9390 C   0  0  0  0  0  0  0  0  0  0  0  0
   38.8200   30.6950   46.3160 C   0  0  0  0  0  0  0  0  0  0  0  0
   38.8360   31.0530   44.9700 C   0  0  0  0  0  0  0  0  0  0  0  0
   37.6320   31.1540   44.3140 N   0  0  0  0  0  0  0  0  0  0  0  0
   36.4550   30.9140   44.9490 C   0  0  0  0  0  0  0  0  0  0  0  0
   36.4320   30.5680   46.2480 N   0  0  0  0  0  0  0  0  0  0  0  0
   34.4880   29.7780   44.2280 C   0  0  0  0  0  0  0  0  0  0  0  0
   34.8050   28.6640   44.7530 O   0  0  0  0  0  0  0  0  0  0  0  0
   35.2170   31.0290   44.2340 N   0  0  0  0  0  0  0  0  0  0  0  0
   39.7720   30.6270   46.7890 H   0  0  0  0  0  0  0  0  0  0  0  0
   39.7260   31.2520   44.4250 H   0  0  0  0  0  0  0  0  0  0  0  0
   33.5280   29.6530   43.7410 H   0  0  0  0  0  0  0  0  0  0  0  0
   34.7790   31.8200   43.7440 H   0  0  0  0  0  0  0  0  0  0  0  0
   37.7250   30.1130   48.2600 O   0  0  0  0  0  0  0  0  0  0  0  0
   37.0280   28.3170   50.6890 H   0  0  0  0  0  0  0  0  0  0  0  0
   37.4350   29.2000   50.3380 N   0  0  0  0  0  0  0  0  0  0  0  0
   37.4780   30.2870   51.2630 C   0  0  0  0  0  2  0  0  0  0  0  0
   36.9760   31.5200   50.5320 C   0  0  0  0  0  2  0  0  0  0  0  0
   35.9400   30.8540   49.6140 C   0  0  0  0  0  2  0  0  0  0  0  0
   36.7430   29.6610   49.1350 C   0  0  1  0  0  3  0  0  0  0  0  0
  1 14  1  0  0  0  0
  2 10  1  0  0  0  0
  2  1  1  0  0  0  0
  3  2  2  0  0  0  0
  4  5  2  0  0  0  0
  4  3  1  0  0  0  0
  5  6  1  0  0  0  0
  6  1  2  0  0  0  0
  7  9  1  0  0  0  0
  7  8  2  0  0  0  0
  9  5  1  0  0  0  0
 11  3  1  0  0  0  0
 12  7  1  0  0  0  0
 13  9  1  0  0  0  0
 16 15  1  0  0  0  0
 16 17  1  0  0  0  0
 18 17  1  0  0  0  0
 19 18  1  0  0  0  0
 20 14  1  6  0  0  0
 20 19  1  0  0  0  0
 20 16  1  0  0  0  0
M  END
>  <minimizedAffinity>
-4.06174564

>  <minimizedRMSD>
4.50359201

$$$$
