
 OpenBabel03262522173D

 42 45  0  0  1  0  0  0  0  0999 V2000
   36.7320   21.2800   31.5670 S   0  0  0  0  0  0  0  0  0  0  0  0
   37.7160   22.1400   35.3100 C   0  0  0  0  0  0  0  0  0  0  0  0
   36.7380   21.5100   36.0810 C   0  0  0  0  0  0  0  0  0  0  0  0
   35.7190   20.7840   35.4860 C   0  0  0  0  0  0  0  0  0  0  0  0
   35.7410   20.7300   34.1020 C   0  0  0  0  0  0  0  0  0  0  0  0
   36.7100   21.3550   33.3830 C   0  0  0  0  0  0  0  0  0  0  0  0
   37.7040   22.0640   33.9550 N   0  0  0  0  0  0  0  0  0  0  0  0
   36.7520   21.5740   37.1590 H   0  0  0  0  0  0  0  0  0  0  0  0
   34.9470   20.2850   36.0380 H   0  0  0  0  0  0  0  0  0  0  0  0
   34.9870   20.1870   33.5410 H   0  0  0  0  0  0  0  0  0  0  0  0
   38.7410   22.8750   36.0110 C   0  0  0  0  0  0  0  0  0  0  0  0
   39.4670   22.3260   36.8370 O   0  0  0  0  0  0  0  0  0  0  0  0
   40.0930   24.6750   34.9990 C   0  0  0  0  0  0  0  0  0  0  0  0
   38.9750   24.3120   35.7790 C   0  0  0  0  0  0  0  0  0  0  0  0
   38.1310   25.3040   36.3050 C   0  0  0  0  0  0  0  0  0  0  0  0
   38.4260   26.6130   36.0370 N   0  0  0  0  0  0  0  0  0  0  0  0
   39.5120   26.9400   35.2810 C   0  0  0  0  0  0  0  0  0  0  0  0
   40.3070   26.0020   34.7860 N   0  0  0  0  0  0  0  0  0  0  0  0
   40.7650   23.9540   34.5770 H   0  0  0  0  0  0  0  0  0  0  0  0
   37.2990   24.9890   36.8860 H   0  0  0  0  0  0  0  0  0  0  0  0
   39.6150   28.0080   35.1570 H   0  0  0  0  0  0  0  0  0  0  0  0
   37.2170   22.9300   31.0070 C   0  0  0  0  0  0  0  0  0  0  0  0
   36.8520   23.0810   29.9630 H   0  0  0  0  0  0  0  0  0  0  0  0
   38.3090   23.1140   31.0430 H   0  0  0  0  0  0  0  0  0  0  0  0
   35.9800   26.1870   31.6630 C   0  0  1  0  0  0  0  0  0  0  0  0
   35.5850   24.8020   31.1570 C   0  0  0  0  0  0  0  0  0  0  0  0
   36.5520   23.9430   31.9200 C   0  0  2  0  0  0  0  0  0  0  0  0
   37.4620   24.7560   32.5440 O   0  0  0  0  0  0  0  0  0  0  0  0
   37.4520   25.9960   31.9030 C   0  0  0  0  0  0  0  0  0  0  0  0
   35.4490   26.4570   32.5780 H   0  0  0  0  0  0  0  0  0  0  0  0
   34.5310   24.5540   31.3370 H   0  0  0  0  0  0  0  0  0  0  0  0
   35.8880   24.7630   30.0840 H   0  0  0  0  0  0  0  0  0  0  0  0
   35.9870   23.3580   32.6960 H   0  0  0  0  0  0  0  0  0  0  0  0
   38.0220   26.0160   30.9710 H   0  0  0  0  0  0  0  0  0  0  0  0
   37.8550   26.7130   32.6690 H   0  0  0  0  0  0  0  0  0  0  0  0
   35.7330   27.1530   30.6830 O   0  0  0  0  0  0  0  0  0  0  0  0
   37.7690   27.4230   28.6440 H   0  0  0  0  0  0  0  0  0  0  0  0
   37.1000   28.1470   29.0160 N   0  0  0  0  0  0  0  0  0  0  0  0
   37.8320   29.4230   29.0260 C   0  0  0  0  0  2  0  0  0  0  0  0
   36.8240   30.2350   29.8520 C   0  0  0  0  0  2  0  0  0  0  0  0
   36.7480   29.3040   31.0660 C   0  0  0  0  0  2  0  0  0  0  0  0
   36.8120   27.9490   30.4050 C   0  0  1  0  0  3  0  0  0  0  0  0
  1  6  1  0  0  0  0
  2 11  1  0  0  0  0
  2  3  1  0  0  0  0
  3  8  1  0  0  0  0
  4  9  1  0  0  0  0
  4  3  2  0  0  0  0
  5  4  1  0  0  0  0
  6  7  1  0  0  0  0
  6  5  2  0  0  0  0
  7  2  2  0  0  0  0
 10  5  1  0  0  0  0
 11 12  2  0  0  0  0
 13 14  1  0  0  0  0
 14 11  1  0  0  0  0
 14 15  2  0  0  0  0
 15 20  1  0  0  0  0
 16 15  1  0  0  0  0
 17 16  2  0  0  0  0
 18 13  2  0  0  0  0
 18 17  1  0  0  0  0
 19 13  1  0  0  0  0
 21 17  1  0  0  0  0
 22 24  1  0  0  0  0
 22  1  1  0  0  0  0
 22 27  1  0  0  0  0
 23 22  1  0  0  0  0
 25 29  1  0  0  0  0
 25 30  1  1  0  0  0
 26 31  1  0  0  0  0
 26 25  1  0  0  0  0
 26 27  1  0  0  0  0
 27 28  1  0  0  0  0
 27 33  1  1  0  0  0
 29 28  1  0  0  0  0
 29 35  1  0  0  0  0
 32 26  1  0  0  0  0
 34 29  1  0  0  0  0
 36 25  1  0  0  0  0
 37 38  1  0  0  0  0
 38 39  1  0  0  0  0
 38 42  1  0  0  0  0
 39 40  1  0  0  0  0
 40 41  1  0  0  0  0
 42 36  1  6  0  0  0
 42 41  1  0  0  0  0
M  END
>  <minimizedAffinity>
-5.90304279

$$$$

 OpenBabel03262522173D

 42 45  0  0  1  0  0  0  0  0999 V2000
   35.7730   26.4060   31.2790 S   0  0  0  0  0  0  0  0  0  0  0  0
   38.0770   24.0030   33.4310 C   0  0  0  0  0  0  0  0  0  0  0  0
   37.6200   22.7200   33.1300 C   0  0  0  0  0  0  0  0  0  0  0  0
   36.5720   22.5260   32.2450 C   0  0  0  0  0  0  0  0  0  0  0  0
   36.0250   23.6720   31.6920 C   0  0  0  0  0  0  0  0  0  0  0  0
   36.4960   24.9070   32.0080 C   0  0  0  0  0  0  0  0  0  0  0  0
   37.5150   25.1030   32.8690 N   0  0  0  0  0  0  0  0  0  0  0  0
   38.0700   21.8480   33.5810 H   0  0  0  0  0  0  0  0  0  0  0  0
   36.1880   21.5590   31.9850 H   0  0  0  0  0  0  0  0  0  0  0  0
   35.2000   23.6270   30.9880 H   0  0  0  0  0  0  0  0  0  0  0  0
   39.1730   24.1150   34.3630 C   0  0  0  0  0  0  0  0  0  0  0  0
   40.2970   24.4440   33.9900 O   0  0  0  0  0  0  0  0  0  0  0  0
   37.8790   24.3890   36.4480 C   0  0  0  0  0  0  0  0  0  0  0  0
   39.0100   23.8430   35.8030 C   0  0  0  0  0  0  0  0  0  0  0  0
   39.9320   23.0730   36.5310 C   0  0  0  0  0  0  0  0  0  0  0  0
   39.6980   22.8740   37.8650 N   0  0  0  0  0  0  0  0  0  0  0  0
   38.5990   23.4100   38.4650 C   0  0  0  0  0  0  0  0  0  0  0  0
   37.7310   24.1370   37.7760 N   0  0  0  0  0  0  0  0  0  0  0  0
   37.1490   24.9830   35.9350 H   0  0  0  0  0  0  0  0  0  0  0  0
   40.7690   22.6800   36.0080 H   0  0  0  0  0  0  0  0  0  0  0  0
   38.5500   23.1670   39.5170 H   0  0  0  0  0  0  0  0  0  0  0  0
   37.1540   27.3270   30.5610 C   0  0  0  0  0  0  0  0  0  0  0  0
   36.8960   27.6100   29.5120 H   0  0  0  0  0  0  0  0  0  0  0  0
   38.1140   26.7730   30.5650 H   0  0  0  0  0  0  0  0  0  0  0  0
   35.8750   30.0120   32.4880 C   0  0  1  0  0  0  0  0  0  0  0  0
   36.4340   28.5960   32.5760 C   0  0  0  0  0  0  0  0  0  0  0  0
   37.3500   28.5860   31.3850 C   0  0  2  0  0  0  0  0  0  0  0  0
   37.1300   29.7240   30.6550 O   0  0  0  0  0  0  0  0  0  0  0  0
   35.8760   30.2300   31.0000 C   0  0  0  0  0  0  0  0  0  0  0  0
   36.5060   30.7370   33.0060 H   0  0  0  0  0  0  0  0  0  0  0  0
   36.9390   28.3820   33.5270 H   0  0  0  0  0  0  0  0  0  0  0  0
   35.5860   27.9090   32.3440 H   0  0  0  0  0  0  0  0  0  0  0  0
   38.4150   28.5770   31.7430 H   0  0  0  0  0  0  0  0  0  0  0  0
   35.0430   29.7160   30.5140 H   0  0  0  0  0  0  0  0  0  0  0  0
   35.9270   31.3200   30.7290 H   0  0  0  0  0  0  0  0  0  0  0  0
   34.5830   30.0620   33.0210 O   0  0  0  0  0  0  0  0  0  0  0  0
   32.8230   30.5940   35.2550 H   0  0  0  0  0  0  0  0  0  0  0  0
   33.8740   30.5210   35.2390 N   0  0  0  0  0  0  0  0  0  0  0  0
   34.3730   31.5060   36.2100 C   0  0  0  0  0  2  0  0  0  0  0  0
   35.8560   31.4510   35.8170 C   0  0  0  0  0  2  0  0  0  0  0  0
   35.6910   31.7570   34.3260 C   0  0  0  0  0  2  0  0  0  0  0  0
   34.4260   30.9980   34.0060 C   0  0  1  0  0  3  0  0  0  0  0  0
  1  6  1  0  0  0  0
  2 11  1  0  0  0  0
  3  2  1  0  0  0  0
  3  8  1  0  0  0  0
  4  3  2  0  0  0  0
  5  6  2  0  0  0  0
  5  4  1  0  0  0  0
  6  7  1  0  0  0  0
  7  2  2  0  0  0  0
  9  4  1  0  0  0  0
 10  5  1  0  0  0  0
 11 14  1  0  0  0  0
 12 11  2  0  0  0  0
 13 18  1  0  0  0  0
 14 13  2  0  0  0  0
 14 15  1  0  0  0  0
 15 16  2  0  0  0  0
 16 17  1  0  0  0  0
 17 21  1  0  0  0  0
 18 17  2  0  0  0  0
 19 13  1  0  0  0  0
 20 15  1  0  0  0  0
 22 24  1  0  0  0  0
 22  1  1  0  0  0  0
 22 27  1  0  0  0  0
 23 22  1  0  0  0  0
 25 26  1  0  0  0  0
 25 30  1  1  0  0  0
 25 36  1  0  0  0  0
 26 31  1  0  0  0  0
 27 33  1  1  0  0  0
 27 26  1  0  0  0  0
 28 29  1  0  0  0  0
 28 27  1  0  0  0  0
 29 25  1  0  0  0  0
 32 26  1  0  0  0  0
 34 29  1  0  0  0  0
 35 29  1  0  0  0  0
 38 37  1  0  0  0  0
 38 39  1  0  0  0  0
 40 39  1  0  0  0  0
 41 40  1  0  0  0  0
 42 36  1  6  0  0  0
 42 41  1  0  0  0  0
 42 38  1  0  0  0  0
M  END
>  <minimizedAffinity>
-5.48860264

$$$$

 OpenBabel03262522173D

 42 45  0  0  1  0  0  0  0  0999 V2000
   37.5470   27.5240   32.9510 S   0  0  0  0  0  0  0  0  0  0  0  0
   36.7820   23.8750   31.6040 C   0  0  0  0  0  0  0  0  0  0  0  0
   35.5690   24.0010   30.9250 C   0  0  0  0  0  0  0  0  0  0  0  0
   34.9190   25.2220   30.8470 C   0  0  0  0  0  0  0  0  0  0  0  0
   35.5470   26.2850   31.4770 C   0  0  0  0  0  0  0  0  0  0  0  0
   36.7290   26.1260   32.1280 C   0  0  0  0  0  0  0  0  0  0  0  0
   37.3670   24.9400   32.2080 N   0  0  0  0  0  0  0  0  0  0  0  0
   35.1080   23.1510   30.4460 H   0  0  0  0  0  0  0  0  0  0  0  0
   33.9870   25.3660   30.3380 H   0  0  0  0  0  0  0  0  0  0  0  0
   35.1190   27.2820   31.4740 H   0  0  0  0  0  0  0  0  0  0  0  0
   37.3910   22.5670   31.6360 C   0  0  0  0  0  0  0  0  0  0  0  0
   38.5750   22.4080   31.3500 O   0  0  0  0  0  0  0  0  0  0  0  0
   36.3740   20.4100   30.9970 C   0  0  0  0  0  0  0  0  0  0  0  0
   36.6340   21.3580   32.0090 C   0  0  0  0  0  0  0  0  0  0  0  0
   36.1760   21.1340   33.3180 C   0  0  0  0  0  0  0  0  0  0  0  0
   35.4820   19.9820   33.5720 N   0  0  0  0  0  0  0  0  0  0  0  0
   35.2430   19.0810   32.5780 C   0  0  0  0  0  0  0  0  0  0  0  0
   35.6760   19.2960   31.3440 N   0  0  0  0  0  0  0  0  0  0  0  0
   36.7030   20.5380   29.9840 H   0  0  0  0  0  0  0  0  0  0  0  0
   36.3930   21.8720   34.0510 H   0  0  0  0  0  0  0  0  0  0  0  0
   34.6860   18.2250   32.9300 H   0  0  0  0  0  0  0  0  0  0  0  0
   37.0850   27.4130   34.6970 C   0  0  0  0  0  0  0  0  0  0  0  0
   36.3680   26.5680   34.8300 H   0  0  0  0  0  0  0  0  0  0  0  0
   36.6370   28.3410   35.1040 H   0  0  0  0  0  0  0  0  0  0  0  0
   40.2020   25.7730   35.1030 C   0  0  1  0  0  0  0  0  0  0  0  0
   39.5440   27.0500   34.5890 C   0  0  0  0  0  0  0  0  0  0  0  0
   38.3460   27.1270   35.4920 C   0  0  2  0  0  0  0  0  0  0  0  0
   38.2590   25.9590   36.2030 O   0  0  0  0  0  0  0  0  0  0  0  0
   38.9960   24.9830   35.5330 C   0  0  0  0  0  0  0  0  0  0  0  0
   40.8800   25.9660   35.9370 H   0  0  0  0  0  0  0  0  0  0  0  0
   40.1970   27.9310   34.6410 H   0  0  0  0  0  0  0  0  0  0  0  0
   39.1680   26.8190   33.5640 H   0  0  0  0  0  0  0  0  0  0  0  0
   38.4800   27.9850   36.2050 H   0  0  0  0  0  0  0  0  0  0  0  0
   38.4750   24.5420   34.6800 H   0  0  0  0  0  0  0  0  0  0  0  0
   39.2450   24.2240   36.3250 H   0  0  0  0  0  0  0  0  0  0  0  0
   40.9030   25.1370   34.0750 O   0  0  0  0  0  0  0  0  0  0  0  0
   43.2830   26.6610   34.6960 H   0  0  0  0  0  0  0  0  0  0  0  0
   42.8440   25.8660   35.2310 N   0  0  0  0  0  0  0  0  0  0  0  0
   43.9520   25.0910   35.8080 C   0  0  0  0  0  2  0  0  0  0  0  0
   43.1390   23.8700   36.2600 C   0  0  0  0  0  2  0  0  0  0  0  0
   42.4960   23.5340   34.9110 C   0  0  0  0  0  2  0  0  0  0  0  0
   42.2230   24.9130   34.3610 C   0  0  1  0  0  3  0  0  0  0  0  0
  1 22  1  0  0  0  0
  2 11  1  0  0  0  0
  2  7  1  0  0  0  0
  3  2  2  0  0  0  0
  4  3  1  0  0  0  0
  4  5  2  0  0  0  0
  5  6  1  0  0  0  0
  6  7  2  0  0  0  0
  6  1  1  0  0  0  0
  8  3  1  0  0  0  0
  9  4  1  0  0  0  0
 10  5  1  0  0  0  0
 11 14  1  0  0  0  0
 12 11  2  0  0  0  0
 13 18  2  0  0  0  0
 13 14  1  0  0  0  0
 14 15  2  0  0  0  0
 15 16  1  0  0  0  0
 15 20  1  0  0  0  0
 17 21  1  0  0  0  0
 17 16  2  0  0  0  0
 18 17  1  0  0  0  0
 19 13  1  0  0  0  0
 22 23  1  0  0  0  0
 22 24  1  0  0  0  0
 22 27  1  0  0  0  0
 25 29  1  0  0  0  0
 25 30  1  1  0  0  0
 26 31  1  0  0  0  0
 26 25  1  0  0  0  0
 26 27  1  0  0  0  0
 27 28  1  0  0  0  0
 27 33  1  1  0  0  0
 29 28  1  0  0  0  0
 29 35  1  0  0  0  0
 32 26  1  0  0  0  0
 34 29  1  0  0  0  0
 36 25  1  0  0  0  0
 37 38  1  0  0  0  0
 38 39  1  0  0  0  0
 39 40  1  0  0  0  0
 41 40  1  0  0  0  0
 42 36  1  1  0  0  0
 42 41  1  0  0  0  0
 42 38  1  0  0  0  0
M  END
>  <minimizedAffinity>
-5.4803133

$$$$

 OpenBabel03262522173D

 42 45  0  0  1  0  0  0  0  0999 V2000
   37.9650   26.8380   31.9840 S   0  0  0  0  0  0  0  0  0  0  0  0
   35.0710   29.4680   32.6280 C   0  0  0  0  0  0  0  0  0  0  0  0
   35.1470   30.3440   31.5440 C   0  0  0  0  0  0  0  0  0  0  0  0
   36.1000   30.1700   30.5540 C   0  0  0  0  0  0  0  0  0  0  0  0
   36.9500   29.0880   30.7130 C   0  0  0  0  0  0  0  0  0  0  0  0
   36.8460   28.2550   31.7810 C   0  0  0  0  0  0  0  0  0  0  0  0
   35.9210   28.4190   32.7490 N   0  0  0  0  0  0  0  0  0  0  0  0
   34.4680   31.1780   31.4520 H   0  0  0  0  0  0  0  0  0  0  0  0
   36.1970   30.8180   29.7040 H   0  0  0  0  0  0  0  0  0  0  0  0
   37.7310   28.8660   29.9920 H   0  0  0  0  0  0  0  0  0  0  0  0
   34.0480   29.7230   33.6140 C   0  0  0  0  0  0  0  0  0  0  0  0
   32.9180   29.2540   33.4960 O   0  0  0  0  0  0  0  0  0  0  0  0
   33.1860   30.9080   35.6010 C   0  0  0  0  0  0  0  0  0  0  0  0
   34.2980   30.5510   34.8080 C   0  0  0  0  0  0  0  0  0  0  0  0
   35.5850   30.9830   35.1660 C   0  0  0  0  0  0  0  0  0  0  0  0
   35.7210   31.7480   36.2930 N   0  0  0  0  0  0  0  0  0  0  0  0
   34.6330   32.0800   37.0420 C   0  0  0  0  0  0  0  0  0  0  0  0
   33.4190   31.6710   36.7020 N   0  0  0  0  0  0  0  0  0  0  0  0
   32.1850   30.6020   35.3680 H   0  0  0  0  0  0  0  0  0  0  0  0
   36.3950   30.6920   34.5430 H   0  0  0  0  0  0  0  0  0  0  0  0
   34.8970   32.6850   37.8970 H   0  0  0  0  0  0  0  0  0  0  0  0
   37.3170   25.8880   33.3800 C   0  0  0  0  0  0  0  0  0  0  0  0
   37.2130   24.8190   33.0760 H   0  0  0  0  0  0  0  0  0  0  0  0
   36.3450   26.2570   33.7620 H   0  0  0  0  0  0  0  0  0  0  0  0
   39.2490   24.4200   35.9650 C   0  0  1  0  0  0  0  0  0  0  0  0
   39.2720   24.8260   34.4950 C   0  0  0  0  0  0  0  0  0  0  0  0
   38.3210   25.9890   34.5140 C   0  0  2  0  0  0  0  0  0  0  0  0
   37.7150   26.0380   35.7420 O   0  0  0  0  0  0  0  0  0  0  0  0
   37.8390   24.7840   36.3410 C   0  0  0  0  0  0  0  0  0  0  0  0
   39.9830   24.9710   36.5560 H   0  0  0  0  0  0  0  0  0  0  0  0
   40.2750   25.0770   34.1260 H   0  0  0  0  0  0  0  0  0  0  0  0
   38.7710   24.0020   33.9330 H   0  0  0  0  0  0  0  0  0  0  0  0
   38.9010   26.9380   34.3500 H   0  0  0  0  0  0  0  0  0  0  0  0
   37.1180   24.0470   35.9770 H   0  0  0  0  0  0  0  0  0  0  0  0
   37.7300   24.9850   37.4420 H   0  0  0  0  0  0  0  0  0  0  0  0
   39.4850   23.0480   36.0970 O   0  0  0  0  0  0  0  0  0  0  0  0
   40.2910   21.8270   38.5940 H   0  0  0  0  0  0  0  0  0  0  0  0
   40.5860   21.5890   37.6110 N   0  0  0  0  0  0  0  0  0  0  0  0
   42.0000   21.1910   37.6870 C   0  0  0  0  0  2  0  0  0  0  0  0
   42.2960   21.1860   36.1800 C   0  0  0  0  0  2  0  0  0  0  0  0
   41.8450   22.6170   35.8720 C   0  0  0  0  0  2  0  0  0  0  0  0
   40.6380   22.7470   36.7700 C   0  0  1  0  0  3  0  0  0  0  0  0
  1 22  1  0  0  0  0
  2  7  1  0  0  0  0
  2 11  1  0  0  0  0
  3  2  2  0  0  0  0
  4  5  2  0  0  0  0
  4  3  1  0  0  0  0
  5  6  1  0  0  0  0
  6  1  1  0  0  0  0
  6  7  2  0  0  0  0
  8  3  1  0  0  0  0
  9  4  1  0  0  0  0
 10  5  1  0  0  0  0
 11 14  1  0  0  0  0
 12 11  2  0  0  0  0
 13 18  1  0  0  0  0
 14 15  1  0  0  0  0
 14 13  2  0  0  0  0
 15 16  2  0  0  0  0
 16 17  1  0  0  0  0
 17 21  1  0  0  0  0
 18 17  2  0  0  0  0
 19 13  1  0  0  0  0
 20 15  1  0  0  0  0
 22 24  1  0  0  0  0
 22 27  1  0  0  0  0
 23 22  1  0  0  0  0
 25 36  1  0  0  0  0
 25 29  1  0  0  0  0
 25 30  1  1  0  0  0
 26 27  1  0  0  0  0
 26 25  1  0  0  0  0
 27 33  1  6  0  0  0
 27 28  1  0  0  0  0
 28 29  1  0  0  0  0
 29 35  1  0  0  0  0
 31 26  1  0  0  0  0
 32 26  1  0  0  0  0
 34 29  1  0  0  0  0
 38 39  1  0  0  0  0
 38 37  1  0  0  0  0
 40 39  1  0  0  0  0
 41 40  1  0  0  0  0
 41 42  1  0  0  0  0
 42 36  1  6  0  0  0
 42 38  1  0  0  0  0
M  END
>  <minimizedAffinity>
-5.46533966

$$$$

 OpenBabel03262522173D

 42 45  0  0  1  0  0  0  0  0999 V2000
   37.0080   21.4160   31.7980 S   0  0  0  0  0  0  0  0  0  0  0  0
   37.5410   22.2050   35.6460 C   0  0  0  0  0  0  0  0  0  0  0  0
   36.5240   21.5000   36.2900 C   0  0  0  0  0  0  0  0  0  0  0  0
   35.6160   20.7400   35.5710 C   0  0  0  0  0  0  0  0  0  0  0  0
   35.7870   20.7320   34.1960 C   0  0  0  0  0  0  0  0  0  0  0  0
   36.7900   21.4310   33.6010 C   0  0  0  0  0  0  0  0  0  0  0  0
   37.6770   22.1730   34.2960 N   0  0  0  0  0  0  0  0  0  0  0  0
   36.4200   21.5290   37.3650 H   0  0  0  0  0  0  0  0  0  0  0  0
   34.8200   20.1830   36.0230 H   0  0  0  0  0  0  0  0  0  0  0  0
   35.1280   20.1690   33.5430 H   0  0  0  0  0  0  0  0  0  0  0  0
   38.4430   22.9700   36.4720 C   0  0  0  0  0  0  0  0  0  0  0  0
   38.0230   23.7930   37.2830 O   0  0  0  0  0  0  0  0  0  0  0  0
   40.6170   23.6910   35.5500 C   0  0  0  0  0  0  0  0  0  0  0  0
   39.9060   22.8100   36.3940 C   0  0  0  0  0  0  0  0  0  0  0  0
   40.5940   21.8240   37.1210 C   0  0  0  0  0  0  0  0  0  0  0  0
   41.9530   21.7500   36.9850 N   0  0  0  0  0  0  0  0  0  0  0  0
   42.6180   22.6120   36.1650 C   0  0  0  0  0  0  0  0  0  0  0  0
   41.9670   23.5410   35.4800 N   0  0  0  0  0  0  0  0  0  0  0  0
   40.1370   24.4580   34.9760 H   0  0  0  0  0  0  0  0  0  0  0  0
   40.0220   21.1820   37.7440 H   0  0  0  0  0  0  0  0  0  0  0  0
   43.6830   22.4310   36.1620 H   0  0  0  0  0  0  0  0  0  0  0  0
   38.3560   22.5710   31.4500 C   0  0  0  0  0  0  0  0  0  0  0  0
   39.1040   22.0680   30.7920 H   0  0  0  0  0  0  0  0  0  0  0  0
   38.8650   22.9540   32.3570 H   0  0  0  0  0  0  0  0  0  0  0  0
   37.0630   25.8710   31.4170 C   0  0  1  0  0  0  0  0  0  0  0  0
   38.3370   25.0500   31.2430 C   0  0  0  0  0  0  0  0  0  0  0  0
   37.7670   23.7630   30.7190 C   0  0  2  0  0  0  0  0  0  0  0  0
   36.4020   23.8150   30.8230 O   0  0  0  0  0  0  0  0  0  0  0  0
   36.0720   24.7940   31.7610 C   0  0  0  0  0  0  0  0  0  0  0  0
   36.7870   26.4020   30.5030 H   0  0  0  0  0  0  0  0  0  0  0  0
   39.0720   25.5170   30.5740 H   0  0  0  0  0  0  0  0  0  0  0  0
   38.7200   24.8450   32.2710 H   0  0  0  0  0  0  0  0  0  0  0  0
   38.0510   23.6520   29.6370 H   0  0  0  0  0  0  0  0  0  0  0  0
   36.1730   24.4650   32.7980 H   0  0  0  0  0  0  0  0  0  0  0  0
   35.0180   25.0870   31.5030 H   0  0  0  0  0  0  0  0  0  0  0  0
   37.2130   26.7920   32.4570 O   0  0  0  0  0  0  0  0  0  0  0  0
   40.0610   26.9860   32.9360 H   0  0  0  0  0  0  0  0  0  0  0  0
   39.2610   27.2740   33.5580 N   0  0  0  0  0  0  0  0  0  0  0  0
   39.6860   26.9920   34.9370 C   0  0  0  0  0  2  0  0  0  0  0  0
   38.3230   27.1860   35.6180 C   0  0  0  0  0  2  0  0  0  0  0  0
   37.5210   26.1930   34.7700 C   0  0  0  0  0  2  0  0  0  0  0  0
   38.1260   26.4140   33.4050 C   0  0  1  0  0  3  0  0  0  0  0  0
  1  6  1  0  0  0  0
  2  3  1  0  0  0  0
  2 11  1  0  0  0  0
  3  8  1  0  0  0  0
  4  9  1  0  0  0  0
  4  3  2  0  0  0  0
  5  4  1  0  0  0  0
  6  5  2  0  0  0  0
  6  7  1  0  0  0  0
  7  2  2  0  0  0  0
 10  5  1  0  0  0  0
 11 12  2  0  0  0  0
 13 14  1  0  0  0  0
 14 11  1  0  0  0  0
 14 15  2  0  0  0  0
 15 20  1  0  0  0  0
 16 15  1  0  0  0  0
 17 16  2  0  0  0  0
 18 13  2  0  0  0  0
 18 17  1  0  0  0  0
 19 13  1  0  0  0  0
 21 17  1  0  0  0  0
 22  1  1  0  0  0  0
 22 24  1  0  0  0  0
 23 22  1  0  0  0  0
 25 30  1  6  0  0  0
 25 29  1  0  0  0  0
 25 36  1  0  0  0  0
 26 25  1  0  0  0  0
 26 32  1  0  0  0  0
 27 33  1  6  0  0  0
 27 28  1  0  0  0  0
 27 26  1  0  0  0  0
 27 22  1  0  0  0  0
 28 29  1  0  0  0  0
 29 34  1  0  0  0  0
 31 26  1  0  0  0  0
 35 29  1  0  0  0  0
 37 38  1  0  0  0  0
 38 39  1  0  0  0  0
 39 40  1  0  0  0  0
 41 40  1  0  0  0  0
 42 36  1  6  0  0  0
 42 38  1  0  0  0  0
 42 41  1  0  0  0  0
M  END
>  <minimizedAffinity>
-5.4579854

$$$$

 OpenBabel03262522173D

 42 45  0  0  1  0  0  0  0  0999 V2000
   36.0430   24.8220   31.1420 S   0  0  0  0  0  0  0  0  0  0  0  0
   37.7330   22.0940   33.4690 C   0  0  0  0  0  0  0  0  0  0  0  0
   36.8890   20.9860   33.3770 C   0  0  0  0  0  0  0  0  0  0  0  0
   35.7490   21.0220   32.5900 C   0  0  0  0  0  0  0  0  0  0  0  0
   35.5140   22.2090   31.9160 C   0  0  0  0  0  0  0  0  0  0  0  0
   36.3580   23.2680   32.0280 C   0  0  0  0  0  0  0  0  0  0  0  0
   37.4690   23.2400   32.7930 N   0  0  0  0  0  0  0  0  0  0  0  0
   37.1030   20.0760   33.9170 H   0  0  0  0  0  0  0  0  0  0  0  0
   35.0720   20.1960   32.4900 H   0  0  0  0  0  0  0  0  0  0  0  0
   34.6480   22.3390   31.2750 H   0  0  0  0  0  0  0  0  0  0  0  0
   38.8980   21.9700   34.3100 C   0  0  0  0  0  0  0  0  0  0  0  0
   39.9420   21.4780   33.8860 O   0  0  0  0  0  0  0  0  0  0  0  0
   40.0670   22.1760   36.4750 C   0  0  0  0  0  0  0  0  0  0  0  0
   38.9060   22.4240   35.7130 C   0  0  0  0  0  0  0  0  0  0  0  0
   37.8090   23.0810   36.2950 C   0  0  0  0  0  0  0  0  0  0  0  0
   37.9070   23.4670   37.6050 N   0  0  0  0  0  0  0  0  0  0  0  0
   39.0390   23.2160   38.3200 C   0  0  0  0  0  0  0  0  0  0  0  0
   40.0720   22.5960   37.7680 N   0  0  0  0  0  0  0  0  0  0  0  0
   40.9280   21.6790   36.0750 H   0  0  0  0  0  0  0  0  0  0  0  0
   36.9540   23.2490   35.6870 H   0  0  0  0  0  0  0  0  0  0  0  0
   38.9670   23.5780   39.3350 H   0  0  0  0  0  0  0  0  0  0  0  0
   37.6140   25.7190   31.1360 C   0  0  0  0  0  0  0  0  0  0  0  0
   37.8020   26.1170   30.1100 H   0  0  0  0  0  0  0  0  0  0  0  0
   38.4820   25.1080   31.4560 H   0  0  0  0  0  0  0  0  0  0  0  0
   38.5160   27.3730   34.1390 C   0  0  1  0  0  0  0  0  0  0  0  0
   38.8330   27.2720   32.6500 C   0  0  0  0  0  0  0  0  0  0  0  0
   37.4890   26.8790   32.1070 C   0  0  2  0  0  0  0  0  0  0  0  0
   36.6600   26.5890   33.1590 O   0  0  0  0  0  0  0  0  0  0  0  0
   37.4500   26.3210   34.2770 C   0  0  0  0  0  0  0  0  0  0  0  0
   38.1490   28.3630   34.4160 H   0  0  0  0  0  0  0  0  0  0  0  0
   39.2310   28.2020   32.2230 H   0  0  0  0  0  0  0  0  0  0  0  0
   39.5060   26.3900   32.5320 H   0  0  0  0  0  0  0  0  0  0  0  0
   37.0620   27.7420   31.5280 H   0  0  0  0  0  0  0  0  0  0  0  0
   37.8730   25.3130   34.2890 H   0  0  0  0  0  0  0  0  0  0  0  0
   36.7730   26.5130   35.1540 H   0  0  0  0  0  0  0  0  0  0  0  0
   39.6480   27.0710   34.9020 O   0  0  0  0  0  0  0  0  0  0  0  0
   41.8990   28.1150   33.4130 H   0  0  0  0  0  0  0  0  0  0  0  0
   41.8880   27.4040   34.1900 N   0  0  0  0  0  0  0  0  0  0  0  0
   42.9380   26.4250   33.8720 C   0  0  0  0  0  2  0  0  0  0  0  0
   42.5570   25.3650   34.9160 C   0  0  0  0  0  2  0  0  0  0  0  0
   41.0920   25.1840   34.5080 C   0  0  0  0  0  2  0  0  0  0  0  0
   40.7020   26.6010   34.1660 C   0  0  1  0  0  3  0  0  0  0  0  0
  1  6  1  0  0  0  0
  2 11  1  0  0  0  0
  3  2  1  0  0  0  0
  3  8  1  0  0  0  0
  4  3  2  0  0  0  0
  5  6  2  0  0  0  0
  5  4  1  0  0  0  0
  6  7  1  0  0  0  0
  7  2  2  0  0  0  0
  9  4  1  0  0  0  0
 10  5  1  0  0  0  0
 11 14  1  0  0  0  0
 12 11  2  0  0  0  0
 13 18  1  0  0  0  0
 14 15  1  0  0  0  0
 14 13  2  0  0  0  0
 15 16  2  0  0  0  0
 16 17  1  0  0  0  0
 17 21  1  0  0  0  0
 18 17  2  0  0  0  0
 19 13  1  0  0  0  0
 20 15  1  0  0  0  0
 22  1  1  0  0  0  0
 22 24  1  0  0  0  0
 22 27  1  0  0  0  0
 23 22  1  0  0  0  0
 25 29  1  0  0  0  0
 25 30  1  1  0  0  0
 25 36  1  0  0  0  0
 26 25  1  0  0  0  0
 27 33  1  6  0  0  0
 27 26  1  0  0  0  0
 27 28  1  0  0  0  0
 28 29  1  0  0  0  0
 29 34  1  0  0  0  0
 29 35  1  0  0  0  0
 31 26  1  0  0  0  0
 32 26  1  0  0  0  0
 37 38  1  0  0  0  0
 39 38  1  0  0  0  0
 39 40  1  0  0  0  0
 41 40  1  0  0  0  0
 42 38  1  0  0  0  0
 42 41  1  0  0  0  0
 42 36  1  1  0  0  0
M  END
>  <minimizedAffinity>
-5.45351744

$$$$

 OpenBabel03262522173D

 42 45  0  0  1  0  0  0  0  0999 V2000
   37.1980   26.9240   32.4850 S   0  0  0  0  0  0  0  0  0  0  0  0
   38.1780   24.5710   35.5210 C   0  0  0  0  0  0  0  0  0  0  0  0
   38.4100   25.4480   36.5810 C   0  0  0  0  0  0  0  0  0  0  0  0
   38.2790   26.8170   36.4150 C   0  0  0  0  0  0  0  0  0  0  0  0
   37.9060   27.2420   35.1500 C   0  0  0  0  0  0  0  0  0  0  0  0
   37.6860   26.3590   34.1410 C   0  0  0  0  0  0  0  0  0  0  0  0
   37.8130   25.0250   34.2960 N   0  0  0  0  0  0  0  0  0  0  0  0
   38.7000   25.0810   37.5540 H   0  0  0  0  0  0  0  0  0  0  0  0
   38.4480   27.5280   37.2000 H   0  0  0  0  0  0  0  0  0  0  0  0
   37.7760   28.2950   34.9180 H   0  0  0  0  0  0  0  0  0  0  0  0
   38.3380   23.1610   35.7810 C   0  0  0  0  0  0  0  0  0  0  0  0
   37.3700   22.4040   35.8110 O   0  0  0  0  0  0  0  0  0  0  0  0
   40.4370   22.2100   34.8970 C   0  0  0  0  0  0  0  0  0  0  0  0
   39.6590   22.5520   36.0230 C   0  0  0  0  0  0  0  0  0  0  0  0
   40.1480   22.3100   37.3170 C   0  0  0  0  0  0  0  0  0  0  0  0
   41.3860   21.7400   37.4440 N   0  0  0  0  0  0  0  0  0  0  0  0
   42.1190   21.4190   36.3420 C   0  0  0  0  0  0  0  0  0  0  0  0
   41.6550   21.6480   35.1220 N   0  0  0  0  0  0  0  0  0  0  0  0
   40.1060   22.3750   33.8900 H   0  0  0  0  0  0  0  0  0  0  0  0
   39.5310   22.5830   38.1380 H   0  0  0  0  0  0  0  0  0  0  0  0
   43.0720   20.9790   36.6010 H   0  0  0  0  0  0  0  0  0  0  0  0
   38.5230   26.4010   31.3700 C   0  0  0  0  0  0  0  0  0  0  0  0
   39.3880   26.0410   31.9770 H   0  0  0  0  0  0  0  0  0  0  0  0
   38.8670   27.1940   30.6770 H   0  0  0  0  0  0  0  0  0  0  0  0
   36.7680   23.3400   31.0310 C   0  0  1  0  0  0  0  0  0  0  0  0
   36.6150   24.8560   30.9680 C   0  0  0  0  0  0  0  0  0  0  0  0
   37.9940   25.2560   30.5270 C   0  0  2  0  0  0  0  0  0  0  0  0
   38.8060   24.1530   30.5780 O   0  0  0  0  0  0  0  0  0  0  0  0
   38.2140   23.2140   31.4230 C   0  0  0  0  0  0  0  0  0  0  0  0
   36.5640   22.8650   30.0690 H   0  0  0  0  0  0  0  0  0  0  0  0
   35.8170   25.1880   30.2910 H   0  0  0  0  0  0  0  0  0  0  0  0
   36.4940   25.2030   32.0220 H   0  0  0  0  0  0  0  0  0  0  0  0
   37.9440   25.6290   29.4680 H   0  0  0  0  0  0  0  0  0  0  0  0
   38.3670   23.4170   32.4860 H   0  0  0  0  0  0  0  0  0  0  0  0
   38.6580   22.2300   31.1060 H   0  0  0  0  0  0  0  0  0  0  0  0
   35.9170   22.8020   32.0010 O   0  0  0  0  0  0  0  0  0  0  0  0
   36.4200   21.1430   34.3180 H   0  0  0  0  0  0  0  0  0  0  0  0
   35.6940   21.0280   33.5630 N   0  0  0  0  0  0  0  0  0  0  0  0
   35.5520   19.5810   33.3410 C   0  0  0  0  0  2  0  0  0  0  0  0
   34.7190   19.6500   32.0530 C   0  0  0  0  0  2  0  0  0  0  0  0
   35.6680   20.5320   31.2350 C   0  0  0  0  0  2  0  0  0  0  0  0
   36.1670   21.4880   32.2910 C   0  0  1  0  0  3  0  0  0  0  0  0
  1  6  1  0  0  0  0
  2 11  1  0  0  0  0
  2  3  1  0  0  0  0
  3  8  1  0  0  0  0
  4  3  2  0  0  0  0
  4  9  1  0  0  0  0
  5  4  1  0  0  0  0
  6  7  1  0  0  0  0
  6  5  2  0  0  0  0
  7  2  2  0  0  0  0
 10  5  1  0  0  0  0
 11 12  2  0  0  0  0
 11 14  1  0  0  0  0
 13 18  2  0  0  0  0
 13 14  1  0  0  0  0
 14 15  2  0  0  0  0
 15 16  1  0  0  0  0
 15 20  1  0  0  0  0
 17 21  1  0  0  0  0
 17 16  2  0  0  0  0
 18 17  1  0  0  0  0
 19 13  1  0  0  0  0
 22 23  1  0  0  0  0
 22  1  1  0  0  0  0
 24 22  1  0  0  0  0
 25 30  1  6  0  0  0
 25 29  1  0  0  0  0
 25 36  1  0  0  0  0
 26 25  1  0  0  0  0
 26 32  1  0  0  0  0
 27 33  1  6  0  0  0
 27 28  1  0  0  0  0
 27 26  1  0  0  0  0
 27 22  1  0  0  0  0
 28 29  1  0  0  0  0
 29 34  1  0  0  0  0
 31 26  1  0  0  0  0
 35 29  1  0  0  0  0
 38 37  1  0  0  0  0
 39 38  1  0  0  0  0
 40 39  1  0  0  0  0
 41 40  1  0  0  0  0
 41 42  1  0  0  0  0
 42 36  1  6  0  0  0
 42 38  1  0  0  0  0
M  END
>  <minimizedAffinity>
-5.39135122

$$$$

 OpenBabel03262522173D

 42 45  0  0  1  0  0  0  0  0999 V2000
   38.3240   27.0820   33.0110 S   0  0  0  0  0  0  0  0  0  0  0  0
   35.1350   29.4350   32.9300 C   0  0  0  0  0  0  0  0  0  0  0  0
   35.1290   29.9700   31.6410 C   0  0  0  0  0  0  0  0  0  0  0  0
   36.1120   29.6330   30.7250 C   0  0  0  0  0  0  0  0  0  0  0  0
   37.0780   28.7460   31.1710 C   0  0  0  0  0  0  0  0  0  0  0  0
   37.0530   28.2440   32.4330 C   0  0  0  0  0  0  0  0  0  0  0  0
   36.0990   28.5690   33.3310 N   0  0  0  0  0  0  0  0  0  0  0  0
   34.3590   30.6590   31.3280 H   0  0  0  0  0  0  0  0  0  0  0  0
   36.1470   30.0190   29.7250 H   0  0  0  0  0  0  0  0  0  0  0  0
   37.8910   28.4190   30.5300 H   0  0  0  0  0  0  0  0  0  0  0  0
   34.0740   29.8400   33.8200 C   0  0  0  0  0  0  0  0  0  0  0  0
   32.9200   29.4490   33.6560 O   0  0  0  0  0  0  0  0  0  0  0  0
   33.2990   30.8230   35.9480 C   0  0  0  0  0  0  0  0  0  0  0  0
   34.3100   30.7360   34.9680 C   0  0  0  0  0  0  0  0  0  0  0  0
   35.4890   31.4860   35.1040 C   0  0  0  0  0  0  0  0  0  0  0  0
   35.6210   32.2910   36.2030 N   0  0  0  0  0  0  0  0  0  0  0  0
   34.6310   32.3590   37.1360 C   0  0  0  0  0  0  0  0  0  0  0  0
   33.5190   31.6500   37.0050 N   0  0  0  0  0  0  0  0  0  0  0  0
   32.3820   30.2710   35.8870 H   0  0  0  0  0  0  0  0  0  0  0  0
   36.2260   31.3910   34.3440 H   0  0  0  0  0  0  0  0  0  0  0  0
   34.8780   33.0340   37.9430 H   0  0  0  0  0  0  0  0  0  0  0  0
   38.2100   25.6400   31.9260 C   0  0  0  0  0  0  0  0  0  0  0  0
   39.1840   25.0950   31.9420 H   0  0  0  0  0  0  0  0  0  0  0  0
   37.9450   25.8850   30.8780 H   0  0  0  0  0  0  0  0  0  0  0  0
   36.1810   22.7400   31.7180 C   0  0  1  0  0  0  0  0  0  0  0  0
   37.4850   23.2880   32.2920 C   0  0  0  0  0  0  0  0  0  0  0  0
   37.1220   24.7340   32.4710 C   0  0  2  0  0  0  0  0  0  0  0  0
   35.9100   24.9590   31.8720 O   0  0  0  0  0  0  0  0  0  0  0  0
   35.6800   23.9340   30.9540 C   0  0  0  0  0  0  0  0  0  0  0  0
   35.4840   22.4350   32.5010 H   0  0  0  0  0  0  0  0  0  0  0  0
   37.8000   22.7900   33.2170 H   0  0  0  0  0  0  0  0  0  0  0  0
   38.2350   23.2390   31.4670 H   0  0  0  0  0  0  0  0  0  0  0  0
   37.0370   24.9550   33.5700 H   0  0  0  0  0  0  0  0  0  0  0  0
   36.2100   24.0620   30.0060 H   0  0  0  0  0  0  0  0  0  0  0  0
   34.5640   23.9180   30.8230 H   0  0  0  0  0  0  0  0  0  0  0  0
   36.4360   21.6520   30.8780 O   0  0  0  0  0  0  0  0  0  0  0  0
   36.4660   18.8160   30.3020 H   0  0  0  0  0  0  0  0  0  0  0  0
   36.4510   19.3060   31.2350 N   0  0  0  0  0  0  0  0  0  0  0  0
   35.6260   18.4760   32.1270 C   0  0  0  0  0  2  0  0  0  0  0  0
   35.4910   19.4810   33.2800 C   0  0  0  0  0  2  0  0  0  0  0  0
   34.9300   20.6550   32.4720 C   0  0  0  0  0  2  0  0  0  0  0  0
   35.7130   20.5320   31.1870 C   0  0  1  0  0  3  0  0  0  0  0  0
  2  7  1  0  0  0  0
  2 11  1  0  0  0  0
  3  2  2  0  0  0  0
  4  5  2  0  0  0  0
  4  3  1  0  0  0  0
  5  6  1  0  0  0  0
  6  1  1  0  0  0  0
  6  7  2  0  0  0  0
  8  3  1  0  0  0  0
  9  4  1  0  0  0  0
 10  5  1  0  0  0  0
 11 14  1  0  0  0  0
 12 11  2  0  0  0  0
 13 18  1  0  0  0  0
 14 15  1  0  0  0  0
 14 13  2  0  0  0  0
 15 16  2  0  0  0  0
 16 17  1  0  0  0  0
 17 21  1  0  0  0  0
 18 17  2  0  0  0  0
 19 13  1  0  0  0  0
 20 15  1  0  0  0  0
 22 23  1  0  0  0  0
 22 27  1  0  0  0  0
 22  1  1  0  0  0  0
 24 22  1  0  0  0  0
 25 26  1  0  0  0  0
 25 30  1  1  0  0  0
 26 27  1  0  0  0  0
 26 31  1  0  0  0  0
 27 33  1  1  0  0  0
 28 27  1  0  0  0  0
 29 25  1  0  0  0  0
 29 28  1  0  0  0  0
 32 26  1  0  0  0  0
 34 29  1  0  0  0  0
 35 29  1  0  0  0  0
 36 25  1  0  0  0  0
 37 38  1  0  0  0  0
 38 39  1  0  0  0  0
 39 40  1  0  0  0  0
 41 40  1  0  0  0  0
 42 36  1  1  0  0  0
 42 38  1  0  0  0  0
 42 41  1  0  0  0  0
M  END
>  <minimizedAffinity>
-5.38898945

$$$$

 OpenBabel03262522173D

 42 45  0  0  1  0  0  0  0  0999 V2000
   37.6540   25.8900   33.5500 S   0  0  0  0  0  0  0  0  0  0  0  0
   35.8220   29.3480   32.9140 C   0  0  0  0  0  0  0  0  0  0  0  0
   36.3000   29.7730   31.6740 C   0  0  0  0  0  0  0  0  0  0  0  0
   37.2170   29.0140   30.9650 C   0  0  0  0  0  0  0  0  0  0  0  0
   37.6140   27.8290   31.5620 C   0  0  0  0  0  0  0  0  0  0  0  0
   37.1280   27.4460   32.7720 C   0  0  0  0  0  0  0  0  0  0  0  0
   36.2350   28.1800   33.4680 N   0  0  0  0  0  0  0  0  0  0  0  0
   35.9680   30.7030   31.2380 H   0  0  0  0  0  0  0  0  0  0  0  0
   37.6110   29.3000   30.0100 H   0  0  0  0  0  0  0  0  0  0  0  0
   38.3290   27.1630   31.0880 H   0  0  0  0  0  0  0  0  0  0  0  0
   34.8700   30.2000   33.5840 C   0  0  0  0  0  0  0  0  0  0  0  0
   35.1470   31.3610   33.8760 O   0  0  0  0  0  0  0  0  0  0  0  0
   32.7090   29.2010   32.9280 C   0  0  0  0  0  0  0  0  0  0  0  0
   33.5210   29.7310   33.9530 C   0  0  0  0  0  0  0  0  0  0  0  0
   33.0370   29.8000   35.2700 C   0  0  0  0  0  0  0  0  0  0  0  0
   31.7720   29.3400   35.5190 N   0  0  0  0  0  0  0  0  0  0  0  0
   31.0070   28.8330   34.5130 C   0  0  0  0  0  0  0  0  0  0  0  0
   31.4660   28.7700   33.2710 N   0  0  0  0  0  0  0  0  0  0  0  0
   33.0340   29.1290   31.9090 H   0  0  0  0  0  0  0  0  0  0  0  0
   33.6810   30.2050   36.0130 H   0  0  0  0  0  0  0  0  0  0  0  0
   30.0370   28.5120   34.8620 H   0  0  0  0  0  0  0  0  0  0  0  0
   37.4690   26.1380   35.3320 C   0  0  0  0  0  0  0  0  0  0  0  0
   36.4250   25.8780   35.6290 H   0  0  0  0  0  0  0  0  0  0  0  0
   37.7000   27.1680   35.6690 H   0  0  0  0  0  0  0  0  0  0  0  0
   38.6000   22.8810   36.1540 C   0  0  1  0  0  0  0  0  0  0  0  0
   38.7720   24.0260   35.1610 C   0  0  0  0  0  0  0  0  0  0  0  0
   38.4360   25.2010   36.0330 C   0  0  2  0  0  0  0  0  0  0  0  0
   37.9390   24.7360   37.2220 O   0  0  0  0  0  0  0  0  0  0  0  0
   37.5060   23.4240   37.0310 C   0  0  0  0  0  0  0  0  0  0  0  0
   39.5140   22.6840   36.7180 H   0  0  0  0  0  0  0  0  0  0  0  0
   39.7740   24.0730   34.7160 H   0  0  0  0  0  0  0  0  0  0  0  0
   37.9460   23.9220   34.4170 H   0  0  0  0  0  0  0  0  0  0  0  0
   39.3730   25.7900   36.2290 H   0  0  0  0  0  0  0  0  0  0  0  0
   36.5260   23.3470   36.5530 H   0  0  0  0  0  0  0  0  0  0  0  0
   37.5190   22.9700   38.0590 H   0  0  0  0  0  0  0  0  0  0  0  0
   38.2060   21.7140   35.4920 O   0  0  0  0  0  0  0  0  0  0  0  0
   37.4940   22.6010   32.8310 H   0  0  0  0  0  0  0  0  0  0  0  0
   37.2640   21.6930   33.3130 N   0  0  0  0  0  0  0  0  0  0  0  0
   35.9150   21.3160   32.8660 C   0  0  0  0  0  2  0  0  0  0  0  0
   35.6690   20.1870   33.8780 C   0  0  0  0  0  2  0  0  0  0  0  0
   35.9340   20.9880   35.1570 C   0  0  0  0  0  2  0  0  0  0  0  0
   37.0840   21.8650   34.7240 C   0  0  1  0  0  3  0  0  0  0  0  0
  1 22  1  0  0  0  0
  2  7  1  0  0  0  0
  2 11  1  0  0  0  0
  3  2  2  0  0  0  0
  4  5  2  0  0  0  0
  4  3  1  0  0  0  0
  5  6  1  0  0  0  0
  6  7  2  0  0  0  0
  6  1  1  0  0  0  0
  8  3  1  0  0  0  0
  9  4  1  0  0  0  0
 10  5  1  0  0  0  0
 11 12  2  0  0  0  0
 11 14  1  0  0  0  0
 13 18  2  0  0  0  0
 13 14  1  0  0  0  0
 14 15  2  0  0  0  0
 15 16  1  0  0  0  0
 15 20  1  0  0  0  0
 17 21  1  0  0  0  0
 17 16  2  0  0  0  0
 18 17  1  0  0  0  0
 19 13  1  0  0  0  0
 22 23  1  0  0  0  0
 22 24  1  0  0  0  0
 22 27  1  0  0  0  0
 25 30  1  1  0  0  0
 25 29  1  0  0  0  0
 26 27  1  0  0  0  0
 26 25  1  0  0  0  0
 27 33  1  1  0  0  0
 27 28  1  0  0  0  0
 29 28  1  0  0  0  0
 29 35  1  0  0  0  0
 31 26  1  0  0  0  0
 32 26  1  0  0  0  0
 34 29  1  0  0  0  0
 36 25  1  0  0  0  0
 37 38  1  0  0  0  0
 38 42  1  0  0  0  0
 39 38  1  0  0  0  0
 39 40  1  0  0  0  0
 40 41  1  0  0  0  0
 42 41  1  0  0  0  0
 42 36  1  1  0  0  0
M  END
>  <minimizedAffinity>
-5.38783503

$$$$
