
 OpenBabel03272509303D

 35 37  0  0  1  0  0  0  0  0999 V2000
   36.5330   30.8590   48.8820 C   0  0  2  0  0  0  0  0  0  0  0  0
   37.3740   31.5770   49.8890 C   0  0  0  0  0  0  0  0  0  0  0  0
   38.0080   30.6490   50.9020 C   0  0  0  0  0  0  0  0  0  0  0  0
   36.9500   29.8100   51.6100 C   0  0  0  0  0  0  0  0  0  0  0  0
   35.7980   29.4030   50.7270 C   0  0  0  0  0  0  0  0  0  0  0  0
   36.2850   29.4360   49.2660 C   0  0  1  0  0  0  0  0  0  0  0  0
   35.5090   31.3270   48.7300 H   0  0  0  0  0  0  0  0  0  0  0  0
   36.6240   32.1770   50.5090 H   0  0  0  0  0  0  0  0  0  0  0  0
   38.0680   32.3080   49.5220 H   0  0  0  0  0  0  0  0  0  0  0  0
   38.4820   31.2840   51.6700 H   0  0  0  0  0  0  0  0  0  0  0  0
   38.7410   29.9600   50.4770 H   0  0  0  0  0  0  0  0  0  0  0  0
   36.5790   30.3310   52.5250 H   0  0  0  0  0  0  0  0  0  0  0  0
   37.4170   28.8670   51.9650 H   0  0  0  0  0  0  0  0  0  0  0  0
   35.4930   28.3450   50.9100 H   0  0  0  0  0  0  0  0  0  0  0  0
   34.9000   30.0200   50.8590 H   0  0  0  0  0  0  0  0  0  0  0  0
   37.1950   28.8960   49.3560 H   0  0  0  0  0  0  0  0  0  0  0  0
   34.1480   28.2720   48.5470 C   0  0  0  0  0  0  0  0  0  0  0  0
   33.2910   28.5460   49.4410 O   0  0  0  0  0  0  0  0  0  0  0  0
   35.4890   28.7000   48.3550 N   0  0  0  0  0  0  0  0  0  0  0  0
   35.8890   28.4120   47.4030 H   0  0  0  0  0  0  0  0  0  0  0  0
   33.5780   27.3620   47.6010 N   0  0  0  0  0  0  0  0  0  0  0  0
   33.3360   27.4270   46.1800 C   0  0  0  0  0  2  0  0  0  0  0  0
   33.8810   26.1670   45.5540 C   0  0  0  0  0  2  0  0  0  0  0  0
   33.6940   25.1760   46.6800 C   0  0  0  0  0  2  0  0  0  0  0  0
   33.0270   26.0310   47.7080 C   0  0  0  0  0  3  0  0  0  0  0  0
   33.2030   25.6920   48.7480 H   0  0  0  0  0  0  0  0  0  0  0  0
   37.1630   30.8860   47.5370 C   0  0  0  0  0  0  0  0  0  0  0  0
   38.5280   31.1860   47.5130 C   0  0  0  0  0  0  0  0  0  0  0  0
   39.1540   31.2160   46.2620 C   0  0  0  0  0  0  0  0  0  0  0  0
   38.3970   30.9500   45.1420 N   0  0  0  0  0  0  0  0  0  0  0  0
   37.0610   30.6600   45.2180 C   0  0  0  0  0  0  0  0  0  0  0  0
   36.4660   30.6340   46.4210 N   0  0  0  0  0  0  0  0  0  0  0  0
   39.2410   31.4020   48.2840 H   0  0  0  0  0  0  0  0  0  0  0  0
   40.1890   31.4290   46.0790 H   0  0  0  0  0  0  0  0  0  0  0  0
   36.5970   30.4740   44.2760 H   0  0  0  0  0  0  0  0  0  0  0  0
  1  7  1  6  0  0  0
  1  6  1  0  0  0  0
  1  2  1  0  0  0  0
  2  8  1  0  0  0  0
  2  3  1  0  0  0  0
  3  4  1  0  0  0  0
  3 10  1  0  0  0  0
  4 13  1  0  0  0  0
  4 12  1  0  0  0  0
  5 15  1  0  0  0  0
  5 14  1  0  0  0  0
  5  4  1  0  0  0  0
  6 16  1  1  0  0  0
  6  5  1  0  0  0  0
  9  2  1  0  0  0  0
 11  3  1  0  0  0  0
 17 18  2  0  0  0  0
 19 17  1  0  0  0  0
 19  6  1  0  0  0  0
 20 19  1  0  0  0  0
 21 25  1  0  0  0  0
 21 17  1  0  0  0  0
 22 21  1  0  0  0  0
 23 22  1  0  0  0  0
 23 24  1  0  0  0  0
 24 25  1  0  0  0  0
 25 26  1  0  0  0  0
 27  1  1  0  0  0  0
 28 27  1  0  0  0  0
 28 33  1  0  0  0  0
 29 28  2  0  0  0  0
 30 31  2  0  0  0  0
 30 29  1  0  0  0  0
 31 32  1  0  0  0  0
 32 27  2  0  0  0  0
 34 29  1  0  0  0  0
 35 31  1  0  0  0  0
M  END
>  <minimizedAffinity>
-5.92827082

>  <minimizedRMSD>
1.20603275

$$$$
