
 OpenBabel03272506363D

 20 21  0  0  1  0  0  0  0  0999 V2000
   38.0820   30.7640   47.0620 C   0  0  0  0  0  0  0  0  0  0  0  0
   39.3600   30.8680   46.4790 C   0  0  0  0  0  0  0  0  0  0  0  0
   39.4550   31.1850   45.1260 C   0  0  0  0  0  0  0  0  0  0  0  0
   38.2890   31.3810   44.4250 N   0  0  0  0  0  0  0  0  0  0  0  0
   37.0730   31.2720   45.0220 C   0  0  0  0  0  0  0  0  0  0  0  0
   36.9730   30.9660   46.3280 N   0  0  0  0  0  0  0  0  0  0  0  0
   35.0320   30.3070   44.2600 C   0  0  0  0  0  0  0  0  0  0  0  0
   35.2230   29.1840   44.8230 O   0  0  0  0  0  0  0  0  0  0  0  0
   35.8770   31.4830   44.2610 N   0  0  0  0  0  0  0  0  0  0  0  0
   40.2840   30.7230   46.9870 H   0  0  0  0  0  0  0  0  0  0  0  0
   40.3780   31.2840   44.6080 H   0  0  0  0  0  0  0  0  0  0  0  0
   34.0810   30.2600   43.7410 H   0  0  0  0  0  0  0  0  0  0  0  0
   35.5330   32.2980   43.7360 H   0  0  0  0  0  0  0  0  0  0  0  0
   38.1490   30.4470   48.3960 O   0  0  0  0  0  0  0  0  0  0  0  0
   37.7570   28.4310   50.7170 H   0  0  0  0  0  0  0  0  0  0  0  0
   37.9010   29.4090   50.4190 N   0  0  0  0  0  0  0  0  0  0  0  0
   37.4730   30.4170   51.3380 C   0  0  0  0  0  2  0  0  0  0  0  0
   36.7020   31.4530   50.5390 C   0  0  0  0  0  2  0  0  0  0  0  0
   36.0620   30.5290   49.4950 C   0  0  0  0  0  2  0  0  0  0  0  0
   37.2590   29.6740   49.1330 C   0  0  1  0  0  3  0  0  0  0  0  0
  1 14  1  0  0  0  0
  2 10  1  0  0  0  0
  2  1  1  0  0  0  0
  3  2  2  0  0  0  0
  4  5  2  0  0  0  0
  4  3  1  0  0  0  0
  5  6  1  0  0  0  0
  6  1  2  0  0  0  0
  7  9  1  0  0  0  0
  7  8  2  0  0  0  0
  9  5  1  0  0  0  0
 11  3  1  0  0  0  0
 12  7  1  0  0  0  0
 13  9  1  0  0  0  0
 16 15  1  0  0  0  0
 16 17  1  0  0  0  0
 18 17  1  0  0  0  0
 19 18  1  0  0  0  0
 20 14  1  6  0  0  0
 20 19  1  0  0  0  0
 20 16  1  0  0  0  0
M  END
>  <minimizedAffinity>
-4.25136757

>  <minimizedRMSD>
4.44124222

$$$$
