
 OpenBabel03272509323D

 35 37  0  0  1  0  0  0  0  0999 V2000
   38.8870   25.6920   34.7700 C   0  0  2  0  0  0  0  0  0  0  0  0
   38.9060   27.0880   35.3050 C   0  0  0  0  0  0  0  0  0  0  0  0
   37.5860   27.8090   35.1320 C   0  0  0  0  0  0  0  0  0  0  0  0
   37.1600   27.8190   33.6690 C   0  0  0  0  0  0  0  0  0  0  0  0
   37.5180   26.5630   32.9160 C   0  0  0  0  0  0  0  0  0  0  0  0
   37.6720   25.4240   33.9410 C   0  0  1  0  0  0  0  0  0  0  0  0
   39.7780   25.4480   34.1090 H   0  0  0  0  0  0  0  0  0  0  0  0
   39.6130   27.6510   34.6060 H   0  0  0  0  0  0  0  0  0  0  0  0
   39.3200   27.2360   36.2840 H   0  0  0  0  0  0  0  0  0  0  0  0
   37.7510   28.8600   35.4270 H   0  0  0  0  0  0  0  0  0  0  0  0
   36.7650   27.3790   35.7090 H   0  0  0  0  0  0  0  0  0  0  0  0
   37.5630   28.7200   33.1460 H   0  0  0  0  0  0  0  0  0  0  0  0
   36.0540   27.9070   33.6170 H   0  0  0  0  0  0  0  0  0  0  0  0
   36.6920   26.2390   32.2390 H   0  0  0  0  0  0  0  0  0  0  0  0
   38.4180   26.6610   32.2950 H   0  0  0  0  0  0  0  0  0  0  0  0
   36.7820   25.5540   34.5060 H   0  0  0  0  0  0  0  0  0  0  0  0
   36.6520   23.6450   32.4460 C   0  0  0  0  0  0  0  0  0  0  0  0
   35.7870   24.2460   31.7390 O   0  0  0  0  0  0  0  0  0  0  0  0
   37.5950   24.1180   33.3970 N   0  0  0  0  0  0  0  0  0  0  0  0
   38.2990   23.3680   33.6990 H   0  0  0  0  0  0  0  0  0  0  0  0
   36.6030   22.2410   32.1710 N   0  0  0  0  0  0  0  0  0  0  0  0
   37.1290   21.0770   32.8420 C   0  0  0  0  0  2  0  0  0  0  0  0
   36.0130   20.0720   32.9820 C   0  0  0  0  0  2  0  0  0  0  0  0
   35.1850   20.3820   31.7560 C   0  0  0  0  0  2  0  0  0  0  0  0
   36.0060   21.4540   31.1160 C   0  0  0  0  0  3  0  0  0  0  0  0
   35.4150   22.1500   30.4890 H   0  0  0  0  0  0  0  0  0  0  0  0
   38.9450   24.6930   35.8670 C   0  0  0  0  0  0  0  0  0  0  0  0
   38.0700   24.9120   36.9340 C   0  0  0  0  0  0  0  0  0  0  0  0
   38.0950   23.9870   37.9830 C   0  0  0  0  0  0  0  0  0  0  0  0
   38.9720   22.9270   37.9020 N   0  0  0  0  0  0  0  0  0  0  0  0
   39.8100   22.7540   36.8330 C   0  0  0  0  0  0  0  0  0  0  0  0
   39.7810   23.6460   35.8300 N   0  0  0  0  0  0  0  0  0  0  0  0
   37.3370   25.6700   37.1320 H   0  0  0  0  0  0  0  0  0  0  0  0
   37.4890   24.0170   38.8670 H   0  0  0  0  0  0  0  0  0  0  0  0
   40.4340   21.8930   36.8990 H   0  0  0  0  0  0  0  0  0  0  0  0
  1  7  1  6  0  0  0
  1  2  1  0  0  0  0
  1 27  1  0  0  0  0
  2  9  1  0  0  0  0
  3  2  1  0  0  0  0
  3 10  1  0  0  0  0
  3 11  1  0  0  0  0
  4  3  1  0  0  0  0
  5  4  1  0  0  0  0
  5  6  1  0  0  0  0
  6 16  1  1  0  0  0
  6  1  1  0  0  0  0
  8  2  1  0  0  0  0
 12  4  1  0  0  0  0
 13  4  1  0  0  0  0
 14  5  1  0  0  0  0
 15  5  1  0  0  0  0
 17 19  1  0  0  0  0
 18 17  2  0  0  0  0
 19 20  1  0  0  0  0
 19  6  1  0  0  0  0
 21 17  1  0  0  0  0
 21 22  1  0  0  0  0
 22 23  1  0  0  0  0
 24 23  1  0  0  0  0
 25 24  1  0  0  0  0
 25 21  1  0  0  0  0
 26 25  1  0  0  0  0
 27 28  1  0  0  0  0
 28 33  1  0  0  0  0
 28 29  2  0  0  0  0
 29 34  1  0  0  0  0
 30 29  1  0  0  0  0
 31 35  1  0  0  0  0
 31 30  2  0  0  0  0
 32 27  2  0  0  0  0
 32 31  1  0  0  0  0
M  END
>  <minimizedAffinity>
-5.59909344

$$$$

 OpenBabel03272509323D

 35 37  0  0  1  0  0  0  0  0999 V2000
   39.5240   25.2260   34.7250 C   0  0  2  0  0  0  0  0  0  0  0  0
   39.8510   26.6090   35.1890 C   0  0  0  0  0  0  0  0  0  0  0  0
   38.6420   27.3700   35.6880 C   0  0  0  0  0  0  0  0  0  0  0  0
   37.5550   27.4240   34.6210 C   0  0  0  0  0  0  0  0  0  0  0  0
   37.4550   26.1750   33.7830 C   0  0  0  0  0  0  0  0  0  0  0  0
   38.0500   25.0100   34.5950 C   0  0  1  0  0  0  0  0  0  0  0  0
   39.9690   24.9710   33.7110 H   0  0  0  0  0  0  0  0  0  0  0  0
   40.1450   27.1670   34.2360 H   0  0  0  0  0  0  0  0  0  0  0  0
   40.6960   26.7240   35.8410 H   0  0  0  0  0  0  0  0  0  0  0  0
   38.9670   28.4100   35.8700 H   0  0  0  0  0  0  0  0  0  0  0  0
   38.1940   26.9520   36.5910 H   0  0  0  0  0  0  0  0  0  0  0  0
   37.6820   28.3240   33.9720 H   0  0  0  0  0  0  0  0  0  0  0  0
   36.5690   27.5440   35.1170 H   0  0  0  0  0  0  0  0  0  0  0  0
   36.3920   25.8890   33.5950 H   0  0  0  0  0  0  0  0  0  0  0  0
   37.9390   26.2610   32.8010 H   0  0  0  0  0  0  0  0  0  0  0  0
   37.5560   25.1530   35.5240 H   0  0  0  0  0  0  0  0  0  0  0  0
   37.7770   23.2060   32.8320 C   0  0  0  0  0  0  0  0  0  0  0  0
   38.3490   23.6540   31.7920 O   0  0  0  0  0  0  0  0  0  0  0  0
   37.6720   23.7190   34.1520 N   0  0  0  0  0  0  0  0  0  0  0  0
   37.2580   23.0130   34.8450 H   0  0  0  0  0  0  0  0  0  0  0  0
   37.1530   21.9530   32.5330 N   0  0  0  0  0  0  0  0  0  0  0  0
   36.1650   21.1470   33.2090 C   0  0  0  0  0  2  0  0  0  0  0  0
   35.0960   20.7800   32.2100 C   0  0  0  0  0  2  0  0  0  0  0  0
   35.8980   20.7330   30.9290 C   0  0  0  0  0  2  0  0  0  0  0  0
   37.2730   21.0180   31.4370 C   0  0  0  0  0  3  0  0  0  0  0  0
   37.9350   21.4870   30.6830 H   0  0  0  0  0  0  0  0  0  0  0  0
   40.0760   24.2020   35.6470 C   0  0  0  0  0  0  0  0  0  0  0  0
   41.4040   23.8320   35.4180 C   0  0  0  0  0  0  0  0  0  0  0  0
   41.9580   22.8730   36.2720 C   0  0  0  0  0  0  0  0  0  0  0  0
   41.1690   22.3560   37.2770 N   0  0  0  0  0  0  0  0  0  0  0  0
   39.8720   22.7510   37.4620 C   0  0  0  0  0  0  0  0  0  0  0  0
   39.3460   23.6720   36.6390 N   0  0  0  0  0  0  0  0  0  0  0  0
   42.1340   24.1460   34.6980 H   0  0  0  0  0  0  0  0  0  0  0  0
   42.9570   22.4870   36.2250 H   0  0  0  0  0  0  0  0  0  0  0  0
   39.3780   22.2720   38.2760 H   0  0  0  0  0  0  0  0  0  0  0  0
  1  7  1  6  0  0  0
  1  2  1  0  0  0  0
  1 27  1  0  0  0  0
  2  3  1  0  0  0  0
  2  9  1  0  0  0  0
  3 10  1  0  0  0  0
  3 11  1  0  0  0  0
  4 13  1  0  0  0  0
  4  3  1  0  0  0  0
  5  6  1  0  0  0  0
  5  4  1  0  0  0  0
  6  1  1  0  0  0  0
  6 16  1  1  0  0  0
  8  2  1  0  0  0  0
 12  4  1  0  0  0  0
 14  5  1  0  0  0  0
 15  5  1  0  0  0  0
 17 19  1  0  0  0  0
 18 17  2  0  0  0  0
 19  6  1  0  0  0  0
 19 20  1  0  0  0  0
 21 17  1  0  0  0  0
 21 22  1  0  0  0  0
 23 22  1  0  0  0  0
 24 25  1  0  0  0  0
 24 23  1  0  0  0  0
 25 21  1  0  0  0  0
 26 25  1  0  0  0  0
 27 32  1  0  0  0  0
 28 27  2  0  0  0  0
 28 29  1  0  0  0  0
 29 30  2  0  0  0  0
 30 31  1  0  0  0  0
 31 35  1  0  0  0  0
 32 31  2  0  0  0  0
 33 28  1  0  0  0  0
 34 29  1  0  0  0  0
M  END
>  <minimizedAffinity>
-5.31467533

$$$$

 OpenBabel03272509323D

 35 37  0  0  1  0  0  0  0  0999 V2000
   38.5420   26.5560   32.5230 C   0  0  2  0  0  0  0  0  0  0  0  0
   39.0060   27.5270   31.4840 C   0  0  0  0  0  0  0  0  0  0  0  0
   40.4780   27.3930   31.1610 C   0  0  0  0  0  0  0  0  0  0  0  0
   41.3270   27.5320   32.4190 C   0  0  0  0  0  0  0  0  0  0  0  0
   40.6980   26.9390   33.6530 C   0  0  0  0  0  0  0  0  0  0  0  0
   39.6840   25.8700   33.2010 C   0  0  1  0  0  0  0  0  0  0  0  0
   37.9270   27.0350   33.3490 H   0  0  0  0  0  0  0  0  0  0  0  0
   38.9360   28.5470   31.9970 H   0  0  0  0  0  0  0  0  0  0  0  0
   38.4060   27.6280   30.6000 H   0  0  0  0  0  0  0  0  0  0  0  0
   40.7410   28.2370   30.4990 H   0  0  0  0  0  0  0  0  0  0  0  0
   40.7450   26.4460   30.6880 H   0  0  0  0  0  0  0  0  0  0  0  0
   41.6040   28.6000   32.5920 H   0  0  0  0  0  0  0  0  0  0  0  0
   42.2840   26.9910   32.2680 H   0  0  0  0  0  0  0  0  0  0  0  0
   41.4450   26.3900   34.2740 H   0  0  0  0  0  0  0  0  0  0  0  0
   40.2240   27.6810   34.3090 H   0  0  0  0  0  0  0  0  0  0  0  0
   40.2760   25.3270   32.5070 H   0  0  0  0  0  0  0  0  0  0  0  0
   38.6730   25.2250   35.4380 C   0  0  0  0  0  0  0  0  0  0  0  0
   38.1400   26.2830   35.8900 O   0  0  0  0  0  0  0  0  0  0  0  0
   39.3130   24.9390   34.2020 N   0  0  0  0  0  0  0  0  0  0  0  0
   39.5100   23.8950   34.0640 H   0  0  0  0  0  0  0  0  0  0  0  0
   38.5650   24.1810   36.4100 N   0  0  0  0  0  0  0  0  0  0  0  0
   39.2040   22.8970   36.5670 C   0  0  0  0  0  2  0  0  0  0  0  0
   39.7140   22.7970   37.9830 C   0  0  0  0  0  2  0  0  0  0  0  0
   38.7000   23.6430   38.7190 C   0  0  0  0  0  2  0  0  0  0  0  0
   37.7740   24.0150   37.6080 C   0  0  0  0  0  3  0  0  0  0  0  0
   37.2400   24.9710   37.7780 H   0  0  0  0  0  0  0  0  0  0  0  0
   37.6490   25.5250   31.9360 C   0  0  0  0  0  0  0  0  0  0  0  0
   36.2990   25.8770   31.8400 C   0  0  0  0  0  0  0  0  0  0  0  0
   35.4300   24.9300   31.2880 C   0  0  0  0  0  0  0  0  0  0  0  0
   35.9500   23.7220   30.8760 N   0  0  0  0  0  0  0  0  0  0  0  0
   37.2810   23.4250   30.9900 C   0  0  0  0  0  0  0  0  0  0  0  0
   38.1110   24.3380   31.5220 N   0  0  0  0  0  0  0  0  0  0  0  0
   35.7560   26.7630   32.1030 H   0  0  0  0  0  0  0  0  0  0  0  0
   34.3730   25.0490   31.1480 H   0  0  0  0  0  0  0  0  0  0  0  0
   37.5480   22.4570   30.6330 H   0  0  0  0  0  0  0  0  0  0  0  0
  1  6  1  0  0  0  0
  1  7  1  1  0  0  0
  2  8  1  0  0  0  0
  2  1  1  0  0  0  0
  3  2  1  0  0  0  0
  3  4  1  0  0  0  0
  4 12  1  0  0  0  0
  4  5  1  0  0  0  0
  5 14  1  0  0  0  0
  5 15  1  0  0  0  0
  6 16  1  6  0  0  0
  6  5  1  0  0  0  0
  6 19  1  0  0  0  0
  9  2  1  0  0  0  0
 10  3  1  0  0  0  0
 11  3  1  0  0  0  0
 13  4  1  0  0  0  0
 17 18  2  0  0  0  0
 17 21  1  0  0  0  0
 19 17  1  0  0  0  0
 20 19  1  0  0  0  0
 21 22  1  0  0  0  0
 21 25  1  0  0  0  0
 22 23  1  0  0  0  0
 23 24  1  0  0  0  0
 25 26  1  0  0  0  0
 25 24  1  0  0  0  0
 27  1  1  0  0  0  0
 28 27  1  0  0  0  0
 28 33  1  0  0  0  0
 29 28  2  0  0  0  0
 30 31  2  0  0  0  0
 30 29  1  0  0  0  0
 31 32  1  0  0  0  0
 32 27  2  0  0  0  0
 34 29  1  0  0  0  0
 35 31  1  0  0  0  0
M  END
>  <minimizedAffinity>
-5.24459171

$$$$

 OpenBabel03272509323D

 35 37  0  0  1  0  0  0  0  0999 V2000
   36.8010   21.9890   31.8360 C   0  0  2  0  0  0  0  0  0  0  0  0
   35.8960   21.2190   30.9290 C   0  0  0  0  0  0  0  0  0  0  0  0
   34.7240   20.5920   31.6530 C   0  0  0  0  0  0  0  0  0  0  0  0
   35.2020   19.6990   32.7920 C   0  0  0  0  0  0  0  0  0  0  0  0
   36.4290   20.2120   33.5010 C   0  0  0  0  0  0  0  0  0  0  0  0
   36.5030   21.7350   33.2790 C   0  0  1  0  0  0  0  0  0  0  0  0
   37.9010   21.7440   31.6950 H   0  0  0  0  0  0  0  0  0  0  0  0
   36.5210   20.3190   30.6010 H   0  0  0  0  0  0  0  0  0  0  0  0
   35.5980   21.6890   30.0120 H   0  0  0  0  0  0  0  0  0  0  0  0
   34.2080   19.9390   30.9270 H   0  0  0  0  0  0  0  0  0  0  0  0
   34.0240   21.3140   32.0750 H   0  0  0  0  0  0  0  0  0  0  0  0
   35.3630   18.6530   32.4340 H   0  0  0  0  0  0  0  0  0  0  0  0
   34.4030   19.6370   33.5610 H   0  0  0  0  0  0  0  0  0  0  0  0
   36.3510   20.0810   34.6070 H   0  0  0  0  0  0  0  0  0  0  0  0
   37.3600   19.7210   33.1880 H   0  0  0  0  0  0  0  0  0  0  0  0
   35.5070   22.0120   33.5220 H   0  0  0  0  0  0  0  0  0  0  0  0
   38.7140   22.2140   34.4270 C   0  0  0  0  0  0  0  0  0  0  0  0
   39.5760   21.5100   33.8190 O   0  0  0  0  0  0  0  0  0  0  0  0
   37.3300   22.4320   34.1930 N   0  0  0  0  0  0  0  0  0  0  0  0
   36.9220   23.2190   34.7950 H   0  0  0  0  0  0  0  0  0  0  0  0
   39.3330   22.8750   35.5360 N   0  0  0  0  0  0  0  0  0  0  0  0
   38.8210   23.5530   36.7020 C   0  0  0  0  0  2  0  0  0  0  0  0
   39.5380   23.0100   37.9130 C   0  0  0  0  0  2  0  0  0  0  0  0
   40.8830   22.6550   37.3210 C   0  0  0  0  0  2  0  0  0  0  0  0
   40.7080   23.1140   35.9100 C   0  0  0  0  0  3  0  0  0  0  0  0
   41.3410   22.5650   35.1850 H   0  0  0  0  0  0  0  0  0  0  0  0
   36.7050   23.4490   31.5810 C   0  0  0  0  0  0  0  0  0  0  0  0
   37.9210   24.1150   31.4030 C   0  0  0  0  0  0  0  0  0  0  0  0
   37.8670   25.4910   31.1550 C   0  0  0  0  0  0  0  0  0  0  0  0
   36.6310   26.1000   31.1030 N   0  0  0  0  0  0  0  0  0  0  0  0
   35.4670   25.4030   31.2830 C   0  0  0  0  0  0  0  0  0  0  0  0
   35.5260   24.0830   31.5200 N   0  0  0  0  0  0  0  0  0  0  0  0
   38.9410   23.7840   31.4050 H   0  0  0  0  0  0  0  0  0  0  0  0
   38.7070   26.1380   30.9990 H   0  0  0  0  0  0  0  0  0  0  0  0
   34.5840   25.9970   31.2160 H   0  0  0  0  0  0  0  0  0  0  0  0
  1  7  1  6  0  0  0
  1  6  1  0  0  0  0
  2  3  1  0  0  0  0
  2  1  1  0  0  0  0
  3 11  1  0  0  0  0
  3  4  1  0  0  0  0
  4  5  1  0  0  0  0
  4 13  1  0  0  0  0
  5 14  1  0  0  0  0
  6  5  1  0  0  0  0
  6 16  1  1  0  0  0
  6 19  1  0  0  0  0
  8  2  1  0  0  0  0
  9  2  1  0  0  0  0
 10  3  1  0  0  0  0
 12  4  1  0  0  0  0
 15  5  1  0  0  0  0
 17 21  1  0  0  0  0
 18 17  2  0  0  0  0
 19 17  1  0  0  0  0
 19 20  1  0  0  0  0
 21 25  1  0  0  0  0
 21 22  1  0  0  0  0
 22 23  1  0  0  0  0
 24 23  1  0  0  0  0
 25 24  1  0  0  0  0
 26 25  1  0  0  0  0
 27  1  1  0  0  0  0
 28 33  1  0  0  0  0
 28 27  2  0  0  0  0
 29 28  1  0  0  0  0
 30 29  2  0  0  0  0
 30 31  1  0  0  0  0
 31 32  2  0  0  0  0
 32 27  1  0  0  0  0
 34 29  1  0  0  0  0
 35 31  1  0  0  0  0
M  END
>  <minimizedAffinity>
-4.89376974

$$$$

 OpenBabel03272509323D

 35 37  0  0  1  0  0  0  0  0999 V2000
   39.9190   24.9880   34.1930 C   0  0  2  0  0  0  0  0  0  0  0  0
   41.3250   24.4990   34.3350 C   0  0  0  0  0  0  0  0  0  0  0  0
   42.2580   25.5370   34.9210 C   0  0  0  0  0  0  0  0  0  0  0  0
   42.2330   26.8190   34.0950 C   0  0  0  0  0  0  0  0  0  0  0  0
   40.8790   27.1560   33.5250 C   0  0  0  0  0  0  0  0  0  0  0  0
   39.8130   26.4650   34.3960 C   0  0  1  0  0  0  0  0  0  0  0  0
   39.4670   24.7780   33.1730 H   0  0  0  0  0  0  0  0  0  0  0  0
   41.6950   24.3820   33.2600 H   0  0  0  0  0  0  0  0  0  0  0  0
   41.4690   23.5330   34.7780 H   0  0  0  0  0  0  0  0  0  0  0  0
   43.2810   25.1280   34.8510 H   0  0  0  0  0  0  0  0  0  0  0  0
   42.0300   25.8090   35.9530 H   0  0  0  0  0  0  0  0  0  0  0  0
   43.0030   26.7830   33.2870 H   0  0  0  0  0  0  0  0  0  0  0  0
   42.5160   27.6720   34.7470 H   0  0  0  0  0  0  0  0  0  0  0  0
   40.6600   28.2470   33.6030 H   0  0  0  0  0  0  0  0  0  0  0  0
   40.7640   26.8830   32.4680 H   0  0  0  0  0  0  0  0  0  0  0  0
   40.1450   26.7470   35.3640 H   0  0  0  0  0  0  0  0  0  0  0  0
   37.8060   27.2590   33.0610 C   0  0  0  0  0  0  0  0  0  0  0  0
   38.0600   26.9650   31.8540 O   0  0  0  0  0  0  0  0  0  0  0  0
   38.5050   26.9940   34.2690 N   0  0  0  0  0  0  0  0  0  0  0  0
   37.9360   27.2360   35.1450 H   0  0  0  0  0  0  0  0  0  0  0  0
   36.5750   27.9860   33.1280 N   0  0  0  0  0  0  0  0  0  0  0  0
   35.9490   28.7890   34.1490 C   0  0  0  0  0  2  0  0  0  0  0  0
   35.5270   30.0960   33.5250 C   0  0  0  0  0  2  0  0  0  0  0  0
   35.2410   29.6630   32.1060 C   0  0  0  0  0  2  0  0  0  0  0  0
   35.4900   28.1920   32.1960 C   0  0  0  0  0  3  0  0  0  0  0  0
   35.7980   27.7360   31.2350 H   0  0  0  0  0  0  0  0  0  0  0  0
   39.0120   24.3090   35.1550 C   0  0  0  0  0  0  0  0  0  0  0  0
   38.6230   23.0120   34.8090 C   0  0  0  0  0  0  0  0  0  0  0  0
   37.7730   22.3420   35.6940 C   0  0  0  0  0  0  0  0  0  0  0  0
   37.3750   22.9930   36.8410 N   0  0  0  0  0  0  0  0  0  0  0  0
   37.7840   24.2650   37.1370 C   0  0  0  0  0  0  0  0  0  0  0  0
   38.6000   24.9040   36.2820 N   0  0  0  0  0  0  0  0  0  0  0  0
   38.8530   22.3800   33.9730 H   0  0  0  0  0  0  0  0  0  0  0  0
   37.3880   21.3490   35.5710 H   0  0  0  0  0  0  0  0  0  0  0  0
   37.4020   24.6490   38.0550 H   0  0  0  0  0  0  0  0  0  0  0  0
  1  7  1  6  0  0  0
  1  2  1  0  0  0  0
  1  6  1  0  0  0  0
  1 27  1  0  0  0  0
  2  9  1  0  0  0  0
  2  3  1  0  0  0  0
  3 11  1  0  0  0  0
  4 13  1  0  0  0  0
  4  3  1  0  0  0  0
  5 14  1  0  0  0  0
  5  4  1  0  0  0  0
  5  6  1  0  0  0  0
  6 16  1  1  0  0  0
  8  2  1  0  0  0  0
 10  3  1  0  0  0  0
 12  4  1  0  0  0  0
 15  5  1  0  0  0  0
 17 21  1  0  0  0  0
 17 19  1  0  0  0  0
 18 17  2  0  0  0  0
 19  6  1  0  0  0  0
 19 20  1  0  0  0  0
 21 22  1  0  0  0  0
 23 22  1  0  0  0  0
 24 25  1  0  0  0  0
 24 23  1  0  0  0  0
 25 21  1  0  0  0  0
 26 25  1  0  0  0  0
 27 32  1  0  0  0  0
 28 27  2  0  0  0  0
 28 29  1  0  0  0  0
 29 30  2  0  0  0  0
 30 31  1  0  0  0  0
 31 35  1  0  0  0  0
 32 31  2  0  0  0  0
 33 28  1  0  0  0  0
 34 29  1  0  0  0  0
M  END
>  <minimizedAffinity>
-4.8494029

$$$$

 OpenBabel03272509323D

 35 37  0  0  1  0  0  0  0  0999 V2000
   38.6700   26.0890   34.5120 C   0  0  2  0  0  0  0  0  0  0  0  0
   39.7970   26.8790   35.0970 C   0  0  0  0  0  0  0  0  0  0  0  0
   41.1350   26.5590   34.4680 C   0  0  0  0  0  0  0  0  0  0  0  0
   41.4400   25.0690   34.5650 C   0  0  0  0  0  0  0  0  0  0  0  0
   40.2290   24.1840   34.4190 C   0  0  0  0  0  0  0  0  0  0  0  0
   39.1560   24.9730   33.6450 C   0  0  1  0  0  0  0  0  0  0  0  0
   37.9980   25.6110   35.2940 H   0  0  0  0  0  0  0  0  0  0  0  0
   39.9000   26.4810   36.1640 H   0  0  0  0  0  0  0  0  0  0  0  0
   39.6500   27.9350   35.2160 H   0  0  0  0  0  0  0  0  0  0  0  0
   41.9050   27.0850   35.0610 H   0  0  0  0  0  0  0  0  0  0  0  0
   41.2120   26.8410   33.4170 H   0  0  0  0  0  0  0  0  0  0  0  0
   41.9850   24.8370   35.5110 H   0  0  0  0  0  0  0  0  0  0  0  0
   42.1300   24.7890   33.7410 H   0  0  0  0  0  0  0  0  0  0  0  0
   40.4460   23.2890   33.7880 H   0  0  0  0  0  0  0  0  0  0  0  0
   39.8340   23.8120   35.3740 H   0  0  0  0  0  0  0  0  0  0  0  0
   39.7350   25.3380   32.8340 H   0  0  0  0  0  0  0  0  0  0  0  0
   37.5810   22.9840   33.5910 C   0  0  0  0  0  0  0  0  0  0  0  0
   37.7040   22.4190   34.7190 O   0  0  0  0  0  0  0  0  0  0  0  0
   38.1360   24.1810   33.0630 N   0  0  0  0  0  0  0  0  0  0  0  0
   37.7000   24.4690   32.1270 H   0  0  0  0  0  0  0  0  0  0  0  0
   36.7060   22.2120   32.7610 N   0  0  0  0  0  0  0  0  0  0  0  0
   36.4250   22.2070   31.3470 C   0  0  0  0  0  2  0  0  0  0  0  0
   36.5150   20.7830   30.8560 C   0  0  0  0  0  2  0  0  0  0  0  0
   36.0840   20.0220   32.0890 C   0  0  0  0  0  2  0  0  0  0  0  0
   35.7720   21.1420   33.0270 C   0  0  0  0  0  3  0  0  0  0  0  0
   35.8850   20.8710   34.0940 H   0  0  0  0  0  0  0  0  0  0  0  0
   37.7640   26.9530   33.7140 C   0  0  0  0  0  0  0  0  0  0  0  0
   36.8390   27.7030   34.4460 C   0  0  0  0  0  0  0  0  0  0  0  0
   35.9730   28.5320   33.7260 C   0  0  0  0  0  0  0  0  0  0  0  0
   36.0810   28.5580   32.3520 N   0  0  0  0  0  0  0  0  0  0  0  0
   37.0050   27.8050   31.6790 C   0  0  0  0  0  0  0  0  0  0  0  0
   37.8340   27.0110   32.3770 N   0  0  0  0  0  0  0  0  0  0  0  0
   36.6440   27.7950   35.4970 H   0  0  0  0  0  0  0  0  0  0  0  0
   35.2130   29.1640   34.1400 H   0  0  0  0  0  0  0  0  0  0  0  0
   36.9800   27.9210   30.6200 H   0  0  0  0  0  0  0  0  0  0  0  0
  1  2  1  0  0  0  0
  1  7  1  1  0  0  0
  2  9  1  0  0  0  0
  2  8  1  0  0  0  0
  3  4  1  0  0  0  0
  3 10  1  0  0  0  0
  3  2  1  0  0  0  0
  4 12  1  0  0  0  0
  5  4  1  0  0  0  0
  5 15  1  0  0  0  0
  6 16  1  6  0  0  0
  6  5  1  0  0  0  0
  6  1  1  0  0  0  0
 11  3  1  0  0  0  0
 13  4  1  0  0  0  0
 14  5  1  0  0  0  0
 17 18  2  0  0  0  0
 19 17  1  0  0  0  0
 19  6  1  0  0  0  0
 20 19  1  0  0  0  0
 21 25  1  0  0  0  0
 21 17  1  0  0  0  0
 22 21  1  0  0  0  0
 23 22  1  0  0  0  0
 23 24  1  0  0  0  0
 24 25  1  0  0  0  0
 25 26  1  0  0  0  0
 27 28  1  0  0  0  0
 27  1  1  0  0  0  0
 28 33  1  0  0  0  0
 29 34  1  0  0  0  0
 29 28  2  0  0  0  0
 30 29  1  0  0  0  0
 31 30  2  0  0  0  0
 31 32  1  0  0  0  0
 32 27  2  0  0  0  0
 35 31  1  0  0  0  0
M  END
>  <minimizedAffinity>
-4.82411098

$$$$

 OpenBabel03272509323D

 35 37  0  0  1  0  0  0  0  0999 V2000
   37.9140   24.8550   32.1270 C   0  0  2  0  0  0  0  0  0  0  0  0
   36.7580   25.3890   31.3440 C   0  0  0  0  0  0  0  0  0  0  0  0
   35.5000   24.5650   31.5050 C   0  0  0  0  0  0  0  0  0  0  0  0
   35.7520   23.1080   31.1320 C   0  0  0  0  0  0  0  0  0  0  0  0
   37.1210   22.6050   31.5120 C   0  0  0  0  0  0  0  0  0  0  0  0
   37.6470   23.4850   32.6620 C   0  0  1  0  0  0  0  0  0  0  0  0
   38.8730   24.7750   31.5230 H   0  0  0  0  0  0  0  0  0  0  0  0
   37.0520   25.2200   30.2520 H   0  0  0  0  0  0  0  0  0  0  0  0
   36.5610   26.4420   31.4110 H   0  0  0  0  0  0  0  0  0  0  0  0
   34.7610   24.9590   30.7860 H   0  0  0  0  0  0  0  0  0  0  0  0
   35.0860   24.5770   32.5150 H   0  0  0  0  0  0  0  0  0  0  0  0
   35.5580   22.9400   30.0460 H   0  0  0  0  0  0  0  0  0  0  0  0
   35.0250   22.4670   31.6740 H   0  0  0  0  0  0  0  0  0  0  0  0
   37.0790   21.5710   31.9300 H   0  0  0  0  0  0  0  0  0  0  0  0
   37.8310   22.5820   30.6750 H   0  0  0  0  0  0  0  0  0  0  0  0
   36.8040   23.4790   33.3070 H   0  0  0  0  0  0  0  0  0  0  0  0
   38.7680   22.7640   34.8210 C   0  0  0  0  0  0  0  0  0  0  0  0
   37.8960   22.9210   35.7290 O   0  0  0  0  0  0  0  0  0  0  0  0
   38.7070   22.9170   33.4110 N   0  0  0  0  0  0  0  0  0  0  0  0
   39.5790   22.5450   32.9100 H   0  0  0  0  0  0  0  0  0  0  0  0
   40.0070   22.3580   35.4130 N   0  0  0  0  0  0  0  0  0  0  0  0
   41.3670   22.3040   34.9340 C   0  0  0  0  0  2  0  0  0  0  0  0
   42.2510   22.9740   35.9570 C   0  0  0  0  0  2  0  0  0  0  0  0
   41.4970   22.6770   37.2330 C   0  0  0  0  0  2  0  0  0  0  0  0
   40.3670   21.8480   36.7160 C   0  0  0  0  0  3  0  0  0  0  0  0
   39.4570   21.8980   37.3460 H   0  0  0  0  0  0  0  0  0  0  0  0
   38.2580   25.7500   33.2620 C   0  0  0  0  0  0  0  0  0  0  0  0
   37.1730   26.3130   33.9390 C   0  0  0  0  0  0  0  0  0  0  0  0
   37.4600   27.1580   35.0160 C   0  0  0  0  0  0  0  0  0  0  0  0
   38.7800   27.3820   35.3410 N   0  0  0  0  0  0  0  0  0  0  0  0
   39.8090   26.8060   34.6460 C   0  0  0  0  0  0  0  0  0  0  0  0
   39.5270   25.9960   33.6130 N   0  0  0  0  0  0  0  0  0  0  0  0
   36.1110   26.2280   33.8140 H   0  0  0  0  0  0  0  0  0  0  0  0
   36.7420   27.6640   35.6320 H   0  0  0  0  0  0  0  0  0  0  0  0
   40.7800   27.0640   35.0030 H   0  0  0  0  0  0  0  0  0  0  0  0
  1  7  1  6  0  0  0
  1  6  1  0  0  0  0
  1 27  1  0  0  0  0
  2  9  1  0  0  0  0
  2  3  1  0  0  0  0
  2  1  1  0  0  0  0
  3 11  1  0  0  0  0
  4  3  1  0  0  0  0
  4  5  1  0  0  0  0
  4 13  1  0  0  0  0
  5 14  1  0  0  0  0
  5  6  1  0  0  0  0
  6 16  1  1  0  0  0
  6 19  1  0  0  0  0
  8  2  1  0  0  0  0
 10  3  1  0  0  0  0
 12  4  1  0  0  0  0
 15  5  1  0  0  0  0
 17 21  1  0  0  0  0
 17 18  2  0  0  0  0
 19 17  1  0  0  0  0
 20 19  1  0  0  0  0
 21 25  1  0  0  0  0
 22 21  1  0  0  0  0
 22 23  1  0  0  0  0
 23 24  1  0  0  0  0
 25 24  1  0  0  0  0
 25 26  1  0  0  0  0
 27 32  2  0  0  0  0
 27 28  1  0  0  0  0
 28 29  2  0  0  0  0
 29 30  1  0  0  0  0
 29 34  1  0  0  0  0
 31 35  1  0  0  0  0
 31 30  2  0  0  0  0
 32 31  1  0  0  0  0
 33 28  1  0  0  0  0
M  END
>  <minimizedAffinity>
-4.79798222

$$$$

 OpenBabel03272509323D

 35 37  0  0  1  0  0  0  0  0999 V2000
   38.2460   25.1560   33.5190 C   0  0  2  0  0  0  0  0  0  0  0  0
   38.5020   24.4740   34.8240 C   0  0  0  0  0  0  0  0  0  0  0  0
   37.8680   25.1840   36.0000 C   0  0  0  0  0  0  0  0  0  0  0  0
   38.3290   26.6350   36.0730 C   0  0  0  0  0  0  0  0  0  0  0  0
   38.5280   27.2840   34.7270 C   0  0  0  0  0  0  0  0  0  0  0  0
   37.6670   26.5220   33.7020 C   0  0  1  0  0  0  0  0  0  0  0  0
   39.1810   25.2930   32.8880 H   0  0  0  0  0  0  0  0  0  0  0  0
   39.6230   24.6100   35.0010 H   0  0  0  0  0  0  0  0  0  0  0  0
   38.3490   23.4120   34.8650 H   0  0  0  0  0  0  0  0  0  0  0  0
   38.2320   24.6840   36.9150 H   0  0  0  0  0  0  0  0  0  0  0  0
   36.7770   25.1880   35.9820 H   0  0  0  0  0  0  0  0  0  0  0  0
   39.2530   26.7260   36.6930 H   0  0  0  0  0  0  0  0  0  0  0  0
   37.5530   27.2340   36.5940 H   0  0  0  0  0  0  0  0  0  0  0  0
   38.1410   28.3310   34.7140 H   0  0  0  0  0  0  0  0  0  0  0  0
   39.5770   27.3290   34.4080 H   0  0  0  0  0  0  0  0  0  0  0  0
   36.7420   26.4830   34.2200 H   0  0  0  0  0  0  0  0  0  0  0  0
   38.3640   27.7100   31.5700 C   0  0  0  0  0  0  0  0  0  0  0  0
   39.6140   27.5200   31.4650 O   0  0  0  0  0  0  0  0  0  0  0  0
   37.4060   27.2270   32.5010 N   0  0  0  0  0  0  0  0  0  0  0  0
   36.3960   27.4430   32.2140 H   0  0  0  0  0  0  0  0  0  0  0  0
   37.9220   28.5790   30.5220 N   0  0  0  0  0  0  0  0  0  0  0  0
   36.7170   29.3400   30.3030 C   0  0  0  0  0  2  0  0  0  0  0  0
   37.1120   30.7510   29.9440 C   0  0  0  0  0  2  0  0  0  0  0  0
   38.4330   30.5160   29.2480 C   0  0  0  0  0  2  0  0  0  0  0  0
   38.5170   29.0250   29.2830 C   0  0  0  0  0  3  0  0  0  0  0  0
   39.5560   28.6400   29.2660 H   0  0  0  0  0  0  0  0  0  0  0  0
   37.3280   24.3600   32.6650 C   0  0  0  0  0  0  0  0  0  0  0  0
   37.6630   23.0120   32.5070 C   0  0  0  0  0  0  0  0  0  0  0  0
   36.8170   22.2320   31.7120 C   0  0  0  0  0  0  0  0  0  0  0  0
   35.7160   22.8330   31.1390 N   0  0  0  0  0  0  0  0  0  0  0  0
   35.4300   24.1580   31.3240 C   0  0  0  0  0  0  0  0  0  0  0  0
   36.2470   24.9020   32.0880 N   0  0  0  0  0  0  0  0  0  0  0  0
   38.4640   22.4100   32.8890 H   0  0  0  0  0  0  0  0  0  0  0  0
   36.9370   21.1890   31.4960 H   0  0  0  0  0  0  0  0  0  0  0  0
   34.5500   24.4920   30.8250 H   0  0  0  0  0  0  0  0  0  0  0  0
  1  7  1  6  0  0  0
  1  6  1  0  0  0  0
  1  2  1  0  0  0  0
  2  9  1  0  0  0  0
  2  8  1  0  0  0  0
  2  3  1  0  0  0  0
  3  4  1  0  0  0  0
  3 10  1  0  0  0  0
  4 13  1  0  0  0  0
  4 12  1  0  0  0  0
  5  4  1  0  0  0  0
  6 16  1  1  0  0  0
  6  5  1  0  0  0  0
 11  3  1  0  0  0  0
 14  5  1  0  0  0  0
 15  5  1  0  0  0  0
 17 19  1  0  0  0  0
 18 17  2  0  0  0  0
 19  6  1  0  0  0  0
 20 19  1  0  0  0  0
 21 17  1  0  0  0  0
 22 21  1  0  0  0  0
 23 22  1  0  0  0  0
 24 25  1  0  0  0  0
 24 23  1  0  0  0  0
 25 21  1  0  0  0  0
 26 25  1  0  0  0  0
 27  1  1  0  0  0  0
 28 27  1  0  0  0  0
 28 33  1  0  0  0  0
 29 28  2  0  0  0  0
 30 31  2  0  0  0  0
 30 29  1  0  0  0  0
 31 32  1  0  0  0  0
 32 27  2  0  0  0  0
 34 29  1  0  0  0  0
 35 31  1  0  0  0  0
M  END
>  <minimizedAffinity>
-4.78218746

$$$$

 OpenBabel03272509323D

 35 37  0  0  1  0  0  0  0  0999 V2000
   39.0980   25.7640   31.9900 C   0  0  2  0  0  0  0  0  0  0  0  0
   38.8740   26.8810   31.0220 C   0  0  0  0  0  0  0  0  0  0  0  0
   37.7920   27.8430   31.4650 C   0  0  0  0  0  0  0  0  0  0  0  0
   36.4820   27.1080   31.7240 C   0  0  0  0  0  0  0  0  0  0  0  0
   36.6570   25.7330   32.3180 C   0  0  0  0  0  0  0  0  0  0  0  0
   38.0240   25.6940   33.0270 C   0  0  1  0  0  0  0  0  0  0  0  0
   39.1310   24.7400   31.5010 H   0  0  0  0  0  0  0  0  0  0  0  0
   38.4210   26.3740   30.1030 H   0  0  0  0  0  0  0  0  0  0  0  0
   39.7400   27.3930   30.6490 H   0  0  0  0  0  0  0  0  0  0  0  0
   37.6120   28.5360   30.6250 H   0  0  0  0  0  0  0  0  0  0  0  0
   38.0380   28.4020   32.3690 H   0  0  0  0  0  0  0  0  0  0  0  0
   35.8660   27.0590   30.7950 H   0  0  0  0  0  0  0  0  0  0  0  0
   35.8830   27.6880   32.4570 H   0  0  0  0  0  0  0  0  0  0  0  0
   35.9050   25.5320   33.1190 H   0  0  0  0  0  0  0  0  0  0  0  0
   36.5670   24.9200   31.5860 H   0  0  0  0  0  0  0  0  0  0  0  0
   37.9720   26.5910   33.5920 H   0  0  0  0  0  0  0  0  0  0  0  0
   38.1880   24.7800   35.3890 C   0  0  0  0  0  0  0  0  0  0  0  0
   37.9230   25.7570   36.1530 O   0  0  0  0  0  0  0  0  0  0  0  0
   38.1740   24.6510   33.9740 N   0  0  0  0  0  0  0  0  0  0  0  0
   38.2900   23.6380   33.6440 H   0  0  0  0  0  0  0  0  0  0  0  0
   38.5580   23.6430   36.1760 N   0  0  0  0  0  0  0  0  0  0  0  0
   39.2050   22.3910   35.8710 C   0  0  0  0  0  2  0  0  0  0  0  0
   40.3230   22.1860   36.8640 C   0  0  0  0  0  2  0  0  0  0  0  0
   39.7680   22.8970   38.0780 C   0  0  0  0  0  2  0  0  0  0  0  0
   38.4250   23.3180   37.5780 C   0  0  0  0  0  3  0  0  0  0  0  0
   38.0270   24.2200   38.0830 H   0  0  0  0  0  0  0  0  0  0  0  0
   40.4100   25.8980   32.6730 C   0  0  0  0  0  0  0  0  0  0  0  0
   40.9190   27.1970   32.7590 C   0  0  0  0  0  0  0  0  0  0  0  0
   42.1520   27.3600   33.4000 C   0  0  0  0  0  0  0  0  0  0  0  0
   42.7830   26.2430   33.9020 N   0  0  0  0  0  0  0  0  0  0  0  0
   42.2430   24.9900   33.7930 C   0  0  0  0  0  0  0  0  0  0  0  0
   41.0600   24.8400   33.1760 N   0  0  0  0  0  0  0  0  0  0  0  0
   40.5480   28.1490   32.4330 H   0  0  0  0  0  0  0  0  0  0  0  0
   42.6700   28.2870   33.5450 H   0  0  0  0  0  0  0  0  0  0  0  0
   42.8360   24.2160   34.2250 H   0  0  0  0  0  0  0  0  0  0  0  0
  1  7  1  6  0  0  0
  1 27  1  0  0  0  0
  1  6  1  0  0  0  0
  2  3  1  0  0  0  0
  2  1  1  0  0  0  0
  3  4  1  0  0  0  0
  3 11  1  0  0  0  0
  4  5  1  0  0  0  0
  4 13  1  0  0  0  0
  5  6  1  0  0  0  0
  5 14  1  0  0  0  0
  6 16  1  1  0  0  0
  6 19  1  0  0  0  0
  8  2  1  0  0  0  0
  9  2  1  0  0  0  0
 10  3  1  0  0  0  0
 12  4  1  0  0  0  0
 15  5  1  0  0  0  0
 17 18  2  0  0  0  0
 17 21  1  0  0  0  0
 19 17  1  0  0  0  0
 20 19  1  0  0  0  0
 21 25  1  0  0  0  0
 22 21  1  0  0  0  0
 22 23  1  0  0  0  0
 23 24  1  0  0  0  0
 25 24  1  0  0  0  0
 25 26  1  0  0  0  0
 27 28  2  0  0  0  0
 27 32  1  0  0  0  0
 28 29  1  0  0  0  0
 29 34  1  0  0  0  0
 29 30  2  0  0  0  0
 31 30  1  0  0  0  0
 31 35  1  0  0  0  0
 32 31  2  0  0  0  0
 33 28  1  0  0  0  0
M  END
>  <minimizedAffinity>
-4.60003757

$$$$
