
 OpenBabel03262522143D

 42 45  0  0  1  0  0  0  0  0999 V2000
   40.5930   33.1750   45.2380 S   0  0  0  0  0  0  0  0  0  0  0  0
   37.7880   31.7970   47.6770 C   0  0  0  0  0  0  0  0  0  0  0  0
   37.9500   32.5380   48.8480 C   0  0  0  0  0  0  0  0  0  0  0  0
   38.9370   33.5040   48.9500 C   0  0  0  0  0  0  0  0  0  0  0  0
   39.7330   33.6790   47.8290 C   0  0  0  0  0  0  0  0  0  0  0  0
   39.5460   32.9410   46.7040 C   0  0  0  0  0  0  0  0  0  0  0  0
   38.5870   31.9980   46.5990 N   0  0  0  0  0  0  0  0  0  0  0  0
   37.3110   32.3740   49.7040 H   0  0  0  0  0  0  0  0  0  0  0  0
   39.0990   34.0960   49.8300 H   0  0  0  0  0  0  0  0  0  0  0  0
   40.5340   34.4110   47.8080 H   0  0  0  0  0  0  0  0  0  0  0  0
   36.7350   30.8110   47.6570 C   0  0  0  0  0  0  0  0  0  0  0  0
   36.2680   30.3980   46.5980 O   0  0  0  0  0  0  0  0  0  0  0  0
   37.0530   29.6420   49.8080 C   0  0  0  0  0  0  0  0  0  0  0  0
   36.1640   30.2470   48.8940 C   0  0  0  0  0  0  0  0  0  0  0  0
   34.7890   30.2950   49.1760 C   0  0  0  0  0  0  0  0  0  0  0  0
   34.3500   29.7450   50.3500 N   0  0  0  0  0  0  0  0  0  0  0  0
   35.2270   29.1670   51.2170 C   0  0  0  0  0  0  0  0  0  0  0  0
   36.5240   29.1230   50.9480 N   0  0  0  0  0  0  0  0  0  0  0  0
   38.1090   29.5820   49.6360 H   0  0  0  0  0  0  0  0  0  0  0  0
   34.1540   30.7590   48.4620 H   0  0  0  0  0  0  0  0  0  0  0  0
   34.7340   28.7780   52.0960 H   0  0  0  0  0  0  0  0  0  0  0  0
   39.5300   32.8540   43.8100 C   0  0  0  0  0  0  0  0  0  0  0  0
   39.6010   33.7150   43.1040 H   0  0  0  0  0  0  0  0  0  0  0  0
   38.4670   32.6820   44.0720 H   0  0  0  0  0  0  0  0  0  0  0  0
   39.0200   29.6070   42.4830 C   0  0  1  0  0  0  0  0  0  0  0  0
   39.0430   31.0900   42.1250 C   0  0  0  0  0  0  0  0  0  0  0  0
   40.0410   31.6010   43.1250 C   0  0  2  0  0  0  0  0  0  0  0  0
   40.3200   30.5980   44.0160 O   0  0  0  0  0  0  0  0  0  0  0  0
   39.2830   29.6650   43.9620 C   0  0  0  0  0  0  0  0  0  0  0  0
   39.7920   29.0440   41.9540 H   0  0  0  0  0  0  0  0  0  0  0  0
   39.3190   31.2850   41.0810 H   0  0  0  0  0  0  0  0  0  0  0  0
   38.0460   31.4990   42.4180 H   0  0  0  0  0  0  0  0  0  0  0  0
   40.9840   31.8880   42.5850 H   0  0  0  0  0  0  0  0  0  0  0  0
   38.3930   29.9610   44.5220 H   0  0  0  0  0  0  0  0  0  0  0  0
   39.7400   28.7140   44.3510 H   0  0  0  0  0  0  0  0  0  0  0  0
   37.7680   29.0550   42.1970 O   0  0  0  0  0  0  0  0  0  0  0  0
   36.4410   28.5880   39.6690 H   0  0  0  0  0  0  0  0  0  0  0  0
   37.4710   28.6480   39.8770 N   0  0  0  0  0  0  0  0  0  0  0  0
   38.1320   27.6750   38.9940 C   0  0  0  0  0  2  0  0  0  0  0  0
   39.5200   27.7040   39.6510 C   0  0  0  0  0  2  0  0  0  0  0  0
   39.0810   27.3730   41.0800 C   0  0  0  0  0  2  0  0  0  0  0  0
   37.7860   28.1400   41.1800 C   0  0  1  0  0  3  0  0  0  0  0  0
  1  6  1  0  0  0  0
  2  3  1  0  0  0  0
  3  4  2  0  0  0  0
  3  8  1  0  0  0  0
  4  9  1  0  0  0  0
  5  4  1  0  0  0  0
  6  5  2  0  0  0  0
  7  6  1  0  0  0  0
  7  2  2  0  0  0  0
 10  5  1  0  0  0  0
 11  2  1  0  0  0  0
 11 14  1  0  0  0  0
 12 11  2  0  0  0  0
 13 18  1  0  0  0  0
 14 15  1  0  0  0  0
 14 13  2  0  0  0  0
 15 16  2  0  0  0  0
 16 17  1  0  0  0  0
 17 21  1  0  0  0  0
 18 17  2  0  0  0  0
 19 13  1  0  0  0  0
 20 15  1  0  0  0  0
 22 24  1  0  0  0  0
 22  1  1  0  0  0  0
 23 22  1  0  0  0  0
 25 30  1  6  0  0  0
 25 29  1  0  0  0  0
 26 32  1  0  0  0  0
 26 25  1  0  0  0  0
 26 27  1  0  0  0  0
 27 33  1  6  0  0  0
 27 22  1  0  0  0  0
 27 28  1  0  0  0  0
 29 28  1  0  0  0  0
 29 35  1  0  0  0  0
 29 34  1  0  0  0  0
 31 26  1  0  0  0  0
 36 25  1  0  0  0  0
 37 38  1  0  0  0  0
 38 42  1  0  0  0  0
 39 40  1  0  0  0  0
 39 38  1  0  0  0  0
 40 41  1  0  0  0  0
 41 42  1  0  0  0  0
 42 36  1  1  0  0  0
M  END
>  <minimizedAffinity>
-5.12451601

>  <minimizedRMSD>
0.265551388

$$$$
