
 OpenBabel03262520113D

 33 35  0  0  1  0  0  0  0  0999 V2000
   38.1210   23.3300   33.3560 Br  0  0  0  0  0  0  0  0  0  0  0  0
   37.9600   25.0820   34.1240 C   0  0  0  0  0  0  0  0  0  0  0  0
   38.5590   25.3630   35.3330 C   0  0  0  0  0  0  0  0  0  0  0  0
   38.4090   26.6280   35.8330 C   0  0  0  0  0  0  0  0  0  0  0  0
   37.6880   27.6180   35.1770 C   0  0  0  0  0  0  0  0  0  0  0  0
   37.1080   27.2840   33.9670 C   0  0  0  0  0  0  0  0  0  0  0  0
   37.2490   26.0120   33.4480 C   0  0  0  0  0  0  0  0  0  0  0  0
   38.8940   26.8160   36.7880 H   0  0  0  0  0  0  0  0  0  0  0  0
   37.6390   28.5800   35.6690 H   0  0  0  0  0  0  0  0  0  0  0  0
   36.5790   28.1360   33.5660 H   0  0  0  0  0  0  0  0  0  0  0  0
   39.4480   22.8540   37.8330 C   0  0  0  0  0  0  0  0  0  0  0  0
   40.7450   22.4370   37.4580 C   0  0  0  0  0  0  0  0  0  0  0  0
   41.2980   23.0340   36.3370 C   0  0  0  0  0  0  0  0  0  0  0  0
   40.5860   23.9860   35.6460 N   0  0  0  0  0  0  0  0  0  0  0  0
   39.3280   24.3490   36.0620 C   0  0  0  0  0  0  0  0  0  0  0  0
   38.7890   23.7750   37.1460 N   0  0  0  0  0  0  0  0  0  0  0  0
   39.0590   22.3610   38.7120 H   0  0  0  0  0  0  0  0  0  0  0  0
   41.3370   21.6910   37.9760 H   0  0  0  0  0  0  0  0  0  0  0  0
   42.2790   22.8200   35.9280 H   0  0  0  0  0  0  0  0  0  0  0  0
   36.5780   25.7970   32.1480 C   0  0  0  0  0  0  0  0  0  0  0  0
   35.7900   25.0200   32.3560 H   0  0  0  0  0  0  0  0  0  0  0  0
   37.2550   25.3640   31.4000 H   0  0  0  0  0  0  0  0  0  0  0  0
   35.8770   26.9800   31.6020 C   0  0  0  0  0  0  0  0  0  0  0  0
   34.7710   26.7210   31.6330 H   0  0  0  0  0  0  0  0  0  0  0  0
   35.9570   27.9040   32.1530 H   0  0  0  0  0  0  0  0  0  0  0  0
   36.2060   27.1900   30.2130 N   0  0  0  0  0  0  0  0  0  0  0  0
   36.2900   26.3420   29.6470 H   0  0  0  0  0  0  0  0  0  0  0  0
   37.9170   27.7160   28.0600 H   0  0  0  0  0  0  0  0  0  0  0  0
   37.4390   28.4730   28.5650 N   0  0  0  0  0  0  0  0  0  0  0  0
   38.2900   29.6640   28.7070 C   0  0  0  0  0  2  0  0  0  0  0  0
   37.5720   30.4940   29.7580 C   0  0  0  0  0  2  0  0  0  0  0  0
   36.5310   29.5410   30.3590 C   0  0  0  0  0  2  0  0  0  0  0  0
   37.1510   28.2080   29.9420 C   0  0  1  0  0  3  0  0  0  0  0  0
  1  2  1  0  0  0  0
  2  3  1  0  0  0  0
  3  4  2  0  0  0  0
  3 15  1  0  0  0  0
  4  8  1  0  0  0  0
  5  9  1  0  0  0  0
  5  4  1  0  0  0  0
  6  5  2  0  0  0  0
  7  6  1  0  0  0  0
  7  2  2  0  0  0  0
 10  6  1  0  0  0  0
 11 17  1  0  0  0  0
 12 11  1  0  0  0  0
 12 18  1  0  0  0  0
 13 12  2  0  0  0  0
 14 15  2  0  0  0  0
 14 13  1  0  0  0  0
 15 16  1  0  0  0  0
 16 11  2  0  0  0  0
 19 13  1  0  0  0  0
 20 21  1  0  0  0  0
 20  7  1  0  0  0  0
 22 20  1  0  0  0  0
 23 24  1  0  0  0  0
 23 20  1  0  0  0  0
 23 25  1  0  0  0  0
 26 23  1  0  0  0  0
 27 26  1  0  0  0  0
 28 29  1  0  0  0  0
 29 30  1  0  0  0  0
 29 33  1  0  0  0  0
 30 31  1  0  0  0  0
 31 32  1  0  0  0  0
 33 26  1  6  0  0  0
 33 32  1  0  0  0  0
M  END
>  <minimizedAffinity>
-5.50398588

$$$$

 OpenBabel03262520113D

 33 35  0  0  1  0  0  0  0  0999 V2000
   38.2760   25.0540   33.5820 Br  0  0  0  0  0  0  0  0  0  0  0  0
   37.4300   23.3580   33.2810 C   0  0  0  0  0  0  0  0  0  0  0  0
   37.5450   22.3540   34.2180 C   0  0  0  0  0  0  0  0  0  0  0  0
   36.9220   21.1650   33.9490 C   0  0  0  0  0  0  0  0  0  0  0  0
   36.1930   20.9410   32.7880 C   0  0  0  0  0  0  0  0  0  0  0  0
   36.1090   21.9810   31.8810 C   0  0  0  0  0  0  0  0  0  0  0  0
   36.7310   23.1880   32.1360 C   0  0  0  0  0  0  0  0  0  0  0  0
   37.0330   20.3960   34.7090 H   0  0  0  0  0  0  0  0  0  0  0  0
   35.7460   19.9620   32.6860 H   0  0  0  0  0  0  0  0  0  0  0  0
   35.5210   21.6780   31.0280 H   0  0  0  0  0  0  0  0  0  0  0  0
   40.3060   22.2980   36.6080 C   0  0  0  0  0  0  0  0  0  0  0  0
   39.7670   22.8900   37.7720 C   0  0  0  0  0  0  0  0  0  0  0  0
   38.4460   23.3030   37.7140 C   0  0  0  0  0  0  0  0  0  0  0  0
   37.7240   23.1290   36.5580 N   0  0  0  0  0  0  0  0  0  0  0  0
   38.3050   22.5460   35.4580 C   0  0  0  0  0  0  0  0  0  0  0  0
   39.5820   22.1430   35.5090 N   0  0  0  0  0  0  0  0  0  0  0  0
   41.3380   21.9920   36.7000 H   0  0  0  0  0  0  0  0  0  0  0  0
   40.3040   23.0440   38.7010 H   0  0  0  0  0  0  0  0  0  0  0  0
   37.8970   23.7720   38.5230 H   0  0  0  0  0  0  0  0  0  0  0  0
   36.5550   24.2090   31.0820 C   0  0  0  0  0  0  0  0  0  0  0  0
   36.8280   23.6830   30.1240 H   0  0  0  0  0  0  0  0  0  0  0  0
   37.2600   25.0440   31.1920 H   0  0  0  0  0  0  0  0  0  0  0  0
   35.1720   24.7060   30.9160 C   0  0  0  0  0  0  0  0  0  0  0  0
   34.6900   24.0190   30.1500 H   0  0  0  0  0  0  0  0  0  0  0  0
   34.5200   24.6590   31.7740 H   0  0  0  0  0  0  0  0  0  0  0  0
   35.1550   26.0300   30.3410 N   0  0  0  0  0  0  0  0  0  0  0  0
   34.8770   26.0790   29.3590 H   0  0  0  0  0  0  0  0  0  0  0  0
   37.0410   27.5370   28.9230 H   0  0  0  0  0  0  0  0  0  0  0  0
   36.6060   27.8910   29.7840 N   0  0  0  0  0  0  0  0  0  0  0  0
   37.5560   28.6550   30.6060 C   0  0  0  0  0  2  0  0  0  0  0  0
   36.8560   28.7700   31.9500 C   0  0  0  0  0  2  0  0  0  0  0  0
   35.6920   27.7730   31.8660 C   0  0  0  0  0  2  0  0  0  0  0  0
   36.2080   26.8920   30.7290 C   0  0  1  0  0  3  0  0  0  0  0  0
  2  1  1  0  0  0  0
  2  3  1  0  0  0  0
  3 15  1  0  0  0  0
  4  3  2  0  0  0  0
  4  8  1  0  0  0  0
  5  4  1  0  0  0  0
  6  7  1  0  0  0  0
  6  5  2  0  0  0  0
  7  2  2  0  0  0  0
  9  5  1  0  0  0  0
 10  6  1  0  0  0  0
 11 17  1  0  0  0  0
 11 12  1  0  0  0  0
 12 18  1  0  0  0  0
 13 12  2  0  0  0  0
 13 19  1  0  0  0  0
 14 13  1  0  0  0  0
 15 16  1  0  0  0  0
 15 14  2  0  0  0  0
 16 11  2  0  0  0  0
 20 22  1  0  0  0  0
 20  7  1  0  0  0  0
 21 20  1  0  0  0  0
 23 20  1  0  0  0  0
 23 25  1  0  0  0  0
 24 23  1  0  0  0  0
 26 23  1  0  0  0  0
 27 26  1  0  0  0  0
 28 29  1  0  0  0  0
 29 30  1  0  0  0  0
 29 33  1  0  0  0  0
 30 31  1  0  0  0  0
 32 31  1  0  0  0  0
 33 26  1  6  0  0  0
 33 32  1  0  0  0  0
M  END
>  <minimizedAffinity>
-5.28104258

$$$$

 OpenBabel03262520113D

 33 35  0  0  1  0  0  0  0  0999 V2000
   38.6580   26.5290   32.8860 Br  0  0  0  0  0  0  0  0  0  0  0  0
   37.2490   25.4530   32.1510 C   0  0  0  0  0  0  0  0  0  0  0  0
   36.1970   26.0510   31.4900 C   0  0  0  0  0  0  0  0  0  0  0  0
   35.2200   25.2330   30.9890 C   0  0  0  0  0  0  0  0  0  0  0  0
   35.2520   23.8510   31.1200 C   0  0  0  0  0  0  0  0  0  0  0  0
   36.3290   23.3020   31.7920 C   0  0  0  0  0  0  0  0  0  0  0  0
   37.3240   24.1120   32.3050 C   0  0  0  0  0  0  0  0  0  0  0  0
   34.4070   25.7370   30.4730 H   0  0  0  0  0  0  0  0  0  0  0  0
   34.4240   23.3100   30.6830 H   0  0  0  0  0  0  0  0  0  0  0  0
   36.2310   22.2270   31.8260 H   0  0  0  0  0  0  0  0  0  0  0  0
   35.3650   29.5480   32.1320 C   0  0  0  0  0  0  0  0  0  0  0  0
   35.9590   30.2470   31.0570 C   0  0  0  0  0  0  0  0  0  0  0  0
   36.6440   29.4930   30.1180 C   0  0  0  0  0  0  0  0  0  0  0  0
   36.7210   28.1280   30.2600 N   0  0  0  0  0  0  0  0  0  0  0  0
   36.1220   27.5060   31.3280 C   0  0  0  0  0  0  0  0  0  0  0  0
   35.4580   28.2310   32.2390 N   0  0  0  0  0  0  0  0  0  0  0  0
   34.8430   30.1770   32.8380 H   0  0  0  0  0  0  0  0  0  0  0  0
   35.9200   31.3210   30.9110 H   0  0  0  0  0  0  0  0  0  0  0  0
   37.1490   29.8850   29.2420 H   0  0  0  0  0  0  0  0  0  0  0  0
   38.4140   23.3890   32.9950 C   0  0  0  0  0  0  0  0  0  0  0  0
   39.0630   24.1980   33.4320 H   0  0  0  0  0  0  0  0  0  0  0  0
   39.0450   22.8260   32.2950 H   0  0  0  0  0  0  0  0  0  0  0  0
   37.9830   22.5330   34.1220 C   0  0  0  0  0  0  0  0  0  0  0  0
   37.0330   23.0120   34.5230 H   0  0  0  0  0  0  0  0  0  0  0  0
   37.7030   21.5170   33.8950 H   0  0  0  0  0  0  0  0  0  0  0  0
   38.9400   22.5640   35.2010 N   0  0  0  0  0  0  0  0  0  0  0  0
   39.6530   21.8310   35.1780 H   0  0  0  0  0  0  0  0  0  0  0  0
   39.5320   21.6950   37.7960 H   0  0  0  0  0  0  0  0  0  0  0  0
   39.3000   22.6760   37.5970 N   0  0  0  0  0  0  0  0  0  0  0  0
   38.4930   23.2790   38.6680 C   0  0  0  0  0  2  0  0  0  0  0  0
   37.9610   24.5570   38.0400 C   0  0  0  0  0  2  0  0  0  0  0  0
   38.2600   24.4060   36.5420 C   0  0  0  0  0  2  0  0  0  0  0  0
   38.4290   22.8880   36.4800 C   0  0  1  0  0  3  0  0  0  0  0  0
  2  7  1  0  0  0  0
  2  1  1  0  0  0  0
  3  2  2  0  0  0  0
  4  5  2  0  0  0  0
  4  3  1  0  0  0  0
  5  6  1  0  0  0  0
  6 10  1  0  0  0  0
  6  7  2  0  0  0  0
  7 20  1  0  0  0  0
  8  4  1  0  0  0  0
  9  5  1  0  0  0  0
 11 16  1  0  0  0  0
 11 17  1  0  0  0  0
 12 11  2  0  0  0  0
 13 14  2  0  0  0  0
 13 12  1  0  0  0  0
 14 15  1  0  0  0  0
 15  3  1  0  0  0  0
 15 16  2  0  0  0  0
 18 12  1  0  0  0  0
 19 13  1  0  0  0  0
 20 21  1  0  0  0  0
 20 23  1  0  0  0  0
 22 20  1  0  0  0  0
 23 24  1  0  0  0  0
 23 26  1  0  0  0  0
 25 23  1  0  0  0  0
 27 26  1  0  0  0  0
 29 28  1  0  0  0  0
 29 30  1  0  0  0  0
 31 30  1  0  0  0  0
 32 31  1  0  0  0  0
 33 26  1  6  0  0  0
 33 32  1  0  0  0  0
 33 29  1  0  0  0  0
M  END
>  <minimizedAffinity>
-5.20953941

$$$$

 OpenBabel03262520113D

 33 35  0  0  1  0  0  0  0  0999 V2000
   38.5760   27.0570   35.4890 Br  0  0  0  0  0  0  0  0  0  0  0  0
   38.1040   25.7720   34.1450 C   0  0  0  0  0  0  0  0  0  0  0  0
   38.1280   24.4250   34.4390 C   0  0  0  0  0  0  0  0  0  0  0  0
   37.7840   23.5540   33.4410 C   0  0  0  0  0  0  0  0  0  0  0  0
   37.4180   23.9730   32.1670 C   0  0  0  0  0  0  0  0  0  0  0  0
   37.4100   25.3340   31.9250 C   0  0  0  0  0  0  0  0  0  0  0  0
   37.7550   26.2270   32.9210 C   0  0  0  0  0  0  0  0  0  0  0  0
   37.8130   22.5010   33.7070 H   0  0  0  0  0  0  0  0  0  0  0  0
   37.1660   23.1930   31.4620 H   0  0  0  0  0  0  0  0  0  0  0  0
   37.1120   25.5230   30.9050 H   0  0  0  0  0  0  0  0  0  0  0  0
   37.9210   23.5820   37.9860 C   0  0  0  0  0  0  0  0  0  0  0  0
   39.1870   23.0320   38.2860 C   0  0  0  0  0  0  0  0  0  0  0  0
   40.1030   22.9610   37.2480 C   0  0  0  0  0  0  0  0  0  0  0  0
   39.7580   23.4140   35.9970 N   0  0  0  0  0  0  0  0  0  0  0  0
   38.5090   23.9380   35.7690 C   0  0  0  0  0  0  0  0  0  0  0  0
   37.6190   24.0100   36.7690 N   0  0  0  0  0  0  0  0  0  0  0  0
   37.2410   23.6160   38.8250 H   0  0  0  0  0  0  0  0  0  0  0  0
   39.4970   22.6650   39.2570 H   0  0  0  0  0  0  0  0  0  0  0  0
   41.1110   22.5670   37.3230 H   0  0  0  0  0  0  0  0  0  0  0  0
   37.6990   27.6490   32.5210 C   0  0  0  0  0  0  0  0  0  0  0  0
   38.1110   27.6700   31.4740 H   0  0  0  0  0  0  0  0  0  0  0  0
   38.3640   28.2770   33.1310 H   0  0  0  0  0  0  0  0  0  0  0  0
   36.3400   28.2290   32.4570 C   0  0  0  0  0  0  0  0  0  0  0  0
   35.6360   27.3910   32.7610 H   0  0  0  0  0  0  0  0  0  0  0  0
   36.1120   29.0380   33.1330 H   0  0  0  0  0  0  0  0  0  0  0  0
   35.9850   28.5870   31.1050 N   0  0  0  0  0  0  0  0  0  0  0  0
   35.1790   28.0940   30.7160 H   0  0  0  0  0  0  0  0  0  0  0  0
   37.0560   27.1230   28.9720 H   0  0  0  0  0  0  0  0  0  0  0  0
   36.9940   28.1480   28.9430 N   0  0  0  0  0  0  0  0  0  0  0  0
   38.1590   28.7530   28.2800 C   0  0  0  0  0  2  0  0  0  0  0  0
   38.0630   30.2220   28.6550 C   0  0  0  0  0  2  0  0  0  0  0  0
   37.0150   30.2680   29.7750 C   0  0  0  0  0  2  0  0  0  0  0  0
   37.0630   28.8050   30.2140 C   0  0  1  0  0  3  0  0  0  0  0  0
  2  3  1  0  0  0  0
  2  1  1  0  0  0  0
  3 15  1  0  0  0  0
  4  8  1  0  0  0  0
  4  3  2  0  0  0  0
  5  4  1  0  0  0  0
  6  5  2  0  0  0  0
  6  7  1  0  0  0  0
  7  2  2  0  0  0  0
  9  5  1  0  0  0  0
 10  6  1  0  0  0  0
 11 12  1  0  0  0  0
 11 17  1  0  0  0  0
 12 18  1  0  0  0  0
 13 19  1  0  0  0  0
 13 12  2  0  0  0  0
 14 13  1  0  0  0  0
 15 14  2  0  0  0  0
 15 16  1  0  0  0  0
 16 11  2  0  0  0  0
 20  7  1  0  0  0  0
 20 22  1  0  0  0  0
 21 20  1  0  0  0  0
 23 20  1  0  0  0  0
 23 24  1  0  0  0  0
 23 25  1  0  0  0  0
 26 23  1  0  0  0  0
 27 26  1  0  0  0  0
 29 28  1  0  0  0  0
 29 33  1  0  0  0  0
 30 31  1  0  0  0  0
 30 29  1  0  0  0  0
 31 32  1  0  0  0  0
 32 33  1  0  0  0  0
 33 26  1  1  0  0  0
M  END
>  <minimizedAffinity>
-5.13829136

$$$$

 OpenBabel03262520113D

 33 35  0  0  1  0  0  0  0  0999 V2000
   37.9340   22.4540   34.7320 Br  0  0  0  0  0  0  0  0  0  0  0  0
   38.1380   24.3300   35.0830 C   0  0  0  0  0  0  0  0  0  0  0  0
   38.3360   25.2100   34.0410 C   0  0  0  0  0  0  0  0  0  0  0  0
   38.4760   26.5360   34.3510 C   0  0  0  0  0  0  0  0  0  0  0  0
   38.4270   27.0140   35.6550 C   0  0  0  0  0  0  0  0  0  0  0  0
   38.2270   26.0900   36.6630 C   0  0  0  0  0  0  0  0  0  0  0  0
   38.0830   24.7480   36.3680 C   0  0  0  0  0  0  0  0  0  0  0  0
   38.6300   27.2010   33.5060 H   0  0  0  0  0  0  0  0  0  0  0  0
   38.5510   28.0810   35.7770 H   0  0  0  0  0  0  0  0  0  0  0  0
   38.2120   26.5880   37.6200 H   0  0  0  0  0  0  0  0  0  0  0  0
   37.2660   24.2380   30.6870 C   0  0  0  0  0  0  0  0  0  0  0  0
   38.4650   23.8850   30.0300 C   0  0  0  0  0  0  0  0  0  0  0  0
   39.6370   23.9890   30.7620 C   0  0  0  0  0  0  0  0  0  0  0  0
   39.5940   24.4200   32.0670 N   0  0  0  0  0  0  0  0  0  0  0  0
   38.3950   24.7490   32.6500 C   0  0  0  0  0  0  0  0  0  0  0  0
   37.2580   24.6500   31.9470 N   0  0  0  0  0  0  0  0  0  0  0  0
   36.3790   24.1430   30.0770 H   0  0  0  0  0  0  0  0  0  0  0  0
   38.5400   23.5420   29.0050 H   0  0  0  0  0  0  0  0  0  0  0  0
   40.6310   23.7540   30.3970 H   0  0  0  0  0  0  0  0  0  0  0  0
   37.8720   23.8760   37.5430 C   0  0  0  0  0  0  0  0  0  0  0  0
   37.4660   22.9160   37.1190 H   0  0  0  0  0  0  0  0  0  0  0  0
   37.1010   24.2710   38.2180 H   0  0  0  0  0  0  0  0  0  0  0  0
   39.0990   23.5260   38.2920 C   0  0  0  0  0  0  0  0  0  0  0  0
   39.8800   24.2870   37.9710 H   0  0  0  0  0  0  0  0  0  0  0  0
   39.0650   23.6050   39.3670 H   0  0  0  0  0  0  0  0  0  0  0  0
   39.6050   22.2340   37.8970 N   0  0  0  0  0  0  0  0  0  0  0  0
   39.1950   21.4330   38.3840 H   0  0  0  0  0  0  0  0  0  0  0  0
   41.4350   20.1180   37.7810 H   0  0  0  0  0  0  0  0  0  0  0  0
   41.4930   20.9150   37.1360 N   0  0  0  0  0  0  0  0  0  0  0  0
   42.8850   21.2950   36.8530 C   0  0  0  0  0  2  0  0  0  0  0  0
   42.7590   22.6650   36.2070 C   0  0  0  0  0  2  0  0  0  0  0  0
   41.3070   23.0860   36.4720 C   0  0  0  0  0  2  0  0  0  0  0  0
   40.9950   22.1570   37.6460 C   0  0  1  0  0  3  0  0  0  0  0  0
  1  2  1  0  0  0  0
  2  7  1  0  0  0  0
  3  4  1  0  0  0  0
  3  2  2  0  0  0  0
  4  5  2  0  0  0  0
  5  9  1  0  0  0  0
  5  6  1  0  0  0  0
  6 10  1  0  0  0  0
  7  6  2  0  0  0  0
  7 20  1  0  0  0  0
  8  4  1  0  0  0  0
 11 16  1  0  0  0  0
 12 11  2  0  0  0  0
 12 13  1  0  0  0  0
 13 14  2  0  0  0  0
 14 15  1  0  0  0  0
 15  3  1  0  0  0  0
 16 15  2  0  0  0  0
 17 11  1  0  0  0  0
 18 12  1  0  0  0  0
 19 13  1  0  0  0  0
 20 22  1  0  0  0  0
 20 23  1  0  0  0  0
 21 20  1  0  0  0  0
 23 25  1  0  0  0  0
 24 23  1  0  0  0  0
 26 23  1  0  0  0  0
 26 27  1  0  0  0  0
 29 33  1  0  0  0  0
 29 28  1  0  0  0  0
 30 29  1  0  0  0  0
 31 32  1  0  0  0  0
 31 30  1  0  0  0  0
 32 33  1  0  0  0  0
 33 26  1  6  0  0  0
M  END
>  <minimizedAffinity>
-5.12437487

$$$$

 OpenBabel03262520113D

 33 35  0  0  1  0  0  0  0  0999 V2000
   36.7620   25.1090   32.2490 Br  0  0  0  0  0  0  0  0  0  0  0  0
   37.4190   25.9180   33.8610 C   0  0  0  0  0  0  0  0  0  0  0  0
   37.3320   27.2830   34.0320 C   0  0  0  0  0  0  0  0  0  0  0  0
   37.8180   27.8050   35.2010 C   0  0  0  0  0  0  0  0  0  0  0  0
   38.3840   27.0210   36.1990 C   0  0  0  0  0  0  0  0  0  0  0  0
   38.4460   25.6580   35.9770 C   0  0  0  0  0  0  0  0  0  0  0  0
   37.9610   25.1140   34.8030 C   0  0  0  0  0  0  0  0  0  0  0  0
   37.7330   28.8830   35.3040 H   0  0  0  0  0  0  0  0  0  0  0  0
   38.7320   27.5460   37.0780 H   0  0  0  0  0  0  0  0  0  0  0  0
   38.9070   25.1690   36.8220 H   0  0  0  0  0  0  0  0  0  0  0  0
   34.9640   29.4710   32.3180 C   0  0  0  0  0  0  0  0  0  0  0  0
   35.6020   29.7810   31.0960 C   0  0  0  0  0  0  0  0  0  0  0  0
   36.8520   29.2240   30.8800 C   0  0  0  0  0  0  0  0  0  0  0  0
   37.4140   28.4110   31.8360 N   0  0  0  0  0  0  0  0  0  0  0  0
   36.7430   28.1480   33.0050 C   0  0  0  0  0  0  0  0  0  0  0  0
   35.5330   28.6840   33.2190 N   0  0  0  0  0  0  0  0  0  0  0  0
   33.9930   29.9290   32.4420 H   0  0  0  0  0  0  0  0  0  0  0  0
   35.1920   30.4170   30.3200 H   0  0  0  0  0  0  0  0  0  0  0  0
   37.4610   29.3690   29.9950 H   0  0  0  0  0  0  0  0  0  0  0  0
   38.0910   23.6450   34.7030 C   0  0  0  0  0  0  0  0  0  0  0  0
   39.1780   23.4680   34.4670 H   0  0  0  0  0  0  0  0  0  0  0  0
   37.5180   23.2360   33.8600 H   0  0  0  0  0  0  0  0  0  0  0  0
   37.7990   22.9040   35.9490 C   0  0  0  0  0  0  0  0  0  0  0  0
   37.9520   23.6500   36.7910 H   0  0  0  0  0  0  0  0  0  0  0  0
   36.7940   22.5380   36.0860 H   0  0  0  0  0  0  0  0  0  0  0  0
   38.7550   21.8440   36.1660 N   0  0  0  0  0  0  0  0  0  0  0  0
   38.3980   21.0250   36.6620 H   0  0  0  0  0  0  0  0  0  0  0  0
   40.2590   21.7420   38.5250 H   0  0  0  0  0  0  0  0  0  0  0  0
   40.6870   21.5730   37.6060 N   0  0  0  0  0  0  0  0  0  0  0  0
   42.0440   22.1350   37.5190 C   0  0  0  0  0  2  0  0  0  0  0  0
   42.3470   22.1110   36.0300 C   0  0  0  0  0  2  0  0  0  0  0  0
   40.9930   21.8280   35.3640 C   0  0  0  0  0  2  0  0  0  0  0  0
   40.0680   22.2480   36.5050 C   0  0  1  0  0  3  0  0  0  0  0  0
  1  2  1  0  0  0  0
  2  3  2  0  0  0  0
  2  7  1  0  0  0  0
  3  4  1  0  0  0  0
  4  8  1  0  0  0  0
  4  5  2  0  0  0  0
  5  9  1  0  0  0  0
  6  5  1  0  0  0  0
  6 10  1  0  0  0  0
  7  6  2  0  0  0  0
 11 17  1  0  0  0  0
 11 16  1  0  0  0  0
 12 11  2  0  0  0  0
 13 12  1  0  0  0  0
 13 14  2  0  0  0  0
 14 15  1  0  0  0  0
 15 16  2  0  0  0  0
 15  3  1  0  0  0  0
 18 12  1  0  0  0  0
 19 13  1  0  0  0  0
 20  7  1  0  0  0  0
 20 23  1  0  0  0  0
 21 20  1  0  0  0  0
 22 20  1  0  0  0  0
 23 25  1  0  0  0  0
 23 26  1  0  0  0  0
 23 24  1  0  0  0  0
 26 27  1  0  0  0  0
 29 28  1  0  0  0  0
 30 29  1  0  0  0  0
 31 30  1  0  0  0  0
 32 31  1  0  0  0  0
 32 33  1  0  0  0  0
 33 26  1  6  0  0  0
 33 29  1  0  0  0  0
M  END
>  <minimizedAffinity>
-5.03873634

$$$$

 OpenBabel03262520113D

 33 35  0  0  1  0  0  0  0  0999 V2000
   37.8980   24.0030   32.7130 Br  0  0  0  0  0  0  0  0  0  0  0  0
   38.1450   25.1650   34.2200 C   0  0  0  0  0  0  0  0  0  0  0  0
   38.4020   26.5050   34.0230 C   0  0  0  0  0  0  0  0  0  0  0  0
   38.5720   27.2850   35.1350 C   0  0  0  0  0  0  0  0  0  0  0  0
   38.4950   26.7830   36.4280 C   0  0  0  0  0  0  0  0  0  0  0  0
   38.2350   25.4330   36.5700 C   0  0  0  0  0  0  0  0  0  0  0  0
   38.0610   24.6300   35.4590 C   0  0  0  0  0  0  0  0  0  0  0  0
   38.7720   28.3360   34.9440 H   0  0  0  0  0  0  0  0  0  0  0  0
   38.6460   27.4950   37.2270 H   0  0  0  0  0  0  0  0  0  0  0  0
   38.2040   25.1720   37.6170 H   0  0  0  0  0  0  0  0  0  0  0  0
   39.8030   27.5930   30.8310 C   0  0  0  0  0  0  0  0  0  0  0  0
   38.7020   28.1490   30.1420 C   0  0  0  0  0  0  0  0  0  0  0  0
   37.4810   28.1400   30.7970 C   0  0  0  0  0  0  0  0  0  0  0  0
   37.3840   27.6050   32.0590 N   0  0  0  0  0  0  0  0  0  0  0  0
   38.4920   27.0780   32.6760 C   0  0  0  0  0  0  0  0  0  0  0  0
   39.6760   27.0850   32.0480 N   0  0  0  0  0  0  0  0  0  0  0  0
   40.7330   27.6210   30.2820 H   0  0  0  0  0  0  0  0  0  0  0  0
   38.7380   28.5790   29.1480 H   0  0  0  0  0  0  0  0  0  0  0  0
   36.5500   28.5290   30.3980 H   0  0  0  0  0  0  0  0  0  0  0  0
   37.7870   23.2090   35.7600 C   0  0  0  0  0  0  0  0  0  0  0  0
   37.1930   22.8380   34.8780 H   0  0  0  0  0  0  0  0  0  0  0  0
   37.1450   23.0890   36.6420 H   0  0  0  0  0  0  0  0  0  0  0  0
   38.9860   22.3470   35.8600 C   0  0  0  0  0  0  0  0  0  0  0  0
   38.6270   21.2960   35.6190 H   0  0  0  0  0  0  0  0  0  0  0  0
   39.7880   22.5290   35.1630 H   0  0  0  0  0  0  0  0  0  0  0  0
   39.4910   22.3050   37.2110 N   0  0  0  0  0  0  0  0  0  0  0  0
   39.0540   22.9590   37.8640 H   0  0  0  0  0  0  0  0  0  0  0  0
   41.1510   20.0640   37.4610 H   0  0  0  0  0  0  0  0  0  0  0  0
   41.4350   20.8860   36.9130 N   0  0  0  0  0  0  0  0  0  0  0  0
   42.8710   21.1730   37.0530 C   0  0  0  0  0  2  0  0  0  0  0  0
   43.0120   22.5790   36.4930 C   0  0  0  0  0  2  0  0  0  0  0  0
   41.5720   23.0950   36.3750 C   0  0  0  0  0  2  0  0  0  0  0  0
   40.8890   22.1360   37.3500 C   0  0  1  0  0  3  0  0  0  0  0  0
  1  2  1  0  0  0  0
  2  7  1  0  0  0  0
  3  2  2  0  0  0  0
  3  4  1  0  0  0  0
  4  5  2  0  0  0  0
  5  6  1  0  0  0  0
  5  9  1  0  0  0  0
  6 10  1  0  0  0  0
  7 20  1  0  0  0  0
  7  6  2  0  0  0  0
  8  4  1  0  0  0  0
 11 16  1  0  0  0  0
 12 13  1  0  0  0  0
 12 11  2  0  0  0  0
 13 14  2  0  0  0  0
 14 15  1  0  0  0  0
 15  3  1  0  0  0  0
 16 15  2  0  0  0  0
 17 11  1  0  0  0  0
 18 12  1  0  0  0  0
 19 13  1  0  0  0  0
 20 23  1  0  0  0  0
 20 22  1  0  0  0  0
 21 20  1  0  0  0  0
 23 26  1  0  0  0  0
 24 23  1  0  0  0  0
 25 23  1  0  0  0  0
 26 27  1  0  0  0  0
 29 30  1  0  0  0  0
 29 33  1  0  0  0  0
 29 28  1  0  0  0  0
 31 30  1  0  0  0  0
 32 31  1  0  0  0  0
 32 33  1  0  0  0  0
 33 26  1  6  0  0  0
M  END
>  <minimizedAffinity>
-4.90835667

$$$$

 OpenBabel03262520113D

 33 35  0  0  1  0  0  0  0  0999 V2000
   37.2620   24.5200   32.1240 Br  0  0  0  0  0  0  0  0  0  0  0  0
   38.6810   25.2510   33.1890 C   0  0  0  0  0  0  0  0  0  0  0  0
   38.7550   26.6120   33.3990 C   0  0  0  0  0  0  0  0  0  0  0  0
   39.7900   27.0770   34.1660 C   0  0  0  0  0  0  0  0  0  0  0  0
   40.7470   26.2410   34.7280 C   0  0  0  0  0  0  0  0  0  0  0  0
   40.6260   24.8860   34.4870 C   0  0  0  0  0  0  0  0  0  0  0  0
   39.5880   24.3990   33.7150 C   0  0  0  0  0  0  0  0  0  0  0  0
   39.8180   28.1540   34.3110 H   0  0  0  0  0  0  0  0  0  0  0  0
   41.5170   26.7240   35.3140 H   0  0  0  0  0  0  0  0  0  0  0  0
   41.4280   24.3530   34.9750 H   0  0  0  0  0  0  0  0  0  0  0  0
   37.0950   28.8390   31.0300 C   0  0  0  0  0  0  0  0  0  0  0  0
   35.9310   29.2630   31.7100 C   0  0  0  0  0  0  0  0  0  0  0  0
   35.7360   28.7680   32.9900 C   0  0  0  0  0  0  0  0  0  0  0  0
   36.6550   27.9060   33.5380 N   0  0  0  0  0  0  0  0  0  0  0  0
   37.7670   27.5310   32.8250 C   0  0  0  0  0  0  0  0  0  0  0  0
   37.9610   28.0070   31.5870 N   0  0  0  0  0  0  0  0  0  0  0  0
   37.2040   29.2500   30.0360 H   0  0  0  0  0  0  0  0  0  0  0  0
   35.1840   29.9400   31.3120 H   0  0  0  0  0  0  0  0  0  0  0  0
   34.8950   29.0010   33.6330 H   0  0  0  0  0  0  0  0  0  0  0  0
   39.5820   22.9300   33.5440 C   0  0  0  0  0  0  0  0  0  0  0  0
   40.6350   22.6730   33.2380 H   0  0  0  0  0  0  0  0  0  0  0  0
   38.9310   22.6130   32.7190 H   0  0  0  0  0  0  0  0  0  0  0  0
   39.2930   22.1570   34.7710 C   0  0  0  0  0  0  0  0  0  0  0  0
   39.2460   21.0710   34.4440 H   0  0  0  0  0  0  0  0  0  0  0  0
   40.0320   22.1750   35.5560 H   0  0  0  0  0  0  0  0  0  0  0  0
   37.9880   22.4790   35.2990 N   0  0  0  0  0  0  0  0  0  0  0  0
   37.3850   23.0230   34.6780 H   0  0  0  0  0  0  0  0  0  0  0  0
   39.5190   21.7670   37.5330 H   0  0  0  0  0  0  0  0  0  0  0  0
   39.1600   22.7220   37.4090 N   0  0  0  0  0  0  0  0  0  0  0  0
   38.7400   23.3230   38.6830 C   0  0  0  0  0  2  0  0  0  0  0  0
   37.9290   24.5370   38.2580 C   0  0  0  0  0  2  0  0  0  0  0  0
   37.6920   24.3350   36.7550 C   0  0  0  0  0  2  0  0  0  0  0  0
   37.9380   22.8300   36.6690 C   0  0  1  0  0  3  0  0  0  0  0  0
  1  2  1  0  0  0  0
  2  3  2  0  0  0  0
  2  7  1  0  0  0  0
  3  4  1  0  0  0  0
  4  8  1  0  0  0  0
  4  5  2  0  0  0  0
  5  9  1  0  0  0  0
  6  5  1  0  0  0  0
  6 10  1  0  0  0  0
  7  6  2  0  0  0  0
 11 16  2  0  0  0  0
 11 12  1  0  0  0  0
 12 13  2  0  0  0  0
 13 14  1  0  0  0  0
 13 19  1  0  0  0  0
 15  3  1  0  0  0  0
 15 14  2  0  0  0  0
 16 15  1  0  0  0  0
 17 11  1  0  0  0  0
 18 12  1  0  0  0  0
 20  7  1  0  0  0  0
 20 23  1  0  0  0  0
 21 20  1  0  0  0  0
 22 20  1  0  0  0  0
 23 26  1  0  0  0  0
 23 25  1  0  0  0  0
 24 23  1  0  0  0  0
 27 26  1  0  0  0  0
 29 28  1  0  0  0  0
 29 30  1  0  0  0  0
 31 30  1  0  0  0  0
 32 31  1  0  0  0  0
 33 26  1  6  0  0  0
 33 32  1  0  0  0  0
 33 29  1  0  0  0  0
M  END
>  <minimizedAffinity>
-4.87408543

$$$$

 OpenBabel03262520113D

 33 35  0  0  1  0  0  0  0  0999 V2000
   36.6990   25.5980   31.9760 Br  0  0  0  0  0  0  0  0  0  0  0  0
   37.4440   26.1580   33.6530 C   0  0  0  0  0  0  0  0  0  0  0  0
   38.2540   25.3020   34.3680 C   0  0  0  0  0  0  0  0  0  0  0  0
   38.7560   25.7540   35.5590 C   0  0  0  0  0  0  0  0  0  0  0  0
   38.4820   27.0210   36.0600 C   0  0  0  0  0  0  0  0  0  0  0  0
   37.6650   27.8400   35.3030 C   0  0  0  0  0  0  0  0  0  0  0  0
   37.1500   27.3990   34.1000 C   0  0  0  0  0  0  0  0  0  0  0  0
   39.3910   25.0550   36.0960 H   0  0  0  0  0  0  0  0  0  0  0  0
   38.9360   27.2660   37.0100 H   0  0  0  0  0  0  0  0  0  0  0  0
   37.5310   28.7870   35.8030 H   0  0  0  0  0  0  0  0  0  0  0  0
   39.9920   22.5750   32.6710 C   0  0  0  0  0  0  0  0  0  0  0  0
   39.1950   21.4390   32.9360 C   0  0  0  0  0  0  0  0  0  0  0  0
   38.0580   21.6340   33.7040 C   0  0  0  0  0  0  0  0  0  0  0  0
   37.7530   22.8900   34.1700 N   0  0  0  0  0  0  0  0  0  0  0  0
   38.5690   23.9560   33.8780 C   0  0  0  0  0  0  0  0  0  0  0  0
   39.6690   23.7740   33.1350 N   0  0  0  0  0  0  0  0  0  0  0  0
   40.8670   22.3750   32.0700 H   0  0  0  0  0  0  0  0  0  0  0  0
   39.4020   20.4340   32.5880 H   0  0  0  0  0  0  0  0  0  0  0  0
   37.3520   20.8620   33.9900 H   0  0  0  0  0  0  0  0  0  0  0  0
   36.2950   28.3800   33.3980 C   0  0  0  0  0  0  0  0  0  0  0  0
   35.6800   27.7660   32.6820 H   0  0  0  0  0  0  0  0  0  0  0  0
   36.8820   29.0780   32.7850 H   0  0  0  0  0  0  0  0  0  0  0  0
   35.3410   29.1110   34.2610 C   0  0  0  0  0  0  0  0  0  0  0  0
   34.3190   28.6760   34.0230 H   0  0  0  0  0  0  0  0  0  0  0  0
   35.4470   28.9950   35.3280 H   0  0  0  0  0  0  0  0  0  0  0  0
   35.2800   30.5090   33.9090 N   0  0  0  0  0  0  0  0  0  0  0  0
   36.0900   30.8710   33.4010 H   0  0  0  0  0  0  0  0  0  0  0  0
   32.7550   30.7100   35.1040 H   0  0  0  0  0  0  0  0  0  0  0  0
   33.6180   30.8720   35.6380 N   0  0  0  0  0  0  0  0  0  0  0  0
   33.4640   31.9570   36.6180 C   0  0  0  0  0  2  0  0  0  0  0  0
   34.8930   32.2780   37.0260 C   0  0  0  0  0  2  0  0  0  0  0  0
   35.7630   31.5510   35.9910 C   0  0  0  0  0  2  0  0  0  0  0  0
   34.7260   31.3740   34.8820 C   0  0  1  0  0  3  0  0  0  0  0  0
  1  2  1  0  0  0  0
  2  7  2  0  0  0  0
  2  3  1  0  0  0  0
  3  4  2  0  0  0  0
  4  5  1  0  0  0  0
  4  8  1  0  0  0  0
  5  9  1  0  0  0  0
  6 10  1  0  0  0  0
  6  5  2  0  0  0  0
  7  6  1  0  0  0  0
 11 12  2  0  0  0  0
 11 16  1  0  0  0  0
 12 13  1  0  0  0  0
 13 19  1  0  0  0  0
 13 14  2  0  0  0  0
 15 14  1  0  0  0  0
 15  3  1  0  0  0  0
 16 15  2  0  0  0  0
 17 11  1  0  0  0  0
 18 12  1  0  0  0  0
 20  7  1  0  0  0  0
 20 23  1  0  0  0  0
 21 20  1  0  0  0  0
 22 20  1  0  0  0  0
 23 25  1  0  0  0  0
 24 23  1  0  0  0  0
 26 23  1  0  0  0  0
 27 26  1  0  0  0  0
 28 29  1  0  0  0  0
 29 30  1  0  0  0  0
 30 31  1  0  0  0  0
 32 31  1  0  0  0  0
 33 26  1  6  0  0  0
 33 29  1  0  0  0  0
 33 32  1  0  0  0  0
M  END
>  <minimizedAffinity>
-4.84115744

$$$$
