
 OpenBabel03272506083D

 41 44  0  0  0  0  0  0  0  0999 V2000
   33.9000   28.5600   48.0970 C   0  0  0  0  0  0  0  0  0  0  0  0
   33.9220   28.8120   46.6860 C   0  0  0  0  0  0  0  0  0  0  0  0
   32.2470   28.4250   46.2410 S   0  0  0  0  0  0  0  0  0  0  0  0
   31.7330   27.9790   47.9850 C   0  0  0  0  0  0  0  0  0  0  0  0
   32.7560   28.1620   48.5620 N   0  0  0  0  0  0  0  0  0  0  0  0
   30.4560   27.5310   48.5280 N   0  0  0  0  0  0  0  0  0  0  0  0
   29.6290   26.7760   47.6570 C   0  0  0  0  0  0  0  0  0  0  0  0
   28.1970   26.6930   48.0770 C   0  0  0  0  0  0  0  0  0  0  0  0
   27.8790   27.5550   49.2230 N   0  0  0  0  0  0  0  0  0  0  0  0
   28.8350   27.1940   50.2600 C   0  0  0  0  0  0  0  0  0  0  0  0
   30.1210   27.8780   49.8910 C   0  0  0  0  0  0  0  0  0  0  0  0
   34.7460   29.1400   46.1070 H   0  0  0  0  0  0  0  0  0  0  0  0
   29.6320   27.3080   46.6610 H   0  0  0  0  0  0  0  0  0  0  0  0
   30.0120   25.7540   47.4050 H   0  0  0  0  0  0  0  0  0  0  0  0
   27.4660   26.9130   47.2600 H   0  0  0  0  0  0  0  0  0  0  0  0
   27.9750   25.6550   48.4200 H   0  0  0  0  0  0  0  0  0  0  0  0
   28.0820   28.5350   48.8970 H   0  0  0  0  0  0  0  0  0  0  0  0
   28.4520   27.6520   51.2050 H   0  0  0  0  0  0  0  0  0  0  0  0
   28.9530   26.0920   50.3300 H   0  0  0  0  0  0  0  0  0  0  0  0
   30.9340   27.6800   50.6180 H   0  0  0  0  0  0  0  0  0  0  0  0
   29.9250   28.9730   49.8900 H   0  0  0  0  0  0  0  0  0  0  0  0
   35.1600   28.7690   48.8990 C   0  0  0  0  0  0  0  0  0  0  0  0
   35.2960   27.8810   49.5780 H   0  0  0  0  0  0  0  0  0  0  0  0
   36.0490   28.7280   48.2310 H   0  0  0  0  0  0  0  0  0  0  0  0
   35.1260   30.0240   49.6710 C   0  0  0  0  0  0  0  0  0  0  0  0
   34.1630   30.5700   49.6070 H   0  0  0  0  0  0  0  0  0  0  0  0
   35.2690   29.8040   50.7560 H   0  0  0  0  0  0  0  0  0  0  0  0
   37.9170   32.4830   49.7640 C   0  0  0  0  0  0  0  0  0  0  0  0
   38.3590   32.5100   48.4400 C   0  0  0  0  0  0  0  0  0  0  0  0
   37.6830   31.6780   47.5490 C   0  0  0  0  0  0  0  0  0  0  0  0
   36.6630   30.9000   47.9570 N   0  0  0  0  0  0  0  0  0  0  0  0
   36.2750   30.9170   49.2700 C   0  0  0  0  0  0  0  0  0  0  0  0
   36.9080   31.7060   50.1430 N   0  0  0  0  0  0  0  0  0  0  0  0
   38.4220   33.1170   50.4780 H   0  0  0  0  0  0  0  0  0  0  0  0
   39.1690   33.1430   48.1710 H   0  0  0  0  0  0  0  0  0  0  0  0
   38.0750   31.6540   46.1920 N   0  0  0  0  0  0  0  0  0  0  0  0
   37.3240   31.1820   45.0450 C   0  0  0  0  0  2  0  0  0  0  0  0
   37.4940   32.3280   44.0660 C   0  0  0  0  0  2  0  0  0  0  0  0
   38.9230   32.7640   44.3100 C   0  0  0  0  0  2  0  0  0  0  0  0
   39.3340   32.0960   45.6280 C   0  0  0  0  0  3  0  0  0  0  0  0
   39.8930   32.7630   46.2860 H   0  0  0  0  0  0  0  0  0  0  0  0
  1  5  1  0  0  0  0
  1 22  1  0  0  0  0
  2  1  2  0  0  0  0
  3  2  1  0  0  0  0
  3  4  1  0  0  0  0
  4  6  1  0  0  0  0
  4  5  2  0  0  0  0
  6 11  1  0  0  0  0
  7  8  1  0  0  0  0
  7  6  1  0  0  0  0
  8 16  1  0  0  0  0
  8  9  1  0  0  0  0
  9 10  1  0  0  0  0
 10 19  1  0  0  0  0
 10 18  1  0  0  0  0
 11 10  1  0  0  0  0
 11 20  1  0  0  0  0
 12  2  1  0  0  0  0
 13  7  1  0  0  0  0
 14  7  1  0  0  0  0
 15  8  1  0  0  0  0
 17  9  1  0  0  0  0
 21 11  1  0  0  0  0
 22 23  1  0  0  0  0
 22 25  1  0  0  0  0
 24 22  1  0  0  0  0
 25 27  1  0  0  0  0
 26 25  1  0  0  0  0
 28 33  1  0  0  0  0
 28 34  1  0  0  0  0
 29 28  2  0  0  0  0
 30 31  2  0  0  0  0
 30 29  1  0  0  0  0
 31 32  1  0  0  0  0
 32 25  1  0  0  0  0
 32 33  2  0  0  0  0
 35 29  1  0  0  0  0
 36 30  1  0  0  0  0
 37 36  1  0  0  0  0
 38 39  1  0  0  0  0
 38 37  1  0  0  0  0
 39 40  1  0  0  0  0
 40 36  1  0  0  0  0
 40 41  1  0  0  0  0
M  END
>  <minimizedAffinity>
-6.12187338

>  <minimizedRMSD>
1.36154616

$$$$
