
 OpenBabel03272504263D

 39 42  0  0  0  0  0  0  0  0999 V2000
   34.3430   29.2050   47.8340 C   0  0  0  0  0  0  0  0  0  0  0  0
   34.3360   27.9020   48.1890 C   0  0  0  0  0  0  0  0  0  0  0  0
   33.3340   27.0920   47.8260 C   0  0  0  0  0  0  0  0  0  0  0  0
   32.3070   27.5950   47.0890 N   0  0  0  0  0  0  0  0  0  0  0  0
   32.3250   28.8780   46.7460 C   0  0  0  0  0  0  0  0  0  0  0  0
   33.3260   29.6980   47.1050 N   0  0  0  0  0  0  0  0  0  0  0  0
   35.1550   27.5050   48.7760 H   0  0  0  0  0  0  0  0  0  0  0  0
   33.3370   26.0490   48.1140 H   0  0  0  0  0  0  0  0  0  0  0  0
   36.5600   31.4260   49.7350 C   0  0  0  0  0  0  0  0  0  0  0  0
   37.5100   31.8070   48.7700 C   0  0  0  0  0  0  0  0  0  0  0  0
   37.3650   31.2900   47.4830 C   0  0  0  0  0  0  0  0  0  0  0  0
   36.3200   30.4560   47.2470 N   0  0  0  0  0  0  0  0  0  0  0  0
   35.4160   30.1070   48.2070 C   0  0  0  0  0  0  0  0  0  0  0  0
   35.5500   30.5980   49.4380 N   0  0  0  0  0  0  0  0  0  0  0  0
   36.7090   31.8450   50.7070 H   0  0  0  0  0  0  0  0  0  0  0  0
   38.3420   32.4650   48.9430 H   0  0  0  0  0  0  0  0  0  0  0  0
   38.2100   31.5560   46.3970 N   0  0  0  0  0  0  0  0  0  0  0  0
   37.9450   32.1550   45.1030 C   0  0  0  0  0  2  0  0  0  0  0  0
   39.1710   33.0250   44.9180 C   0  0  0  0  0  2  0  0  0  0  0  0
   40.2730   32.1180   45.4000 C   0  0  0  0  0  2  0  0  0  0  0  0
   39.6240   31.2300   46.4290 C   0  0  0  0  0  3  0  0  0  0  0  0
   40.0250   31.4590   47.4390 H   0  0  0  0  0  0  0  0  0  0  0  0
   29.9030   29.1670   46.4430 C   0  0  0  0  0  0  0  0  0  0  0  0
   31.2010   29.3040   45.9450 C   0  0  0  0  0  0  0  0  0  0  0  0
   31.5000   29.8080   44.6930 C   0  0  0  0  0  0  0  0  0  0  0  0
   30.4720   30.2060   43.8680 C   0  0  0  0  0  0  0  0  0  0  0  0
   29.1590   30.1050   44.2770 C   0  0  0  0  0  0  0  0  0  0  0  0
   28.9620   29.6000   45.5200 C   0  0  0  0  0  0  0  0  0  0  0  0
   32.5220   29.8960   44.3520 H   0  0  0  0  0  0  0  0  0  0  0  0
   30.7170   30.6000   42.8870 H   0  0  0  0  0  0  0  0  0  0  0  0
   28.3300   30.4080   43.6520 H   0  0  0  0  0  0  0  0  0  0  0  0
   27.9140   29.5210   45.8420 H   0  0  0  0  0  0  0  0  0  0  0  0
   29.5080   28.5860   47.9540 S   0  0  0  0  0  0  0  0  0  0  0  0
   28.9050   27.2230   47.4770 O   0  0  0  0  0  0  0  0  0  0  0  0
   28.3890   29.4430   48.4840 O   0  0  0  0  0  0  0  0  0  0  0  0
   29.8740   27.8740   49.3370 C   0  0  0  0  0  0  0  0  0  0  0  0
   29.4240   26.5950   49.7330 F   0  0  0  0  0  0  0  0  0  0  0  0
   29.0850   28.4730   50.4260 F   0  0  0  0  0  0  0  0  0  0  0  0
   31.0270   28.2440   50.0880 F   0  0  0  0  0  0  0  0  0  0  0  0
  1  2  1  0  0  0  0
  1 13  1  0  0  0  0
  2  7  1  0  0  0  0
  3  8  1  0  0  0  0
  3  2  2  0  0  0  0
  4  3  1  0  0  0  0
  5  4  2  0  0  0  0
  5  6  1  0  0  0  0
  6  1  2  0  0  0  0
  9 15  1  0  0  0  0
 10 16  1  0  0  0  0
 10  9  2  0  0  0  0
 11 10  1  0  0  0  0
 12 11  2  0  0  0  0
 12 13  1  0  0  0  0
 13 14  2  0  0  0  0
 14  9  1  0  0  0  0
 17 21  1  0  0  0  0
 17 11  1  0  0  0  0
 18 17  1  0  0  0  0
 19 18  1  0  0  0  0
 19 20  1  0  0  0  0
 20 21  1  0  0  0  0
 21 22  1  0  0  0  0
 23 33  1  0  0  0  0
 24 23  1  0  0  0  0
 24  5  1  0  0  0  0
 25 24  2  0  0  0  0
 26 27  2  0  0  0  0
 26 25  1  0  0  0  0
 27 28  1  0  0  0  0
 28 32  1  0  0  0  0
 28 23  2  0  0  0  0
 29 25  1  0  0  0  0
 30 26  1  0  0  0  0
 31 27  1  0  0  0  0
 33 35  2  0  0  0  0
 33 36  1  0  0  0  0
 34 33  2  0  0  0  0
 36 37  1  0  0  0  0
 36 39  1  0  0  0  0
 36 38  1  0  0  0  0
M  END
>  <minimizedAffinity>
-6.70138311

>  <minimizedRMSD>
2.10780907

$$$$
