
 OpenBabel03272504293D

 39 42  0  0  0  0  0  0  0  0999 V2000
   38.6860   25.5420   33.3100 C   0  0  0  0  0  0  0  0  0  0  0  0
   38.9560   26.8520   33.4920 C   0  0  0  0  0  0  0  0  0  0  0  0
   40.0320   27.2460   34.1850 C   0  0  0  0  0  0  0  0  0  0  0  0
   40.8630   26.3060   34.7120 N   0  0  0  0  0  0  0  0  0  0  0  0
   40.5870   25.0200   34.5250 C   0  0  0  0  0  0  0  0  0  0  0  0
   39.5100   24.6160   33.8320 N   0  0  0  0  0  0  0  0  0  0  0  0
   38.2920   27.5970   33.0720 H   0  0  0  0  0  0  0  0  0  0  0  0
   40.2410   28.2980   34.3260 H   0  0  0  0  0  0  0  0  0  0  0  0
   35.6830   25.4380   31.2040 C   0  0  0  0  0  0  0  0  0  0  0  0
   35.3770   24.0650   31.1770 C   0  0  0  0  0  0  0  0  0  0  0  0
   36.2140   23.2030   31.8870 C   0  0  0  0  0  0  0  0  0  0  0  0
   37.2630   23.7450   32.5550 N   0  0  0  0  0  0  0  0  0  0  0  0
   37.5310   25.0830   32.5600 C   0  0  0  0  0  0  0  0  0  0  0  0
   36.7360   25.9100   31.8840 N   0  0  0  0  0  0  0  0  0  0  0  0
   35.0160   26.0610   30.6460 H   0  0  0  0  0  0  0  0  0  0  0  0
   34.5500   23.6220   30.6510 H   0  0  0  0  0  0  0  0  0  0  0  0
   36.0670   21.8130   31.9740 N   0  0  0  0  0  0  0  0  0  0  0  0
   35.3410   20.9850   32.9190 C   0  0  0  0  0  2  0  0  0  0  0  0
   34.7480   19.9340   32.0030 C   0  0  0  0  0  2  0  0  0  0  0  0
   35.9010   19.6330   31.0830 C   0  0  0  0  0  2  0  0  0  0  0  0
   36.6940   20.9150   31.0220 C   0  0  0  0  0  3  0  0  0  0  0  0
   36.6240   21.3590   30.0060 H   0  0  0  0  0  0  0  0  0  0  0  0
   41.1500   23.2500   36.1340 C   0  0  0  0  0  0  0  0  0  0  0  0
   41.5440   24.1080   35.1040 C   0  0  0  0  0  0  0  0  0  0  0  0
   42.8290   24.1700   34.5990 C   0  0  0  0  0  0  0  0  0  0  0  0
   43.7980   23.3450   35.1270 C   0  0  0  0  0  0  0  0  0  0  0  0
   43.4980   22.4680   36.1470 C   0  0  0  0  0  0  0  0  0  0  0  0
   42.2120   22.4760   36.5780 C   0  0  0  0  0  0  0  0  0  0  0  0
   43.0870   24.8500   33.7990 H   0  0  0  0  0  0  0  0  0  0  0  0
   44.8030   23.4010   34.7230 H   0  0  0  0  0  0  0  0  0  0  0  0
   44.2360   21.8090   36.5830 H   0  0  0  0  0  0  0  0  0  0  0  0
   41.9780   21.7750   37.3920 H   0  0  0  0  0  0  0  0  0  0  0  0
   39.6060   23.1330   36.7510 S   0  0  0  0  0  0  0  0  0  0  0  0
   40.0160   22.6500   38.1820 O   0  0  0  0  0  0  0  0  0  0  0  0
   38.9270   21.9930   36.0400 O   0  0  0  0  0  0  0  0  0  0  0  0
   38.2900   23.7640   37.4020 C   0  0  0  0  0  0  0  0  0  0  0  0
   36.9680   23.3690   37.0980 F   0  0  0  0  0  0  0  0  0  0  0  0
   38.0210   25.0790   36.7970 F   0  0  0  0  0  0  0  0  0  0  0  0
   38.3250   24.4430   38.6530 F   0  0  0  0  0  0  0  0  0  0  0  0
  1  2  2  0  0  0  0
  1  6  1  0  0  0  0
  2  3  1  0  0  0  0
  3  8  1  0  0  0  0
  3  4  2  0  0  0  0
  5  4  1  0  0  0  0
  5 24  1  0  0  0  0
  6  5  2  0  0  0  0
  7  2  1  0  0  0  0
  9 14  1  0  0  0  0
 10  9  2  0  0  0  0
 10 11  1  0  0  0  0
 11 17  1  0  0  0  0
 11 12  2  0  0  0  0
 12 13  1  0  0  0  0
 13  1  1  0  0  0  0
 14 13  2  0  0  0  0
 15  9  1  0  0  0  0
 16 10  1  0  0  0  0
 17 18  1  0  0  0  0
 19 18  1  0  0  0  0
 20 19  1  0  0  0  0
 21 20  1  0  0  0  0
 21 17  1  0  0  0  0
 22 21  1  0  0  0  0
 23 28  1  0  0  0  0
 23 33  1  0  0  0  0
 24 23  2  0  0  0  0
 25 24  1  0  0  0  0
 25 26  2  0  0  0  0
 26 27  1  0  0  0  0
 27 28  2  0  0  0  0
 27 31  1  0  0  0  0
 28 32  1  0  0  0  0
 29 25  1  0  0  0  0
 30 26  1  0  0  0  0
 33 36  1  0  0  0  0
 33 34  2  0  0  0  0
 35 33  2  0  0  0  0
 36 39  1  0  0  0  0
 37 36  1  0  0  0  0
 38 36  1  0  0  0  0
M  END
>  <minimizedAffinity>
-7.20130253

$$$$

 OpenBabel03272504293D

 39 42  0  0  0  0  0  0  0  0999 V2000
   37.8180   26.0610   33.6980 C   0  0  0  0  0  0  0  0  0  0  0  0
   37.3870   26.8660   34.6930 C   0  0  0  0  0  0  0  0  0  0  0  0
   38.2430   27.3860   35.5830 C   0  0  0  0  0  0  0  0  0  0  0  0
   39.5680   27.0950   35.4760 N   0  0  0  0  0  0  0  0  0  0  0  0
   39.9800   26.3030   34.4920 C   0  0  0  0  0  0  0  0  0  0  0  0
   39.1290   25.7770   33.5970 N   0  0  0  0  0  0  0  0  0  0  0  0
   36.3320   27.0950   34.7750 H   0  0  0  0  0  0  0  0  0  0  0  0
   37.8890   28.0290   36.3760 H   0  0  0  0  0  0  0  0  0  0  0  0
   35.3760   25.6530   30.9910 C   0  0  0  0  0  0  0  0  0  0  0  0
   35.2520   24.2540   30.9000 C   0  0  0  0  0  0  0  0  0  0  0  0
   36.0140   23.4810   31.7770 C   0  0  0  0  0  0  0  0  0  0  0  0
   36.8210   24.1270   32.6560 N   0  0  0  0  0  0  0  0  0  0  0  0
   36.9170   25.4870   32.7170 C   0  0  0  0  0  0  0  0  0  0  0  0
   36.1920   26.2300   31.8830 N   0  0  0  0  0  0  0  0  0  0  0  0
   34.7740   26.2060   30.3010 H   0  0  0  0  0  0  0  0  0  0  0  0
   34.6180   23.7300   30.2090 H   0  0  0  0  0  0  0  0  0  0  0  0
   36.0220   22.0810   31.8320 N   0  0  0  0  0  0  0  0  0  0  0  0
   35.2150   21.1500   32.5980 C   0  0  0  0  0  2  0  0  0  0  0  0
   34.9660   20.0590   31.5770 C   0  0  0  0  0  2  0  0  0  0  0  0
   36.3180   19.9200   30.9300 C   0  0  0  0  0  2  0  0  0  0  0  0
   36.9440   21.2880   31.0410 C   0  0  0  0  0  3  0  0  0  0  0  0
   37.0410   21.7460   30.0330 H   0  0  0  0  0  0  0  0  0  0  0  0
   41.9350   24.9000   34.9890 C   0  0  0  0  0  0  0  0  0  0  0  0
   41.4060   26.0780   34.4570 C   0  0  0  0  0  0  0  0  0  0  0  0
   42.1690   27.0890   33.9040 C   0  0  0  0  0  0  0  0  0  0  0  0
   43.5390   26.9490   33.8650 C   0  0  0  0  0  0  0  0  0  0  0  0
   44.1480   25.8200   34.3680 C   0  0  0  0  0  0  0  0  0  0  0  0
   43.3200   24.8810   34.8900 C   0  0  0  0  0  0  0  0  0  0  0  0
   41.7130   27.9830   33.5030 H   0  0  0  0  0  0  0  0  0  0  0  0
   44.1290   27.7480   33.4290 H   0  0  0  0  0  0  0  0  0  0  0  0
   45.2200   25.6810   34.3530 H   0  0  0  0  0  0  0  0  0  0  0  0
   43.8100   23.9830   35.2900 H   0  0  0  0  0  0  0  0  0  0  0  0
   41.0440   23.6510   35.6400 S   0  0  0  0  0  0  0  0  0  0  0  0
   42.1390   23.1430   36.6360 O   0  0  0  0  0  0  0  0  0  0  0  0
   40.8670   22.6180   34.5590 O   0  0  0  0  0  0  0  0  0  0  0  0
   39.9430   23.0710   36.6420 C   0  0  0  0  0  0  0  0  0  0  0  0
   38.9160   22.1700   36.2820 F   0  0  0  0  0  0  0  0  0  0  0  0
   38.9260   24.1010   36.9090 F   0  0  0  0  0  0  0  0  0  0  0  0
   40.1550   23.0380   38.0500 F   0  0  0  0  0  0  0  0  0  0  0  0
  1  2  1  0  0  0  0
  2  7  1  0  0  0  0
  2  3  2  0  0  0  0
  3  8  1  0  0  0  0
  4  3  1  0  0  0  0
  5  4  2  0  0  0  0
  6  1  2  0  0  0  0
  6  5  1  0  0  0  0
  9 14  1  0  0  0  0
 10  9  2  0  0  0  0
 10 11  1  0  0  0  0
 11 17  1  0  0  0  0
 11 12  2  0  0  0  0
 12 13  1  0  0  0  0
 13  1  1  0  0  0  0
 14 13  2  0  0  0  0
 15  9  1  0  0  0  0
 16 10  1  0  0  0  0
 17 18  1  0  0  0  0
 19 18  1  0  0  0  0
 20 21  1  0  0  0  0
 20 19  1  0  0  0  0
 21 17  1  0  0  0  0
 22 21  1  0  0  0  0
 23 33  1  0  0  0  0
 24  5  1  0  0  0  0
 24 23  2  0  0  0  0
 25 24  1  0  0  0  0
 26 25  2  0  0  0  0
 26 27  1  0  0  0  0
 27 28  2  0  0  0  0
 28 23  1  0  0  0  0
 28 32  1  0  0  0  0
 29 25  1  0  0  0  0
 30 26  1  0  0  0  0
 31 27  1  0  0  0  0
 33 34  2  0  0  0  0
 33 36  1  0  0  0  0
 35 33  2  0  0  0  0
 36 38  1  0  0  0  0
 36 39  1  0  0  0  0
 37 36  1  0  0  0  0
M  END
>  <minimizedAffinity>
-6.88667727

$$$$

 OpenBabel03272504293D

 39 42  0  0  0  0  0  0  0  0999 V2000
   36.4110   28.1470   33.4320 C   0  0  0  0  0  0  0  0  0  0  0  0
   36.3350   28.6530   32.1830 C   0  0  0  0  0  0  0  0  0  0  0  0
   35.7530   29.8360   31.9500 C   0  0  0  0  0  0  0  0  0  0  0  0
   35.2300   30.5350   32.9940 N   0  0  0  0  0  0  0  0  0  0  0  0
   35.3120   30.0270   34.2180 C   0  0  0  0  0  0  0  0  0  0  0  0
   35.8930   28.8410   34.4610 N   0  0  0  0  0  0  0  0  0  0  0  0
   36.7520   28.0940   31.3540 H   0  0  0  0  0  0  0  0  0  0  0  0
   35.6970   30.2340   30.9460 H   0  0  0  0  0  0  0  0  0  0  0  0
   38.2980   25.4480   35.0500 C   0  0  0  0  0  0  0  0  0  0  0  0
   38.1720   24.3930   34.1280 C   0  0  0  0  0  0  0  0  0  0  0  0
   37.4370   24.6350   32.9670 C   0  0  0  0  0  0  0  0  0  0  0  0
   36.8960   25.8690   32.8030 N   0  0  0  0  0  0  0  0  0  0  0  0
   37.0390   26.8710   33.7180 C   0  0  0  0  0  0  0  0  0  0  0  0
   37.7390   26.6450   34.8280 N   0  0  0  0  0  0  0  0  0  0  0  0
   38.8690   25.2190   35.9240 H   0  0  0  0  0  0  0  0  0  0  0  0
   38.5930   23.4110   34.2450 H   0  0  0  0  0  0  0  0  0  0  0  0
   37.2040   23.7090   31.9410 N   0  0  0  0  0  0  0  0  0  0  0  0
   37.9540   23.4070   30.7360 C   0  0  0  0  0  2  0  0  0  0  0  0
   37.8550   21.8970   30.6920 C   0  0  0  0  0  2  0  0  0  0  0  0
   36.4150   21.6650   31.0620 C   0  0  0  0  0  2  0  0  0  0  0  0
   36.0510   22.8280   31.9510 C   0  0  0  0  0  3  0  0  0  0  0  0
   35.8760   22.4740   32.9900 H   0  0  0  0  0  0  0  0  0  0  0  0
   33.3820   30.7840   35.5390 C   0  0  0  0  0  0  0  0  0  0  0  0
   34.7480   30.8600   35.2550 C   0  0  0  0  0  0  0  0  0  0  0  0
   35.6240   31.7160   35.8940 C   0  0  0  0  0  0  0  0  0  0  0  0
   35.1450   32.5580   36.8740 C   0  0  0  0  0  0  0  0  0  0  0  0
   33.8100   32.5520   37.2180 C   0  0  0  0  0  0  0  0  0  0  0  0
   33.0260   31.6780   36.5390 C   0  0  0  0  0  0  0  0  0  0  0  0
   36.6750   31.7380   35.6400 H   0  0  0  0  0  0  0  0  0  0  0  0
   35.8410   33.2260   37.3690 H   0  0  0  0  0  0  0  0  0  0  0  0
   33.4040   33.2000   37.9810 H   0  0  0  0  0  0  0  0  0  0  0  0
   31.9630   31.6770   36.8160 H   0  0  0  0  0  0  0  0  0  0  0  0
   32.3020   29.7480   34.8060 S   0  0  0  0  0  0  0  0  0  0  0  0
   31.0520   30.6840   34.9050 O   0  0  0  0  0  0  0  0  0  0  0  0
   32.1000   28.5820   35.7370 O   0  0  0  0  0  0  0  0  0  0  0  0
   31.6310   29.0820   33.5170 C   0  0  0  0  0  0  0  0  0  0  0  0
   30.4160   29.5000   32.9310 F   0  0  0  0  0  0  0  0  0  0  0  0
   30.9950   27.8090   33.8940 F   0  0  0  0  0  0  0  0  0  0  0  0
   32.3930   28.3250   32.5820 F   0  0  0  0  0  0  0  0  0  0  0  0
  1 13  1  0  0  0  0
  1  6  1  0  0  0  0
  2  1  2  0  0  0  0
  3  2  1  0  0  0  0
  3  4  2  0  0  0  0
  4  5  1  0  0  0  0
  5  6  2  0  0  0  0
  5 24  1  0  0  0  0
  7  2  1  0  0  0  0
  8  3  1  0  0  0  0
  9 15  1  0  0  0  0
 10 16  1  0  0  0  0
 10  9  2  0  0  0  0
 11 10  1  0  0  0  0
 12 11  2  0  0  0  0
 12 13  1  0  0  0  0
 13 14  2  0  0  0  0
 14  9  1  0  0  0  0
 17 21  1  0  0  0  0
 17 11  1  0  0  0  0
 18 17  1  0  0  0  0
 19 18  1  0  0  0  0
 19 20  1  0  0  0  0
 20 21  1  0  0  0  0
 21 22  1  0  0  0  0
 23 28  1  0  0  0  0
 24 23  2  0  0  0  0
 24 25  1  0  0  0  0
 25 26  2  0  0  0  0
 26 27  1  0  0  0  0
 26 30  1  0  0  0  0
 27 31  1  0  0  0  0
 28 32  1  0  0  0  0
 28 27  2  0  0  0  0
 29 25  1  0  0  0  0
 33 34  2  0  0  0  0
 33 23  1  0  0  0  0
 33 35  2  0  0  0  0
 36 38  1  0  0  0  0
 36 33  1  0  0  0  0
 37 36  1  0  0  0  0
 39 36  1  0  0  0  0
M  END
>  <minimizedAffinity>
-6.8083787

$$$$

 OpenBabel03272504293D

 39 42  0  0  0  0  0  0  0  0999 V2000
   35.7600   28.4690   32.3220 C   0  0  0  0  0  0  0  0  0  0  0  0
   35.6330   29.2420   31.2220 C   0  0  0  0  0  0  0  0  0  0  0  0
   35.2190   30.5120   31.3130 C   0  0  0  0  0  0  0  0  0  0  0  0
   34.9230   31.0270   32.5370 N   0  0  0  0  0  0  0  0  0  0  0  0
   35.0530   30.2570   33.6120 C   0  0  0  0  0  0  0  0  0  0  0  0
   35.4670   28.9820   33.5300 N   0  0  0  0  0  0  0  0  0  0  0  0
   35.8700   28.8280   30.2500 H   0  0  0  0  0  0  0  0  0  0  0  0
   35.1200   31.1240   30.4270 H   0  0  0  0  0  0  0  0  0  0  0  0
   36.2790   24.9920   31.2720 C   0  0  0  0  0  0  0  0  0  0  0  0
   37.1520   24.5020   32.2600 C   0  0  0  0  0  0  0  0  0  0  0  0
   37.5440   25.3830   33.2690 C   0  0  0  0  0  0  0  0  0  0  0  0
   37.0570   26.6490   33.2310 N   0  0  0  0  0  0  0  0  0  0  0  0
   36.2100   27.0910   32.2570 C   0  0  0  0  0  0  0  0  0  0  0  0
   35.8340   26.2550   31.2910 N   0  0  0  0  0  0  0  0  0  0  0  0
   36.0060   24.2840   30.5190 H   0  0  0  0  0  0  0  0  0  0  0  0
   37.5460   23.5030   32.3020 H   0  0  0  0  0  0  0  0  0  0  0  0
   38.4040   25.0750   34.3310 N   0  0  0  0  0  0  0  0  0  0  0  0
   38.1370   24.5540   35.6590 C   0  0  0  0  0  2  0  0  0  0  0  0
   39.2790   23.5740   35.8320 C   0  0  0  0  0  2  0  0  0  0  0  0
   40.4430   24.3470   35.2720 C   0  0  0  0  0  2  0  0  0  0  0  0
   39.8400   25.2570   34.2320 C   0  0  0  0  0  3  0  0  0  0  0  0
   40.1740   24.9500   33.2170 H   0  0  0  0  0  0  0  0  0  0  0  0
   33.4970   30.6840   35.4660 C   0  0  0  0  0  0  0  0  0  0  0  0
   34.7360   30.9080   34.8620 C   0  0  0  0  0  0  0  0  0  0  0  0
   35.7040   31.7530   35.3720 C   0  0  0  0  0  0  0  0  0  0  0  0
   35.4540   32.4260   36.5470 C   0  0  0  0  0  0  0  0  0  0  0  0
   34.2560   32.2660   37.2110 C   0  0  0  0  0  0  0  0  0  0  0  0
   33.3670   31.4170   36.6370 C   0  0  0  0  0  0  0  0  0  0  0  0
   36.6500   31.8930   34.8690 H   0  0  0  0  0  0  0  0  0  0  0  0
   36.2190   33.0870   36.9400 H   0  0  0  0  0  0  0  0  0  0  0  0
   34.0290   32.7810   38.1340 H   0  0  0  0  0  0  0  0  0  0  0  0
   32.4140   31.2940   37.1690 H   0  0  0  0  0  0  0  0  0  0  0  0
   32.3170   29.6560   34.8910 S   0  0  0  0  0  0  0  0  0  0  0  0
   31.1070   30.6230   35.1100 O   0  0  0  0  0  0  0  0  0  0  0  0
   32.2010   28.5180   35.8700 O   0  0  0  0  0  0  0  0  0  0  0  0
   31.4870   28.9750   33.7080 C   0  0  0  0  0  0  0  0  0  0  0  0
   31.0190   27.6420   33.7100 F   0  0  0  0  0  0  0  0  0  0  0  0
   32.3940   28.6390   32.5970 F   0  0  0  0  0  0  0  0  0  0  0  0
   30.7570   29.7510   32.7620 F   0  0  0  0  0  0  0  0  0  0  0  0
  1  6  1  0  0  0  0
  2  3  1  0  0  0  0
  2  1  2  0  0  0  0
  3  4  2  0  0  0  0
  4  5  1  0  0  0  0
  5 24  1  0  0  0  0
  6  5  2  0  0  0  0
  7  2  1  0  0  0  0
  8  3  1  0  0  0  0
  9 14  2  0  0  0  0
  9 10  1  0  0  0  0
 10 16  1  0  0  0  0
 10 11  2  0  0  0  0
 11 17  1  0  0  0  0
 12 11  1  0  0  0  0
 13  1  1  0  0  0  0
 13 12  2  0  0  0  0
 14 13  1  0  0  0  0
 15  9  1  0  0  0  0
 17 18  1  0  0  0  0
 18 19  1  0  0  0  0
 20 19  1  0  0  0  0
 21 17  1  0  0  0  0
 21 20  1  0  0  0  0
 22 21  1  0  0  0  0
 23 28  1  0  0  0  0
 24 25  1  0  0  0  0
 24 23  2  0  0  0  0
 25 26  2  0  0  0  0
 26 30  1  0  0  0  0
 26 27  1  0  0  0  0
 27 31  1  0  0  0  0
 28 32  1  0  0  0  0
 28 27  2  0  0  0  0
 29 25  1  0  0  0  0
 33 34  2  0  0  0  0
 33 23  1  0  0  0  0
 33 35  2  0  0  0  0
 36 37  1  0  0  0  0
 36 33  1  0  0  0  0
 38 36  1  0  0  0  0
 39 36  1  0  0  0  0
M  END
>  <minimizedAffinity>
-6.73187828

$$$$

 OpenBabel03272504293D

 39 42  0  0  0  0  0  0  0  0999 V2000
   39.8070   25.8030   33.6750 C   0  0  0  0  0  0  0  0  0  0  0  0
   40.7220   26.7950   33.6890 C   0  0  0  0  0  0  0  0  0  0  0  0
   41.8800   26.6590   34.3470 C   0  0  0  0  0  0  0  0  0  0  0  0
   42.1340   25.4980   35.0100 N   0  0  0  0  0  0  0  0  0  0  0  0
   41.2260   24.5280   34.9880 C   0  0  0  0  0  0  0  0  0  0  0  0
   40.0620   24.6570   34.3320 N   0  0  0  0  0  0  0  0  0  0  0  0
   40.5160   27.7170   33.1600 H   0  0  0  0  0  0  0  0  0  0  0  0
   42.6080   27.4590   34.3530 H   0  0  0  0  0  0  0  0  0  0  0  0
   36.7620   25.0280   31.7800 C   0  0  0  0  0  0  0  0  0  0  0  0
   36.1480   26.2880   31.6610 C   0  0  0  0  0  0  0  0  0  0  0  0
   36.7980   27.3790   32.2380 C   0  0  0  0  0  0  0  0  0  0  0  0
   37.9770   27.1550   32.8720 N   0  0  0  0  0  0  0  0  0  0  0  0
   38.5450   25.9180   32.9680 C   0  0  0  0  0  0  0  0  0  0  0  0
   37.9280   24.8720   32.4200 N   0  0  0  0  0  0  0  0  0  0  0  0
   36.2300   24.2210   31.3240 H   0  0  0  0  0  0  0  0  0  0  0  0
   35.2150   26.4810   31.1630 H   0  0  0  0  0  0  0  0  0  0  0  0
   36.3400   28.7040   32.2210 N   0  0  0  0  0  0  0  0  0  0  0  0
   36.5630   29.7810   31.2760 C   0  0  0  0  0  2  0  0  0  0  0  0
   35.1880   30.4130   31.2110 C   0  0  0  0  0  2  0  0  0  0  0  0
   34.7760   30.4170   32.6590 C   0  0  0  0  0  2  0  0  0  0  0  0
   35.4840   29.2310   33.2670 C   0  0  0  0  0  3  0  0  0  0  0  0
   34.7440   28.4530   33.5560 H   0  0  0  0  0  0  0  0  0  0  0  0
   40.7390   22.7920   36.6570 C   0  0  0  0  0  0  0  0  0  0  0  0
   41.6040   23.3320   35.7030 C   0  0  0  0  0  0  0  0  0  0  0  0
   42.8460   22.8060   35.3990 C   0  0  0  0  0  0  0  0  0  0  0  0
   43.2790   21.6820   36.0650 C   0  0  0  0  0  0  0  0  0  0  0  0
   42.4910   21.0820   37.0240 C   0  0  0  0  0  0  0  0  0  0  0  0
   41.2890   21.6660   37.2550 C   0  0  0  0  0  0  0  0  0  0  0  0
   43.4810   23.2600   34.6500 H   0  0  0  0  0  0  0  0  0  0  0  0
   44.2550   21.2770   35.8190 H   0  0  0  0  0  0  0  0  0  0  0  0
   42.8030   20.2000   37.5650 H   0  0  0  0  0  0  0  0  0  0  0  0
   40.6650   21.1860   38.0210 H   0  0  0  0  0  0  0  0  0  0  0  0
   39.2270   23.3840   37.0320 S   0  0  0  0  0  0  0  0  0  0  0  0
   39.2360   22.9720   38.5420 O   0  0  0  0  0  0  0  0  0  0  0  0
   38.2200   22.5280   36.3100 O   0  0  0  0  0  0  0  0  0  0  0  0
   38.2280   24.5690   37.4200 C   0  0  0  0  0  0  0  0  0  0  0  0
   37.8220   24.8870   38.7350 F   0  0  0  0  0  0  0  0  0  0  0  0
   36.8450   24.1730   37.1040 F   0  0  0  0  0  0  0  0  0  0  0  0
   38.0140   25.6820   36.5560 F   0  0  0  0  0  0  0  0  0  0  0  0
  1  2  2  0  0  0  0
  1  6  1  0  0  0  0
  2  3  1  0  0  0  0
  3  8  1  0  0  0  0
  3  4  2  0  0  0  0
  5  4  1  0  0  0  0
  5 24  1  0  0  0  0
  6  5  2  0  0  0  0
  7  2  1  0  0  0  0
  9 14  1  0  0  0  0
 10  9  2  0  0  0  0
 10 11  1  0  0  0  0
 11 12  2  0  0  0  0
 12 13  1  0  0  0  0
 13  1  1  0  0  0  0
 14 13  2  0  0  0  0
 15  9  1  0  0  0  0
 16 10  1  0  0  0  0
 17 11  1  0  0  0  0
 17 21  1  0  0  0  0
 18 17  1  0  0  0  0
 19 18  1  0  0  0  0
 19 20  1  0  0  0  0
 20 21  1  0  0  0  0
 21 22  1  0  0  0  0
 23 33  1  0  0  0  0
 23 28  1  0  0  0  0
 24 23  2  0  0  0  0
 25 24  1  0  0  0  0
 25 26  2  0  0  0  0
 26 27  1  0  0  0  0
 27 28  2  0  0  0  0
 27 31  1  0  0  0  0
 28 32  1  0  0  0  0
 29 25  1  0  0  0  0
 30 26  1  0  0  0  0
 33 36  1  0  0  0  0
 33 34  2  0  0  0  0
 35 33  2  0  0  0  0
 36 37  1  0  0  0  0
 38 36  1  0  0  0  0
 39 36  1  0  0  0  0
M  END
>  <minimizedAffinity>
-6.70213461

$$$$

 OpenBabel03272504293D

 39 42  0  0  0  0  0  0  0  0999 V2000
   37.3670   27.3950   34.4150 C   0  0  0  0  0  0  0  0  0  0  0  0
   38.3910   27.6430   35.2600 C   0  0  0  0  0  0  0  0  0  0  0  0
   39.3110   26.7060   35.5250 C   0  0  0  0  0  0  0  0  0  0  0  0
   39.2070   25.4870   34.9300 N   0  0  0  0  0  0  0  0  0  0  0  0
   38.1960   25.2560   34.1000 C   0  0  0  0  0  0  0  0  0  0  0  0
   37.2690   26.1880   33.8290 N   0  0  0  0  0  0  0  0  0  0  0  0
   38.4700   28.6140   35.7320 H   0  0  0  0  0  0  0  0  0  0  0  0
   40.1270   26.9130   36.2040 H   0  0  0  0  0  0  0  0  0  0  0  0
   34.5620   29.1820   32.8670 C   0  0  0  0  0  0  0  0  0  0  0  0
   34.4920   30.3610   33.6320 C   0  0  0  0  0  0  0  0  0  0  0  0
   35.4160   30.5140   34.6670 C   0  0  0  0  0  0  0  0  0  0  0  0
   36.3180   29.5200   34.8650 N   0  0  0  0  0  0  0  0  0  0  0  0
   36.3580   28.3890   34.1040 C   0  0  0  0  0  0  0  0  0  0  0  0
   35.4780   28.2380   33.1150 N   0  0  0  0  0  0  0  0  0  0  0  0
   33.8360   29.1070   32.0860 H   0  0  0  0  0  0  0  0  0  0  0  0
   33.7830   31.1560   33.4870 H   0  0  0  0  0  0  0  0  0  0  0  0
   35.4980   31.6150   35.5300 N   0  0  0  0  0  0  0  0  0  0  0  0
   36.2440   32.8560   35.4300 C   0  0  0  0  0  2  0  0  0  0  0  0
   35.2330   33.8560   35.9500 C   0  0  0  0  0  2  0  0  0  0  0  0
   34.6500   33.1280   37.1310 C   0  0  0  0  0  2  0  0  0  0  0  0
   34.7630   31.6660   36.7800 C   0  0  0  0  0  3  0  0  0  0  0  0
   33.7520   31.2320   36.6230 H   0  0  0  0  0  0  0  0  0  0  0  0
   38.0410   22.8130   34.3170 C   0  0  0  0  0  0  0  0  0  0  0  0
   38.1940   23.9400   33.5060 C   0  0  0  0  0  0  0  0  0  0  0  0
   38.3750   23.8880   32.1360 C   0  0  0  0  0  0  0  0  0  0  0  0
   38.4100   22.6620   31.5100 C   0  0  0  0  0  0  0  0  0  0  0  0
   38.2690   21.4970   32.2330 C   0  0  0  0  0  0  0  0  0  0  0  0
   38.0950   21.6440   33.5700 C   0  0  0  0  0  0  0  0  0  0  0  0
   38.4880   24.7900   31.5500 H   0  0  0  0  0  0  0  0  0  0  0  0
   38.5530   22.6330   30.4350 H   0  0  0  0  0  0  0  0  0  0  0  0
   38.2930   20.5200   31.7710 H   0  0  0  0  0  0  0  0  0  0  0  0
   37.9830   20.7130   34.1410 H   0  0  0  0  0  0  0  0  0  0  0  0
   37.7970   22.8390   35.9650 S   0  0  0  0  0  0  0  0  0  0  0  0
   39.1830   22.2330   36.3660 O   0  0  0  0  0  0  0  0  0  0  0  0
   36.7270   21.8260   36.2740 O   0  0  0  0  0  0  0  0  0  0  0  0
   37.7750   23.5790   37.3810 C   0  0  0  0  0  0  0  0  0  0  0  0
   37.7020   24.9780   37.5610 F   0  0  0  0  0  0  0  0  0  0  0  0
   39.1310   23.5900   37.9550 F   0  0  0  0  0  0  0  0  0  0  0  0
   37.3710   22.9080   38.5710 F   0  0  0  0  0  0  0  0  0  0  0  0
  1  2  1  0  0  0  0
  2  3  2  0  0  0  0
  2  7  1  0  0  0  0
  3  8  1  0  0  0  0
  4  3  1  0  0  0  0
  5  4  2  0  0  0  0
  6  5  1  0  0  0  0
  6  1  2  0  0  0  0
  9 14  2  0  0  0  0
  9 10  1  0  0  0  0
 10 11  2  0  0  0  0
 11 12  1  0  0  0  0
 11 17  1  0  0  0  0
 13  1  1  0  0  0  0
 13 12  2  0  0  0  0
 14 13  1  0  0  0  0
 15  9  1  0  0  0  0
 16 10  1  0  0  0  0
 17 21  1  0  0  0  0
 18 17  1  0  0  0  0
 18 19  1  0  0  0  0
 19 20  1  0  0  0  0
 21 20  1  0  0  0  0
 22 21  1  0  0  0  0
 23 33  1  0  0  0  0
 24  5  1  0  0  0  0
 24 23  2  0  0  0  0
 25 24  1  0  0  0  0
 26 25  2  0  0  0  0
 26 27  1  0  0  0  0
 27 28  2  0  0  0  0
 28 32  1  0  0  0  0
 28 23  1  0  0  0  0
 29 25  1  0  0  0  0
 30 26  1  0  0  0  0
 31 27  1  0  0  0  0
 33 35  2  0  0  0  0
 33 34  2  0  0  0  0
 33 36  1  0  0  0  0
 36 37  1  0  0  0  0
 36 38  1  0  0  0  0
 36 39  1  0  0  0  0
M  END
>  <minimizedAffinity>
-6.48593283

$$$$

 OpenBabel03272504293D

 39 42  0  0  0  0  0  0  0  0999 V2000
   36.2240   28.4960   33.3380 C   0  0  0  0  0  0  0  0  0  0  0  0
   36.0570   29.0570   32.1210 C   0  0  0  0  0  0  0  0  0  0  0  0
   35.3870   30.2070   31.9750 C   0  0  0  0  0  0  0  0  0  0  0  0
   34.8670   30.8160   33.0750 N   0  0  0  0  0  0  0  0  0  0  0  0
   35.0380   30.2550   34.2670 C   0  0  0  0  0  0  0  0  0  0  0  0
   35.7080   29.1020   34.4220 N   0  0  0  0  0  0  0  0  0  0  0  0
   36.4720   28.5690   31.2480 H   0  0  0  0  0  0  0  0  0  0  0  0
   35.2590   30.6490   30.9960 H   0  0  0  0  0  0  0  0  0  0  0  0
   37.7620   25.5280   34.8490 C   0  0  0  0  0  0  0  0  0  0  0  0
   38.3470   24.8900   33.7400 C   0  0  0  0  0  0  0  0  0  0  0  0
   38.1990   25.4980   32.4940 C   0  0  0  0  0  0  0  0  0  0  0  0
   37.5030   26.6620   32.4330 N   0  0  0  0  0  0  0  0  0  0  0  0
   36.9480   27.2540   33.5290 C   0  0  0  0  0  0  0  0  0  0  0  0
   37.0860   26.6780   34.7220 N   0  0  0  0  0  0  0  0  0  0  0  0
   37.9000   25.0280   35.7830 H   0  0  0  0  0  0  0  0  0  0  0  0
   38.9000   23.9690   33.7730 H   0  0  0  0  0  0  0  0  0  0  0  0
   38.7100   25.0110   31.2830 N   0  0  0  0  0  0  0  0  0  0  0  0
   39.9810   25.2390   30.6200 C   0  0  0  0  0  2  0  0  0  0  0  0
   40.3000   23.8530   30.1000 C   0  0  0  0  0  2  0  0  0  0  0  0
   38.9630   23.3980   29.5790 C   0  0  0  0  0  2  0  0  0  0  0  0
   37.9490   24.1130   30.4360 C   0  0  0  0  0  3  0  0  0  0  0  0
   37.4090   23.3830   31.0770 H   0  0  0  0  0  0  0  0  0  0  0  0
   33.1420   30.7680   35.7430 C   0  0  0  0  0  0  0  0  0  0  0  0
   34.4680   30.9950   35.3680 C   0  0  0  0  0  0  0  0  0  0  0  0
   35.2950   31.9220   35.9740 C   0  0  0  0  0  0  0  0  0  0  0  0
   34.8040   32.6810   37.0130 C   0  0  0  0  0  0  0  0  0  0  0  0
   33.5060   32.5240   37.4490 C   0  0  0  0  0  0  0  0  0  0  0  0
   32.7690   31.5910   36.7960 C   0  0  0  0  0  0  0  0  0  0  0  0
   36.3170   32.0610   35.6490 H   0  0  0  0  0  0  0  0  0  0  0  0
   35.4620   33.4050   37.4820 H   0  0  0  0  0  0  0  0  0  0  0  0
   33.0910   33.1050   38.2610 H   0  0  0  0  0  0  0  0  0  0  0  0
   31.7340   31.4710   37.1460 H   0  0  0  0  0  0  0  0  0  0  0  0
   32.1250   29.6440   35.0520 S   0  0  0  0  0  0  0  0  0  0  0  0
   30.7910   30.4240   35.3000 O   0  0  0  0  0  0  0  0  0  0  0  0
   32.1370   28.4260   35.9370 O   0  0  0  0  0  0  0  0  0  0  0  0
   31.4220   28.9570   33.7920 C   0  0  0  0  0  0  0  0  0  0  0  0
   31.0440   27.5980   33.7180 F   0  0  0  0  0  0  0  0  0  0  0  0
   32.4210   28.7220   32.7360 F   0  0  0  0  0  0  0  0  0  0  0  0
   30.7070   29.7200   32.8250 F   0  0  0  0  0  0  0  0  0  0  0  0
  1 13  1  0  0  0  0
  1  6  1  0  0  0  0
  2  1  2  0  0  0  0
  3  2  1  0  0  0  0
  3  4  2  0  0  0  0
  4  5  1  0  0  0  0
  5  6  2  0  0  0  0
  5 24  1  0  0  0  0
  7  2  1  0  0  0  0
  8  3  1  0  0  0  0
  9 15  1  0  0  0  0
 10 16  1  0  0  0  0
 10  9  2  0  0  0  0
 11 10  1  0  0  0  0
 12 11  2  0  0  0  0
 12 13  1  0  0  0  0
 13 14  2  0  0  0  0
 14  9  1  0  0  0  0
 17 11  1  0  0  0  0
 18 17  1  0  0  0  0
 19 18  1  0  0  0  0
 20 19  1  0  0  0  0
 20 21  1  0  0  0  0
 21 22  1  0  0  0  0
 21 17  1  0  0  0  0
 23 28  1  0  0  0  0
 24 23  2  0  0  0  0
 24 25  1  0  0  0  0
 25 26  2  0  0  0  0
 26 27  1  0  0  0  0
 26 30  1  0  0  0  0
 27 31  1  0  0  0  0
 28 32  1  0  0  0  0
 28 27  2  0  0  0  0
 29 25  1  0  0  0  0
 33 34  2  0  0  0  0
 33 23  1  0  0  0  0
 33 35  2  0  0  0  0
 36 33  1  0  0  0  0
 37 36  1  0  0  0  0
 38 36  1  0  0  0  0
 39 36  1  0  0  0  0
M  END
>  <minimizedAffinity>
-6.38567734

$$$$

 OpenBabel03272504293D

 39 42  0  0  0  0  0  0  0  0999 V2000
   37.7990   25.6790   32.8000 C   0  0  0  0  0  0  0  0  0  0  0  0
   37.0580   24.5800   32.5440 C   0  0  0  0  0  0  0  0  0  0  0  0
   37.5000   23.3570   32.8670 C   0  0  0  0  0  0  0  0  0  0  0  0
   38.7160   23.2280   33.4640 N   0  0  0  0  0  0  0  0  0  0  0  0
   39.4350   24.3170   33.7120 C   0  0  0  0  0  0  0  0  0  0  0  0
   39.0000   25.5460   33.3910 N   0  0  0  0  0  0  0  0  0  0  0  0
   36.0910   24.6870   32.0680 H   0  0  0  0  0  0  0  0  0  0  0  0
   36.9000   22.4820   32.6580 H   0  0  0  0  0  0  0  0  0  0  0  0
   37.1290   28.8140   31.0150 C   0  0  0  0  0  0  0  0  0  0  0  0
   36.4220   29.5650   31.9730 C   0  0  0  0  0  0  0  0  0  0  0  0
   36.1920   28.9730   33.2150 C   0  0  0  0  0  0  0  0  0  0  0  0
   36.6650   27.7170   33.4180 N   0  0  0  0  0  0  0  0  0  0  0  0
   37.3470   27.0170   32.4660 C   0  0  0  0  0  0  0  0  0  0  0  0
   37.5690   27.5770   31.2780 N   0  0  0  0  0  0  0  0  0  0  0  0
   37.2820   29.3060   30.0790 H   0  0  0  0  0  0  0  0  0  0  0  0
   36.0420   30.5600   31.8260 H   0  0  0  0  0  0  0  0  0  0  0  0
   35.5100   29.5650   34.2860 N   0  0  0  0  0  0  0  0  0  0  0  0
   35.9830   30.3820   35.3880 C   0  0  0  0  0  2  0  0  0  0  0  0
   34.8850   31.4200   35.4850 C   0  0  0  0  0  2  0  0  0  0  0  0
   33.6460   30.5830   35.3160 C   0  0  0  0  0  2  0  0  0  0  0  0
   34.0760   29.4230   34.4540 C   0  0  0  0  0  3  0  0  0  0  0  0
   33.5870   29.4870   33.4580 H   0  0  0  0  0  0  0  0  0  0  0  0
   40.7130   23.6210   35.6920 C   0  0  0  0  0  0  0  0  0  0  0  0
   40.6960   24.0700   34.3690 C   0  0  0  0  0  0  0  0  0  0  0  0
   41.8330   24.3270   33.6250 C   0  0  0  0  0  0  0  0  0  0  0  0
   43.0690   24.1380   34.2020 C   0  0  0  0  0  0  0  0  0  0  0  0
   43.1800   23.6990   35.5040 C   0  0  0  0  0  0  0  0  0  0  0  0
   42.0130   23.4710   36.1560 C   0  0  0  0  0  0  0  0  0  0  0  0
   41.7690   24.6730   32.6020 H   0  0  0  0  0  0  0  0  0  0  0  0
   43.9540   24.3440   33.6100 H   0  0  0  0  0  0  0  0  0  0  0  0
   44.1350   23.5420   35.9850 H   0  0  0  0  0  0  0  0  0  0  0  0
   42.1060   23.1210   37.1930 H   0  0  0  0  0  0  0  0  0  0  0  0
   39.3650   23.2780   36.6090 S   0  0  0  0  0  0  0  0  0  0  0  0
   40.1230   22.9690   37.9430 O   0  0  0  0  0  0  0  0  0  0  0  0
   38.7820   21.9920   36.0840 O   0  0  0  0  0  0  0  0  0  0  0  0
   38.1060   23.7110   37.4920 C   0  0  0  0  0  0  0  0  0  0  0  0
   37.1430   22.8230   38.0190 F   0  0  0  0  0  0  0  0  0  0  0  0
   37.0700   24.2950   36.6230 F   0  0  0  0  0  0  0  0  0  0  0  0
   38.0790   24.9440   38.2040 F   0  0  0  0  0  0  0  0  0  0  0  0
  1  6  1  0  0  0  0
  2  1  2  0  0  0  0
  2  3  1  0  0  0  0
  3  4  2  0  0  0  0
  4  5  1  0  0  0  0
  5 24  1  0  0  0  0
  6  5  2  0  0  0  0
  7  2  1  0  0  0  0
  8  3  1  0  0  0  0
  9 14  2  0  0  0  0
  9 10  1  0  0  0  0
 10 11  2  0  0  0  0
 11 12  1  0  0  0  0
 11 17  1  0  0  0  0
 13  1  1  0  0  0  0
 13 12  2  0  0  0  0
 14 13  1  0  0  0  0
 15  9  1  0  0  0  0
 16 10  1  0  0  0  0
 17 21  1  0  0  0  0
 17 18  1  0  0  0  0
 18 19  1  0  0  0  0
 20 19  1  0  0  0  0
 21 20  1  0  0  0  0
 22 21  1  0  0  0  0
 23 28  1  0  0  0  0
 23 33  1  0  0  0  0
 24 23  2  0  0  0  0
 25 26  2  0  0  0  0
 25 24  1  0  0  0  0
 26 27  1  0  0  0  0
 27 31  1  0  0  0  0
 27 28  2  0  0  0  0
 28 32  1  0  0  0  0
 29 25  1  0  0  0  0
 30 26  1  0  0  0  0
 33 36  1  0  0  0  0
 33 34  2  0  0  0  0
 35 33  2  0  0  0  0
 36 37  1  0  0  0  0
 36 39  1  0  0  0  0
 38 36  1  0  0  0  0
M  END
>  <minimizedAffinity>
-6.24237061

$$$$

 OpenBabel03272504293D

 39 42  0  0  0  0  0  0  0  0999 V2000
   34.8110   29.7350   31.9960 C   0  0  0  0  0  0  0  0  0  0  0  0
   34.3500   30.7600   31.2480 C   0  0  0  0  0  0  0  0  0  0  0  0
   33.1880   31.3590   31.5380 C   0  0  0  0  0  0  0  0  0  0  0  0
   32.4650   30.9230   32.6050 N   0  0  0  0  0  0  0  0  0  0  0  0
   32.9290   29.9140   33.3330 C   0  0  0  0  0  0  0  0  0  0  0  0
   34.0930   29.3080   33.0500 N   0  0  0  0  0  0  0  0  0  0  0  0
   34.9290   31.1040   30.4000 H   0  0  0  0  0  0  0  0  0  0  0  0
   32.8260   32.1800   30.9340 H   0  0  0  0  0  0  0  0  0  0  0  0
   37.9150   28.6420   30.3740 C   0  0  0  0  0  0  0  0  0  0  0  0
   38.4450   27.7350   31.3100 C   0  0  0  0  0  0  0  0  0  0  0  0
   37.7200   27.5200   32.4820 C   0  0  0  0  0  0  0  0  0  0  0  0
   36.5540   28.1960   32.6410 N   0  0  0  0  0  0  0  0  0  0  0  0
   36.0680   29.0690   31.7110 C   0  0  0  0  0  0  0  0  0  0  0  0
   36.7570   29.2780   30.5910 N   0  0  0  0  0  0  0  0  0  0  0  0
   38.5040   28.7760   29.4910 H   0  0  0  0  0  0  0  0  0  0  0  0
   39.3670   27.1930   31.1980 H   0  0  0  0  0  0  0  0  0  0  0  0
   38.0900   26.6580   33.5230 N   0  0  0  0  0  0  0  0  0  0  0  0
   37.8030   25.2540   33.7500 C   0  0  0  0  0  2  0  0  0  0  0  0
   39.1330   24.7580   34.2770 C   0  0  0  0  0  2  0  0  0  0  0  0
   39.5330   25.8650   35.2150 C   0  0  0  0  0  2  0  0  0  0  0  0
   38.9010   27.1080   34.6390 C   0  0  0  0  0  3  0  0  0  0  0  0
   39.6880   27.7950   34.2600 H   0  0  0  0  0  0  0  0  0  0  0  0
   32.2720   30.1840   35.6860 C   0  0  0  0  0  0  0  0  0  0  0  0
   32.0970   29.5470   34.4540 C   0  0  0  0  0  0  0  0  0  0  0  0
   31.1750   28.5420   34.2280 C   0  0  0  0  0  0  0  0  0  0  0  0
   30.3690   28.1250   35.2630 C   0  0  0  0  0  0  0  0  0  0  0  0
   30.4740   28.6970   36.5130 C   0  0  0  0  0  0  0  0  0  0  0  0
   31.4040   29.6760   36.6430 C   0  0  0  0  0  0  0  0  0  0  0  0
   31.0760   28.0800   33.2550 H   0  0  0  0  0  0  0  0  0  0  0  0
   29.6490   27.3360   35.0750 H   0  0  0  0  0  0  0  0  0  0  0  0
   29.8570   28.3910   37.3460 H   0  0  0  0  0  0  0  0  0  0  0  0
   31.4850   30.1280   37.6410 H   0  0  0  0  0  0  0  0  0  0  0  0
   33.3550   31.4130   35.9890 S   0  0  0  0  0  0  0  0  0  0  0  0
   33.2390   31.3810   37.5490 O   0  0  0  0  0  0  0  0  0  0  0  0
   32.7320   32.6900   35.4910 O   0  0  0  0  0  0  0  0  0  0  0  0
   34.8380   31.9810   36.1670 C   0  0  0  0  0  0  0  0  0  0  0  0
   35.9990   31.1860   36.2920 F   0  0  0  0  0  0  0  0  0  0  0  0
   35.0260   32.4470   37.5510 F   0  0  0  0  0  0  0  0  0  0  0  0
   35.1870   33.3030   35.7670 F   0  0  0  0  0  0  0  0  0  0  0  0
  1  6  1  0  0  0  0
  2  3  1  0  0  0  0
  2  1  2  0  0  0  0
  3  4  2  0  0  0  0
  4  5  1  0  0  0  0
  5 24  1  0  0  0  0
  6  5  2  0  0  0  0
  7  2  1  0  0  0  0
  8  3  1  0  0  0  0
  9 14  2  0  0  0  0
  9 10  1  0  0  0  0
 10 11  2  0  0  0  0
 11 12  1  0  0  0  0
 11 17  1  0  0  0  0
 13  1  1  0  0  0  0
 13 12  2  0  0  0  0
 14 13  1  0  0  0  0
 15  9  1  0  0  0  0
 16 10  1  0  0  0  0
 17 18  1  0  0  0  0
 17 21  1  0  0  0  0
 18 19  1  0  0  0  0
 19 20  1  0  0  0  0
 21 20  1  0  0  0  0
 22 21  1  0  0  0  0
 23 33  1  0  0  0  0
 23 28  1  0  0  0  0
 24 23  2  0  0  0  0
 25 24  1  0  0  0  0
 25 26  2  0  0  0  0
 26 27  1  0  0  0  0
 27 28  2  0  0  0  0
 27 31  1  0  0  0  0
 28 32  1  0  0  0  0
 29 25  1  0  0  0  0
 30 26  1  0  0  0  0
 33 36  1  0  0  0  0
 33 34  2  0  0  0  0
 35 33  2  0  0  0  0
 36 37  1  0  0  0  0
 36 38  1  0  0  0  0
 39 36  1  0  0  0  0
M  END
>  <minimizedAffinity>
-6.24170923

$$$$
