
 OpenBabel03272506103D

 41 44  0  0  0  0  0  0  0  0999 V2000
   37.5060   25.5760   33.1040 C   0  0  0  0  0  0  0  0  0  0  0  0
   38.0360   24.6940   32.1070 C   0  0  0  0  0  0  0  0  0  0  0  0
   38.8890   23.5070   33.1150 S   0  0  0  0  0  0  0  0  0  0  0  0
   38.4320   24.3360   34.7320 C   0  0  0  0  0  0  0  0  0  0  0  0
   37.7950   25.2540   34.3270 N   0  0  0  0  0  0  0  0  0  0  0  0
   38.7450   23.9910   36.1130 N   0  0  0  0  0  0  0  0  0  0  0  0
   39.9780   23.3250   36.3350 C   0  0  0  0  0  0  0  0  0  0  0  0
   40.0800   22.6280   37.6520 C   0  0  0  0  0  0  0  0  0  0  0  0
   38.8150   22.6180   38.4010 N   0  0  0  0  0  0  0  0  0  0  0  0
   38.4010   24.0100   38.4840 C   0  0  0  0  0  0  0  0  0  0  0  0
   37.7980   24.3410   37.1480 C   0  0  0  0  0  0  0  0  0  0  0  0
   37.9220   24.7720   31.0570 H   0  0  0  0  0  0  0  0  0  0  0  0
   40.0600   22.5190   35.5480 H   0  0  0  0  0  0  0  0  0  0  0  0
   40.8930   23.9480   36.1610 H   0  0  0  0  0  0  0  0  0  0  0  0
   40.4570   21.5770   37.5880 H   0  0  0  0  0  0  0  0  0  0  0  0
   40.8020   23.1760   38.3030 H   0  0  0  0  0  0  0  0  0  0  0  0
   38.1370   22.0940   37.7900 H   0  0  0  0  0  0  0  0  0  0  0  0
   37.5890   24.0450   39.2530 H   0  0  0  0  0  0  0  0  0  0  0  0
   39.2580   24.6700   38.7300 H   0  0  0  0  0  0  0  0  0  0  0  0
   37.4350   25.3870   37.0900 H   0  0  0  0  0  0  0  0  0  0  0  0
   36.9220   23.6690   37.0040 H   0  0  0  0  0  0  0  0  0  0  0  0
   36.6860   26.7660   32.6700 C   0  0  0  0  0  0  0  0  0  0  0  0
   36.9210   26.9810   31.5900 H   0  0  0  0  0  0  0  0  0  0  0  0
   35.6050   26.5000   32.6560 H   0  0  0  0  0  0  0  0  0  0  0  0
   36.9360   27.9500   33.5120 C   0  0  0  0  0  0  0  0  0  0  0  0
   37.3220   27.7140   34.5240 H   0  0  0  0  0  0  0  0  0  0  0  0
   37.7180   28.5910   33.0390 H   0  0  0  0  0  0  0  0  0  0  0  0
   33.6700   29.5620   32.7480 C   0  0  0  0  0  0  0  0  0  0  0  0
   33.4630   30.3940   33.8500 C   0  0  0  0  0  0  0  0  0  0  0  0
   34.4550   30.3760   34.8290 C   0  0  0  0  0  0  0  0  0  0  0  0
   35.5460   29.5970   34.7040 N   0  0  0  0  0  0  0  0  0  0  0  0
   35.6930   28.8020   33.5990 C   0  0  0  0  0  0  0  0  0  0  0  0
   34.7550   28.8020   32.6480 N   0  0  0  0  0  0  0  0  0  0  0  0
   32.9180   29.5540   31.9740 H   0  0  0  0  0  0  0  0  0  0  0  0
   32.5840   30.9890   33.8990 H   0  0  0  0  0  0  0  0  0  0  0  0
   34.3120   31.1940   35.9730 N   0  0  0  0  0  0  0  0  0  0  0  0
   35.2790   32.1010   36.5580 C   0  0  0  0  0  2  0  0  0  0  0  0
   34.4540   33.3590   36.7510 C   0  0  0  0  0  2  0  0  0  0  0  0
   33.1060   32.8110   37.1650 C   0  0  0  0  0  2  0  0  0  0  0  0
   33.1520   31.3150   36.8330 C   0  0  0  0  0  3  0  0  0  0  0  0
   32.2320   30.9510   36.3740 H   0  0  0  0  0  0  0  0  0  0  0  0
  1  5  1  0  0  0  0
  2  1  2  0  0  0  0
  2  3  1  0  0  0  0
  3  4  1  0  0  0  0
  4  6  1  0  0  0  0
  5  4  2  0  0  0  0
  6  7  1  0  0  0  0
  6 11  1  0  0  0  0
  7  8  1  0  0  0  0
  8 16  1  0  0  0  0
  8  9  1  0  0  0  0
  9 10  1  0  0  0  0
 10 19  1  0  0  0  0
 10 18  1  0  0  0  0
 11 10  1  0  0  0  0
 12  2  1  0  0  0  0
 13  7  1  0  0  0  0
 14  7  1  0  0  0  0
 15  8  1  0  0  0  0
 17  9  1  0  0  0  0
 20 11  1  0  0  0  0
 21 11  1  0  0  0  0
 22  1  1  0  0  0  0
 22 25  1  0  0  0  0
 23 22  1  0  0  0  0
 24 22  1  0  0  0  0
 25 32  1  0  0  0  0
 25 26  1  0  0  0  0
 27 25  1  0  0  0  0
 28 29  1  0  0  0  0
 29 35  1  0  0  0  0
 29 30  2  0  0  0  0
 30 36  1  0  0  0  0
 31 30  1  0  0  0  0
 32 31  2  0  0  0  0
 33 28  2  0  0  0  0
 33 32  1  0  0  0  0
 34 28  1  0  0  0  0
 36 37  1  0  0  0  0
 36 40  1  0  0  0  0
 37 38  1  0  0  0  0
 38 39  1  0  0  0  0
 40 39  1  0  0  0  0
 41 40  1  0  0  0  0
M  END
>  <minimizedAffinity>
-5.92385149

$$$$

 OpenBabel03272506103D

 41 44  0  0  0  0  0  0  0  0999 V2000
   37.2200   22.5260   32.6620 C   0  0  0  0  0  0  0  0  0  0  0  0
   38.1280   21.6800   31.9440 C   0  0  0  0  0  0  0  0  0  0  0  0
   39.3860   21.4090   33.1670 S   0  0  0  0  0  0  0  0  0  0  0  0
   38.5450   22.4540   34.4750 C   0  0  0  0  0  0  0  0  0  0  0  0
   37.5780   22.8030   33.8780 N   0  0  0  0  0  0  0  0  0  0  0  0
   38.9290   22.7760   35.8440 N   0  0  0  0  0  0  0  0  0  0  0  0
   40.3210   22.8350   36.1130 C   0  0  0  0  0  0  0  0  0  0  0  0
   40.6770   22.7500   37.5610 C   0  0  0  0  0  0  0  0  0  0  0  0
   39.5270   22.4480   38.4240 N   0  0  0  0  0  0  0  0  0  0  0  0
   38.5260   23.4560   38.1050 C   0  0  0  0  0  0  0  0  0  0  0  0
   37.8890   23.0110   36.8190 C   0  0  0  0  0  0  0  0  0  0  0  0
   38.0290   21.3360   30.9480 H   0  0  0  0  0  0  0  0  0  0  0  0
   40.7860   21.9290   35.6230 H   0  0  0  0  0  0  0  0  0  0  0  0
   40.8620   23.6910   35.6370 H   0  0  0  0  0  0  0  0  0  0  0  0
   41.4900   22.0160   37.7930 H   0  0  0  0  0  0  0  0  0  0  0  0
   41.0500   23.7430   37.9060 H   0  0  0  0  0  0  0  0  0  0  0  0
   39.1800   21.5080   38.1040 H   0  0  0  0  0  0  0  0  0  0  0  0
   37.7590   23.3960   38.9160 H   0  0  0  0  0  0  0  0  0  0  0  0
   38.9850   24.4630   38.0180 H   0  0  0  0  0  0  0  0  0  0  0  0
   37.0960   23.7050   36.4730 H   0  0  0  0  0  0  0  0  0  0  0  0
   37.4160   22.0220   37.0090 H   0  0  0  0  0  0  0  0  0  0  0  0
   35.9690   23.0120   31.9740 C   0  0  0  0  0  0  0  0  0  0  0  0
   35.4240   22.1170   31.5600 H   0  0  0  0  0  0  0  0  0  0  0  0
   35.2590   23.4300   32.7220 H   0  0  0  0  0  0  0  0  0  0  0  0
   36.2630   23.9890   30.9100 C   0  0  0  0  0  0  0  0  0  0  0  0
   37.2100   23.7980   30.3670 H   0  0  0  0  0  0  0  0  0  0  0  0
   35.4640   23.9530   30.1330 H   0  0  0  0  0  0  0  0  0  0  0  0
   35.3760   27.5460   31.5530 C   0  0  0  0  0  0  0  0  0  0  0  0
   36.2820   27.9230   32.5460 C   0  0  0  0  0  0  0  0  0  0  0  0
   37.1750   26.9410   32.9690 C   0  0  0  0  0  0  0  0  0  0  0  0
   37.1540   25.7020   32.4390 N   0  0  0  0  0  0  0  0  0  0  0  0
   36.2420   25.3920   31.4680 C   0  0  0  0  0  0  0  0  0  0  0  0
   35.3750   26.3180   31.0460 N   0  0  0  0  0  0  0  0  0  0  0  0
   34.6710   28.2860   31.2050 H   0  0  0  0  0  0  0  0  0  0  0  0
   36.2560   28.9140   32.9290 H   0  0  0  0  0  0  0  0  0  0  0  0
   38.1220   27.2510   33.9710 N   0  0  0  0  0  0  0  0  0  0  0  0
   37.8820   27.6910   35.3310 C   0  0  0  0  0  2  0  0  0  0  0  0
   38.7880   26.7690   36.1240 C   0  0  0  0  0  2  0  0  0  0  0  0
   40.0040   26.6490   35.2310 C   0  0  0  0  0  2  0  0  0  0  0  0
   39.5660   27.1990   33.8690 C   0  0  0  0  0  3  0  0  0  0  0  0
   39.9200   26.5950   33.0320 H   0  0  0  0  0  0  0  0  0  0  0  0
  1  5  1  0  0  0  0
  2  1  2  0  0  0  0
  2  3  1  0  0  0  0
  3  4  1  0  0  0  0
  4  6  1  0  0  0  0
  5  4  2  0  0  0  0
  6  7  1  0  0  0  0
  6 11  1  0  0  0  0
  7  8  1  0  0  0  0
  8 15  1  0  0  0  0
  8 16  1  0  0  0  0
  8  9  1  0  0  0  0
 10  9  1  0  0  0  0
 10 18  1  0  0  0  0
 11 21  1  0  0  0  0
 11 10  1  0  0  0  0
 12  2  1  0  0  0  0
 13  7  1  0  0  0  0
 14  7  1  0  0  0  0
 17  9  1  0  0  0  0
 19 10  1  0  0  0  0
 20 11  1  0  0  0  0
 22  1  1  0  0  0  0
 22 24  1  0  0  0  0
 23 22  1  0  0  0  0
 25 32  1  0  0  0  0
 25 22  1  0  0  0  0
 26 25  1  0  0  0  0
 27 25  1  0  0  0  0
 28 29  1  0  0  0  0
 29 35  1  0  0  0  0
 29 30  2  0  0  0  0
 30 36  1  0  0  0  0
 31 30  1  0  0  0  0
 32 31  2  0  0  0  0
 33 32  1  0  0  0  0
 33 28  2  0  0  0  0
 34 28  1  0  0  0  0
 36 37  1  0  0  0  0
 37 38  1  0  0  0  0
 39 38  1  0  0  0  0
 40 36  1  0  0  0  0
 40 39  1  0  0  0  0
 41 40  1  0  0  0  0
M  END
>  <minimizedAffinity>
-5.85550594

$$$$

 OpenBabel03272506103D

 41 44  0  0  0  0  0  0  0  0999 V2000
   36.9810   27.4000   34.2090 C   0  0  0  0  0  0  0  0  0  0  0  0
   37.3600   27.1400   32.8510 C   0  0  0  0  0  0  0  0  0  0  0  0
   38.3060   25.6490   33.0370 S   0  0  0  0  0  0  0  0  0  0  0  0
   38.0770   25.5620   34.8930 C   0  0  0  0  0  0  0  0  0  0  0  0
   37.4160   26.5330   35.0720 N   0  0  0  0  0  0  0  0  0  0  0  0
   38.5550   24.6000   35.8790 N   0  0  0  0  0  0  0  0  0  0  0  0
   39.7910   23.9640   35.5940 C   0  0  0  0  0  0  0  0  0  0  0  0
   40.0420   22.7170   36.3770 C   0  0  0  0  0  0  0  0  0  0  0  0
   38.8840   22.2890   37.1730 N   0  0  0  0  0  0  0  0  0  0  0  0
   38.5160   23.4450   37.9780 C   0  0  0  0  0  0  0  0  0  0  0  0
   37.7560   24.3600   37.0590 C   0  0  0  0  0  0  0  0  0  0  0  0
   37.1150   27.7160   31.9970 H   0  0  0  0  0  0  0  0  0  0  0  0
   39.7530   23.6490   34.5100 H   0  0  0  0  0  0  0  0  0  0  0  0
   40.6900   24.6300   35.6380 H   0  0  0  0  0  0  0  0  0  0  0  0
   40.3840   21.8480   35.7610 H   0  0  0  0  0  0  0  0  0  0  0  0
   40.8540   22.9070   37.1200 H   0  0  0  0  0  0  0  0  0  0  0  0
   38.1210   22.1020   36.4730 H   0  0  0  0  0  0  0  0  0  0  0  0
   37.8100   23.0650   38.7570 H   0  0  0  0  0  0  0  0  0  0  0  0
   39.4130   23.9360   38.4080 H   0  0  0  0  0  0  0  0  0  0  0  0
   37.4130   25.2850   37.5660 H   0  0  0  0  0  0  0  0  0  0  0  0
   36.8540   23.8080   36.7140 H   0  0  0  0  0  0  0  0  0  0  0  0
   36.1410   28.6140   34.5170 C   0  0  0  0  0  0  0  0  0  0  0  0
   35.2090   28.2720   35.0490 H   0  0  0  0  0  0  0  0  0  0  0  0
   36.6550   29.2530   35.2700 H   0  0  0  0  0  0  0  0  0  0  0  0
   35.8060   29.3800   33.3030 C   0  0  0  0  0  0  0  0  0  0  0  0
   36.3840   30.3180   33.1840 H   0  0  0  0  0  0  0  0  0  0  0  0
   36.0390   28.7720   32.3960 H   0  0  0  0  0  0  0  0  0  0  0  0
   32.4420   30.5390   32.2130 C   0  0  0  0  0  0  0  0  0  0  0  0
   31.6080   30.1100   33.2480 C   0  0  0  0  0  0  0  0  0  0  0  0
   32.2290   29.4310   34.2950 C   0  0  0  0  0  0  0  0  0  0  0  0
   33.5580   29.2100   34.2940 N   0  0  0  0  0  0  0  0  0  0  0  0
   34.3220   29.6560   33.2510 C   0  0  0  0  0  0  0  0  0  0  0  0
   33.7500   30.3080   32.2350 N   0  0  0  0  0  0  0  0  0  0  0  0
   31.9890   31.0670   31.3870 H   0  0  0  0  0  0  0  0  0  0  0  0
   30.5670   30.3110   33.1980 H   0  0  0  0  0  0  0  0  0  0  0  0
   31.4480   28.9670   35.3780 N   0  0  0  0  0  0  0  0  0  0  0  0
   30.5740   27.8130   35.4290 C   0  0  0  0  0  2  0  0  0  0  0  0
   31.0100   27.1440   36.7180 C   0  0  0  0  0  2  0  0  0  0  0  0
   31.2890   28.3220   37.6250 C   0  0  0  0  0  2  0  0  0  0  0  0
   31.3440   29.5460   36.7030 C   0  0  0  0  0  3  0  0  0  0  0  0
   32.1610   30.2260   36.9450 H   0  0  0  0  0  0  0  0  0  0  0  0
  1 22  1  0  0  0  0
  1  5  1  0  0  0  0
  2  3  1  0  0  0  0
  2  1  2  0  0  0  0
  3  4  1  0  0  0  0
  4  5  2  0  0  0  0
  4  6  1  0  0  0  0
  6 11  1  0  0  0  0
  7 14  1  0  0  0  0
  7  6  1  0  0  0  0
  7  8  1  0  0  0  0
  8 16  1  0  0  0  0
  8  9  1  0  0  0  0
  9 10  1  0  0  0  0
 10 19  1  0  0  0  0
 10 18  1  0  0  0  0
 11 20  1  0  0  0  0
 11 10  1  0  0  0  0
 12  2  1  0  0  0  0
 13  7  1  0  0  0  0
 15  8  1  0  0  0  0
 17  9  1  0  0  0  0
 21 11  1  0  0  0  0
 22 23  1  0  0  0  0
 22 24  1  0  0  0  0
 25 22  1  0  0  0  0
 26 25  1  0  0  0  0
 27 25  1  0  0  0  0
 28 33  2  0  0  0  0
 28 29  1  0  0  0  0
 29 30  2  0  0  0  0
 30 36  1  0  0  0  0
 31 30  1  0  0  0  0
 32 25  1  0  0  0  0
 32 31  2  0  0  0  0
 33 32  1  0  0  0  0
 34 28  1  0  0  0  0
 35 29  1  0  0  0  0
 36 37  1  0  0  0  0
 36 40  1  0  0  0  0
 37 38  1  0  0  0  0
 38 39  1  0  0  0  0
 40 41  1  0  0  0  0
 40 39  1  0  0  0  0
M  END
>  <minimizedAffinity>
-5.74481773

$$$$

 OpenBabel03272506103D

 41 44  0  0  0  0  0  0  0  0999 V2000
   39.0420   26.3860   33.3750 C   0  0  0  0  0  0  0  0  0  0  0  0
   38.4210   27.5420   33.9530 C   0  0  0  0  0  0  0  0  0  0  0  0
   38.1480   26.9900   35.6180 S   0  0  0  0  0  0  0  0  0  0  0  0
   38.8930   25.2950   35.3340 C   0  0  0  0  0  0  0  0  0  0  0  0
   39.1940   25.3850   34.1870 N   0  0  0  0  0  0  0  0  0  0  0  0
   39.0730   24.1600   36.2300 N   0  0  0  0  0  0  0  0  0  0  0  0
   38.1120   24.0110   37.2630 C   0  0  0  0  0  0  0  0  0  0  0  0
   38.5390   23.1220   38.3850 C   0  0  0  0  0  0  0  0  0  0  0  0
   39.9450   22.7050   38.2910 N   0  0  0  0  0  0  0  0  0  0  0  0
   40.0900   22.1190   36.9670 C   0  0  0  0  0  0  0  0  0  0  0  0
   40.1970   23.2770   36.0140 C   0  0  0  0  0  0  0  0  0  0  0  0
   38.2040   28.4590   33.4700 H   0  0  0  0  0  0  0  0  0  0  0  0
   37.9580   25.0340   37.7160 H   0  0  0  0  0  0  0  0  0  0  0  0
   37.0850   23.7240   36.9190 H   0  0  0  0  0  0  0  0  0  0  0  0
   38.3690   23.5530   39.4030 H   0  0  0  0  0  0  0  0  0  0  0  0
   37.9490   22.1750   38.3480 H   0  0  0  0  0  0  0  0  0  0  0  0
   40.5010   23.5980   38.3340 H   0  0  0  0  0  0  0  0  0  0  0  0
   41.0690   21.5800   36.9740 H   0  0  0  0  0  0  0  0  0  0  0  0
   39.2320   21.4570   36.7250 H   0  0  0  0  0  0  0  0  0  0  0  0
   40.3190   22.9530   34.9610 H   0  0  0  0  0  0  0  0  0  0  0  0
   41.1030   23.8560   36.2980 H   0  0  0  0  0  0  0  0  0  0  0  0
   39.4530   26.4210   31.9240 C   0  0  0  0  0  0  0  0  0  0  0  0
   38.8480   27.2160   31.4060 H   0  0  0  0  0  0  0  0  0  0  0  0
   40.5010   26.7850   31.8330 H   0  0  0  0  0  0  0  0  0  0  0  0
   39.2810   25.1130   31.2660 C   0  0  0  0  0  0  0  0  0  0  0  0
   39.7290   25.0520   30.2540 H   0  0  0  0  0  0  0  0  0  0  0  0
   39.7910   24.3200   31.8630 H   0  0  0  0  0  0  0  0  0  0  0  0
   35.5710   25.2740   31.0180 C   0  0  0  0  0  0  0  0  0  0  0  0
   35.1860   23.9410   31.1740 C   0  0  0  0  0  0  0  0  0  0  0  0
   36.2160   23.0220   31.3610 C   0  0  0  0  0  0  0  0  0  0  0  0
   37.5050   23.4110   31.3870 N   0  0  0  0  0  0  0  0  0  0  0  0
   37.8200   24.7340   31.2280 C   0  0  0  0  0  0  0  0  0  0  0  0
   36.8500   25.6340   31.0470 N   0  0  0  0  0  0  0  0  0  0  0  0
   34.7950   26.0100   30.8710 H   0  0  0  0  0  0  0  0  0  0  0  0
   34.1540   23.6890   31.1460 H   0  0  0  0  0  0  0  0  0  0  0  0
   35.9000   21.6540   31.5270 N   0  0  0  0  0  0  0  0  0  0  0  0
   36.4930   20.5060   30.8700 C   0  0  0  0  0  2  0  0  0  0  0  0
   36.7760   19.5850   32.0400 C   0  0  0  0  0  2  0  0  0  0  0  0
   35.5790   19.8100   32.9370 C   0  0  0  0  0  2  0  0  0  0  0  0
   34.9010   21.0780   32.4050 C   0  0  0  0  0  3  0  0  0  0  0  0
   34.5790   21.7550   33.1980 H   0  0  0  0  0  0  0  0  0  0  0  0
  1  2  2  0  0  0  0
  1  5  1  0  0  0  0
  2  3  1  0  0  0  0
  4  3  1  0  0  0  0
  4  6  1  0  0  0  0
  5  4  2  0  0  0  0
  6  7  1  0  0  0  0
  7 13  1  0  0  0  0
  7  8  1  0  0  0  0
  8 15  1  0  0  0  0
  9 17  1  0  0  0  0
  9  8  1  0  0  0  0
 10 18  1  0  0  0  0
 10  9  1  0  0  0  0
 11  6  1  0  0  0  0
 11 21  1  0  0  0  0
 11 10  1  0  0  0  0
 12  2  1  0  0  0  0
 14  7  1  0  0  0  0
 16  8  1  0  0  0  0
 19 10  1  0  0  0  0
 20 11  1  0  0  0  0
 22  1  1  0  0  0  0
 23 22  1  0  0  0  0
 24 22  1  0  0  0  0
 25 27  1  0  0  0  0
 25 22  1  0  0  0  0
 26 25  1  0  0  0  0
 28 33  2  0  0  0  0
 28 29  1  0  0  0  0
 29 30  2  0  0  0  0
 30 31  1  0  0  0  0
 30 36  1  0  0  0  0
 32 25  1  0  0  0  0
 32 31  2  0  0  0  0
 33 32  1  0  0  0  0
 34 28  1  0  0  0  0
 35 29  1  0  0  0  0
 36 40  1  0  0  0  0
 37 36  1  0  0  0  0
 37 38  1  0  0  0  0
 38 39  1  0  0  0  0
 40 39  1  0  0  0  0
 40 41  1  0  0  0  0
M  END
>  <minimizedAffinity>
-5.66527605

$$$$

 OpenBabel03272506103D

 41 44  0  0  0  0  0  0  0  0999 V2000
   38.1050   24.1600   30.9180 C   0  0  0  0  0  0  0  0  0  0  0  0
   39.2060   23.8330   30.0600 C   0  0  0  0  0  0  0  0  0  0  0  0
   39.0580   22.0660   29.9710 S   0  0  0  0  0  0  0  0  0  0  0  0
   37.5550   21.9890   31.0850 C   0  0  0  0  0  0  0  0  0  0  0  0
   37.4090   23.1440   31.3250 N   0  0  0  0  0  0  0  0  0  0  0  0
   36.7590   20.8600   31.5520 N   0  0  0  0  0  0  0  0  0  0  0  0
   37.4430   19.6270   31.7100 C   0  0  0  0  0  0  0  0  0  0  0  0
   36.5530   18.4280   31.7780 C   0  0  0  0  0  0  0  0  0  0  0  0
   35.1440   18.7360   31.4960 N   0  0  0  0  0  0  0  0  0  0  0  0
   34.7880   19.8070   32.4150 C   0  0  0  0  0  0  0  0  0  0  0  0
   35.3540   21.0650   31.8190 C   0  0  0  0  0  0  0  0  0  0  0  0
   39.8960   24.5040   29.6200 H   0  0  0  0  0  0  0  0  0  0  0  0
   38.0830   19.4890   30.7900 H   0  0  0  0  0  0  0  0  0  0  0  0
   38.1860   19.5980   32.5470 H   0  0  0  0  0  0  0  0  0  0  0  0
   36.8670   17.5850   31.1140 H   0  0  0  0  0  0  0  0  0  0  0  0
   36.5620   18.0230   32.8180 H   0  0  0  0  0  0  0  0  0  0  0  0
   35.1350   19.1110   30.5130 H   0  0  0  0  0  0  0  0  0  0  0  0
   33.6720   19.8770   32.3880 H   0  0  0  0  0  0  0  0  0  0  0  0
   35.1850   19.6110   33.4320 H   0  0  0  0  0  0  0  0  0  0  0  0
   35.1390   21.9630   32.4340 H   0  0  0  0  0  0  0  0  0  0  0  0
   34.8690   21.2090   30.8280 H   0  0  0  0  0  0  0  0  0  0  0  0
   37.8540   25.6050   31.2700 C   0  0  0  0  0  0  0  0  0  0  0  0
   38.8130   26.0450   31.6640 H   0  0  0  0  0  0  0  0  0  0  0  0
   37.6550   26.1940   30.3460 H   0  0  0  0  0  0  0  0  0  0  0  0
   36.7630   25.7570   32.2490 C   0  0  0  0  0  0  0  0  0  0  0  0
   35.9960   26.5050   31.9620 H   0  0  0  0  0  0  0  0  0  0  0  0
   36.2110   24.7930   32.3520 H   0  0  0  0  0  0  0  0  0  0  0  0
   38.1020   27.5550   35.2190 C   0  0  0  0  0  0  0  0  0  0  0  0
   38.3440   26.5250   36.1300 C   0  0  0  0  0  0  0  0  0  0  0  0
   38.0390   25.2360   35.6960 C   0  0  0  0  0  0  0  0  0  0  0  0
   37.5400   25.0140   34.4650 N   0  0  0  0  0  0  0  0  0  0  0  0
   37.3240   26.0660   33.6160 C   0  0  0  0  0  0  0  0  0  0  0  0
   37.6080   27.3100   34.0100 N   0  0  0  0  0  0  0  0  0  0  0  0
   38.3280   28.5650   35.5280 H   0  0  0  0  0  0  0  0  0  0  0  0
   38.7390   26.7560   37.0880 H   0  0  0  0  0  0  0  0  0  0  0  0
   38.2590   24.1430   36.5640 N   0  0  0  0  0  0  0  0  0  0  0  0
   39.0180   22.9340   36.3150 C   0  0  0  0  0  2  0  0  0  0  0  0
   39.8840   22.8450   37.5570 C   0  0  0  0  0  2  0  0  0  0  0  0
   38.9510   23.3240   38.6470 C   0  0  0  0  0  2  0  0  0  0  0  0
   37.7720   23.9800   37.9190 C   0  0  0  0  0  3  0  0  0  0  0  0
   37.4520   24.9150   38.3810 H   0  0  0  0  0  0  0  0  0  0  0  0
  1 22  1  0  0  0  0
  1  5  1  0  0  0  0
  2  1  2  0  0  0  0
  3  2  1  0  0  0  0
  3  4  1  0  0  0  0
  4  5  2  0  0  0  0
  4  6  1  0  0  0  0
  6  7  1  0  0  0  0
  6 11  1  0  0  0  0
  7  8  1  0  0  0  0
  7 14  1  0  0  0  0
  8 16  1  0  0  0  0
  9  8  1  0  0  0  0
  9 10  1  0  0  0  0
 10 19  1  0  0  0  0
 11 10  1  0  0  0  0
 11 20  1  0  0  0  0
 12  2  1  0  0  0  0
 13  7  1  0  0  0  0
 15  8  1  0  0  0  0
 17  9  1  0  0  0  0
 18 10  1  0  0  0  0
 21 11  1  0  0  0  0
 22 23  1  0  0  0  0
 22 25  1  0  0  0  0
 24 22  1  0  0  0  0
 25 27  1  0  0  0  0
 25 32  1  0  0  0  0
 26 25  1  0  0  0  0
 28 34  1  0  0  0  0
 28 29  1  0  0  0  0
 29 35  1  0  0  0  0
 30 29  2  0  0  0  0
 30 36  1  0  0  0  0
 31 30  1  0  0  0  0
 32 33  1  0  0  0  0
 32 31  2  0  0  0  0
 33 28  2  0  0  0  0
 36 40  1  0  0  0  0
 37 36  1  0  0  0  0
 37 38  1  0  0  0  0
 38 39  1  0  0  0  0
 40 41  1  0  0  0  0
 40 39  1  0  0  0  0
M  END
>  <minimizedAffinity>
-5.59635305

$$$$

 OpenBabel03272506103D

 41 44  0  0  0  0  0  0  0  0999 V2000
   40.0520   25.9240   32.9950 C   0  0  0  0  0  0  0  0  0  0  0  0
   41.0060   25.5500   31.9940 C   0  0  0  0  0  0  0  0  0  0  0  0
   41.8580   24.2220   32.8100 S   0  0  0  0  0  0  0  0  0  0  0  0
   40.8370   24.3350   34.3750 C   0  0  0  0  0  0  0  0  0  0  0  0
   40.1090   25.2310   34.0910 N   0  0  0  0  0  0  0  0  0  0  0  0
   40.8850   23.5680   35.6140 N   0  0  0  0  0  0  0  0  0  0  0  0
   42.1540   23.0610   35.9950 C   0  0  0  0  0  0  0  0  0  0  0  0
   42.1060   21.9600   37.0040 C   0  0  0  0  0  0  0  0  0  0  0  0
   40.7420   21.4910   37.2850 N   0  0  0  0  0  0  0  0  0  0  0  0
   39.9890   22.6820   37.6510 C   0  0  0  0  0  0  0  0  0  0  0  0
   39.6620   23.3760   36.3600 C   0  0  0  0  0  0  0  0  0  0  0  0
   41.1310   25.9820   31.0360 H   0  0  0  0  0  0  0  0  0  0  0  0
   42.6190   22.6130   35.0670 H   0  0  0  0  0  0  0  0  0  0  0  0
   42.9010   23.8340   36.3090 H   0  0  0  0  0  0  0  0  0  0  0  0
   42.7350   21.0710   36.7450 H   0  0  0  0  0  0  0  0  0  0  0  0
   42.4930   22.3390   37.9800 H   0  0  0  0  0  0  0  0  0  0  0  0
   40.3800   21.1270   36.3660 H   0  0  0  0  0  0  0  0  0  0  0  0
   39.0340   22.3150   38.1040 H   0  0  0  0  0  0  0  0  0  0  0  0
   40.5730   23.3300   38.3380 H   0  0  0  0  0  0  0  0  0  0  0  0
   39.0770   24.3060   36.5110 H   0  0  0  0  0  0  0  0  0  0  0  0
   39.0400   22.6770   35.7570 H   0  0  0  0  0  0  0  0  0  0  0  0
   39.0930   27.0530   32.7090 C   0  0  0  0  0  0  0  0  0  0  0  0
   39.5790   28.0180   33.0260 H   0  0  0  0  0  0  0  0  0  0  0  0
   38.9610   27.1730   31.6100 H   0  0  0  0  0  0  0  0  0  0  0  0
   37.7970   26.8660   33.3870 C   0  0  0  0  0  0  0  0  0  0  0  0
   37.8740   26.4180   34.3980 H   0  0  0  0  0  0  0  0  0  0  0  0
   37.3050   27.8560   33.5400 H   0  0  0  0  0  0  0  0  0  0  0  0
   35.2070   25.9070   30.8930 C   0  0  0  0  0  0  0  0  0  0  0  0
   35.1920   24.5130   30.9730 C   0  0  0  0  0  0  0  0  0  0  0  0
   36.0750   23.9400   31.8860 C   0  0  0  0  0  0  0  0  0  0  0  0
   36.8910   24.7010   32.6400 N   0  0  0  0  0  0  0  0  0  0  0  0
   36.8610   26.0640   32.5170 C   0  0  0  0  0  0  0  0  0  0  0  0
   36.0220   26.6360   31.6480 N   0  0  0  0  0  0  0  0  0  0  0  0
   34.5340   26.3800   30.1940 H   0  0  0  0  0  0  0  0  0  0  0  0
   34.5270   23.9620   30.3550 H   0  0  0  0  0  0  0  0  0  0  0  0
   36.1140   22.5340   32.0220 N   0  0  0  0  0  0  0  0  0  0  0  0
   36.7460   21.7470   33.0610 C   0  0  0  0  0  2  0  0  0  0  0  0
   35.6400   20.7820   33.4420 C   0  0  0  0  0  2  0  0  0  0  0  0
   34.9900   20.4800   32.1100 C   0  0  0  0  0  2  0  0  0  0  0  0
   35.5220   21.5450   31.1440 C   0  0  0  0  0  3  0  0  0  0  0  0
   34.7490   21.9530   30.4900 H   0  0  0  0  0  0  0  0  0  0  0  0
  1  5  1  0  0  0  0
  2  3  1  0  0  0  0
  2  1  2  0  0  0  0
  3  4  1  0  0  0  0
  4  6  1  0  0  0  0
  5  4  2  0  0  0  0
  6  7  1  0  0  0  0
  6 11  1  0  0  0  0
  7 14  1  0  0  0  0
  7  8  1  0  0  0  0
  8  9  1  0  0  0  0
  8 16  1  0  0  0  0
  9 10  1  0  0  0  0
 10 18  1  0  0  0  0
 10 19  1  0  0  0  0
 11 20  1  0  0  0  0
 11 10  1  0  0  0  0
 12  2  1  0  0  0  0
 13  7  1  0  0  0  0
 15  8  1  0  0  0  0
 17  9  1  0  0  0  0
 21 11  1  0  0  0  0
 22  1  1  0  0  0  0
 22 23  1  0  0  0  0
 22 25  1  0  0  0  0
 24 22  1  0  0  0  0
 25 27  1  0  0  0  0
 25 26  1  0  0  0  0
 28 29  2  0  0  0  0
 28 33  1  0  0  0  0
 29 30  1  0  0  0  0
 30 36  1  0  0  0  0
 30 31  2  0  0  0  0
 32 31  1  0  0  0  0
 32 25  1  0  0  0  0
 33 32  2  0  0  0  0
 34 28  1  0  0  0  0
 35 29  1  0  0  0  0
 36 37  1  0  0  0  0
 37 38  1  0  0  0  0
 39 38  1  0  0  0  0
 40 36  1  0  0  0  0
 40 39  1  0  0  0  0
 41 40  1  0  0  0  0
M  END
>  <minimizedAffinity>
-5.59031582

$$$$

 OpenBabel03272506103D

 41 44  0  0  0  0  0  0  0  0999 V2000
   35.3200   29.4020   33.6660 C   0  0  0  0  0  0  0  0  0  0  0  0
   35.5640   30.7670   33.3030 C   0  0  0  0  0  0  0  0  0  0  0  0
   34.0990   31.5550   33.9260 S   0  0  0  0  0  0  0  0  0  0  0  0
   33.3520   29.9710   34.5880 C   0  0  0  0  0  0  0  0  0  0  0  0
   34.1980   29.1930   34.2840 N   0  0  0  0  0  0  0  0  0  0  0  0
   32.0970   29.7150   35.2840 N   0  0  0  0  0  0  0  0  0  0  0  0
   31.0110   30.5700   34.9640 C   0  0  0  0  0  0  0  0  0  0  0  0
   29.8990   30.5620   35.9620 C   0  0  0  0  0  0  0  0  0  0  0  0
   30.2160   29.7970   37.1760 N   0  0  0  0  0  0  0  0  0  0  0  0
   30.6220   28.4790   36.7100 C   0  0  0  0  0  0  0  0  0  0  0  0
   32.0390   28.6280   36.2350 C   0  0  0  0  0  0  0  0  0  0  0  0
   36.4090   31.1530   32.7970 H   0  0  0  0  0  0  0  0  0  0  0  0
   31.4170   31.6250   34.9580 H   0  0  0  0  0  0  0  0  0  0  0  0
   30.5970   30.4490   33.9310 H   0  0  0  0  0  0  0  0  0  0  0  0
   29.5510   31.5790   36.2700 H   0  0  0  0  0  0  0  0  0  0  0  0
   29.0110   30.0530   35.5170 H   0  0  0  0  0  0  0  0  0  0  0  0
   31.0490   30.2820   37.5990 H   0  0  0  0  0  0  0  0  0  0  0  0
   30.6220   27.8200   37.6140 H   0  0  0  0  0  0  0  0  0  0  0  0
   29.9490   28.1120   35.9080 H   0  0  0  0  0  0  0  0  0  0  0  0
   32.4660   27.6770   35.8580 H   0  0  0  0  0  0  0  0  0  0  0  0
   32.6490   28.9510   37.1090 H   0  0  0  0  0  0  0  0  0  0  0  0
   36.3470   28.3550   33.3140 C   0  0  0  0  0  0  0  0  0  0  0  0
   35.8450   27.5650   32.6880 H   0  0  0  0  0  0  0  0  0  0  0  0
   37.1130   28.7860   32.6300 H   0  0  0  0  0  0  0  0  0  0  0  0
   36.9700   27.7630   34.5120 C   0  0  0  0  0  0  0  0  0  0  0  0
   37.8250   28.3440   34.9130 H   0  0  0  0  0  0  0  0  0  0  0  0
   36.2260   27.7190   35.3420 H   0  0  0  0  0  0  0  0  0  0  0  0
   37.8080   24.5720   32.7900 C   0  0  0  0  0  0  0  0  0  0  0  0
   38.1290   23.7170   33.8460 C   0  0  0  0  0  0  0  0  0  0  0  0
   38.0480   24.2640   35.1260 C   0  0  0  0  0  0  0  0  0  0  0  0
   37.6800   25.5460   35.3160 N   0  0  0  0  0  0  0  0  0  0  0  0
   37.3770   26.3350   34.2390 C   0  0  0  0  0  0  0  0  0  0  0  0
   37.4480   25.8330   33.0030 N   0  0  0  0  0  0  0  0  0  0  0  0
   37.8620   24.1770   31.7860 H   0  0  0  0  0  0  0  0  0  0  0  0
   38.4130   22.7150   33.6400 H   0  0  0  0  0  0  0  0  0  0  0  0
   38.3580   23.4570   36.2440 N   0  0  0  0  0  0  0  0  0  0  0  0
   39.3690   22.4260   36.3580 C   0  0  0  0  0  2  0  0  0  0  0  0
   40.0540   22.7980   37.6580 C   0  0  0  0  0  2  0  0  0  0  0  0
   38.9020   23.2740   38.5160 C   0  0  0  0  0  2  0  0  0  0  0  0
   37.7290   23.4790   37.5490 C   0  0  0  0  0  3  0  0  0  0  0  0
   37.1690   24.3940   37.7460 H   0  0  0  0  0  0  0  0  0  0  0  0
  1  5  1  0  0  0  0
  2  1  2  0  0  0  0
  2  3  1  0  0  0  0
  3  4  1  0  0  0  0
  4  6  1  0  0  0  0
  5  4  2  0  0  0  0
  6 11  1  0  0  0  0
  7  6  1  0  0  0  0
  7  8  1  0  0  0  0
  8 15  1  0  0  0  0
  8  9  1  0  0  0  0
  9 17  1  0  0  0  0
 10  9  1  0  0  0  0
 10 18  1  0  0  0  0
 11 10  1  0  0  0  0
 11 21  1  0  0  0  0
 12  2  1  0  0  0  0
 13  7  1  0  0  0  0
 14  7  1  0  0  0  0
 16  8  1  0  0  0  0
 19 10  1  0  0  0  0
 20 11  1  0  0  0  0
 22  1  1  0  0  0  0
 22 25  1  0  0  0  0
 23 22  1  0  0  0  0
 24 22  1  0  0  0  0
 25 26  1  0  0  0  0
 25 27  1  0  0  0  0
 28 33  2  0  0  0  0
 28 29  1  0  0  0  0
 29 30  2  0  0  0  0
 30 31  1  0  0  0  0
 30 36  1  0  0  0  0
 32 25  1  0  0  0  0
 32 31  2  0  0  0  0
 33 32  1  0  0  0  0
 34 28  1  0  0  0  0
 35 29  1  0  0  0  0
 36 37  1  0  0  0  0
 36 40  1  0  0  0  0
 37 38  1  0  0  0  0
 38 39  1  0  0  0  0
 40 41  1  0  0  0  0
 40 39  1  0  0  0  0
M  END
>  <minimizedAffinity>
-5.57725048

$$$$

 OpenBabel03272506103D

 41 44  0  0  0  0  0  0  0  0999 V2000
   37.4880   23.8330   32.6460 C   0  0  0  0  0  0  0  0  0  0  0  0
   38.1940   22.8160   31.9230 C   0  0  0  0  0  0  0  0  0  0  0  0
   39.1700   22.0900   33.2160 S   0  0  0  0  0  0  0  0  0  0  0  0
   38.5150   23.2290   34.5500 C   0  0  0  0  0  0  0  0  0  0  0  0
   37.7640   23.8940   33.9120 N   0  0  0  0  0  0  0  0  0  0  0  0
   38.8110   23.3140   35.9750 N   0  0  0  0  0  0  0  0  0  0  0  0
   40.1200   22.9380   36.3720 C   0  0  0  0  0  0  0  0  0  0  0  0
   40.2650   22.6370   37.8280 C   0  0  0  0  0  0  0  0  0  0  0  0
   38.9830   22.6210   38.5460 N   0  0  0  0  0  0  0  0  0  0  0  0
   38.3560   23.9010   38.2520 C   0  0  0  0  0  0  0  0  0  0  0  0
   37.7740   23.7670   36.8740 C   0  0  0  0  0  0  0  0  0  0  0  0
   38.1190   22.5970   30.8900 H   0  0  0  0  0  0  0  0  0  0  0  0
   40.3630   21.9780   35.8290 H   0  0  0  0  0  0  0  0  0  0  0  0
   40.9350   23.6320   36.0430 H   0  0  0  0  0  0  0  0  0  0  0  0
   40.8020   21.6810   38.0490 H   0  0  0  0  0  0  0  0  0  0  0  0
   40.8630   23.4460   38.3120 H   0  0  0  0  0  0  0  0  0  0  0  0
   38.4230   21.8530   38.0950 H   0  0  0  0  0  0  0  0  0  0  0  0
   37.5130   24.0050   38.9800 H   0  0  0  0  0  0  0  0  0  0  0  0
   39.0890   24.7310   38.3180 H   0  0  0  0  0  0  0  0  0  0  0  0
   37.2570   24.6890   36.5370 H   0  0  0  0  0  0  0  0  0  0  0  0
   37.0200   22.9490   36.9110 H   0  0  0  0  0  0  0  0  0  0  0  0
   36.5160   24.7180   31.9060 C   0  0  0  0  0  0  0  0  0  0  0  0
   36.1740   24.1720   30.9820 H   0  0  0  0  0  0  0  0  0  0  0  0
   35.5830   24.8410   32.5000 H   0  0  0  0  0  0  0  0  0  0  0  0
   37.1070   26.0230   31.5590 C   0  0  0  0  0  0  0  0  0  0  0  0
   38.2150   26.0220   31.5110 H   0  0  0  0  0  0  0  0  0  0  0  0
   36.7680   26.3340   30.5430 H   0  0  0  0  0  0  0  0  0  0  0  0
   36.6730   28.1980   34.5480 C   0  0  0  0  0  0  0  0  0  0  0  0
   35.6490   29.0650   34.1630 C   0  0  0  0  0  0  0  0  0  0  0  0
   35.1340   28.8770   32.8810 C   0  0  0  0  0  0  0  0  0  0  0  0
   35.6080   27.9090   32.0730 N   0  0  0  0  0  0  0  0  0  0  0  0
   36.6150   27.0900   32.5080 C   0  0  0  0  0  0  0  0  0  0  0  0
   37.1250   27.2510   33.7320 N   0  0  0  0  0  0  0  0  0  0  0  0
   37.0930   28.3200   35.5360 H   0  0  0  0  0  0  0  0  0  0  0  0
   35.3120   29.8100   34.8400 H   0  0  0  0  0  0  0  0  0  0  0  0
   34.0940   29.7170   32.4230 N   0  0  0  0  0  0  0  0  0  0  0  0
   32.6810   29.6560   32.7400 C   0  0  0  0  0  2  0  0  0  0  0  0
   32.3760   31.0980   33.0960 C   0  0  0  0  0  2  0  0  0  0  0  0
   33.2250   31.8700   32.1090 C   0  0  0  0  0  2  0  0  0  0  0  0
   34.2040   30.8460   31.5220 C   0  0  0  0  0  3  0  0  0  0  0  0
   35.2200   31.2320   31.4310 H   0  0  0  0  0  0  0  0  0  0  0  0
  1  5  1  0  0  0  0
  2  1  2  0  0  0  0
  2  3  1  0  0  0  0
  3  4  1  0  0  0  0
  4  6  1  0  0  0  0
  5  4  2  0  0  0  0
  6  7  1  0  0  0  0
  6 11  1  0  0  0  0
  7  8  1  0  0  0  0
  8 15  1  0  0  0  0
  8 16  1  0  0  0  0
  8  9  1  0  0  0  0
 10 19  1  0  0  0  0
 10  9  1  0  0  0  0
 10 18  1  0  0  0  0
 11 21  1  0  0  0  0
 11 10  1  0  0  0  0
 12  2  1  0  0  0  0
 13  7  1  0  0  0  0
 14  7  1  0  0  0  0
 17  9  1  0  0  0  0
 20 11  1  0  0  0  0
 22 24  1  0  0  0  0
 22  1  1  0  0  0  0
 23 22  1  0  0  0  0
 25 22  1  0  0  0  0
 25 32  1  0  0  0  0
 26 25  1  0  0  0  0
 27 25  1  0  0  0  0
 28 34  1  0  0  0  0
 29 28  1  0  0  0  0
 29 35  1  0  0  0  0
 30 29  2  0  0  0  0
 31 32  2  0  0  0  0
 31 30  1  0  0  0  0
 32 33  1  0  0  0  0
 33 28  2  0  0  0  0
 36 37  1  0  0  0  0
 36 30  1  0  0  0  0
 37 38  1  0  0  0  0
 39 38  1  0  0  0  0
 40 39  1  0  0  0  0
 40 36  1  0  0  0  0
 41 40  1  0  0  0  0
M  END
>  <minimizedAffinity>
-5.48222923

$$$$

 OpenBabel03272506103D

 41 44  0  0  0  0  0  0  0  0999 V2000
   37.2880   22.8730   32.6730 C   0  0  0  0  0  0  0  0  0  0  0  0
   38.1190   21.9220   31.9940 C   0  0  0  0  0  0  0  0  0  0  0  0
   39.2750   21.4990   33.2740 S   0  0  0  0  0  0  0  0  0  0  0  0
   38.5060   22.6390   34.5460 C   0  0  0  0  0  0  0  0  0  0  0  0
   37.6190   23.1030   33.9060 N   0  0  0  0  0  0  0  0  0  0  0  0
   38.8610   22.9130   35.9330 N   0  0  0  0  0  0  0  0  0  0  0  0
   40.2350   22.8010   36.2680 C   0  0  0  0  0  0  0  0  0  0  0  0
   40.5090   22.6730   37.7310 C   0  0  0  0  0  0  0  0  0  0  0  0
   39.2900   22.5150   38.5370 N   0  0  0  0  0  0  0  0  0  0  0  0
   38.4360   23.6370   38.1770 C   0  0  0  0  0  0  0  0  0  0  0  0
   37.8120   23.2730   36.8600 C   0  0  0  0  0  0  0  0  0  0  0  0
   38.0270   21.5920   30.9920 H   0  0  0  0  0  0  0  0  0  0  0  0
   40.6090   21.8450   35.7960 H   0  0  0  0  0  0  0  0  0  0  0  0
   40.8990   23.5850   35.8230 H   0  0  0  0  0  0  0  0  0  0  0  0
   41.2140   21.8460   37.9970 H   0  0  0  0  0  0  0  0  0  0  0  0
   40.9830   23.6140   38.0990 H   0  0  0  0  0  0  0  0  0  0  0  0
   38.8470   21.6230   38.1950 H   0  0  0  0  0  0  0  0  0  0  0  0
   37.6290   23.6710   38.9500 H   0  0  0  0  0  0  0  0  0  0  0  0
   39.0180   24.5800   38.1170 H   0  0  0  0  0  0  0  0  0  0  0  0
   37.1260   24.0580   36.4800 H   0  0  0  0  0  0  0  0  0  0  0  0
   37.2130   22.3490   37.0210 H   0  0  0  0  0  0  0  0  0  0  0  0
   36.1400   23.5070   31.9280 C   0  0  0  0  0  0  0  0  0  0  0  0
   35.3940   22.7010   31.6780 H   0  0  0  0  0  0  0  0  0  0  0  0
   35.5750   24.1870   32.6050 H   0  0  0  0  0  0  0  0  0  0  0  0
   36.5860   24.2100   30.7120 C   0  0  0  0  0  0  0  0  0  0  0  0
   37.3650   23.6710   30.1360 H   0  0  0  0  0  0  0  0  0  0  0  0
   35.7280   24.3290   30.0090 H   0  0  0  0  0  0  0  0  0  0  0  0
   38.5860   27.3400   30.9320 C   0  0  0  0  0  0  0  0  0  0  0  0
   37.7920   28.1670   31.7300 C   0  0  0  0  0  0  0  0  0  0  0  0
   36.5870   27.6230   32.1700 C   0  0  0  0  0  0  0  0  0  0  0  0
   36.2230   26.3700   31.8380 N   0  0  0  0  0  0  0  0  0  0  0  0
   37.0450   25.6070   31.0530 C   0  0  0  0  0  0  0  0  0  0  0  0
   38.2050   26.1070   30.6180 N   0  0  0  0  0  0  0  0  0  0  0  0
   39.5260   27.7350   30.5750 H   0  0  0  0  0  0  0  0  0  0  0  0
   38.1270   29.1480   31.9620 H   0  0  0  0  0  0  0  0  0  0  0  0
   35.7320   28.4030   32.9820 N   0  0  0  0  0  0  0  0  0  0  0  0
   35.9000   28.7690   34.3740 C   0  0  0  0  0  2  0  0  0  0  0  0
   35.6300   30.2610   34.3410 C   0  0  0  0  0  2  0  0  0  0  0  0
   34.5150   30.3750   33.3260 C   0  0  0  0  0  2  0  0  0  0  0  0
   34.4790   29.0230   32.6040 C   0  0  0  0  0  3  0  0  0  0  0  0
   34.3510   29.1200   31.5250 H   0  0  0  0  0  0  0  0  0  0  0  0
  1  5  1  0  0  0  0
  2  1  2  0  0  0  0
  2  3  1  0  0  0  0
  3  4  1  0  0  0  0
  4  6  1  0  0  0  0
  5  4  2  0  0  0  0
  6  7  1  0  0  0  0
  6 11  1  0  0  0  0
  7  8  1  0  0  0  0
  8 15  1  0  0  0  0
  8 16  1  0  0  0  0
  8  9  1  0  0  0  0
 10  9  1  0  0  0  0
 10 18  1  0  0  0  0
 11 21  1  0  0  0  0
 11 10  1  0  0  0  0
 12  2  1  0  0  0  0
 13  7  1  0  0  0  0
 14  7  1  0  0  0  0
 17  9  1  0  0  0  0
 19 10  1  0  0  0  0
 20 11  1  0  0  0  0
 22 24  1  0  0  0  0
 22  1  1  0  0  0  0
 23 22  1  0  0  0  0
 25 32  1  0  0  0  0
 25 22  1  0  0  0  0
 26 25  1  0  0  0  0
 27 25  1  0  0  0  0
 28 29  1  0  0  0  0
 29 35  1  0  0  0  0
 29 30  2  0  0  0  0
 30 36  1  0  0  0  0
 31 30  1  0  0  0  0
 32 31  2  0  0  0  0
 33 28  2  0  0  0  0
 33 32  1  0  0  0  0
 34 28  1  0  0  0  0
 36 37  1  0  0  0  0
 38 37  1  0  0  0  0
 39 38  1  0  0  0  0
 40 36  1  0  0  0  0
 40 39  1  0  0  0  0
 41 40  1  0  0  0  0
M  END
>  <minimizedAffinity>
-5.44943905

$$$$
