
 OpenBabel03272504263D

 39 42  0  0  0  0  0  0  0  0999 V2000
   35.7610   29.7380   48.2680 C   0  0  0  0  0  0  0  0  0  0  0  0
   35.5050   28.8990   49.2940 C   0  0  0  0  0  0  0  0  0  0  0  0
   34.6310   27.8930   49.1630 C   0  0  0  0  0  0  0  0  0  0  0  0
   33.9930   27.7190   47.9740 N   0  0  0  0  0  0  0  0  0  0  0  0
   34.2540   28.5500   46.9710 C   0  0  0  0  0  0  0  0  0  0  0  0
   35.1290   29.5620   47.0940 N   0  0  0  0  0  0  0  0  0  0  0  0
   36.0150   29.0410   50.2390 H   0  0  0  0  0  0  0  0  0  0  0  0
   34.4320   27.2260   49.9910 H   0  0  0  0  0  0  0  0  0  0  0  0
   37.6240   32.6600   49.4740 C   0  0  0  0  0  0  0  0  0  0  0  0
   38.5630   32.8680   48.4470 C   0  0  0  0  0  0  0  0  0  0  0  0
   38.5320   31.9960   47.3580 C   0  0  0  0  0  0  0  0  0  0  0  0
   37.6020   31.0080   47.3620 N   0  0  0  0  0  0  0  0  0  0  0  0
   36.7060   30.8340   48.3760 C   0  0  0  0  0  0  0  0  0  0  0  0
   36.7310   31.6640   49.4170 N   0  0  0  0  0  0  0  0  0  0  0  0
   37.6840   33.3510   50.2870 H   0  0  0  0  0  0  0  0  0  0  0  0
   39.3050   33.6460   48.4310 H   0  0  0  0  0  0  0  0  0  0  0  0
   39.3850   32.0480   46.2480 N   0  0  0  0  0  0  0  0  0  0  0  0
   40.5170   31.2220   45.8710 C   0  0  0  0  0  2  0  0  0  0  0  0
   40.3030   31.0840   44.3780 C   0  0  0  0  0  2  0  0  0  0  0  0
   39.9060   32.4830   43.9880 C   0  0  0  0  0  2  0  0  0  0  0  0
   39.2310   33.0500   45.2100 C   0  0  0  0  0  3  0  0  0  0  0  0
   38.1490   33.2040   45.0130 H   0  0  0  0  0  0  0  0  0  0  0  0
   32.1770   27.9690   45.7940 C   0  0  0  0  0  0  0  0  0  0  0  0
   33.5420   28.2620   45.7490 C   0  0  0  0  0  0  0  0  0  0  0  0
   34.2930   28.2720   44.5880 C   0  0  0  0  0  0  0  0  0  0  0  0
   33.6800   27.9780   43.3900 C   0  0  0  0  0  0  0  0  0  0  0  0
   32.3360   27.6760   43.3410 C   0  0  0  0  0  0  0  0  0  0  0  0
   31.6800   27.6910   44.5280 C   0  0  0  0  0  0  0  0  0  0  0  0
   35.3490   28.5060   44.6030 H   0  0  0  0  0  0  0  0  0  0  0  0
   34.2780   27.9880   42.4860 H   0  0  0  0  0  0  0  0  0  0  0  0
   31.8270   27.4390   42.4180 H   0  0  0  0  0  0  0  0  0  0  0  0
   30.6090   27.4490   44.4840 H   0  0  0  0  0  0  0  0  0  0  0  0
   31.2370   27.9710   47.1700 S   0  0  0  0  0  0  0  0  0  0  0  0
   30.3530   26.7360   46.7910 O   0  0  0  0  0  0  0  0  0  0  0  0
   30.3760   29.2050   47.1210 O   0  0  0  0  0  0  0  0  0  0  0  0
   30.9750   27.6160   48.7050 C   0  0  0  0  0  0  0  0  0  0  0  0
   30.5640   26.3520   49.1850 F   0  0  0  0  0  0  0  0  0  0  0  0
   29.6830   28.1810   49.1300 F   0  0  0  0  0  0  0  0  0  0  0  0
   31.5560   28.3770   49.7600 F   0  0  0  0  0  0  0  0  0  0  0  0
  1 13  1  0  0  0  0
  1  2  1  0  0  0  0
  2  7  1  0  0  0  0
  3  2  2  0  0  0  0
  3  8  1  0  0  0  0
  4  3  1  0  0  0  0
  5  6  1  0  0  0  0
  5  4  2  0  0  0  0
  6  1  2  0  0  0  0
  9 15  1  0  0  0  0
 10  9  2  0  0  0  0
 11 12  2  0  0  0  0
 11 10  1  0  0  0  0
 12 13  1  0  0  0  0
 13 14  2  0  0  0  0
 14  9  1  0  0  0  0
 16 10  1  0  0  0  0
 17 11  1  0  0  0  0
 18 17  1  0  0  0  0
 19 18  1  0  0  0  0
 20 19  1  0  0  0  0
 20 21  1  0  0  0  0
 21 17  1  0  0  0  0
 22 21  1  0  0  0  0
 23 33  1  0  0  0  0
 24 23  1  0  0  0  0
 24  5  1  0  0  0  0
 25 29  1  0  0  0  0
 25 24  2  0  0  0  0
 26 25  1  0  0  0  0
 27 26  2  0  0  0  0
 27 28  1  0  0  0  0
 28 23  2  0  0  0  0
 30 26  1  0  0  0  0
 31 27  1  0  0  0  0
 32 28  1  0  0  0  0
 33 36  1  0  0  0  0
 34 33  2  0  0  0  0
 35 33  2  0  0  0  0
 36 38  1  0  0  0  0
 36 37  1  0  0  0  0
 36 39  1  0  0  0  0
M  END
>  <minimizedAffinity>
-6.53583288

>  <minimizedRMSD>
0.436600149

$$$$
