
 OpenBabel03272504263D

 39 42  0  0  0  0  0  0  0  0999 V2000
   35.5700   29.5750   48.4340 C   0  0  0  0  0  0  0  0  0  0  0  0
   35.3340   28.7560   49.4810 C   0  0  0  0  0  0  0  0  0  0  0  0
   34.4720   27.7360   49.3800 C   0  0  0  0  0  0  0  0  0  0  0  0
   33.8260   27.5270   48.2010 N   0  0  0  0  0  0  0  0  0  0  0  0
   34.0680   28.3390   47.1780 C   0  0  0  0  0  0  0  0  0  0  0  0
   34.9300   29.3640   47.2700 N   0  0  0  0  0  0  0  0  0  0  0  0
   35.8490   28.9250   50.4180 H   0  0  0  0  0  0  0  0  0  0  0  0
   34.2880   27.0840   50.2230 H   0  0  0  0  0  0  0  0  0  0  0  0
   37.4440   32.5120   49.5860 C   0  0  0  0  0  0  0  0  0  0  0  0
   38.3260   32.7490   48.5150 C   0  0  0  0  0  0  0  0  0  0  0  0
   38.2540   31.8910   47.4180 C   0  0  0  0  0  0  0  0  0  0  0  0
   37.3420   30.8870   47.4540 N   0  0  0  0  0  0  0  0  0  0  0  0
   36.5010   30.6850   48.5090 C   0  0  0  0  0  0  0  0  0  0  0  0
   36.5650   31.5020   49.5600 N   0  0  0  0  0  0  0  0  0  0  0  0
   37.5330   33.1930   50.4040 H   0  0  0  0  0  0  0  0  0  0  0  0
   39.0530   33.5390   48.4730 H   0  0  0  0  0  0  0  0  0  0  0  0
   39.0490   31.9720   46.2660 N   0  0  0  0  0  0  0  0  0  0  0  0
   39.6650   33.1090   45.6070 C   0  0  0  0  0  2  0  0  0  0  0  0
   41.0140   32.5380   45.2230 C   0  0  0  0  0  2  0  0  0  0  0  0
   40.6430   31.1660   44.7240 C   0  0  0  0  0  2  0  0  0  0  0  0
   39.4020   30.7960   45.4940 C   0  0  0  0  0  3  0  0  0  0  0  0
   39.6190   29.9580   46.1910 H   0  0  0  0  0  0  0  0  0  0  0  0
   31.9720   27.7850   46.0190 C   0  0  0  0  0  0  0  0  0  0  0  0
   33.3490   28.0140   45.9680 C   0  0  0  0  0  0  0  0  0  0  0  0
   34.1050   27.9260   44.8140 C   0  0  0  0  0  0  0  0  0  0  0  0
   33.4850   27.5920   43.6300 C   0  0  0  0  0  0  0  0  0  0  0  0
   32.1300   27.3480   43.5880 C   0  0  0  0  0  0  0  0  0  0  0  0
   31.4690   27.4590   44.7680 C   0  0  0  0  0  0  0  0  0  0  0  0
   35.1700   28.1130   44.8240 H   0  0  0  0  0  0  0  0  0  0  0  0
   34.0880   27.5250   42.7310 H   0  0  0  0  0  0  0  0  0  0  0  0
   31.6140   27.0830   42.6760 H   0  0  0  0  0  0  0  0  0  0  0  0
   30.3890   27.2620   44.7290 H   0  0  0  0  0  0  0  0  0  0  0  0
   31.0270   27.9060   47.3860 S   0  0  0  0  0  0  0  0  0  0  0  0
   30.1240   26.6610   47.0970 O   0  0  0  0  0  0  0  0  0  0  0  0
   30.1870   29.1480   47.2400 O   0  0  0  0  0  0  0  0  0  0  0  0
   30.7530   27.6720   48.9430 C   0  0  0  0  0  0  0  0  0  0  0  0
   30.2290   26.4860   49.5030 F   0  0  0  0  0  0  0  0  0  0  0  0
   29.5270   28.3840   49.3420 F   0  0  0  0  0  0  0  0  0  0  0  0
   31.4180   28.4370   49.9440 F   0  0  0  0  0  0  0  0  0  0  0  0
  1 13  1  0  0  0  0
  1  2  1  0  0  0  0
  2  7  1  0  0  0  0
  3  2  2  0  0  0  0
  3  8  1  0  0  0  0
  4  3  1  0  0  0  0
  5  6  1  0  0  0  0
  5  4  2  0  0  0  0
  6  1  2  0  0  0  0
  9 15  1  0  0  0  0
 10  9  2  0  0  0  0
 11 12  2  0  0  0  0
 11 10  1  0  0  0  0
 12 13  1  0  0  0  0
 13 14  2  0  0  0  0
 14  9  1  0  0  0  0
 16 10  1  0  0  0  0
 17 11  1  0  0  0  0
 18 17  1  0  0  0  0
 19 18  1  0  0  0  0
 20 19  1  0  0  0  0
 20 21  1  0  0  0  0
 21 22  1  0  0  0  0
 21 17  1  0  0  0  0
 23 33  1  0  0  0  0
 24 23  1  0  0  0  0
 24  5  1  0  0  0  0
 25 29  1  0  0  0  0
 25 24  2  0  0  0  0
 26 25  1  0  0  0  0
 27 26  2  0  0  0  0
 27 28  1  0  0  0  0
 28 23  2  0  0  0  0
 30 26  1  0  0  0  0
 31 27  1  0  0  0  0
 32 28  1  0  0  0  0
 33 36  1  0  0  0  0
 34 33  2  0  0  0  0
 35 33  2  0  0  0  0
 36 38  1  0  0  0  0
 36 37  1  0  0  0  0
 36 39  1  0  0  0  0
M  END
>  <minimizedAffinity>
-6.63683176

>  <minimizedRMSD>
0.550818205

$$$$
