
 OpenBabel03272504263D

 39 42  0  0  0  0  0  0  0  0999 V2000
   35.3530   29.4540   48.3350 C   0  0  0  0  0  0  0  0  0  0  0  0
   35.1930   28.5300   49.3070 C   0  0  0  0  0  0  0  0  0  0  0  0
   34.3200   27.5240   49.1680 C   0  0  0  0  0  0  0  0  0  0  0  0
   33.5850   27.4370   48.0260 N   0  0  0  0  0  0  0  0  0  0  0  0
   33.7520   28.3510   47.0770 C   0  0  0  0  0  0  0  0  0  0  0  0
   34.6250   29.3630   47.2080 N   0  0  0  0  0  0  0  0  0  0  0  0
   35.7790   28.6040   50.2140 H   0  0  0  0  0  0  0  0  0  0  0  0
   34.1980   26.7890   49.9510 H   0  0  0  0  0  0  0  0  0  0  0  0
   37.2860   32.2960   49.6180 C   0  0  0  0  0  0  0  0  0  0  0  0
   38.1310   32.6040   48.5360 C   0  0  0  0  0  0  0  0  0  0  0  0
   38.0150   31.8240   47.3850 C   0  0  0  0  0  0  0  0  0  0  0  0
   37.0970   30.8240   47.3850 N   0  0  0  0  0  0  0  0  0  0  0  0
   36.2930   30.5520   48.4540 C   0  0  0  0  0  0  0  0  0  0  0  0
   36.4000   31.2940   49.5550 N   0  0  0  0  0  0  0  0  0  0  0  0
   37.4090   32.9190   50.4780 H   0  0  0  0  0  0  0  0  0  0  0  0
   38.8620   33.3920   48.5220 H   0  0  0  0  0  0  0  0  0  0  0  0
   38.7680   31.9810   46.2140 N   0  0  0  0  0  0  0  0  0  0  0  0
   38.4200   32.5370   44.9190 C   0  0  0  0  0  2  0  0  0  0  0  0
   39.6750   33.3110   44.5790 C   0  0  0  0  0  2  0  0  0  0  0  0
   40.7590   32.3560   45.0030 C   0  0  0  0  0  2  0  0  0  0  0  0
   40.1540   31.5620   46.1330 C   0  0  0  0  0  3  0  0  0  0  0  0
   40.6640   31.8090   47.0880 H   0  0  0  0  0  0  0  0  0  0  0  0
   31.5660   27.9460   46.0300 C   0  0  0  0  0  0  0  0  0  0  0  0
   32.9420   28.1520   45.8980 C   0  0  0  0  0  0  0  0  0  0  0  0
   33.6120   28.1530   44.6890 C   0  0  0  0  0  0  0  0  0  0  0  0
   32.9010   27.9410   43.5290 C   0  0  0  0  0  0  0  0  0  0  0  0
   31.5400   27.7280   43.5640 C   0  0  0  0  0  0  0  0  0  0  0  0
   30.9680   27.7450   44.7940 C   0  0  0  0  0  0  0  0  0  0  0  0
   34.6790   28.3180   44.6380 H   0  0  0  0  0  0  0  0  0  0  0  0
   33.4360   27.9440   42.5850 H   0  0  0  0  0  0  0  0  0  0  0  0
   30.9540   27.5570   42.6720 H   0  0  0  0  0  0  0  0  0  0  0  0
   29.8820   27.5740   44.8170 H   0  0  0  0  0  0  0  0  0  0  0  0
   30.7230   27.9610   47.4670 S   0  0  0  0  0  0  0  0  0  0  0  0
   29.9540   26.6170   47.2440 O   0  0  0  0  0  0  0  0  0  0  0  0
   29.7340   29.0940   47.3930 O   0  0  0  0  0  0  0  0  0  0  0  0
   30.6020   27.7050   49.0400 C   0  0  0  0  0  0  0  0  0  0  0  0
   30.1210   26.5150   49.6300 F   0  0  0  0  0  0  0  0  0  0  0  0
   29.4310   28.4230   49.5690 F   0  0  0  0  0  0  0  0  0  0  0  0
   31.3730   28.4440   49.9810 F   0  0  0  0  0  0  0  0  0  0  0  0
  1 13  1  0  0  0  0
  1  2  1  0  0  0  0
  2  7  1  0  0  0  0
  3  2  2  0  0  0  0
  3  8  1  0  0  0  0
  4  3  1  0  0  0  0
  5  6  1  0  0  0  0
  5  4  2  0  0  0  0
  6  1  2  0  0  0  0
  9 15  1  0  0  0  0
 10  9  2  0  0  0  0
 11 12  2  0  0  0  0
 11 10  1  0  0  0  0
 12 13  1  0  0  0  0
 13 14  2  0  0  0  0
 14  9  1  0  0  0  0
 16 10  1  0  0  0  0
 17 11  1  0  0  0  0
 18 17  1  0  0  0  0
 19 18  1  0  0  0  0
 19 20  1  0  0  0  0
 20 21  1  0  0  0  0
 21 17  1  0  0  0  0
 21 22  1  0  0  0  0
 23 33  1  0  0  0  0
 24 23  1  0  0  0  0
 24  5  1  0  0  0  0
 25 24  2  0  0  0  0
 26 27  2  0  0  0  0
 26 25  1  0  0  0  0
 27 28  1  0  0  0  0
 28 32  1  0  0  0  0
 28 23  2  0  0  0  0
 29 25  1  0  0  0  0
 30 26  1  0  0  0  0
 31 27  1  0  0  0  0
 33 36  1  0  0  0  0
 34 33  2  0  0  0  0
 35 33  2  0  0  0  0
 36 38  1  0  0  0  0
 36 37  1  0  0  0  0
 36 39  1  0  0  0  0
M  END
>  <minimizedAffinity>
-6.72967386

>  <minimizedRMSD>
0.731970191

$$$$
