
 OpenBabel03272504253D

 39 42  0  0  0  0  0  0  0  0999 V2000
   35.5300   29.5520   48.4260 C   0  0  0  0  0  0  0  0  0  0  0  0
   35.3070   28.7370   49.4790 C   0  0  0  0  0  0  0  0  0  0  0  0
   34.4470   27.7140   49.3920 C   0  0  0  0  0  0  0  0  0  0  0  0
   33.7890   27.4980   48.2210 N   0  0  0  0  0  0  0  0  0  0  0  0
   34.0180   28.3060   47.1910 C   0  0  0  0  0  0  0  0  0  0  0  0
   34.8780   29.3340   47.2690 N   0  0  0  0  0  0  0  0  0  0  0  0
   35.8320   28.9130   50.4090 H   0  0  0  0  0  0  0  0  0  0  0  0
   34.2740   27.0670   50.2410 H   0  0  0  0  0  0  0  0  0  0  0  0
   37.4200   32.4890   49.5500 C   0  0  0  0  0  0  0  0  0  0  0  0
   38.2770   32.7350   48.4610 C   0  0  0  0  0  0  0  0  0  0  0  0
   38.1830   31.8820   47.3610 C   0  0  0  0  0  0  0  0  0  0  0  0
   37.2750   30.8750   47.4130 N   0  0  0  0  0  0  0  0  0  0  0  0
   36.4590   30.6650   48.4860 C   0  0  0  0  0  0  0  0  0  0  0  0
   36.5440   31.4760   49.5390 N   0  0  0  0  0  0  0  0  0  0  0  0
   37.5260   33.1660   50.3700 H   0  0  0  0  0  0  0  0  0  0  0  0
   39.0010   33.5280   48.4060 H   0  0  0  0  0  0  0  0  0  0  0  0
   38.9510   31.9720   46.1920 N   0  0  0  0  0  0  0  0  0  0  0  0
   38.8840   32.8910   45.0710 C   0  0  0  0  0  2  0  0  0  0  0  0
   40.3530   33.1410   44.7990 C   0  0  0  0  0  2  0  0  0  0  0  0
   40.9350   31.7580   44.9330 C   0  0  0  0  0  2  0  0  0  0  0  0
   40.0400   31.0530   45.9180 C   0  0  0  0  0  3  0  0  0  0  0  0
   40.5930   30.8550   46.8620 H   0  0  0  0  0  0  0  0  0  0  0  0
   31.9090   27.7540   46.0560 C   0  0  0  0  0  0  0  0  0  0  0  0
   33.2880   27.9730   45.9910 C   0  0  0  0  0  0  0  0  0  0  0  0
   34.0330   27.8680   44.8320 C   0  0  0  0  0  0  0  0  0  0  0  0
   33.4020   27.5260   43.6570 C   0  0  0  0  0  0  0  0  0  0  0  0
   32.0440   27.2910   43.6280 C   0  0  0  0  0  0  0  0  0  0  0  0
   31.3940   27.4180   44.8120 C   0  0  0  0  0  0  0  0  0  0  0  0
   35.1000   28.0480   44.8310 H   0  0  0  0  0  0  0  0  0  0  0  0
   33.9960   27.4460   42.7530 H   0  0  0  0  0  0  0  0  0  0  0  0
   31.5200   27.0200   42.7230 H   0  0  0  0  0  0  0  0  0  0  0  0
   30.3120   27.2290   44.7840 H   0  0  0  0  0  0  0  0  0  0  0  0
   30.9760   27.8960   47.4290 S   0  0  0  0  0  0  0  0  0  0  0  0
   30.0720   26.6460   47.1670 O   0  0  0  0  0  0  0  0  0  0  0  0
   30.1330   29.1340   47.2710 O   0  0  0  0  0  0  0  0  0  0  0  0
   30.7160   27.6860   48.9910 C   0  0  0  0  0  0  0  0  0  0  0  0
   30.1760   26.5170   49.5720 F   0  0  0  0  0  0  0  0  0  0  0  0
   29.5090   28.4270   49.3960 F   0  0  0  0  0  0  0  0  0  0  0  0
   31.4080   28.4490   49.9750 F   0  0  0  0  0  0  0  0  0  0  0  0
  1 13  1  0  0  0  0
  1  2  1  0  0  0  0
  2  7  1  0  0  0  0
  3  2  2  0  0  0  0
  3  8  1  0  0  0  0
  4  3  1  0  0  0  0
  5  6  1  0  0  0  0
  5  4  2  0  0  0  0
  6  1  2  0  0  0  0
  9 15  1  0  0  0  0
 10  9  2  0  0  0  0
 11 12  2  0  0  0  0
 11 10  1  0  0  0  0
 12 13  1  0  0  0  0
 13 14  2  0  0  0  0
 14  9  1  0  0  0  0
 16 10  1  0  0  0  0
 17 11  1  0  0  0  0
 18 17  1  0  0  0  0
 19 20  1  0  0  0  0
 19 18  1  0  0  0  0
 20 21  1  0  0  0  0
 21 17  1  0  0  0  0
 21 22  1  0  0  0  0
 23 33  1  0  0  0  0
 24 23  1  0  0  0  0
 24  5  1  0  0  0  0
 25 24  2  0  0  0  0
 26 25  1  0  0  0  0
 27 26  2  0  0  0  0
 27 28  1  0  0  0  0
 28 23  2  0  0  0  0
 29 25  1  0  0  0  0
 30 26  1  0  0  0  0
 31 27  1  0  0  0  0
 32 28  1  0  0  0  0
 33 36  1  0  0  0  0
 34 33  2  0  0  0  0
 35 33  2  0  0  0  0
 36 38  1  0  0  0  0
 36 37  1  0  0  0  0
 36 39  1  0  0  0  0
M  END
>  <minimizedAffinity>
-6.73003054

>  <minimizedRMSD>
0.61786294

$$$$
