
 OpenBabel03272504253D

 39 42  0  0  0  0  0  0  0  0999 V2000
   35.3630   29.4720   48.3610 C   0  0  0  0  0  0  0  0  0  0  0  0
   35.2120   28.5560   49.3410 C   0  0  0  0  0  0  0  0  0  0  0  0
   34.3550   27.5350   49.2080 C   0  0  0  0  0  0  0  0  0  0  0  0
   33.6270   27.4250   48.0640 N   0  0  0  0  0  0  0  0  0  0  0  0
   33.7850   28.3320   47.1060 C   0  0  0  0  0  0  0  0  0  0  0  0
   34.6410   29.3590   47.2310 N   0  0  0  0  0  0  0  0  0  0  0  0
   35.7930   28.6470   50.2500 H   0  0  0  0  0  0  0  0  0  0  0  0
   34.2400   26.8060   49.9980 H   0  0  0  0  0  0  0  0  0  0  0  0
   37.2690   32.3360   49.6350 C   0  0  0  0  0  0  0  0  0  0  0  0
   38.0880   32.6690   48.5400 C   0  0  0  0  0  0  0  0  0  0  0  0
   37.9650   31.8970   47.3850 C   0  0  0  0  0  0  0  0  0  0  0  0
   37.0650   30.8810   47.3920 N   0  0  0  0  0  0  0  0  0  0  0  0
   36.2860   30.5860   48.4720 C   0  0  0  0  0  0  0  0  0  0  0  0
   36.4000   31.3190   49.5780 N   0  0  0  0  0  0  0  0  0  0  0  0
   37.3970   32.9530   50.4980 H   0  0  0  0  0  0  0  0  0  0  0  0
   38.8050   33.4700   48.5200 H   0  0  0  0  0  0  0  0  0  0  0  0
   38.6940   32.0780   46.2020 N   0  0  0  0  0  0  0  0  0  0  0  0
   38.3530   31.8110   44.8170 C   0  0  0  0  0  2  0  0  0  0  0  0
   38.9420   33.0220   44.1240 C   0  0  0  0  0  2  0  0  0  0  0  0
   40.2670   33.1690   44.8220 C   0  0  0  0  0  2  0  0  0  0  0  0
   40.0410   32.6180   46.2060 C   0  0  0  0  0  3  0  0  0  0  0  0
   40.0990   33.4360   46.9570 H   0  0  0  0  0  0  0  0  0  0  0  0
   31.6070   27.9040   46.0520 C   0  0  0  0  0  0  0  0  0  0  0  0
   32.9830   28.1080   45.9260 C   0  0  0  0  0  0  0  0  0  0  0  0
   33.6620   28.0870   44.7220 C   0  0  0  0  0  0  0  0  0  0  0  0
   32.9600   27.8500   43.5610 C   0  0  0  0  0  0  0  0  0  0  0  0
   31.5990   27.6370   43.5910 C   0  0  0  0  0  0  0  0  0  0  0  0
   31.0170   27.6780   44.8160 C   0  0  0  0  0  0  0  0  0  0  0  0
   34.7300   28.2520   44.6760 H   0  0  0  0  0  0  0  0  0  0  0  0
   33.5020   27.8350   42.6220 H   0  0  0  0  0  0  0  0  0  0  0  0
   31.0200   27.4480   42.6980 H   0  0  0  0  0  0  0  0  0  0  0  0
   29.9320   27.5060   44.8350 H   0  0  0  0  0  0  0  0  0  0  0  0
   30.7540   27.9470   47.4820 S   0  0  0  0  0  0  0  0  0  0  0  0
   29.9640   26.6140   47.2660 O   0  0  0  0  0  0  0  0  0  0  0  0
   29.7840   29.0960   47.3900 O   0  0  0  0  0  0  0  0  0  0  0  0
   30.6160   27.7080   49.0560 C   0  0  0  0  0  0  0  0  0  0  0  0
   30.1170   26.5300   49.6550 F   0  0  0  0  0  0  0  0  0  0  0  0
   29.4500   28.4450   49.5690 F   0  0  0  0  0  0  0  0  0  0  0  0
   31.3880   28.4480   49.9970 F   0  0  0  0  0  0  0  0  0  0  0  0
  1 13  1  0  0  0  0
  1  2  1  0  0  0  0
  2  7  1  0  0  0  0
  3  2  2  0  0  0  0
  3  8  1  0  0  0  0
  4  3  1  0  0  0  0
  5  6  1  0  0  0  0
  5  4  2  0  0  0  0
  6  1  2  0  0  0  0
  9 15  1  0  0  0  0
 10  9  2  0  0  0  0
 11 12  2  0  0  0  0
 11 10  1  0  0  0  0
 12 13  1  0  0  0  0
 13 14  2  0  0  0  0
 14  9  1  0  0  0  0
 16 10  1  0  0  0  0
 17 21  1  0  0  0  0
 17 11  1  0  0  0  0
 18 17  1  0  0  0  0
 19 18  1  0  0  0  0
 19 20  1  0  0  0  0
 20 21  1  0  0  0  0
 21 22  1  0  0  0  0
 23 33  1  0  0  0  0
 24 23  1  0  0  0  0
 24  5  1  0  0  0  0
 25 24  2  0  0  0  0
 26 27  2  0  0  0  0
 26 25  1  0  0  0  0
 27 28  1  0  0  0  0
 28 32  1  0  0  0  0
 28 23  2  0  0  0  0
 29 25  1  0  0  0  0
 30 26  1  0  0  0  0
 31 27  1  0  0  0  0
 33 36  1  0  0  0  0
 34 33  2  0  0  0  0
 35 33  2  0  0  0  0
 36 38  1  0  0  0  0
 36 37  1  0  0  0  0
 36 39  1  0  0  0  0
M  END
>  <minimizedAffinity>
-6.43370199

>  <minimizedRMSD>
0.714186013

$$$$
