
 OpenBabel03272506083D

 41 44  0  0  0  0  0  0  0  0999 V2000
   33.4180   28.2960   48.2200 C   0  0  0  0  0  0  0  0  0  0  0  0
   33.4110   28.6110   46.8220 C   0  0  0  0  0  0  0  0  0  0  0  0
   31.7070   28.3230   46.4130 S   0  0  0  0  0  0  0  0  0  0  0  0
   31.2240   27.8220   48.1520 C   0  0  0  0  0  0  0  0  0  0  0  0
   32.2710   27.9300   48.7030 N   0  0  0  0  0  0  0  0  0  0  0  0
   29.9440   27.4080   48.7140 N   0  0  0  0  0  0  0  0  0  0  0  0
   29.0560   26.7330   47.8370 C   0  0  0  0  0  0  0  0  0  0  0  0
   27.6360   26.6980   48.2980 C   0  0  0  0  0  0  0  0  0  0  0  0
   27.3930   27.5190   49.4920 N   0  0  0  0  0  0  0  0  0  0  0  0
   28.3610   27.0660   50.4800 C   0  0  0  0  0  0  0  0  0  0  0  0
   29.6660   27.7070   50.1010 C   0  0  0  0  0  0  0  0  0  0  0  0
   34.2320   28.9270   46.2330 H   0  0  0  0  0  0  0  0  0  0  0  0
   29.0550   27.3100   46.8660 H   0  0  0  0  0  0  0  0  0  0  0  0
   29.3820   25.7080   47.5270 H   0  0  0  0  0  0  0  0  0  0  0  0
   26.8910   26.9890   47.5150 H   0  0  0  0  0  0  0  0  0  0  0  0
   27.3740   25.6560   48.6010 H   0  0  0  0  0  0  0  0  0  0  0  0
   27.6330   28.5030   49.2030 H   0  0  0  0  0  0  0  0  0  0  0  0
   28.0290   27.4980   51.4560 H   0  0  0  0  0  0  0  0  0  0  0  0
   28.4280   25.9590   50.4960 H   0  0  0  0  0  0  0  0  0  0  0  0
   30.4900   27.4380   50.7930 H   0  0  0  0  0  0  0  0  0  0  0  0
   29.5220   28.8090   50.1560 H   0  0  0  0  0  0  0  0  0  0  0  0
   34.7100   28.4090   48.9900 C   0  0  0  0  0  0  0  0  0  0  0  0
   34.8120   27.4970   49.6430 H   0  0  0  0  0  0  0  0  0  0  0  0
   35.5770   28.3340   48.2960 H   0  0  0  0  0  0  0  0  0  0  0  0
   34.7720   29.6430   49.7940 C   0  0  0  0  0  0  0  0  0  0  0  0
   33.8290   30.2250   49.8050 H   0  0  0  0  0  0  0  0  0  0  0  0
   34.9760   29.3890   50.8610 H   0  0  0  0  0  0  0  0  0  0  0  0
   37.5300   32.1410   49.7250 C   0  0  0  0  0  0  0  0  0  0  0  0
   38.0260   32.0290   48.4250 C   0  0  0  0  0  0  0  0  0  0  0  0
   37.3960   31.0940   47.6050 C   0  0  0  0  0  0  0  0  0  0  0  0
   36.3680   30.3490   48.0560 N   0  0  0  0  0  0  0  0  0  0  0  0
   35.9270   30.5040   49.3420 C   0  0  0  0  0  0  0  0  0  0  0  0
   36.5150   31.3940   50.1470 N   0  0  0  0  0  0  0  0  0  0  0  0
   37.9980   32.8560   50.3840 H   0  0  0  0  0  0  0  0  0  0  0  0
   38.8380   32.6420   48.1200 H   0  0  0  0  0  0  0  0  0  0  0  0
   37.8440   30.9270   46.2750 N   0  0  0  0  0  0  0  0  0  0  0  0
   37.0630   30.9310   45.0540 C   0  0  0  0  0  2  0  0  0  0  0  0
   37.8590   31.8760   44.1750 C   0  0  0  0  0  2  0  0  0  0  0  0
   39.2900   31.5380   44.5360 C   0  0  0  0  0  2  0  0  0  0  0  0
   39.2020   30.7080   45.8220 C   0  0  0  0  0  3  0  0  0  0  0  0
   39.9560   30.9860   46.5600 H   0  0  0  0  0  0  0  0  0  0  0  0
  1  5  1  0  0  0  0
  1 22  1  0  0  0  0
  2  1  2  0  0  0  0
  3  2  1  0  0  0  0
  3  4  1  0  0  0  0
  4  5  2  0  0  0  0
  4  6  1  0  0  0  0
  6 11  1  0  0  0  0
  7  8  1  0  0  0  0
  7  6  1  0  0  0  0
  8 16  1  0  0  0  0
  8  9  1  0  0  0  0
  9 10  1  0  0  0  0
 10 19  1  0  0  0  0
 10 18  1  0  0  0  0
 11 21  1  0  0  0  0
 11 10  1  0  0  0  0
 11 20  1  0  0  0  0
 12  2  1  0  0  0  0
 13  7  1  0  0  0  0
 14  7  1  0  0  0  0
 15  8  1  0  0  0  0
 17  9  1  0  0  0  0
 22 23  1  0  0  0  0
 22 25  1  0  0  0  0
 24 22  1  0  0  0  0
 25 26  1  0  0  0  0
 25 27  1  0  0  0  0
 28 33  1  0  0  0  0
 28 34  1  0  0  0  0
 29 28  2  0  0  0  0
 30 31  2  0  0  0  0
 30 29  1  0  0  0  0
 31 32  1  0  0  0  0
 32 25  1  0  0  0  0
 32 33  2  0  0  0  0
 35 29  1  0  0  0  0
 36 30  1  0  0  0  0
 37 36  1  0  0  0  0
 38 39  1  0  0  0  0
 38 37  1  0  0  0  0
 39 40  1  0  0  0  0
 40 36  1  0  0  0  0
 40 41  1  0  0  0  0
M  END
>  <minimizedAffinity>
-6.13543987

>  <minimizedRMSD>
0.972872496

$$$$
