
 OpenBabel03272504253D

 39 42  0  0  0  0  0  0  0  0999 V2000
   35.5840   29.5880   48.4070 C   0  0  0  0  0  0  0  0  0  0  0  0
   35.3480   28.7790   49.4610 C   0  0  0  0  0  0  0  0  0  0  0  0
   34.4840   27.7590   49.3710 C   0  0  0  0  0  0  0  0  0  0  0  0
   33.8380   27.5390   48.1950 N   0  0  0  0  0  0  0  0  0  0  0  0
   34.0790   28.3410   47.1630 C   0  0  0  0  0  0  0  0  0  0  0  0
   34.9420   29.3660   47.2450 N   0  0  0  0  0  0  0  0  0  0  0  0
   35.8640   28.9570   50.3960 H   0  0  0  0  0  0  0  0  0  0  0  0
   34.3010   27.1160   50.2210 H   0  0  0  0  0  0  0  0  0  0  0  0
   37.4910   32.5080   49.5460 C   0  0  0  0  0  0  0  0  0  0  0  0
   38.3380   32.7640   48.4520 C   0  0  0  0  0  0  0  0  0  0  0  0
   38.2320   31.9240   47.3430 C   0  0  0  0  0  0  0  0  0  0  0  0
   37.3220   30.9180   47.3930 N   0  0  0  0  0  0  0  0  0  0  0  0
   36.5160   30.6980   48.4710 C   0  0  0  0  0  0  0  0  0  0  0  0
   36.6120   31.4970   49.5320 N   0  0  0  0  0  0  0  0  0  0  0  0
   37.6050   33.1760   50.3720 H   0  0  0  0  0  0  0  0  0  0  0  0
   39.0630   33.5560   48.3990 H   0  0  0  0  0  0  0  0  0  0  0  0
   38.9900   32.0240   46.1690 N   0  0  0  0  0  0  0  0  0  0  0  0
   40.3720   31.6790   45.8880 C   0  0  0  0  0  2  0  0  0  0  0  0
   40.2520   31.0650   44.5090 C   0  0  0  0  0  2  0  0  0  0  0  0
   39.2940   32.0060   43.8290 C   0  0  0  0  0  2  0  0  0  0  0  0
   38.4290   32.5480   44.9380 C   0  0  0  0  0  3  0  0  0  0  0  0
   37.3880   32.1750   44.8270 H   0  0  0  0  0  0  0  0  0  0  0  0
   31.9830   27.7740   46.0130 C   0  0  0  0  0  0  0  0  0  0  0  0
   33.3600   28.0050   45.9580 C   0  0  0  0  0  0  0  0  0  0  0  0
   34.1140   27.9090   44.8030 C   0  0  0  0  0  0  0  0  0  0  0  0
   33.4930   27.5650   43.6230 C   0  0  0  0  0  0  0  0  0  0  0  0
   32.1370   27.3180   43.5850 C   0  0  0  0  0  0  0  0  0  0  0  0
   31.4780   27.4370   44.7650 C   0  0  0  0  0  0  0  0  0  0  0  0
   35.1780   28.0990   44.8100 H   0  0  0  0  0  0  0  0  0  0  0  0
   34.0940   27.4930   42.7230 H   0  0  0  0  0  0  0  0  0  0  0  0
   31.6210   27.0450   42.6760 H   0  0  0  0  0  0  0  0  0  0  0  0
   30.3980   27.2370   44.7300 H   0  0  0  0  0  0  0  0  0  0  0  0
   31.0390   27.9040   47.3810 S   0  0  0  0  0  0  0  0  0  0  0  0
   30.1210   26.6710   47.0890 O   0  0  0  0  0  0  0  0  0  0  0  0
   30.2160   29.1560   47.2380 O   0  0  0  0  0  0  0  0  0  0  0  0
   30.7630   27.6690   48.9370 C   0  0  0  0  0  0  0  0  0  0  0  0
   30.2400   26.4820   49.4960 F   0  0  0  0  0  0  0  0  0  0  0  0
   29.5360   28.3800   49.3340 F   0  0  0  0  0  0  0  0  0  0  0  0
   31.4260   28.4340   49.9390 F   0  0  0  0  0  0  0  0  0  0  0  0
  1 13  1  0  0  0  0
  1  2  1  0  0  0  0
  2  7  1  0  0  0  0
  3  2  2  0  0  0  0
  3  8  1  0  0  0  0
  4  3  1  0  0  0  0
  5  6  1  0  0  0  0
  5  4  2  0  0  0  0
  6  1  2  0  0  0  0
  9 15  1  0  0  0  0
 10  9  2  0  0  0  0
 11 12  2  0  0  0  0
 11 10  1  0  0  0  0
 12 13  1  0  0  0  0
 13 14  2  0  0  0  0
 14  9  1  0  0  0  0
 16 10  1  0  0  0  0
 17 11  1  0  0  0  0
 18 17  1  0  0  0  0
 19 18  1  0  0  0  0
 20 19  1  0  0  0  0
 20 21  1  0  0  0  0
 21 17  1  0  0  0  0
 22 21  1  0  0  0  0
 23 33  1  0  0  0  0
 24 23  1  0  0  0  0
 24  5  1  0  0  0  0
 25 29  1  0  0  0  0
 25 24  2  0  0  0  0
 26 25  1  0  0  0  0
 27 26  2  0  0  0  0
 27 28  1  0  0  0  0
 28 23  2  0  0  0  0
 30 26  1  0  0  0  0
 31 27  1  0  0  0  0
 32 28  1  0  0  0  0
 33 36  1  0  0  0  0
 34 33  2  0  0  0  0
 35 33  2  0  0  0  0
 36 38  1  0  0  0  0
 36 37  1  0  0  0  0
 36 39  1  0  0  0  0
M  END
>  <minimizedAffinity>
-6.41140366

>  <minimizedRMSD>
0.564404666

$$$$
