
 OpenBabel03272504263D

 39 42  0  0  0  0  0  0  0  0999 V2000
   35.5600   29.5740   48.4420 C   0  0  0  0  0  0  0  0  0  0  0  0
   35.3240   28.7530   49.4880 C   0  0  0  0  0  0  0  0  0  0  0  0
   34.4620   27.7330   49.3850 C   0  0  0  0  0  0  0  0  0  0  0  0
   33.8180   27.5250   48.2050 N   0  0  0  0  0  0  0  0  0  0  0  0
   34.0590   28.3390   47.1830 C   0  0  0  0  0  0  0  0  0  0  0  0
   34.9210   29.3640   47.2770 N   0  0  0  0  0  0  0  0  0  0  0  0
   35.8390   28.9210   50.4250 H   0  0  0  0  0  0  0  0  0  0  0  0
   34.2790   27.0800   50.2280 H   0  0  0  0  0  0  0  0  0  0  0  0
   37.4270   32.5140   49.5950 C   0  0  0  0  0  0  0  0  0  0  0  0
   38.3160   32.7480   48.5290 C   0  0  0  0  0  0  0  0  0  0  0  0
   38.2510   31.8860   47.4350 C   0  0  0  0  0  0  0  0  0  0  0  0
   37.3380   30.8820   47.4690 N   0  0  0  0  0  0  0  0  0  0  0  0
   36.4910   30.6840   48.5200 C   0  0  0  0  0  0  0  0  0  0  0  0
   36.5480   31.5040   49.5680 N   0  0  0  0  0  0  0  0  0  0  0  0
   37.5110   33.1980   50.4120 H   0  0  0  0  0  0  0  0  0  0  0  0
   39.0440   33.5380   48.4890 H   0  0  0  0  0  0  0  0  0  0  0  0
   39.0530   31.9630   46.2880 N   0  0  0  0  0  0  0  0  0  0  0  0
   39.4390   33.0940   45.4650 C   0  0  0  0  0  2  0  0  0  0  0  0
   40.8920   32.7730   45.1790 C   0  0  0  0  0  2  0  0  0  0  0  0
   40.8370   31.2960   44.8950 C   0  0  0  0  0  2  0  0  0  0  0  0
   39.6740   30.7880   45.7060 C   0  0  0  0  0  3  0  0  0  0  0  0
   40.0380   30.1290   46.5240 H   0  0  0  0  0  0  0  0  0  0  0  0
   31.9640   27.7870   46.0240 C   0  0  0  0  0  0  0  0  0  0  0  0
   33.3420   28.0150   45.9730 C   0  0  0  0  0  0  0  0  0  0  0  0
   34.0980   27.9280   44.8200 C   0  0  0  0  0  0  0  0  0  0  0  0
   33.4790   27.5960   43.6350 C   0  0  0  0  0  0  0  0  0  0  0  0
   32.1230   27.3520   43.5920 C   0  0  0  0  0  0  0  0  0  0  0  0
   31.4620   27.4620   44.7710 C   0  0  0  0  0  0  0  0  0  0  0  0
   35.1630   28.1160   44.8300 H   0  0  0  0  0  0  0  0  0  0  0  0
   34.0820   27.5300   42.7360 H   0  0  0  0  0  0  0  0  0  0  0  0
   31.6080   27.0880   42.6790 H   0  0  0  0  0  0  0  0  0  0  0  0
   30.3820   27.2650   44.7320 H   0  0  0  0  0  0  0  0  0  0  0  0
   31.0180   27.9060   47.3900 S   0  0  0  0  0  0  0  0  0  0  0  0
   30.1190   26.6580   47.1020 O   0  0  0  0  0  0  0  0  0  0  0  0
   30.1740   29.1450   47.2420 O   0  0  0  0  0  0  0  0  0  0  0  0
   30.7440   27.6730   48.9470 C   0  0  0  0  0  0  0  0  0  0  0  0
   30.2210   26.4870   49.5070 F   0  0  0  0  0  0  0  0  0  0  0  0
   29.5180   28.3850   49.3450 F   0  0  0  0  0  0  0  0  0  0  0  0
   31.4100   28.4380   49.9470 F   0  0  0  0  0  0  0  0  0  0  0  0
  1 13  1  0  0  0  0
  1  2  1  0  0  0  0
  2  7  1  0  0  0  0
  3  2  2  0  0  0  0
  3  8  1  0  0  0  0
  4  3  1  0  0  0  0
  5  6  1  0  0  0  0
  5  4  2  0  0  0  0
  6  1  2  0  0  0  0
  9 15  1  0  0  0  0
 10  9  2  0  0  0  0
 11 12  2  0  0  0  0
 11 10  1  0  0  0  0
 12 13  1  0  0  0  0
 13 14  2  0  0  0  0
 14  9  1  0  0  0  0
 16 10  1  0  0  0  0
 17 11  1  0  0  0  0
 18 17  1  0  0  0  0
 19 18  1  0  0  0  0
 20 19  1  0  0  0  0
 20 21  1  0  0  0  0
 21 17  1  0  0  0  0
 21 22  1  0  0  0  0
 23 33  1  0  0  0  0
 24 23  1  0  0  0  0
 24  5  1  0  0  0  0
 25 29  1  0  0  0  0
 25 24  2  0  0  0  0
 26 25  1  0  0  0  0
 27 26  2  0  0  0  0
 27 28  1  0  0  0  0
 28 23  2  0  0  0  0
 30 26  1  0  0  0  0
 31 27  1  0  0  0  0
 32 28  1  0  0  0  0
 33 36  1  0  0  0  0
 34 33  2  0  0  0  0
 35 33  2  0  0  0  0
 36 38  1  0  0  0  0
 36 37  1  0  0  0  0
 36 39  1  0  0  0  0
M  END
>  <minimizedAffinity>
-6.62859058

>  <minimizedRMSD>
0.550088465

$$$$
