
 OpenBabel03272507463D

 43 47  0  0  0  0  0  0  0  0999 V2000
   32.0730   28.1780   47.4110 N   0  0  0  0  0  0  0  0  0  0  0  0
   32.3880   27.8160   48.7520 C   0  0  0  0  0  0  0  0  0  0  0  0
   33.6260   28.3940   49.3250 C   0  0  0  0  0  0  0  0  0  0  0  0
   34.7740   28.5080   48.4260 C   0  0  0  0  0  0  0  0  0  0  0  0
   34.3580   28.8290   46.9800 C   0  0  0  0  0  0  0  0  0  0  0  0
   33.2240   27.8600   46.6100 C   0  0  0  0  0  0  0  0  0  0  0  0
   32.4520   26.6960   48.7920 H   0  0  0  0  0  0  0  0  0  0  0  0
   31.5160   28.0820   49.3880 H   0  0  0  0  0  0  0  0  0  0  0  0
   33.2950   29.4620   49.5540 H   0  0  0  0  0  0  0  0  0  0  0  0
   33.8640   27.9350   50.2790 H   0  0  0  0  0  0  0  0  0  0  0  0
   35.3000   27.5200   48.3090 H   0  0  0  0  0  0  0  0  0  0  0  0
   35.2040   28.5730   46.3210 H   0  0  0  0  0  0  0  0  0  0  0  0
   34.0200   29.8700   46.9370 H   0  0  0  0  0  0  0  0  0  0  0  0
   33.6070   26.8430   46.7280 H   0  0  0  0  0  0  0  0  0  0  0  0
   33.0040   28.1040   45.5360 H   0  0  0  0  0  0  0  0  0  0  0  0
   36.0350   29.7390   50.1330 C   0  0  0  0  0  0  0  0  0  0  0  0
   35.7480   29.5680   48.7860 C   0  0  0  0  0  0  0  0  0  0  0  0
   36.2860   30.3350   47.7870 C   0  0  0  0  0  0  0  0  0  0  0  0
   37.1730   31.3480   48.1440 C   0  0  0  0  0  0  0  0  0  0  0  0
   37.4570   31.5190   49.4850 C   0  0  0  0  0  0  0  0  0  0  0  0
   36.9130   30.7420   50.5050 C   0  0  0  0  0  0  0  0  0  0  0  0
   38.3610   32.5790   49.6550 O   0  0  0  0  0  0  0  0  0  0  0  0
   38.8960   32.7980   48.3490 C   0  0  0  0  0  0  0  0  0  0  0  0
   37.9120   32.3120   47.4670 O   0  0  0  0  0  0  0  0  0  0  0  0
   35.6820   29.1910   50.9940 H   0  0  0  0  0  0  0  0  0  0  0  0
   36.0470   30.1790   46.7640 H   0  0  0  0  0  0  0  0  0  0  0  0
   37.1840   30.9330   51.5440 H   0  0  0  0  0  0  0  0  0  0  0  0
   39.1140   33.8510   48.1380 H   0  0  0  0  0  0  0  0  0  0  0  0
   39.8690   32.2490   48.2620 H   0  0  0  0  0  0  0  0  0  0  0  0
   30.8570   28.7490   46.9200 C   0  0  0  0  0  0  0  0  0  0  0  0
   30.6680   29.3110   45.6610 C   0  0  0  0  0  0  0  0  0  0  0  0
   29.4140   29.8170   45.3630 C   0  0  0  0  0  0  0  0  0  0  0  0
   28.4360   29.7390   46.3060 N   0  0  0  0  0  0  0  0  0  0  0  0
   28.6410   29.1930   47.5140 C   0  0  0  0  0  0  0  0  0  0  0  0
   29.8500   28.7040   47.8080 N   0  0  0  0  0  0  0  0  0  0  0  0
   31.5240   29.3010   45.0270 H   0  0  0  0  0  0  0  0  0  0  0  0
   29.2800   30.2460   44.3910 H   0  0  0  0  0  0  0  0  0  0  0  0
   27.5470   29.1640   48.4280 N   0  0  0  0  0  0  0  0  0  0  0  0
   27.0700   30.3340   49.1460 C   0  0  0  0  0  0  0  0  0  0  0  0
   25.5730   30.1560   49.0000 C   0  0  0  0  0  0  0  0  0  0  0  0
   25.3410   28.6780   48.7680 C   0  0  0  0  0  0  0  0  0  0  0  0
   26.7130   28.0410   48.8230 C   0  0  0  0  0  0  0  0  0  0  0  0
   26.8390   27.2090   48.0970 H   0  0  0  0  0  0  0  0  0  0  0  0
  1  2  1  0  0  0  0
  2  7  1  0  0  0  0
  2  3  1  0  0  0  0
  2  8  1  0  0  0  0
  3  9  1  0  0  0  0
  3 10  1  0  0  0  0
  4 17  1  0  0  0  0
  4  3  1  0  0  0  0
  5  4  1  0  0  0  0
  6 14  1  0  0  0  0
  6  5  1  0  0  0  0
  6  1  1  0  0  0  0
 11  4  1  0  0  0  0
 12  5  1  0  0  0  0
 13  5  1  0  0  0  0
 15  6  1  0  0  0  0
 16 21  1  0  0  0  0
 16 25  1  0  0  0  0
 17 16  2  0  0  0  0
 18 19  2  0  0  0  0
 18 17  1  0  0  0  0
 19 20  1  0  0  0  0
 20 22  1  0  0  0  0
 20 21  2  0  0  0  0
 21 27  1  0  0  0  0
 23 22  1  0  0  0  0
 24 19  1  0  0  0  0
 24 23  1  0  0  0  0
 26 18  1  0  0  0  0
 28 23  1  0  0  0  0
 29 23  1  0  0  0  0
 30  1  1  0  0  0  0
 30 35  1  0  0  0  0
 31 30  2  0  0  0  0
 32 31  1  0  0  0  0
 32 33  2  0  0  0  0
 33 34  1  0  0  0  0
 34 35  2  0  0  0  0
 34 38  1  0  0  0  0
 36 31  1  0  0  0  0
 37 32  1  0  0  0  0
 38 42  1  0  0  0  0
 38 39  1  0  0  0  0
 40 39  1  0  0  0  0
 41 42  1  0  0  0  0
 41 40  1  0  0  0  0
 43 42  1  0  0  0  0
M  END
>  <minimizedAffinity>
-7.88222361

>  <minimizedRMSD>
1.25393414

$$$$
