
 OpenBabel03272508433D

 24 26  0  0  0  0  0  0  0  0999 V2000
   34.3090   29.2000   48.2750 C   0  0  0  0  0  0  0  0  0  0  0  0
   34.6740   28.3170   49.2660 C   0  0  0  0  0  0  0  0  0  0  0  0
   35.7000   28.9930   49.9130 C   0  0  0  0  0  0  0  0  0  0  0  0
   35.9060   30.2090   49.3100 C   0  0  0  0  0  0  0  0  0  0  0  0
   35.0580   30.3110   48.3260 O   0  0  0  0  0  0  0  0  0  0  0  0
   34.2950   27.3540   49.5130 H   0  0  0  0  0  0  0  0  0  0  0  0
   36.2500   28.5910   50.7790 H   0  0  0  0  0  0  0  0  0  0  0  0
   36.8890   31.1510   49.7310 N   0  0  0  0  0  0  0  0  0  0  0  0
   36.6290   32.5310   50.1050 C   0  0  0  0  0  2  0  0  0  0  0  0
   37.7740   33.2200   49.3970 C   0  0  0  0  0  2  0  0  0  0  0  0
   38.8150   32.1650   49.0840 C   0  0  0  0  0  2  0  0  0  0  0  0
   38.3260   30.9750   49.8830 C   0  0  0  0  0  3  0  0  0  0  0  0
   38.6350   31.1530   50.9340 H   0  0  0  0  0  0  0  0  0  0  0  0
   33.2440   28.9610   47.2890 C   0  0  0  0  0  0  0  0  0  0  0  0
   32.4530   28.0100   47.5060 O   0  0  0  0  0  0  0  0  0  0  0  0
   31.9510   31.4340   44.9690 C   0  0  0  0  0  0  0  0  0  0  0  0
   32.8560   31.4140   43.9150 C   0  0  0  0  0  0  0  0  0  0  0  0
   33.9330   30.5350   43.9980 C   0  0  0  0  0  0  0  0  0  0  0  0
   34.0280   29.7590   45.0980 N   0  0  0  0  0  0  0  0  0  0  0  0
   33.1250   29.8040   46.1130 C   0  0  0  0  0  0  0  0  0  0  0  0
   32.0910   30.6470   46.0340 N   0  0  0  0  0  0  0  0  0  0  0  0
   31.1490   32.1440   44.8240 H   0  0  0  0  0  0  0  0  0  0  0  0
   32.7570   32.0470   43.0420 H   0  0  0  0  0  0  0  0  0  0  0  0
   34.6870   30.4560   43.2170 H   0  0  0  0  0  0  0  0  0  0  0  0
  1  5  1  0  0  0  0
  1  2  2  0  0  0  0
  2  6  1  0  0  0  0
  2  3  1  0  0  0  0
  3  7  1  0  0  0  0
  4  8  1  0  0  0  0
  4  3  2  0  0  0  0
  5  4  1  0  0  0  0
  8 12  1  0  0  0  0
  8  9  1  0  0  0  0
 10  9  1  0  0  0  0
 11 10  1  0  0  0  0
 11 12  1  0  0  0  0
 12 13  1  0  0  0  0
 14 15  2  0  0  0  0
 14  1  1  0  0  0  0
 16 21  1  0  0  0  0
 17 18  1  0  0  0  0
 17 16  2  0  0  0  0
 18 19  2  0  0  0  0
 19 20  1  0  0  0  0
 20 14  1  0  0  0  0
 21 20  2  0  0  0  0
 22 16  1  0  0  0  0
 23 17  1  0  0  0  0
 24 18  1  0  0  0  0
M  END
>  <minimizedAffinity>
-4.60828161

>  <minimizedRMSD>
2.89913964

$$$$
