
 OpenBabel03272506593D

 25 27  0  0  0  0  0  0  0  0999 V2000
   38.6420   25.0440   35.2740 C   0  0  0  0  0  0  0  0  0  0  0  0
   38.6070   26.3600   35.7080 C   0  0  0  0  0  0  0  0  0  0  0  0
   37.9790   27.4200   35.1080 C   0  0  0  0  0  0  0  0  0  0  0  0
   37.3220   27.1080   33.9500 N   0  0  0  0  0  0  0  0  0  0  0  0
   37.3320   25.8230   33.4860 C   0  0  0  0  0  0  0  0  0  0  0  0
   37.9720   24.8340   34.1330 N   0  0  0  0  0  0  0  0  0  0  0  0
   39.1330   26.6040   36.6330 H   0  0  0  0  0  0  0  0  0  0  0  0
   38.0050   28.4050   35.5160 H   0  0  0  0  0  0  0  0  0  0  0  0
   36.6430   25.5020   32.2720 N   0  0  0  0  0  0  0  0  0  0  0  0
   36.7810   24.3000   31.4730 C   0  0  0  0  0  2  0  0  0  0  0  0
   35.5190   24.1650   30.6910 C   0  0  0  0  0  2  0  0  0  0  0  0
   34.7110   25.4260   30.9060 C   0  0  0  0  0  2  0  0  0  0  0  0
   35.6560   26.3560   31.6180 C   0  0  0  0  0  3  0  0  0  0  0  0
   35.1290   26.9530   32.3830 H   0  0  0  0  0  0  0  0  0  0  0  0
   41.1050   22.4910   35.9930 C   0  0  0  0  0  0  0  0  0  0  0  0
   40.8230   22.0610   37.3010 C   0  0  0  0  0  0  0  0  0  0  0  0
   39.7260   22.7040   37.9340 C   0  0  0  0  0  0  0  0  0  0  0  0
   39.0300   23.6620   37.2730 N   0  0  0  0  0  0  0  0  0  0  0  0
   39.3620   24.0160   36.0270 C   0  0  0  0  0  0  0  0  0  0  0  0
   40.4050   23.4510   35.3380 N   0  0  0  0  0  0  0  0  0  0  0  0
   41.9430   21.9860   35.5390 H   0  0  0  0  0  0  0  0  0  0  0  0
   39.4700   22.4080   38.9390 H   0  0  0  0  0  0  0  0  0  0  0  0
   41.5790   21.0610   37.9390 N   0  0  0  0  0  0  0  0  0  0  0  0
   42.1810   21.4940   38.7010 H   0  0  0  0  0  0  0  0  0  0  0  0
   41.2760   20.1920   37.4220 H   0  0  0  0  0  0  0  0  0  0  0  0
  1  2  1  0  0  0  0
  1 19  1  0  0  0  0
  2  7  1  0  0  0  0
  3  8  1  0  0  0  0
  3  2  2  0  0  0  0
  4  3  1  0  0  0  0
  5  4  2  0  0  0  0
  5  6  1  0  0  0  0
  6  1  2  0  0  0  0
  9  5  1  0  0  0  0
 10  9  1  0  0  0  0
 11 12  1  0  0  0  0
 11 10  1  0  0  0  0
 12 13  1  0  0  0  0
 13  9  1  0  0  0  0
 13 14  1  0  0  0  0
 15 16  1  0  0  0  0
 16 17  2  0  0  0  0
 16 23  1  0  0  0  0
 17 22  1  0  0  0  0
 18 17  1  0  0  0  0
 19 18  2  0  0  0  0
 20 15  2  0  0  0  0
 20 19  1  0  0  0  0
 21 15  1  0  0  0  0
 23 24  1  0  0  0  0
 25 23  1  0  0  0  0
M  END
>  <minimizedAffinity>
-5.3586235

$$$$

 OpenBabel03272506593D

 25 27  0  0  0  0  0  0  0  0999 V2000
   37.7270   25.2840   33.7330 C   0  0  0  0  0  0  0  0  0  0  0  0
   37.9180   24.7630   32.4620 C   0  0  0  0  0  0  0  0  0  0  0  0
   37.5640   25.3290   31.2660 C   0  0  0  0  0  0  0  0  0  0  0  0
   36.9540   26.5480   31.3750 N   0  0  0  0  0  0  0  0  0  0  0  0
   36.7460   27.0990   32.6070 C   0  0  0  0  0  0  0  0  0  0  0  0
   37.1230   26.4800   33.7390 N   0  0  0  0  0  0  0  0  0  0  0  0
   38.4050   23.7890   32.3820 H   0  0  0  0  0  0  0  0  0  0  0  0
   37.7520   24.8530   30.3310 H   0  0  0  0  0  0  0  0  0  0  0  0
   36.1060   28.3750   32.7140 N   0  0  0  0  0  0  0  0  0  0  0  0
   35.5350   28.9760   33.9050 C   0  0  0  0  0  2  0  0  0  0  0  0
   35.5230   30.4490   33.6700 C   0  0  0  0  0  2  0  0  0  0  0  0
   35.9240   30.6860   32.2310 C   0  0  0  0  0  2  0  0  0  0  0  0
   35.9170   29.3140   31.6120 C   0  0  0  0  0  3  0  0  0  0  0  0
   36.7450   29.1960   30.8900 H   0  0  0  0  0  0  0  0  0  0  0  0
   38.1090   24.4750   37.2400 C   0  0  0  0  0  0  0  0  0  0  0  0
   38.8880   23.3050   37.2670 C   0  0  0  0  0  0  0  0  0  0  0  0
   39.2800   22.8000   35.9990 C   0  0  0  0  0  0  0  0  0  0  0  0
   38.9030   23.4440   34.8680 N   0  0  0  0  0  0  0  0  0  0  0  0
   38.1590   24.5550   34.9250 C   0  0  0  0  0  0  0  0  0  0  0  0
   37.7330   25.1140   36.1030 N   0  0  0  0  0  0  0  0  0  0  0  0
   37.8260   24.8340   38.2170 H   0  0  0  0  0  0  0  0  0  0  0  0
   39.8800   21.9040   35.9690 H   0  0  0  0  0  0  0  0  0  0  0  0
   39.2510   22.6780   38.4740 N   0  0  0  0  0  0  0  0  0  0  0  0
   38.7070   21.7710   38.5870 H   0  0  0  0  0  0  0  0  0  0  0  0
   39.9670   23.3490   38.8640 H   0  0  0  0  0  0  0  0  0  0  0  0
  1  6  1  0  0  0  0
  1 19  1  0  0  0  0
  2  1  2  0  0  0  0
  3  4  2  0  0  0  0
  3  2  1  0  0  0  0
  4  5  1  0  0  0  0
  5  9  1  0  0  0  0
  5  6  2  0  0  0  0
  7  2  1  0  0  0  0
  8  3  1  0  0  0  0
  9 10  1  0  0  0  0
 11 10  1  0  0  0  0
 12 11  1  0  0  0  0
 13 12  1  0  0  0  0
 13  9  1  0  0  0  0
 14 13  1  0  0  0  0
 15 16  1  0  0  0  0
 15 21  1  0  0  0  0
 16 23  1  0  0  0  0
 17 16  2  0  0  0  0
 18 19  2  0  0  0  0
 18 17  1  0  0  0  0
 19 20  1  0  0  0  0
 20 15  2  0  0  0  0
 22 17  1  0  0  0  0
 23 24  1  0  0  0  0
 23 25  1  0  0  0  0
M  END
>  <minimizedAffinity>
-5.09361935

$$$$

 OpenBabel03272506593D

 25 27  0  0  0  0  0  0  0  0999 V2000
   38.3790   24.6880   35.9360 C   0  0  0  0  0  0  0  0  0  0  0  0
   37.8910   24.6250   37.2320 C   0  0  0  0  0  0  0  0  0  0  0  0
   38.3100   23.8000   38.2430 C   0  0  0  0  0  0  0  0  0  0  0  0
   39.3300   22.9560   37.8980 N   0  0  0  0  0  0  0  0  0  0  0  0
   39.8420   22.9850   36.6310 C   0  0  0  0  0  0  0  0  0  0  0  0
   39.3750   23.8260   35.6920 N   0  0  0  0  0  0  0  0  0  0  0  0
   37.0760   25.3000   37.5020 H   0  0  0  0  0  0  0  0  0  0  0  0
   37.8740   23.8200   39.2150 H   0  0  0  0  0  0  0  0  0  0  0  0
   40.9080   22.0990   36.2770 N   0  0  0  0  0  0  0  0  0  0  0  0
   41.3720   21.7690   34.9430 C   0  0  0  0  0  2  0  0  0  0  0  0
   42.7820   21.3080   35.0880 C   0  0  0  0  0  2  0  0  0  0  0  0
   43.0760   21.1920   36.5670 C   0  0  0  0  0  2  0  0  0  0  0  0
   41.7330   21.3570   37.2270 C   0  0  0  0  0  3  0  0  0  0  0  0
   41.8160   21.9370   38.1630 H   0  0  0  0  0  0  0  0  0  0  0  0
   36.9780   27.7570   34.6250 C   0  0  0  0  0  0  0  0  0  0  0  0
   36.7600   27.5110   33.2580 C   0  0  0  0  0  0  0  0  0  0  0  0
   37.1260   26.2160   32.8030 C   0  0  0  0  0  0  0  0  0  0  0  0
   37.6450   25.3150   33.6720 N   0  0  0  0  0  0  0  0  0  0  0  0
   37.8220   25.6260   34.9610 C   0  0  0  0  0  0  0  0  0  0  0  0
   37.4990   26.8500   35.4890 N   0  0  0  0  0  0  0  0  0  0  0  0
   36.6910   28.7480   34.9410 H   0  0  0  0  0  0  0  0  0  0  0  0
   36.9780   25.9790   31.7610 H   0  0  0  0  0  0  0  0  0  0  0  0
   36.2170   28.4850   32.4000 N   0  0  0  0  0  0  0  0  0  0  0  0
   36.9710   28.8510   31.7450 H   0  0  0  0  0  0  0  0  0  0  0  0
   35.2090   28.5170   32.7130 H   0  0  0  0  0  0  0  0  0  0  0  0
  1  2  1  0  0  0  0
  2  7  1  0  0  0  0
  2  3  2  0  0  0  0
  3  8  1  0  0  0  0
  4  3  1  0  0  0  0
  5  4  2  0  0  0  0
  6  1  2  0  0  0  0
  6  5  1  0  0  0  0
  9  5  1  0  0  0  0
  9 13  1  0  0  0  0
 10 11  1  0  0  0  0
 10  9  1  0  0  0  0
 11 12  1  0  0  0  0
 12 13  1  0  0  0  0
 13 14  1  0  0  0  0
 15 21  1  0  0  0  0
 15 20  1  0  0  0  0
 16 15  2  0  0  0  0
 17 16  1  0  0  0  0
 17 18  2  0  0  0  0
 18 19  1  0  0  0  0
 19 20  2  0  0  0  0
 19  1  1  0  0  0  0
 22 17  1  0  0  0  0
 23 25  1  0  0  0  0
 23 16  1  0  0  0  0
 24 23  1  0  0  0  0
M  END
>  <minimizedAffinity>
-4.92063427

$$$$

 OpenBabel03272506593D

 25 27  0  0  0  0  0  0  0  0999 V2000
   38.3290   25.8610   34.7520 C   0  0  0  0  0  0  0  0  0  0  0  0
   37.2280   26.6180   35.1230 C   0  0  0  0  0  0  0  0  0  0  0  0
   36.6410   27.6380   34.4200 C   0  0  0  0  0  0  0  0  0  0  0  0
   37.2360   27.9130   33.2200 N   0  0  0  0  0  0  0  0  0  0  0  0
   38.3230   27.1920   32.8150 C   0  0  0  0  0  0  0  0  0  0  0  0
   38.8430   26.2030   33.5630 N   0  0  0  0  0  0  0  0  0  0  0  0
   36.7580   26.3940   36.0820 H   0  0  0  0  0  0  0  0  0  0  0  0
   35.7910   28.1680   34.7850 H   0  0  0  0  0  0  0  0  0  0  0  0
   38.9420   27.4860   31.5580 N   0  0  0  0  0  0  0  0  0  0  0  0
   40.2480   27.0550   31.0970 C   0  0  0  0  0  2  0  0  0  0  0  0
   40.2070   27.1030   29.6080 C   0  0  0  0  0  2  0  0  0  0  0  0
   38.9040   27.7570   29.2060 C   0  0  0  0  0  2  0  0  0  0  0  0
   38.3430   28.2910   30.4970 C   0  0  0  0  0  3  0  0  0  0  0  0
   37.2450   28.1770   30.5320 H   0  0  0  0  0  0  0  0  0  0  0  0
   40.5810   23.3110   35.9860 C   0  0  0  0  0  0  0  0  0  0  0  0
   39.9610   22.7930   37.1360 C   0  0  0  0  0  0  0  0  0  0  0  0
   38.7090   23.3750   37.4720 C   0  0  0  0  0  0  0  0  0  0  0  0
   38.1920   24.3610   36.6980 N   0  0  0  0  0  0  0  0  0  0  0  0
   38.8450   24.8000   35.6170 C   0  0  0  0  0  0  0  0  0  0  0  0
   40.0580   24.2990   35.2170 N   0  0  0  0  0  0  0  0  0  0  0  0
   41.5290   22.8500   35.7570 H   0  0  0  0  0  0  0  0  0  0  0  0
   38.1940   23.0110   38.3460 H   0  0  0  0  0  0  0  0  0  0  0  0
   40.5440   21.7670   37.9030 N   0  0  0  0  0  0  0  0  0  0  0  0
   40.8950   22.1620   38.8260 H   0  0  0  0  0  0  0  0  0  0  0  0
   40.4260   20.9280   37.2730 H   0  0  0  0  0  0  0  0  0  0  0  0
  1  2  1  0  0  0  0
  1 19  1  0  0  0  0
  2  7  1  0  0  0  0
  3  8  1  0  0  0  0
  3  2  2  0  0  0  0
  4  3  1  0  0  0  0
  5  4  2  0  0  0  0
  5  6  1  0  0  0  0
  6  1  2  0  0  0  0
  9  5  1  0  0  0  0
 10  9  1  0  0  0  0
 11 10  1  0  0  0  0
 12 11  1  0  0  0  0
 12 13  1  0  0  0  0
 13 14  1  0  0  0  0
 13  9  1  0  0  0  0
 15 16  1  0  0  0  0
 16 17  2  0  0  0  0
 16 23  1  0  0  0  0
 17 22  1  0  0  0  0
 18 17  1  0  0  0  0
 19 18  2  0  0  0  0
 20 19  1  0  0  0  0
 20 15  2  0  0  0  0
 21 15  1  0  0  0  0
 23 24  1  0  0  0  0
 25 23  1  0  0  0  0
M  END
>  <minimizedAffinity>
-4.83361959

$$$$

 OpenBabel03272506593D

 25 27  0  0  0  0  0  0  0  0999 V2000
   38.3840   25.8950   34.6440 C   0  0  0  0  0  0  0  0  0  0  0  0
   37.2610   26.5750   35.0890 C   0  0  0  0  0  0  0  0  0  0  0  0
   36.5910   27.5860   34.4510 C   0  0  0  0  0  0  0  0  0  0  0  0
   37.1170   27.9380   33.2390 N   0  0  0  0  0  0  0  0  0  0  0  0
   38.2240   27.2930   32.7630 C   0  0  0  0  0  0  0  0  0  0  0  0
   38.8280   26.3080   33.4490 N   0  0  0  0  0  0  0  0  0  0  0  0
   36.8450   26.2900   36.0570 H   0  0  0  0  0  0  0  0  0  0  0  0
   35.7300   28.0540   34.8700 H   0  0  0  0  0  0  0  0  0  0  0  0
   38.7710   27.6670   31.4930 N   0  0  0  0  0  0  0  0  0  0  0  0
   40.0780   27.3270   30.9640 C   0  0  0  0  0  2  0  0  0  0  0  0
   39.9710   27.4260   29.4800 C   0  0  0  0  0  2  0  0  0  0  0  0
   38.6180   28.0220   29.1580 C   0  0  0  0  0  2  0  0  0  0  0  0
   38.0850   28.4760   30.4900 C   0  0  0  0  0  3  0  0  0  0  0  0
   36.9970   28.3010   30.5660 H   0  0  0  0  0  0  0  0  0  0  0  0
   38.7190   23.3950   37.2410 C   0  0  0  0  0  0  0  0  0  0  0  0
   39.9930   22.8320   37.0510 C   0  0  0  0  0  0  0  0  0  0  0  0
   40.7420   23.3630   35.9680 C   0  0  0  0  0  0  0  0  0  0  0  0
   40.2170   24.3480   35.2000 N   0  0  0  0  0  0  0  0  0  0  0  0
   38.9940   24.8330   35.4450 C   0  0  0  0  0  0  0  0  0  0  0  0
   38.1980   24.3810   36.4670 N   0  0  0  0  0  0  0  0  0  0  0  0
   38.1740   22.9720   38.0700 H   0  0  0  0  0  0  0  0  0  0  0  0
   41.7260   22.9630   35.7820 H   0  0  0  0  0  0  0  0  0  0  0  0
   40.4890   21.8090   37.8800 N   0  0  0  0  0  0  0  0  0  0  0  0
   40.5060   20.8890   37.3480 H   0  0  0  0  0  0  0  0  0  0  0  0
   40.6820   22.3290   38.7790 H   0  0  0  0  0  0  0  0  0  0  0  0
  1  2  1  0  0  0  0
  1 19  1  0  0  0  0
  2  7  1  0  0  0  0
  3  8  1  0  0  0  0
  3  2  2  0  0  0  0
  4  3  1  0  0  0  0
  5  4  2  0  0  0  0
  5  6  1  0  0  0  0
  6  1  2  0  0  0  0
  9  5  1  0  0  0  0
 10  9  1  0  0  0  0
 11 10  1  0  0  0  0
 12 11  1  0  0  0  0
 12 13  1  0  0  0  0
 13 14  1  0  0  0  0
 13  9  1  0  0  0  0
 15 21  1  0  0  0  0
 16 15  1  0  0  0  0
 16 23  1  0  0  0  0
 17 16  2  0  0  0  0
 18 19  2  0  0  0  0
 18 17  1  0  0  0  0
 19 20  1  0  0  0  0
 20 15  2  0  0  0  0
 22 17  1  0  0  0  0
 23 25  1  0  0  0  0
 24 23  1  0  0  0  0
M  END
>  <minimizedAffinity>
-4.80747795

$$$$

 OpenBabel03272506593D

 25 27  0  0  0  0  0  0  0  0999 V2000
   36.4590   23.5290   32.0540 C   0  0  0  0  0  0  0  0  0  0  0  0
   35.8080   24.4740   31.2760 C   0  0  0  0  0  0  0  0  0  0  0  0
   36.0710   25.8170   31.1990 C   0  0  0  0  0  0  0  0  0  0  0  0
   37.1020   26.2380   31.9930 N   0  0  0  0  0  0  0  0  0  0  0  0
   37.7710   25.3400   32.7760 C   0  0  0  0  0  0  0  0  0  0  0  0
   37.4520   24.0340   32.7980 N   0  0  0  0  0  0  0  0  0  0  0  0
   34.9850   24.1330   30.6450 H   0  0  0  0  0  0  0  0  0  0  0  0
   35.5160   26.4730   30.5690 H   0  0  0  0  0  0  0  0  0  0  0  0
   38.8490   25.7870   33.6060 N   0  0  0  0  0  0  0  0  0  0  0  0
   39.4690   25.0710   34.7050 C   0  0  0  0  0  2  0  0  0  0  0  0
   40.8360   25.6450   34.8640 C   0  0  0  0  0  2  0  0  0  0  0  0
   40.9350   26.8500   33.9560 C   0  0  0  0  0  2  0  0  0  0  0  0
   39.5240   27.0750   33.4810 C   0  0  0  0  0  3  0  0  0  0  0  0
   39.5040   27.3940   32.4240 H   0  0  0  0  0  0  0  0  0  0  0  0
   35.4050   20.3010   33.3060 C   0  0  0  0  0  0  0  0  0  0  0  0
   35.2870   19.4830   32.1690 C   0  0  0  0  0  0  0  0  0  0  0  0
   35.5920   20.1070   30.9310 C   0  0  0  0  0  0  0  0  0  0  0  0
   35.9690   21.4090   30.9040 N   0  0  0  0  0  0  0  0  0  0  0  0
   36.0570   22.1220   32.0320 C   0  0  0  0  0  0  0  0  0  0  0  0
   35.7820   21.6040   33.2720 N   0  0  0  0  0  0  0  0  0  0  0  0
   35.1670   19.7990   34.2310 H   0  0  0  0  0  0  0  0  0  0  0  0
   35.5170   19.5200   30.0290 H   0  0  0  0  0  0  0  0  0  0  0  0
   34.8910   18.1350   32.2550 N   0  0  0  0  0  0  0  0  0  0  0  0
   33.9050   18.0230   31.8750 H   0  0  0  0  0  0  0  0  0  0  0  0
   35.7440   17.6820   32.6830 H   0  0  0  0  0  0  0  0  0  0  0  0
  1  6  1  0  0  0  0
  2  1  2  0  0  0  0
  3  2  1  0  0  0  0
  3  4  2  0  0  0  0
  4  5  1  0  0  0  0
  5  6  2  0  0  0  0
  5  9  1  0  0  0  0
  7  2  1  0  0  0  0
  8  3  1  0  0  0  0
  9 10  1  0  0  0  0
 10 11  1  0  0  0  0
 12 11  1  0  0  0  0
 13  9  1  0  0  0  0
 13 12  1  0  0  0  0
 14 13  1  0  0  0  0
 15 21  1  0  0  0  0
 16 23  1  0  0  0  0
 16 15  2  0  0  0  0
 17 16  1  0  0  0  0
 18 17  2  0  0  0  0
 18 19  1  0  0  0  0
 19  1  1  0  0  0  0
 19 20  2  0  0  0  0
 20 15  1  0  0  0  0
 22 17  1  0  0  0  0
 23 25  1  0  0  0  0
 24 23  1  0  0  0  0
M  END
>  <minimizedAffinity>
-4.79735756

$$$$

 OpenBabel03272506593D

 25 27  0  0  0  0  0  0  0  0999 V2000
   37.3330   26.0910   33.6000 C   0  0  0  0  0  0  0  0  0  0  0  0
   37.3220   25.7280   32.2620 C   0  0  0  0  0  0  0  0  0  0  0  0
   36.8710   26.4680   31.2000 C   0  0  0  0  0  0  0  0  0  0  0  0
   36.3830   27.7010   31.5360 N   0  0  0  0  0  0  0  0  0  0  0  0
   36.3750   28.0990   32.8430 C   0  0  0  0  0  0  0  0  0  0  0  0
   36.8360   27.3140   33.8310 N   0  0  0  0  0  0  0  0  0  0  0  0
   37.7120   24.7430   32.0000 H   0  0  0  0  0  0  0  0  0  0  0  0
   36.9020   26.1070   30.1970 H   0  0  0  0  0  0  0  0  0  0  0  0
   35.8620   29.3910   33.1870 N   0  0  0  0  0  0  0  0  0  0  0  0
   35.4950   29.8680   34.5070 C   0  0  0  0  0  2  0  0  0  0  0  0
   35.5760   31.3560   34.4550 C   0  0  0  0  0  2  0  0  0  0  0  0
   35.8150   31.7510   33.0150 C   0  0  0  0  0  2  0  0  0  0  0  0
   35.6180   30.4760   32.2410 C   0  0  0  0  0  3  0  0  0  0  0  0
   36.3370   30.3980   31.4070 H   0  0  0  0  0  0  0  0  0  0  0  0
   38.9700   23.2010   35.0370 C   0  0  0  0  0  0  0  0  0  0  0  0
   38.8730   23.3740   36.4290 C   0  0  0  0  0  0  0  0  0  0  0  0
   38.2060   24.5540   36.8550 C   0  0  0  0  0  0  0  0  0  0  0  0
   37.7140   25.4210   35.9370 N   0  0  0  0  0  0  0  0  0  0  0  0
   37.8470   25.1850   34.6270 C   0  0  0  0  0  0  0  0  0  0  0  0
   38.4760   24.0740   34.1240 N   0  0  0  0  0  0  0  0  0  0  0  0
   39.4820   22.2980   34.7450 H   0  0  0  0  0  0  0  0  0  0  0  0
   38.1060   24.7310   37.9140 H   0  0  0  0  0  0  0  0  0  0  0  0
   39.4040   22.4390   37.3370 N   0  0  0  0  0  0  0  0  0  0  0  0
   40.2680   22.8430   37.8080 H   0  0  0  0  0  0  0  0  0  0  0  0
   38.7350   21.6290   37.2350 H   0  0  0  0  0  0  0  0  0  0  0  0
  1  6  1  0  0  0  0
  1 19  1  0  0  0  0
  2  1  2  0  0  0  0
  3  4  2  0  0  0  0
  3  2  1  0  0  0  0
  4  5  1  0  0  0  0
  5  9  1  0  0  0  0
  5  6  2  0  0  0  0
  7  2  1  0  0  0  0
  8  3  1  0  0  0  0
  9 10  1  0  0  0  0
 11 10  1  0  0  0  0
 12 11  1  0  0  0  0
 13 12  1  0  0  0  0
 13  9  1  0  0  0  0
 14 13  1  0  0  0  0
 15 16  1  0  0  0  0
 16 17  2  0  0  0  0
 16 23  1  0  0  0  0
 17 22  1  0  0  0  0
 18 17  1  0  0  0  0
 19 18  2  0  0  0  0
 20 19  1  0  0  0  0
 20 15  2  0  0  0  0
 21 15  1  0  0  0  0
 23 24  1  0  0  0  0
 25 23  1  0  0  0  0
M  END
>  <minimizedAffinity>
-4.71373367

$$$$

 OpenBabel03272506593D

 25 27  0  0  0  0  0  0  0  0999 V2000
   37.1160   25.8650   32.1090 C   0  0  0  0  0  0  0  0  0  0  0  0
   37.1830   24.7620   31.2710 C   0  0  0  0  0  0  0  0  0  0  0  0
   37.5110   23.4760   31.6100 C   0  0  0  0  0  0  0  0  0  0  0  0
   37.7990   23.2950   32.9350 N   0  0  0  0  0  0  0  0  0  0  0  0
   37.7450   24.3550   33.7960 C   0  0  0  0  0  0  0  0  0  0  0  0
   37.4140   25.5910   33.3860 N   0  0  0  0  0  0  0  0  0  0  0  0
   36.9530   24.9130   30.2150 H   0  0  0  0  0  0  0  0  0  0  0  0
   37.5370   22.6850   30.8950 H   0  0  0  0  0  0  0  0  0  0  0  0
   38.0480   24.1590   35.1810 N   0  0  0  0  0  0  0  0  0  0  0  0
   38.3360   25.1780   36.1710 C   0  0  0  0  0  2  0  0  0  0  0  0
   38.0210   24.5780   37.4990 C   0  0  0  0  0  2  0  0  0  0  0  0
   37.7230   23.1120   37.2790 C   0  0  0  0  0  2  0  0  0  0  0  0
   38.1180   22.8620   35.8490 C   0  0  0  0  0  3  0  0  0  0  0  0
   37.4190   22.1630   35.3570 H   0  0  0  0  0  0  0  0  0  0  0  0
   35.5220   29.1120   31.9780 C   0  0  0  0  0  0  0  0  0  0  0  0
   35.9640   29.6930   30.7770 C   0  0  0  0  0  0  0  0  0  0  0  0
   36.8520   28.9000   30.0020 C   0  0  0  0  0  0  0  0  0  0  0  0
   37.2160   27.6700   30.4390 N   0  0  0  0  0  0  0  0  0  0  0  0
   36.7510   27.1860   31.5960 C   0  0  0  0  0  0  0  0  0  0  0  0
   35.8920   27.8800   32.4090 N   0  0  0  0  0  0  0  0  0  0  0  0
   34.8500   29.7380   32.5440 H   0  0  0  0  0  0  0  0  0  0  0  0
   37.2180   29.3040   29.0710 H   0  0  0  0  0  0  0  0  0  0  0  0
   35.5530   30.9770   30.3720 N   0  0  0  0  0  0  0  0  0  0  0  0
   36.3610   31.6620   30.4670 H   0  0  0  0  0  0  0  0  0  0  0  0
   34.5460   30.8100   30.1010 H   0  0  0  0  0  0  0  0  0  0  0  0
  1  6  1  0  0  0  0
  2  3  1  0  0  0  0
  2  1  2  0  0  0  0
  3  4  2  0  0  0  0
  4  5  1  0  0  0  0
  5  9  1  0  0  0  0
  6  5  2  0  0  0  0
  7  2  1  0  0  0  0
  8  3  1  0  0  0  0
  9 13  1  0  0  0  0
  9 10  1  0  0  0  0
 10 11  1  0  0  0  0
 12 11  1  0  0  0  0
 13 12  1  0  0  0  0
 14 13  1  0  0  0  0
 15 20  1  0  0  0  0
 15 21  1  0  0  0  0
 16 15  2  0  0  0  0
 17 18  2  0  0  0  0
 17 16  1  0  0  0  0
 18 19  1  0  0  0  0
 19  1  1  0  0  0  0
 19 20  2  0  0  0  0
 22 17  1  0  0  0  0
 23 24  1  0  0  0  0
 23 16  1  0  0  0  0
 25 23  1  0  0  0  0
M  END
>  <minimizedAffinity>
-4.68058348

$$$$

 OpenBabel03272506593D

 25 27  0  0  0  0  0  0  0  0999 V2000
   35.7500   29.2210   33.7420 C   0  0  0  0  0  0  0  0  0  0  0  0
   35.5930   29.4850   32.3900 C   0  0  0  0  0  0  0  0  0  0  0  0
   36.0280   28.7270   31.3360 C   0  0  0  0  0  0  0  0  0  0  0  0
   36.6900   27.5850   31.6940 N   0  0  0  0  0  0  0  0  0  0  0  0
   36.8680   27.2860   33.0160 C   0  0  0  0  0  0  0  0  0  0  0  0
   36.4100   28.0830   33.9960 N   0  0  0  0  0  0  0  0  0  0  0  0
   35.0640   30.3980   32.1100 H   0  0  0  0  0  0  0  0  0  0  0  0
   35.8610   29.0090   30.3210 H   0  0  0  0  0  0  0  0  0  0  0  0
   37.5620   26.0890   33.3850 N   0  0  0  0  0  0  0  0  0  0  0  0
   38.1060   25.7530   34.6870 C   0  0  0  0  0  2  0  0  0  0  0  0
   38.1990   24.2660   34.7350 C   0  0  0  0  0  2  0  0  0  0  0  0
   37.8770   23.7430   33.3530 C   0  0  0  0  0  2  0  0  0  0  0  0
   37.8460   24.9740   32.4870 C   0  0  0  0  0  3  0  0  0  0  0  0
   37.0480   24.9090   31.7260 H   0  0  0  0  0  0  0  0  0  0  0  0
   33.3360   30.8840   35.8650 C   0  0  0  0  0  0  0  0  0  0  0  0
   34.0840   31.7890   36.6380 C   0  0  0  0  0  0  0  0  0  0  0  0
   35.4820   31.7980   36.3890 C   0  0  0  0  0  0  0  0  0  0  0  0
   36.0090   30.9690   35.4550 N   0  0  0  0  0  0  0  0  0  0  0  0
   35.2290   30.1340   34.7590 C   0  0  0  0  0  0  0  0  0  0  0  0
   33.8700   30.0560   34.9320 N   0  0  0  0  0  0  0  0  0  0  0  0
   32.2790   30.9000   36.0770 H   0  0  0  0  0  0  0  0  0  0  0  0
   36.0990   32.4770   36.9570 H   0  0  0  0  0  0  0  0  0  0  0  0
   33.4840   32.6290   37.5960 N   0  0  0  0  0  0  0  0  0  0  0  0
   33.7330   32.2950   38.5740 H   0  0  0  0  0  0  0  0  0  0  0  0
   32.9760   33.3270   36.9880 H   0  0  0  0  0  0  0  0  0  0  0  0
  1  6  1  0  0  0  0
  1 19  1  0  0  0  0
  2  1  2  0  0  0  0
  3  4  2  0  0  0  0
  3  2  1  0  0  0  0
  4  5  1  0  0  0  0
  5  9  1  0  0  0  0
  5  6  2  0  0  0  0
  7  2  1  0  0  0  0
  8  3  1  0  0  0  0
  9 10  1  0  0  0  0
 10 11  1  0  0  0  0
 12 11  1  0  0  0  0
 13 12  1  0  0  0  0
 13  9  1  0  0  0  0
 14 13  1  0  0  0  0
 15 21  1  0  0  0  0
 15 16  1  0  0  0  0
 16 23  1  0  0  0  0
 17 16  2  0  0  0  0
 17 22  1  0  0  0  0
 18 17  1  0  0  0  0
 19 20  1  0  0  0  0
 19 18  2  0  0  0  0
 20 15  2  0  0  0  0
 23 24  1  0  0  0  0
 25 23  1  0  0  0  0
M  END
>  <minimizedAffinity>
-4.6209197

$$$$
