
 OpenBabel03272507463D

 43 47  0  0  0  0  0  0  0  0999 V2000
   32.4730   28.2200   47.4180 N   0  0  0  0  0  0  0  0  0  0  0  0
   32.9970   27.7870   48.6690 C   0  0  0  0  0  0  0  0  0  0  0  0
   34.1910   28.5030   49.1750 C   0  0  0  0  0  0  0  0  0  0  0  0
   35.1930   28.8900   48.1830 C   0  0  0  0  0  0  0  0  0  0  0  0
   34.5630   29.2770   46.8330 C   0  0  0  0  0  0  0  0  0  0  0  0
   33.5550   28.1750   46.4730 C   0  0  0  0  0  0  0  0  0  0  0  0
   33.2350   26.6950   48.5740 H   0  0  0  0  0  0  0  0  0  0  0  0
   32.1760   27.8440   49.4170 H   0  0  0  0  0  0  0  0  0  0  0  0
   33.7300   29.4750   49.5570 H   0  0  0  0  0  0  0  0  0  0  0  0
   34.6090   28.0000   50.0410 H   0  0  0  0  0  0  0  0  0  0  0  0
   35.8460   28.0190   47.9010 H   0  0  0  0  0  0  0  0  0  0  0  0
   35.3540   29.2280   46.0660 H   0  0  0  0  0  0  0  0  0  0  0  0
   34.0680   30.2470   46.9440 H   0  0  0  0  0  0  0  0  0  0  0  0
   34.1000   27.2280   46.4340 H   0  0  0  0  0  0  0  0  0  0  0  0
   33.1730   28.4820   45.4610 H   0  0  0  0  0  0  0  0  0  0  0  0
   35.9050   30.5370   49.8560 C   0  0  0  0  0  0  0  0  0  0  0  0
   36.0290   30.0560   48.5600 C   0  0  0  0  0  0  0  0  0  0  0  0
   36.8500   30.6120   47.6150 C   0  0  0  0  0  0  0  0  0  0  0  0
   37.6040   31.7270   47.9750 C   0  0  0  0  0  0  0  0  0  0  0  0
   37.4780   32.2060   49.2650 C   0  0  0  0  0  0  0  0  0  0  0  0
   36.6460   31.6440   50.2300 C   0  0  0  0  0  0  0  0  0  0  0  0
   38.3040   33.3260   49.4460 O   0  0  0  0  0  0  0  0  0  0  0  0
   39.2060   33.2800   48.3390 C   0  0  0  0  0  0  0  0  0  0  0  0
   38.5240   32.5570   47.3430 O   0  0  0  0  0  0  0  0  0  0  0  0
   35.3060   30.1740   50.6770 H   0  0  0  0  0  0  0  0  0  0  0  0
   36.9240   30.2210   46.6300 H   0  0  0  0  0  0  0  0  0  0  0  0
   36.5980   32.0750   51.2300 H   0  0  0  0  0  0  0  0  0  0  0  0
   39.4910   34.2710   47.9670 H   0  0  0  0  0  0  0  0  0  0  0  0
   40.1540   32.7800   48.6670 H   0  0  0  0  0  0  0  0  0  0  0  0
   31.1340   28.6280   47.1220 C   0  0  0  0  0  0  0  0  0  0  0  0
   30.7240   29.3330   45.9940 C   0  0  0  0  0  0  0  0  0  0  0  0
   29.3790   29.6410   45.8800 C   0  0  0  0  0  0  0  0  0  0  0  0
   28.5300   29.2420   46.8660 N   0  0  0  0  0  0  0  0  0  0  0  0
   28.9480   28.5630   47.9450 C   0  0  0  0  0  0  0  0  0  0  0  0
   30.2460   28.2640   48.0620 N   0  0  0  0  0  0  0  0  0  0  0  0
   31.5010   29.5780   45.3060 H   0  0  0  0  0  0  0  0  0  0  0  0
   29.0760   30.1830   45.0080 H   0  0  0  0  0  0  0  0  0  0  0  0
   27.9740   28.1940   48.9190 N   0  0  0  0  0  0  0  0  0  0  0  0
   27.4680   26.8410   49.0740 C   0  0  0  0  0  2  0  0  0  0  0  0
   27.4720   26.7160   50.5830 C   0  0  0  0  0  2  0  0  0  0  0  0
   27.3940   28.1270   51.1270 C   0  0  0  0  0  2  0  0  0  0  0  0
   27.3090   29.0240   49.9100 C   0  0  0  0  0  3  0  0  0  0  0  0
   27.8650   29.9790   50.0290 H   0  0  0  0  0  0  0  0  0  0  0  0
  1  2  1  0  0  0  0
  2  3  1  0  0  0  0
  2  8  1  0  0  0  0
  3  9  1  0  0  0  0
  3 10  1  0  0  0  0
  4 17  1  0  0  0  0
  4  3  1  0  0  0  0
  5 13  1  0  0  0  0
  5  4  1  0  0  0  0
  6  5  1  0  0  0  0
  6  1  1  0  0  0  0
  7  2  1  0  0  0  0
 11  4  1  0  0  0  0
 12  5  1  0  0  0  0
 14  6  1  0  0  0  0
 15  6  1  0  0  0  0
 16 21  1  0  0  0  0
 16 25  1  0  0  0  0
 17 16  2  0  0  0  0
 18 19  2  0  0  0  0
 18 17  1  0  0  0  0
 19 20  1  0  0  0  0
 20 22  1  0  0  0  0
 20 21  2  0  0  0  0
 21 27  1  0  0  0  0
 23 29  1  0  0  0  0
 23 22  1  0  0  0  0
 24 19  1  0  0  0  0
 24 23  1  0  0  0  0
 26 18  1  0  0  0  0
 28 23  1  0  0  0  0
 30  1  1  0  0  0  0
 30 35  1  0  0  0  0
 31 30  2  0  0  0  0
 32 31  1  0  0  0  0
 32 33  2  0  0  0  0
 33 34  1  0  0  0  0
 34 35  2  0  0  0  0
 34 38  1  0  0  0  0
 36 31  1  0  0  0  0
 37 32  1  0  0  0  0
 38 39  1  0  0  0  0
 38 42  1  0  0  0  0
 39 40  1  0  0  0  0
 40 41  1  0  0  0  0
 42 43  1  0  0  0  0
 42 41  1  0  0  0  0
M  END
>  <minimizedAffinity>
-7.65755415

>  <minimizedRMSD>
0.424350768

$$$$
