
 OpenBabel03272508433D

 24 26  0  0  0  0  0  0  0  0999 V2000
   34.6690   28.5700   48.6920 C   0  0  0  0  0  0  0  0  0  0  0  0
   34.6500   28.7500   50.0570 C   0  0  0  0  0  0  0  0  0  0  0  0
   35.7620   29.5520   50.2740 C   0  0  0  0  0  0  0  0  0  0  0  0
   36.3850   29.8130   49.0780 C   0  0  0  0  0  0  0  0  0  0  0  0
   35.7100   29.2110   48.1410 O   0  0  0  0  0  0  0  0  0  0  0  0
   33.9740   28.3890   50.7960 H   0  0  0  0  0  0  0  0  0  0  0  0
   36.0760   29.9110   51.2670 H   0  0  0  0  0  0  0  0  0  0  0  0
   37.5600   30.6100   48.9500 N   0  0  0  0  0  0  0  0  0  0  0  0
   38.2860   31.2240   50.0490 C   0  0  0  0  0  2  0  0  0  0  0  0
   38.5500   32.5920   49.4610 C   0  0  0  0  0  2  0  0  0  0  0  0
   38.3750   32.4850   47.9620 C   0  0  0  0  0  2  0  0  0  0  0  0
   38.2890   30.9890   47.7480 C   0  0  0  0  0  3  0  0  0  0  0  0
   39.3300   30.6050   47.7830 H   0  0  0  0  0  0  0  0  0  0  0  0
   33.6850   27.7810   47.9350 C   0  0  0  0  0  0  0  0  0  0  0  0
   33.8610   26.5390   47.8710 O   0  0  0  0  0  0  0  0  0  0  0  0
   30.2720   28.5370   46.9640 C   0  0  0  0  0  0  0  0  0  0  0  0
   30.3980   29.6180   46.1010 C   0  0  0  0  0  0  0  0  0  0  0  0
   31.6790   30.1000   45.8450 C   0  0  0  0  0  0  0  0  0  0  0  0
   32.7150   29.4860   46.4510 N   0  0  0  0  0  0  0  0  0  0  0  0
   32.5580   28.4290   47.2910 C   0  0  0  0  0  0  0  0  0  0  0  0
   31.3280   27.9660   47.5380 N   0  0  0  0  0  0  0  0  0  0  0  0
   29.2450   28.2280   47.1070 H   0  0  0  0  0  0  0  0  0  0  0  0
   29.5490   30.0940   45.6260 H   0  0  0  0  0  0  0  0  0  0  0  0
   31.8670   30.9430   45.1810 H   0  0  0  0  0  0  0  0  0  0  0  0
  1  2  2  0  0  0  0
  2  3  1  0  0  0  0
  2  6  1  0  0  0  0
  3  7  1  0  0  0  0
  4  3  2  0  0  0  0
  5  1  1  0  0  0  0
  5  4  1  0  0  0  0
  8  4  1  0  0  0  0
  8  9  1  0  0  0  0
 10  9  1  0  0  0  0
 11 10  1  0  0  0  0
 12 13  1  0  0  0  0
 12 11  1  0  0  0  0
 12  8  1  0  0  0  0
 14  1  1  0  0  0  0
 15 14  2  0  0  0  0
 16 22  1  0  0  0  0
 16 21  1  0  0  0  0
 17 16  2  0  0  0  0
 18 17  1  0  0  0  0
 18 19  2  0  0  0  0
 19 20  1  0  0  0  0
 20 21  2  0  0  0  0
 20 14  1  0  0  0  0
 23 17  1  0  0  0  0
 24 18  1  0  0  0  0
M  END
>  <minimizedAffinity>
-5.07382154

>  <minimizedRMSD>
3.33247948

$$$$
