
 OpenBabel03262521003D

 32 34  0  0  1  0  0  0  0  0999 V2000
   38.5290   24.4420   36.5710 N   0  0  0  0  0  0  0  0  0  0  0  0
   39.5690   23.7040   35.9470 C   0  0  1  0  0  0  0  0  0  0  0  0
   40.5210   23.1620   36.9840 C   0  0  0  0  0  0  0  0  0  0  0  0
   39.7570   22.3200   37.8870 N   0  0  0  0  0  0  0  0  0  0  0  0
   38.8810   23.2500   38.6290 C   0  0  0  0  0  0  0  0  0  0  0  0
   37.8630   23.7430   37.6180 C   0  0  2  0  0  0  0  0  0  0  0  0
   38.0270   25.1490   36.0620 H   0  0  0  0  0  0  0  0  0  0  0  0
   40.1120   24.3580   35.2470 H   0  0  0  0  0  0  0  0  0  0  0  0
   41.2980   22.5480   36.5100 H   0  0  0  0  0  0  0  0  0  0  0  0
   41.0070   23.9680   37.5640 H   0  0  0  0  0  0  0  0  0  0  0  0
   40.3730   21.8900   38.6250 H   0  0  0  0  0  0  0  0  0  0  0  0
   39.5180   24.0790   38.9560 H   0  0  0  0  0  0  0  0  0  0  0  0
   38.3830   22.7120   39.4390 H   0  0  0  0  0  0  0  0  0  0  0  0
   37.2220   24.4750   38.1760 H   0  0  0  0  0  0  0  0  0  0  0  0
   37.0810   22.6190   37.1580 N   0  0  0  0  0  0  0  0  0  0  0  0
   36.1540   23.0030   36.8740 H   0  0  0  0  0  0  0  0  0  0  0  0
   37.0070   21.9450   37.9520 H   0  0  0  0  0  0  0  0  0  0  0  0
   38.9320   22.2400   35.0550 S   0  0  0  0  0  0  0  0  0  0  0  0
   36.4230   22.3740   31.8920 C   0  0  0  0  0  0  0  0  0  0  0  0
   37.2180   21.8630   32.9090 C   0  0  0  0  0  0  0  0  0  0  0  0
   37.8850   22.7390   33.7230 C   0  0  0  0  0  0  0  0  0  0  0  0
   37.7200   24.0760   33.4770 N   0  0  0  0  0  0  0  0  0  0  0  0
   36.9600   24.5410   32.5060 C   0  0  0  0  0  0  0  0  0  0  0  0
   36.2960   23.6740   31.6950 N   0  0  0  0  0  0  0  0  0  0  0  0
   35.9290   21.6230   31.2930 H   0  0  0  0  0  0  0  0  0  0  0  0
   37.3250   20.7970   33.0750 H   0  0  0  0  0  0  0  0  0  0  0  0
   36.8210   25.9410   32.2900 N   0  0  0  0  0  0  0  0  0  0  0  0
   36.9030   26.9710   33.3060 C   0  0  0  0  0  2  0  0  0  0  0  0
   36.9020   28.2810   32.5530 C   0  0  0  0  0  2  0  0  0  0  0  0
   37.3820   27.8610   31.1810 C   0  0  0  0  0  2  0  0  0  0  0  0
   36.5730   26.5690   31.0070 C   0  0  0  0  0  3  0  0  0  0  0  0
   36.9080   25.9680   30.1630 H   0  0  0  0  0  0  0  0  0  0  0  0
  1  6  1  0  0  0  0
  2  8  1  6  0  0  0
  2  1  1  0  0  0  0
  2  3  1  0  0  0  0
  3 10  1  0  0  0  0
  3  4  1  0  0  0  0
  4 11  1  0  0  0  0
  4  5  1  0  0  0  0
  5 12  1  0  0  0  0
  5 13  1  0  0  0  0
  6 14  1  1  0  0  0
  6  5  1  0  0  0  0
  7  1  1  0  0  0  0
  9  3  1  0  0  0  0
 15  6  1  0  0  0  0
 15 17  1  0  0  0  0
 16 15  1  0  0  0  0
 18  2  1  0  0  0  0
 19 20  1  0  0  0  0
 20 26  1  0  0  0  0
 20 21  2  0  0  0  0
 21 18  1  0  0  0  0
 22 21  1  0  0  0  0
 23 22  2  0  0  0  0
 24 19  2  0  0  0  0
 24 23  1  0  0  0  0
 25 19  1  0  0  0  0
 27 23  1  0  0  0  0
 27 28  1  0  0  0  0
 29 28  1  0  0  0  0
 30 29  1  0  0  0  0
 31 30  1  0  0  0  0
 31 27  1  0  0  0  0
 32 31  1  0  0  0  0
M  END
>  <minimizedAffinity>
-5.25560617

$$$$

 OpenBabel03262521003D

 32 34  0  0  1  0  0  0  0  0999 V2000
   35.7310   20.2650   33.5770 N   0  0  0  0  0  0  0  0  0  0  0  0
   36.5700   21.1760   32.8830 C   0  0  1  0  0  0  0  0  0  0  0  0
   37.7170   20.4430   32.2340 C   0  0  0  0  0  0  0  0  0  0  0  0
   37.1530   19.4610   31.3250 N   0  0  0  0  0  0  0  0  0  0  0  0
   36.5090   18.4570   32.1970 C   0  0  0  0  0  0  0  0  0  0  0  0
   35.3020   19.1540   32.7960 C   0  0  2  0  0  0  0  0  0  0  0  0
   35.1510   20.5800   34.3350 H   0  0  0  0  0  0  0  0  0  0  0  0
   36.9580   21.9260   33.5900 H   0  0  0  0  0  0  0  0  0  0  0  0
   38.3390   21.1360   31.6540 H   0  0  0  0  0  0  0  0  0  0  0  0
   38.3540   19.9260   32.9760 H   0  0  0  0  0  0  0  0  0  0  0  0
   37.9080   18.9270   30.8190 H   0  0  0  0  0  0  0  0  0  0  0  0
   37.2350   18.2200   32.9820 H   0  0  0  0  0  0  0  0  0  0  0  0
   36.1930   17.6010   31.5940 H   0  0  0  0  0  0  0  0  0  0  0  0
   34.8360   18.4010   33.4830 H   0  0  0  0  0  0  0  0  0  0  0  0
   34.3930   19.5120   31.7310 N   0  0  0  0  0  0  0  0  0  0  0  0
   33.4410   19.5360   32.1540 H   0  0  0  0  0  0  0  0  0  0  0  0
   34.4820   18.7830   30.9880 H   0  0  0  0  0  0  0  0  0  0  0  0
   35.6890   22.0150   31.5180 S   0  0  0  0  0  0  0  0  0  0  0  0
   35.4210   26.0250   31.1110 C   0  0  0  0  0  0  0  0  0  0  0  0
   35.1420   24.6750   30.9560 C   0  0  0  0  0  0  0  0  0  0  0  0
   35.9210   23.7630   31.6170 C   0  0  0  0  0  0  0  0  0  0  0  0
   36.9350   24.2520   32.3980 N   0  0  0  0  0  0  0  0  0  0  0  0
   37.1840   25.5390   32.5320 C   0  0  0  0  0  0  0  0  0  0  0  0
   36.4120   26.4470   31.8770 N   0  0  0  0  0  0  0  0  0  0  0  0
   34.7640   26.6820   30.5590 H   0  0  0  0  0  0  0  0  0  0  0  0
   34.3300   24.3230   30.3300 H   0  0  0  0  0  0  0  0  0  0  0  0
   38.2510   25.9980   33.3550 N   0  0  0  0  0  0  0  0  0  0  0  0
   38.7580   25.3340   34.5380 C   0  0  0  0  0  2  0  0  0  0  0  0
   40.0060   26.0950   34.9240 C   0  0  0  0  0  2  0  0  0  0  0  0
   40.3920   26.7560   33.6200 C   0  0  0  0  0  2  0  0  0  0  0  0
   39.0090   27.2150   33.1410 C   0  0  0  0  0  3  0  0  0  0  0  0
   39.0050   27.5460   32.1030 H   0  0  0  0  0  0  0  0  0  0  0  0
  1  7  1  0  0  0  0
  2  1  1  0  0  0  0
  2  8  1  1  0  0  0
  3  2  1  0  0  0  0
  3 10  1  0  0  0  0
  4  5  1  0  0  0  0
  4  3  1  0  0  0  0
  5  6  1  0  0  0  0
  5 12  1  0  0  0  0
  6 14  1  1  0  0  0
  6  1  1  0  0  0  0
  9  3  1  0  0  0  0
 11  4  1  0  0  0  0
 13  5  1  0  0  0  0
 15 16  1  0  0  0  0
 15  6  1  0  0  0  0
 17 15  1  0  0  0  0
 18 21  1  0  0  0  0
 18  2  1  0  0  0  0
 19 24  1  0  0  0  0
 20 19  2  0  0  0  0
 20 21  1  0  0  0  0
 21 22  2  0  0  0  0
 22 23  1  0  0  0  0
 23 27  1  0  0  0  0
 24 23  2  0  0  0  0
 25 19  1  0  0  0  0
 26 20  1  0  0  0  0
 27 28  1  0  0  0  0
 28 29  1  0  0  0  0
 30 29  1  0  0  0  0
 31 27  1  0  0  0  0
 31 30  1  0  0  0  0
 32 31  1  0  0  0  0
M  END
>  <minimizedAffinity>
-4.87396097

$$$$

 OpenBabel03262521003D

 32 34  0  0  1  0  0  0  0  0999 V2000
   37.8130   26.8190   32.0880 N   0  0  0  0  0  0  0  0  0  0  0  0
   36.4000   26.8650   31.9540 C   0  0  1  0  0  0  0  0  0  0  0  0
   35.9930   28.0480   31.1110 C   0  0  0  0  0  0  0  0  0  0  0  0
   36.6330   27.9090   29.8160 N   0  0  0  0  0  0  0  0  0  0  0  0
   38.0740   28.1100   30.0770 C   0  0  0  0  0  0  0  0  0  0  0  0
   38.5210   26.8860   30.8540 C   0  0  2  0  0  0  0  0  0  0  0  0
   38.2370   26.3450   32.8670 H   0  0  0  0  0  0  0  0  0  0  0  0
   35.9410   26.9400   32.9520 H   0  0  0  0  0  0  0  0  0  0  0  0
   34.9060   28.0590   30.9620 H   0  0  0  0  0  0  0  0  0  0  0  0
   36.3000   29.0080   31.5660 H   0  0  0  0  0  0  0  0  0  0  0  0
   36.3690   28.6970   29.1690 H   0  0  0  0  0  0  0  0  0  0  0  0
   38.1510   29.0040   30.7050 H   0  0  0  0  0  0  0  0  0  0  0  0
   38.6100   28.1730   29.1260 H   0  0  0  0  0  0  0  0  0  0  0  0
   39.6050   27.0580   31.0800 H   0  0  0  0  0  0  0  0  0  0  0  0
   38.3470   25.7160   30.0230 N   0  0  0  0  0  0  0  0  0  0  0  0
   39.0510   25.0200   30.3470 H   0  0  0  0  0  0  0  0  0  0  0  0
   38.5030   26.0120   29.0330 H   0  0  0  0  0  0  0  0  0  0  0  0
   35.7460   25.3960   31.0830 S   0  0  0  0  0  0  0  0  0  0  0  0
   36.1570   21.6040   32.4130 C   0  0  0  0  0  0  0  0  0  0  0  0
   35.6650   22.6980   31.7140 C   0  0  0  0  0  0  0  0  0  0  0  0
   36.2600   23.9170   31.9000 C   0  0  0  0  0  0  0  0  0  0  0  0
   37.3130   23.9760   32.7740 N   0  0  0  0  0  0  0  0  0  0  0  0
   37.7650   22.9260   33.4290 C   0  0  0  0  0  0  0  0  0  0  0  0
   37.1770   21.7130   33.2460 N   0  0  0  0  0  0  0  0  0  0  0  0
   35.6380   20.6780   32.2140 H   0  0  0  0  0  0  0  0  0  0  0  0
   34.8290   22.6140   31.0290 H   0  0  0  0  0  0  0  0  0  0  0  0
   38.8630   23.0390   34.3270 N   0  0  0  0  0  0  0  0  0  0  0  0
   39.9550   23.9850   34.2220 C   0  0  0  0  0  2  0  0  0  0  0  0
   40.7350   23.8460   35.5080 C   0  0  0  0  0  2  0  0  0  0  0  0
   39.7050   23.2500   36.4430 C   0  0  0  0  0  2  0  0  0  0  0  0
   39.0690   22.2170   35.5040 C   0  0  0  0  0  3  0  0  0  0  0  0
   38.1460   21.7940   35.8990 H   0  0  0  0  0  0  0  0  0  0  0  0
  1  7  1  0  0  0  0
  2  1  1  0  0  0  0
  2  8  1  1  0  0  0
  3 10  1  0  0  0  0
  3  2  1  0  0  0  0
  4  5  1  0  0  0  0
  4  3  1  0  0  0  0
  5 12  1  0  0  0  0
  5  6  1  0  0  0  0
  6 14  1  1  0  0  0
  6  1  1  0  0  0  0
  9  3  1  0  0  0  0
 11  4  1  0  0  0  0
 13  5  1  0  0  0  0
 15 16  1  0  0  0  0
 15  6  1  0  0  0  0
 17 15  1  0  0  0  0
 18 21  1  0  0  0  0
 18  2  1  0  0  0  0
 19 24  1  0  0  0  0
 20 21  1  0  0  0  0
 20 19  2  0  0  0  0
 21 22  2  0  0  0  0
 22 23  1  0  0  0  0
 23 27  1  0  0  0  0
 24 23  2  0  0  0  0
 25 19  1  0  0  0  0
 26 20  1  0  0  0  0
 27 31  1  0  0  0  0
 28 27  1  0  0  0  0
 28 29  1  0  0  0  0
 29 30  1  0  0  0  0
 31 32  1  0  0  0  0
 31 30  1  0  0  0  0
M  END
>  <minimizedAffinity>
-4.77687311

$$$$

 OpenBabel03262521003D

 32 34  0  0  1  0  0  0  0  0999 V2000
   38.6880   22.1360   36.0450 N   0  0  0  0  0  0  0  0  0  0  0  0
   38.1240   23.2340   36.7460 C   0  0  1  0  0  0  0  0  0  0  0  0
   38.6140   23.2520   38.1730 C   0  0  0  0  0  0  0  0  0  0  0  0
   40.0620   23.3460   38.1390 N   0  0  0  0  0  0  0  0  0  0  0  0
   40.5190   22.0480   37.6010 C   0  0  0  0  0  0  0  0  0  0  0  0
   40.1060   22.0470   36.1400 C   0  0  2  0  0  0  0  0  0  0  0  0
   38.2300   21.7580   35.2330 H   0  0  0  0  0  0  0  0  0  0  0  0
   37.0260   23.1530   36.7290 H   0  0  0  0  0  0  0  0  0  0  0  0
   38.2210   24.1280   38.7040 H   0  0  0  0  0  0  0  0  0  0  0  0
   38.3230   22.3390   38.7240 H   0  0  0  0  0  0  0  0  0  0  0  0
   40.4680   23.3860   39.1110 H   0  0  0  0  0  0  0  0  0  0  0  0
   39.9670   21.2760   38.1480 H   0  0  0  0  0  0  0  0  0  0  0  0
   41.6060   21.9800   37.6880 H   0  0  0  0  0  0  0  0  0  0  0  0
   40.4220   21.0470   35.7440 H   0  0  0  0  0  0  0  0  0  0  0  0
   40.8010   23.1150   35.4590 N   0  0  0  0  0  0  0  0  0  0  0  0
   40.8850   22.8200   34.4630 H   0  0  0  0  0  0  0  0  0  0  0  0
   41.7290   23.2280   35.9220 H   0  0  0  0  0  0  0  0  0  0  0  0
   38.6350   24.8390   36.0330 S   0  0  0  0  0  0  0  0  0  0  0  0
   37.2710   24.3590   32.2610 C   0  0  0  0  0  0  0  0  0  0  0  0
   37.8550   24.0690   33.4860 C   0  0  0  0  0  0  0  0  0  0  0  0
   37.9210   25.0560   34.4320 C   0  0  0  0  0  0  0  0  0  0  0  0
   37.3990   26.2790   34.1020 N   0  0  0  0  0  0  0  0  0  0  0  0
   36.8480   26.5340   32.9330 C   0  0  0  0  0  0  0  0  0  0  0  0
   36.7800   25.5550   31.9910 N   0  0  0  0  0  0  0  0  0  0  0  0
   37.2550   23.5310   31.5680 H   0  0  0  0  0  0  0  0  0  0  0  0
   38.2590   23.0890   33.7130 H   0  0  0  0  0  0  0  0  0  0  0  0
   36.3180   27.8220   32.6370 N   0  0  0  0  0  0  0  0  0  0  0  0
   35.7490   28.7480   33.5950 C   0  0  0  0  0  2  0  0  0  0  0  0
   35.5310   30.0340   32.8320 C   0  0  0  0  0  2  0  0  0  0  0  0
   36.5040   29.8920   31.6820 C   0  0  0  0  0  2  0  0  0  0  0  0
   36.2620   28.4210   31.3180 C   0  0  0  0  0  3  0  0  0  0  0  0
   37.0110   28.0230   30.6340 H   0  0  0  0  0  0  0  0  0  0  0  0
  1  6  1  0  0  0  0
  1  2  1  0  0  0  0
  2  8  1  6  0  0  0
  2  3  1  0  0  0  0
  3  9  1  0  0  0  0
  3 10  1  0  0  0  0
  4  3  1  0  0  0  0
  4 11  1  0  0  0  0
  5 13  1  0  0  0  0
  5  4  1  0  0  0  0
  5 12  1  0  0  0  0
  6 14  1  6  0  0  0
  6  5  1  0  0  0  0
  7  1  1  0  0  0  0
 15 17  1  0  0  0  0
 15  6  1  0  0  0  0
 16 15  1  0  0  0  0
 18  2  1  0  0  0  0
 19 20  1  0  0  0  0
 20 26  1  0  0  0  0
 20 21  2  0  0  0  0
 21 18  1  0  0  0  0
 22 21  1  0  0  0  0
 23 22  2  0  0  0  0
 24 19  2  0  0  0  0
 24 23  1  0  0  0  0
 25 19  1  0  0  0  0
 27 23  1  0  0  0  0
 27 28  1  0  0  0  0
 29 28  1  0  0  0  0
 30 29  1  0  0  0  0
 31 30  1  0  0  0  0
 31 27  1  0  0  0  0
 32 31  1  0  0  0  0
M  END
>  <minimizedAffinity>
-4.7162323

$$$$

 OpenBabel03262521003D

 32 34  0  0  1  0  0  0  0  0999 V2000
   36.7770   26.7160   32.9390 N   0  0  0  0  0  0  0  0  0  0  0  0
   36.4560   25.6040   32.1170 C   0  0  1  0  0  0  0  0  0  0  0  0
   35.5450   26.0290   30.9920 C   0  0  0  0  0  0  0  0  0  0  0  0
   36.2320   27.0560   30.2320 N   0  0  0  0  0  0  0  0  0  0  0  0
   36.2910   28.2260   31.1320 C   0  0  0  0  0  0  0  0  0  0  0  0
   37.2700   27.8470   32.2280 C   0  0  2  0  0  0  0  0  0  0  0  0
   37.0590   26.5810   33.8940 H   0  0  0  0  0  0  0  0  0  0  0  0
   35.9640   24.8290   32.7260 H   0  0  0  0  0  0  0  0  0  0  0  0
   35.3360   25.1830   30.3260 H   0  0  0  0  0  0  0  0  0  0  0  0
   34.5860   26.4350   31.3650 H   0  0  0  0  0  0  0  0  0  0  0  0
   35.6540   27.3800   29.4130 H   0  0  0  0  0  0  0  0  0  0  0  0
   35.2850   28.3430   31.5500 H   0  0  0  0  0  0  0  0  0  0  0  0
   36.6580   29.0930   30.5780 H   0  0  0  0  0  0  0  0  0  0  0  0
   37.2850   28.7230   32.9270 H   0  0  0  0  0  0  0  0  0  0  0  0
   38.5720   27.6360   31.6370 N   0  0  0  0  0  0  0  0  0  0  0  0
   39.2690   27.8460   32.3820 H   0  0  0  0  0  0  0  0  0  0  0  0
   38.6520   28.2830   30.8210 H   0  0  0  0  0  0  0  0  0  0  0  0
   37.9380   24.9010   31.3060 S   0  0  0  0  0  0  0  0  0  0  0  0
   41.0720   23.2530   33.2490 C   0  0  0  0  0  0  0  0  0  0  0  0
   40.2720   23.7100   32.2120 C   0  0  0  0  0  0  0  0  0  0  0  0
   39.0630   24.2760   32.5160 C   0  0  0  0  0  0  0  0  0  0  0  0
   38.7200   24.3550   33.8400 N   0  0  0  0  0  0  0  0  0  0  0  0
   39.4950   23.9140   34.8110 C   0  0  0  0  0  0  0  0  0  0  0  0
   40.6970   23.3520   34.5120 N   0  0  0  0  0  0  0  0  0  0  0  0
   42.0090   22.8200   32.9310 H   0  0  0  0  0  0  0  0  0  0  0  0
   40.5750   23.6320   31.1740 H   0  0  0  0  0  0  0  0  0  0  0  0
   39.0940   24.0180   36.1730 N   0  0  0  0  0  0  0  0  0  0  0  0
   38.2420   25.0470   36.7320 C   0  0  0  0  0  2  0  0  0  0  0  0
   37.9480   24.6020   38.1460 C   0  0  0  0  0  2  0  0  0  0  0  0
   38.1940   23.1110   38.0690 C   0  0  0  0  0  2  0  0  0  0  0  0
   39.4770   23.1030   37.2300 C   0  0  0  0  0  3  0  0  0  0  0  0
   39.7410   22.1110   36.8640 H   0  0  0  0  0  0  0  0  0  0  0  0
  1  7  1  0  0  0  0
  2  8  1  1  0  0  0
  2  1  1  0  0  0  0
  3 10  1  0  0  0  0
  3  2  1  0  0  0  0
  4  3  1  0  0  0  0
  4  5  1  0  0  0  0
  5 12  1  0  0  0  0
  5  6  1  0  0  0  0
  6 14  1  1  0  0  0
  6  1  1  0  0  0  0
  9  3  1  0  0  0  0
 11  4  1  0  0  0  0
 13  5  1  0  0  0  0
 15  6  1  0  0  0  0
 15 16  1  0  0  0  0
 17 15  1  0  0  0  0
 18  2  1  0  0  0  0
 18 21  1  0  0  0  0
 19 24  1  0  0  0  0
 20 21  1  0  0  0  0
 20 19  2  0  0  0  0
 21 22  2  0  0  0  0
 22 23  1  0  0  0  0
 23 27  1  0  0  0  0
 24 23  2  0  0  0  0
 25 19  1  0  0  0  0
 26 20  1  0  0  0  0
 27 28  1  0  0  0  0
 27 31  1  0  0  0  0
 28 29  1  0  0  0  0
 30 29  1  0  0  0  0
 31 30  1  0  0  0  0
 32 31  1  0  0  0  0
M  END
>  <minimizedAffinity>
-4.70527935

$$$$

 OpenBabel03262521003D

 32 34  0  0  1  0  0  0  0  0999 V2000
   33.0310   30.9290   36.6490 N   0  0  0  0  0  0  0  0  0  0  0  0
   33.3440   30.8980   35.2650 C   0  0  1  0  0  0  0  0  0  0  0  0
   32.8560   32.1550   34.5890 C   0  0  0  0  0  0  0  0  0  0  0  0
   33.4970   33.2820   35.2400 N   0  0  0  0  0  0  0  0  0  0  0  0
   32.9070   33.3300   36.5940 C   0  0  0  0  0  0  0  0  0  0  0  0
   33.4540   32.1130   37.3180 C   0  0  2  0  0  0  0  0  0  0  0  0
   32.9510   30.0760   37.1750 H   0  0  0  0  0  0  0  0  0  0  0  0
   32.8700   30.0170   34.8040 H   0  0  0  0  0  0  0  0  0  0  0  0
   33.1410   32.1580   33.5290 H   0  0  0  0  0  0  0  0  0  0  0  0
   31.7590   32.2690   34.6640 H   0  0  0  0  0  0  0  0  0  0  0  0
   33.2150   34.1950   34.7970 H   0  0  0  0  0  0  0  0  0  0  0  0
   31.8250   33.2330   36.4620 H   0  0  0  0  0  0  0  0  0  0  0  0
   33.2260   34.2460   37.0980 H   0  0  0  0  0  0  0  0  0  0  0  0
   32.9780   32.1330   38.3330 H   0  0  0  0  0  0  0  0  0  0  0  0
   34.8900   32.2380   37.4210 N   0  0  0  0  0  0  0  0  0  0  0  0
   35.1710   31.7020   38.2690 H   0  0  0  0  0  0  0  0  0  0  0  0
   35.1090   33.2560   37.5010 H   0  0  0  0  0  0  0  0  0  0  0  0
   35.1480   30.8520   34.9710 S   0  0  0  0  0  0  0  0  0  0  0  0
   35.7640   30.3800   31.0060 C   0  0  0  0  0  0  0  0  0  0  0  0
   35.4760   30.9870   32.2210 C   0  0  0  0  0  0  0  0  0  0  0  0
   35.4930   30.2230   33.3570 C   0  0  0  0  0  0  0  0  0  0  0  0
   35.7960   28.8940   33.2170 N   0  0  0  0  0  0  0  0  0  0  0  0
   36.0660   28.3370   32.0540 C   0  0  0  0  0  0  0  0  0  0  0  0
   36.0520   29.0930   30.9230 N   0  0  0  0  0  0  0  0  0  0  0  0
   35.7320   31.0460   30.1570 H   0  0  0  0  0  0  0  0  0  0  0  0
   35.2410   32.0420   32.2950 H   0  0  0  0  0  0  0  0  0  0  0  0
   36.3760   26.9500   31.9590 N   0  0  0  0  0  0  0  0  0  0  0  0
   37.0190   26.1510   32.9820 C   0  0  0  0  0  2  0  0  0  0  0  0
   36.9320   24.7240   32.4930 C   0  0  0  0  0  2  0  0  0  0  0  0
   35.7690   24.7880   31.5280 C   0  0  0  0  0  2  0  0  0  0  0  0
   36.0950   26.1060   30.8140 C   0  0  0  0  0  3  0  0  0  0  0  0
   35.2740   26.4740   30.2010 H   0  0  0  0  0  0  0  0  0  0  0  0
  1  7  1  0  0  0  0
  1  6  1  0  0  0  0
  2  8  1  6  0  0  0
  2  1  1  0  0  0  0
  3 10  1  0  0  0  0
  3  4  1  0  0  0  0
  3  2  1  0  0  0  0
  4  5  1  0  0  0  0
  5 13  1  0  0  0  0
  5  6  1  0  0  0  0
  6 15  1  0  0  0  0
  6 14  1  1  0  0  0
  9  3  1  0  0  0  0
 11  4  1  0  0  0  0
 12  5  1  0  0  0  0
 15 17  1  0  0  0  0
 15 16  1  0  0  0  0
 18  2  1  0  0  0  0
 19 20  1  0  0  0  0
 20 26  1  0  0  0  0
 20 21  2  0  0  0  0
 21 18  1  0  0  0  0
 22 21  1  0  0  0  0
 23 22  2  0  0  0  0
 24 19  2  0  0  0  0
 24 23  1  0  0  0  0
 25 19  1  0  0  0  0
 27 23  1  0  0  0  0
 27 28  1  0  0  0  0
 29 28  1  0  0  0  0
 30 29  1  0  0  0  0
 31 30  1  0  0  0  0
 31 27  1  0  0  0  0
 32 31  1  0  0  0  0
M  END
>  <minimizedAffinity>
-4.60097551

$$$$

 OpenBabel03262521003D

 32 34  0  0  1  0  0  0  0  0999 V2000
   38.0340   28.2300   31.4440 N   0  0  0  0  0  0  0  0  0  0  0  0
   37.2350   27.7010   32.4910 C   0  0  1  0  0  0  0  0  0  0  0  0
   36.1880   28.7030   32.9090 C   0  0  0  0  0  0  0  0  0  0  0  0
   35.3790   29.0080   31.7430 N   0  0  0  0  0  0  0  0  0  0  0  0
   36.2770   29.7570   30.8390 C   0  0  0  0  0  0  0  0  0  0  0  0
   37.2910   28.7420   30.3420 C   0  0  2  0  0  0  0  0  0  0  0  0
   38.9630   27.8820   31.2840 H   0  0  0  0  0  0  0  0  0  0  0  0
   37.8770   27.4500   33.3500 H   0  0  0  0  0  0  0  0  0  0  0  0
   35.5360   28.2790   33.6830 H   0  0  0  0  0  0  0  0  0  0  0  0
   36.6360   29.6380   33.2940 H   0  0  0  0  0  0  0  0  0  0  0  0
   34.6100   29.6890   31.9760 H   0  0  0  0  0  0  0  0  0  0  0  0
   36.7740   30.5130   31.4550 H   0  0  0  0  0  0  0  0  0  0  0  0
   35.6990   30.1570   30.0020 H   0  0  0  0  0  0  0  0  0  0  0  0
   37.9900   29.3200   29.6850 H   0  0  0  0  0  0  0  0  0  0  0  0
   36.5980   27.7220   29.5880 N   0  0  0  0  0  0  0  0  0  0  0  0
   37.2870   27.3470   28.9020 H   0  0  0  0  0  0  0  0  0  0  0  0
   35.7810   28.1790   29.1240 H   0  0  0  0  0  0  0  0  0  0  0  0
   36.3070   26.2160   31.9620 S   0  0  0  0  0  0  0  0  0  0  0  0
   39.1250   23.5360   33.0560 C   0  0  0  0  0  0  0  0  0  0  0  0
   38.5140   24.7530   32.7830 C   0  0  0  0  0  0  0  0  0  0  0  0
   37.2160   24.7520   32.3490 C   0  0  0  0  0  0  0  0  0  0  0  0
   36.5990   23.5370   32.2120 N   0  0  0  0  0  0  0  0  0  0  0  0
   37.1970   22.3920   32.4760 C   0  0  0  0  0  0  0  0  0  0  0  0
   38.4870   22.3890   32.9080 N   0  0  0  0  0  0  0  0  0  0  0  0
   40.1480   23.6180   33.3940 H   0  0  0  0  0  0  0  0  0  0  0  0
   39.0330   25.6970   32.9030 H   0  0  0  0  0  0  0  0  0  0  0  0
   36.5130   21.1540   32.3180 N   0  0  0  0  0  0  0  0  0  0  0  0
   35.0880   20.9430   32.4730 C   0  0  0  0  0  2  0  0  0  0  0  0
   34.8360   19.5300   32.0010 C   0  0  0  0  0  2  0  0  0  0  0  0
   36.0310   19.2730   31.1090 C   0  0  0  0  0  2  0  0  0  0  0  0
   37.1370   19.8910   31.9730 C   0  0  0  0  0  3  0  0  0  0  0  0
   38.0790   20.0100   31.4390 H   0  0  0  0  0  0  0  0  0  0  0  0
  1  2  1  0  0  0  0
  2  3  1  0  0  0  0
  2  8  1  1  0  0  0
  3 10  1  0  0  0  0
  3  9  1  0  0  0  0
  4 11  1  0  0  0  0
  4  3  1  0  0  0  0
  5 12  1  0  0  0  0
  5  4  1  0  0  0  0
  6 14  1  6  0  0  0
  6  5  1  0  0  0  0
  6  1  1  0  0  0  0
  7  1  1  0  0  0  0
 13  5  1  0  0  0  0
 15  6  1  0  0  0  0
 16 15  1  0  0  0  0
 17 15  1  0  0  0  0
 18 21  1  0  0  0  0
 18  2  1  0  0  0  0
 19 25  1  0  0  0  0
 20 26  1  0  0  0  0
 20 19  2  0  0  0  0
 21 20  1  0  0  0  0
 22 21  2  0  0  0  0
 22 23  1  0  0  0  0
 23 24  2  0  0  0  0
 24 19  1  0  0  0  0
 27 28  1  0  0  0  0
 27 23  1  0  0  0  0
 29 28  1  0  0  0  0
 30 31  1  0  0  0  0
 30 29  1  0  0  0  0
 31 27  1  0  0  0  0
 32 31  1  0  0  0  0
M  END
>  <minimizedAffinity>
-4.56737328

$$$$

 OpenBabel03262521003D

 32 34  0  0  1  0  0  0  0  0999 V2000
   38.6500   24.7880   34.8420 N   0  0  0  0  0  0  0  0  0  0  0  0
   38.2700   26.1540   34.7770 C   0  0  1  0  0  0  0  0  0  0  0  0
   39.3490   27.0270   35.3690 C   0  0  0  0  0  0  0  0  0  0  0  0
   40.5690   26.7900   34.6190 N   0  0  0  0  0  0  0  0  0  0  0  0
   40.9690   25.4100   34.9640 C   0  0  0  0  0  0  0  0  0  0  0  0
   39.9390   24.5120   34.3040 C   0  0  2  0  0  0  0  0  0  0  0  0
   37.9540   24.0630   34.8330 H   0  0  0  0  0  0  0  0  0  0  0  0
   37.3280   26.2980   35.3270 H   0  0  0  0  0  0  0  0  0  0  0  0
   39.0820   28.0870   35.2740 H   0  0  0  0  0  0  0  0  0  0  0  0
   39.5290   26.7980   36.4360 H   0  0  0  0  0  0  0  0  0  0  0  0
   41.3590   27.3910   34.9710 H   0  0  0  0  0  0  0  0  0  0  0  0
   40.8950   25.3310   36.0530 H   0  0  0  0  0  0  0  0  0  0  0  0
   41.9640   25.2080   34.5580 H   0  0  0  0  0  0  0  0  0  0  0  0
   40.2260   23.4680   34.5960 H   0  0  0  0  0  0  0  0  0  0  0  0
   40.0170   24.6860   32.8710 N   0  0  0  0  0  0  0  0  0  0  0  0
   39.6890   23.7920   32.4490 H   0  0  0  0  0  0  0  0  0  0  0  0
   41.0130   24.8970   32.6370 H   0  0  0  0  0  0  0  0  0  0  0  0
   38.0700   26.7280   33.0520 S   0  0  0  0  0  0  0  0  0  0  0  0
   34.9620   25.4000   30.8390 C   0  0  0  0  0  0  0  0  0  0  0  0
   35.8530   26.2710   31.4500 C   0  0  0  0  0  0  0  0  0  0  0  0
   36.8620   25.7480   32.2140 C   0  0  0  0  0  0  0  0  0  0  0  0
   36.9250   24.3840   32.3250 N   0  0  0  0  0  0  0  0  0  0  0  0
   36.0680   23.5740   31.7370 C   0  0  0  0  0  0  0  0  0  0  0  0
   35.0650   24.0900   30.9760 N   0  0  0  0  0  0  0  0  0  0  0  0
   34.1950   25.8860   30.2540 H   0  0  0  0  0  0  0  0  0  0  0  0
   35.7740   27.3460   31.3400 H   0  0  0  0  0  0  0  0  0  0  0  0
   36.1750   22.1620   31.8820 N   0  0  0  0  0  0  0  0  0  0  0  0
   37.4010   21.4190   32.0880 C   0  0  0  0  0  2  0  0  0  0  0  0
   36.9690   20.0030   32.3890 C   0  0  0  0  0  2  0  0  0  0  0  0
   35.5490   20.1990   32.8740 C   0  0  0  0  0  2  0  0  0  0  0  0
   35.0640   21.2310   31.8480 C   0  0  0  0  0  3  0  0  0  0  0  0
   34.1130   21.6870   32.1190 H   0  0  0  0  0  0  0  0  0  0  0  0
  2  1  1  0  0  0  0
  2  8  1  1  0  0  0
  2  3  1  0  0  0  0
  3 10  1  0  0  0  0
  4  5  1  0  0  0  0
  4 11  1  0  0  0  0
  4  3  1  0  0  0  0
  5 12  1  0  0  0  0
  6 14  1  1  0  0  0
  6  1  1  0  0  0  0
  6  5  1  0  0  0  0
  7  1  1  0  0  0  0
  9  3  1  0  0  0  0
 13  5  1  0  0  0  0
 15  6  1  0  0  0  0
 16 15  1  0  0  0  0
 17 15  1  0  0  0  0
 18  2  1  0  0  0  0
 19 24  2  0  0  0  0
 19 20  1  0  0  0  0
 20 21  2  0  0  0  0
 21 22  1  0  0  0  0
 21 18  1  0  0  0  0
 23 27  1  0  0  0  0
 23 22  2  0  0  0  0
 24 23  1  0  0  0  0
 25 19  1  0  0  0  0
 26 20  1  0  0  0  0
 27 28  1  0  0  0  0
 28 29  1  0  0  0  0
 29 30  1  0  0  0  0
 31 27  1  0  0  0  0
 31 32  1  0  0  0  0
 31 30  1  0  0  0  0
M  END
>  <minimizedAffinity>
-4.49783564

$$$$

 OpenBabel03262521003D

 32 34  0  0  1  0  0  0  0  0999 V2000
   39.4800   28.0340   30.4040 N   0  0  0  0  0  0  0  0  0  0  0  0
   38.2800   27.8580   31.1410 C   0  0  1  0  0  0  0  0  0  0  0  0
   37.1560   28.6410   30.5090 C   0  0  0  0  0  0  0  0  0  0  0  0
   37.0020   28.1680   29.1460 N   0  0  0  0  0  0  0  0  0  0  0  0
   38.2200   28.6210   28.4420 C   0  0  0  0  0  0  0  0  0  0  0  0
   39.3510   27.7820   29.0080 C   0  0  2  0  0  0  0  0  0  0  0  0
   40.3740   27.8970   30.8420 H   0  0  0  0  0  0  0  0  0  0  0  0
   38.4350   28.1970   32.1780 H   0  0  0  0  0  0  0  0  0  0  0  0
   36.2160   28.4680   31.0460 H   0  0  0  0  0  0  0  0  0  0  0  0
   37.3640   29.7270   30.4940 H   0  0  0  0  0  0  0  0  0  0  0  0
   36.2130   28.6620   28.6540 H   0  0  0  0  0  0  0  0  0  0  0  0
   38.3590   29.6720   28.7130 H   0  0  0  0  0  0  0  0  0  0  0  0
   38.1110   28.4360   27.3700 H   0  0  0  0  0  0  0  0  0  0  0  0
   40.2780   28.1520   28.4980 H   0  0  0  0  0  0  0  0  0  0  0  0
   39.1070   26.3930   28.6900 N   0  0  0  0  0  0  0  0  0  0  0  0
   40.0410   25.9340   28.6510 H   0  0  0  0  0  0  0  0  0  0  0  0
   38.6090   26.3670   27.7730 H   0  0  0  0  0  0  0  0  0  0  0  0
   37.7230   26.1160   31.1400 S   0  0  0  0  0  0  0  0  0  0  0  0
   40.6310   23.7190   32.5920 C   0  0  0  0  0  0  0  0  0  0  0  0
   39.8780   24.4630   31.6950 C   0  0  0  0  0  0  0  0  0  0  0  0
   38.7770   25.1310   32.1580 C   0  0  0  0  0  0  0  0  0  0  0  0
   38.4880   25.0180   33.4930 N   0  0  0  0  0  0  0  0  0  0  0  0
   39.2160   24.3050   34.3290 C   0  0  0  0  0  0  0  0  0  0  0  0
   40.3120   23.6410   33.8720 N   0  0  0  0  0  0  0  0  0  0  0  0
   41.4840   23.2220   32.1530 H   0  0  0  0  0  0  0  0  0  0  0  0
   40.1370   24.5310   30.6440 H   0  0  0  0  0  0  0  0  0  0  0  0
   38.8750   24.2190   35.7080 N   0  0  0  0  0  0  0  0  0  0  0  0
   38.2020   25.2410   36.4840 C   0  0  0  0  0  2  0  0  0  0  0  0
   37.8860   24.5950   37.8130 C   0  0  0  0  0  2  0  0  0  0  0  0
   37.9050   23.1230   37.4650 C   0  0  0  0  0  2  0  0  0  0  0  0
   39.1480   23.0840   36.5680 C   0  0  0  0  0  3  0  0  0  0  0  0
   39.2500   22.1470   36.0220 H   0  0  0  0  0  0  0  0  0  0  0  0
  1  7  1  0  0  0  0
  1  2  1  0  0  0  0
  2  8  1  1  0  0  0
  3  9  1  0  0  0  0
  3  2  1  0  0  0  0
  4  3  1  0  0  0  0
  5 12  1  0  0  0  0
  5  6  1  0  0  0  0
  5  4  1  0  0  0  0
  6 14  1  6  0  0  0
  6  1  1  0  0  0  0
 10  3  1  0  0  0  0
 11  4  1  0  0  0  0
 13  5  1  0  0  0  0
 15  6  1  0  0  0  0
 16 15  1  0  0  0  0
 17 15  1  0  0  0  0
 18  2  1  0  0  0  0
 18 21  1  0  0  0  0
 19 24  1  0  0  0  0
 20 21  1  0  0  0  0
 20 19  2  0  0  0  0
 21 22  2  0  0  0  0
 22 23  1  0  0  0  0
 23 27  1  0  0  0  0
 24 23  2  0  0  0  0
 25 19  1  0  0  0  0
 26 20  1  0  0  0  0
 27 28  1  0  0  0  0
 27 31  1  0  0  0  0
 28 29  1  0  0  0  0
 30 29  1  0  0  0  0
 31 30  1  0  0  0  0
 32 31  1  0  0  0  0
M  END
>  <minimizedAffinity>
-4.43065643

$$$$
