
 OpenBabel03272507463D

 43 47  0  0  0  0  0  0  0  0999 V2000
   32.2080   28.1230   47.3940 N   0  0  0  0  0  0  0  0  0  0  0  0
   32.8320   27.5640   48.5450 C   0  0  0  0  0  0  0  0  0  0  0  0
   34.0530   28.2420   49.0370 C   0  0  0  0  0  0  0  0  0  0  0  0
   34.9720   28.7560   48.0220 C   0  0  0  0  0  0  0  0  0  0  0  0
   34.2350   29.2790   46.7750 C   0  0  0  0  0  0  0  0  0  0  0  0
   33.2140   28.2050   46.3710 C   0  0  0  0  0  0  0  0  0  0  0  0
   33.0730   26.4930   48.3100 H   0  0  0  0  0  0  0  0  0  0  0  0
   32.0710   27.5210   49.3540 H   0  0  0  0  0  0  0  0  0  0  0  0
   33.6130   29.1550   49.5600 H   0  0  0  0  0  0  0  0  0  0  0  0
   34.5420   27.6530   49.8070 H   0  0  0  0  0  0  0  0  0  0  0  0
   35.6100   27.9340   47.5950 H   0  0  0  0  0  0  0  0  0  0  0  0
   34.9650   29.3320   45.9510 H   0  0  0  0  0  0  0  0  0  0  0  0
   33.7400   30.2210   47.0330 H   0  0  0  0  0  0  0  0  0  0  0  0
   33.7650   27.2780   46.1840 H   0  0  0  0  0  0  0  0  0  0  0  0
   32.7520   28.6150   45.4320 H   0  0  0  0  0  0  0  0  0  0  0  0
   35.7290   30.2740   49.7940 C   0  0  0  0  0  0  0  0  0  0  0  0
   35.8220   29.8890   48.4640 C   0  0  0  0  0  0  0  0  0  0  0  0
   36.6250   30.5090   47.5440 C   0  0  0  0  0  0  0  0  0  0  0  0
   37.3920   31.5920   47.9670 C   0  0  0  0  0  0  0  0  0  0  0  0
   37.2970   31.9770   49.2910 C   0  0  0  0  0  0  0  0  0  0  0  0
   36.4840   31.3490   50.2300 C   0  0  0  0  0  0  0  0  0  0  0  0
   38.1330   33.0770   49.5340 O   0  0  0  0  0  0  0  0  0  0  0  0
   39.0100   33.1090   48.4070 C   0  0  0  0  0  0  0  0  0  0  0  0
   38.3020   32.4630   47.3760 O   0  0  0  0  0  0  0  0  0  0  0  0
   35.1450   29.8550   50.6000 H   0  0  0  0  0  0  0  0  0  0  0  0
   36.6760   30.1900   46.5320 H   0  0  0  0  0  0  0  0  0  0  0  0
   36.4590   31.7060   51.2600 H   0  0  0  0  0  0  0  0  0  0  0  0
   39.2920   34.1230   48.1020 H   0  0  0  0  0  0  0  0  0  0  0  0
   39.9630   32.5830   48.6770 H   0  0  0  0  0  0  0  0  0  0  0  0
   30.8460   28.5360   47.2470 C   0  0  0  0  0  0  0  0  0  0  0  0
   30.3460   29.3700   46.2520 C   0  0  0  0  0  0  0  0  0  0  0  0
   28.9930   29.6600   46.2730 C   0  0  0  0  0  0  0  0  0  0  0  0
   28.2230   29.1190   47.2560 N   0  0  0  0  0  0  0  0  0  0  0  0
   28.7260   28.3170   48.2070 C   0  0  0  0  0  0  0  0  0  0  0  0
   30.0330   28.0350   48.1920 N   0  0  0  0  0  0  0  0  0  0  0  0
   31.0680   29.7180   45.5480 H   0  0  0  0  0  0  0  0  0  0  0  0
   28.6200   30.3020   45.5020 H   0  0  0  0  0  0  0  0  0  0  0  0
   27.8300   27.8050   49.1910 N   0  0  0  0  0  0  0  0  0  0  0  0
   28.1560   26.6980   50.0730 C   0  0  0  0  0  2  0  0  0  0  0  0
   27.6100   27.2220   51.3860 C   0  0  0  0  0  2  0  0  0  0  0  0
   26.5440   28.2370   51.0290 C   0  0  0  0  0  2  0  0  0  0  0  0
   26.4820   28.2390   49.5160 C   0  0  0  0  0  3  0  0  0  0  0  0
   26.3010   29.2470   49.0870 H   0  0  0  0  0  0  0  0  0  0  0  0
  1  2  1  0  0  0  0
  2  3  1  0  0  0  0
  2  8  1  0  0  0  0
  3  9  1  0  0  0  0
  3 10  1  0  0  0  0
  4 17  1  0  0  0  0
  4  3  1  0  0  0  0
  5 13  1  0  0  0  0
  5  4  1  0  0  0  0
  6  5  1  0  0  0  0
  6  1  1  0  0  0  0
  7  2  1  0  0  0  0
 11  4  1  0  0  0  0
 12  5  1  0  0  0  0
 14  6  1  0  0  0  0
 15  6  1  0  0  0  0
 16 21  1  0  0  0  0
 16 25  1  0  0  0  0
 17 16  2  0  0  0  0
 18 19  2  0  0  0  0
 18 17  1  0  0  0  0
 19 20  1  0  0  0  0
 20 22  1  0  0  0  0
 20 21  2  0  0  0  0
 21 27  1  0  0  0  0
 23 29  1  0  0  0  0
 23 22  1  0  0  0  0
 24 19  1  0  0  0  0
 24 23  1  0  0  0  0
 26 18  1  0  0  0  0
 28 23  1  0  0  0  0
 30  1  1  0  0  0  0
 30 35  1  0  0  0  0
 31 32  1  0  0  0  0
 31 30  2  0  0  0  0
 32 33  2  0  0  0  0
 33 34  1  0  0  0  0
 34 38  1  0  0  0  0
 35 34  2  0  0  0  0
 36 31  1  0  0  0  0
 37 32  1  0  0  0  0
 38 42  1  0  0  0  0
 38 39  1  0  0  0  0
 39 40  1  0  0  0  0
 41 40  1  0  0  0  0
 42 41  1  0  0  0  0
 43 42  1  0  0  0  0
M  END
>  <minimizedAffinity>
-7.774261

>  <minimizedRMSD>
0.512507021

$$$$
