
 OpenBabel03272508433D

 24 26  0  0  0  0  0  0  0  0999 V2000
   36.2220   30.0400   50.1960 C   0  0  0  0  0  0  0  0  0  0  0  0
   37.4070   29.8280   50.8630 C   0  0  0  0  0  0  0  0  0  0  0  0
   38.2320   30.8140   50.3380 C   0  0  0  0  0  0  0  0  0  0  0  0
   37.5400   31.5520   49.4110 C   0  0  0  0  0  0  0  0  0  0  0  0
   36.3330   31.0670   49.3420 O   0  0  0  0  0  0  0  0  0  0  0  0
   37.6700   29.1070   51.6010 H   0  0  0  0  0  0  0  0  0  0  0  0
   39.2820   30.9590   50.6390 H   0  0  0  0  0  0  0  0  0  0  0  0
   38.0980   32.6440   48.6850 N   0  0  0  0  0  0  0  0  0  0  0  0
   38.5570   32.5920   47.3060 C   0  0  0  0  0  2  0  0  0  0  0  0
   39.8530   33.3640   47.4280 C   0  0  0  0  0  2  0  0  0  0  0  0
   39.7880   34.1600   48.7140 C   0  0  0  0  0  2  0  0  0  0  0  0
   38.3360   34.0130   49.1180 C   0  0  0  0  0  3  0  0  0  0  0  0
   37.7600   34.7280   48.4950 H   0  0  0  0  0  0  0  0  0  0  0  0
   34.9970   29.2480   50.3880 C   0  0  0  0  0  0  0  0  0  0  0  0
   34.6330   29.0190   51.5680 O   0  0  0  0  0  0  0  0  0  0  0  0
   32.2900   27.8520   48.4170 C   0  0  0  0  0  0  0  0  0  0  0  0
   32.7940   27.8230   47.1230 C   0  0  0  0  0  0  0  0  0  0  0  0
   34.0900   28.2910   46.9190 C   0  0  0  0  0  0  0  0  0  0  0  0
   34.7720   28.7430   47.9920 N   0  0  0  0  0  0  0  0  0  0  0  0
   34.2480   28.7580   49.2460 C   0  0  0  0  0  0  0  0  0  0  0  0
   33.0050   28.3090   49.4420 N   0  0  0  0  0  0  0  0  0  0  0  0
   31.2800   27.4720   48.4850 H   0  0  0  0  0  0  0  0  0  0  0  0
   32.2260   27.4550   46.2780 H   0  0  0  0  0  0  0  0  0  0  0  0
   34.5610   28.3040   45.9370 H   0  0  0  0  0  0  0  0  0  0  0  0
  1 14  1  0  0  0  0
  1  2  2  0  0  0  0
  2  6  1  0  0  0  0
  3  7  1  0  0  0  0
  3  2  1  0  0  0  0
  4  3  2  0  0  0  0
  5  4  1  0  0  0  0
  5  1  1  0  0  0  0
  8 12  1  0  0  0  0
  8  4  1  0  0  0  0
  9 10  1  0  0  0  0
  9  8  1  0  0  0  0
 10 11  1  0  0  0  0
 11 12  1  0  0  0  0
 13 12  1  0  0  0  0
 14 15  2  0  0  0  0
 16 22  1  0  0  0  0
 16 21  1  0  0  0  0
 17 16  2  0  0  0  0
 18 17  1  0  0  0  0
 18 19  2  0  0  0  0
 19 20  1  0  0  0  0
 20 21  2  0  0  0  0
 20 14  1  0  0  0  0
 23 17  1  0  0  0  0
 24 18  1  0  0  0  0
M  END
>  <minimizedAffinity>
-4.68229628

>  <minimizedRMSD>
2.22507715

$$$$
