
 OpenBabel03272508433D

 24 26  0  0  0  0  0  0  0  0999 V2000
   34.7120   28.6550   48.4540 C   0  0  0  0  0  0  0  0  0  0  0  0
   34.8090   28.5370   49.8220 C   0  0  0  0  0  0  0  0  0  0  0  0
   35.9390   29.2890   50.1130 C   0  0  0  0  0  0  0  0  0  0  0  0
   36.4600   29.8100   48.9550 C   0  0  0  0  0  0  0  0  0  0  0  0
   35.7050   29.4140   47.9700 O   0  0  0  0  0  0  0  0  0  0  0  0
   34.1970   28.0160   50.5200 H   0  0  0  0  0  0  0  0  0  0  0  0
   36.3380   29.4300   51.1310 H   0  0  0  0  0  0  0  0  0  0  0  0
   37.6240   30.6310   48.9030 N   0  0  0  0  0  0  0  0  0  0  0  0
   38.2920   31.2180   50.0520 C   0  0  0  0  0  2  0  0  0  0  0  0
   38.5540   32.6110   49.5230 C   0  0  0  0  0  2  0  0  0  0  0  0
   38.4410   32.5540   48.0150 C   0  0  0  0  0  2  0  0  0  0  0  0
   38.3930   31.0660   47.7460 C   0  0  0  0  0  3  0  0  0  0  0  0
   39.4390   30.7000   47.8100 H   0  0  0  0  0  0  0  0  0  0  0  0
   33.6640   28.0330   47.6300 C   0  0  0  0  0  0  0  0  0  0  0  0
   33.6430   26.7800   47.5650 O   0  0  0  0  0  0  0  0  0  0  0  0
   30.5190   29.1580   46.2120 C   0  0  0  0  0  0  0  0  0  0  0  0
   30.8360   30.3650   45.6030 C   0  0  0  0  0  0  0  0  0  0  0  0
   32.1540   30.8060   45.6780 C   0  0  0  0  0  0  0  0  0  0  0  0
   33.0400   30.0310   46.3380 N   0  0  0  0  0  0  0  0  0  0  0  0
   32.6970   28.8540   46.9240 C   0  0  0  0  0  0  0  0  0  0  0  0
   31.4320   28.4300   46.8520 N   0  0  0  0  0  0  0  0  0  0  0  0
   29.4760   28.8920   46.1070 H   0  0  0  0  0  0  0  0  0  0  0  0
   30.1060   30.9690   45.0780 H   0  0  0  0  0  0  0  0  0  0  0  0
   32.4880   31.7410   45.2280 H   0  0  0  0  0  0  0  0  0  0  0  0
  1  2  2  0  0  0  0
  2  3  1  0  0  0  0
  2  6  1  0  0  0  0
  3  7  1  0  0  0  0
  4  3  2  0  0  0  0
  5  1  1  0  0  0  0
  5  4  1  0  0  0  0
  8  4  1  0  0  0  0
  8  9  1  0  0  0  0
 10  9  1  0  0  0  0
 11 10  1  0  0  0  0
 12 13  1  0  0  0  0
 12 11  1  0  0  0  0
 12  8  1  0  0  0  0
 14  1  1  0  0  0  0
 15 14  2  0  0  0  0
 16 21  1  0  0  0  0
 17 18  1  0  0  0  0
 17 16  2  0  0  0  0
 18 19  2  0  0  0  0
 19 20  1  0  0  0  0
 20 14  1  0  0  0  0
 21 20  2  0  0  0  0
 22 16  1  0  0  0  0
 23 17  1  0  0  0  0
 24 18  1  0  0  0  0
M  END
>  <minimizedAffinity>
-5.02897787

>  <minimizedRMSD>
3.1448698

$$$$
