
 OpenBabel03272508433D

 24 26  0  0  0  0  0  0  0  0999 V2000
   34.6020   28.7870   48.2060 C   0  0  0  0  0  0  0  0  0  0  0  0
   34.7890   28.4390   49.5250 C   0  0  0  0  0  0  0  0  0  0  0  0
   35.9580   29.1140   49.8540 C   0  0  0  0  0  0  0  0  0  0  0  0
   36.4110   29.8140   48.7640 C   0  0  0  0  0  0  0  0  0  0  0  0
   35.5790   29.6020   47.7840 O   0  0  0  0  0  0  0  0  0  0  0  0
   34.2130   27.8160   50.1680 H   0  0  0  0  0  0  0  0  0  0  0  0
   36.4290   29.0740   50.8490 H   0  0  0  0  0  0  0  0  0  0  0  0
   37.5900   30.6150   48.7660 N   0  0  0  0  0  0  0  0  0  0  0  0
   38.2340   31.1640   49.9480 C   0  0  0  0  0  2  0  0  0  0  0  0
   38.5380   32.5630   49.4590 C   0  0  0  0  0  2  0  0  0  0  0  0
   38.4700   32.5410   47.9470 C   0  0  0  0  0  2  0  0  0  0  0  0
   38.4040   31.0580   47.6440 C   0  0  0  0  0  3  0  0  0  0  0  0
   39.4400   30.6720   47.7310 H   0  0  0  0  0  0  0  0  0  0  0  0
   33.4830   28.3290   47.3680 C   0  0  0  0  0  0  0  0  0  0  0  0
   32.9260   27.2480   47.6810 O   0  0  0  0  0  0  0  0  0  0  0  0
   32.7170   29.2420   43.9400 C   0  0  0  0  0  0  0  0  0  0  0  0
   32.2450   30.5450   44.0350 C   0  0  0  0  0  0  0  0  0  0  0  0
   32.1870   31.1260   45.2990 C   0  0  0  0  0  0  0  0  0  0  0  0
   32.5940   30.3850   46.3510 N   0  0  0  0  0  0  0  0  0  0  0  0
   33.0500   29.1110   46.2240 C   0  0  0  0  0  0  0  0  0  0  0  0
   33.1060   28.5530   45.0110 N   0  0  0  0  0  0  0  0  0  0  0  0
   32.7280   28.8690   42.9250 H   0  0  0  0  0  0  0  0  0  0  0  0
   31.9250   31.1190   43.1740 H   0  0  0  0  0  0  0  0  0  0  0  0
   31.8310   32.1420   45.4620 H   0  0  0  0  0  0  0  0  0  0  0  0
  1  2  2  0  0  0  0
  2  3  1  0  0  0  0
  2  6  1  0  0  0  0
  3  7  1  0  0  0  0
  4  8  1  0  0  0  0
  4  3  2  0  0  0  0
  5  1  1  0  0  0  0
  5  4  1  0  0  0  0
  8  9  1  0  0  0  0
 10  9  1  0  0  0  0
 11 10  1  0  0  0  0
 12 13  1  0  0  0  0
 12 11  1  0  0  0  0
 12  8  1  0  0  0  0
 14 15  2  0  0  0  0
 14  1  1  0  0  0  0
 16 17  2  0  0  0  0
 16 21  1  0  0  0  0
 17 18  1  0  0  0  0
 18 24  1  0  0  0  0
 18 19  2  0  0  0  0
 20 19  1  0  0  0  0
 20 14  1  0  0  0  0
 21 20  2  0  0  0  0
 22 16  1  0  0  0  0
 23 17  1  0  0  0  0
M  END
>  <minimizedAffinity>
-4.7919302

>  <minimizedRMSD>
3.11604977

$$$$
