
 OpenBabel03262523173D

 36 39  0  0  0  0  0  0  0  0999 V2000
   36.9170   27.3220   32.7690 C   0  0  0  0  0  0  0  0  0  0  0  0
   37.1550   27.7080   31.4630 C   0  0  0  0  0  0  0  0  0  0  0  0
   36.7300   28.9830   31.1810 C   0  0  0  0  0  0  0  0  0  0  0  0
   36.1240   29.8080   32.1030 C   0  0  0  0  0  0  0  0  0  0  0  0
   35.9330   29.3320   33.3710 C   0  0  0  0  0  0  0  0  0  0  0  0
   36.3320   28.0880   33.6950 N   0  0  0  0  0  0  0  0  0  0  0  0
   37.6330   27.0660   30.7270 H   0  0  0  0  0  0  0  0  0  0  0  0
   36.8910   29.3520   30.1580 H   0  0  0  0  0  0  0  0  0  0  0  0
   35.8400   30.7930   31.7650 H   0  0  0  0  0  0  0  0  0  0  0  0
   38.4530   24.5640   34.6550 C   0  0  0  0  0  0  0  0  0  0  0  0
   38.0860   23.4290   33.9200 C   0  0  0  0  0  0  0  0  0  0  0  0
   37.3220   23.6360   32.7910 C   0  0  0  0  0  0  0  0  0  0  0  0
   36.9750   24.9100   32.4660 N   0  0  0  0  0  0  0  0  0  0  0  0
   37.3370   25.9810   33.1840 C   0  0  0  0  0  0  0  0  0  0  0  0
   38.0850   25.7970   34.2930 N   0  0  0  0  0  0  0  0  0  0  0  0
   38.4040   22.4670   34.2500 H   0  0  0  0  0  0  0  0  0  0  0  0
   36.9080   22.5400   31.9890 N   0  0  0  0  0  0  0  0  0  0  0  0
   35.6930   22.4710   31.2030 C   0  0  0  0  0  2  0  0  0  0  0  0
   35.2740   21.0290   31.5270 C   0  0  0  0  0  2  0  0  0  0  0  0
   36.5790   20.3120   31.2510 C   0  0  0  0  0  2  0  0  0  0  0  0
   37.6040   21.2820   31.7940 C   0  0  0  0  0  3  0  0  0  0  0  0
   38.4960   21.3930   31.1530 H   0  0  0  0  0  0  0  0  0  0  0  0
   39.2560   24.4730   35.8620 N   0  0  0  0  0  0  0  0  0  0  0  0
   39.9790   25.1780   36.0760 H   0  0  0  0  0  0  0  0  0  0  0  0
   39.0670   23.6670   36.4930 H   0  0  0  0  0  0  0  0  0  0  0  0
   32.9070   29.3010   33.4400 Cl  0  0  0  0  0  0  0  0  0  0  0  0
   33.9330   30.2060   34.5100 C   0  0  0  0  0  0  0  0  0  0  0  0
   35.2970   30.1490   34.3920 C   0  0  0  0  0  0  0  0  0  0  0  0
   35.9840   30.9240   35.3160 C   0  0  0  0  0  0  0  0  0  0  0  0
   35.3950   31.6940   36.2800 C   0  0  0  0  0  0  0  0  0  0  0  0
   34.0190   31.7240   36.3650 C   0  0  0  0  0  0  0  0  0  0  0  0
   33.2340   32.6960   37.5830 Cl  0  0  0  0  0  0  0  0  0  0  0  0
   33.3060   30.9790   35.4790 C   0  0  0  0  0  0  0  0  0  0  0  0
   37.0800   30.9120   35.2630 H   0  0  0  0  0  0  0  0  0  0  0  0
   36.0240   32.2600   36.9510 H   0  0  0  0  0  0  0  0  0  0  0  0
   32.2230   31.0280   35.5770 H   0  0  0  0  0  0  0  0  0  0  0  0
  1 14  1  0  0  0  0
  1  6  1  0  0  0  0
  2  1  2  0  0  0  0
  3  2  1  0  0  0  0
  3  4  2  0  0  0  0
  4  5  1  0  0  0  0
  5  6  2  0  0  0  0
  5 28  1  0  0  0  0
  7  2  1  0  0  0  0
  8  3  1  0  0  0  0
  9  4  1  0  0  0  0
 10 23  1  0  0  0  0
 11 16  1  0  0  0  0
 11 10  2  0  0  0  0
 12 11  1  0  0  0  0
 13 12  2  0  0  0  0
 13 14  1  0  0  0  0
 14 15  2  0  0  0  0
 15 10  1  0  0  0  0
 17 12  1  0  0  0  0
 18 19  1  0  0  0  0
 18 17  1  0  0  0  0
 20 19  1  0  0  0  0
 20 21  1  0  0  0  0
 21 17  1  0  0  0  0
 22 21  1  0  0  0  0
 23 24  1  0  0  0  0
 23 25  1  0  0  0  0
 26 27  1  0  0  0  0
 27 33  1  0  0  0  0
 28 27  2  0  0  0  0
 28 29  1  0  0  0  0
 29 30  2  0  0  0  0
 30 31  1  0  0  0  0
 30 35  1  0  0  0  0
 31 32  1  0  0  0  0
 33 36  1  0  0  0  0
 33 31  2  0  0  0  0
 34 29  1  0  0  0  0
M  END
>  <minimizedAffinity>
-6.65091848

$$$$

 OpenBabel03262523173D

 36 39  0  0  0  0  0  0  0  0999 V2000
   36.9050   27.8860   33.6750 C   0  0  0  0  0  0  0  0  0  0  0  0
   36.2980   27.5680   32.4740 C   0  0  0  0  0  0  0  0  0  0  0  0
   35.2190   28.3630   32.1760 C   0  0  0  0  0  0  0  0  0  0  0  0
   34.7740   29.3840   32.9880 C   0  0  0  0  0  0  0  0  0  0  0  0
   35.4440   29.6180   34.1580 C   0  0  0  0  0  0  0  0  0  0  0  0
   36.5070   28.8640   34.4930 N   0  0  0  0  0  0  0  0  0  0  0  0
   36.6410   26.7660   31.8250 H   0  0  0  0  0  0  0  0  0  0  0  0
   34.6910   28.1630   31.2330 H   0  0  0  0  0  0  0  0  0  0  0  0
   33.9190   29.9440   32.6440 H   0  0  0  0  0  0  0  0  0  0  0  0
   40.3490   26.6310   33.9720 C   0  0  0  0  0  0  0  0  0  0  0  0
   40.2370   25.6080   34.9220 C   0  0  0  0  0  0  0  0  0  0  0  0
   38.9810   25.3700   35.4390 C   0  0  0  0  0  0  0  0  0  0  0  0
   37.9430   26.1320   35.0010 N   0  0  0  0  0  0  0  0  0  0  0  0
   38.0730   27.1060   34.0910 C   0  0  0  0  0  0  0  0  0  0  0  0
   39.2960   27.3530   33.5740 N   0  0  0  0  0  0  0  0  0  0  0  0
   41.1060   25.0610   35.2070 H   0  0  0  0  0  0  0  0  0  0  0  0
   38.7810   24.3510   36.4080 N   0  0  0  0  0  0  0  0  0  0  0  0
   37.7740   24.3540   37.4500 C   0  0  0  0  0  2  0  0  0  0  0  0
   38.6270   23.8250   38.6130 C   0  0  0  0  0  2  0  0  0  0  0  0
   39.2480   22.6130   37.9500 C   0  0  0  0  0  2  0  0  0  0  0  0
   39.5290   23.1170   36.5520 C   0  0  0  0  0  3  0  0  0  0  0  0
   39.2890   22.3870   35.7590 H   0  0  0  0  0  0  0  0  0  0  0  0
   41.6190   26.9750   33.3560 N   0  0  0  0  0  0  0  0  0  0  0  0
   41.6760   27.2370   32.3590 H   0  0  0  0  0  0  0  0  0  0  0  0
   42.4610   26.9420   33.9670 H   0  0  0  0  0  0  0  0  0  0  0  0
   32.6650   29.3760   35.3350 Cl  0  0  0  0  0  0  0  0  0  0  0  0
   33.7870   30.6640   35.6500 C   0  0  0  0  0  0  0  0  0  0  0  0
   35.0250   30.6770   35.0620 C   0  0  0  0  0  0  0  0  0  0  0  0
   35.8100   31.7680   35.4100 C   0  0  0  0  0  0  0  0  0  0  0  0
   35.4260   32.7670   36.2600 C   0  0  0  0  0  0  0  0  0  0  0  0
   34.1720   32.7160   36.8300 C   0  0  0  0  0  0  0  0  0  0  0  0
   33.6490   33.9740   37.9200 Cl  0  0  0  0  0  0  0  0  0  0  0  0
   33.3690   31.6640   36.5170 C   0  0  0  0  0  0  0  0  0  0  0  0
   36.8120   31.8250   34.9650 H   0  0  0  0  0  0  0  0  0  0  0  0
   36.1160   33.5720   36.4630 H   0  0  0  0  0  0  0  0  0  0  0  0
   32.3870   31.6580   36.9870 H   0  0  0  0  0  0  0  0  0  0  0  0
  1 14  1  0  0  0  0
  1  6  1  0  0  0  0
  2  1  2  0  0  0  0
  3  2  1  0  0  0  0
  3  4  2  0  0  0  0
  4  5  1  0  0  0  0
  5  6  2  0  0  0  0
  5 28  1  0  0  0  0
  7  2  1  0  0  0  0
  8  3  1  0  0  0  0
  9  4  1  0  0  0  0
 10 11  1  0  0  0  0
 11 16  1  0  0  0  0
 11 12  2  0  0  0  0
 12 17  1  0  0  0  0
 13 12  1  0  0  0  0
 14 13  2  0  0  0  0
 15 10  2  0  0  0  0
 15 14  1  0  0  0  0
 17 21  1  0  0  0  0
 17 18  1  0  0  0  0
 18 19  1  0  0  0  0
 20 19  1  0  0  0  0
 21 20  1  0  0  0  0
 22 21  1  0  0  0  0
 23 25  1  0  0  0  0
 23 10  1  0  0  0  0
 24 23  1  0  0  0  0
 26 27  1  0  0  0  0
 27 33  1  0  0  0  0
 28 29  1  0  0  0  0
 28 27  2  0  0  0  0
 29 30  2  0  0  0  0
 30 35  1  0  0  0  0
 30 31  1  0  0  0  0
 31 32  1  0  0  0  0
 33 31  2  0  0  0  0
 33 36  1  0  0  0  0
 34 29  1  0  0  0  0
M  END
>  <minimizedAffinity>
-6.61057711

$$$$

 OpenBabel03262523173D

 36 39  0  0  0  0  0  0  0  0999 V2000
   36.5840   27.3640   32.1610 C   0  0  0  0  0  0  0  0  0  0  0  0
   36.8900   27.8740   30.9120 C   0  0  0  0  0  0  0  0  0  0  0  0
   36.6010   29.2100   30.7780 C   0  0  0  0  0  0  0  0  0  0  0  0
   36.0580   29.9790   31.7840 C   0  0  0  0  0  0  0  0  0  0  0  0
   35.7920   29.3800   32.9850 C   0  0  0  0  0  0  0  0  0  0  0  0
   36.0570   28.0730   33.1640 N   0  0  0  0  0  0  0  0  0  0  0  0
   37.3180   27.2770   30.1120 H   0  0  0  0  0  0  0  0  0  0  0  0
   36.8210   29.6770   29.8080 H   0  0  0  0  0  0  0  0  0  0  0  0
   35.8820   31.0200   31.5610 H   0  0  0  0  0  0  0  0  0  0  0  0
   36.5380   23.6940   31.9370 C   0  0  0  0  0  0  0  0  0  0  0  0
   37.4230   23.3000   32.9490 C   0  0  0  0  0  0  0  0  0  0  0  0
   38.0140   24.3030   33.6870 C   0  0  0  0  0  0  0  0  0  0  0  0
   37.7080   25.5940   33.3920 N   0  0  0  0  0  0  0  0  0  0  0  0
   36.8580   25.9490   32.4190 C   0  0  0  0  0  0  0  0  0  0  0  0
   36.2700   24.9800   31.6850 N   0  0  0  0  0  0  0  0  0  0  0  0
   37.6040   22.2620   33.1090 H   0  0  0  0  0  0  0  0  0  0  0  0
   38.9240   23.9890   34.7320 N   0  0  0  0  0  0  0  0  0  0  0  0
   40.0360   24.8090   35.1670 C   0  0  0  0  0  2  0  0  0  0  0  0
   41.0940   23.7090   35.3470 C   0  0  0  0  0  2  0  0  0  0  0  0
   40.3050   22.7250   36.1850 C   0  0  0  0  0  2  0  0  0  0  0  0
   38.9280   22.8020   35.5660 C   0  0  0  0  0  3  0  0  0  0  0  0
   38.1070   22.8070   36.3040 H   0  0  0  0  0  0  0  0  0  0  0  0
   35.8550   22.7300   31.0920 N   0  0  0  0  0  0  0  0  0  0  0  0
   34.8770   22.8780   30.7970 H   0  0  0  0  0  0  0  0  0  0  0  0
   36.3980   21.8900   30.8040 H   0  0  0  0  0  0  0  0  0  0  0  0
   32.7730   29.3580   33.2130 Cl  0  0  0  0  0  0  0  0  0  0  0  0
   33.8610   30.1890   34.2820 C   0  0  0  0  0  0  0  0  0  0  0  0
   35.2160   30.1330   34.0880 C   0  0  0  0  0  0  0  0  0  0  0  0
   35.9560   30.8450   35.0220 C   0  0  0  0  0  0  0  0  0  0  0  0
   35.4250   31.5540   36.0630 C   0  0  0  0  0  0  0  0  0  0  0  0
   34.0560   31.5840   36.2220 C   0  0  0  0  0  0  0  0  0  0  0  0
   33.3430   32.4800   37.5390 Cl  0  0  0  0  0  0  0  0  0  0  0  0
   33.2910   30.9010   35.3290 C   0  0  0  0  0  0  0  0  0  0  0  0
   37.0480   30.8320   34.9100 H   0  0  0  0  0  0  0  0  0  0  0  0
   36.0920   32.0730   36.7330 H   0  0  0  0  0  0  0  0  0  0  0  0
   32.2160   30.9480   35.4880 H   0  0  0  0  0  0  0  0  0  0  0  0
  1 14  1  0  0  0  0
  1  6  1  0  0  0  0
  2  1  2  0  0  0  0
  3  2  1  0  0  0  0
  3  4  2  0  0  0  0
  4  5  1  0  0  0  0
  5  6  2  0  0  0  0
  5 28  1  0  0  0  0
  7  2  1  0  0  0  0
  8  3  1  0  0  0  0
  9  4  1  0  0  0  0
 10 11  1  0  0  0  0
 11 16  1  0  0  0  0
 11 12  2  0  0  0  0
 12 17  1  0  0  0  0
 13 12  1  0  0  0  0
 14 13  2  0  0  0  0
 15 10  2  0  0  0  0
 15 14  1  0  0  0  0
 17 18  1  0  0  0  0
 17 21  1  0  0  0  0
 18 19  1  0  0  0  0
 19 20  1  0  0  0  0
 21 20  1  0  0  0  0
 21 22  1  0  0  0  0
 23 10  1  0  0  0  0
 24 23  1  0  0  0  0
 25 23  1  0  0  0  0
 26 27  1  0  0  0  0
 27 33  1  0  0  0  0
 28 27  2  0  0  0  0
 28 29  1  0  0  0  0
 29 30  2  0  0  0  0
 30 31  1  0  0  0  0
 30 35  1  0  0  0  0
 31 32  1  0  0  0  0
 33 36  1  0  0  0  0
 33 31  2  0  0  0  0
 34 29  1  0  0  0  0
M  END
>  <minimizedAffinity>
-6.43436146

$$$$

 OpenBabel03262523173D

 36 39  0  0  0  0  0  0  0  0999 V2000
   37.9210   26.8230   32.8950 C   0  0  0  0  0  0  0  0  0  0  0  0
   37.5010   26.0810   31.8060 C   0  0  0  0  0  0  0  0  0  0  0  0
   36.3470   26.5530   31.2320 C   0  0  0  0  0  0  0  0  0  0  0  0
   35.6630   27.6590   31.6870 C   0  0  0  0  0  0  0  0  0  0  0  0
   36.1610   28.3250   32.7730 C   0  0  0  0  0  0  0  0  0  0  0  0
   37.2890   27.9000   33.3710 N   0  0  0  0  0  0  0  0  0  0  0  0
   38.0330   25.2070   31.4380 H   0  0  0  0  0  0  0  0  0  0  0  0
   35.9600   26.0070   30.3590 H   0  0  0  0  0  0  0  0  0  0  0  0
   34.7710   27.9380   31.1480 H   0  0  0  0  0  0  0  0  0  0  0  0
   41.3990   26.7270   34.0840 C   0  0  0  0  0  0  0  0  0  0  0  0
   41.4230   25.5990   34.9140 C   0  0  0  0  0  0  0  0  0  0  0  0
   40.2450   24.8940   35.0450 C   0  0  0  0  0  0  0  0  0  0  0  0
   39.1490   25.3320   34.3720 N   0  0  0  0  0  0  0  0  0  0  0  0
   39.1470   26.4140   33.5830 C   0  0  0  0  0  0  0  0  0  0  0  0
   40.2920   27.1170   33.4430 N   0  0  0  0  0  0  0  0  0  0  0  0
   42.3310   25.3290   35.4040 H   0  0  0  0  0  0  0  0  0  0  0  0
   40.1850   23.7380   35.8670 N   0  0  0  0  0  0  0  0  0  0  0  0
   39.0180   23.2630   36.5840 C   0  0  0  0  0  2  0  0  0  0  0  0
   39.6880   22.8800   37.9120 C   0  0  0  0  0  2  0  0  0  0  0  0
   40.8380   22.0440   37.3910 C   0  0  0  0  0  2  0  0  0  0  0  0
   41.2590   22.8070   36.1550 C   0  0  0  0  0  3  0  0  0  0  0  0
   41.4950   22.1600   35.2920 H   0  0  0  0  0  0  0  0  0  0  0  0
   42.5760   27.5500   33.8680 N   0  0  0  0  0  0  0  0  0  0  0  0
   42.7810   27.9560   32.9410 H   0  0  0  0  0  0  0  0  0  0  0  0
   43.1980   27.7050   34.6880 H   0  0  0  0  0  0  0  0  0  0  0  0
   36.6680   30.9470   31.3460 Cl  0  0  0  0  0  0  0  0  0  0  0  0
   35.6480   30.7340   32.7360 C   0  0  0  0  0  0  0  0  0  0  0  0
   35.4870   29.4990   33.3070 C   0  0  0  0  0  0  0  0  0  0  0  0
   34.6420   29.4850   34.4080 C   0  0  0  0  0  0  0  0  0  0  0  0
   34.0030   30.5810   34.9160 C   0  0  0  0  0  0  0  0  0  0  0  0
   34.1920   31.8050   34.3120 C   0  0  0  0  0  0  0  0  0  0  0  0
   33.3920   33.2270   34.9330 Cl  0  0  0  0  0  0  0  0  0  0  0  0
   35.0120   31.8660   33.2290 C   0  0  0  0  0  0  0  0  0  0  0  0
   34.4810   28.5170   34.9020 H   0  0  0  0  0  0  0  0  0  0  0  0
   33.3660   30.4590   35.7790 H   0  0  0  0  0  0  0  0  0  0  0  0
   35.1360   32.8490   32.7790 H   0  0  0  0  0  0  0  0  0  0  0  0
  1  6  1  0  0  0  0
  1 14  1  0  0  0  0
  2  1  2  0  0  0  0
  3  4  2  0  0  0  0
  3  2  1  0  0  0  0
  4  5  1  0  0  0  0
  5 28  1  0  0  0  0
  5  6  2  0  0  0  0
  7  2  1  0  0  0  0
  8  3  1  0  0  0  0
  9  4  1  0  0  0  0
 10 11  1  0  0  0  0
 11 12  2  0  0  0  0
 11 16  1  0  0  0  0
 12 17  1  0  0  0  0
 13 12  1  0  0  0  0
 14 13  2  0  0  0  0
 15 14  1  0  0  0  0
 15 10  2  0  0  0  0
 17 21  1  0  0  0  0
 17 18  1  0  0  0  0
 18 19  1  0  0  0  0
 20 19  1  0  0  0  0
 21 20  1  0  0  0  0
 22 21  1  0  0  0  0
 23 10  1  0  0  0  0
 23 25  1  0  0  0  0
 24 23  1  0  0  0  0
 26 27  1  0  0  0  0
 27 33  2  0  0  0  0
 27 28  1  0  0  0  0
 28 29  2  0  0  0  0
 29 34  1  0  0  0  0
 29 30  1  0  0  0  0
 30 35  1  0  0  0  0
 31 30  2  0  0  0  0
 31 32  1  0  0  0  0
 33 31  1  0  0  0  0
 36 33  1  0  0  0  0
M  END
>  <minimizedAffinity>
-6.36537313

$$$$

 OpenBabel03262523173D

 36 39  0  0  0  0  0  0  0  0999 V2000
   38.1460   26.3870   32.4550 C   0  0  0  0  0  0  0  0  0  0  0  0
   37.1120   25.4690   32.4570 C   0  0  0  0  0  0  0  0  0  0  0  0
   36.0720   25.8100   31.6270 C   0  0  0  0  0  0  0  0  0  0  0  0
   36.0500   26.9540   30.8600 C   0  0  0  0  0  0  0  0  0  0  0  0
   37.1230   27.8000   30.9290 C   0  0  0  0  0  0  0  0  0  0  0  0
   38.1660   27.5090   31.7290 N   0  0  0  0  0  0  0  0  0  0  0  0
   37.1190   24.5630   33.0570 H   0  0  0  0  0  0  0  0  0  0  0  0
   35.2180   25.1200   31.5820 H   0  0  0  0  0  0  0  0  0  0  0  0
   35.1800   27.1100   30.2420 H   0  0  0  0  0  0  0  0  0  0  0  0
   41.4590   26.6520   34.0260 C   0  0  0  0  0  0  0  0  0  0  0  0
   41.4760   25.5760   34.9230 C   0  0  0  0  0  0  0  0  0  0  0  0
   40.3500   24.7810   34.9670 C   0  0  0  0  0  0  0  0  0  0  0  0
   39.3070   25.0870   34.1500 N   0  0  0  0  0  0  0  0  0  0  0  0
   39.3130   26.1220   33.2990 C   0  0  0  0  0  0  0  0  0  0  0  0
   40.4080   26.9110   33.2430 N   0  0  0  0  0  0  0  0  0  0  0  0
   42.3390   25.4110   35.5270 H   0  0  0  0  0  0  0  0  0  0  0  0
   40.2850   23.6700   35.8480 N   0  0  0  0  0  0  0  0  0  0  0  0
   39.0840   23.1370   36.4600 C   0  0  0  0  0  2  0  0  0  0  0  0
   39.6230   22.8840   37.8760 C   0  0  0  0  0  2  0  0  0  0  0  0
   40.8880   22.1220   37.5390 C   0  0  0  0  0  2  0  0  0  0  0  0
   41.3880   22.8510   36.3120 C   0  0  0  0  0  3  0  0  0  0  0  0
   41.7720   22.1810   35.5230 H   0  0  0  0  0  0  0  0  0  0  0  0
   42.5860   27.5580   33.8910 N   0  0  0  0  0  0  0  0  0  0  0  0
   42.8640   27.9300   32.9690 H   0  0  0  0  0  0  0  0  0  0  0  0
   43.0940   27.8100   34.7630 H   0  0  0  0  0  0  0  0  0  0  0  0
   36.0250   30.2890   32.2580 Cl  0  0  0  0  0  0  0  0  0  0  0  0
   36.6910   30.2090   30.6560 C   0  0  0  0  0  0  0  0  0  0  0  0
   37.1620   29.0270   30.1480 C   0  0  0  0  0  0  0  0  0  0  0  0
   37.6650   29.1190   28.8580 C   0  0  0  0  0  0  0  0  0  0  0  0
   37.7080   30.2670   28.1170 C   0  0  0  0  0  0  0  0  0  0  0  0
   37.2230   31.4360   28.6650 C   0  0  0  0  0  0  0  0  0  0  0  0
   37.2620   32.9200   27.7480 Cl  0  0  0  0  0  0  0  0  0  0  0  0
   36.7210   31.3910   29.9270 C   0  0  0  0  0  0  0  0  0  0  0  0
   38.0550   28.1980   28.4060 H   0  0  0  0  0  0  0  0  0  0  0  0
   38.1210   30.2290   27.1210 H   0  0  0  0  0  0  0  0  0  0  0  0
   36.3480   32.3330   30.3260 H   0  0  0  0  0  0  0  0  0  0  0  0
  1  2  1  0  0  0  0
  1 14  1  0  0  0  0
  2  7  1  0  0  0  0
  3  2  2  0  0  0  0
  4  5  2  0  0  0  0
  4  3  1  0  0  0  0
  5  6  1  0  0  0  0
  6  1  2  0  0  0  0
  8  3  1  0  0  0  0
  9  4  1  0  0  0  0
 10 11  1  0  0  0  0
 11 12  2  0  0  0  0
 11 16  1  0  0  0  0
 12 17  1  0  0  0  0
 13 12  1  0  0  0  0
 14 13  2  0  0  0  0
 15 14  1  0  0  0  0
 15 10  2  0  0  0  0
 17 21  1  0  0  0  0
 17 18  1  0  0  0  0
 18 19  1  0  0  0  0
 20 19  1  0  0  0  0
 21 20  1  0  0  0  0
 22 21  1  0  0  0  0
 23 10  1  0  0  0  0
 23 25  1  0  0  0  0
 24 23  1  0  0  0  0
 27 26  1  0  0  0  0
 28 27  1  0  0  0  0
 28  5  1  0  0  0  0
 29 28  2  0  0  0  0
 30 31  2  0  0  0  0
 30 29  1  0  0  0  0
 31 33  1  0  0  0  0
 32 31  1  0  0  0  0
 33 36  1  0  0  0  0
 33 27  2  0  0  0  0
 34 29  1  0  0  0  0
 35 30  1  0  0  0  0
M  END
>  <minimizedAffinity>
-6.31569386

$$$$

 OpenBabel03262523173D

 36 39  0  0  0  0  0  0  0  0999 V2000
   37.1980   27.4310   33.8720 C   0  0  0  0  0  0  0  0  0  0  0  0
   37.1240   27.3980   32.4920 C   0  0  0  0  0  0  0  0  0  0  0  0
   36.3940   28.4300   31.9550 C   0  0  0  0  0  0  0  0  0  0  0  0
   35.7880   29.4110   32.7100 C   0  0  0  0  0  0  0  0  0  0  0  0
   35.9200   29.3540   34.0700 C   0  0  0  0  0  0  0  0  0  0  0  0
   36.6260   28.3610   34.6430 N   0  0  0  0  0  0  0  0  0  0  0  0
   37.5980   26.6290   31.8870 H   0  0  0  0  0  0  0  0  0  0  0  0
   36.2970   28.4610   30.8610 H   0  0  0  0  0  0  0  0  0  0  0  0
   35.2460   30.1740   32.1730 H   0  0  0  0  0  0  0  0  0  0  0  0
   38.1090   24.6740   36.1280 C   0  0  0  0  0  0  0  0  0  0  0  0
   39.4420   24.4110   35.7910 C   0  0  0  0  0  0  0  0  0  0  0  0
   40.0010   25.1880   34.7980 C   0  0  0  0  0  0  0  0  0  0  0  0
   39.2330   26.1460   34.2150 N   0  0  0  0  0  0  0  0  0  0  0  0
   37.9590   26.3810   34.5530 C   0  0  0  0  0  0  0  0  0  0  0  0
   37.3960   25.6300   35.5240 N   0  0  0  0  0  0  0  0  0  0  0  0
   39.9680   23.6380   36.3020 H   0  0  0  0  0  0  0  0  0  0  0  0
   41.3480   24.9860   34.3960 N   0  0  0  0  0  0  0  0  0  0  0  0
   41.8860   25.2270   33.0720 C   0  0  0  0  0  2  0  0  0  0  0  0
   42.7680   23.9760   32.9380 C   0  0  0  0  0  2  0  0  0  0  0  0
   43.5180   24.0440   34.2520 C   0  0  0  0  0  2  0  0  0  0  0  0
   42.4460   24.5050   35.2130 C   0  0  0  0  0  3  0  0  0  0  0  0
   42.7930   25.2640   35.9360 H   0  0  0  0  0  0  0  0  0  0  0  0
   37.4120   23.9230   37.1580 N   0  0  0  0  0  0  0  0  0  0  0  0
   36.7490   24.3850   37.8000 H   0  0  0  0  0  0  0  0  0  0  0  0
   37.6150   22.9040   37.2140 H   0  0  0  0  0  0  0  0  0  0  0  0
   32.8990   29.2960   34.2660 Cl  0  0  0  0  0  0  0  0  0  0  0  0
   33.9440   30.4180   35.0840 C   0  0  0  0  0  0  0  0  0  0  0  0
   35.3030   30.3560   34.9260 C   0  0  0  0  0  0  0  0  0  0  0  0
   36.0060   31.3150   35.6420 C   0  0  0  0  0  0  0  0  0  0  0  0
   35.4360   32.2590   36.4500 C   0  0  0  0  0  0  0  0  0  0  0  0
   34.0640   32.2870   36.5820 C   0  0  0  0  0  0  0  0  0  0  0  0
   33.3010   33.4780   37.6040 Cl  0  0  0  0  0  0  0  0  0  0  0  0
   33.3350   31.3650   35.8970 C   0  0  0  0  0  0  0  0  0  0  0  0
   37.1000   31.3080   35.5480 H   0  0  0  0  0  0  0  0  0  0  0  0
   36.0760   32.9600   36.9640 H   0  0  0  0  0  0  0  0  0  0  0  0
   32.2560   31.4180   36.0270 H   0  0  0  0  0  0  0  0  0  0  0  0
  1 14  1  0  0  0  0
  1  6  1  0  0  0  0
  2  1  2  0  0  0  0
  3  2  1  0  0  0  0
  3  4  2  0  0  0  0
  4  5  1  0  0  0  0
  5  6  2  0  0  0  0
  5 28  1  0  0  0  0
  7  2  1  0  0  0  0
  8  3  1  0  0  0  0
  9  4  1  0  0  0  0
 10 23  1  0  0  0  0
 11 10  1  0  0  0  0
 11 16  1  0  0  0  0
 12 11  2  0  0  0  0
 13 14  2  0  0  0  0
 13 12  1  0  0  0  0
 14 15  1  0  0  0  0
 15 10  2  0  0  0  0
 17 12  1  0  0  0  0
 17 21  1  0  0  0  0
 18 17  1  0  0  0  0
 19 18  1  0  0  0  0
 19 20  1  0  0  0  0
 20 21  1  0  0  0  0
 21 22  1  0  0  0  0
 23 25  1  0  0  0  0
 23 24  1  0  0  0  0
 26 27  1  0  0  0  0
 27 33  1  0  0  0  0
 28 27  2  0  0  0  0
 28 29  1  0  0  0  0
 29 30  2  0  0  0  0
 30 31  1  0  0  0  0
 30 35  1  0  0  0  0
 31 32  1  0  0  0  0
 33 36  1  0  0  0  0
 33 31  2  0  0  0  0
 34 29  1  0  0  0  0
M  END
>  <minimizedAffinity>
-6.23544359

$$$$

 OpenBabel03262523173D

 36 39  0  0  0  0  0  0  0  0999 V2000
   35.4560   29.5120   33.5370 C   0  0  0  0  0  0  0  0  0  0  0  0
   34.9010   29.6660   32.2800 C   0  0  0  0  0  0  0  0  0  0  0  0
   34.1670   30.8180   32.1400 C   0  0  0  0  0  0  0  0  0  0  0  0
   33.9930   31.7410   33.1480 C   0  0  0  0  0  0  0  0  0  0  0  0
   34.5840   31.4970   34.3580 C   0  0  0  0  0  0  0  0  0  0  0  0
   35.3120   30.3800   34.5430 N   0  0  0  0  0  0  0  0  0  0  0  0
   35.0320   28.9450   31.4770 H   0  0  0  0  0  0  0  0  0  0  0  0
   33.6990   31.0000   31.1620 H   0  0  0  0  0  0  0  0  0  0  0  0
   33.4000   32.6120   32.9150 H   0  0  0  0  0  0  0  0  0  0  0  0
   37.7480   27.1220   35.1350 C   0  0  0  0  0  0  0  0  0  0  0  0
   37.7660   26.0460   34.2380 C   0  0  0  0  0  0  0  0  0  0  0  0
   36.9920   26.1660   33.1030 C   0  0  0  0  0  0  0  0  0  0  0  0
   36.2690   27.3040   32.9270 N   0  0  0  0  0  0  0  0  0  0  0  0
   36.2670   28.3210   33.7980 C   0  0  0  0  0  0  0  0  0  0  0  0
   37.0190   28.2210   34.9150 N   0  0  0  0  0  0  0  0  0  0  0  0
   38.3630   25.1920   34.4580 H   0  0  0  0  0  0  0  0  0  0  0  0
   36.9530   25.1200   32.1430 N   0  0  0  0  0  0  0  0  0  0  0  0
   35.8320   24.7930   31.2850 C   0  0  0  0  0  2  0  0  0  0  0  0
   35.8800   23.2620   31.3950 C   0  0  0  0  0  2  0  0  0  0  0  0
   37.3480   23.0270   31.1040 C   0  0  0  0  0  2  0  0  0  0  0  0
   38.0100   24.1780   31.8270 C   0  0  0  0  0  3  0  0  0  0  0  0
   38.8320   24.6470   31.2580 H   0  0  0  0  0  0  0  0  0  0  0  0
   38.5210   27.1130   36.3640 N   0  0  0  0  0  0  0  0  0  0  0  0
   38.9850   27.9680   36.7100 H   0  0  0  0  0  0  0  0  0  0  0  0
   38.5840   26.2070   36.8730 H   0  0  0  0  0  0  0  0  0  0  0  0
   32.5750   30.7540   36.4970 Cl  0  0  0  0  0  0  0  0  0  0  0  0
   33.5560   32.1870   36.4860 C   0  0  0  0  0  0  0  0  0  0  0  0
   34.4370   32.4280   35.4650 C   0  0  0  0  0  0  0  0  0  0  0  0
   35.1520   33.6110   35.5940 C   0  0  0  0  0  0  0  0  0  0  0  0
   35.0230   34.4910   36.6320 C   0  0  0  0  0  0  0  0  0  0  0  0
   34.1240   34.2110   37.6390 C   0  0  0  0  0  0  0  0  0  0  0  0
   33.9330   35.3130   38.9800 Cl  0  0  0  0  0  0  0  0  0  0  0  0
   33.4030   33.0620   37.5540 C   0  0  0  0  0  0  0  0  0  0  0  0
   35.8710   33.8500   34.8000 H   0  0  0  0  0  0  0  0  0  0  0  0
   35.6280   35.3850   36.6350 H   0  0  0  0  0  0  0  0  0  0  0  0
   32.7050   32.8760   38.3670 H   0  0  0  0  0  0  0  0  0  0  0  0
  1 14  1  0  0  0  0
  1  6  1  0  0  0  0
  2  1  2  0  0  0  0
  3  2  1  0  0  0  0
  3  4  2  0  0  0  0
  4  5  1  0  0  0  0
  5  6  2  0  0  0  0
  5 28  1  0  0  0  0
  7  2  1  0  0  0  0
  8  3  1  0  0  0  0
  9  4  1  0  0  0  0
 10 23  1  0  0  0  0
 11 16  1  0  0  0  0
 11 10  2  0  0  0  0
 12 11  1  0  0  0  0
 13 12  2  0  0  0  0
 13 14  1  0  0  0  0
 14 15  2  0  0  0  0
 15 10  1  0  0  0  0
 17 12  1  0  0  0  0
 18 19  1  0  0  0  0
 18 17  1  0  0  0  0
 20 19  1  0  0  0  0
 20 21  1  0  0  0  0
 21 17  1  0  0  0  0
 22 21  1  0  0  0  0
 23 24  1  0  0  0  0
 23 25  1  0  0  0  0
 27 26  1  0  0  0  0
 27 33  1  0  0  0  0
 28 29  1  0  0  0  0
 28 27  2  0  0  0  0
 29 30  2  0  0  0  0
 30 35  1  0  0  0  0
 30 31  1  0  0  0  0
 31 32  1  0  0  0  0
 33 31  2  0  0  0  0
 33 36  1  0  0  0  0
 34 29  1  0  0  0  0
M  END
>  <minimizedAffinity>
-6.22407484

$$$$

 OpenBabel03262523173D

 36 39  0  0  0  0  0  0  0  0999 V2000
   36.5270   27.9350   31.6990 C   0  0  0  0  0  0  0  0  0  0  0  0
   36.9940   28.8440   30.7670 C   0  0  0  0  0  0  0  0  0  0  0  0
   36.3430   30.0530   30.8030 C   0  0  0  0  0  0  0  0  0  0  0  0
   35.3200   30.3440   31.6790 C   0  0  0  0  0  0  0  0  0  0  0  0
   34.9290   29.3760   32.5620 C   0  0  0  0  0  0  0  0  0  0  0  0
   35.5370   28.1750   32.5650 N   0  0  0  0  0  0  0  0  0  0  0  0
   37.8010   28.6250   30.0720 H   0  0  0  0  0  0  0  0  0  0  0  0
   36.6690   30.8210   30.0870 H   0  0  0  0  0  0  0  0  0  0  0  0
   34.8900   31.3320   31.6150 H   0  0  0  0  0  0  0  0  0  0  0  0
   38.1800   24.8030   30.7130 C   0  0  0  0  0  0  0  0  0  0  0  0
   38.3360   24.1260   31.9300 C   0  0  0  0  0  0  0  0  0  0  0  0
   37.8680   24.7590   33.0620 C   0  0  0  0  0  0  0  0  0  0  0  0
   37.2940   25.9840   32.9300 N   0  0  0  0  0  0  0  0  0  0  0  0
   37.1540   26.6140   31.7560 C   0  0  0  0  0  0  0  0  0  0  0  0
   37.6070   26.0080   30.6360 N   0  0  0  0  0  0  0  0  0  0  0  0
   38.8010   23.1670   31.9390 H   0  0  0  0  0  0  0  0  0  0  0  0
   37.9880   24.1420   34.3350 N   0  0  0  0  0  0  0  0  0  0  0  0
   38.1320   24.8280   35.6030 C   0  0  0  0  0  2  0  0  0  0  0  0
   39.2050   23.9330   36.2430 C   0  0  0  0  0  2  0  0  0  0  0  0
   38.5820   22.5730   36.0090 C   0  0  0  0  0  2  0  0  0  0  0  0
   37.9900   22.7210   34.6260 C   0  0  0  0  0  3  0  0  0  0  0  0
   36.9870   22.2710   34.5200 H   0  0  0  0  0  0  0  0  0  0  0  0
   38.6340   24.2380   29.4540 N   0  0  0  0  0  0  0  0  0  0  0  0
   38.0870   24.3590   28.5870 H   0  0  0  0  0  0  0  0  0  0  0  0
   39.5300   23.7090   29.4720 H   0  0  0  0  0  0  0  0  0  0  0  0
   35.6990   30.6930   35.1770 Cl  0  0  0  0  0  0  0  0  0  0  0  0
   34.0930   30.2070   34.7240 C   0  0  0  0  0  0  0  0  0  0  0  0
   33.8540   29.6160   33.5110 C   0  0  0  0  0  0  0  0  0  0  0  0
   32.5240   29.2850   33.2900 C   0  0  0  0  0  0  0  0  0  0  0  0
   31.5060   29.5090   34.1750 C   0  0  0  0  0  0  0  0  0  0  0  0
   31.7900   30.1060   35.3850 C   0  0  0  0  0  0  0  0  0  0  0  0
   30.5160   30.4060   36.5380 Cl  0  0  0  0  0  0  0  0  0  0  0  0
   33.0810   30.4470   35.6440 C   0  0  0  0  0  0  0  0  0  0  0  0
   32.2800   28.8090   32.3320 H   0  0  0  0  0  0  0  0  0  0  0  0
   30.5050   29.2120   33.9030 H   0  0  0  0  0  0  0  0  0  0  0  0
   33.2650   30.9160   36.6080 H   0  0  0  0  0  0  0  0  0  0  0  0
  1 14  1  0  0  0  0
  1  6  1  0  0  0  0
  2  3  1  0  0  0  0
  2  1  2  0  0  0  0
  3  4  2  0  0  0  0
  4  5  1  0  0  0  0
  5  6  2  0  0  0  0
  5 28  1  0  0  0  0
  7  2  1  0  0  0  0
  8  3  1  0  0  0  0
  9  4  1  0  0  0  0
 10 11  1  0  0  0  0
 11 16  1  0  0  0  0
 11 12  2  0  0  0  0
 12 17  1  0  0  0  0
 13 12  1  0  0  0  0
 14 13  2  0  0  0  0
 15 10  2  0  0  0  0
 15 14  1  0  0  0  0
 17 21  1  0  0  0  0
 17 18  1  0  0  0  0
 18 19  1  0  0  0  0
 20 19  1  0  0  0  0
 21 20  1  0  0  0  0
 22 21  1  0  0  0  0
 23 25  1  0  0  0  0
 23 10  1  0  0  0  0
 24 23  1  0  0  0  0
 27 26  1  0  0  0  0
 27 33  1  0  0  0  0
 28 27  2  0  0  0  0
 29 28  1  0  0  0  0
 29 30  2  0  0  0  0
 30 31  1  0  0  0  0
 31 33  2  0  0  0  0
 31 32  1  0  0  0  0
 33 36  1  0  0  0  0
 34 29  1  0  0  0  0
 35 30  1  0  0  0  0
M  END
>  <minimizedAffinity>
-6.07231522

$$$$

 OpenBabel03262523173D

 36 39  0  0  0  0  0  0  0  0999 V2000
   36.8080   27.7730   32.6290 C   0  0  0  0  0  0  0  0  0  0  0  0
   37.3480   28.4350   31.5420 C   0  0  0  0  0  0  0  0  0  0  0  0
   36.7740   29.6590   31.3030 C   0  0  0  0  0  0  0  0  0  0  0  0
   35.7580   30.1890   32.0670 C   0  0  0  0  0  0  0  0  0  0  0  0
   35.2910   29.4550   33.1230 C   0  0  0  0  0  0  0  0  0  0  0  0
   35.8220   28.2480   33.3960 N   0  0  0  0  0  0  0  0  0  0  0  0
   38.1510   28.0270   30.9330 H   0  0  0  0  0  0  0  0  0  0  0  0
   37.1600   30.2380   30.4510 H   0  0  0  0  0  0  0  0  0  0  0  0
   35.3920   31.1640   31.7840 H   0  0  0  0  0  0  0  0  0  0  0  0
   38.7290   25.1110   34.2860 C   0  0  0  0  0  0  0  0  0  0  0  0
   38.3250   23.9540   33.6060 C   0  0  0  0  0  0  0  0  0  0  0  0
   37.4040   24.1140   32.5930 C   0  0  0  0  0  0  0  0  0  0  0  0
   36.9500   25.3660   32.3200 N   0  0  0  0  0  0  0  0  0  0  0  0
   37.3500   26.4590   32.9820 C   0  0  0  0  0  0  0  0  0  0  0  0
   38.2520   26.3210   33.9780 N   0  0  0  0  0  0  0  0  0  0  0  0
   38.7350   23.0120   33.8890 H   0  0  0  0  0  0  0  0  0  0  0  0
   36.9430   22.9930   31.8550 N   0  0  0  0  0  0  0  0  0  0  0  0
   35.6360   22.8560   31.2420 C   0  0  0  0  0  2  0  0  0  0  0  0
   35.3420   21.3960   31.6190 C   0  0  0  0  0  2  0  0  0  0  0  0
   36.6330   20.7460   31.1660 C   0  0  0  0  0  2  0  0  0  0  0  0
   37.6700   21.7710   31.5650 C   0  0  0  0  0  3  0  0  0  0  0  0
   38.4590   21.9240   30.8080 H   0  0  0  0  0  0  0  0  0  0  0  0
   39.6930   25.0700   35.3710 N   0  0  0  0  0  0  0  0  0  0  0  0
   40.4010   25.8130   35.4860 H   0  0  0  0  0  0  0  0  0  0  0  0
   39.6340   24.2590   36.0210 H   0  0  0  0  0  0  0  0  0  0  0  0
   36.1160   31.0120   35.5840 Cl  0  0  0  0  0  0  0  0  0  0  0  0
   34.4810   30.6710   35.1050 C   0  0  0  0  0  0  0  0  0  0  0  0
   34.2180   29.9540   33.9670 C   0  0  0  0  0  0  0  0  0  0  0  0
   32.8670   29.7620   33.7140 C   0  0  0  0  0  0  0  0  0  0  0  0
   31.8510   30.2280   34.5000 C   0  0  0  0  0  0  0  0  0  0  0  0
   32.1590   30.9450   35.6360 C   0  0  0  0  0  0  0  0  0  0  0  0
   30.8880   31.5560   36.6640 Cl  0  0  0  0  0  0  0  0  0  0  0  0
   33.4710   31.1570   35.9240 C   0  0  0  0  0  0  0  0  0  0  0  0
   32.6030   29.1920   32.8130 H   0  0  0  0  0  0  0  0  0  0  0  0
   30.8320   30.0220   34.2110 H   0  0  0  0  0  0  0  0  0  0  0  0
   33.6750   31.7280   36.8280 H   0  0  0  0  0  0  0  0  0  0  0  0
  1 14  1  0  0  0  0
  1  6  1  0  0  0  0
  2  1  2  0  0  0  0
  3  2  1  0  0  0  0
  3  4  2  0  0  0  0
  4  5  1  0  0  0  0
  5  6  2  0  0  0  0
  5 28  1  0  0  0  0
  7  2  1  0  0  0  0
  8  3  1  0  0  0  0
  9  4  1  0  0  0  0
 10 23  1  0  0  0  0
 11 16  1  0  0  0  0
 11 10  2  0  0  0  0
 12 11  1  0  0  0  0
 13 12  2  0  0  0  0
 13 14  1  0  0  0  0
 14 15  2  0  0  0  0
 15 10  1  0  0  0  0
 17 12  1  0  0  0  0
 18 19  1  0  0  0  0
 18 17  1  0  0  0  0
 20 21  1  0  0  0  0
 20 19  1  0  0  0  0
 21 17  1  0  0  0  0
 22 21  1  0  0  0  0
 23 24  1  0  0  0  0
 23 25  1  0  0  0  0
 27 26  1  0  0  0  0
 27 33  1  0  0  0  0
 28 27  2  0  0  0  0
 29 28  1  0  0  0  0
 29 30  2  0  0  0  0
 30 31  1  0  0  0  0
 31 33  2  0  0  0  0
 31 32  1  0  0  0  0
 33 36  1  0  0  0  0
 34 29  1  0  0  0  0
 35 30  1  0  0  0  0
M  END
>  <minimizedAffinity>
-6.06787109

$$$$
