
 OpenBabel03272510183D

 33 36  0  0  0  0  0  0  0  0999 V2000
   37.4410   29.1520   50.8000 Br  0  0  0  0  0  0  0  0  0  0  0  0
   36.0120   29.2530   49.5380 C   0  0  0  0  0  0  0  0  0  0  0  0
   35.9910   30.2610   48.5730 C   0  0  0  0  0  0  0  0  0  0  0  0
   34.9260   30.2670   47.6970 C   0  0  0  0  0  0  0  0  0  0  0  0
   33.8980   29.3370   47.7300 C   0  0  0  0  0  0  0  0  0  0  0  0
   33.9530   28.3680   48.6860 C   0  0  0  0  0  0  0  0  0  0  0  0
   35.0070   28.3380   49.5750 C   0  0  0  0  0  0  0  0  0  0  0  0
   34.8530   31.0310   46.9180 H   0  0  0  0  0  0  0  0  0  0  0  0
   33.2010   27.5960   48.7970 H   0  0  0  0  0  0  0  0  0  0  0  0
   35.0460   27.5640   50.3350 H   0  0  0  0  0  0  0  0  0  0  0  0
   32.7860   29.3630   46.7960 C   0  0  0  0  0  0  0  0  0  0  0  0
   31.9760   28.2720   46.5210 C   0  0  0  0  0  0  0  0  0  0  0  0
   30.9210   28.3250   45.6250 C   0  0  0  0  0  0  0  0  0  0  0  0
   30.6670   29.4720   44.9950 N   0  0  0  0  0  0  0  0  0  0  0  0
   31.4470   30.5500   45.2490 C   0  0  0  0  0  0  0  0  0  0  0  0
   32.4510   30.4630   46.1160 N   0  0  0  0  0  0  0  0  0  0  0  0
   32.1820   27.3310   47.0370 H   0  0  0  0  0  0  0  0  0  0  0  0
   30.3280   27.4330   45.4570 H   0  0  0  0  0  0  0  0  0  0  0  0
   31.1690   31.7710   44.5730 N   0  0  0  0  0  0  0  0  0  0  0  0
   32.0890   32.9160   44.4950 C   0  0  0  0  0  2  0  0  0  0  0  0
   31.2080   34.0920   44.1100 C   0  0  0  0  0  2  0  0  0  0  0  0
   30.2620   33.3820   43.1330 C   0  0  0  0  0  2  0  0  0  0  0  0
   29.9610   32.1120   43.8490 C   0  0  0  0  0  3  0  0  0  0  0  0
   29.6480   31.3480   43.1210 H   0  0  0  0  0  0  0  0  0  0  0  0
   38.0030   33.1690   49.4410 C   0  0  0  0  0  0  0  0  0  0  0  0
   39.0240   33.1660   48.4320 C   0  0  0  0  0  0  0  0  0  0  0  0
   38.9940   32.1600   47.4740 C   0  0  0  0  0  0  0  0  0  0  0  0
   37.9990   31.2220   47.5350 N   0  0  0  0  0  0  0  0  0  0  0  0
   37.0470   31.2530   48.5040 C   0  0  0  0  0  0  0  0  0  0  0  0
   37.0520   32.2280   49.4550 N   0  0  0  0  0  0  0  0  0  0  0  0
   37.9550   33.9130   50.2190 H   0  0  0  0  0  0  0  0  0  0  0  0
   39.7640   33.9560   48.4770 H   0  0  0  0  0  0  0  0  0  0  0  0
   39.7450   32.1480   46.7220 H   0  0  0  0  0  0  0  0  0  0  0  0
  2  7  1  0  0  0  0
  2  1  1  0  0  0  0
  3  2  2  0  0  0  0
  4  5  2  0  0  0  0
  4  3  1  0  0  0  0
  5  6  1  0  0  0  0
  6  9  1  0  0  0  0
  6  7  2  0  0  0  0
  7 10  1  0  0  0  0
  8  4  1  0  0  0  0
 11  5  1  0  0  0  0
 12 11  1  0  0  0  0
 12 17  1  0  0  0  0
 13 12  2  0  0  0  0
 14 15  2  0  0  0  0
 14 13  1  0  0  0  0
 15 16  1  0  0  0  0
 16 11  2  0  0  0  0
 18 13  1  0  0  0  0
 19 15  1  0  0  0  0
 20 19  1  0  0  0  0
 21 20  1  0  0  0  0
 22 23  1  0  0  0  0
 22 21  1  0  0  0  0
 23 19  1  0  0  0  0
 24 23  1  0  0  0  0
 25 30  1  0  0  0  0
 25 31  1  0  0  0  0
 26 32  1  0  0  0  0
 26 25  2  0  0  0  0
 27 28  2  0  0  0  0
 27 26  1  0  0  0  0
 28 29  1  0  0  0  0
 29  3  1  0  0  0  0
 29 30  2  0  0  0  0
 33 27  1  0  0  0  0
M  END
>  <minimizedAffinity>
-6.63247108

>  <minimizedRMSD>
0.247762173

$$$$
