
 OpenBabel03272510193D

 33 36  0  0  0  0  0  0  0  0999 V2000
   37.4310   29.1410   50.7840 Br  0  0  0  0  0  0  0  0  0  0  0  0
   36.0080   29.2580   49.5170 C   0  0  0  0  0  0  0  0  0  0  0  0
   35.9950   30.2750   48.5620 C   0  0  0  0  0  0  0  0  0  0  0  0
   34.9330   30.2930   47.6820 C   0  0  0  0  0  0  0  0  0  0  0  0
   33.9020   29.3670   47.7020 C   0  0  0  0  0  0  0  0  0  0  0  0
   33.9510   28.3880   48.6490 C   0  0  0  0  0  0  0  0  0  0  0  0
   35.0000   28.3460   49.5420 C   0  0  0  0  0  0  0  0  0  0  0  0
   34.8650   31.0640   46.9100 H   0  0  0  0  0  0  0  0  0  0  0  0
   33.1960   27.6180   48.7490 H   0  0  0  0  0  0  0  0  0  0  0  0
   35.0340   27.5650   50.2950 H   0  0  0  0  0  0  0  0  0  0  0  0
   32.7940   29.4050   46.7640 C   0  0  0  0  0  0  0  0  0  0  0  0
   32.0040   28.3100   46.4480 C   0  0  0  0  0  0  0  0  0  0  0  0
   30.9530   28.3750   45.5490 C   0  0  0  0  0  0  0  0  0  0  0  0
   30.6810   29.5380   44.9560 N   0  0  0  0  0  0  0  0  0  0  0  0
   31.4420   30.6200   45.2500 C   0  0  0  0  0  0  0  0  0  0  0  0
   32.4430   30.5210   46.1190 N   0  0  0  0  0  0  0  0  0  0  0  0
   32.2230   27.3560   46.9330 H   0  0  0  0  0  0  0  0  0  0  0  0
   30.3760   27.4800   45.3490 H   0  0  0  0  0  0  0  0  0  0  0  0
   31.1470   31.8580   44.6140 N   0  0  0  0  0  0  0  0  0  0  0  0
   29.8980   32.1560   43.8960 C   0  0  0  0  0  2  0  0  0  0  0  0
   30.2330   33.3570   43.0260 C   0  0  0  0  0  2  0  0  0  0  0  0
   31.1450   34.1180   43.9960 C   0  0  0  0  0  2  0  0  0  0  0  0
   31.9970   33.0310   44.5510 C   0  0  0  0  0  3  0  0  0  0  0  0
   32.3950   33.3420   45.5280 H   0  0  0  0  0  0  0  0  0  0  0  0
   38.0080   33.1730   49.4610 C   0  0  0  0  0  0  0  0  0  0  0  0
   39.0370   33.1730   48.4610 C   0  0  0  0  0  0  0  0  0  0  0  0
   39.0130   32.1700   47.4980 C   0  0  0  0  0  0  0  0  0  0  0  0
   38.0140   31.2350   47.5470 N   0  0  0  0  0  0  0  0  0  0  0  0
   37.0540   31.2640   48.5070 C   0  0  0  0  0  0  0  0  0  0  0  0
   37.0540   32.2350   49.4630 N   0  0  0  0  0  0  0  0  0  0  0  0
   37.9550   33.9140   50.2420 H   0  0  0  0  0  0  0  0  0  0  0  0
   39.7790   33.9600   48.5160 H   0  0  0  0  0  0  0  0  0  0  0  0
   39.7700   32.1600   46.7530 H   0  0  0  0  0  0  0  0  0  0  0  0
  2  7  1  0  0  0  0
  2  1  1  0  0  0  0
  3  2  2  0  0  0  0
  4  5  2  0  0  0  0
  4  3  1  0  0  0  0
  5  6  1  0  0  0  0
  6  9  1  0  0  0  0
  6  7  2  0  0  0  0
  7 10  1  0  0  0  0
  8  4  1  0  0  0  0
 11  5  1  0  0  0  0
 12 11  1  0  0  0  0
 12 17  1  0  0  0  0
 13 12  2  0  0  0  0
 14 15  2  0  0  0  0
 14 13  1  0  0  0  0
 15 16  1  0  0  0  0
 16 11  2  0  0  0  0
 18 13  1  0  0  0  0
 19 15  1  0  0  0  0
 20 19  1  0  0  0  0
 21 20  1  0  0  0  0
 21 22  1  0  0  0  0
 22 23  1  0  0  0  0
 23 19  1  0  0  0  0
 23 24  1  0  0  0  0
 25 30  1  0  0  0  0
 25 31  1  0  0  0  0
 26 32  1  0  0  0  0
 26 25  2  0  0  0  0
 27 28  2  0  0  0  0
 27 26  1  0  0  0  0
 28 29  1  0  0  0  0
 29  3  1  0  0  0  0
 29 30  2  0  0  0  0
 33 27  1  0  0  0  0
M  END
>  <minimizedAffinity>
-6.63462591

>  <minimizedRMSD>
0.267886043

$$$$
