
 OpenBabel03272510193D

 33 36  0  0  0  0  0  0  0  0999 V2000
   37.3140   29.3030   51.0260 Br  0  0  0  0  0  0  0  0  0  0  0  0
   35.9440   29.2980   49.6960 C   0  0  0  0  0  0  0  0  0  0  0  0
   35.9690   30.2240   48.6530 C   0  0  0  0  0  0  0  0  0  0  0  0
   34.9440   30.1570   47.7320 C   0  0  0  0  0  0  0  0  0  0  0  0
   33.9150   29.2310   47.7940 C   0  0  0  0  0  0  0  0  0  0  0  0
   33.9260   28.3420   48.8260 C   0  0  0  0  0  0  0  0  0  0  0  0
   34.9380   28.3860   49.7620 C   0  0  0  0  0  0  0  0  0  0  0  0
   34.9080   30.8550   46.8920 H   0  0  0  0  0  0  0  0  0  0  0  0
   33.1690   27.5790   48.9650 H   0  0  0  0  0  0  0  0  0  0  0  0
   34.9420   27.6760   50.5830 H   0  0  0  0  0  0  0  0  0  0  0  0
   32.8470   29.1780   46.8110 C   0  0  0  0  0  0  0  0  0  0  0  0
   32.1470   28.0270   46.4840 C   0  0  0  0  0  0  0  0  0  0  0  0
   31.1320   28.0050   45.5420 C   0  0  0  0  0  0  0  0  0  0  0  0
   30.8070   29.1380   44.9180 N   0  0  0  0  0  0  0  0  0  0  0  0
   31.4790   30.2740   45.2220 C   0  0  0  0  0  0  0  0  0  0  0  0
   32.4480   30.2570   46.1330 N   0  0  0  0  0  0  0  0  0  0  0  0
   32.4110   27.0970   46.9950 H   0  0  0  0  0  0  0  0  0  0  0  0
   30.6260   27.0700   45.3350 H   0  0  0  0  0  0  0  0  0  0  0  0
   31.1270   31.4780   44.5520 N   0  0  0  0  0  0  0  0  0  0  0  0
   30.0720   31.5960   43.5340 C   0  0  0  0  0  2  0  0  0  0  0  0
   30.3830   32.8920   42.8040 C   0  0  0  0  0  2  0  0  0  0  0  0
   30.8530   33.7380   43.9940 C   0  0  0  0  0  2  0  0  0  0  0  0
   31.7240   32.7860   44.7370 C   0  0  0  0  0  3  0  0  0  0  0  0
   31.7910   33.0990   45.7900 H   0  0  0  0  0  0  0  0  0  0  0  0
   37.9810   33.1610   49.4180 C   0  0  0  0  0  0  0  0  0  0  0  0
   39.0100   33.1150   48.4190 C   0  0  0  0  0  0  0  0  0  0  0  0
   38.9870   32.0690   47.5030 C   0  0  0  0  0  0  0  0  0  0  0  0
   37.9880   31.1370   47.5950 N   0  0  0  0  0  0  0  0  0  0  0  0
   37.0280   31.2100   48.5530 C   0  0  0  0  0  0  0  0  0  0  0  0
   37.0270   32.2240   49.4620 N   0  0  0  0  0  0  0  0  0  0  0  0
   37.9280   33.9380   50.1630 H   0  0  0  0  0  0  0  0  0  0  0  0
   39.7520   33.9040   48.4370 H   0  0  0  0  0  0  0  0  0  0  0  0
   39.7440   32.0240   46.7590 H   0  0  0  0  0  0  0  0  0  0  0  0
  2  7  1  0  0  0  0
  2  1  1  0  0  0  0
  3  2  2  0  0  0  0
  4  5  2  0  0  0  0
  4  3  1  0  0  0  0
  5  6  1  0  0  0  0
  6  9  1  0  0  0  0
  6  7  2  0  0  0  0
  7 10  1  0  0  0  0
  8  4  1  0  0  0  0
 11  5  1  0  0  0  0
 12 11  1  0  0  0  0
 12 17  1  0  0  0  0
 13 12  2  0  0  0  0
 14 15  2  0  0  0  0
 14 13  1  0  0  0  0
 15 16  1  0  0  0  0
 16 11  2  0  0  0  0
 18 13  1  0  0  0  0
 19 23  1  0  0  0  0
 19 15  1  0  0  0  0
 20 19  1  0  0  0  0
 21 20  1  0  0  0  0
 21 22  1  0  0  0  0
 22 23  1  0  0  0  0
 23 24  1  0  0  0  0
 25 30  1  0  0  0  0
 25 31  1  0  0  0  0
 26 32  1  0  0  0  0
 26 25  2  0  0  0  0
 27 28  2  0  0  0  0
 27 26  1  0  0  0  0
 28 29  1  0  0  0  0
 29  3  1  0  0  0  0
 29 30  2  0  0  0  0
 33 27  1  0  0  0  0
M  END
>  <minimizedAffinity>
-6.60730267

>  <minimizedRMSD>
0.0998735651

$$$$
