
 OpenBabel03272510183D

 33 36  0  0  0  0  0  0  0  0999 V2000
   37.4380   29.1820   50.8430 Br  0  0  0  0  0  0  0  0  0  0  0  0
   36.0240   29.2780   49.5630 C   0  0  0  0  0  0  0  0  0  0  0  0
   36.0150   30.2820   48.5940 C   0  0  0  0  0  0  0  0  0  0  0  0
   34.9610   30.2850   47.7050 C   0  0  0  0  0  0  0  0  0  0  0  0
   33.9330   29.3550   47.7290 C   0  0  0  0  0  0  0  0  0  0  0  0
   33.9770   28.3890   48.6880 C   0  0  0  0  0  0  0  0  0  0  0  0
   35.0190   28.3620   49.5900 C   0  0  0  0  0  0  0  0  0  0  0  0
   34.8970   31.0460   46.9230 H   0  0  0  0  0  0  0  0  0  0  0  0
   33.2240   27.6170   48.7920 H   0  0  0  0  0  0  0  0  0  0  0  0
   35.0500   27.5910   50.3530 H   0  0  0  0  0  0  0  0  0  0  0  0
   32.8330   29.3770   46.7810 C   0  0  0  0  0  0  0  0  0  0  0  0
   31.9710   28.3130   46.5660 C   0  0  0  0  0  0  0  0  0  0  0  0
   30.9280   28.3620   45.6550 C   0  0  0  0  0  0  0  0  0  0  0  0
   30.7390   29.4770   44.9490 N   0  0  0  0  0  0  0  0  0  0  0  0
   31.5710   30.5290   45.1440 C   0  0  0  0  0  0  0  0  0  0  0  0
   32.5610   30.4460   46.0280 N   0  0  0  0  0  0  0  0  0  0  0  0
   32.1220   27.3980   47.1420 H   0  0  0  0  0  0  0  0  0  0  0  0
   30.2920   27.4930   45.5370 H   0  0  0  0  0  0  0  0  0  0  0  0
   31.3630   31.7160   44.3890 N   0  0  0  0  0  0  0  0  0  0  0  0
   32.3470   32.3100   43.4710 C   0  0  0  0  0  2  0  0  0  0  0  0
   31.8820   33.7450   43.2830 C   0  0  0  0  0  2  0  0  0  0  0  0
   30.3660   33.5110   43.2600 C   0  0  0  0  0  2  0  0  0  0  0  0
   30.1750   32.5460   44.3760 C   0  0  0  0  0  3  0  0  0  0  0  0
   29.2430   31.9840   44.2180 H   0  0  0  0  0  0  0  0  0  0  0  0
   38.0170   33.1920   49.4800 C   0  0  0  0  0  0  0  0  0  0  0  0
   39.0480   33.1890   48.4820 C   0  0  0  0  0  0  0  0  0  0  0  0
   39.0290   32.1810   47.5240 C   0  0  0  0  0  0  0  0  0  0  0  0
   38.0330   31.2430   47.5770 N   0  0  0  0  0  0  0  0  0  0  0  0
   37.0710   31.2740   48.5350 C   0  0  0  0  0  0  0  0  0  0  0  0
   37.0660   32.2510   49.4850 N   0  0  0  0  0  0  0  0  0  0  0  0
   37.9600   33.9370   50.2560 H   0  0  0  0  0  0  0  0  0  0  0  0
   39.7880   33.9790   48.5330 H   0  0  0  0  0  0  0  0  0  0  0  0
   39.7870   32.1690   46.7800 H   0  0  0  0  0  0  0  0  0  0  0  0
  2  7  1  0  0  0  0
  2  1  1  0  0  0  0
  3  2  2  0  0  0  0
  4  5  2  0  0  0  0
  4  3  1  0  0  0  0
  5  6  1  0  0  0  0
  6  9  1  0  0  0  0
  6  7  2  0  0  0  0
  7 10  1  0  0  0  0
  8  4  1  0  0  0  0
 11  5  1  0  0  0  0
 12 11  1  0  0  0  0
 12 17  1  0  0  0  0
 13 12  2  0  0  0  0
 14 15  2  0  0  0  0
 14 13  1  0  0  0  0
 15 16  1  0  0  0  0
 16 11  2  0  0  0  0
 18 13  1  0  0  0  0
 19 15  1  0  0  0  0
 20 19  1  0  0  0  0
 21 20  1  0  0  0  0
 22 21  1  0  0  0  0
 22 23  1  0  0  0  0
 23 19  1  0  0  0  0
 24 23  1  0  0  0  0
 25 30  1  0  0  0  0
 25 31  1  0  0  0  0
 26 32  1  0  0  0  0
 26 25  2  0  0  0  0
 27 28  2  0  0  0  0
 27 26  1  0  0  0  0
 28 29  1  0  0  0  0
 29  3  1  0  0  0  0
 29 30  2  0  0  0  0
 33 27  1  0  0  0  0
M  END
>  <minimizedAffinity>
-6.62973738

>  <minimizedRMSD>
0.341654003

$$$$
