
 OpenBabel03272510183D

 33 36  0  0  0  0  0  0  0  0999 V2000
   37.4570   29.1690   50.8070 Br  0  0  0  0  0  0  0  0  0  0  0  0
   36.0320   29.2860   49.5420 C   0  0  0  0  0  0  0  0  0  0  0  0
   36.0180   30.3020   48.5850 C   0  0  0  0  0  0  0  0  0  0  0  0
   34.9550   30.3200   47.7060 C   0  0  0  0  0  0  0  0  0  0  0  0
   33.9230   29.3940   47.7290 C   0  0  0  0  0  0  0  0  0  0  0  0
   33.9720   28.4170   48.6770 C   0  0  0  0  0  0  0  0  0  0  0  0
   35.0220   28.3760   49.5690 C   0  0  0  0  0  0  0  0  0  0  0  0
   34.8870   31.0900   46.9330 H   0  0  0  0  0  0  0  0  0  0  0  0
   33.2160   27.6480   48.7800 H   0  0  0  0  0  0  0  0  0  0  0  0
   35.0570   27.5950   50.3230 H   0  0  0  0  0  0  0  0  0  0  0  0
   32.8140   29.4330   46.7920 C   0  0  0  0  0  0  0  0  0  0  0  0
   31.9070   28.3990   46.6190 C   0  0  0  0  0  0  0  0  0  0  0  0
   30.8570   28.4620   45.7170 C   0  0  0  0  0  0  0  0  0  0  0  0
   30.7050   29.5620   44.9800 N   0  0  0  0  0  0  0  0  0  0  0  0
   31.5810   30.5840   45.1340 C   0  0  0  0  0  0  0  0  0  0  0  0
   32.5770   30.4890   46.0100 N   0  0  0  0  0  0  0  0  0  0  0  0
   32.0280   27.4950   47.2220 H   0  0  0  0  0  0  0  0  0  0  0  0
   30.1850   27.6160   45.6320 H   0  0  0  0  0  0  0  0  0  0  0  0
   31.4130   31.7550   44.3440 N   0  0  0  0  0  0  0  0  0  0  0  0
   31.1280   31.7610   42.9010 C   0  0  0  0  0  2  0  0  0  0  0  0
   31.4980   33.1610   42.4410 C   0  0  0  0  0  2  0  0  0  0  0  0
   31.0070   33.9580   43.6560 C   0  0  0  0  0  2  0  0  0  0  0  0
   31.4890   33.1310   44.7960 C   0  0  0  0  0  3  0  0  0  0  0  0
   30.8750   33.3400   45.6840 H   0  0  0  0  0  0  0  0  0  0  0  0
   38.0330   33.2020   49.4740 C   0  0  0  0  0  0  0  0  0  0  0  0
   39.0630   33.1960   48.4760 C   0  0  0  0  0  0  0  0  0  0  0  0
   39.0390   32.1900   47.5170 C   0  0  0  0  0  0  0  0  0  0  0  0
   38.0390   31.2560   47.5680 N   0  0  0  0  0  0  0  0  0  0  0  0
   37.0780   31.2900   48.5270 C   0  0  0  0  0  0  0  0  0  0  0  0
   37.0780   32.2640   49.4790 N   0  0  0  0  0  0  0  0  0  0  0  0
   37.9790   33.9460   50.2520 H   0  0  0  0  0  0  0  0  0  0  0  0
   39.8060   33.9830   48.5280 H   0  0  0  0  0  0  0  0  0  0  0  0
   39.7970   32.1760   46.7720 H   0  0  0  0  0  0  0  0  0  0  0  0
  2  7  1  0  0  0  0
  2  1  1  0  0  0  0
  3  2  2  0  0  0  0
  4  5  2  0  0  0  0
  4  3  1  0  0  0  0
  5  6  1  0  0  0  0
  6  9  1  0  0  0  0
  6  7  2  0  0  0  0
  7 10  1  0  0  0  0
  8  4  1  0  0  0  0
 11  5  1  0  0  0  0
 12 11  1  0  0  0  0
 12 17  1  0  0  0  0
 13 12  2  0  0  0  0
 14 15  2  0  0  0  0
 14 13  1  0  0  0  0
 15 16  1  0  0  0  0
 16 11  2  0  0  0  0
 18 13  1  0  0  0  0
 19 23  1  0  0  0  0
 19 15  1  0  0  0  0
 20 19  1  0  0  0  0
 21 20  1  0  0  0  0
 21 22  1  0  0  0  0
 22 23  1  0  0  0  0
 23 24  1  0  0  0  0
 25 30  1  0  0  0  0
 25 31  1  0  0  0  0
 26 32  1  0  0  0  0
 26 25  2  0  0  0  0
 27 28  2  0  0  0  0
 27 26  1  0  0  0  0
 28 29  1  0  0  0  0
 29  3  1  0  0  0  0
 29 30  2  0  0  0  0
 33 27  1  0  0  0  0
M  END
>  <minimizedAffinity>
-6.63096189

>  <minimizedRMSD>
0.409207135

$$$$
