
 OpenBabel03272500103D

 18 19  0  0  0  0  0  0  0  0999 V2000
   35.4810   29.2260   50.5120 C   0  0  0  0  0  0  0  0  0  0  0  0
   36.1780   30.1470   49.7100 C   0  0  0  0  0  0  0  0  0  0  0  0
   35.8900   30.1910   48.3480 C   0  0  0  0  0  0  0  0  0  0  0  0
   34.9360   29.3280   47.8620 N   0  0  0  0  0  0  0  0  0  0  0  0
   34.2940   28.4660   48.6540 C   0  0  0  0  0  0  0  0  0  0  0  0
   34.5550   28.4070   49.9640 N   0  0  0  0  0  0  0  0  0  0  0  0
   35.6390   29.1230   51.5720 H   0  0  0  0  0  0  0  0  0  0  0  0
   36.4260   30.8980   47.7290 H   0  0  0  0  0  0  0  0  0  0  0  0
   33.3220   27.6090   48.0680 N   0  0  0  0  0  0  0  0  0  0  0  0
   31.9160   27.6160   48.4800 C   0  0  0  0  0  0  0  0  0  0  0  0
   31.3150   26.3680   47.8640 C   0  0  0  0  0  0  0  0  0  0  0  0
   32.5450   25.5310   47.5390 C   0  0  0  0  0  0  0  0  0  0  0  0
   33.4850   26.6200   47.0190 C   0  0  0  0  0  0  0  0  0  0  0  0
   33.1000   27.0270   46.0820 H   0  0  0  0  0  0  0  0  0  0  0  0
   37.1920   31.0300   50.3610 C   0  0  0  0  0  0  0  0  0  0  0  0
   38.3890   31.0270   49.6530 F   0  0  0  0  0  0  0  0  0  0  0  0
   36.7040   32.3260   50.3330 F   0  0  0  0  0  0  0  0  0  0  0  0
   37.4470   30.6830   51.6650 F   0  0  0  0  0  0  0  0  0  0  0  0
  1  7  1  0  0  0  0
  2 15  1  0  0  0  0
  2  1  2  0  0  0  0
  3  2  1  0  0  0  0
  4  3  2  0  0  0  0
  4  5  1  0  0  0  0
  5  6  2  0  0  0  0
  6  1  1  0  0  0  0
  8  3  1  0  0  0  0
  9 10  1  0  0  0  0
  9  5  1  0  0  0  0
 11 10  1  0  0  0  0
 12 11  1  0  0  0  0
 13 12  1  0  0  0  0
 13  9  1  0  0  0  0
 14 13  1  0  0  0  0
 15 18  1  0  0  0  0
 16 15  1  0  0  0  0
 17 15  1  0  0  0  0
M  END
>  <minimizedAffinity>
-5.08275223

>  <minimizedRMSD>
0.70741272

$$$$
