
 OpenBabel03272510183D

 33 36  0  0  0  0  0  0  0  0999 V2000
   37.4630   29.1780   50.8240 Br  0  0  0  0  0  0  0  0  0  0  0  0
   36.0370   29.2860   49.5600 C   0  0  0  0  0  0  0  0  0  0  0  0
   36.0200   30.2970   48.5980 C   0  0  0  0  0  0  0  0  0  0  0  0
   34.9570   30.3080   47.7190 C   0  0  0  0  0  0  0  0  0  0  0  0
   33.9270   29.3810   47.7480 C   0  0  0  0  0  0  0  0  0  0  0  0
   33.9780   28.4090   48.7010 C   0  0  0  0  0  0  0  0  0  0  0  0
   35.0290   28.3740   49.5920 C   0  0  0  0  0  0  0  0  0  0  0  0
   34.8870   31.0750   46.9430 H   0  0  0  0  0  0  0  0  0  0  0  0
   33.2240   27.6380   48.8080 H   0  0  0  0  0  0  0  0  0  0  0  0
   35.0660   27.5970   50.3500 H   0  0  0  0  0  0  0  0  0  0  0  0
   32.8170   29.4130   46.8120 C   0  0  0  0  0  0  0  0  0  0  0  0
   31.8930   28.3890   46.6670 C   0  0  0  0  0  0  0  0  0  0  0  0
   30.8430   28.4450   45.7650 C   0  0  0  0  0  0  0  0  0  0  0  0
   30.7070   29.5290   44.9990 N   0  0  0  0  0  0  0  0  0  0  0  0
   31.6000   30.5400   45.1250 C   0  0  0  0  0  0  0  0  0  0  0  0
   32.5950   30.4510   46.0020 N   0  0  0  0  0  0  0  0  0  0  0  0
   32.0010   27.5000   47.2930 H   0  0  0  0  0  0  0  0  0  0  0  0
   30.1570   27.6090   45.7030 H   0  0  0  0  0  0  0  0  0  0  0  0
   31.4490   31.6930   44.3050 N   0  0  0  0  0  0  0  0  0  0  0  0
   31.5590   33.0820   44.7790 C   0  0  0  0  0  2  0  0  0  0  0  0
   30.8780   33.9100   43.7020 C   0  0  0  0  0  2  0  0  0  0  0  0
   31.3460   33.1380   42.4620 C   0  0  0  0  0  2  0  0  0  0  0  0
   31.1660   31.7210   42.8830 C   0  0  0  0  0  3  0  0  0  0  0  0
   31.8270   31.0760   42.2870 H   0  0  0  0  0  0  0  0  0  0  0  0
   38.0310   33.2040   49.4720 C   0  0  0  0  0  0  0  0  0  0  0  0
   39.0600   33.1960   48.4720 C   0  0  0  0  0  0  0  0  0  0  0  0
   39.0360   32.1860   47.5170 C   0  0  0  0  0  0  0  0  0  0  0  0
   38.0380   31.2500   47.5730 N   0  0  0  0  0  0  0  0  0  0  0  0
   37.0790   31.2860   48.5340 C   0  0  0  0  0  0  0  0  0  0  0  0
   37.0780   32.2650   49.4820 N   0  0  0  0  0  0  0  0  0  0  0  0
   37.9780   33.9510   50.2470 H   0  0  0  0  0  0  0  0  0  0  0  0
   39.8010   33.9840   48.5190 H   0  0  0  0  0  0  0  0  0  0  0  0
   39.7930   32.1700   46.7710 H   0  0  0  0  0  0  0  0  0  0  0  0
  2  7  1  0  0  0  0
  2  1  1  0  0  0  0
  3  2  2  0  0  0  0
  4  5  2  0  0  0  0
  4  3  1  0  0  0  0
  5  6  1  0  0  0  0
  6  9  1  0  0  0  0
  6  7  2  0  0  0  0
  7 10  1  0  0  0  0
  8  4  1  0  0  0  0
 11  5  1  0  0  0  0
 12 11  1  0  0  0  0
 12 17  1  0  0  0  0
 13 12  2  0  0  0  0
 14 15  2  0  0  0  0
 14 13  1  0  0  0  0
 15 16  1  0  0  0  0
 16 11  2  0  0  0  0
 18 13  1  0  0  0  0
 19 20  1  0  0  0  0
 19 15  1  0  0  0  0
 21 20  1  0  0  0  0
 22 23  1  0  0  0  0
 22 21  1  0  0  0  0
 23 19  1  0  0  0  0
 24 23  1  0  0  0  0
 25 30  1  0  0  0  0
 25 31  1  0  0  0  0
 26 32  1  0  0  0  0
 26 25  2  0  0  0  0
 27 28  2  0  0  0  0
 27 26  1  0  0  0  0
 28 29  1  0  0  0  0
 29  3  1  0  0  0  0
 29 30  2  0  0  0  0
 33 27  1  0  0  0  0
M  END
>  <minimizedAffinity>
-6.61370039

>  <minimizedRMSD>
0.437596858

$$$$
