
 OpenBabel03272510193D

 33 36  0  0  0  0  0  0  0  0999 V2000
   37.4390   29.1650   50.8220 Br  0  0  0  0  0  0  0  0  0  0  0  0
   36.0320   29.3040   49.5380 C   0  0  0  0  0  0  0  0  0  0  0  0
   36.0290   30.3390   48.6040 C   0  0  0  0  0  0  0  0  0  0  0  0
   34.9790   30.3720   47.7090 C   0  0  0  0  0  0  0  0  0  0  0  0
   33.9510   29.4430   47.6970 C   0  0  0  0  0  0  0  0  0  0  0  0
   33.9890   28.4460   48.6250 C   0  0  0  0  0  0  0  0  0  0  0  0
   35.0270   28.3890   49.5310 C   0  0  0  0  0  0  0  0  0  0  0  0
   34.9200   31.1590   46.9520 H   0  0  0  0  0  0  0  0  0  0  0  0
   33.2350   27.6710   48.6990 H   0  0  0  0  0  0  0  0  0  0  0  0
   35.0530   27.5920   50.2680 H   0  0  0  0  0  0  0  0  0  0  0  0
   32.8560   29.4970   46.7450 C   0  0  0  0  0  0  0  0  0  0  0  0
   31.9350   28.4770   46.5600 C   0  0  0  0  0  0  0  0  0  0  0  0
   30.8990   28.5550   45.6440 C   0  0  0  0  0  0  0  0  0  0  0  0
   30.7750   29.6570   44.9030 N   0  0  0  0  0  0  0  0  0  0  0  0
   31.6640   30.6650   45.0680 C   0  0  0  0  0  0  0  0  0  0  0  0
   32.6460   30.5550   45.9580 N   0  0  0  0  0  0  0  0  0  0  0  0
   32.0340   27.5730   47.1660 H   0  0  0  0  0  0  0  0  0  0  0  0
   30.2150   27.7200   45.5510 H   0  0  0  0  0  0  0  0  0  0  0  0
   31.5250   31.8380   44.2740 N   0  0  0  0  0  0  0  0  0  0  0  0
   31.5750   31.8670   42.8040 C   0  0  0  0  0  2  0  0  0  0  0  0
   31.8510   33.3210   42.4570 C   0  0  0  0  0  2  0  0  0  0  0  0
   30.9980   33.9990   43.5370 C   0  0  0  0  0  2  0  0  0  0  0  0
   31.3160   33.1920   44.7470 C   0  0  0  0  0  3  0  0  0  0  0  0
   30.4960   33.2860   45.4740 H   0  0  0  0  0  0  0  0  0  0  0  0
   38.0050   33.2410   49.5710 C   0  0  0  0  0  0  0  0  0  0  0  0
   39.0630   33.2470   48.6010 C   0  0  0  0  0  0  0  0  0  0  0  0
   39.0700   32.2490   47.6340 C   0  0  0  0  0  0  0  0  0  0  0  0
   38.0730   31.3100   47.6500 N   0  0  0  0  0  0  0  0  0  0  0  0
   37.0860   31.3320   48.5830 C   0  0  0  0  0  0  0  0  0  0  0  0
   37.0550   32.2990   49.5410 N   0  0  0  0  0  0  0  0  0  0  0  0
   37.9270   33.9790   50.3530 H   0  0  0  0  0  0  0  0  0  0  0  0
   39.8000   34.0370   48.6800 H   0  0  0  0  0  0  0  0  0  0  0  0
   39.8480   32.2440   46.9110 H   0  0  0  0  0  0  0  0  0  0  0  0
  2  1  1  0  0  0  0
  3  2  2  0  0  0  0
  4  3  1  0  0  0  0
  5  4  2  0  0  0  0
  5  6  1  0  0  0  0
  6  9  1  0  0  0  0
  6  7  2  0  0  0  0
  7  2  1  0  0  0  0
  7 10  1  0  0  0  0
  8  4  1  0  0  0  0
 11  5  1  0  0  0  0
 12 11  1  0  0  0  0
 12 17  1  0  0  0  0
 13 12  2  0  0  0  0
 14 15  2  0  0  0  0
 14 13  1  0  0  0  0
 15 16  1  0  0  0  0
 16 11  2  0  0  0  0
 18 13  1  0  0  0  0
 19 23  1  0  0  0  0
 19 15  1  0  0  0  0
 20 19  1  0  0  0  0
 21 20  1  0  0  0  0
 21 22  1  0  0  0  0
 22 23  1  0  0  0  0
 23 24  1  0  0  0  0
 25 31  1  0  0  0  0
 26 32  1  0  0  0  0
 26 25  2  0  0  0  0
 27 28  2  0  0  0  0
 27 26  1  0  0  0  0
 28 29  1  0  0  0  0
 29  3  1  0  0  0  0
 29 30  2  0  0  0  0
 30 25  1  0  0  0  0
 33 27  1  0  0  0  0
M  END
>  <minimizedAffinity>
-6.59890175

>  <minimizedRMSD>
0.491813302

$$$$
