
 OpenBabel03272510193D

 33 36  0  0  0  0  0  0  0  0999 V2000
   37.4450   29.1690   50.8350 Br  0  0  0  0  0  0  0  0  0  0  0  0
   36.0420   29.3100   49.5470 C   0  0  0  0  0  0  0  0  0  0  0  0
   36.0420   30.3480   48.6150 C   0  0  0  0  0  0  0  0  0  0  0  0
   34.9950   30.3820   47.7170 C   0  0  0  0  0  0  0  0  0  0  0  0
   33.9670   29.4530   47.7000 C   0  0  0  0  0  0  0  0  0  0  0  0
   34.0030   28.4540   48.6250 C   0  0  0  0  0  0  0  0  0  0  0  0
   35.0370   28.3950   49.5350 C   0  0  0  0  0  0  0  0  0  0  0  0
   34.9380   31.1700   46.9610 H   0  0  0  0  0  0  0  0  0  0  0  0
   33.2490   27.6790   48.6950 H   0  0  0  0  0  0  0  0  0  0  0  0
   35.0610   27.5970   50.2700 H   0  0  0  0  0  0  0  0  0  0  0  0
   32.8750   29.5090   46.7430 C   0  0  0  0  0  0  0  0  0  0  0  0
   31.9530   28.4900   46.5550 C   0  0  0  0  0  0  0  0  0  0  0  0
   30.9210   28.5700   45.6360 C   0  0  0  0  0  0  0  0  0  0  0  0
   30.8000   29.6720   44.8950 N   0  0  0  0  0  0  0  0  0  0  0  0
   31.6910   30.6790   45.0630 C   0  0  0  0  0  0  0  0  0  0  0  0
   32.6700   30.5680   45.9560 N   0  0  0  0  0  0  0  0  0  0  0  0
   32.0490   27.5860   47.1610 H   0  0  0  0  0  0  0  0  0  0  0  0
   30.2350   27.7360   45.5400 H   0  0  0  0  0  0  0  0  0  0  0  0
   31.5560   31.8520   44.2700 N   0  0  0  0  0  0  0  0  0  0  0  0
   30.5380   32.8940   44.4750 C   0  0  0  0  0  2  0  0  0  0  0  0
   30.4920   33.6540   43.1590 C   0  0  0  0  0  2  0  0  0  0  0  0
   31.9870   33.6370   42.8130 C   0  0  0  0  0  2  0  0  0  0  0  0
   32.3730   32.2360   43.1360 C   0  0  0  0  0  3  0  0  0  0  0  0
   33.4550   32.1930   43.3330 H   0  0  0  0  0  0  0  0  0  0  0  0
   38.0080   33.2540   49.5880 C   0  0  0  0  0  0  0  0  0  0  0  0
   39.0750   33.2570   48.6280 C   0  0  0  0  0  0  0  0  0  0  0  0
   39.0910   32.2540   47.6650 C   0  0  0  0  0  0  0  0  0  0  0  0
   38.0950   31.3150   47.6760 N   0  0  0  0  0  0  0  0  0  0  0  0
   37.0990   31.3410   48.6000 C   0  0  0  0  0  0  0  0  0  0  0  0
   37.0590   32.3120   49.5540 N   0  0  0  0  0  0  0  0  0  0  0  0
   37.9230   33.9950   50.3660 H   0  0  0  0  0  0  0  0  0  0  0  0
   39.8110   34.0470   48.7100 H   0  0  0  0  0  0  0  0  0  0  0  0
   39.8760   32.2460   46.9490 H   0  0  0  0  0  0  0  0  0  0  0  0
  2  1  1  0  0  0  0
  3  2  2  0  0  0  0
  4  3  1  0  0  0  0
  5  4  2  0  0  0  0
  5  6  1  0  0  0  0
  6  9  1  0  0  0  0
  6  7  2  0  0  0  0
  7  2  1  0  0  0  0
  7 10  1  0  0  0  0
  8  4  1  0  0  0  0
 11  5  1  0  0  0  0
 12 11  1  0  0  0  0
 12 17  1  0  0  0  0
 13 12  2  0  0  0  0
 14 15  2  0  0  0  0
 14 13  1  0  0  0  0
 15 16  1  0  0  0  0
 16 11  2  0  0  0  0
 18 13  1  0  0  0  0
 19 20  1  0  0  0  0
 19 15  1  0  0  0  0
 21 20  1  0  0  0  0
 22 23  1  0  0  0  0
 22 21  1  0  0  0  0
 23 24  1  0  0  0  0
 23 19  1  0  0  0  0
 25 31  1  0  0  0  0
 26 32  1  0  0  0  0
 26 25  2  0  0  0  0
 27 28  2  0  0  0  0
 27 26  1  0  0  0  0
 28 29  1  0  0  0  0
 29  3  1  0  0  0  0
 29 30  2  0  0  0  0
 30 25  1  0  0  0  0
 33 27  1  0  0  0  0
M  END
>  <minimizedAffinity>
-6.54374409

>  <minimizedRMSD>
0.509821236

$$$$
