
 OpenBabel03272504313D

 37 40  0  0  0  0  0  0  0  0999 V2000
   35.1160   29.6460   47.5500 C   0  0  0  0  0  0  0  0  0  0  0  0
   35.2370   30.0950   46.2400 C   0  0  0  0  0  0  0  0  0  0  0  0
   34.1990   29.9220   45.3440 C   0  0  0  0  0  0  0  0  0  0  0  0
   33.0700   29.2970   45.7990 N   0  0  0  0  0  0  0  0  0  0  0  0
   32.9800   28.8680   47.0870 C   0  0  0  0  0  0  0  0  0  0  0  0
   33.9920   29.0390   47.9560 N   0  0  0  0  0  0  0  0  0  0  0  0
   36.1680   30.5710   45.9930 H   0  0  0  0  0  0  0  0  0  0  0  0
   34.2910   30.2660   44.3390 H   0  0  0  0  0  0  0  0  0  0  0  0
   36.1590   29.8000   48.5160 N   0  0  0  0  0  0  0  0  0  0  0  0
   36.2600   28.9330   49.6770 C   0  0  0  0  0  0  0  0  0  0  0  0
   36.5760   29.6270   50.9540 C   0  0  0  0  0  0  0  0  0  0  0  0
   37.2920   30.8480   50.8870 N   0  0  0  0  0  0  0  0  0  0  0  0
   36.9740   31.6530   49.7030 C   0  0  0  0  0  0  0  0  0  0  0  0
   37.2060   30.7630   48.5110 C   0  0  0  0  0  0  0  0  0  0  0  0
   35.2610   28.4460   49.8040 H   0  0  0  0  0  0  0  0  0  0  0  0
   36.9780   28.1370   49.4090 H   0  0  0  0  0  0  0  0  0  0  0  0
   37.1900   28.9210   51.5830 H   0  0  0  0  0  0  0  0  0  0  0  0
   35.6630   29.7950   51.5670 H   0  0  0  0  0  0  0  0  0  0  0  0
   38.3210   30.7740   50.9720 H   0  0  0  0  0  0  0  0  0  0  0  0
   37.6290   32.5390   49.7070 H   0  0  0  0  0  0  0  0  0  0  0  0
   35.8940   31.9680   49.7720 H   0  0  0  0  0  0  0  0  0  0  0  0
   37.0970   31.4030   47.5950 H   0  0  0  0  0  0  0  0  0  0  0  0
   38.2030   30.3150   48.5930 H   0  0  0  0  0  0  0  0  0  0  0  0
   31.7530   28.2050   47.5290 C   0  0  0  0  0  0  0  0  0  0  0  0
   31.8000   27.1010   48.3300 C   0  0  0  0  0  0  0  0  0  0  0  0
   30.6610   26.4540   48.7630 C   0  0  0  0  0  0  0  0  0  0  0  0
   29.4840   26.9730   48.3500 N   0  0  0  0  0  0  0  0  0  0  0  0
   29.4360   28.0550   47.5650 C   0  0  0  0  0  0  0  0  0  0  0  0
   30.5720   28.6710   47.1530 N   0  0  0  0  0  0  0  0  0  0  0  0
   32.7730   26.7320   48.6290 H   0  0  0  0  0  0  0  0  0  0  0  0
   30.6770   25.5790   49.3980 H   0  0  0  0  0  0  0  0  0  0  0  0
   28.2150   28.6290   47.1100 N   0  0  0  0  0  0  0  0  0  0  0  0
   27.8900   30.0080   46.7850 C   0  0  0  0  0  0  0  0  0  0  0  0
   26.6420   30.1940   47.6560 C   0  0  0  0  0  0  0  0  0  0  0  0
   26.0810   28.7820   47.8410 C   0  0  0  0  0  0  0  0  0  0  0  0
   26.9330   28.0000   46.8360 C   0  0  0  0  0  0  0  0  0  0  0  0
   26.5410   28.3060   45.8420 H   0  0  0  0  0  0  0  0  0  0  0  0
  1  6  1  0  0  0  0
  1  9  1  0  0  0  0
  2  1  2  0  0  0  0
  3  4  2  0  0  0  0
  3  2  1  0  0  0  0
  4  5  1  0  0  0  0
  5 24  1  0  0  0  0
  5  6  2  0  0  0  0
  7  2  1  0  0  0  0
  8  3  1  0  0  0  0
  9 10  1  0  0  0  0
 10 15  1  0  0  0  0
 10 11  1  0  0  0  0
 11 18  1  0  0  0  0
 11 17  1  0  0  0  0
 12 11  1  0  0  0  0
 12 19  1  0  0  0  0
 13 20  1  0  0  0  0
 13 21  1  0  0  0  0
 13 12  1  0  0  0  0
 14  9  1  0  0  0  0
 14 23  1  0  0  0  0
 14 13  1  0  0  0  0
 16 10  1  0  0  0  0
 22 14  1  0  0  0  0
 24 25  1  0  0  0  0
 25 30  1  0  0  0  0
 25 26  2  0  0  0  0
 26 31  1  0  0  0  0
 27 26  1  0  0  0  0
 28 27  2  0  0  0  0
 29 24  2  0  0  0  0
 29 28  1  0  0  0  0
 32 28  1  0  0  0  0
 33 32  1  0  0  0  0
 33 34  1  0  0  0  0
 34 35  1  0  0  0  0
 36 32  1  0  0  0  0
 36 35  1  0  0  0  0
 37 36  1  0  0  0  0
M  END
>  <minimizedAffinity>
-5.65436029

>  <minimizedRMSD>
0.451095223

$$$$
