
 OpenBabel03272510003D

 18 19  0  0  0  0  0  0  0  0999 V2000
   37.8560   32.9150   49.6790 C   0  0  0  0  0  0  0  0  0  0  0  0
   38.5850   32.9330   48.4900 C   0  0  0  0  0  0  0  0  0  0  0  0
   38.2830   31.9790   47.5270 C   0  0  0  0  0  0  0  0  0  0  0  0
   37.2960   31.0800   47.7950 N   0  0  0  0  0  0  0  0  0  0  0  0
   36.6120   31.0890   48.9510 C   0  0  0  0  0  0  0  0  0  0  0  0
   36.8950   32.0080   49.8900 N   0  0  0  0  0  0  0  0  0  0  0  0
   38.1000   33.6700   50.4320 H   0  0  0  0  0  0  0  0  0  0  0  0
   39.3720   33.6450   48.2690 H   0  0  0  0  0  0  0  0  0  0  0  0
   38.9220   31.8650   46.2850 N   0  0  0  0  0  0  0  0  0  0  0  0
   40.0820   31.1210   45.8340 C   0  0  0  0  0  0  0  0  0  0  0  0
   40.7560   31.9540   44.7520 C   0  0  0  0  0  0  0  0  0  0  0  0
   39.8810   33.2070   44.7480 C   0  0  0  0  0  0  0  0  0  0  0  0
   38.5370   32.5260   45.0370 C   0  0  0  0  0  0  0  0  0  0  0  0
   38.3510   31.7490   44.2500 H   0  0  0  0  0  0  0  0  0  0  0  0
   35.5510   30.0660   49.1520 C   0  0  0  0  0  0  0  0  0  0  0  0
   35.9880   28.9710   49.8610 F   0  0  0  0  0  0  0  0  0  0  0  0
   34.4720   30.5860   49.8500 F   0  0  0  0  0  0  0  0  0  0  0  0
   35.0370   29.6060   47.9530 F   0  0  0  0  0  0  0  0  0  0  0  0
  1  6  1  0  0  0  0
  1  7  1  0  0  0  0
  2  1  2  0  0  0  0
  3  4  2  0  0  0  0
  3  2  1  0  0  0  0
  4  5  1  0  0  0  0
  5 15  1  0  0  0  0
  5  6  2  0  0  0  0
  8  2  1  0  0  0  0
  9  3  1  0  0  0  0
 10  9  1  0  0  0  0
 11 10  1  0  0  0  0
 12 11  1  0  0  0  0
 12 13  1  0  0  0  0
 13  9  1  0  0  0  0
 14 13  1  0  0  0  0
 15 17  1  0  0  0  0
 15 16  1  0  0  0  0
 18 15  1  0  0  0  0
M  END
>  <minimizedAffinity>
-5.47618628

>  <minimizedRMSD>
1.96702051

$$$$
