
 OpenBabel03262523153D

 36 39  0  0  0  0  0  0  0  0999 V2000
   34.7640   29.1230   48.4020 C   0  0  0  0  0  0  0  0  0  0  0  0
   34.4270   27.8600   48.8540 C   0  0  0  0  0  0  0  0  0  0  0  0
   33.3230   27.3300   48.2320 C   0  0  0  0  0  0  0  0  0  0  0  0
   32.6120   27.9840   47.2500 C   0  0  0  0  0  0  0  0  0  0  0  0
   33.0260   29.2320   46.8730 C   0  0  0  0  0  0  0  0  0  0  0  0
   34.1020   29.7940   47.4540 N   0  0  0  0  0  0  0  0  0  0  0  0
   34.9810   27.3350   49.6270 H   0  0  0  0  0  0  0  0  0  0  0  0
   33.0030   26.3260   48.5450 H   0  0  0  0  0  0  0  0  0  0  0  0
   31.7660   27.4620   46.8300 H   0  0  0  0  0  0  0  0  0  0  0  0
   37.4210   30.0880   50.7540 C   0  0  0  0  0  0  0  0  0  0  0  0
   38.1430   31.0550   50.0430 C   0  0  0  0  0  0  0  0  0  0  0  0
   37.7000   31.3560   48.7720 C   0  0  0  0  0  0  0  0  0  0  0  0
   36.6070   30.7050   48.2940 N   0  0  0  0  0  0  0  0  0  0  0  0
   35.9310   29.7830   48.9920 C   0  0  0  0  0  0  0  0  0  0  0  0
   36.3500   29.4760   50.2380 N   0  0  0  0  0  0  0  0  0  0  0  0
   38.9900   31.5150   50.4980 H   0  0  0  0  0  0  0  0  0  0  0  0
   38.3760   32.3250   47.9840 N   0  0  0  0  0  0  0  0  0  0  0  0
   38.4640   32.3350   46.5370 C   0  0  0  0  0  0  0  0  0  0  0  0
   39.9420   32.7230   46.3860 C   0  0  0  0  0  0  0  0  0  0  0  0
   39.9920   33.9220   47.3090 C   0  0  0  0  0  0  0  0  0  0  0  0
   39.1060   33.4860   48.4540 C   0  0  0  0  0  0  0  0  0  0  0  0
   38.4350   34.2810   48.8250 H   0  0  0  0  0  0  0  0  0  0  0  0
   37.7900   29.6870   52.1000 N   0  0  0  0  0  0  0  0  0  0  0  0
   37.0710   29.4840   52.8130 H   0  0  0  0  0  0  0  0  0  0  0  0
   38.8070   29.6160   52.3070 H   0  0  0  0  0  0  0  0  0  0  0  0
   30.0020   29.1370   46.9690 Cl  0  0  0  0  0  0  0  0  0  0  0  0
   30.9490   30.0020   45.7980 C   0  0  0  0  0  0  0  0  0  0  0  0
   32.3180   29.9790   45.8450 C   0  0  0  0  0  0  0  0  0  0  0  0
   32.9370   30.7170   44.8450 C   0  0  0  0  0  0  0  0  0  0  0  0
   32.2810   31.4230   43.8760 C   0  0  0  0  0  0  0  0  0  0  0  0
   30.9020   31.4200   43.8640 C   0  0  0  0  0  0  0  0  0  0  0  0
   30.0310   32.3110   42.6420 Cl  0  0  0  0  0  0  0  0  0  0  0  0
   30.2540   30.7100   44.8250 C   0  0  0  0  0  0  0  0  0  0  0  0
   34.0350   30.7290   44.8400 H   0  0  0  0  0  0  0  0  0  0  0  0
   32.8600   31.9640   43.1440 H   0  0  0  0  0  0  0  0  0  0  0  0
   29.1670   30.7330   44.7840 H   0  0  0  0  0  0  0  0  0  0  0  0
  1  2  1  0  0  0  0
  1 14  1  0  0  0  0
  2  7  1  0  0  0  0
  3  8  1  0  0  0  0
  3  2  2  0  0  0  0
  4  3  1  0  0  0  0
  5  4  2  0  0  0  0
  5  6  1  0  0  0  0
  6  1  2  0  0  0  0
  9  4  1  0  0  0  0
 10 23  1  0  0  0  0
 11 16  1  0  0  0  0
 11 10  2  0  0  0  0
 12 11  1  0  0  0  0
 13 12  2  0  0  0  0
 13 14  1  0  0  0  0
 14 15  2  0  0  0  0
 15 10  1  0  0  0  0
 17 21  1  0  0  0  0
 17 12  1  0  0  0  0
 18 17  1  0  0  0  0
 19 18  1  0  0  0  0
 19 20  1  0  0  0  0
 20 21  1  0  0  0  0
 21 22  1  0  0  0  0
 23 25  1  0  0  0  0
 23 24  1  0  0  0  0
 27 28  1  0  0  0  0
 27 26  1  0  0  0  0
 28  5  1  0  0  0  0
 29 28  2  0  0  0  0
 30 29  1  0  0  0  0
 31 30  2  0  0  0  0
 31 33  1  0  0  0  0
 32 31  1  0  0  0  0
 33 27  2  0  0  0  0
 34 29  1  0  0  0  0
 35 30  1  0  0  0  0
 36 33  1  0  0  0  0
M  END
>  <minimizedAffinity>
-6.9893651

>  <minimizedRMSD>
0.318517923

$$$$
