
 OpenBabel03272505503D

 41 44  0  0  1  0  0  0  0  0999 V2000
   37.1360   29.2820   50.4590 C   0  0  0  0  0  0  0  0  0  0  0  0
   37.2540   30.6690   50.7380 C   0  0  0  0  0  0  0  0  0  0  0  0
   36.4980   31.5430   49.9560 C   0  0  0  0  0  0  0  0  0  0  0  0
   35.7040   31.0120   48.9850 N   0  0  0  0  0  0  0  0  0  0  0  0
   35.6230   29.6850   48.7540 C   0  0  0  0  0  0  0  0  0  0  0  0
   36.3340   28.8300   49.4860 N   0  0  0  0  0  0  0  0  0  0  0  0
   34.7750   29.2270   47.7310 N   0  0  0  0  0  0  0  0  0  0  0  0
   34.1510   27.8950   47.7780 C   0  0  0  0  0  0  0  0  0  0  0  0
   32.6750   28.0270   47.6290 C   0  0  0  0  0  0  0  0  0  0  0  0
   32.2120   29.3030   47.2550 N   0  0  0  0  0  0  0  0  0  0  0  0
   33.0210   29.9910   46.3010 C   0  0  0  0  0  0  0  0  0  0  0  0
   34.4550   30.0150   46.5730 C   0  0  2  0  0  0  0  0  0  0  0  0
   37.6880   28.5480   51.0200 H   0  0  0  0  0  0  0  0  0  0  0  0
   37.9090   30.9860   51.5270 H   0  0  0  0  0  0  0  0  0  0  0  0
   36.5650   32.6060   50.1440 H   0  0  0  0  0  0  0  0  0  0  0  0
   34.5450   27.3740   46.8680 H   0  0  0  0  0  0  0  0  0  0  0  0
   34.4720   27.3210   48.6610 H   0  0  0  0  0  0  0  0  0  0  0  0
   32.2700   27.2870   46.8920 H   0  0  0  0  0  0  0  0  0  0  0  0
   32.2220   27.7660   48.6060 H   0  0  0  0  0  0  0  0  0  0  0  0
   31.2220   29.2990   47.0120 H   0  0  0  0  0  0  0  0  0  0  0  0
   32.7840   29.2160   45.5080 H   0  0  0  0  0  0  0  0  0  0  0  0
   32.5620   30.9650   46.0540 H   0  0  0  0  0  0  0  0  0  0  0  0
   34.7940   31.0770   46.7300 H   0  0  0  0  0  0  0  0  0  0  0  0
   35.1840   29.5150   45.4480 N   0  0  2  0  0  0  0  0  0  0  0  0
   36.4310   30.2250   45.1980 C   0  0  0  0  0  0  0  0  0  0  0  0
   36.7140   30.0630   43.7190 C   0  0  0  0  0  0  0  0  0  0  0  0
   35.5990   29.2490   43.2160 C   0  0  0  0  0  0  0  0  0  0  0  0
   34.4660   29.4780   44.2320 C   0  0  2  0  0  0  0  0  0  0  0  0
   37.1820   29.6720   45.8250 H   0  0  0  0  0  0  0  0  0  0  0  0
   36.4600   31.2460   45.5670 H   0  0  0  0  0  0  0  0  0  0  0  0
   37.6970   29.5020   43.6530 H   0  0  0  0  0  0  0  0  0  0  0  0
   36.9490   31.0030   43.1960 H   0  0  0  0  0  0  0  0  0  0  0  0
   35.9420   28.1690   43.2360 H   0  0  0  0  0  0  0  0  0  0  0  0
   35.2520   29.4040   42.2000 H   0  0  0  0  0  0  0  0  0  0  0  0
   33.8970   28.5170   44.0340 H   0  0  0  0  0  0  0  0  0  0  0  0
   33.7940   30.6070   43.7900 N   0  0  2  0  0  0  0  0  0  0  0  0
   32.6300   30.3170   42.9770 C   0  0  0  0  0  0  0  0  0  0  0  0
   31.8950   31.6520   43.2030 C   0  0  0  0  0  0  0  0  0  0  0  0
   33.0860   32.6210   43.1540 C   0  0  0  0  0  0  0  0  0  0  0  0
   34.3200   31.6850   43.1130 C   0  0  0  0  0  0  0  0  0  0  0  0
   35.1000   32.3060   43.5710 H   0  0  0  0  0  0  0  0  0  0  0  0
  1  2  1  0  0  0  0
  1 13  1  0  0  0  0
  2 14  1  0  0  0  0
  3 15  1  0  0  0  0
  3  2  2  0  0  0  0
  4  3  1  0  0  0  0
  5  4  2  0  0  0  0
  5  6  1  0  0  0  0
  6  1  2  0  0  0  0
  7  8  1  0  0  0  0
  7  5  1  0  0  0  0
  8 17  1  0  0  0  0
  9  8  1  0  0  0  0
  9 19  1  0  0  0  0
 10  9  1  0  0  0  0
 11 12  1  0  0  0  0
 11 10  1  0  0  0  0
 12 23  1  1  0  0  0
 12  7  1  0  0  0  0
 16  8  1  0  0  0  0
 18  9  1  0  0  0  0
 20 10  1  0  0  0  0
 21 11  1  0  0  0  0
 22 11  1  0  0  0  0
 24 25  1  6  0  0  0
 24 12  1  0  0  0  0
 25 30  1  0  0  0  0
 25 29  1  0  0  0  0
 26 25  1  0  0  0  0
 27 33  1  0  0  0  0
 27 26  1  0  0  0  0
 27 28  1  0  0  0  0
 28 35  1  6  0  0  0
 28 24  1  0  0  0  0
 31 26  1  0  0  0  0
 32 26  1  0  0  0  0
 34 27  1  0  0  0  0
 36 37  1  6  0  0  0
 36 28  1  0  0  0  0
 37 38  1  0  0  0  0
 39 38  1  0  0  0  0
 40 39  1  0  0  0  0
 40 41  1  0  0  0  0
 40 36  1  0  0  0  0
M  END
>  <minimizedAffinity>
-4.76713848

>  <minimizedRMSD>
0.2246387

$$$$
