
 OpenBabel03272510033D

 34 36  0  0  0  0  0  0  0  0999 V2000
   35.2750   29.8850   45.4110 C   0  0  0  0  0  0  0  0  0  0  0  0
   35.1020   29.7320   46.7490 C   0  0  0  0  0  0  0  0  0  0  0  0
   33.9480   29.1250   47.2340 C   0  0  0  0  0  0  0  0  0  0  0  0
   32.9480   28.6650   46.3960 C   0  0  0  0  0  0  0  0  0  0  0  0
   33.0870   28.8070   45.0480 C   0  0  0  0  0  0  0  0  0  0  0  0
   34.2360   29.4060   44.6000 C   0  0  0  0  0  0  0  0  0  0  0  0
   33.8400   29.0130   48.3220 H   0  0  0  0  0  0  0  0  0  0  0  0
   32.1020   28.2110   46.8820 H   0  0  0  0  0  0  0  0  0  0  0  0
   32.2850   28.4360   44.4350 H   0  0  0  0  0  0  0  0  0  0  0  0
   34.2290   29.4650   43.5040 H   0  0  0  0  0  0  0  0  0  0  0  0
   37.7540   31.7980   48.2370 C   0  0  0  0  0  0  0  0  0  0  0  0
   36.8020   31.3060   47.3560 C   0  0  0  0  0  0  0  0  0  0  0  0
   36.0620   30.2130   47.6850 C   0  0  0  0  0  0  0  0  0  0  0  0
   36.2990   29.6440   48.9000 N   0  0  0  0  0  0  0  0  0  0  0  0
   37.2130   30.1190   49.7540 C   0  0  0  0  0  0  0  0  0  0  0  0
   37.9340   31.1890   49.4150 N   0  0  0  0  0  0  0  0  0  0  0  0
   38.4200   32.6420   48.1340 H   0  0  0  0  0  0  0  0  0  0  0  0
   36.8360   31.9800   46.5350 H   0  0  0  0  0  0  0  0  0  0  0  0
   37.3160   29.4410   51.0740 C   0  0  0  0  0  0  0  0  0  0  0  0
   37.7630   30.2970   52.0630 F   0  0  0  0  0  0  0  0  0  0  0  0
   35.9800   29.1200   51.5320 F   0  0  0  0  0  0  0  0  0  0  0  0
   37.9380   28.2840   51.1120 F   0  0  0  0  0  0  0  0  0  0  0  0
   36.6730   30.5800   44.6920 S   0  0  0  0  0  0  0  0  0  0  0  0
   36.3190   31.7840   43.8920 O   0  0  0  0  0  0  0  0  0  0  0  0
   36.8140   29.6280   43.5240 O   0  0  0  0  0  0  0  0  0  0  0  0
   38.2910   30.2730   45.0310 C   0  0  0  0  0  0  0  0  0  0  0  0
   38.5780   29.2110   44.9200 H   0  0  0  0  0  0  0  0  0  0  0  0
   38.3630   30.3540   46.1900 H   0  0  0  0  0  0  0  0  0  0  0  0
   39.3010   31.1650   44.6340 N   0  0  0  0  0  0  0  0  0  0  0  0
   40.3530   31.0470   45.6600 C   0  0  0  0  0  0  0  0  0  0  0  0
   41.1980   32.2530   45.4920 C   0  0  0  0  0  0  0  0  0  0  0  0
   40.3070   33.2410   44.7980 C   0  0  0  0  0  0  0  0  0  0  0  0
   38.9410   32.5650   44.7610 C   0  0  0  0  0  0  0  0  0  0  0  0
   38.3780   32.9050   43.8540 H   0  0  0  0  0  0  0  0  0  0  0  0
  1  2  1  0  0  0  0
  2  3  2  0  0  0  0
  2 13  1  0  0  0  0
  3  7  1  0  0  0  0
  4  8  1  0  0  0  0
  4  3  1  0  0  0  0
  5  4  2  0  0  0  0
  6  5  1  0  0  0  0
  6  1  2  0  0  0  0
  9  5  1  0  0  0  0
 10  6  1  0  0  0  0
 11 16  1  0  0  0  0
 12 13  1  0  0  0  0
 12 11  2  0  0  0  0
 13 14  2  0  0  0  0
 14 15  1  0  0  0  0
 15 19  1  0  0  0  0
 16 15  2  0  0  0  0
 17 11  1  0  0  0  0
 18 12  1  0  0  0  0
 19 22  1  0  0  0  0
 19 21  1  0  0  0  0
 19 20  1  0  0  0  0
 23 26  1  0  0  0  0
 23  1  1  0  0  0  0
 24 23  2  0  0  0  0
 25 23  2  0  0  0  0
 26 28  1  0  0  0  0
 27 26  1  0  0  0  0
 29 33  1  0  0  0  0
 29 26  1  0  0  0  0
 29 30  1  0  0  0  0
 31 30  1  0  0  0  0
 32 31  1  0  0  0  0
 33 32  1  0  0  0  0
 34 33  1  0  0  0  0
M  END
>  <minimizedAffinity>
-5.84724903

>  <minimizedRMSD>
2.91050267

$$$$
