
 OpenBabel03272504343D

 37 40  0  0  0  0  0  0  0  0999 V2000
   39.4010   25.2260   35.1670 C   0  0  0  0  0  0  0  0  0  0  0  0
   40.7270   25.6370   35.1000 C   0  0  0  0  0  0  0  0  0  0  0  0
   41.1050   26.6330   34.2200 C   0  0  0  0  0  0  0  0  0  0  0  0
   40.1300   27.1830   33.4330 N   0  0  0  0  0  0  0  0  0  0  0  0
   38.8400   26.7610   33.5210 C   0  0  0  0  0  0  0  0  0  0  0  0
   38.4760   25.7910   34.3790 N   0  0  0  0  0  0  0  0  0  0  0  0
   41.4060   25.1350   35.7640 H   0  0  0  0  0  0  0  0  0  0  0  0
   42.1220   26.9490   34.1670 H   0  0  0  0  0  0  0  0  0  0  0  0
   38.9580   24.2000   36.0600 N   0  0  0  0  0  0  0  0  0  0  0  0
   37.9010   24.4340   37.0290 C   0  0  0  0  0  0  0  0  0  0  0  0
   38.1560   23.8740   38.3830 C   0  0  0  0  0  0  0  0  0  0  0  0
   39.0080   22.7470   38.4870 N   0  0  0  0  0  0  0  0  0  0  0  0
   40.0940   22.7380   37.5000 C   0  0  0  0  0  0  0  0  0  0  0  0
   39.4410   22.8650   36.1500 C   0  0  0  0  0  0  0  0  0  0  0  0
   37.8070   25.5430   37.1420 H   0  0  0  0  0  0  0  0  0  0  0  0
   36.9660   24.0740   36.5630 H   0  0  0  0  0  0  0  0  0  0  0  0
   37.1610   23.5730   38.8200 H   0  0  0  0  0  0  0  0  0  0  0  0
   38.5250   24.6530   39.0870 H   0  0  0  0  0  0  0  0  0  0  0  0
   38.5410   21.8230   38.4750 H   0  0  0  0  0  0  0  0  0  0  0  0
   40.6510   21.7940   37.6160 H   0  0  0  0  0  0  0  0  0  0  0  0
   40.7680   23.6150   37.7120 H   0  0  0  0  0  0  0  0  0  0  0  0
   40.2450   22.7250   35.3800 H   0  0  0  0  0  0  0  0  0  0  0  0
   38.6470   22.1140   36.0690 H   0  0  0  0  0  0  0  0  0  0  0  0
   37.8320   27.3790   32.6590 C   0  0  0  0  0  0  0  0  0  0  0  0
   37.8370   27.1700   31.3100 C   0  0  0  0  0  0  0  0  0  0  0  0
   36.9000   27.7380   30.4720 C   0  0  0  0  0  0  0  0  0  0  0  0
   35.9670   28.5200   31.0590 N   0  0  0  0  0  0  0  0  0  0  0  0
   35.9610   28.7250   32.3810 C   0  0  0  0  0  0  0  0  0  0  0  0
   36.8950   28.1550   33.1820 N   0  0  0  0  0  0  0  0  0  0  0  0
   38.6090   26.5330   30.8980 H   0  0  0  0  0  0  0  0  0  0  0  0
   36.8870   27.5850   29.4010 H   0  0  0  0  0  0  0  0  0  0  0  0
   34.9940   29.5430   33.0340 N   0  0  0  0  0  0  0  0  0  0  0  0
   34.4470   29.4570   34.3780 C   0  0  0  0  0  2  0  0  0  0  0  0
   32.9500   29.4590   34.0500 C   0  0  0  0  0  2  0  0  0  0  0  0
   32.8470   30.1630   32.6950 C   0  0  0  0  0  2  0  0  0  0  0  0
   34.2720   30.7050   32.5430 C   0  0  0  0  0  3  0  0  0  0  0  0
   34.3270   31.5470   33.2690 H   0  0  0  0  0  0  0  0  0  0  0  0
  1  9  1  0  0  0  0
  2  1  1  0  0  0  0
  2  7  1  0  0  0  0
  3  2  2  0  0  0  0
  4  5  2  0  0  0  0
  4  3  1  0  0  0  0
  5  6  1  0  0  0  0
  6  1  2  0  0  0  0
  8  3  1  0  0  0  0
  9 14  1  0  0  0  0
  9 10  1  0  0  0  0
 10 15  1  0  0  0  0
 10 11  1  0  0  0  0
 11 12  1  0  0  0  0
 11 17  1  0  0  0  0
 11 18  1  0  0  0  0
 13 20  1  0  0  0  0
 13 21  1  0  0  0  0
 13 12  1  0  0  0  0
 14 13  1  0  0  0  0
 16 10  1  0  0  0  0
 19 12  1  0  0  0  0
 22 14  1  0  0  0  0
 23 14  1  0  0  0  0
 24 29  1  0  0  0  0
 24  5  1  0  0  0  0
 25 24  2  0  0  0  0
 26 27  2  0  0  0  0
 26 25  1  0  0  0  0
 27 28  1  0  0  0  0
 28 32  1  0  0  0  0
 28 29  2  0  0  0  0
 30 25  1  0  0  0  0
 31 26  1  0  0  0  0
 32 33  1  0  0  0  0
 34 33  1  0  0  0  0
 35 34  1  0  0  0  0
 36 35  1  0  0  0  0
 36 32  1  0  0  0  0
 36 37  1  0  0  0  0
M  END
>  <minimizedAffinity>
-5.96647024

$$$$

 OpenBabel03272504343D

 37 40  0  0  0  0  0  0  0  0999 V2000
   35.4690   29.2000   33.6030 C   0  0  0  0  0  0  0  0  0  0  0  0
   34.9360   28.7720   32.3930 C   0  0  0  0  0  0  0  0  0  0  0  0
   35.4740   27.6780   31.7410 C   0  0  0  0  0  0  0  0  0  0  0  0
   36.5360   27.0510   32.3320 N   0  0  0  0  0  0  0  0  0  0  0  0
   37.0370   27.4930   33.5170 C   0  0  0  0  0  0  0  0  0  0  0  0
   36.5100   28.5570   34.1490 N   0  0  0  0  0  0  0  0  0  0  0  0
   34.1030   29.3400   32.0220 H   0  0  0  0  0  0  0  0  0  0  0  0
   35.0650   27.3500   30.8130 H   0  0  0  0  0  0  0  0  0  0  0  0
   34.9500   30.3260   34.3170 N   0  0  0  0  0  0  0  0  0  0  0  0
   35.8130   31.2120   35.0780 C   0  0  0  0  0  0  0  0  0  0  0  0
   35.2890   31.6070   36.4120 C   0  0  0  0  0  0  0  0  0  0  0  0
   33.8850   31.6160   36.5990 N   0  0  0  0  0  0  0  0  0  0  0  0
   33.1850   30.5710   35.8430 C   0  0  0  0  0  0  0  0  0  0  0  0
   33.5940   30.7430   34.4040 C   0  0  0  0  0  0  0  0  0  0  0  0
   36.7720   30.6610   35.2490 H   0  0  0  0  0  0  0  0  0  0  0  0
   36.0440   32.0660   34.4150 H   0  0  0  0  0  0  0  0  0  0  0  0
   35.6540   32.6520   36.6260 H   0  0  0  0  0  0  0  0  0  0  0  0
   35.7430   31.0020   37.2280 H   0  0  0  0  0  0  0  0  0  0  0  0
   33.4110   32.5210   36.4310 H   0  0  0  0  0  0  0  0  0  0  0  0
   32.1020   30.7070   35.9980 H   0  0  0  0  0  0  0  0  0  0  0  0
   33.5120   29.5700   36.2430 H   0  0  0  0  0  0  0  0  0  0  0  0
   32.9640   30.0390   33.7970 H   0  0  0  0  0  0  0  0  0  0  0  0
   33.4460   31.7910   34.1180 H   0  0  0  0  0  0  0  0  0  0  0  0
   38.1740   26.7900   34.1120 C   0  0  0  0  0  0  0  0  0  0  0  0
   39.4560   27.1860   33.8590 C   0  0  0  0  0  0  0  0  0  0  0  0
   40.5480   26.5450   34.4040 C   0  0  0  0  0  0  0  0  0  0  0  0
   40.2840   25.4930   35.2100 N   0  0  0  0  0  0  0  0  0  0  0  0
   39.0290   25.1040   35.4600 C   0  0  0  0  0  0  0  0  0  0  0  0
   37.9730   25.7520   34.9090 N   0  0  0  0  0  0  0  0  0  0  0  0
   39.6040   28.0360   33.2050 H   0  0  0  0  0  0  0  0  0  0  0  0
   41.5710   26.8430   34.2160 H   0  0  0  0  0  0  0  0  0  0  0  0
   38.7120   24.0000   36.3030 N   0  0  0  0  0  0  0  0  0  0  0  0
   37.5480   23.7630   37.1410 C   0  0  0  0  0  2  0  0  0  0  0  0
   38.2430   23.4640   38.4730 C   0  0  0  0  0  2  0  0  0  0  0  0
   39.6340   22.9570   38.0850 C   0  0  0  0  0  2  0  0  0  0  0  0
   39.4650   22.7860   36.5720 C   0  0  0  0  0  3  0  0  0  0  0  0
   38.8230   21.8840   36.4650 H   0  0  0  0  0  0  0  0  0  0  0  0
  1  6  1  0  0  0  0
  1  9  1  0  0  0  0
  2  1  2  0  0  0  0
  3  4  2  0  0  0  0
  3  2  1  0  0  0  0
  4  5  1  0  0  0  0
  5 24  1  0  0  0  0
  5  6  2  0  0  0  0
  7  2  1  0  0  0  0
  8  3  1  0  0  0  0
  9 14  1  0  0  0  0
  9 10  1  0  0  0  0
 10 15  1  0  0  0  0
 10 11  1  0  0  0  0
 11 12  1  0  0  0  0
 11 17  1  0  0  0  0
 11 18  1  0  0  0  0
 13 20  1  0  0  0  0
 13 21  1  0  0  0  0
 13 12  1  0  0  0  0
 14 13  1  0  0  0  0
 16 10  1  0  0  0  0
 19 12  1  0  0  0  0
 22 14  1  0  0  0  0
 23 14  1  0  0  0  0
 24 29  1  0  0  0  0
 25 24  2  0  0  0  0
 25 26  1  0  0  0  0
 26 27  2  0  0  0  0
 27 28  1  0  0  0  0
 28 32  1  0  0  0  0
 29 28  2  0  0  0  0
 30 25  1  0  0  0  0
 31 26  1  0  0  0  0
 32 36  1  0  0  0  0
 32 33  1  0  0  0  0
 33 34  1  0  0  0  0
 35 34  1  0  0  0  0
 36 35  1  0  0  0  0
 37 36  1  0  0  0  0
M  END
>  <minimizedAffinity>
-5.84056759

$$$$

 OpenBabel03272504343D

 37 40  0  0  0  0  0  0  0  0999 V2000
   38.1480   24.0020   34.6450 C   0  0  0  0  0  0  0  0  0  0  0  0
   37.9230   22.8270   33.9380 C   0  0  0  0  0  0  0  0  0  0  0  0
   37.3920   22.8720   32.6630 C   0  0  0  0  0  0  0  0  0  0  0  0
   37.1030   24.1030   32.1420 N   0  0  0  0  0  0  0  0  0  0  0  0
   37.3340   25.2360   32.8580 C   0  0  0  0  0  0  0  0  0  0  0  0
   37.8520   25.1890   34.0990 N   0  0  0  0  0  0  0  0  0  0  0  0
   38.1870   21.9180   34.4460 H   0  0  0  0  0  0  0  0  0  0  0  0
   37.2180   21.9700   32.1200 H   0  0  0  0  0  0  0  0  0  0  0  0
   38.6960   24.0120   35.9670 N   0  0  0  0  0  0  0  0  0  0  0  0
   39.9980   23.4380   36.2590 C   0  0  0  0  0  0  0  0  0  0  0  0
   40.0610   22.6250   37.5030 C   0  0  0  0  0  0  0  0  0  0  0  0
   39.1430   22.9240   38.5400 N   0  0  0  0  0  0  0  0  0  0  0  0
   37.8350   23.3770   38.0550 C   0  0  0  0  0  0  0  0  0  0  0  0
   38.1020   24.5460   37.1440 C   0  0  0  0  0  0  0  0  0  0  0  0
   40.2500   22.7580   35.4060 H   0  0  0  0  0  0  0  0  0  0  0  0
   40.7190   24.2740   36.2320 H   0  0  0  0  0  0  0  0  0  0  0  0
   41.0950   22.7450   37.9360 H   0  0  0  0  0  0  0  0  0  0  0  0
   39.9950   21.5360   37.2850 H   0  0  0  0  0  0  0  0  0  0  0  0
   39.4770   23.5860   39.2630 H   0  0  0  0  0  0  0  0  0  0  0  0
   37.2240   23.6510   38.9310 H   0  0  0  0  0  0  0  0  0  0  0  0
   37.3540   22.5250   37.4960 H   0  0  0  0  0  0  0  0  0  0  0  0
   37.1060   24.9860   36.8730 H   0  0  0  0  0  0  0  0  0  0  0  0
   38.7490   25.2600   37.6660 H   0  0  0  0  0  0  0  0  0  0  0  0
   37.0090   26.5310   32.2600 C   0  0  0  0  0  0  0  0  0  0  0  0
   37.2840   26.7880   30.9470 C   0  0  0  0  0  0  0  0  0  0  0  0
   36.9900   27.9980   30.3550 C   0  0  0  0  0  0  0  0  0  0  0  0
   36.4100   28.9270   31.1460 N   0  0  0  0  0  0  0  0  0  0  0  0
   36.1390   28.6770   32.4320 C   0  0  0  0  0  0  0  0  0  0  0  0
   36.4390   27.4780   32.9890 N   0  0  0  0  0  0  0  0  0  0  0  0
   37.7500   26.0040   30.3640 H   0  0  0  0  0  0  0  0  0  0  0  0
   37.2000   28.2220   29.3170 H   0  0  0  0  0  0  0  0  0  0  0  0
   35.5280   29.6310   33.2960 N   0  0  0  0  0  0  0  0  0  0  0  0
   34.6610   29.4360   34.4450 C   0  0  0  0  0  2  0  0  0  0  0  0
   33.4910   30.3430   34.0470 C   0  0  0  0  0  2  0  0  0  0  0  0
   34.1030   31.3750   33.0970 C   0  0  0  0  0  2  0  0  0  0  0  0
   35.5960   31.0830   33.2780 C   0  0  0  0  0  3  0  0  0  0  0  0
   35.8370   31.4850   34.2860 H   0  0  0  0  0  0  0  0  0  0  0  0
  1  9  1  0  0  0  0
  2  7  1  0  0  0  0
  2  1  2  0  0  0  0
  3  2  1  0  0  0  0
  4  3  2  0  0  0  0
  4  5  1  0  0  0  0
  5  6  2  0  0  0  0
  6  1  1  0  0  0  0
  8  3  1  0  0  0  0
  9 10  1  0  0  0  0
  9 14  1  0  0  0  0
 10 11  1  0  0  0  0
 11 17  1  0  0  0  0
 11 12  1  0  0  0  0
 12 19  1  0  0  0  0
 13 12  1  0  0  0  0
 13 20  1  0  0  0  0
 14 23  1  0  0  0  0
 14 13  1  0  0  0  0
 15 10  1  0  0  0  0
 16 10  1  0  0  0  0
 18 11  1  0  0  0  0
 21 13  1  0  0  0  0
 22 14  1  0  0  0  0
 24  5  1  0  0  0  0
 24 29  1  0  0  0  0
 25 24  2  0  0  0  0
 26 25  1  0  0  0  0
 26 27  2  0  0  0  0
 27 28  1  0  0  0  0
 28 29  2  0  0  0  0
 28 32  1  0  0  0  0
 30 25  1  0  0  0  0
 31 26  1  0  0  0  0
 32 33  1  0  0  0  0
 34 33  1  0  0  0  0
 35 36  1  0  0  0  0
 35 34  1  0  0  0  0
 36 32  1  0  0  0  0
 36 37  1  0  0  0  0
M  END
>  <minimizedAffinity>
-5.82723093

$$$$

 OpenBabel03272504343D

 37 40  0  0  0  0  0  0  0  0999 V2000
   38.2150   24.2290   34.7560 C   0  0  0  0  0  0  0  0  0  0  0  0
   37.9740   23.1210   33.9520 C   0  0  0  0  0  0  0  0  0  0  0  0
   37.4610   23.2820   32.6790 C   0  0  0  0  0  0  0  0  0  0  0  0
   37.2060   24.5570   32.2570 N   0  0  0  0  0  0  0  0  0  0  0  0
   37.4520   25.6230   33.0660 C   0  0  0  0  0  0  0  0  0  0  0  0
   37.9520   25.4630   34.3050 N   0  0  0  0  0  0  0  0  0  0  0  0
   38.2110   22.1680   34.3870 H   0  0  0  0  0  0  0  0  0  0  0  0
   37.2750   22.4320   32.0620 H   0  0  0  0  0  0  0  0  0  0  0  0
   38.7450   24.1180   36.0800 N   0  0  0  0  0  0  0  0  0  0  0  0
   40.0300   23.4940   36.3400 C   0  0  0  0  0  0  0  0  0  0  0  0
   40.0600   22.5800   37.5120 C   0  0  0  0  0  0  0  0  0  0  0  0
   39.1350   22.8130   38.5600 N   0  0  0  0  0  0  0  0  0  0  0  0
   37.8420   23.3330   38.0990 C   0  0  0  0  0  0  0  0  0  0  0  0
   38.1460   24.5660   37.2900 C   0  0  0  0  0  0  0  0  0  0  0  0
   40.2800   22.8820   35.4360 H   0  0  0  0  0  0  0  0  0  0  0  0
   40.7690   24.3140   36.3900 H   0  0  0  0  0  0  0  0  0  0  0  0
   41.0900   22.6420   37.9660 H   0  0  0  0  0  0  0  0  0  0  0  0
   39.9740   21.5150   37.2050 H   0  0  0  0  0  0  0  0  0  0  0  0
   39.4720   23.4060   39.3390 H   0  0  0  0  0  0  0  0  0  0  0  0
   37.2250   23.5470   38.9870 H   0  0  0  0  0  0  0  0  0  0  0  0
   37.3510   22.5410   37.4660 H   0  0  0  0  0  0  0  0  0  0  0  0
   37.1640   25.0490   37.0440 H   0  0  0  0  0  0  0  0  0  0  0  0
   38.8000   25.2210   37.8770 H   0  0  0  0  0  0  0  0  0  0  0  0
   37.1640   26.9700   32.5720 C   0  0  0  0  0  0  0  0  0  0  0  0
   36.3190   27.8020   33.2500 C   0  0  0  0  0  0  0  0  0  0  0  0
   36.0280   29.0760   32.8100 C   0  0  0  0  0  0  0  0  0  0  0  0
   36.6260   29.4640   31.6620 N   0  0  0  0  0  0  0  0  0  0  0  0
   37.4540   28.6510   30.9970 C   0  0  0  0  0  0  0  0  0  0  0  0
   37.7220   27.4020   31.4520 N   0  0  0  0  0  0  0  0  0  0  0  0
   35.8710   27.4330   34.1640 H   0  0  0  0  0  0  0  0  0  0  0  0
   35.3620   29.7500   33.3320 H   0  0  0  0  0  0  0  0  0  0  0  0
   38.1020   29.0260   29.7850 N   0  0  0  0  0  0  0  0  0  0  0  0
   39.3820   28.6100   29.2380 C   0  0  0  0  0  2  0  0  0  0  0  0
   40.0140   29.9830   28.9820 C   0  0  0  0  0  2  0  0  0  0  0  0
   38.8280   30.9350   28.8150 C   0  0  0  0  0  2  0  0  0  0  0  0
   37.6670   29.9370   28.7390 C   0  0  0  0  0  3  0  0  0  0  0  0
   37.7680   29.4710   27.7340 H   0  0  0  0  0  0  0  0  0  0  0  0
  1  9  1  0  0  0  0
  2  7  1  0  0  0  0
  2  1  2  0  0  0  0
  3  2  1  0  0  0  0
  4  3  2  0  0  0  0
  4  5  1  0  0  0  0
  5  6  2  0  0  0  0
  6  1  1  0  0  0  0
  8  3  1  0  0  0  0
  9 10  1  0  0  0  0
  9 14  1  0  0  0  0
 10 16  1  0  0  0  0
 10 11  1  0  0  0  0
 11 17  1  0  0  0  0
 11 12  1  0  0  0  0
 12 19  1  0  0  0  0
 13 12  1  0  0  0  0
 13 20  1  0  0  0  0
 14 23  1  0  0  0  0
 14 13  1  0  0  0  0
 15 10  1  0  0  0  0
 18 11  1  0  0  0  0
 21 13  1  0  0  0  0
 22 14  1  0  0  0  0
 24  5  1  0  0  0  0
 24 25  1  0  0  0  0
 25 30  1  0  0  0  0
 26 25  2  0  0  0  0
 26 31  1  0  0  0  0
 27 26  1  0  0  0  0
 28 29  1  0  0  0  0
 28 27  2  0  0  0  0
 29 24  2  0  0  0  0
 32 28  1  0  0  0  0
 33 32  1  0  0  0  0
 34 33  1  0  0  0  0
 35 34  1  0  0  0  0
 36 35  1  0  0  0  0
 36 32  1  0  0  0  0
 37 36  1  0  0  0  0
M  END
>  <minimizedAffinity>
-5.72922611

$$$$

 OpenBabel03272504343D

 37 40  0  0  0  0  0  0  0  0999 V2000
   38.9310   22.9610   34.4000 C   0  0  0  0  0  0  0  0  0  0  0  0
   39.3050   21.8320   33.6810 C   0  0  0  0  0  0  0  0  0  0  0  0
   38.7940   21.6090   32.4170 C   0  0  0  0  0  0  0  0  0  0  0  0
   37.9190   22.5340   31.9180 N   0  0  0  0  0  0  0  0  0  0  0  0
   37.5710   23.6300   32.6440 C   0  0  0  0  0  0  0  0  0  0  0  0
   38.0710   23.8440   33.8750 N   0  0  0  0  0  0  0  0  0  0  0  0
   39.9980   21.1740   34.1720 H   0  0  0  0  0  0  0  0  0  0  0  0
   39.0800   20.7430   31.8650 H   0  0  0  0  0  0  0  0  0  0  0  0
   39.4300   23.2390   35.7120 N   0  0  0  0  0  0  0  0  0  0  0  0
   40.6540   22.6350   36.2070 C   0  0  0  0  0  0  0  0  0  0  0  0
   40.5900   22.1430   37.6090 C   0  0  0  0  0  0  0  0  0  0  0  0
   39.6720   22.7670   38.4910 N   0  0  0  0  0  0  0  0  0  0  0  0
   38.4350   23.2080   37.8370 C   0  0  0  0  0  0  0  0  0  0  0  0
   38.8540   24.0930   36.6920 C   0  0  0  0  0  0  0  0  0  0  0  0
   40.8650   21.7500   35.5550 H   0  0  0  0  0  0  0  0  0  0  0  0
   41.4590   23.3700   36.0260 H   0  0  0  0  0  0  0  0  0  0  0  0
   41.6150   22.2680   38.0620 H   0  0  0  0  0  0  0  0  0  0  0  0
   40.4190   21.0450   37.6520 H   0  0  0  0  0  0  0  0  0  0  0  0
   40.0470   23.5490   39.0550 H   0  0  0  0  0  0  0  0  0  0  0  0
   37.8260   23.7390   38.5860 H   0  0  0  0  0  0  0  0  0  0  0  0
   37.8880   22.2950   37.4680 H   0  0  0  0  0  0  0  0  0  0  0  0
   37.9190   24.5450   36.2670 H   0  0  0  0  0  0  0  0  0  0  0  0
   39.5520   24.8490   37.0680 H   0  0  0  0  0  0  0  0  0  0  0  0
   36.6310   24.5930   32.0690 C   0  0  0  0  0  0  0  0  0  0  0  0
   35.7030   24.2040   31.1460 C   0  0  0  0  0  0  0  0  0  0  0  0
   34.8040   25.0880   30.5860 C   0  0  0  0  0  0  0  0  0  0  0  0
   34.8880   26.3710   31.0010 N   0  0  0  0  0  0  0  0  0  0  0  0
   35.7960   26.7530   31.9060 C   0  0  0  0  0  0  0  0  0  0  0  0
   36.6690   25.8640   32.4400 N   0  0  0  0  0  0  0  0  0  0  0  0
   35.6850   23.1620   30.8530 H   0  0  0  0  0  0  0  0  0  0  0  0
   34.0620   24.8000   29.8530 H   0  0  0  0  0  0  0  0  0  0  0  0
   35.9140   28.0960   32.3660 N   0  0  0  0  0  0  0  0  0  0  0  0
   36.3580   28.6120   33.6500 C   0  0  0  0  0  2  0  0  0  0  0  0
   35.1700   29.5190   33.9910 C   0  0  0  0  0  2  0  0  0  0  0  0
   34.5530   29.8810   32.6380 C   0  0  0  0  0  2  0  0  0  0  0  0
   35.6240   29.3460   31.6820 C   0  0  0  0  0  3  0  0  0  0  0  0
   36.4680   30.0630   31.7810 H   0  0  0  0  0  0  0  0  0  0  0  0
  1  9  1  0  0  0  0
  2  7  1  0  0  0  0
  2  1  2  0  0  0  0
  3  2  1  0  0  0  0
  4  3  2  0  0  0  0
  4  5  1  0  0  0  0
  5  6  2  0  0  0  0
  6  1  1  0  0  0  0
  8  3  1  0  0  0  0
  9 10  1  0  0  0  0
  9 14  1  0  0  0  0
 10 11  1  0  0  0  0
 11 18  1  0  0  0  0
 11 17  1  0  0  0  0
 11 12  1  0  0  0  0
 12 19  1  0  0  0  0
 13 12  1  0  0  0  0
 13 20  1  0  0  0  0
 14 23  1  0  0  0  0
 14 13  1  0  0  0  0
 15 10  1  0  0  0  0
 16 10  1  0  0  0  0
 21 13  1  0  0  0  0
 22 14  1  0  0  0  0
 24 29  1  0  0  0  0
 24  5  1  0  0  0  0
 25 24  2  0  0  0  0
 26 27  2  0  0  0  0
 26 25  1  0  0  0  0
 27 28  1  0  0  0  0
 28 32  1  0  0  0  0
 28 29  2  0  0  0  0
 30 25  1  0  0  0  0
 31 26  1  0  0  0  0
 32 33  1  0  0  0  0
 33 34  1  0  0  0  0
 35 34  1  0  0  0  0
 36 37  1  0  0  0  0
 36 32  1  0  0  0  0
 36 35  1  0  0  0  0
M  END
>  <minimizedAffinity>
-5.64236498

$$$$

 OpenBabel03272504343D

 37 40  0  0  0  0  0  0  0  0999 V2000
   36.7350   28.8460   31.9120 C   0  0  0  0  0  0  0  0  0  0  0  0
   35.7250   29.2260   32.7890 C   0  0  0  0  0  0  0  0  0  0  0  0
   35.7260   28.7680   34.0930 C   0  0  0  0  0  0  0  0  0  0  0  0
   36.7460   27.9400   34.4710 N   0  0  0  0  0  0  0  0  0  0  0  0
   37.7200   27.5850   33.5900 C   0  0  0  0  0  0  0  0  0  0  0  0
   37.7170   28.0330   32.3220 N   0  0  0  0  0  0  0  0  0  0  0  0
   34.9750   29.8790   32.3840 H   0  0  0  0  0  0  0  0  0  0  0  0
   34.9510   29.0590   34.7660 H   0  0  0  0  0  0  0  0  0  0  0  0
   36.7810   29.2910   30.5530 N   0  0  0  0  0  0  0  0  0  0  0  0
   37.1040   28.3870   29.4630 C   0  0  0  0  0  0  0  0  0  0  0  0
   38.0390   28.9370   28.4470 C   0  0  0  0  0  0  0  0  0  0  0  0
   38.0730   30.3420   28.2660 N   0  0  0  0  0  0  0  0  0  0  0  0
   37.8430   31.1000   29.5020 C   0  0  0  0  0  0  0  0  0  0  0  0
   36.5370   30.6040   30.0650 C   0  0  0  0  0  0  0  0  0  0  0  0
   37.6020   27.4940   29.9210 H   0  0  0  0  0  0  0  0  0  0  0  0
   36.1400   28.0430   29.0480 H   0  0  0  0  0  0  0  0  0  0  0  0
   37.7640   28.4860   27.4510 H   0  0  0  0  0  0  0  0  0  0  0  0
   39.0820   28.5850   28.6130 H   0  0  0  0  0  0  0  0  0  0  0  0
   37.4550   30.7180   27.5260 H   0  0  0  0  0  0  0  0  0  0  0  0
   37.8170   32.1710   29.2440 H   0  0  0  0  0  0  0  0  0  0  0  0
   38.6970   30.8900   30.2050 H   0  0  0  0  0  0  0  0  0  0  0  0
   36.2820   31.2660   30.9350 H   0  0  0  0  0  0  0  0  0  0  0  0
   35.7770   30.6370   29.2760 H   0  0  0  0  0  0  0  0  0  0  0  0
   38.7930   26.6960   34.0400 C   0  0  0  0  0  0  0  0  0  0  0  0
   40.0780   26.8760   33.6170 C   0  0  0  0  0  0  0  0  0  0  0  0
   41.1100   26.0560   34.0230 C   0  0  0  0  0  0  0  0  0  0  0  0
   40.7820   25.0530   34.8670 N   0  0  0  0  0  0  0  0  0  0  0  0
   39.5230   24.8760   35.2830 C   0  0  0  0  0  0  0  0  0  0  0  0
   38.5270   25.6970   34.8670 N   0  0  0  0  0  0  0  0  0  0  0  0
   40.2790   27.6970   32.9400 H   0  0  0  0  0  0  0  0  0  0  0  0
   42.1350   26.1810   33.7000 H   0  0  0  0  0  0  0  0  0  0  0  0
   39.1390   23.8310   36.1720 N   0  0  0  0  0  0  0  0  0  0  0  0
   38.0710   23.7810   37.1560 C   0  0  0  0  0  2  0  0  0  0  0  0
   38.8740   23.3560   38.3910 C   0  0  0  0  0  2  0  0  0  0  0  0
   40.0990   22.6300   37.8290 C   0  0  0  0  0  2  0  0  0  0  0  0
   39.7080   22.5050   36.3530 C   0  0  0  0  0  3  0  0  0  0  0  0
   38.9160   21.7250   36.3410 H   0  0  0  0  0  0  0  0  0  0  0  0
  1  6  2  0  0  0  0
  1  2  1  0  0  0  0
  2  3  2  0  0  0  0
  3  4  1  0  0  0  0
  3  8  1  0  0  0  0
  5 24  1  0  0  0  0
  5  4  2  0  0  0  0
  6  5  1  0  0  0  0
  7  2  1  0  0  0  0
  9  1  1  0  0  0  0
 10 15  1  0  0  0  0
 10  9  1  0  0  0  0
 11 18  1  0  0  0  0
 11 10  1  0  0  0  0
 12 11  1  0  0  0  0
 12 13  1  0  0  0  0
 13 14  1  0  0  0  0
 13 21  1  0  0  0  0
 14  9  1  0  0  0  0
 14 22  1  0  0  0  0
 16 10  1  0  0  0  0
 17 11  1  0  0  0  0
 19 12  1  0  0  0  0
 20 13  1  0  0  0  0
 23 14  1  0  0  0  0
 24 29  1  0  0  0  0
 25 26  1  0  0  0  0
 25 24  2  0  0  0  0
 26 27  2  0  0  0  0
 27 28  1  0  0  0  0
 28 32  1  0  0  0  0
 29 28  2  0  0  0  0
 30 25  1  0  0  0  0
 31 26  1  0  0  0  0
 32 36  1  0  0  0  0
 32 33  1  0  0  0  0
 33 34  1  0  0  0  0
 35 34  1  0  0  0  0
 36 35  1  0  0  0  0
 37 36  1  0  0  0  0
M  END
>  <minimizedAffinity>
-5.5718627

$$$$

 OpenBabel03272504343D

 37 40  0  0  0  0  0  0  0  0999 V2000
   36.5510   22.6330   32.0720 C   0  0  0  0  0  0  0  0  0  0  0  0
   35.6140   23.4320   31.4270 C   0  0  0  0  0  0  0  0  0  0  0  0
   35.7070   24.8090   31.4940 C   0  0  0  0  0  0  0  0  0  0  0  0
   36.7450   25.3370   32.2110 N   0  0  0  0  0  0  0  0  0  0  0  0
   37.6470   24.5310   32.8320 C   0  0  0  0  0  0  0  0  0  0  0  0
   37.5540   23.1910   32.7640 N   0  0  0  0  0  0  0  0  0  0  0  0
   34.8420   22.9090   30.8940 H   0  0  0  0  0  0  0  0  0  0  0  0
   34.9880   25.4220   31.0000 H   0  0  0  0  0  0  0  0  0  0  0  0
   36.5010   21.2040   32.0350 N   0  0  0  0  0  0  0  0  0  0  0  0
   37.2120   20.4400   31.0250 C   0  0  0  0  0  0  0  0  0  0  0  0
   36.4430   19.3140   30.4310 C   0  0  0  0  0  0  0  0  0  0  0  0
   35.4230   18.7200   31.2140 N   0  0  0  0  0  0  0  0  0  0  0  0
   34.7270   19.6690   32.0920 C   0  0  0  0  0  0  0  0  0  0  0  0
   35.7930   20.3420   32.9160 C   0  0  0  0  0  0  0  0  0  0  0  0
   37.4540   21.1500   30.1940 H   0  0  0  0  0  0  0  0  0  0  0  0
   38.1710   20.1370   31.4820 H   0  0  0  0  0  0  0  0  0  0  0  0
   37.1770   18.4970   30.1760 H   0  0  0  0  0  0  0  0  0  0  0  0
   36.0070   19.5890   29.4450 H   0  0  0  0  0  0  0  0  0  0  0  0
   35.7030   17.8950   31.7730 H   0  0  0  0  0  0  0  0  0  0  0  0
   34.0090   19.1000   32.7050 H   0  0  0  0  0  0  0  0  0  0  0  0
   34.1830   20.4120   31.4440 H   0  0  0  0  0  0  0  0  0  0  0  0
   35.2670   20.9690   33.6840 H   0  0  0  0  0  0  0  0  0  0  0  0
   36.4290   19.5720   33.3680 H   0  0  0  0  0  0  0  0  0  0  0  0
   38.7410   25.1420   33.5880 C   0  0  0  0  0  0  0  0  0  0  0  0
   38.6880   26.4520   33.9680 C   0  0  0  0  0  0  0  0  0  0  0  0
   39.7020   27.0550   34.6810 C   0  0  0  0  0  0  0  0  0  0  0  0
   40.7640   26.2770   34.9880 N   0  0  0  0  0  0  0  0  0  0  0  0
   40.8180   24.9940   34.6170 C   0  0  0  0  0  0  0  0  0  0  0  0
   39.8060   24.4250   33.9150 N   0  0  0  0  0  0  0  0  0  0  0  0
   37.8110   27.0240   33.6930 H   0  0  0  0  0  0  0  0  0  0  0  0
   39.6790   28.0910   34.9910 H   0  0  0  0  0  0  0  0  0  0  0  0
   41.9190   24.1430   34.9220 N   0  0  0  0  0  0  0  0  0  0  0  0
   41.9630   22.7080   35.1450 C   0  0  0  0  0  2  0  0  0  0  0  0
   42.6860   22.6770   36.4970 C   0  0  0  0  0  2  0  0  0  0  0  0
   43.4880   23.9800   36.5410 C   0  0  0  0  0  2  0  0  0  0  0  0
   43.3260   24.4670   35.0980 C   0  0  0  0  0  3  0  0  0  0  0  0
   43.9710   23.7860   34.5010 H   0  0  0  0  0  0  0  0  0  0  0  0
  1  6  1  0  0  0  0
  2  3  1  0  0  0  0
  2  1  2  0  0  0  0
  3  4  2  0  0  0  0
  4  5  1  0  0  0  0
  5 24  1  0  0  0  0
  6  5  2  0  0  0  0
  7  2  1  0  0  0  0
  8  3  1  0  0  0  0
  9  1  1  0  0  0  0
  9 14  1  0  0  0  0
 10 16  1  0  0  0  0
 10  9  1  0  0  0  0
 11 10  1  0  0  0  0
 11 12  1  0  0  0  0
 12 19  1  0  0  0  0
 12 13  1  0  0  0  0
 13 20  1  0  0  0  0
 13 14  1  0  0  0  0
 14 23  1  0  0  0  0
 14 22  1  0  0  0  0
 15 10  1  0  0  0  0
 17 11  1  0  0  0  0
 18 11  1  0  0  0  0
 21 13  1  0  0  0  0
 24 29  2  0  0  0  0
 24 25  1  0  0  0  0
 25 26  2  0  0  0  0
 26 27  1  0  0  0  0
 26 31  1  0  0  0  0
 28 32  1  0  0  0  0
 28 27  2  0  0  0  0
 29 28  1  0  0  0  0
 30 25  1  0  0  0  0
 32 36  1  0  0  0  0
 32 33  1  0  0  0  0
 33 34  1  0  0  0  0
 34 35  1  0  0  0  0
 36 35  1  0  0  0  0
 37 36  1  0  0  0  0
M  END
>  <minimizedAffinity>
-5.56955099

$$$$

 OpenBabel03272504343D

 37 40  0  0  0  0  0  0  0  0999 V2000
   36.8060   27.1650   33.2230 C   0  0  0  0  0  0  0  0  0  0  0  0
   37.1110   27.7070   34.4670 C   0  0  0  0  0  0  0  0  0  0  0  0
   37.7480   26.9400   35.4240 C   0  0  0  0  0  0  0  0  0  0  0  0
   38.0560   25.6490   35.0960 N   0  0  0  0  0  0  0  0  0  0  0  0
   37.7450   25.1460   33.8710 C   0  0  0  0  0  0  0  0  0  0  0  0
   37.1260   25.8950   32.9420 N   0  0  0  0  0  0  0  0  0  0  0  0
   36.8220   28.7310   34.6140 H   0  0  0  0  0  0  0  0  0  0  0  0
   37.9820   27.3550   36.3780 H   0  0  0  0  0  0  0  0  0  0  0  0
   36.1480   27.9150   32.1980 N   0  0  0  0  0  0  0  0  0  0  0  0
   36.5990   27.8810   30.8180 C   0  0  0  0  0  0  0  0  0  0  0  0
   36.6300   29.2020   30.1350 C   0  0  0  0  0  0  0  0  0  0  0  0
   35.7400   30.2060   30.5900 N   0  0  0  0  0  0  0  0  0  0  0  0
   35.4910   30.1610   32.0350 C   0  0  0  0  0  0  0  0  0  0  0  0
   35.0170   28.7650   32.3400 C   0  0  0  0  0  0  0  0  0  0  0  0
   37.6490   27.4920   30.8310 H   0  0  0  0  0  0  0  0  0  0  0  0
   35.9780   27.1250   30.3050 H   0  0  0  0  0  0  0  0  0  0  0  0
   36.3970   29.0280   29.0460 H   0  0  0  0  0  0  0  0  0  0  0  0
   37.6560   29.6320   30.1160 H   0  0  0  0  0  0  0  0  0  0  0  0
   34.8310   30.2620   30.0980 H   0  0  0  0  0  0  0  0  0  0  0  0
   34.7380   30.9290   32.2750 H   0  0  0  0  0  0  0  0  0  0  0  0
   36.4600   30.3880   32.5650 H   0  0  0  0  0  0  0  0  0  0  0  0
   34.6960   28.7540   33.4150 H   0  0  0  0  0  0  0  0  0  0  0  0
   34.1990   28.5130   31.6550 H   0  0  0  0  0  0  0  0  0  0  0  0
   38.0950   23.7580   33.5650 C   0  0  0  0  0  0  0  0  0  0  0  0
   39.2770   23.2210   33.9870 C   0  0  0  0  0  0  0  0  0  0  0  0
   39.6350   21.9180   33.7150 C   0  0  0  0  0  0  0  0  0  0  0  0
   38.7480   21.1900   33.0020 N   0  0  0  0  0  0  0  0  0  0  0  0
   37.5890   21.7140   32.5880 C   0  0  0  0  0  0  0  0  0  0  0  0
   37.2620   23.0000   32.8690 N   0  0  0  0  0  0  0  0  0  0  0  0
   39.9470   23.8540   34.5550 H   0  0  0  0  0  0  0  0  0  0  0  0
   40.5660   21.4740   34.0400 H   0  0  0  0  0  0  0  0  0  0  0  0
   36.6290   20.9780   31.8350 N   0  0  0  0  0  0  0  0  0  0  0  0
   35.1820   21.0990   31.7840 C   0  0  0  0  0  2  0  0  0  0  0  0
   34.7890   19.6450   32.0670 C   0  0  0  0  0  2  0  0  0  0  0  0
   35.9950   18.8180   31.6170 C   0  0  0  0  0  2  0  0  0  0  0  0
   36.8220   19.8860   30.8940 C   0  0  0  0  0  3  0  0  0  0  0  0
   36.2680   20.0710   29.9470 H   0  0  0  0  0  0  0  0  0  0  0  0
  1  2  1  0  0  0  0
  2  7  1  0  0  0  0
  2  3  2  0  0  0  0
  3  8  1  0  0  0  0
  4  3  1  0  0  0  0
  5  4  2  0  0  0  0
  6  1  2  0  0  0  0
  6  5  1  0  0  0  0
  9 14  1  0  0  0  0
  9  1  1  0  0  0  0
 10 15  1  0  0  0  0
 10  9  1  0  0  0  0
 11 12  1  0  0  0  0
 11 10  1  0  0  0  0
 12 13  1  0  0  0  0
 13 20  1  0  0  0  0
 13 14  1  0  0  0  0
 13 21  1  0  0  0  0
 14 22  1  0  0  0  0
 16 10  1  0  0  0  0
 17 11  1  0  0  0  0
 18 11  1  0  0  0  0
 19 12  1  0  0  0  0
 23 14  1  0  0  0  0
 24  5  1  0  0  0  0
 24 25  1  0  0  0  0
 25 30  1  0  0  0  0
 26 25  2  0  0  0  0
 26 31  1  0  0  0  0
 27 26  1  0  0  0  0
 28 29  1  0  0  0  0
 28 27  2  0  0  0  0
 29 24  2  0  0  0  0
 32 28  1  0  0  0  0
 33 32  1  0  0  0  0
 33 34  1  0  0  0  0
 35 34  1  0  0  0  0
 36 35  1  0  0  0  0
 36 32  1  0  0  0  0
 37 36  1  0  0  0  0
M  END
>  <minimizedAffinity>
-5.46689224

$$$$

 OpenBabel03272504343D

 37 40  0  0  0  0  0  0  0  0999 V2000
   40.3140   22.9880   36.8760 C   0  0  0  0  0  0  0  0  0  0  0  0
   39.5370   22.9670   38.0280 C   0  0  0  0  0  0  0  0  0  0  0  0
   38.2410   23.4470   38.0040 C   0  0  0  0  0  0  0  0  0  0  0  0
   37.7700   23.9340   36.8160 N   0  0  0  0  0  0  0  0  0  0  0  0
   38.5540   23.9420   35.7050 C   0  0  0  0  0  0  0  0  0  0  0  0
   39.8150   23.4740   35.7320 N   0  0  0  0  0  0  0  0  0  0  0  0
   40.0100   22.5630   38.9030 H   0  0  0  0  0  0  0  0  0  0  0  0
   37.6440   23.4310   38.8880 H   0  0  0  0  0  0  0  0  0  0  0  0
   41.6600   22.5050   36.8470 N   0  0  0  0  0  0  0  0  0  0  0  0
   42.7730   23.3640   36.4810 C   0  0  0  0  0  0  0  0  0  0  0  0
   43.7720   22.7450   35.5700 C   0  0  0  0  0  0  0  0  0  0  0  0
   43.9140   21.3350   35.5990 N   0  0  0  0  0  0  0  0  0  0  0  0
   42.6590   20.6230   35.8640 C   0  0  0  0  0  0  0  0  0  0  0  0
   42.1130   21.1910   37.1480 C   0  0  0  0  0  0  0  0  0  0  0  0
   42.3380   24.2450   35.9450 H   0  0  0  0  0  0  0  0  0  0  0  0
   43.2010   23.7390   37.4280 H   0  0  0  0  0  0  0  0  0  0  0  0
   44.7800   23.1810   35.8230 H   0  0  0  0  0  0  0  0  0  0  0  0
   43.6110   23.0550   34.5130 H   0  0  0  0  0  0  0  0  0  0  0  0
   44.6450   20.9670   36.2310 H   0  0  0  0  0  0  0  0  0  0  0  0
   42.8880   19.5470   35.9380 H   0  0  0  0  0  0  0  0  0  0  0  0
   41.9580   20.8130   35.0030 H   0  0  0  0  0  0  0  0  0  0  0  0
   41.2270   20.5650   37.4340 H   0  0  0  0  0  0  0  0  0  0  0  0
   42.9030   21.1710   37.9070 H   0  0  0  0  0  0  0  0  0  0  0  0
   38.0070   24.4730   34.4550 C   0  0  0  0  0  0  0  0  0  0  0  0
   37.8450   23.6720   33.3620 C   0  0  0  0  0  0  0  0  0  0  0  0
   37.3320   24.1420   32.1710 C   0  0  0  0  0  0  0  0  0  0  0  0
   36.9960   25.4510   32.1400 N   0  0  0  0  0  0  0  0  0  0  0  0
   37.1540   26.2370   33.2100 C   0  0  0  0  0  0  0  0  0  0  0  0
   37.6610   25.7480   34.3690 N   0  0  0  0  0  0  0  0  0  0  0  0
   38.1320   22.6310   33.4490 H   0  0  0  0  0  0  0  0  0  0  0  0
   37.1960   23.5240   31.2950 H   0  0  0  0  0  0  0  0  0  0  0  0
   36.8110   27.6200   33.2140 N   0  0  0  0  0  0  0  0  0  0  0  0
   36.3590   28.4720   34.3010 C   0  0  0  0  0  2  0  0  0  0  0  0
   35.0900   29.0510   33.6680 C   0  0  0  0  0  2  0  0  0  0  0  0
   35.3310   28.9640   32.1590 C   0  0  0  0  0  2  0  0  0  0  0  0
   36.8150   28.5840   32.1260 C   0  0  0  0  0  3  0  0  0  0  0  0
   37.3460   29.5170   32.4190 H   0  0  0  0  0  0  0  0  0  0  0  0
  1  2  1  0  0  0  0
  2  7  1  0  0  0  0
  3  2  2  0  0  0  0
  3  8  1  0  0  0  0
  4  3  1  0  0  0  0
  5  6  1  0  0  0  0
  5  4  2  0  0  0  0
  6  1  2  0  0  0  0
  9  1  1  0  0  0  0
  9 14  1  0  0  0  0
 10  9  1  0  0  0  0
 10 16  1  0  0  0  0
 11 12  1  0  0  0  0
 11 17  1  0  0  0  0
 11 10  1  0  0  0  0
 12 13  1  0  0  0  0
 12 19  1  0  0  0  0
 13 20  1  0  0  0  0
 13 14  1  0  0  0  0
 14 22  1  0  0  0  0
 14 23  1  0  0  0  0
 15 10  1  0  0  0  0
 18 11  1  0  0  0  0
 21 13  1  0  0  0  0
 24  5  1  0  0  0  0
 25 30  1  0  0  0  0
 25 24  2  0  0  0  0
 26 25  1  0  0  0  0
 27 26  2  0  0  0  0
 27 28  1  0  0  0  0
 28 32  1  0  0  0  0
 28 29  2  0  0  0  0
 29 24  1  0  0  0  0
 31 26  1  0  0  0  0
 32 33  1  0  0  0  0
 34 33  1  0  0  0  0
 35 34  1  0  0  0  0
 36 35  1  0  0  0  0
 36 37  1  0  0  0  0
 36 32  1  0  0  0  0
M  END
>  <minimizedAffinity>
-5.4617672

$$$$
