
 OpenBabel03272505533D

 41 44  0  0  1  0  0  0  0  0999 V2000
   35.7740   20.9720   35.8090 C   0  0  0  0  0  0  0  0  0  0  0  0
   35.6770   20.6790   34.4230 C   0  0  0  0  0  0  0  0  0  0  0  0
   36.7040   21.1410   33.5990 C   0  0  0  0  0  0  0  0  0  0  0  0
   37.7240   21.8360   34.1740 N   0  0  0  0  0  0  0  0  0  0  0  0
   37.7760   22.0930   35.4990 C   0  0  0  0  0  0  0  0  0  0  0  0
   36.8090   21.6620   36.3060 N   0  0  0  0  0  0  0  0  0  0  0  0
   38.8690   22.8160   36.0040 N   0  0  0  0  0  0  0  0  0  0  0  0
   39.3470   22.6380   37.3860 C   0  0  0  0  0  0  0  0  0  0  0  0
   40.7990   22.3080   37.3760 C   0  0  0  0  0  0  0  0  0  0  0  0
   41.4490   22.4560   36.1360 N   0  0  0  0  0  0  0  0  0  0  0  0
   41.0390   23.5830   35.3620 C   0  0  0  0  0  0  0  0  0  0  0  0
   39.5980   23.7760   35.2230 C   0  0  2  0  0  0  0  0  0  0  0  0
   35.0200   20.6490   36.5050 H   0  0  0  0  0  0  0  0  0  0  0  0
   34.8300   20.1230   34.0690 H   0  0  0  0  0  0  0  0  0  0  0  0
   36.6590   20.9340   32.5380 H   0  0  0  0  0  0  0  0  0  0  0  0
   39.2250   23.6490   37.8520 H   0  0  0  0  0  0  0  0  0  0  0  0
   38.7200   21.9290   37.9490 H   0  0  0  0  0  0  0  0  0  0  0  0
   41.3620   22.9140   38.1320 H   0  0  0  0  0  0  0  0  0  0  0  0
   40.8970   21.2520   37.6950 H   0  0  0  0  0  0  0  0  0  0  0  0
   42.4620   22.3750   36.2190 H   0  0  0  0  0  0  0  0  0  0  0  0
   41.4570   24.2960   36.1370 H   0  0  0  0  0  0  0  0  0  0  0  0
   41.6230   23.6270   34.4250 H   0  0  0  0  0  0  0  0  0  0  0  0
   39.3060   23.6840   34.1390 H   0  0  0  0  0  0  0  0  0  0  0  0
   39.2300   25.0950   35.6350 N   0  0  2  0  0  0  0  0  0  0  0  0
   37.7900   25.3180   35.6630 C   0  0  0  0  0  0  0  0  0  0  0  0
   37.5940   26.8060   35.4580 C   0  0  0  0  0  0  0  0  0  0  0  0
   38.9550   27.3450   35.3360 C   0  0  0  0  0  0  0  0  0  0  0  0
   39.8060   26.1440   34.8840 C   0  0  2  0  0  0  0  0  0  0  0  0
   37.4930   25.0010   36.6990 H   0  0  0  0  0  0  0  0  0  0  0  0
   37.2140   24.6790   35.0010 H   0  0  0  0  0  0  0  0  0  0  0  0
   37.0840   27.1810   36.3980 H   0  0  0  0  0  0  0  0  0  0  0  0
   36.8600   27.0630   34.6780 H   0  0  0  0  0  0  0  0  0  0  0  0
   39.2680   27.6910   36.3680 H   0  0  0  0  0  0  0  0  0  0  0  0
   39.1230   28.2060   34.6980 H   0  0  0  0  0  0  0  0  0  0  0  0
   40.8050   26.5230   35.2670 H   0  0  0  0  0  0  0  0  0  0  0  0
   39.7250   26.1320   33.5000 N   0  0  2  0  0  0  0  0  0  0  0  0
   41.0100   26.0250   32.8390 C   0  0  0  0  0  2  0  0  0  0  0  0
   40.4950   25.4630   31.4990 C   0  0  0  0  0  2  0  0  0  0  0  0
   39.2140   26.2960   31.3390 C   0  0  0  0  0  2  0  0  0  0  0  0
   39.0910   27.0460   32.6890 C   0  0  0  0  0  3  0  0  0  0  0  0
   38.0090   27.2090   32.7690 H   0  0  0  0  0  0  0  0  0  0  0  0
  1  6  1  0  0  0  0
  1 13  1  0  0  0  0
  2  1  2  0  0  0  0
  3  4  2  0  0  0  0
  3  2  1  0  0  0  0
  4  5  1  0  0  0  0
  5  7  1  0  0  0  0
  5  6  2  0  0  0  0
  7  8  1  0  0  0  0
  8 16  1  0  0  0  0
  8 17  1  0  0  0  0
  9  8  1  0  0  0  0
  9 19  1  0  0  0  0
  9 18  1  0  0  0  0
 10 20  1  0  0  0  0
 10  9  1  0  0  0  0
 11 10  1  0  0  0  0
 11 21  1  0  0  0  0
 12 23  1  6  0  0  0
 12 11  1  0  0  0  0
 12 24  1  0  0  0  0
 12  7  1  0  0  0  0
 14  2  1  0  0  0  0
 15  3  1  0  0  0  0
 22 11  1  0  0  0  0
 24 25  1  6  0  0  0
 25 29  1  0  0  0  0
 26 25  1  0  0  0  0
 26 31  1  0  0  0  0
 27 26  1  0  0  0  0
 27 33  1  0  0  0  0
 28 35  1  1  0  0  0
 28 27  1  0  0  0  0
 28 24  1  0  0  0  0
 30 25  1  0  0  0  0
 32 26  1  0  0  0  0
 34 27  1  0  0  0  0
 36 37  1  6  0  0  0
 36 28  1  0  0  0  0
 38 37  1  0  0  0  0
 39 38  1  0  0  0  0
 39 40  1  0  0  0  0
 40 41  1  0  0  0  0
 40 36  1  0  0  0  0
M  END
>  <minimizedAffinity>
-5.38005209

$$$$

 OpenBabel03272505533D

 41 44  0  0  1  0  0  0  0  0999 V2000
   41.8610   26.1880   34.2320 C   0  0  0  0  0  0  0  0  0  0  0  0
   40.9630   27.1980   33.7970 C   0  0  0  0  0  0  0  0  0  0  0  0
   39.6010   26.9680   33.9930 C   0  0  0  0  0  0  0  0  0  0  0  0
   39.2260   25.8000   34.5850 N   0  0  0  0  0  0  0  0  0  0  0  0
   40.1150   24.8660   34.9830 C   0  0  0  0  0  0  0  0  0  0  0  0
   41.4200   25.0620   34.8080 N   0  0  0  0  0  0  0  0  0  0  0  0
   39.6360   23.6910   35.5870 N   0  0  0  0  0  0  0  0  0  0  0  0
   40.4400   22.9370   36.5630 C   0  0  0  0  0  0  0  0  0  0  0  0
   39.6620   22.7560   37.8200 C   0  0  0  0  0  0  0  0  0  0  0  0
   38.3020   23.1130   37.7520 N   0  0  0  0  0  0  0  0  0  0  0  0
   37.6420   22.7760   36.5310 C   0  0  0  0  0  0  0  0  0  0  0  0
   38.3400   23.1400   35.3020 C   0  0  2  0  0  0  0  0  0  0  0  0
   42.9250   26.2950   34.1140 H   0  0  0  0  0  0  0  0  0  0  0  0
   41.3610   28.0840   33.3410 H   0  0  0  0  0  0  0  0  0  0  0  0
   38.8910   27.7190   33.6720 H   0  0  0  0  0  0  0  0  0  0  0  0
   40.5720   21.9300   36.0900 H   0  0  0  0  0  0  0  0  0  0  0  0
   41.4390   23.3780   36.7020 H   0  0  0  0  0  0  0  0  0  0  0  0
   39.7210   21.7000   38.1900 H   0  0  0  0  0  0  0  0  0  0  0  0
   40.1460   23.3800   38.5970 H   0  0  0  0  0  0  0  0  0  0  0  0
   37.7840   22.8220   38.5810 H   0  0  0  0  0  0  0  0  0  0  0  0
   37.7700   21.6690   36.7420 H   0  0  0  0  0  0  0  0  0  0  0  0
   36.5790   23.0700   36.5860 H   0  0  0  0  0  0  0  0  0  0  0  0
   37.7270   23.8890   34.7250 H   0  0  0  0  0  0  0  0  0  0  0  0
   38.4910   21.9970   34.4560 N   0  0  2  0  0  0  0  0  0  0  0  0
   39.7680   21.9530   33.7550 C   0  0  0  0  0  0  0  0  0  0  0  0
   39.5250   21.1470   32.4960 C   0  0  0  0  0  0  0  0  0  0  0  0
   38.1080   20.7680   32.5660 C   0  0  0  0  0  0  0  0  0  0  0  0
   37.4730   21.8220   33.4920 C   0  0  2  0  0  0  0  0  0  0  0  0
   40.4440   21.4090   34.4700 H   0  0  0  0  0  0  0  0  0  0  0  0
   40.2420   22.9180   33.6040 H   0  0  0  0  0  0  0  0  0  0  0  0
   40.1990   20.2390   32.5770 H   0  0  0  0  0  0  0  0  0  0  0  0
   39.8910   21.6250   31.5740 H   0  0  0  0  0  0  0  0  0  0  0  0
   38.0630   19.7410   33.0410 H   0  0  0  0  0  0  0  0  0  0  0  0
   37.5450   20.6660   31.6450 H   0  0  0  0  0  0  0  0  0  0  0  0
   36.5860   21.2000   33.8310 H   0  0  0  0  0  0  0  0  0  0  0  0
   37.1140   22.8740   32.6650 N   0  0  2  0  0  0  0  0  0  0  0  0
   36.0600   22.5490   31.7250 C   0  0  0  0  0  2  0  0  0  0  0  0
   35.5730   23.9880   31.4690 C   0  0  0  0  0  2  0  0  0  0  0  0
   36.9230   24.7210   31.4340 C   0  0  0  0  0  2  0  0  0  0  0  0
   37.9410   23.6380   31.8710 C   0  0  0  0  0  3  0  0  0  0  0  0
   38.7450   24.2380   32.3160 H   0  0  0  0  0  0  0  0  0  0  0  0
  1  6  1  0  0  0  0
  2  3  1  0  0  0  0
  2  1  2  0  0  0  0
  3  4  2  0  0  0  0
  4  5  1  0  0  0  0
  5  7  1  0  0  0  0
  6  5  2  0  0  0  0
  7  8  1  0  0  0  0
  8 17  1  0  0  0  0
  8  9  1  0  0  0  0
  9 18  1  0  0  0  0
  9 19  1  0  0  0  0
 10  9  1  0  0  0  0
 10 20  1  0  0  0  0
 11 22  1  0  0  0  0
 11 21  1  0  0  0  0
 11 10  1  0  0  0  0
 12 23  1  6  0  0  0
 12  7  1  0  0  0  0
 12 11  1  0  0  0  0
 13  1  1  0  0  0  0
 14  2  1  0  0  0  0
 15  3  1  0  0  0  0
 16  8  1  0  0  0  0
 24 25  1  6  0  0  0
 24 12  1  0  0  0  0
 25 29  1  0  0  0  0
 26 27  1  0  0  0  0
 26 31  1  0  0  0  0
 26 25  1  0  0  0  0
 27 33  1  0  0  0  0
 27 28  1  0  0  0  0
 28 35  1  1  0  0  0
 28 24  1  0  0  0  0
 30 25  1  0  0  0  0
 32 26  1  0  0  0  0
 34 27  1  0  0  0  0
 36 37  1  6  0  0  0
 36 28  1  0  0  0  0
 38 37  1  0  0  0  0
 39 38  1  0  0  0  0
 39 40  1  0  0  0  0
 40 41  1  0  0  0  0
 40 36  1  0  0  0  0
M  END
>  <minimizedAffinity>
-5.27243376

$$$$

 OpenBabel03272505533D

 41 44  0  0  1  0  0  0  0  0999 V2000
   39.8290   22.7520   37.9190 C   0  0  0  0  0  0  0  0  0  0  0  0
   38.8040   23.3840   38.6700 C   0  0  0  0  0  0  0  0  0  0  0  0
   37.7740   23.9970   37.9540 C   0  0  0  0  0  0  0  0  0  0  0  0
   37.8200   23.9470   36.5940 N   0  0  0  0  0  0  0  0  0  0  0  0
   38.8160   23.3340   35.9200 C   0  0  0  0  0  0  0  0  0  0  0  0
   39.8100   22.7420   36.5790 N   0  0  0  0  0  0  0  0  0  0  0  0
   38.7800   23.3310   34.5150 N   0  0  0  0  0  0  0  0  0  0  0  0
   39.3970   22.2530   33.7250 C   0  0  0  0  0  0  0  0  0  0  0  0
   38.3890   21.6720   32.7960 C   0  0  0  0  0  0  0  0  0  0  0  0
   37.1780   22.3820   32.6890 N   0  0  0  0  0  0  0  0  0  0  0  0
   37.3000   23.8040   32.7010 C   0  0  0  0  0  0  0  0  0  0  0  0
   38.1460   24.3680   33.7490 C   0  0  2  0  0  0  0  0  0  0  0  0
   40.6550   22.2590   38.4010 H   0  0  0  0  0  0  0  0  0  0  0  0
   38.8600   23.3680   39.7410 H   0  0  0  0  0  0  0  0  0  0  0  0
   36.9780   24.4880   38.4970 H   0  0  0  0  0  0  0  0  0  0  0  0
   40.1750   22.7730   33.1100 H   0  0  0  0  0  0  0  0  0  0  0  0
   39.9100   21.5160   34.3630 H   0  0  0  0  0  0  0  0  0  0  0  0
   38.8050   21.5500   31.7630 H   0  0  0  0  0  0  0  0  0  0  0  0
   38.1610   20.6490   33.1570 H   0  0  0  0  0  0  0  0  0  0  0  0
   36.5930   22.0360   31.9290 H   0  0  0  0  0  0  0  0  0  0  0  0
   37.8580   23.7870   31.7140 H   0  0  0  0  0  0  0  0  0  0  0  0
   36.3030   24.2670   32.5860 H   0  0  0  0  0  0  0  0  0  0  0  0
   37.5250   25.0170   34.4290 H   0  0  0  0  0  0  0  0  0  0  0  0
   39.1500   25.2130   33.1800 N   0  0  2  0  0  0  0  0  0  0  0  0
   40.0230   25.8300   34.1700 C   0  0  0  0  0  0  0  0  0  0  0  0
   40.5310   27.1090   33.5380 C   0  0  0  0  0  0  0  0  0  0  0  0
   39.9130   27.1340   32.2050 C   0  0  0  0  0  0  0  0  0  0  0  0
   38.6660   26.2420   32.3410 C   0  0  2  0  0  0  0  0  0  0  0  0
   40.8490   25.0780   34.3000 H   0  0  0  0  0  0  0  0  0  0  0  0
   39.5900   25.9410   35.1590 H   0  0  0  0  0  0  0  0  0  0  0  0
   41.6560   26.9930   33.4690 H   0  0  0  0  0  0  0  0  0  0  0  0
   40.4280   28.0020   34.1750 H   0  0  0  0  0  0  0  0  0  0  0  0
   40.6580   26.6730   31.4860 H   0  0  0  0  0  0  0  0  0  0  0  0
   39.6640   28.0910   31.7600 H   0  0  0  0  0  0  0  0  0  0  0  0
   38.5650   25.9660   31.2450 H   0  0  0  0  0  0  0  0  0  0  0  0
   37.6560   27.0810   32.7850 N   0  0  2  0  0  0  0  0  0  0  0  0
   37.3990   28.2040   31.9080 C   0  0  0  0  0  2  0  0  0  0  0  0
   35.9570   28.4900   32.3720 C   0  0  0  0  0  2  0  0  0  0  0  0
   36.1160   28.2580   33.8820 C   0  0  0  0  0  2  0  0  0  0  0  0
   37.5500   27.6860   34.0180 C   0  0  0  0  0  3  0  0  0  0  0  0
   37.4760   27.0830   34.9320 H   0  0  0  0  0  0  0  0  0  0  0  0
  1 13  1  0  0  0  0
  1  2  1  0  0  0  0
  2 14  1  0  0  0  0
  3 15  1  0  0  0  0
  3  2  2  0  0  0  0
  4  3  1  0  0  0  0
  5  6  1  0  0  0  0
  5  4  2  0  0  0  0
  6  1  2  0  0  0  0
  7  5  1  0  0  0  0
  8 17  1  0  0  0  0
  8  7  1  0  0  0  0
  9 19  1  0  0  0  0
  9  8  1  0  0  0  0
 10 11  1  0  0  0  0
 10  9  1  0  0  0  0
 11 12  1  0  0  0  0
 12 23  1  1  0  0  0
 12  7  1  0  0  0  0
 16  8  1  0  0  0  0
 18  9  1  0  0  0  0
 20 10  1  0  0  0  0
 21 11  1  0  0  0  0
 22 11  1  0  0  0  0
 24 12  1  0  0  0  0
 24 25  1  1  0  0  0
 25 29  1  0  0  0  0
 25 30  1  0  0  0  0
 26 25  1  0  0  0  0
 26 32  1  0  0  0  0
 27 28  1  0  0  0  0
 27 26  1  0  0  0  0
 28 35  1  6  0  0  0
 28 36  1  0  0  0  0
 28 24  1  0  0  0  0
 31 26  1  0  0  0  0
 33 27  1  0  0  0  0
 34 27  1  0  0  0  0
 36 37  1  6  0  0  0
 36 40  1  0  0  0  0
 37 38  1  0  0  0  0
 38 39  1  0  0  0  0
 39 40  1  0  0  0  0
 40 41  1  0  0  0  0
M  END
>  <minimizedAffinity>
-5.26267862

$$$$

 OpenBabel03272505533D

 41 44  0  0  1  0  0  0  0  0999 V2000
   35.8900   21.0530   35.7940 C   0  0  0  0  0  0  0  0  0  0  0  0
   35.6030   20.6720   34.4570 C   0  0  0  0  0  0  0  0  0  0  0  0
   36.5350   21.0240   33.4790 C   0  0  0  0  0  0  0  0  0  0  0  0
   37.6500   21.7010   33.8700 N   0  0  0  0  0  0  0  0  0  0  0  0
   37.8820   22.0440   35.1550 C   0  0  0  0  0  0  0  0  0  0  0  0
   37.0090   21.7200   36.1060 N   0  0  0  0  0  0  0  0  0  0  0  0
   39.0610   22.7420   35.4660 N   0  0  0  0  0  0  0  0  0  0  0  0
   39.7040   22.6320   36.7860 C   0  0  0  0  0  0  0  0  0  0  0  0
   41.1270   22.2270   36.6200 C   0  0  0  0  0  0  0  0  0  0  0  0
   41.6190   22.2560   35.3010 N   0  0  0  0  0  0  0  0  0  0  0  0
   41.1620   23.3480   34.5030 C   0  0  0  0  0  0  0  0  0  0  0  0
   39.7250   23.6070   34.5310 C   0  0  2  0  0  0  0  0  0  0  0  0
   35.2180   20.8180   36.6000 H   0  0  0  0  0  0  0  0  0  0  0  0
   34.6940   20.1390   34.2520 H   0  0  0  0  0  0  0  0  0  0  0  0
   36.3460   20.7480   32.4510 H   0  0  0  0  0  0  0  0  0  0  0  0
   39.6870   23.6770   37.1880 H   0  0  0  0  0  0  0  0  0  0  0  0
   39.1240   21.9970   37.4740 H   0  0  0  0  0  0  0  0  0  0  0  0
   41.8080   22.8510   37.2530 H   0  0  0  0  0  0  0  0  0  0  0  0
   41.2190   21.1900   37.0020 H   0  0  0  0  0  0  0  0  0  0  0  0
   42.6300   22.1280   35.2630 H   0  0  0  0  0  0  0  0  0  0  0  0
   41.7070   24.0890   35.1650 H   0  0  0  0  0  0  0  0  0  0  0  0
   41.6230   23.2980   33.5000 H   0  0  0  0  0  0  0  0  0  0  0  0
   39.2930   23.4570   33.5010 H   0  0  0  0  0  0  0  0  0  0  0  0
   39.4700   24.9680   34.8880 N   0  0  2  0  0  0  0  0  0  0  0  0
   38.4560   25.1210   35.9220 C   0  0  0  0  0  0  0  0  0  0  0  0
   37.8520   26.4950   35.7160 C   0  0  0  0  0  0  0  0  0  0  0  0
   38.5800   27.0490   34.5660 C   0  0  0  0  0  0  0  0  0  0  0  0
   39.1120   25.8150   33.8150 C   0  0  2  0  0  0  0  0  0  0  0  0
   39.0430   25.0680   36.8790 H   0  0  0  0  0  0  0  0  0  0  0  0
   37.7420   24.3060   35.9890 H   0  0  0  0  0  0  0  0  0  0  0  0
   38.0760   27.0740   36.6630 H   0  0  0  0  0  0  0  0  0  0  0  0
   36.7510   26.5070   35.6900 H   0  0  0  0  0  0  0  0  0  0  0  0
   39.4360   27.6640   34.9810 H   0  0  0  0  0  0  0  0  0  0  0  0
   38.0620   27.7240   33.8940 H   0  0  0  0  0  0  0  0  0  0  0  0
   39.9780   26.3280   33.2910 H   0  0  0  0  0  0  0  0  0  0  0  0
   38.0970   25.4430   32.9470 N   0  0  2  0  0  0  0  0  0  0  0  0
   38.5610   25.0660   31.6280 C   0  0  0  0  0  2  0  0  0  0  0  0
   37.3430   24.2100   31.2280 C   0  0  0  0  0  2  0  0  0  0  0  0
   36.2140   25.0680   31.8180 C   0  0  0  0  0  2  0  0  0  0  0  0
   36.9620   26.1560   32.6280 C   0  0  0  0  0  3  0  0  0  0  0  0
   36.2300   26.4170   33.4020 H   0  0  0  0  0  0  0  0  0  0  0  0
  1  6  1  0  0  0  0
  1 13  1  0  0  0  0
  2  1  2  0  0  0  0
  3  4  2  0  0  0  0
  3  2  1  0  0  0  0
  4  5  1  0  0  0  0
  5  7  1  0  0  0  0
  5  6  2  0  0  0  0
  7  8  1  0  0  0  0
  8 16  1  0  0  0  0
  8 17  1  0  0  0  0
  9  8  1  0  0  0  0
  9 19  1  0  0  0  0
  9 18  1  0  0  0  0
 10  9  1  0  0  0  0
 11 12  1  0  0  0  0
 11 21  1  0  0  0  0
 11 10  1  0  0  0  0
 12 23  1  6  0  0  0
 12 24  1  0  0  0  0
 12  7  1  0  0  0  0
 14  2  1  0  0  0  0
 15  3  1  0  0  0  0
 20 10  1  0  0  0  0
 22 11  1  0  0  0  0
 24 25  1  1  0  0  0
 25 30  1  0  0  0  0
 25 29  1  0  0  0  0
 26 25  1  0  0  0  0
 26 31  1  0  0  0  0
 27 33  1  0  0  0  0
 27 26  1  0  0  0  0
 28 35  1  6  0  0  0
 28 27  1  0  0  0  0
 28 24  1  0  0  0  0
 32 26  1  0  0  0  0
 34 27  1  0  0  0  0
 36 37  1  6  0  0  0
 36 28  1  0  0  0  0
 38 37  1  0  0  0  0
 38 39  1  0  0  0  0
 39 40  1  0  0  0  0
 40 36  1  0  0  0  0
 40 41  1  0  0  0  0
M  END
>  <minimizedAffinity>
-5.25417137

$$$$

 OpenBabel03272505533D

 41 44  0  0  1  0  0  0  0  0999 V2000
   37.8380   24.4180   37.3560 C   0  0  0  0  0  0  0  0  0  0  0  0
   37.5150   23.0830   36.9980 C   0  0  0  0  0  0  0  0  0  0  0  0
   37.8810   22.6590   35.7200 C   0  0  0  0  0  0  0  0  0  0  0  0
   38.5200   23.5460   34.9080 N   0  0  0  0  0  0  0  0  0  0  0  0
   38.8070   24.8080   35.2900 C   0  0  0  0  0  0  0  0  0  0  0  0
   38.4690   25.2370   36.5040 N   0  0  0  0  0  0  0  0  0  0  0  0
   39.4700   25.6540   34.3850 N   0  0  0  0  0  0  0  0  0  0  0  0
   40.3400   26.7510   34.8410 C   0  0  0  0  0  0  0  0  0  0  0  0
   41.6850   26.6160   34.2170 C   0  0  0  0  0  0  0  0  0  0  0  0
   41.7870   25.6610   33.1880 N   0  0  0  0  0  0  0  0  0  0  0  0
   40.6600   25.5810   32.3150 C   0  0  0  0  0  0  0  0  0  0  0  0
   39.3520   25.5180   32.9600 C   0  0  2  0  0  0  0  0  0  0  0  0
   37.5870   24.8150   38.3240 H   0  0  0  0  0  0  0  0  0  0  0  0
   37.0100   22.4620   37.7130 H   0  0  0  0  0  0  0  0  0  0  0  0
   37.6490   21.6460   35.4170 H   0  0  0  0  0  0  0  0  0  0  0  0
   39.8590   27.6740   34.4300 H   0  0  0  0  0  0  0  0  0  0  0  0
   40.3510   26.8370   35.9390 H   0  0  0  0  0  0  0  0  0  0  0  0
   42.0490   27.5950   33.8120 H   0  0  0  0  0  0  0  0  0  0  0  0
   42.3940   26.3360   35.0220 H   0  0  0  0  0  0  0  0  0  0  0  0
   42.6750   25.7220   32.6910 H   0  0  0  0  0  0  0  0  0  0  0  0
   40.8570   26.6290   31.9290 H   0  0  0  0  0  0  0  0  0  0  0  0
   40.8470   24.8270   31.5300 H   0  0  0  0  0  0  0  0  0  0  0  0
   38.8540   24.5380   32.7110 H   0  0  0  0  0  0  0  0  0  0  0  0
   38.4970   26.5490   32.4580 N   0  0  2  0  0  0  0  0  0  0  0  0
   37.5730   27.0780   33.4520 C   0  0  0  0  0  0  0  0  0  0  0  0
   36.3840   27.6070   32.6780 C   0  0  0  0  0  0  0  0  0  0  0  0
   36.7170   27.3520   31.2700 C   0  0  0  0  0  0  0  0  0  0  0  0
   37.7390   26.2020   31.3180 C   0  0  2  0  0  0  0  0  0  0  0  0
   38.1540   27.9100   33.9370 H   0  0  0  0  0  0  0  0  0  0  0  0
   37.3330   26.3980   34.2640 H   0  0  0  0  0  0  0  0  0  0  0  0
   36.3440   28.7180   32.8970 H   0  0  0  0  0  0  0  0  0  0  0  0
   35.4080   27.2610   33.0530 H   0  0  0  0  0  0  0  0  0  0  0  0
   37.1960   28.2960   30.8660 H   0  0  0  0  0  0  0  0  0  0  0  0
   35.9150   27.1350   30.5720 H   0  0  0  0  0  0  0  0  0  0  0  0
   38.2390   26.4110   30.3210 H   0  0  0  0  0  0  0  0  0  0  0  0
   36.9870   25.0370   31.3140 N   0  0  2  0  0  0  0  0  0  0  0  0
   37.5740   23.9620   30.5400 C   0  0  0  0  0  2  0  0  0  0  0  0
   36.8460   22.7970   31.2380 C   0  0  0  0  0  2  0  0  0  0  0  0
   35.4550   23.4240   31.4150 C   0  0  0  0  0  2  0  0  0  0  0  0
   35.6580   24.8980   30.9830 C   0  0  0  0  0  3  0  0  0  0  0  0
   34.8810   25.4190   31.5570 H   0  0  0  0  0  0  0  0  0  0  0  0
  1 13  1  0  0  0  0
  2  1  1  0  0  0  0
  2 14  1  0  0  0  0
  3  2  2  0  0  0  0
  4  5  2  0  0  0  0
  4  3  1  0  0  0  0
  5  6  1  0  0  0  0
  6  1  2  0  0  0  0
  7  8  1  0  0  0  0
  7  5  1  0  0  0  0
  8 17  1  0  0  0  0
  9  8  1  0  0  0  0
  9 19  1  0  0  0  0
 10  9  1  0  0  0  0
 11 12  1  0  0  0  0
 11 10  1  0  0  0  0
 12 23  1  6  0  0  0
 12  7  1  0  0  0  0
 15  3  1  0  0  0  0
 16  8  1  0  0  0  0
 18  9  1  0  0  0  0
 20 10  1  0  0  0  0
 21 11  1  0  0  0  0
 22 11  1  0  0  0  0
 24 12  1  0  0  0  0
 24 25  1  1  0  0  0
 25 29  1  0  0  0  0
 25 30  1  0  0  0  0
 26 31  1  0  0  0  0
 26 32  1  0  0  0  0
 26 25  1  0  0  0  0
 27 28  1  0  0  0  0
 27 26  1  0  0  0  0
 28 35  1  6  0  0  0
 28 24  1  0  0  0  0
 33 27  1  0  0  0  0
 34 27  1  0  0  0  0
 36 37  1  6  0  0  0
 36 28  1  0  0  0  0
 37 38  1  0  0  0  0
 38 39  1  0  0  0  0
 40 36  1  0  0  0  0
 40 39  1  0  0  0  0
 40 41  1  0  0  0  0
M  END
>  <minimizedAffinity>
-5.16982222

$$$$

 OpenBabel03272505533D

 41 44  0  0  1  0  0  0  0  0999 V2000
   36.5390   28.5950   32.1490 C   0  0  0  0  0  0  0  0  0  0  0  0
   35.7990   28.8380   33.3360 C   0  0  0  0  0  0  0  0  0  0  0  0
   36.3020   28.3030   34.5230 C   0  0  0  0  0  0  0  0  0  0  0  0
   37.4610   27.5910   34.4650 N   0  0  0  0  0  0  0  0  0  0  0  0
   38.1330   27.3840   33.3120 C   0  0  0  0  0  0  0  0  0  0  0  0
   37.6740   27.8830   32.1670 N   0  0  0  0  0  0  0  0  0  0  0  0
   39.3220   26.6360   33.3490 N   0  0  0  0  0  0  0  0  0  0  0  0
   40.4030   26.8480   32.3710 C   0  0  0  0  0  0  0  0  0  0  0  0
   41.6800   27.1190   33.0870 C   0  0  0  0  0  0  0  0  0  0  0  0
   41.6590   26.8970   34.4770 N   0  0  0  0  0  0  0  0  0  0  0  0
   40.9100   25.7590   34.9030 C   0  0  0  0  0  0  0  0  0  0  0  0
   39.5740   25.6190   34.3310 C   0  0  2  0  0  0  0  0  0  0  0  0
   36.2130   28.9750   31.1970 H   0  0  0  0  0  0  0  0  0  0  0  0
   34.8950   29.4140   33.2750 H   0  0  0  0  0  0  0  0  0  0  0  0
   35.7610   28.4710   35.4440 H   0  0  0  0  0  0  0  0  0  0  0  0
   40.5000   25.8620   31.8500 H   0  0  0  0  0  0  0  0  0  0  0  0
   40.1320   27.6030   31.6160 H   0  0  0  0  0  0  0  0  0  0  0  0
   42.5250   26.5210   32.6580 H   0  0  0  0  0  0  0  0  0  0  0  0
   41.9370   28.1820   32.9090 H   0  0  0  0  0  0  0  0  0  0  0  0
   42.5910   26.9410   34.8890 H   0  0  0  0  0  0  0  0  0  0  0  0
   41.6350   25.0600   34.3830 H   0  0  0  0  0  0  0  0  0  0  0  0
   40.9770   25.6550   36.0010 H   0  0  0  0  0  0  0  0  0  0  0  0
   38.8030   25.6800   35.1490 H   0  0  0  0  0  0  0  0  0  0  0  0
   39.4240   24.3320   33.7240 N   0  0  2  0  0  0  0  0  0  0  0  0
   38.1500   24.1540   33.0390 C   0  0  0  0  0  0  0  0  0  0  0  0
   37.8750   22.6660   33.0500 C   0  0  0  0  0  0  0  0  0  0  0  0
   39.0310   22.0800   33.7410 C   0  0  0  0  0  0  0  0  0  0  0  0
   39.5940   23.2320   34.5940 C   0  0  2  0  0  0  0  0  0  0  0  0
   38.3550   24.5290   31.9980 H   0  0  0  0  0  0  0  0  0  0  0  0
   37.3410   24.7790   33.4050 H   0  0  0  0  0  0  0  0  0  0  0  0
   37.8420   22.3510   31.9610 H   0  0  0  0  0  0  0  0  0  0  0  0
   36.8670   22.3930   33.4000 H   0  0  0  0  0  0  0  0  0  0  0  0
   39.7740   21.7740   32.9430 H   0  0  0  0  0  0  0  0  0  0  0  0
   38.8890   21.1850   34.3360 H   0  0  0  0  0  0  0  0  0  0  0  0
   40.6560   22.8420   34.6800 H   0  0  0  0  0  0  0  0  0  0  0  0
   38.8980   23.1810   35.7910 N   0  0  2  0  0  0  0  0  0  0  0  0
   39.7190   22.8330   36.9330 C   0  0  0  0  0  2  0  0  0  0  0  0
   38.8130   23.4440   38.0200 C   0  0  0  0  0  2  0  0  0  0  0  0
   37.4350   23.0500   37.4660 C   0  0  0  0  0  2  0  0  0  0  0  0
   37.7550   22.4650   36.0670 C   0  0  0  0  0  3  0  0  0  0  0  0
   36.8260   22.6580   35.5150 H   0  0  0  0  0  0  0  0  0  0  0  0
  1  6  2  0  0  0  0
  1  2  1  0  0  0  0
  2  3  2  0  0  0  0
  3 15  1  0  0  0  0
  4  3  1  0  0  0  0
  5  7  1  0  0  0  0
  5  4  2  0  0  0  0
  6  5  1  0  0  0  0
  7 12  1  0  0  0  0
  8  9  1  0  0  0  0
  8  7  1  0  0  0  0
  9 10  1  0  0  0  0
 10 20  1  0  0  0  0
 10 11  1  0  0  0  0
 11 22  1  0  0  0  0
 12 11  1  0  0  0  0
 12 23  1  1  0  0  0
 13  1  1  0  0  0  0
 14  2  1  0  0  0  0
 16  8  1  0  0  0  0
 17  8  1  0  0  0  0
 18  9  1  0  0  0  0
 19  9  1  0  0  0  0
 21 11  1  0  0  0  0
 24 25  1  1  0  0  0
 24 12  1  0  0  0  0
 24 28  1  0  0  0  0
 25 26  1  0  0  0  0
 25 30  1  0  0  0  0
 26 32  1  0  0  0  0
 26 27  1  0  0  0  0
 27 34  1  0  0  0  0
 27 28  1  0  0  0  0
 28 35  1  1  0  0  0
 28 36  1  0  0  0  0
 29 25  1  0  0  0  0
 31 26  1  0  0  0  0
 33 27  1  0  0  0  0
 36 40  1  0  0  0  0
 36 37  1  1  0  0  0
 37 38  1  0  0  0  0
 39 38  1  0  0  0  0
 40 39  1  0  0  0  0
 41 40  1  0  0  0  0
M  END
>  <minimizedAffinity>
-5.12105751

$$$$

 OpenBabel03272505533D

 41 44  0  0  1  0  0  0  0  0999 V2000
   36.9870   29.8130   29.7510 C   0  0  0  0  0  0  0  0  0  0  0  0
   38.3280   29.8380   29.2860 C   0  0  0  0  0  0  0  0  0  0  0  0
   39.1190   28.7200   29.5590 C   0  0  0  0  0  0  0  0  0  0  0  0
   38.5550   27.6880   30.2450 N   0  0  0  0  0  0  0  0  0  0  0  0
   37.2740   27.7070   30.6680 C   0  0  0  0  0  0  0  0  0  0  0  0
   36.4990   28.7610   30.4210 N   0  0  0  0  0  0  0  0  0  0  0  0
   36.7770   26.5950   31.3690 N   0  0  0  0  0  0  0  0  0  0  0  0
   35.3500   26.2320   31.3380 C   0  0  0  0  0  0  0  0  0  0  0  0
   35.2020   24.8160   30.9020 C   0  0  0  0  0  0  0  0  0  0  0  0
   36.3940   24.0700   30.8370 N   0  0  0  0  0  0  0  0  0  0  0  0
   37.3340   24.3290   31.8800 C   0  0  0  0  0  0  0  0  0  0  0  0
   37.6120   25.7350   32.1600 C   0  0  2  0  0  0  0  0  0  0  0  0
   36.3190   30.6380   29.5790 H   0  0  0  0  0  0  0  0  0  0  0  0
   38.6770   30.7010   28.7530 H   0  0  0  0  0  0  0  0  0  0  0  0
   40.1450   28.7080   29.2180 H   0  0  0  0  0  0  0  0  0  0  0  0
   35.0260   26.3000   32.4080 H   0  0  0  0  0  0  0  0  0  0  0  0
   34.7540   26.9540   30.7580 H   0  0  0  0  0  0  0  0  0  0  0  0
   34.4850   24.2580   31.5580 H   0  0  0  0  0  0  0  0  0  0  0  0
   34.7460   24.8290   29.8920 H   0  0  0  0  0  0  0  0  0  0  0  0
   36.2210   23.0760   30.6920 H   0  0  0  0  0  0  0  0  0  0  0  0
   36.6240   23.9070   32.6560 H   0  0  0  0  0  0  0  0  0  0  0  0
   38.2190   23.6790   31.7570 H   0  0  0  0  0  0  0  0  0  0  0  0
   38.6950   25.9570   31.9490 H   0  0  0  0  0  0  0  0  0  0  0  0
   37.3990   26.0190   33.5460 N   0  0  2  0  0  0  0  0  0  0  0  0
   37.1860   27.4320   33.8270 C   0  0  0  0  0  0  0  0  0  0  0  0
   37.6300   27.6450   35.2590 C   0  0  0  0  0  0  0  0  0  0  0  0
   38.0640   26.3170   35.7130 C   0  0  0  0  0  0  0  0  0  0  0  0
   38.4130   25.5620   34.4170 C   0  0  2  0  0  0  0  0  0  0  0  0
   36.0740   27.5590   33.7160 H   0  0  0  0  0  0  0  0  0  0  0  0
   37.6170   28.1140   33.1010 H   0  0  0  0  0  0  0  0  0  0  0  0
   36.7070   27.9910   35.8190 H   0  0  0  0  0  0  0  0  0  0  0  0
   38.3180   28.4930   35.3990 H   0  0  0  0  0  0  0  0  0  0  0  0
   37.1770   25.8360   36.2280 H   0  0  0  0  0  0  0  0  0  0  0  0
   38.8690   26.2470   36.4360 H   0  0  0  0  0  0  0  0  0  0  0  0
   38.2700   24.5110   34.8200 H   0  0  0  0  0  0  0  0  0  0  0  0
   39.7400   25.8670   34.1560 N   0  0  2  0  0  0  0  0  0  0  0  0
   40.5610   24.7110   33.8620 C   0  0  0  0  0  2  0  0  0  0  0  0
   41.6740   25.4500   33.0920 C   0  0  0  0  0  2  0  0  0  0  0  0
   41.7870   26.7200   33.9490 C   0  0  0  0  0  2  0  0  0  0  0  0
   40.6010   26.6040   34.9390 C   0  0  0  0  0  3  0  0  0  0  0  0
   40.3860   27.6550   35.1710 H   0  0  0  0  0  0  0  0  0  0  0  0
  1  6  1  0  0  0  0
  2  3  1  0  0  0  0
  2  1  2  0  0  0  0
  3  4  2  0  0  0  0
  4  5  1  0  0  0  0
  5  7  1  0  0  0  0
  6  5  2  0  0  0  0
  7 12  1  0  0  0  0
  8  7  1  0  0  0  0
  8 16  1  0  0  0  0
  9  8  1  0  0  0  0
  9 18  1  0  0  0  0
 10  9  1  0  0  0  0
 10 11  1  0  0  0  0
 11 12  1  0  0  0  0
 11 21  1  0  0  0  0
 12 23  1  6  0  0  0
 12 24  1  0  0  0  0
 13  1  1  0  0  0  0
 14  2  1  0  0  0  0
 15  3  1  0  0  0  0
 17  8  1  0  0  0  0
 19  9  1  0  0  0  0
 20 10  1  0  0  0  0
 22 11  1  0  0  0  0
 24 25  1  6  0  0  0
 24 28  1  0  0  0  0
 25 26  1  0  0  0  0
 26 32  1  0  0  0  0
 26 27  1  0  0  0  0
 26 31  1  0  0  0  0
 27 33  1  0  0  0  0
 27 34  1  0  0  0  0
 28 35  1  1  0  0  0
 28 27  1  0  0  0  0
 29 25  1  0  0  0  0
 30 25  1  0  0  0  0
 36 37  1  1  0  0  0
 36 28  1  0  0  0  0
 36 40  1  0  0  0  0
 38 37  1  0  0  0  0
 38 39  1  0  0  0  0
 39 40  1  0  0  0  0
 40 41  1  0  0  0  0
M  END
>  <minimizedAffinity>
-4.97347355

$$$$

 OpenBabel03272505533D

 41 44  0  0  1  0  0  0  0  0999 V2000
   37.8030   27.2620   31.0530 C   0  0  0  0  0  0  0  0  0  0  0  0
   39.1750   27.6130   30.9450 C   0  0  0  0  0  0  0  0  0  0  0  0
   40.1090   26.6810   31.4010 C   0  0  0  0  0  0  0  0  0  0  0  0
   39.6470   25.5070   31.9140 N   0  0  0  0  0  0  0  0  0  0  0  0
   38.3320   25.2160   31.9970 C   0  0  0  0  0  0  0  0  0  0  0  0
   37.4210   26.0860   31.5680 N   0  0  0  0  0  0  0  0  0  0  0  0
   37.9470   23.9780   32.5390 N   0  0  0  0  0  0  0  0  0  0  0  0
   36.6950   23.3110   32.1440 C   0  0  0  0  0  0  0  0  0  0  0  0
   36.9890   21.9290   31.6740 C   0  0  0  0  0  0  0  0  0  0  0  0
   38.2990   21.4710   31.9100 N   0  0  0  0  0  0  0  0  0  0  0  0
   38.8680   21.8620   33.1590 C   0  0  0  0  0  0  0  0  0  0  0  0
   38.7360   23.2730   33.5120 C   0  0  2  0  0  0  0  0  0  0  0  0
   37.0260   27.9290   30.7220 H   0  0  0  0  0  0  0  0  0  0  0  0
   39.4350   28.5650   30.5250 H   0  0  0  0  0  0  0  0  0  0  0  0
   41.1620   26.9190   31.3330 H   0  0  0  0  0  0  0  0  0  0  0  0
   36.1110   23.2360   33.0960 H   0  0  0  0  0  0  0  0  0  0  0  0
   36.1110   23.9210   31.4370 H   0  0  0  0  0  0  0  0  0  0  0  0
   36.2810   21.1850   32.1220 H   0  0  0  0  0  0  0  0  0  0  0  0
   36.8050   21.9080   30.5820 H   0  0  0  0  0  0  0  0  0  0  0  0
   38.4010   20.4750   31.7180 H   0  0  0  0  0  0  0  0  0  0  0  0
   38.1050   21.2440   33.7260 H   0  0  0  0  0  0  0  0  0  0  0  0
   39.8810   21.4330   33.2610 H   0  0  0  0  0  0  0  0  0  0  0  0
   39.7580   23.7420   33.5850 H   0  0  0  0  0  0  0  0  0  0  0  0
   38.1290   23.4120   34.7990 N   0  0  2  0  0  0  0  0  0  0  0  0
   38.1230   24.7800   35.2990 C   0  0  0  0  0  0  0  0  0  0  0  0
   38.0900   24.6740   36.8090 C   0  0  0  0  0  0  0  0  0  0  0  0
   38.0680   23.2300   37.0770 C   0  0  0  0  0  0  0  0  0  0  0  0
   38.6750   22.5930   35.8140 C   0  0  2  0  0  0  0  0  0  0  0  0
   37.1650   25.2060   34.8930 H   0  0  0  0  0  0  0  0  0  0  0  0
   38.9030   25.4190   34.8950 H   0  0  0  0  0  0  0  0  0  0  0  0
   37.1220   25.1680   37.1310 H   0  0  0  0  0  0  0  0  0  0  0  0
   38.8460   25.2870   37.3230 H   0  0  0  0  0  0  0  0  0  0  0  0
   36.9810   22.9310   37.1930 H   0  0  0  0  0  0  0  0  0  0  0  0
   38.5490   22.8550   37.9740 H   0  0  0  0  0  0  0  0  0  0  0  0
   38.1950   21.5710   35.9220 H   0  0  0  0  0  0  0  0  0  0  0  0
   40.0440   22.5760   36.0280 N   0  0  2  0  0  0  0  0  0  0  0  0
   40.4250   22.1330   37.3540 C   0  0  0  0  0  2  0  0  0  0  0  0
   41.8620   21.6950   37.0100 C   0  0  0  0  0  2  0  0  0  0  0  0
   42.2580   22.8250   36.0460 C   0  0  0  0  0  2  0  0  0  0  0  0
   40.9370   23.6070   35.8340 C   0  0  0  0  0  3  0  0  0  0  0  0
   41.0800   24.0420   34.8370 H   0  0  0  0  0  0  0  0  0  0  0  0
  1  6  1  0  0  0  0
  2  1  2  0  0  0  0
  2  3  1  0  0  0  0
  3  4  2  0  0  0  0
  4  5  1  0  0  0  0
  5  7  1  0  0  0  0
  6  5  2  0  0  0  0
  7 12  1  0  0  0  0
  8  7  1  0  0  0  0
  8 16  1  0  0  0  0
  9 10  1  0  0  0  0
  9 18  1  0  0  0  0
  9  8  1  0  0  0  0
 10 11  1  0  0  0  0
 11 22  1  0  0  0  0
 11 12  1  0  0  0  0
 11 21  1  0  0  0  0
 12 23  1  1  0  0  0
 12 24  1  0  0  0  0
 13  1  1  0  0  0  0
 14  2  1  0  0  0  0
 15  3  1  0  0  0  0
 17  8  1  0  0  0  0
 19  9  1  0  0  0  0
 20 10  1  0  0  0  0
 24 25  1  1  0  0  0
 24 28  1  0  0  0  0
 25 26  1  0  0  0  0
 26 27  1  0  0  0  0
 26 31  1  0  0  0  0
 26 32  1  0  0  0  0
 27 33  1  0  0  0  0
 27 34  1  0  0  0  0
 28 35  1  6  0  0  0
 28 36  1  0  0  0  0
 28 27  1  0  0  0  0
 29 25  1  0  0  0  0
 30 25  1  0  0  0  0
 36 37  1  1  0  0  0
 38 37  1  0  0  0  0
 39 38  1  0  0  0  0
 40 36  1  0  0  0  0
 40 39  1  0  0  0  0
 41 40  1  0  0  0  0
M  END
>  <minimizedAffinity>
-4.92242002

$$$$

 OpenBabel03272505533D

 41 44  0  0  1  0  0  0  0  0999 V2000
   35.2840   23.6730   31.4580 C   0  0  0  0  0  0  0  0  0  0  0  0
   35.5770   25.0030   31.0580 C   0  0  0  0  0  0  0  0  0  0  0  0
   36.8650   25.4770   31.3150 C   0  0  0  0  0  0  0  0  0  0  0  0
   37.7470   24.6400   31.9250 N   0  0  0  0  0  0  0  0  0  0  0  0
   37.4250   23.3810   32.2890 C   0  0  0  0  0  0  0  0  0  0  0  0
   36.2040   22.9040   32.0560 N   0  0  0  0  0  0  0  0  0  0  0  0
   38.4010   22.5860   32.9140 N   0  0  0  0  0  0  0  0  0  0  0  0
   38.3980   21.1180   32.8000 C   0  0  0  0  0  0  0  0  0  0  0  0
   39.7180   20.6520   32.2930 C   0  0  0  0  0  0  0  0  0  0  0  0
   40.7340   21.6260   32.2490 N   0  0  0  0  0  0  0  0  0  0  0  0
   40.7510   22.5400   33.3450 C   0  0  0  0  0  0  0  0  0  0  0  0
   39.4680   23.1380   33.7030 C   0  0  2  0  0  0  0  0  0  0  0  0
   34.3140   23.2390   31.2940 H   0  0  0  0  0  0  0  0  0  0  0  0
   34.8100   25.5830   30.5820 H   0  0  0  0  0  0  0  0  0  0  0  0
   37.1190   26.4870   31.0220 H   0  0  0  0  0  0  0  0  0  0  0  0
   38.2870   20.7610   33.8560 H   0  0  0  0  0  0  0  0  0  0  0  0
   37.5320   20.7520   32.2280 H   0  0  0  0  0  0  0  0  0  0  0  0
   40.1020   19.7840   32.8890 H   0  0  0  0  0  0  0  0  0  0  0  0
   39.5580   20.2700   31.2650 H   0  0  0  0  0  0  0  0  0  0  0  0
   41.6480   21.2210   32.0500 H   0  0  0  0  0  0  0  0  0  0  0  0
   41.0090   21.7050   34.0670 H   0  0  0  0  0  0  0  0  0  0  0  0
   41.5950   23.2440   33.2340 H   0  0  0  0  0  0  0  0  0  0  0  0
   39.5140   24.2540   33.5530 H   0  0  0  0  0  0  0  0  0  0  0  0
   39.1860   22.9240   35.0890 N   0  0  2  0  0  0  0  0  0  0  0  0
   37.8220   22.4810   35.3470 C   0  0  0  0  0  0  0  0  0  0  0  0
   37.4980   22.9280   36.7570 C   0  0  0  0  0  0  0  0  0  0  0  0
   38.7190   23.5970   37.2240 C   0  0  0  0  0  0  0  0  0  0  0  0
   39.4390   24.0290   35.9330 C   0  0  2  0  0  0  0  0  0  0  0  0
   37.8890   21.3610   35.2730 H   0  0  0  0  0  0  0  0  0  0  0  0
   37.0970   22.7660   34.5910 H   0  0  0  0  0  0  0  0  0  0  0  0
   37.2990   21.9780   37.3420 H   0  0  0  0  0  0  0  0  0  0  0  0
   36.5410   23.4650   36.8540 H   0  0  0  0  0  0  0  0  0  0  0  0
   39.3290   22.8220   37.7810 H   0  0  0  0  0  0  0  0  0  0  0  0
   38.6320   24.4240   37.9190 H   0  0  0  0  0  0  0  0  0  0  0  0
   40.4880   24.0800   36.3630 H   0  0  0  0  0  0  0  0  0  0  0  0
   38.9200   25.2750   35.6180 N   0  0  2  0  0  0  0  0  0  0  0  0
   39.9010   26.2050   35.0970 C   0  0  0  0  0  2  0  0  0  0  0  0
   38.9190   27.1350   34.3600 C   0  0  0  0  0  2  0  0  0  0  0  0
   37.7710   27.1680   35.3800 C   0  0  0  0  0  2  0  0  0  0  0  0
   38.1820   26.1060   36.4310 C   0  0  0  0  0  3  0  0  0  0  0  0
   37.2120   25.7820   36.8280 H   0  0  0  0  0  0  0  0  0  0  0  0
  1  6  1  0  0  0  0
  2  3  1  0  0  0  0
  2  1  2  0  0  0  0
  3  4  2  0  0  0  0
  4  5  1  0  0  0  0
  5  7  1  0  0  0  0
  6  5  2  0  0  0  0
  7 12  1  0  0  0  0
  8  7  1  0  0  0  0
  8 16  1  0  0  0  0
  9  8  1  0  0  0  0
  9 18  1  0  0  0  0
 10  9  1  0  0  0  0
 10 11  1  0  0  0  0
 11 12  1  0  0  0  0
 11 21  1  0  0  0  0
 12 23  1  6  0  0  0
 12 24  1  0  0  0  0
 13  1  1  0  0  0  0
 14  2  1  0  0  0  0
 15  3  1  0  0  0  0
 17  8  1  0  0  0  0
 19  9  1  0  0  0  0
 20 10  1  0  0  0  0
 22 11  1  0  0  0  0
 24 25  1  6  0  0  0
 24 28  1  0  0  0  0
 25 26  1  0  0  0  0
 26 32  1  0  0  0  0
 26 27  1  0  0  0  0
 26 31  1  0  0  0  0
 27 33  1  0  0  0  0
 27 34  1  0  0  0  0
 28 35  1  1  0  0  0
 28 27  1  0  0  0  0
 29 25  1  0  0  0  0
 30 25  1  0  0  0  0
 36 37  1  1  0  0  0
 36 28  1  0  0  0  0
 36 40  1  0  0  0  0
 38 37  1  0  0  0  0
 38 39  1  0  0  0  0
 39 40  1  0  0  0  0
 40 41  1  0  0  0  0
M  END
>  <minimizedAffinity>
-4.91008234

$$$$
