
 OpenBabel03272509363D

 44 48  0  0  1  0  0  0  0  0999 V2000
   38.4320   26.2280   34.4510 C   0  0  1  0  0  0  0  0  0  0  0  0
   37.9780   26.9170   35.6840 C   0  0  0  0  0  0  0  0  0  0  0  0
   37.5750   25.5290   35.5950 C   0  0  2  0  0  0  0  0  0  0  0  0
   39.4030   25.7450   34.3160 H   0  0  0  0  0  0  0  0  0  0  0  0
   38.8400   27.3820   36.1720 H   0  0  0  0  0  0  0  0  0  0  0  0
   37.1780   27.7070   35.5090 H   0  0  0  0  0  0  0  0  0  0  0  0
   36.7130   25.0740   35.1250 H   0  0  0  0  0  0  0  0  0  0  0  0
   38.3360   24.6790   36.5700 C   0  0  0  0  0  0  0  0  0  0  0  0
   37.8540   24.8890   37.8720 C   0  0  0  0  0  0  0  0  0  0  0  0
   38.3350   24.1340   38.9090 C   0  0  0  0  0  0  0  0  0  0  0  0
   39.3050   23.1470   38.7050 C   0  0  0  0  0  0  0  0  0  0  0  0
   39.7580   22.9650   37.4060 C   0  0  0  0  0  0  0  0  0  0  0  0
   40.7070   22.0400   37.0690 C   0  0  0  0  0  0  0  0  0  0  0  0
   41.1720   21.8500   35.7930 C   0  0  0  0  0  0  0  0  0  0  0  0
   40.6550   22.6400   34.7810 C   0  0  0  0  0  0  0  0  0  0  0  0
   39.6980   23.5750   35.1110 C   0  0  0  0  0  0  0  0  0  0  0  0
   39.2620   23.7290   36.4080 C   0  0  0  0  0  0  0  0  0  0  0  0
   37.1340   25.5230   38.3440 H   0  0  0  0  0  0  0  0  0  0  0  0
   38.0890   24.1530   39.9610 H   0  0  0  0  0  0  0  0  0  0  0  0
   39.7710   22.4830   39.4260 H   0  0  0  0  0  0  0  0  0  0  0  0
   41.1380   21.4010   37.8400 H   0  0  0  0  0  0  0  0  0  0  0  0
   41.9220   21.1180   35.5270 H   0  0  0  0  0  0  0  0  0  0  0  0
   40.9700   22.5490   33.7550 H   0  0  0  0  0  0  0  0  0  0  0  0
   39.2960   24.1950   34.2890 H   0  0  0  0  0  0  0  0  0  0  0  0
   36.8340   27.8950   31.4720 C   0  0  0  0  0  0  0  0  0  0  0  0
   37.6220   27.6950   32.6470 C   0  0  0  0  0  0  0  0  0  0  0  0
   37.6340   26.4550   33.2210 C   0  0  0  0  0  0  0  0  0  0  0  0
   36.8750   25.4830   32.6120 N   0  0  0  0  0  0  0  0  0  0  0  0
   36.1430   25.6810   31.5160 C   0  0  0  0  0  0  0  0  0  0  0  0
   36.1090   26.8950   30.9240 N   0  0  0  0  0  0  0  0  0  0  0  0
   36.8350   28.8950   31.0250 H   0  0  0  0  0  0  0  0  0  0  0  0
   38.1750   28.5560   33.0210 H   0  0  0  0  0  0  0  0  0  0  0  0
   35.3870   24.4930   30.9650 C   0  0  0  0  0  0  0  0  0  0  0  0
   35.2290   24.7530   29.8990 H   0  0  0  0  0  0  0  0  0  0  0  0
   34.4540   24.4690   31.5200 H   0  0  0  0  0  0  0  0  0  0  0  0
   36.2530   23.2770   31.1310 C   0  0  0  0  0  0  0  0  0  0  0  0
   36.4730   22.9280   30.0970 H   0  0  0  0  0  0  0  0  0  0  0  0
   37.2380   23.6060   31.5250 H   0  0  0  0  0  0  0  0  0  0  0  0
   35.7990   22.2030   31.8760 N   0  0  0  0  0  0  0  0  0  0  0  0
   36.5150   21.8610   33.0580 C   0  0  0  0  0  2  0  0  0  0  0  0
   35.8000   20.6680   33.5940 C   0  0  0  0  0  2  0  0  0  0  0  0
   35.0420   20.1020   32.4150 C   0  0  0  0  0  2  0  0  0  0  0  0
   35.2920   21.0490   31.2620 C   0  0  0  0  0  3  0  0  0  0  0  0
   34.4180   21.1740   30.6200 H   0  0  0  0  0  0  0  0  0  0  0  0
  1  4  1  6  0  0  0
  1  3  1  0  0  0  0
  1  2  1  0  0  0  0
  2  5  1  0  0  0  0
  3  7  1  6  0  0  0
  3  2  1  0  0  0  0
  3  8  1  0  0  0  0
  6  2  1  0  0  0  0
  8  9  1  0  0  0  0
  9 18  1  0  0  0  0
  9 10  2  0  0  0  0
 10 19  1  0  0  0  0
 11 10  1  0  0  0  0
 11 20  1  0  0  0  0
 12 11  2  0  0  0  0
 13 12  1  0  0  0  0
 13 21  1  0  0  0  0
 14 13  2  0  0  0  0
 15 16  2  0  0  0  0
 15 14  1  0  0  0  0
 16 17  1  0  0  0  0
 17  8  2  0  0  0  0
 17 12  1  0  0  0  0
 22 14  1  0  0  0  0
 23 15  1  0  0  0  0
 24 16  1  0  0  0  0
 25 26  1  0  0  0  0
 26 32  1  0  0  0  0
 26 27  2  0  0  0  0
 27  1  1  0  0  0  0
 28 27  1  0  0  0  0
 29 28  2  0  0  0  0
 30 25  2  0  0  0  0
 30 29  1  0  0  0  0
 31 25  1  0  0  0  0
 33 36  1  0  0  0  0
 33 29  1  0  0  0  0
 33 35  1  0  0  0  0
 34 33  1  0  0  0  0
 36 38  1  0  0  0  0
 36 39  1  0  0  0  0
 37 36  1  0  0  0  0
 39 40  1  0  0  0  0
 40 41  1  0  0  0  0
 42 41  1  0  0  0  0
 43 39  1  0  0  0  0
 43 42  1  0  0  0  0
 44 43  1  0  0  0  0
M  END
>  <minimizedAffinity>
-6.61489725

$$$$

 OpenBabel03272509363D

 44 48  0  0  1  0  0  0  0  0999 V2000
   40.3320   26.7830   34.7640 C   0  0  1  0  0  0  0  0  0  0  0  0
   38.9280   26.9820   35.2010 C   0  0  0  0  0  0  0  0  0  0  0  0
   39.2430   25.6220   34.8150 C   0  0  2  0  0  0  0  0  0  0  0  0
   41.1770   26.5770   35.4250 H   0  0  0  0  0  0  0  0  0  0  0  0
   38.9240   27.4640   36.1830 H   0  0  0  0  0  0  0  0  0  0  0  0
   38.2990   27.5980   34.4810 H   0  0  0  0  0  0  0  0  0  0  0  0
   39.2310   25.1450   33.8440 H   0  0  0  0  0  0  0  0  0  0  0  0
   39.2930   24.7160   36.0100 C   0  0  0  0  0  0  0  0  0  0  0  0
   38.2030   24.9740   36.8560 C   0  0  0  0  0  0  0  0  0  0  0  0
   37.9910   24.1860   37.9560 C   0  0  0  0  0  0  0  0  0  0  0  0
   38.8420   23.1190   38.2650 C   0  0  0  0  0  0  0  0  0  0  0  0
   39.9080   22.8920   37.4070 C   0  0  0  0  0  0  0  0  0  0  0  0
   40.8170   21.8880   37.5960 C   0  0  0  0  0  0  0  0  0  0  0  0
   41.8800   21.6520   36.7620 C   0  0  0  0  0  0  0  0  0  0  0  0
   42.0510   22.4770   35.6640 C   0  0  0  0  0  0  0  0  0  0  0  0
   41.1400   23.4930   35.4670 C   0  0  0  0  0  0  0  0  0  0  0  0
   40.0860   23.6900   36.3320 C   0  0  0  0  0  0  0  0  0  0  0  0
   37.3920   25.6690   36.8930 H   0  0  0  0  0  0  0  0  0  0  0  0
   37.2200   24.2310   38.7120 H   0  0  0  0  0  0  0  0  0  0  0  0
   38.7950   22.4210   39.0960 H   0  0  0  0  0  0  0  0  0  0  0  0
   40.7150   21.2190   38.4500 H   0  0  0  0  0  0  0  0  0  0  0  0
   42.5990   20.8570   36.9110 H   0  0  0  0  0  0  0  0  0  0  0  0
   42.8610   22.3540   34.9660 H   0  0  0  0  0  0  0  0  0  0  0  0
   41.2920   24.1400   34.5840 H   0  0  0  0  0  0  0  0  0  0  0  0
   42.2370   27.9220   31.7190 C   0  0  0  0  0  0  0  0  0  0  0  0
   41.9430   27.5380   33.0630 C   0  0  0  0  0  0  0  0  0  0  0  0
   40.6640   27.1700   33.3710 C   0  0  0  0  0  0  0  0  0  0  0  0
   39.7480   27.1990   32.3460 N   0  0  0  0  0  0  0  0  0  0  0  0
   40.0330   27.5600   31.0950 C   0  0  0  0  0  0  0  0  0  0  0  0
   41.2880   27.9290   30.7570 N   0  0  0  0  0  0  0  0  0  0  0  0
   43.2680   28.2150   31.4900 H   0  0  0  0  0  0  0  0  0  0  0  0
   42.7690   27.5610   33.7740 H   0  0  0  0  0  0  0  0  0  0  0  0
   38.9070   27.5100   30.0870 C   0  0  0  0  0  0  0  0  0  0  0  0
   39.1120   26.5870   29.5080 H   0  0  0  0  0  0  0  0  0  0  0  0
   39.0300   28.4040   29.4820 H   0  0  0  0  0  0  0  0  0  0  0  0
   37.6120   27.4310   30.8430 C   0  0  0  0  0  0  0  0  0  0  0  0
   37.8820   27.6060   31.9080 H   0  0  0  0  0  0  0  0  0  0  0  0
   36.9970   28.3130   30.5660 H   0  0  0  0  0  0  0  0  0  0  0  0
   36.8350   26.2890   30.7620 N   0  0  0  0  0  0  0  0  0  0  0  0
   35.4760   26.3760   31.1790 C   0  0  0  0  0  2  0  0  0  0  0  0
   34.9430   24.9950   30.9990 C   0  0  0  0  0  2  0  0  0  0  0  0
   36.1630   24.1030   30.9800 C   0  0  0  0  0  2  0  0  0  0  0  0
   37.3590   25.0250   31.0690 C   0  0  0  0  0  3  0  0  0  0  0  0
   38.2040   24.6810   30.4690 H   0  0  0  0  0  0  0  0  0  0  0  0
  1  3  1  0  0  0  0
  1  2  1  0  0  0  0
  1  4  1  1  0  0  0
  2  5  1  0  0  0  0
  3  7  1  6  0  0  0
  3  2  1  0  0  0  0
  3  8  1  0  0  0  0
  6  2  1  0  0  0  0
  8 17  2  0  0  0  0
  8  9  1  0  0  0  0
  9 18  1  0  0  0  0
  9 10  2  0  0  0  0
 10 11  1  0  0  0  0
 10 19  1  0  0  0  0
 11 20  1  0  0  0  0
 12 13  1  0  0  0  0
 12 11  2  0  0  0  0
 13 21  1  0  0  0  0
 14 22  1  0  0  0  0
 14 13  2  0  0  0  0
 15 14  1  0  0  0  0
 16 15  2  0  0  0  0
 16 17  1  0  0  0  0
 17 12  1  0  0  0  0
 23 15  1  0  0  0  0
 24 16  1  0  0  0  0
 25 26  1  0  0  0  0
 26 27  2  0  0  0  0
 26 32  1  0  0  0  0
 27  1  1  0  0  0  0
 28 27  1  0  0  0  0
 29 28  2  0  0  0  0
 30 29  1  0  0  0  0
 30 25  2  0  0  0  0
 31 25  1  0  0  0  0
 33 36  1  0  0  0  0
 33 29  1  0  0  0  0
 34 33  1  0  0  0  0
 35 33  1  0  0  0  0
 36 37  1  0  0  0  0
 38 36  1  0  0  0  0
 39 36  1  0  0  0  0
 39 43  1  0  0  0  0
 39 40  1  0  0  0  0
 41 40  1  0  0  0  0
 42 41  1  0  0  0  0
 42 43  1  0  0  0  0
 44 43  1  0  0  0  0
M  END
>  <minimizedAffinity>
-6.40628815

$$$$

 OpenBabel03272509363D

 44 48  0  0  1  0  0  0  0  0999 V2000
   39.2890   26.7060   34.7060 C   0  0  1  0  0  0  0  0  0  0  0  0
   38.0500   26.8780   35.5040 C   0  0  0  0  0  0  0  0  0  0  0  0
   38.3100   25.5130   35.0960 C   0  0  2  0  0  0  0  0  0  0  0  0
   40.2910   26.5610   35.1160 H   0  0  0  0  0  0  0  0  0  0  0  0
   38.2920   27.4060   36.4310 H   0  0  0  0  0  0  0  0  0  0  0  0
   37.2210   27.4380   34.9630 H   0  0  0  0  0  0  0  0  0  0  0  0
   38.0550   24.9900   34.1830 H   0  0  0  0  0  0  0  0  0  0  0  0
   38.7250   24.6660   36.2630 C   0  0  0  0  0  0  0  0  0  0  0  0
   37.8890   24.9170   37.3620 C   0  0  0  0  0  0  0  0  0  0  0  0
   38.0210   24.1740   38.5050 C   0  0  0  0  0  0  0  0  0  0  0  0
   38.9790   23.1580   38.6090 C   0  0  0  0  0  0  0  0  0  0  0  0
   39.7880   22.9370   37.5030 C   0  0  0  0  0  0  0  0  0  0  0  0
   40.7660   21.9820   37.4740 C   0  0  0  0  0  0  0  0  0  0  0  0
   41.5780   21.7520   36.3930 C   0  0  0  0  0  0  0  0  0  0  0  0
   41.4050   22.5320   35.2630 C   0  0  0  0  0  0  0  0  0  0  0  0
   40.4220   23.4980   35.2840 C   0  0  0  0  0  0  0  0  0  0  0  0
   39.6290   23.6910   36.3930 C   0  0  0  0  0  0  0  0  0  0  0  0
   37.0810   25.5790   37.5920 H   0  0  0  0  0  0  0  0  0  0  0  0
   37.4780   24.2210   39.4380 H   0  0  0  0  0  0  0  0  0  0  0  0
   39.1930   22.4990   39.4440 H   0  0  0  0  0  0  0  0  0  0  0  0
   40.9320   21.3500   38.3460 H   0  0  0  0  0  0  0  0  0  0  0  0
   42.3520   20.9970   36.3700 H   0  0  0  0  0  0  0  0  0  0  0  0
   42.0050   22.4110   34.3770 H   0  0  0  0  0  0  0  0  0  0  0  0
   40.2980   24.1090   34.3720 H   0  0  0  0  0  0  0  0  0  0  0  0
   40.2100   27.1820   31.0830 C   0  0  0  0  0  0  0  0  0  0  0  0
   40.3030   26.8400   32.4670 C   0  0  0  0  0  0  0  0  0  0  0  0
   39.2100   27.0380   33.2620 C   0  0  0  0  0  0  0  0  0  0  0  0
   38.0900   27.5580   32.6570 N   0  0  0  0  0  0  0  0  0  0  0  0
   38.0140   27.8740   31.3650 C   0  0  0  0  0  0  0  0  0  0  0  0
   39.0770   27.6910   30.5510 N   0  0  0  0  0  0  0  0  0  0  0  0
   41.0960   27.0170   30.4600 H   0  0  0  0  0  0  0  0  0  0  0  0
   41.2540   26.4350   32.8110 H   0  0  0  0  0  0  0  0  0  0  0  0
   36.6940   28.4140   30.8600 C   0  0  0  0  0  0  0  0  0  0  0  0
   36.4230   27.7200   30.0390 H   0  0  0  0  0  0  0  0  0  0  0  0
   36.9190   29.4110   30.4920 H   0  0  0  0  0  0  0  0  0  0  0  0
   35.7110   28.3640   31.9940 C   0  0  0  0  0  0  0  0  0  0  0  0
   34.7600   28.0020   31.5440 H   0  0  0  0  0  0  0  0  0  0  0  0
   36.0190   27.5480   32.6820 H   0  0  0  0  0  0  0  0  0  0  0  0
   35.4490   29.5070   32.7300 N   0  0  0  0  0  0  0  0  0  0  0  0
   35.9000   30.7530   32.2090 C   0  0  0  0  0  2  0  0  0  0  0  0
   35.4940   31.7540   33.2370 C   0  0  0  0  0  2  0  0  0  0  0  0
   35.2990   30.9560   34.5060 C   0  0  0  0  0  2  0  0  0  0  0  0
   35.5230   29.5080   34.1300 C   0  0  0  0  0  3  0  0  0  0  0  0
   34.8570   28.8250   34.6610 H   0  0  0  0  0  0  0  0  0  0  0  0
  1  3  1  0  0  0  0
  1  4  1  1  0  0  0
  1  2  1  0  0  0  0
  2  5  1  0  0  0  0
  3  7  1  6  0  0  0
  3  2  1  0  0  0  0
  3  8  1  0  0  0  0
  6  2  1  0  0  0  0
  8 17  2  0  0  0  0
  8  9  1  0  0  0  0
  9 18  1  0  0  0  0
  9 10  2  0  0  0  0
 10 11  1  0  0  0  0
 10 19  1  0  0  0  0
 11 20  1  0  0  0  0
 12 11  2  0  0  0  0
 13 12  1  0  0  0  0
 13 21  1  0  0  0  0
 14 13  2  0  0  0  0
 15 16  2  0  0  0  0
 15 14  1  0  0  0  0
 16 17  1  0  0  0  0
 17 12  1  0  0  0  0
 22 14  1  0  0  0  0
 23 15  1  0  0  0  0
 24 16  1  0  0  0  0
 25 26  1  0  0  0  0
 26 32  1  0  0  0  0
 26 27  2  0  0  0  0
 27  1  1  0  0  0  0
 28 27  1  0  0  0  0
 29 28  2  0  0  0  0
 30 25  2  0  0  0  0
 30 29  1  0  0  0  0
 31 25  1  0  0  0  0
 33 29  1  0  0  0  0
 33 36  1  0  0  0  0
 34 33  1  0  0  0  0
 35 33  1  0  0  0  0
 36 38  1  0  0  0  0
 36 39  1  0  0  0  0
 37 36  1  0  0  0  0
 39 43  1  0  0  0  0
 40 39  1  0  0  0  0
 40 41  1  0  0  0  0
 41 42  1  0  0  0  0
 43 42  1  0  0  0  0
 43 44  1  0  0  0  0
M  END
>  <minimizedAffinity>
-6.27550411

$$$$

 OpenBabel03272509363D

 44 48  0  0  1  0  0  0  0  0999 V2000
   38.1810   26.8770   34.3370 C   0  0  1  0  0  0  0  0  0  0  0  0
   38.2990   26.8110   32.8590 C   0  0  0  0  0  0  0  0  0  0  0  0
   36.9450   26.9960   33.3400 C   0  0  2  0  0  0  0  0  0  0  0  0
   38.3040   27.7790   34.9420 H   0  0  0  0  0  0  0  0  0  0  0  0
   39.0450   27.5390   32.5270 H   0  0  0  0  0  0  0  0  0  0  0  0
   38.5770   25.7840   32.4590 H   0  0  0  0  0  0  0  0  0  0  0  0
   36.2050   26.2720   33.6540 H   0  0  0  0  0  0  0  0  0  0  0  0
   36.4520   28.3840   33.0550 C   0  0  0  0  0  0  0  0  0  0  0  0
   35.8800   28.9390   34.2110 C   0  0  0  0  0  0  0  0  0  0  0  0
   35.4600   30.2420   34.2070 C   0  0  0  0  0  0  0  0  0  0  0  0
   35.5870   31.0470   33.0700 C   0  0  0  0  0  0  0  0  0  0  0  0
   36.1580   30.4670   31.9460 C   0  0  0  0  0  0  0  0  0  0  0  0
   36.3350   31.1380   30.7680 C   0  0  0  0  0  0  0  0  0  0  0  0
   36.8920   30.5810   29.6460 C   0  0  0  0  0  0  0  0  0  0  0  0
   37.2980   29.2590   29.7010 C   0  0  0  0  0  0  0  0  0  0  0  0
   37.1230   28.5740   30.8840 C   0  0  0  0  0  0  0  0  0  0  0  0
   36.5590   29.1780   31.9860 C   0  0  0  0  0  0  0  0  0  0  0  0
   35.6630   28.6140   35.2070 H   0  0  0  0  0  0  0  0  0  0  0  0
   35.0020   30.8320   34.9880 H   0  0  0  0  0  0  0  0  0  0  0  0
   35.3000   32.0840   32.9260 H   0  0  0  0  0  0  0  0  0  0  0  0
   36.0260   32.1810   30.6870 H   0  0  0  0  0  0  0  0  0  0  0  0
   37.0320   31.1120   28.7140 H   0  0  0  0  0  0  0  0  0  0  0  0
   37.7430   28.7530   28.8610 H   0  0  0  0  0  0  0  0  0  0  0  0
   37.4550   27.5200   30.9090 H   0  0  0  0  0  0  0  0  0  0  0  0
   38.1250   24.3370   37.1200 C   0  0  0  0  0  0  0  0  0  0  0  0
   38.1090   25.5900   36.4340 C   0  0  0  0  0  0  0  0  0  0  0  0
   38.1810   25.5880   35.0700 C   0  0  0  0  0  0  0  0  0  0  0  0
   38.2650   24.3600   34.4560 N   0  0  0  0  0  0  0  0  0  0  0  0
   38.2800   23.1960   35.1070 C   0  0  0  0  0  0  0  0  0  0  0  0
   38.2100   23.1640   36.4550 N   0  0  0  0  0  0  0  0  0  0  0  0
   38.0670   24.3580   38.2140 H   0  0  0  0  0  0  0  0  0  0  0  0
   38.0370   26.4870   37.0480 H   0  0  0  0  0  0  0  0  0  0  0  0
   38.3520   21.9370   34.2720 C   0  0  0  0  0  0  0  0  0  0  0  0
   38.0290   21.1390   34.9700 H   0  0  0  0  0  0  0  0  0  0  0  0
   39.4000   21.8390   34.0000 H   0  0  0  0  0  0  0  0  0  0  0  0
   37.4100   22.0960   33.1140 C   0  0  0  0  0  0  0  0  0  0  0  0
   36.8480   23.0350   33.3180 H   0  0  0  0  0  0  0  0  0  0  0  0
   38.0110   22.3270   32.2090 H   0  0  0  0  0  0  0  0  0  0  0  0
   36.5050   21.0920   32.8180 N   0  0  0  0  0  0  0  0  0  0  0  0
   36.9890   19.9390   32.1350 C   0  0  0  0  0  2  0  0  0  0  0  0
   35.7820   19.0850   31.9460 C   0  0  0  0  0  2  0  0  0  0  0  0
   34.6090   20.0300   32.0730 C   0  0  0  0  0  2  0  0  0  0  0  0
   35.1950   21.3830   32.4140 C   0  0  0  0  0  3  0  0  0  0  0  0
   34.5760   21.9480   33.1130 H   0  0  0  0  0  0  0  0  0  0  0  0
  1  4  1  1  0  0  0
  1 27  1  0  0  0  0
  2  3  1  0  0  0  0
  2  1  1  0  0  0  0
  3  7  1  6  0  0  0
  3  1  1  0  0  0  0
  5  2  1  0  0  0  0
  6  2  1  0  0  0  0
  8  3  1  0  0  0  0
  8  9  1  0  0  0  0
  9 18  1  0  0  0  0
 10  9  2  0  0  0  0
 10 19  1  0  0  0  0
 11 10  1  0  0  0  0
 12 17  1  0  0  0  0
 12 11  2  0  0  0  0
 13 12  1  0  0  0  0
 14 15  1  0  0  0  0
 14 13  2  0  0  0  0
 15 16  2  0  0  0  0
 16 24  1  0  0  0  0
 16 17  1  0  0  0  0
 17  8  2  0  0  0  0
 20 11  1  0  0  0  0
 21 13  1  0  0  0  0
 22 14  1  0  0  0  0
 23 15  1  0  0  0  0
 25 31  1  0  0  0  0
 26 32  1  0  0  0  0
 26 25  2  0  0  0  0
 27 26  1  0  0  0  0
 28 27  2  0  0  0  0
 28 29  1  0  0  0  0
 29 30  2  0  0  0  0
 30 25  1  0  0  0  0
 33 34  1  0  0  0  0
 33 29  1  0  0  0  0
 35 33  1  0  0  0  0
 36 37  1  0  0  0  0
 36 33  1  0  0  0  0
 38 36  1  0  0  0  0
 39 36  1  0  0  0  0
 40 39  1  0  0  0  0
 41 42  1  0  0  0  0
 41 40  1  0  0  0  0
 42 43  1  0  0  0  0
 43 39  1  0  0  0  0
 43 44  1  0  0  0  0
M  END
>  <minimizedAffinity>
-6.12349463

$$$$

 OpenBabel03272509363D

 44 48  0  0  1  0  0  0  0  0999 V2000
   39.8330   26.0470   32.7250 C   0  0  1  0  0  0  0  0  0  0  0  0
   40.5580   27.1260   33.4410 C   0  0  0  0  0  0  0  0  0  0  0  0
   40.0290   26.0920   34.3040 C   0  0  2  0  0  0  0  0  0  0  0  0
   40.2940   25.1610   32.2820 H   0  0  0  0  0  0  0  0  0  0  0  0
   41.5500   27.2480   32.9940 H   0  0  0  0  0  0  0  0  0  0  0  0
   40.0230   28.1300   33.4360 H   0  0  0  0  0  0  0  0  0  0  0  0
   39.0510   25.9830   34.7550 H   0  0  0  0  0  0  0  0  0  0  0  0
   41.1270   25.2350   34.8620 C   0  0  0  0  0  0  0  0  0  0  0  0
   42.3710   25.8570   34.6650 C   0  0  0  0  0  0  0  0  0  0  0  0
   43.5040   25.3000   35.1940 C   0  0  0  0  0  0  0  0  0  0  0  0
   43.4580   24.1130   35.9340 C   0  0  0  0  0  0  0  0  0  0  0  0
   42.2130   23.5260   36.1090 C   0  0  0  0  0  0  0  0  0  0  0  0
   42.0280   22.3630   36.8050 C   0  0  0  0  0  0  0  0  0  0  0  0
   40.8070   21.7650   36.9850 C   0  0  0  0  0  0  0  0  0  0  0  0
   39.6920   22.3680   36.4290 C   0  0  0  0  0  0  0  0  0  0  0  0
   39.8690   23.5400   35.7260 C   0  0  0  0  0  0  0  0  0  0  0  0
   41.1160   24.1040   35.5730 C   0  0  0  0  0  0  0  0  0  0  0  0
   42.7320   26.7410   34.1850 H   0  0  0  0  0  0  0  0  0  0  0  0
   44.5330   25.6270   35.1460 H   0  0  0  0  0  0  0  0  0  0  0  0
   44.2680   23.5640   36.4040 H   0  0  0  0  0  0  0  0  0  0  0  0
   42.8830   21.8600   37.2560 H   0  0  0  0  0  0  0  0  0  0  0  0
   40.6610   20.8460   37.5350 H   0  0  0  0  0  0  0  0  0  0  0  0
   38.7010   21.9580   36.5280 H   0  0  0  0  0  0  0  0  0  0  0  0
   38.9660   24.0070   35.2910 H   0  0  0  0  0  0  0  0  0  0  0  0
   36.6310   27.8620   31.9160 C   0  0  0  0  0  0  0  0  0  0  0  0
   37.9910   27.6180   32.2810 C   0  0  0  0  0  0  0  0  0  0  0  0
   38.4300   26.3260   32.3320 C   0  0  0  0  0  0  0  0  0  0  0  0
   37.5150   25.3480   32.0210 N   0  0  0  0  0  0  0  0  0  0  0  0
   36.2490   25.5870   31.6810 C   0  0  0  0  0  0  0  0  0  0  0  0
   35.7820   26.8530   31.6220 N   0  0  0  0  0  0  0  0  0  0  0  0
   36.2950   28.9050   31.8810 H   0  0  0  0  0  0  0  0  0  0  0  0
   38.6060   28.4910   32.5010 H   0  0  0  0  0  0  0  0  0  0  0  0
   35.3840   24.3920   31.3470 C   0  0  0  0  0  0  0  0  0  0  0  0
   35.0360   24.5990   30.3150 H   0  0  0  0  0  0  0  0  0  0  0  0
   34.5690   24.4230   32.0650 H   0  0  0  0  0  0  0  0  0  0  0  0
   36.2450   23.1640   31.4200 C   0  0  0  0  0  0  0  0  0  0  0  0
   36.5110   22.9270   30.3660 H   0  0  0  0  0  0  0  0  0  0  0  0
   37.2110   23.4480   31.8900 H   0  0  0  0  0  0  0  0  0  0  0  0
   35.7620   22.0180   32.0260 N   0  0  0  0  0  0  0  0  0  0  0  0
   36.4030   21.5720   33.2170 C   0  0  0  0  0  2  0  0  0  0  0  0
   35.6760   20.3240   33.5860 C   0  0  0  0  0  2  0  0  0  0  0  0
   35.0120   19.8650   32.3080 C   0  0  0  0  0  2  0  0  0  0  0  0
   35.3210   20.9220   31.2710 C   0  0  0  0  0  3  0  0  0  0  0  0
   34.4900   21.0970   30.5850 H   0  0  0  0  0  0  0  0  0  0  0  0
  1  4  1  6  0  0  0
  1  2  1  0  0  0  0
  1  3  1  0  0  0  0
  2  3  1  0  0  0  0
  3  7  1  1  0  0  0
  3  8  1  0  0  0  0
  5  2  1  0  0  0  0
  6  2  1  0  0  0  0
  8 17  1  0  0  0  0
  9  8  2  0  0  0  0
  9 10  1  0  0  0  0
 10 11  2  0  0  0  0
 11 12  1  0  0  0  0
 11 20  1  0  0  0  0
 12 13  1  0  0  0  0
 13 14  2  0  0  0  0
 13 21  1  0  0  0  0
 14 22  1  0  0  0  0
 15 23  1  0  0  0  0
 15 14  1  0  0  0  0
 16 15  2  0  0  0  0
 17 16  1  0  0  0  0
 17 12  2  0  0  0  0
 18  9  1  0  0  0  0
 19 10  1  0  0  0  0
 24 16  1  0  0  0  0
 25 26  1  0  0  0  0
 26 27  2  0  0  0  0
 26 32  1  0  0  0  0
 27  1  1  0  0  0  0
 28 27  1  0  0  0  0
 29 28  2  0  0  0  0
 30 29  1  0  0  0  0
 30 25  2  0  0  0  0
 31 25  1  0  0  0  0
 33 36  1  0  0  0  0
 33 29  1  0  0  0  0
 33 35  1  0  0  0  0
 34 33  1  0  0  0  0
 36 38  1  0  0  0  0
 36 39  1  0  0  0  0
 37 36  1  0  0  0  0
 39 40  1  0  0  0  0
 40 41  1  0  0  0  0
 42 41  1  0  0  0  0
 43 39  1  0  0  0  0
 43 42  1  0  0  0  0
 44 43  1  0  0  0  0
M  END
>  <minimizedAffinity>
-6.09754944

$$$$

 OpenBabel03272509363D

 44 48  0  0  1  0  0  0  0  0999 V2000
   37.4680   25.9910   35.6700 C   0  0  1  0  0  0  0  0  0  0  0  0
   38.2970   27.2120   35.8210 C   0  0  0  0  0  0  0  0  0  0  0  0
   38.1080   26.7880   34.4490 C   0  0  2  0  0  0  0  0  0  0  0  0
   36.3760   25.9700   35.6150 H   0  0  0  0  0  0  0  0  0  0  0  0
   37.7520   27.9430   36.4260 H   0  0  0  0  0  0  0  0  0  0  0  0
   39.3160   27.0280   36.2900 H   0  0  0  0  0  0  0  0  0  0  0  0
   38.6590   26.0760   33.8500 H   0  0  0  0  0  0  0  0  0  0  0  0
   37.1930   27.7230   33.7130 C   0  0  0  0  0  0  0  0  0  0  0  0
   36.3570   28.3930   34.6200 C   0  0  0  0  0  0  0  0  0  0  0  0
   35.5140   29.3750   34.1750 C   0  0  0  0  0  0  0  0  0  0  0  0
   35.4610   29.7350   32.8230 C   0  0  0  0  0  0  0  0  0  0  0  0
   36.3020   29.0540   31.9550 C   0  0  0  0  0  0  0  0  0  0  0  0
   36.3470   29.3020   30.6110 C   0  0  0  0  0  0  0  0  0  0  0  0
   37.1660   28.6350   29.7370 C   0  0  0  0  0  0  0  0  0  0  0  0
   37.9990   27.6490   30.2370 C   0  0  0  0  0  0  0  0  0  0  0  0
   37.9600   27.3920   31.5910 C   0  0  0  0  0  0  0  0  0  0  0  0
   37.1200   28.0890   32.4300 C   0  0  0  0  0  0  0  0  0  0  0  0
   36.1730   28.3710   35.6730 H   0  0  0  0  0  0  0  0  0  0  0  0
   34.8080   29.9900   34.7140 H   0  0  0  0  0  0  0  0  0  0  0  0
   34.8470   30.4860   32.3350 H   0  0  0  0  0  0  0  0  0  0  0  0
   35.7050   30.0710   30.1800 H   0  0  0  0  0  0  0  0  0  0  0  0
   37.2010   28.8320   28.6740 H   0  0  0  0  0  0  0  0  0  0  0  0
   38.6690   27.0840   29.6130 H   0  0  0  0  0  0  0  0  0  0  0  0
   38.6330   26.6020   31.9710 H   0  0  0  0  0  0  0  0  0  0  0  0
   39.0590   23.0260   37.3660 C   0  0  0  0  0  0  0  0  0  0  0  0
   38.3960   24.2770   37.1730 C   0  0  0  0  0  0  0  0  0  0  0  0
   38.1410   24.6890   35.8950 C   0  0  0  0  0  0  0  0  0  0  0  0
   38.5480   23.8530   34.8820 N   0  0  0  0  0  0  0  0  0  0  0  0
   39.1670   22.6880   35.0740 C   0  0  0  0  0  0  0  0  0  0  0  0
   39.4350   22.2520   36.3240 N   0  0  0  0  0  0  0  0  0  0  0  0
   39.2570   22.7120   38.3970 H   0  0  0  0  0  0  0  0  0  0  0  0
   38.1290   24.8360   38.0690 H   0  0  0  0  0  0  0  0  0  0  0  0
   39.5240   21.8830   33.8440 C   0  0  0  0  0  0  0  0  0  0  0  0
   39.9940   20.9680   34.2560 H   0  0  0  0  0  0  0  0  0  0  0  0
   40.2380   22.4980   33.3020 H   0  0  0  0  0  0  0  0  0  0  0  0
   38.2530   21.5850   33.1030 C   0  0  0  0  0  0  0  0  0  0  0  0
   38.3610   20.5380   32.7430 H   0  0  0  0  0  0  0  0  0  0  0  0
   37.4250   21.5380   33.8420 H   0  0  0  0  0  0  0  0  0  0  0  0
   37.8710   22.3840   32.0390 N   0  0  0  0  0  0  0  0  0  0  0  0
   38.8850   23.1150   31.3570 C   0  0  0  0  0  2  0  0  0  0  0  0
   38.1500   23.8810   30.3100 C   0  0  0  0  0  2  0  0  0  0  0  0
   36.7190   23.9340   30.7950 C   0  0  0  0  0  2  0  0  0  0  0  0
   36.6770   23.1180   32.0680 C   0  0  0  0  0  3  0  0  0  0  0  0
   35.7510   22.5510   32.1770 H   0  0  0  0  0  0  0  0  0  0  0  0
  1  4  1  1  0  0  0
  1  2  1  0  0  0  0
  1 27  1  0  0  0  0
  2  6  1  0  0  0  0
  2  5  1  0  0  0  0
  3  7  1  6  0  0  0
  3  1  1  0  0  0  0
  3  2  1  0  0  0  0
  8  3  1  0  0  0  0
  8  9  1  0  0  0  0
  9 18  1  0  0  0  0
 10  9  2  0  0  0  0
 10 19  1  0  0  0  0
 11 10  1  0  0  0  0
 12 17  1  0  0  0  0
 12 11  2  0  0  0  0
 13 12  1  0  0  0  0
 14 15  1  0  0  0  0
 14 13  2  0  0  0  0
 15 16  2  0  0  0  0
 16 24  1  0  0  0  0
 16 17  1  0  0  0  0
 17  8  2  0  0  0  0
 20 11  1  0  0  0  0
 21 13  1  0  0  0  0
 22 14  1  0  0  0  0
 23 15  1  0  0  0  0
 25 31  1  0  0  0  0
 26 25  1  0  0  0  0
 26 32  1  0  0  0  0
 27 26  2  0  0  0  0
 28 29  2  0  0  0  0
 28 27  1  0  0  0  0
 29 30  1  0  0  0  0
 30 25  2  0  0  0  0
 33 34  1  0  0  0  0
 33 29  1  0  0  0  0
 35 33  1  0  0  0  0
 36 38  1  0  0  0  0
 36 33  1  0  0  0  0
 37 36  1  0  0  0  0
 39 43  1  0  0  0  0
 39 36  1  0  0  0  0
 40 39  1  0  0  0  0
 41 42  1  0  0  0  0
 41 40  1  0  0  0  0
 42 43  1  0  0  0  0
 43 44  1  0  0  0  0
M  END
>  <minimizedAffinity>
-6.08201456

$$$$

 OpenBabel03272509363D

 44 48  0  0  1  0  0  0  0  0999 V2000
   35.8510   30.4680   32.2900 C   0  0  1  0  0  0  0  0  0  0  0  0
   34.3720   30.3740   32.2160 C   0  0  0  0  0  0  0  0  0  0  0  0
   34.9590   29.6610   33.3320 C   0  0  2  0  0  0  0  0  0  0  0  0
   36.4110   31.2740   32.7710 H   0  0  0  0  0  0  0  0  0  0  0  0
   33.9520   31.3820   32.1510 H   0  0  0  0  0  0  0  0  0  0  0  0
   33.9880   29.7540   31.3420 H   0  0  0  0  0  0  0  0  0  0  0  0
   35.3590   28.6590   33.3950 H   0  0  0  0  0  0  0  0  0  0  0  0
   34.6660   30.3530   34.6310 C   0  0  0  0  0  0  0  0  0  0  0  0
   35.7920   31.0750   35.0580 C   0  0  0  0  0  0  0  0  0  0  0  0
   35.7130   31.8710   36.1690 C   0  0  0  0  0  0  0  0  0  0  0  0
   34.5260   31.9870   36.9010 C   0  0  0  0  0  0  0  0  0  0  0  0
   33.4330   31.2600   36.4510 C   0  0  0  0  0  0  0  0  0  0  0  0
   32.2160   31.2790   37.0760 C   0  0  0  0  0  0  0  0  0  0  0  0
   31.1260   30.5640   36.6500 C   0  0  0  0  0  0  0  0  0  0  0  0
   31.2590   29.7730   35.5220 C   0  0  0  0  0  0  0  0  0  0  0  0
   32.4820   29.7480   34.8850 C   0  0  0  0  0  0  0  0  0  0  0  0
   33.5480   30.4850   35.3510 C   0  0  0  0  0  0  0  0  0  0  0  0
   36.8000   31.2140   34.7280 H   0  0  0  0  0  0  0  0  0  0  0  0
   36.4620   32.4890   36.6420 H   0  0  0  0  0  0  0  0  0  0  0  0
   34.3220   32.5730   37.7920 H   0  0  0  0  0  0  0  0  0  0  0  0
   32.0750   31.8890   37.9680 H   0  0  0  0  0  0  0  0  0  0  0  0
   30.1650   30.5780   37.1440 H   0  0  0  0  0  0  0  0  0  0  0  0
   30.4490   29.1840   35.1270 H   0  0  0  0  0  0  0  0  0  0  0  0
   32.5670   29.1120   33.9860 H   0  0  0  0  0  0  0  0  0  0  0  0
   37.4540   28.9420   29.2390 C   0  0  0  0  0  0  0  0  0  0  0  0
   36.7130   29.8360   30.0720 C   0  0  0  0  0  0  0  0  0  0  0  0
   36.6280   29.5630   31.4080 C   0  0  0  0  0  0  0  0  0  0  0  0
   37.2720   28.4310   31.8510 N   0  0  0  0  0  0  0  0  0  0  0  0
   37.9600   27.6040   31.0640 C   0  0  0  0  0  0  0  0  0  0  0  0
   38.0640   27.8450   29.7390 N   0  0  0  0  0  0  0  0  0  0  0  0
   37.5110   29.1760   28.1700 H   0  0  0  0  0  0  0  0  0  0  0  0
   36.2540   30.6960   29.5850 H   0  0  0  0  0  0  0  0  0  0  0  0
   38.6270   26.4170   31.7230 C   0  0  0  0  0  0  0  0  0  0  0  0
   39.5280   26.8530   32.2010 H   0  0  0  0  0  0  0  0  0  0  0  0
   38.8850   25.7480   30.9070 H   0  0  0  0  0  0  0  0  0  0  0  0
   37.6690   25.8480   32.7300 C   0  0  0  0  0  0  0  0  0  0  0  0
   38.2650   25.7100   33.6590 H   0  0  0  0  0  0  0  0  0  0  0  0
   36.9330   26.6390   32.9900 H   0  0  0  0  0  0  0  0  0  0  0  0
   36.9960   24.6710   32.4530 N   0  0  0  0  0  0  0  0  0  0  0  0
   37.7540   23.4670   32.4020 C   0  0  0  0  0  2  0  0  0  0  0  0
   36.7560   22.4140   32.0570 C   0  0  0  0  0  2  0  0  0  0  0  0
   35.5990   23.1600   31.4330 C   0  0  0  0  0  2  0  0  0  0  0  0
   35.9500   24.6290   31.5200 C   0  0  0  0  0  3  0  0  0  0  0  0
   35.0830   25.2600   31.7220 H   0  0  0  0  0  0  0  0  0  0  0  0
  1  4  1  1  0  0  0
  1  3  1  0  0  0  0
  2  1  1  0  0  0  0
  2  3  1  0  0  0  0
  3  7  1  6  0  0  0
  3  8  1  0  0  0  0
  5  2  1  0  0  0  0
  6  2  1  0  0  0  0
  8  9  2  0  0  0  0
  8 17  1  0  0  0  0
  9 10  1  0  0  0  0
 10 19  1  0  0  0  0
 10 11  2  0  0  0  0
 11 20  1  0  0  0  0
 12 11  1  0  0  0  0
 12 13  1  0  0  0  0
 13 21  1  0  0  0  0
 14 13  2  0  0  0  0
 14 22  1  0  0  0  0
 15 14  1  0  0  0  0
 16 17  1  0  0  0  0
 16 15  2  0  0  0  0
 17 12  2  0  0  0  0
 18  9  1  0  0  0  0
 23 15  1  0  0  0  0
 24 16  1  0  0  0  0
 25 30  2  0  0  0  0
 25 26  1  0  0  0  0
 26 27  2  0  0  0  0
 27 28  1  0  0  0  0
 27  1  1  0  0  0  0
 29 33  1  0  0  0  0
 29 28  2  0  0  0  0
 30 29  1  0  0  0  0
 31 25  1  0  0  0  0
 32 26  1  0  0  0  0
 33 34  1  0  0  0  0
 33 36  1  0  0  0  0
 35 33  1  0  0  0  0
 36 38  1  0  0  0  0
 36 37  1  0  0  0  0
 39 36  1  0  0  0  0
 40 39  1  0  0  0  0
 41 40  1  0  0  0  0
 42 43  1  0  0  0  0
 42 41  1  0  0  0  0
 43 44  1  0  0  0  0
 43 39  1  0  0  0  0
M  END
>  <minimizedAffinity>
-6.04443264

$$$$

 OpenBabel03272509363D

 44 48  0  0  1  0  0  0  0  0999 V2000
   38.2860   26.6120   33.7200 C   0  0  1  0  0  0  0  0  0  0  0  0
   37.9820   26.1400   32.3460 C   0  0  0  0  0  0  0  0  0  0  0  0
   36.8860   26.8310   32.9930 C   0  0  2  0  0  0  0  0  0  0  0  0
   38.7670   27.5600   33.9710 H   0  0  0  0  0  0  0  0  0  0  0  0
   38.7550   26.5050   31.6630 H   0  0  0  0  0  0  0  0  0  0  0  0
   37.9040   25.0090   32.2480 H   0  0  0  0  0  0  0  0  0  0  0  0
   36.1150   26.4630   33.6560 H   0  0  0  0  0  0  0  0  0  0  0  0
   36.6600   28.1820   32.3810 C   0  0  0  0  0  0  0  0  0  0  0  0
   36.9410   28.1420   31.0060 C   0  0  0  0  0  0  0  0  0  0  0  0
   36.6980   29.2420   30.2260 C   0  0  0  0  0  0  0  0  0  0  0  0
   36.1720   30.4190   30.7690 C   0  0  0  0  0  0  0  0  0  0  0  0
   35.9050   30.4240   32.1300 C   0  0  0  0  0  0  0  0  0  0  0  0
   35.3960   31.5090   32.7870 C   0  0  0  0  0  0  0  0  0  0  0  0
   35.1310   31.5350   34.1320 C   0  0  0  0  0  0  0  0  0  0  0  0
   35.3950   30.3980   34.8760 C   0  0  0  0  0  0  0  0  0  0  0  0
   35.9090   29.2990   34.2220 C   0  0  0  0  0  0  0  0  0  0  0  0
   36.1580   29.3210   32.8680 C   0  0  0  0  0  0  0  0  0  0  0  0
   37.3160   27.4240   30.3080 H   0  0  0  0  0  0  0  0  0  0  0  0
   36.8500   29.3970   29.1680 H   0  0  0  0  0  0  0  0  0  0  0  0
   35.9330   31.3560   30.2750 H   0  0  0  0  0  0  0  0  0  0  0  0
   35.1760   32.4230   32.2340 H   0  0  0  0  0  0  0  0  0  0  0  0
   34.7280   32.3940   34.6520 H   0  0  0  0  0  0  0  0  0  0  0  0
   35.2140   30.3430   35.9360 H   0  0  0  0  0  0  0  0  0  0  0  0
   36.1120   28.4010   34.8330 H   0  0  0  0  0  0  0  0  0  0  0  0
   38.1180   25.0500   37.1450 C   0  0  0  0  0  0  0  0  0  0  0  0
   38.1930   26.0320   36.1100 C   0  0  0  0  0  0  0  0  0  0  0  0
   38.1930   25.6110   34.8110 C   0  0  0  0  0  0  0  0  0  0  0  0
   38.1190   24.2540   34.5990 N   0  0  0  0  0  0  0  0  0  0  0  0
   38.0510   23.3470   35.5730 C   0  0  0  0  0  0  0  0  0  0  0  0
   38.0490   23.7290   36.8680 N   0  0  0  0  0  0  0  0  0  0  0  0
   38.1200   25.4060   38.1820 H   0  0  0  0  0  0  0  0  0  0  0  0
   38.2450   27.0750   36.4230 H   0  0  0  0  0  0  0  0  0  0  0  0
   37.9510   21.8950   35.1600 C   0  0  0  0  0  0  0  0  0  0  0  0
   36.9390   21.5940   35.4980 H   0  0  0  0  0  0  0  0  0  0  0  0
   38.7330   21.3880   35.7180 H   0  0  0  0  0  0  0  0  0  0  0  0
   38.0940   21.8290   33.6670 C   0  0  0  0  0  0  0  0  0  0  0  0
   38.4070   22.8500   33.3550 H   0  0  0  0  0  0  0  0  0  0  0  0
   38.9710   21.1880   33.4330 H   0  0  0  0  0  0  0  0  0  0  0  0
   37.0200   21.4350   32.8880 N   0  0  0  0  0  0  0  0  0  0  0  0
   36.6630   22.2560   31.7800 C   0  0  0  0  0  2  0  0  0  0  0  0
   35.4740   21.5810   31.1860 C   0  0  0  0  0  2  0  0  0  0  0  0
   34.9240   20.7090   32.2910 C   0  0  0  0  0  2  0  0  0  0  0  0
   35.8760   20.8600   33.4570 C   0  0  0  0  0  3  0  0  0  0  0  0
   36.0140   19.9300   34.0130 H   0  0  0  0  0  0  0  0  0  0  0  0
  1  4  1  1  0  0  0
  1 27  1  0  0  0  0
  2  3  1  0  0  0  0
  2  1  1  0  0  0  0
  3  7  1  1  0  0  0
  3  1  1  0  0  0  0
  5  2  1  0  0  0  0
  6  2  1  0  0  0  0
  8 17  1  0  0  0  0
  8  3  1  0  0  0  0
  9  8  2  0  0  0  0
 10 11  2  0  0  0  0
 10  9  1  0  0  0  0
 11 12  1  0  0  0  0
 12 13  2  0  0  0  0
 12 17  1  0  0  0  0
 13 14  1  0  0  0  0
 14 22  1  0  0  0  0
 14 15  2  0  0  0  0
 15 23  1  0  0  0  0
 16 24  1  0  0  0  0
 16 15  1  0  0  0  0
 17 16  2  0  0  0  0
 18  9  1  0  0  0  0
 19 10  1  0  0  0  0
 20 11  1  0  0  0  0
 21 13  1  0  0  0  0
 25 31  1  0  0  0  0
 26 32  1  0  0  0  0
 26 25  2  0  0  0  0
 27 26  1  0  0  0  0
 28 27  2  0  0  0  0
 28 29  1  0  0  0  0
 29 30  2  0  0  0  0
 30 25  1  0  0  0  0
 33 34  1  0  0  0  0
 33 29  1  0  0  0  0
 33 35  1  0  0  0  0
 36 33  1  0  0  0  0
 37 36  1  0  0  0  0
 38 36  1  0  0  0  0
 39 43  1  0  0  0  0
 39 36  1  0  0  0  0
 40 39  1  0  0  0  0
 41 40  1  0  0  0  0
 41 42  1  0  0  0  0
 42 43  1  0  0  0  0
 43 44  1  0  0  0  0
M  END
>  <minimizedAffinity>
-6.03305721

$$$$

 OpenBabel03272509363D

 44 48  0  0  1  0  0  0  0  0999 V2000
   38.5530   26.7950   34.7620 C   0  0  1  0  0  0  0  0  0  0  0  0
   38.0580   26.9780   36.1490 C   0  0  0  0  0  0  0  0  0  0  0  0
   37.7890   25.6690   35.5900 C   0  0  2  0  0  0  0  0  0  0  0  0
   39.5630   26.4820   34.4860 H   0  0  0  0  0  0  0  0  0  0  0  0
   38.8800   27.3330   36.7780 H   0  0  0  0  0  0  0  0  0  0  0  0
   37.1830   27.6990   36.2400 H   0  0  0  0  0  0  0  0  0  0  0  0
   36.9670   25.3200   34.9800 H   0  0  0  0  0  0  0  0  0  0  0  0
   38.6470   24.6190   36.2310 C   0  0  0  0  0  0  0  0  0  0  0  0
   38.2810   24.4520   37.5760 C   0  0  0  0  0  0  0  0  0  0  0  0
   38.8640   23.4650   38.3250 C   0  0  0  0  0  0  0  0  0  0  0  0
   39.8260   22.6070   37.7810 C   0  0  0  0  0  0  0  0  0  0  0  0
   40.1640   22.7990   36.4490 C   0  0  0  0  0  0  0  0  0  0  0  0
   41.0920   22.0370   35.7970 C   0  0  0  0  0  0  0  0  0  0  0  0
   41.4430   22.2150   34.4830 C   0  0  0  0  0  0  0  0  0  0  0  0
   40.8260   23.2280   33.7700 C   0  0  0  0  0  0  0  0  0  0  0  0
   39.8890   24.0020   34.4200 C   0  0  0  0  0  0  0  0  0  0  0  0
   39.5690   23.7840   35.7410 C   0  0  0  0  0  0  0  0  0  0  0  0
   37.5970   24.9070   38.2600 H   0  0  0  0  0  0  0  0  0  0  0  0
   38.7140   23.1900   39.3590 H   0  0  0  0  0  0  0  0  0  0  0  0
   40.3650   21.7910   38.2540 H   0  0  0  0  0  0  0  0  0  0  0  0
   41.6000   21.2300   36.3270 H   0  0  0  0  0  0  0  0  0  0  0  0
   42.1770   21.6110   33.9680 H   0  0  0  0  0  0  0  0  0  0  0  0
   41.0490   23.4290   32.7360 H   0  0  0  0  0  0  0  0  0  0  0  0
   39.4060   24.8050   33.8330 H   0  0  0  0  0  0  0  0  0  0  0  0
   37.1850   27.5710   31.3370 C   0  0  0  0  0  0  0  0  0  0  0  0
   37.9970   27.0170   32.3740 C   0  0  0  0  0  0  0  0  0  0  0  0
   37.7130   27.3450   33.6700 C   0  0  0  0  0  0  0  0  0  0  0  0
   36.6520   28.1950   33.8750 N   0  0  0  0  0  0  0  0  0  0  0  0
   35.9020   28.7070   32.9000 C   0  0  0  0  0  0  0  0  0  0  0  0
   36.1550   28.4030   31.6090 N   0  0  0  0  0  0  0  0  0  0  0  0
   37.4270   27.2980   30.3040 H   0  0  0  0  0  0  0  0  0  0  0  0
   38.8060   26.3550   32.0660 H   0  0  0  0  0  0  0  0  0  0  0  0
   34.7570   29.6080   33.3080 C   0  0  0  0  0  0  0  0  0  0  0  0
   33.9920   28.9030   33.6910 H   0  0  0  0  0  0  0  0  0  0  0  0
   34.4390   30.0930   32.3890 H   0  0  0  0  0  0  0  0  0  0  0  0
   35.2590   30.5380   34.3740 C   0  0  0  0  0  0  0  0  0  0  0  0
   36.2310   30.1110   34.7050 H   0  0  0  0  0  0  0  0  0  0  0  0
   35.5310   31.5010   33.8920 H   0  0  0  0  0  0  0  0  0  0  0  0
   34.4810   30.7910   35.4910 N   0  0  0  0  0  0  0  0  0  0  0  0
   33.0920   30.4870   35.4180 C   0  0  0  0  0  2  0  0  0  0  0  0
   32.5510   30.8990   36.7450 C   0  0  0  0  0  2  0  0  0  0  0  0
   33.5630   31.8790   37.2930 C   0  0  0  0  0  2  0  0  0  0  0  0
   34.6900   31.9260   36.2860 C   0  0  0  0  0  3  0  0  0  0  0  0
   35.6720   32.0280   36.7540 H   0  0  0  0  0  0  0  0  0  0  0  0
  1  4  1  6  0  0  0
  1  3  1  0  0  0  0
  1  2  1  0  0  0  0
  2  6  1  0  0  0  0
  2  5  1  0  0  0  0
  3  7  1  6  0  0  0
  3  2  1  0  0  0  0
  3  8  1  0  0  0  0
  8  9  1  0  0  0  0
  9 18  1  0  0  0  0
  9 10  2  0  0  0  0
 10 19  1  0  0  0  0
 11 20  1  0  0  0  0
 11 10  1  0  0  0  0
 12 11  2  0  0  0  0
 13 21  1  0  0  0  0
 13 12  1  0  0  0  0
 14 13  2  0  0  0  0
 15 16  2  0  0  0  0
 15 14  1  0  0  0  0
 16 17  1  0  0  0  0
 17  8  2  0  0  0  0
 17 12  1  0  0  0  0
 22 14  1  0  0  0  0
 23 15  1  0  0  0  0
 24 16  1  0  0  0  0
 25 30  2  0  0  0  0
 25 26  1  0  0  0  0
 26 27  2  0  0  0  0
 27 28  1  0  0  0  0
 27  1  1  0  0  0  0
 29 33  1  0  0  0  0
 29 28  2  0  0  0  0
 30 29  1  0  0  0  0
 31 25  1  0  0  0  0
 32 26  1  0  0  0  0
 33 34  1  0  0  0  0
 33 36  1  0  0  0  0
 35 33  1  0  0  0  0
 36 37  1  0  0  0  0
 36 39  1  0  0  0  0
 38 36  1  0  0  0  0
 39 43  1  0  0  0  0
 40 39  1  0  0  0  0
 40 41  1  0  0  0  0
 41 42  1  0  0  0  0
 43 44  1  0  0  0  0
 43 42  1  0  0  0  0
M  END
>  <minimizedAffinity>
-6.02796507

$$$$
