
 OpenBabel03272510193D

 33 36  0  0  0  0  0  0  0  0999 V2000
   37.4010   29.2240   50.9110 Br  0  0  0  0  0  0  0  0  0  0  0  0
   35.9990   29.2670   49.6160 C   0  0  0  0  0  0  0  0  0  0  0  0
   35.9950   30.2340   48.6100 C   0  0  0  0  0  0  0  0  0  0  0  0
   34.9480   30.2000   47.7130 C   0  0  0  0  0  0  0  0  0  0  0  0
   33.9230   29.2680   47.7630 C   0  0  0  0  0  0  0  0  0  0  0  0
   33.9620   28.3390   48.7590 C   0  0  0  0  0  0  0  0  0  0  0  0
   34.9960   28.3500   49.6700 C   0  0  0  0  0  0  0  0  0  0  0  0
   34.8890   30.9310   46.9020 H   0  0  0  0  0  0  0  0  0  0  0  0
   33.2100   27.5690   48.8850 H   0  0  0  0  0  0  0  0  0  0  0  0
   35.0220   27.6080   50.4620 H   0  0  0  0  0  0  0  0  0  0  0  0
   32.8310   29.2510   46.8050 C   0  0  0  0  0  0  0  0  0  0  0  0
   32.0210   28.1510   46.5690 C   0  0  0  0  0  0  0  0  0  0  0  0
   30.9860   28.1620   45.6500 C   0  0  0  0  0  0  0  0  0  0  0  0
   30.7500   29.2770   44.9570 N   0  0  0  0  0  0  0  0  0  0  0  0
   31.5300   30.3630   45.1730 C   0  0  0  0  0  0  0  0  0  0  0  0
   32.5150   30.3160   46.0640 N   0  0  0  0  0  0  0  0  0  0  0  0
   32.2110   27.2360   47.1360 H   0  0  0  0  0  0  0  0  0  0  0  0
   30.3920   27.2660   45.5150 H   0  0  0  0  0  0  0  0  0  0  0  0
   31.2720   31.5490   44.4300 N   0  0  0  0  0  0  0  0  0  0  0  0
   31.8060   32.8800   44.7600 C   0  0  0  0  0  2  0  0  0  0  0  0
   30.9120   33.8510   44.0060 C   0  0  0  0  0  2  0  0  0  0  0  0
   30.7040   33.0460   42.7180 C   0  0  0  0  0  2  0  0  0  0  0  0
   30.4570   31.6720   43.2370 C   0  0  0  0  0  3  0  0  0  0  0  0
   30.7020   30.9370   42.4560 H   0  0  0  0  0  0  0  0  0  0  0  0
   37.9970   33.1660   49.4200 C   0  0  0  0  0  0  0  0  0  0  0  0
   39.0210   33.1430   48.4150 C   0  0  0  0  0  0  0  0  0  0  0  0
   38.9980   32.1150   47.4790 C   0  0  0  0  0  0  0  0  0  0  0  0
   38.0040   31.1760   47.5580 N   0  0  0  0  0  0  0  0  0  0  0  0
   37.0490   31.2270   48.5230 C   0  0  0  0  0  0  0  0  0  0  0  0
   37.0480   32.2230   49.4520 N   0  0  0  0  0  0  0  0  0  0  0  0
   37.9440   33.9270   50.1800 H   0  0  0  0  0  0  0  0  0  0  0  0
   39.7600   33.9350   48.4440 H   0  0  0  0  0  0  0  0  0  0  0  0
   39.7510   32.0880   46.7300 H   0  0  0  0  0  0  0  0  0  0  0  0
  2  7  1  0  0  0  0
  2  1  1  0  0  0  0
  3  2  2  0  0  0  0
  4  5  2  0  0  0  0
  4  3  1  0  0  0  0
  5  6  1  0  0  0  0
  6  9  1  0  0  0  0
  6  7  2  0  0  0  0
  7 10  1  0  0  0  0
  8  4  1  0  0  0  0
 11  5  1  0  0  0  0
 12 11  1  0  0  0  0
 12 17  1  0  0  0  0
 13 12  2  0  0  0  0
 14 15  2  0  0  0  0
 14 13  1  0  0  0  0
 15 16  1  0  0  0  0
 16 11  2  0  0  0  0
 18 13  1  0  0  0  0
 19 20  1  0  0  0  0
 19 15  1  0  0  0  0
 21 20  1  0  0  0  0
 22 23  1  0  0  0  0
 22 21  1  0  0  0  0
 23 19  1  0  0  0  0
 24 23  1  0  0  0  0
 25 30  1  0  0  0  0
 25 31  1  0  0  0  0
 26 32  1  0  0  0  0
 26 25  2  0  0  0  0
 27 28  2  0  0  0  0
 27 26  1  0  0  0  0
 28 29  1  0  0  0  0
 29  3  1  0  0  0  0
 29 30  2  0  0  0  0
 33 27  1  0  0  0  0
M  END
>  <minimizedAffinity>
-6.55993891

>  <minimizedRMSD>
0.238881081

$$$$
