
 OpenBabel03272510183D

 33 36  0  0  0  0  0  0  0  0999 V2000
   37.3980   29.1920   50.8510 Br  0  0  0  0  0  0  0  0  0  0  0  0
   36.0010   29.2810   49.5520 C   0  0  0  0  0  0  0  0  0  0  0  0
   36.0050   30.2800   48.5780 C   0  0  0  0  0  0  0  0  0  0  0  0
   34.9620   30.2780   47.6750 C   0  0  0  0  0  0  0  0  0  0  0  0
   33.9340   29.3490   47.6910 C   0  0  0  0  0  0  0  0  0  0  0  0
   33.9650   28.3890   48.6570 C   0  0  0  0  0  0  0  0  0  0  0  0
   34.9950   28.3670   49.5730 C   0  0  0  0  0  0  0  0  0  0  0  0
   34.9090   31.0350   46.8880 H   0  0  0  0  0  0  0  0  0  0  0  0
   33.2100   27.6180   48.7550 H   0  0  0  0  0  0  0  0  0  0  0  0
   35.0150   27.5990   50.3400 H   0  0  0  0  0  0  0  0  0  0  0  0
   32.8460   29.3670   46.7290 C   0  0  0  0  0  0  0  0  0  0  0  0
   32.0180   28.2850   46.4720 C   0  0  0  0  0  0  0  0  0  0  0  0
   30.9870   28.3290   45.5480 C   0  0  0  0  0  0  0  0  0  0  0  0
   30.7740   29.4590   44.8720 N   0  0  0  0  0  0  0  0  0  0  0  0
   31.5730   30.5280   45.1080 C   0  0  0  0  0  0  0  0  0  0  0  0
   32.5530   30.4490   46.0030 N   0  0  0  0  0  0  0  0  0  0  0  0
   32.1890   27.3580   47.0250 H   0  0  0  0  0  0  0  0  0  0  0  0
   30.3780   27.4460   45.3970 H   0  0  0  0  0  0  0  0  0  0  0  0
   31.3400   31.7290   44.3840 N   0  0  0  0  0  0  0  0  0  0  0  0
   30.0880   32.5010   44.4140 C   0  0  0  0  0  2  0  0  0  0  0  0
   30.1460   33.3800   43.1760 C   0  0  0  0  0  2  0  0  0  0  0  0
   31.6420   33.7230   43.1880 C   0  0  0  0  0  2  0  0  0  0  0  0
   32.2670   32.4070   43.4980 C   0  0  0  0  0  3  0  0  0  0  0  0
   33.2620   32.5720   43.9390 H   0  0  0  0  0  0  0  0  0  0  0  0
   38.0060   33.1860   49.4810 C   0  0  0  0  0  0  0  0  0  0  0  0
   39.0420   33.1840   48.4890 C   0  0  0  0  0  0  0  0  0  0  0  0
   39.0270   32.1780   47.5290 C   0  0  0  0  0  0  0  0  0  0  0  0
   38.0300   31.2410   47.5740 N   0  0  0  0  0  0  0  0  0  0  0  0
   37.0630   31.2710   48.5270 C   0  0  0  0  0  0  0  0  0  0  0  0
   37.0540   32.2450   49.4790 N   0  0  0  0  0  0  0  0  0  0  0  0
   37.9450   33.9300   50.2590 H   0  0  0  0  0  0  0  0  0  0  0  0
   39.7820   33.9730   48.5460 H   0  0  0  0  0  0  0  0  0  0  0  0
   39.7890   32.1660   46.7890 H   0  0  0  0  0  0  0  0  0  0  0  0
  2  7  1  0  0  0  0
  2  1  1  0  0  0  0
  3  2  2  0  0  0  0
  4  5  2  0  0  0  0
  4  3  1  0  0  0  0
  5  6  1  0  0  0  0
  6  9  1  0  0  0  0
  6  7  2  0  0  0  0
  7 10  1  0  0  0  0
  8  4  1  0  0  0  0
 11  5  1  0  0  0  0
 12 11  1  0  0  0  0
 12 17  1  0  0  0  0
 13 12  2  0  0  0  0
 14 15  2  0  0  0  0
 14 13  1  0  0  0  0
 15 16  1  0  0  0  0
 16 11  2  0  0  0  0
 18 13  1  0  0  0  0
 19 20  1  0  0  0  0
 19 15  1  0  0  0  0
 21 22  1  0  0  0  0
 21 20  1  0  0  0  0
 22 23  1  0  0  0  0
 23 24  1  0  0  0  0
 23 19  1  0  0  0  0
 25 31  1  0  0  0  0
 26 32  1  0  0  0  0
 26 25  2  0  0  0  0
 27 28  2  0  0  0  0
 27 26  1  0  0  0  0
 28 29  1  0  0  0  0
 29  3  1  0  0  0  0
 29 30  2  0  0  0  0
 30 25  1  0  0  0  0
 33 27  1  0  0  0  0
M  END
>  <minimizedAffinity>
-6.6064086

>  <minimizedRMSD>
0.305485576

$$$$
