
 OpenBabel03272510183D

 33 36  0  0  0  0  0  0  0  0999 V2000
   37.4360   29.1680   50.8150 Br  0  0  0  0  0  0  0  0  0  0  0  0
   36.0260   29.3000   49.5340 C   0  0  0  0  0  0  0  0  0  0  0  0
   36.0220   30.3280   48.5910 C   0  0  0  0  0  0  0  0  0  0  0  0
   34.9700   30.3550   47.6990 C   0  0  0  0  0  0  0  0  0  0  0  0
   33.9400   29.4280   47.6970 C   0  0  0  0  0  0  0  0  0  0  0  0
   33.9790   28.4390   48.6330 C   0  0  0  0  0  0  0  0  0  0  0  0
   35.0180   28.3870   49.5370 C   0  0  0  0  0  0  0  0  0  0  0  0
   34.9110   31.1350   46.9350 H   0  0  0  0  0  0  0  0  0  0  0  0
   33.2230   27.6670   48.7160 H   0  0  0  0  0  0  0  0  0  0  0  0
   35.0450   27.5970   50.2810 H   0  0  0  0  0  0  0  0  0  0  0  0
   32.8420   29.4770   46.7470 C   0  0  0  0  0  0  0  0  0  0  0  0
   31.9000   28.4710   46.5960 C   0  0  0  0  0  0  0  0  0  0  0  0
   30.8620   28.5440   45.6820 C   0  0  0  0  0  0  0  0  0  0  0  0
   30.7580   29.6250   44.9090 N   0  0  0  0  0  0  0  0  0  0  0  0
   31.6690   30.6190   45.0400 C   0  0  0  0  0  0  0  0  0  0  0  0
   32.6520   30.5150   45.9300 N   0  0  0  0  0  0  0  0  0  0  0  0
   31.9820   27.5840   47.2280 H   0  0  0  0  0  0  0  0  0  0  0  0
   30.1600   27.7210   45.6160 H   0  0  0  0  0  0  0  0  0  0  0  0
   31.5510   31.7710   44.2130 N   0  0  0  0  0  0  0  0  0  0  0  0
   31.0630   33.0840   44.6630 C   0  0  0  0  0  2  0  0  0  0  0  0
   30.6810   33.8110   43.3840 C   0  0  0  0  0  2  0  0  0  0  0  0
   31.8130   33.3180   42.4730 C   0  0  0  0  0  2  0  0  0  0  0  0
   31.8810   31.8700   42.8050 C   0  0  0  0  0  3  0  0  0  0  0  0
   32.8810   31.4840   42.5550 H   0  0  0  0  0  0  0  0  0  0  0  0
   38.0170   33.2230   49.5380 C   0  0  0  0  0  0  0  0  0  0  0  0
   39.0640   33.2280   48.5560 C   0  0  0  0  0  0  0  0  0  0  0  0
   39.0570   32.2300   47.5880 C   0  0  0  0  0  0  0  0  0  0  0  0
   38.0580   31.2940   47.6150 N   0  0  0  0  0  0  0  0  0  0  0  0
   37.0820   31.3180   48.5590 C   0  0  0  0  0  0  0  0  0  0  0  0
   37.0640   32.2840   49.5180 N   0  0  0  0  0  0  0  0  0  0  0  0
   37.9500   33.9610   50.3210 H   0  0  0  0  0  0  0  0  0  0  0  0
   39.8040   34.0150   48.6270 H   0  0  0  0  0  0  0  0  0  0  0  0
   39.8270   32.2240   46.8560 H   0  0  0  0  0  0  0  0  0  0  0  0
  2  7  1  0  0  0  0
  2  1  1  0  0  0  0
  3  2  2  0  0  0  0
  4  3  1  0  0  0  0
  5  4  2  0  0  0  0
  5  6  1  0  0  0  0
  6  9  1  0  0  0  0
  6  7  2  0  0  0  0
  7 10  1  0  0  0  0
  8  4  1  0  0  0  0
 11  5  1  0  0  0  0
 12 11  1  0  0  0  0
 12 17  1  0  0  0  0
 13 12  2  0  0  0  0
 14 15  2  0  0  0  0
 14 13  1  0  0  0  0
 15 16  1  0  0  0  0
 16 11  2  0  0  0  0
 18 13  1  0  0  0  0
 19 20  1  0  0  0  0
 19 15  1  0  0  0  0
 21 20  1  0  0  0  0
 22 23  1  0  0  0  0
 22 21  1  0  0  0  0
 23 19  1  0  0  0  0
 24 23  1  0  0  0  0
 25 31  1  0  0  0  0
 26 32  1  0  0  0  0
 26 25  2  0  0  0  0
 27 28  2  0  0  0  0
 27 26  1  0  0  0  0
 28 29  1  0  0  0  0
 29  3  1  0  0  0  0
 29 30  2  0  0  0  0
 30 25  1  0  0  0  0
 33 27  1  0  0  0  0
M  END
>  <minimizedAffinity>
-6.57259417

>  <minimizedRMSD>
0.52153331

$$$$
