
 OpenBabel03272510323D

 25 27  0  0  0  0  0  0  0  0999 V2000
   37.0380   30.7190   45.7580 C   0  0  0  0  0  0  0  0  0  0  0  0
   36.3690   30.3170   44.6280 C   0  0  0  0  0  0  0  0  0  0  0  0
   35.1020   29.7540   44.7060 C   0  0  0  0  0  0  0  0  0  0  0  0
   34.5340   29.6120   45.9680 C   0  0  0  0  0  0  0  0  0  0  0  0
   35.1860   30.0060   47.1150 C   0  0  0  0  0  0  0  0  0  0  0  0
   36.4450   30.5620   46.9980 C   0  0  0  0  0  0  0  0  0  0  0  0
   36.7800   30.4120   43.6300 H   0  0  0  0  0  0  0  0  0  0  0  0
   34.5860   29.4430   43.8260 H   0  0  0  0  0  0  0  0  0  0  0  0
   33.5400   29.1720   46.0610 H   0  0  0  0  0  0  0  0  0  0  0  0
   34.7590   29.9030   48.1080 H   0  0  0  0  0  0  0  0  0  0  0  0
   39.5890   33.1730   44.9500 C   0  0  0  0  0  0  0  0  0  0  0  0
   40.8010   32.5220   45.1710 C   0  0  0  0  0  0  0  0  0  0  0  0
   40.7170   31.1920   45.6130 C   0  0  0  0  0  0  0  0  0  0  0  0
   39.5040   30.6070   45.8040 N   0  0  0  0  0  0  0  0  0  0  0  0
   38.3580   31.2970   45.5710 C   0  0  0  0  0  0  0  0  0  0  0  0
   38.4000   32.5920   45.1410 N   0  0  0  0  0  0  0  0  0  0  0  0
   39.5650   34.2030   44.6070 H   0  0  0  0  0  0  0  0  0  0  0  0
   41.7260   33.0270   45.0050 H   0  0  0  0  0  0  0  0  0  0  0  0
   41.6420   30.6530   45.7950 H   0  0  0  0  0  0  0  0  0  0  0  0
   37.1900   30.9980   48.1310 N   0  0  0  0  0  0  0  0  0  0  0  0
   37.7500   30.1590   49.1970 C   0  0  0  0  0  2  0  0  0  0  0  0
   37.1410   30.8620   50.4150 C   0  0  0  0  0  2  0  0  0  0  0  0
   37.5480   32.2990   50.0980 C   0  0  0  0  0  2  0  0  0  0  0  0
   37.6280   32.2870   48.6030 C   0  0  0  0  0  3  0  0  0  0  0  0
   38.6940   32.3840   48.3150 H   0  0  0  0  0  0  0  0  0  0  0  0
  1  6  1  0  0  0  0
  2  3  1  0  0  0  0
  2  1  2  0  0  0  0
  3  4  2  0  0  0  0
  4  9  1  0  0  0  0
  4  5  1  0  0  0  0
  5 10  1  0  0  0  0
  6  5  2  0  0  0  0
  6 20  1  0  0  0  0
  7  2  1  0  0  0  0
  8  3  1  0  0  0  0
 11 16  2  0  0  0  0
 11 12  1  0  0  0  0
 12 13  2  0  0  0  0
 13 19  1  0  0  0  0
 13 14  1  0  0  0  0
 15  1  1  0  0  0  0
 15 14  2  0  0  0  0
 16 15  1  0  0  0  0
 17 11  1  0  0  0  0
 18 12  1  0  0  0  0
 20 24  1  0  0  0  0
 20 21  1  0  0  0  0
 21 22  1  0  0  0  0
 23 22  1  0  0  0  0
 24 23  1  0  0  0  0
 25 24  1  0  0  0  0
M  END
>  <minimizedAffinity>
-5.29088449

>  <minimizedRMSD>
3.41806817

$$$$
