
 OpenBabel03272505213D

 25 27  0  0  0  0  0  0  0  0999 V2000
   38.3110   31.1620   48.2060 Br  0  0  0  0  0  0  0  0  0  0  0  0
   37.1020   30.6740   46.8150 C   0  0  0  0  0  0  0  0  0  0  0  0
   35.8920   30.0810   47.1100 C   0  0  0  0  0  0  0  0  0  0  0  0
   35.0650   29.7520   46.0680 C   0  0  0  0  0  0  0  0  0  0  0  0
   35.4420   30.0100   44.7620 C   0  0  0  0  0  0  0  0  0  0  0  0
   36.6570   30.6050   44.4540 C   0  0  0  0  0  0  0  0  0  0  0  0
   37.4840   30.9330   45.5110 C   0  0  0  0  0  0  0  0  0  0  0  0
   34.1300   29.2920   46.3410 H   0  0  0  0  0  0  0  0  0  0  0  0
   34.7400   29.7240   43.9860 H   0  0  0  0  0  0  0  0  0  0  0  0
   36.9440   30.8040   43.4250 H   0  0  0  0  0  0  0  0  0  0  0  0
   36.1830   29.0050   50.7370 C   0  0  0  0  0  0  0  0  0  0  0  0
   36.4750   29.2220   49.3860 C   0  0  0  0  0  0  0  0  0  0  0  0
   35.5900   29.8530   48.5210 C   0  0  0  0  0  0  0  0  0  0  0  0
   34.4230   30.2450   49.0760 N   0  0  0  0  0  0  0  0  0  0  0  0
   34.1280   30.0450   50.3720 C   0  0  0  0  0  0  0  0  0  0  0  0
   35.0020   29.4300   51.1920 N   0  0  0  0  0  0  0  0  0  0  0  0
   36.9690   28.4990   51.2890 H   0  0  0  0  0  0  0  0  0  0  0  0
   37.4110   28.9010   48.9630 H   0  0  0  0  0  0  0  0  0  0  0  0
   33.2030   30.3460   50.8460 H   0  0  0  0  0  0  0  0  0  0  0  0
   38.7450   31.5480   45.2430 N   0  0  0  0  0  0  0  0  0  0  0  0
   40.1120   31.0680   45.3240 C   0  0  0  0  0  0  0  0  0  0  0  0
   40.9030   32.3560   45.2660 C   0  0  0  0  0  0  0  0  0  0  0  0
   40.1220   33.1040   44.1950 C   0  0  0  0  0  0  0  0  0  0  0  0
   38.7210   32.9450   44.7930 C   0  0  0  0  0  0  0  0  0  0  0  0
   37.9210   33.1630   44.0900 H   0  0  0  0  0  0  0  0  0  0  0  0
  2  3  1  0  0  0  0
  2  1  1  0  0  0  0
  3 13  1  0  0  0  0
  4  8  1  0  0  0  0
  4  3  2  0  0  0  0
  5  4  1  0  0  0  0
  6  5  2  0  0  0  0
  6  7  1  0  0  0  0
  7  2  2  0  0  0  0
  9  5  1  0  0  0  0
 10  6  1  0  0  0  0
 11 16  1  0  0  0  0
 11 17  1  0  0  0  0
 12 11  2  0  0  0  0
 13 14  2  0  0  0  0
 13 12  1  0  0  0  0
 14 15  1  0  0  0  0
 15 19  1  0  0  0  0
 15 16  2  0  0  0  0
 18 12  1  0  0  0  0
 20 21  1  0  0  0  0
 20  7  1  0  0  0  0
 22 21  1  0  0  0  0
 23 24  1  0  0  0  0
 23 22  1  0  0  0  0
 24 20  1  0  0  0  0
 25 24  1  0  0  0  0
M  END
>  <minimizedAffinity>
-4.89934254

>  <minimizedRMSD>
3.20714116

$$$$
