
 OpenBabel03272506333D

 16 17  0  0  0  0  0  0  0  0999 V2000
   37.4570   30.0190   50.9770 C   0  0  0  0  0  0  0  0  0  0  0  0
   38.1740   31.0260   50.3180 C   0  0  0  0  0  0  0  0  0  0  0  0
   37.7930   31.4070   49.0400 C   0  0  0  0  0  0  0  0  0  0  0  0
   36.7220   30.7680   48.4800 N   0  0  0  0  0  0  0  0  0  0  0  0
   36.0350   29.7930   49.1300 C   0  0  0  0  0  0  0  0  0  0  0  0
   36.4080   29.4290   50.3670 N   0  0  0  0  0  0  0  0  0  0  0  0
   39.0160   31.5530   50.7140 H   0  0  0  0  0  0  0  0  0  0  0  0
   38.2960   32.1770   48.4660 H   0  0  0  0  0  0  0  0  0  0  0  0
   34.9460   29.1840   48.4890 N   0  0  0  0  0  0  0  0  0  0  0  0
   34.3530   27.9330   48.9550 C   0  0  0  0  0  0  0  0  0  0  0  0
   33.4030   27.4690   47.8930 C   0  0  0  0  0  0  0  0  0  0  0  0
   33.0470   28.7420   47.1800 C   0  0  0  0  0  0  0  0  0  0  0  0
   34.2310   29.6370   47.3140 C   0  0  0  0  0  0  0  0  0  0  0  0
   33.8920   30.6880   47.3890 H   0  0  0  0  0  0  0  0  0  0  0  0
   37.9610   29.7600   52.2360 O   0  0  0  0  0  0  0  0  0  0  0  0
   37.3660   29.7450   53.0640 H   0  0  0  0  0  0  0  0  0  0  0  0
  1 15  1  0  0  0  0
  2  7  1  0  0  0  0
  2  1  2  0  0  0  0
  3  2  1  0  0  0  0
  4  3  2  0  0  0  0
  4  5  1  0  0  0  0
  5  6  2  0  0  0  0
  6  1  1  0  0  0  0
  8  3  1  0  0  0  0
  9 10  1  0  0  0  0
  9  5  1  0  0  0  0
 11 10  1  0  0  0  0
 12 13  1  0  0  0  0
 12 11  1  0  0  0  0
 13 14  1  0  0  0  0
 13  9  1  0  0  0  0
 15 16  1  0  0  0  0
M  END
>  <minimizedAffinity>
-4.64460135

>  <minimizedRMSD>
1.23795164

$$$$
