
 OpenBabel03272510323D

 25 27  0  0  0  0  0  0  0  0999 V2000
   35.8190   30.0280   47.8980 C   0  0  0  0  0  0  0  0  0  0  0  0
   35.1100   30.1280   46.7260 C   0  0  0  0  0  0  0  0  0  0  0  0
   34.0610   29.2620   46.4460 C   0  0  0  0  0  0  0  0  0  0  0  0
   33.7520   28.2920   47.3940 C   0  0  0  0  0  0  0  0  0  0  0  0
   34.4490   28.1730   48.5750 C   0  0  0  0  0  0  0  0  0  0  0  0
   35.4870   29.0500   48.8190 C   0  0  0  0  0  0  0  0  0  0  0  0
   35.3220   30.8700   45.9650 H   0  0  0  0  0  0  0  0  0  0  0  0
   33.5130   29.3430   45.5350 H   0  0  0  0  0  0  0  0  0  0  0  0
   32.9330   27.5980   47.2010 H   0  0  0  0  0  0  0  0  0  0  0  0
   34.2220   27.4220   49.3260 H   0  0  0  0  0  0  0  0  0  0  0  0
   37.6650   32.8280   49.2870 C   0  0  0  0  0  0  0  0  0  0  0  0
   38.8670   32.8560   48.5830 C   0  0  0  0  0  0  0  0  0  0  0  0
   39.0290   31.8670   47.5990 C   0  0  0  0  0  0  0  0  0  0  0  0
   38.0480   30.9530   47.3760 N   0  0  0  0  0  0  0  0  0  0  0  0
   36.8980   30.9800   48.0980 C   0  0  0  0  0  0  0  0  0  0  0  0
   36.7040   31.9260   49.0630 N   0  0  0  0  0  0  0  0  0  0  0  0
   37.4590   33.5580   50.0650 H   0  0  0  0  0  0  0  0  0  0  0  0
   39.6040   33.5970   48.7980 H   0  0  0  0  0  0  0  0  0  0  0  0
   39.9530   31.8580   47.0300 H   0  0  0  0  0  0  0  0  0  0  0  0
   36.2590   28.9990   50.0140 N   0  0  0  0  0  0  0  0  0  0  0  0
   35.7800   29.1900   51.3870 C   0  0  0  0  0  2  0  0  0  0  0  0
   36.7480   30.2910   51.8390 C   0  0  0  0  0  2  0  0  0  0  0  0
   38.0680   29.6390   51.4340 C   0  0  0  0  0  2  0  0  0  0  0  0
   37.6550   28.7640   50.2910 C   0  0  0  0  0  3  0  0  0  0  0  0
   37.7380   27.7080   50.6190 H   0  0  0  0  0  0  0  0  0  0  0  0
  1 15  1  0  0  0  0
  1  6  1  0  0  0  0
  2  1  2  0  0  0  0
  3  2  1  0  0  0  0
  3  4  2  0  0  0  0
  4  5  1  0  0  0  0
  5  6  2  0  0  0  0
  5 10  1  0  0  0  0
  6 20  1  0  0  0  0
  7  2  1  0  0  0  0
  8  3  1  0  0  0  0
  9  4  1  0  0  0  0
 11 17  1  0  0  0  0
 12 18  1  0  0  0  0
 12 11  2  0  0  0  0
 13 12  1  0  0  0  0
 14 13  2  0  0  0  0
 14 15  1  0  0  0  0
 15 16  2  0  0  0  0
 16 11  1  0  0  0  0
 19 13  1  0  0  0  0
 20 24  1  0  0  0  0
 20 21  1  0  0  0  0
 21 22  1  0  0  0  0
 23 22  1  0  0  0  0
 24 25  1  0  0  0  0
 24 23  1  0  0  0  0
M  END
>  <minimizedAffinity>
-4.47767925

>  <minimizedRMSD>
1.01473689

$$$$
