
 OpenBabel03272506563D

 17 18  0  0  0  0  0  0  0  0999 V2000
   39.3230   22.7200   37.4160 C   0  0  0  0  0  0  0  0  0  0  0  0
   40.6350   22.2850   37.1440 C   0  0  0  0  0  0  0  0  0  0  0  0
   41.3410   23.0110   36.1600 C   0  0  0  0  0  0  0  0  0  0  0  0
   40.7310   24.0690   35.5410 N   0  0  0  0  0  0  0  0  0  0  0  0
   39.4800   24.4230   35.8530 C   0  0  0  0  0  0  0  0  0  0  0  0
   38.7470   23.7780   36.7800 N   0  0  0  0  0  0  0  0  0  0  0  0
   38.7620   22.1780   38.1680 H   0  0  0  0  0  0  0  0  0  0  0  0
   42.3380   22.6840   35.9510 H   0  0  0  0  0  0  0  0  0  0  0  0
   38.9270   25.5340   35.1570 N   0  0  0  0  0  0  0  0  0  0  0  0
   39.4620   26.8860   35.1640 C   0  0  0  0  0  2  0  0  0  0  0  0
   38.1850   27.7070   35.3660 C   0  0  0  0  0  2  0  0  0  0  0  0
   37.0340   26.7980   34.9510 C   0  0  0  0  0  2  0  0  0  0  0  0
   37.7610   25.6510   34.3010 C   0  0  0  0  0  3  0  0  0  0  0  0
   38.1230   26.0410   33.3180 H   0  0  0  0  0  0  0  0  0  0  0  0
   41.1830   21.1740   37.8410 N   0  0  0  0  0  0  0  0  0  0  0  0
   40.6940   20.2690   38.0030 H   0  0  0  0  0  0  0  0  0  0  0  0
   42.1680   21.3550   38.1940 H   0  0  0  0  0  0  0  0  0  0  0  0
  1  7  1  0  0  0  0
  2  1  1  0  0  0  0
  2 15  1  0  0  0  0
  3  2  2  0  0  0  0
  4  5  2  0  0  0  0
  4  3  1  0  0  0  0
  5  6  1  0  0  0  0
  6  1  2  0  0  0  0
  8  3  1  0  0  0  0
  9 10  1  0  0  0  0
  9  5  1  0  0  0  0
 10 11  1  0  0  0  0
 12 11  1  0  0  0  0
 13 12  1  0  0  0  0
 13  9  1  0  0  0  0
 14 13  1  0  0  0  0
 15 16  1  0  0  0  0
 15 17  1  0  0  0  0
M  END
>  <minimizedAffinity>
-4.16708851

$$$$

 OpenBabel03272506563D

 17 18  0  0  0  0  0  0  0  0999 V2000
   35.7370   20.7240   34.9610 C   0  0  0  0  0  0  0  0  0  0  0  0
   35.9190   20.7390   33.5650 C   0  0  0  0  0  0  0  0  0  0  0  0
   37.0070   21.5020   33.0860 C   0  0  0  0  0  0  0  0  0  0  0  0
   37.8050   22.1660   33.9790 N   0  0  0  0  0  0  0  0  0  0  0  0
   37.5690   22.1030   35.2940 C   0  0  0  0  0  0  0  0  0  0  0  0
   36.5520   21.3970   35.8220 N   0  0  0  0  0  0  0  0  0  0  0  0
   34.9090   20.1450   35.3510 H   0  0  0  0  0  0  0  0  0  0  0  0
   37.1490   21.5160   32.0260 H   0  0  0  0  0  0  0  0  0  0  0  0
   38.4490   22.8260   36.1460 N   0  0  0  0  0  0  0  0  0  0  0  0
   39.8840   22.6180   36.2510 C   0  0  0  0  0  2  0  0  0  0  0  0
   40.0750   22.6380   37.7700 C   0  0  0  0  0  2  0  0  0  0  0  0
   38.8490   23.3450   38.3360 C   0  0  0  0  0  2  0  0  0  0  0  0
   38.2080   23.9000   37.0930 C   0  0  0  0  0  3  0  0  0  0  0  0
   38.8530   24.7560   36.7750 H   0  0  0  0  0  0  0  0  0  0  0  0
   35.0370   20.0160   32.7160 N   0  0  0  0  0  0  0  0  0  0  0  0
   33.9970   20.0220   32.7900 H   0  0  0  0  0  0  0  0  0  0  0  0
   35.5480   19.4520   31.9760 H   0  0  0  0  0  0  0  0  0  0  0  0
  1  7  1  0  0  0  0
  1  6  1  0  0  0  0
  2  1  2  0  0  0  0
  3  2  1  0  0  0  0
  3  4  2  0  0  0  0
  4  5  1  0  0  0  0
  5  6  2  0  0  0  0
  5  9  1  0  0  0  0
  8  3  1  0  0  0  0
  9 10  1  0  0  0  0
  9 13  1  0  0  0  0
 10 11  1  0  0  0  0
 11 12  1  0  0  0  0
 13 12  1  0  0  0  0
 14 13  1  0  0  0  0
 15 16  1  0  0  0  0
 15  2  1  0  0  0  0
 17 15  1  0  0  0  0
M  END
>  <minimizedAffinity>
-4.0077486

$$$$

 OpenBabel03272506563D

 17 18  0  0  0  0  0  0  0  0999 V2000
   37.9720   24.3540   37.4410 C   0  0  0  0  0  0  0  0  0  0  0  0
   38.6770   23.2460   37.9510 C   0  0  0  0  0  0  0  0  0  0  0  0
   39.8210   22.8480   37.2260 C   0  0  0  0  0  0  0  0  0  0  0  0
   40.1760   23.5410   36.0990 N   0  0  0  0  0  0  0  0  0  0  0  0
   39.4560   24.5850   35.6760 C   0  0  0  0  0  0  0  0  0  0  0  0
   38.3540   25.0210   36.3160 N   0  0  0  0  0  0  0  0  0  0  0  0
   37.0900   24.6770   37.9810 H   0  0  0  0  0  0  0  0  0  0  0  0
   40.3600   22.0070   37.6090 H   0  0  0  0  0  0  0  0  0  0  0  0
   39.8980   25.2440   34.4960 N   0  0  0  0  0  0  0  0  0  0  0  0
   41.1910   25.8840   34.3200 C   0  0  0  0  0  2  0  0  0  0  0  0
   40.7810   27.1970   33.6470 C   0  0  0  0  0  2  0  0  0  0  0  0
   39.3950   26.9510   33.0620 C   0  0  0  0  0  2  0  0  0  0  0  0
   39.2520   25.4610   33.2140 C   0  0  0  0  0  3  0  0  0  0  0  0
   39.9220   25.0120   32.4380 H   0  0  0  0  0  0  0  0  0  0  0  0
   38.2310   22.5910   39.1300 N   0  0  0  0  0  0  0  0  0  0  0  0
   37.2440   22.3170   39.3260 H   0  0  0  0  0  0  0  0  0  0  0  0
   39.0170   22.3980   39.8170 H   0  0  0  0  0  0  0  0  0  0  0  0
  1  2  1  0  0  0  0
  1  7  1  0  0  0  0
  2 15  1  0  0  0  0
  3  8  1  0  0  0  0
  3  2  2  0  0  0  0
  4  3  1  0  0  0  0
  5  4  2  0  0  0  0
  5  6  1  0  0  0  0
  6  1  2  0  0  0  0
  9  5  1  0  0  0  0
 10  9  1  0  0  0  0
 11 10  1  0  0  0  0
 12 13  1  0  0  0  0
 12 11  1  0  0  0  0
 13  9  1  0  0  0  0
 14 13  1  0  0  0  0
 15 16  1  0  0  0  0
 15 17  1  0  0  0  0
M  END
>  <minimizedAffinity>
-3.97026873

$$$$

 OpenBabel03272506563D

 17 18  0  0  0  0  0  0  0  0999 V2000
   38.0060   24.5610   37.3600 C   0  0  0  0  0  0  0  0  0  0  0  0
   38.7130   23.3500   37.4900 C   0  0  0  0  0  0  0  0  0  0  0  0
   39.2860   22.8320   36.3080 C   0  0  0  0  0  0  0  0  0  0  0  0
   39.1290   23.5150   35.1320 N   0  0  0  0  0  0  0  0  0  0  0  0
   38.4430   24.6620   35.0870 C   0  0  0  0  0  0  0  0  0  0  0  0
   37.8700   25.2150   36.1720 N   0  0  0  0  0  0  0  0  0  0  0  0
   37.5580   24.9780   38.2540 H   0  0  0  0  0  0  0  0  0  0  0  0
   39.8230   21.9120   36.4030 H   0  0  0  0  0  0  0  0  0  0  0  0
   38.3310   25.3020   33.8210 N   0  0  0  0  0  0  0  0  0  0  0  0
   39.4430   25.7700   33.0100 C   0  0  0  0  0  2  0  0  0  0  0  0
   38.9370   27.1520   32.5860 C   0  0  0  0  0  2  0  0  0  0  0  0
   37.4240   27.1160   32.7690 C   0  0  0  0  0  2  0  0  0  0  0  0
   37.1740   25.6540   33.0180 C   0  0  0  0  0  3  0  0  0  0  0  0
   37.3070   25.1500   32.0280 H   0  0  0  0  0  0  0  0  0  0  0  0
   38.8210   22.7140   38.7570 N   0  0  0  0  0  0  0  0  0  0  0  0
   38.0330   22.5670   39.4220 H   0  0  0  0  0  0  0  0  0  0  0  0
   39.8100   22.3910   38.9710 H   0  0  0  0  0  0  0  0  0  0  0  0
  1  2  1  0  0  0  0
  1  7  1  0  0  0  0
  2 15  1  0  0  0  0
  3  8  1  0  0  0  0
  3  2  2  0  0  0  0
  4  3  1  0  0  0  0
  5  4  2  0  0  0  0
  5  6  1  0  0  0  0
  6  1  2  0  0  0  0
  9  5  1  0  0  0  0
 10  9  1  0  0  0  0
 11 12  1  0  0  0  0
 11 10  1  0  0  0  0
 12 13  1  0  0  0  0
 13  9  1  0  0  0  0
 14 13  1  0  0  0  0
 15 17  1  0  0  0  0
 15 16  1  0  0  0  0
M  END
>  <minimizedAffinity>
-3.96812677

$$$$

 OpenBabel03272506563D

 17 18  0  0  0  0  0  0  0  0999 V2000
   38.5170   25.5480   35.0830 C   0  0  0  0  0  0  0  0  0  0  0  0
   38.1420   26.9010   35.1990 C   0  0  0  0  0  0  0  0  0  0  0  0
   37.3480   27.4210   34.1540 C   0  0  0  0  0  0  0  0  0  0  0  0
   36.9930   26.6050   33.1120 N   0  0  0  0  0  0  0  0  0  0  0  0
   37.3880   25.3280   33.0720 C   0  0  0  0  0  0  0  0  0  0  0  0
   38.1450   24.7650   34.0320 N   0  0  0  0  0  0  0  0  0  0  0  0
   39.1260   25.1290   35.8740 H   0  0  0  0  0  0  0  0  0  0  0  0
   37.0610   28.4480   34.2380 H   0  0  0  0  0  0  0  0  0  0  0  0
   36.9720   24.5560   31.9510 N   0  0  0  0  0  0  0  0  0  0  0  0
   35.5950   24.2900   31.5720 C   0  0  0  0  0  2  0  0  0  0  0  0
   35.6580   22.7920   31.2620 C   0  0  0  0  0  2  0  0  0  0  0  0
   37.1290   22.4800   31.0090 C   0  0  0  0  0  2  0  0  0  0  0  0
   37.7300   23.8570   30.9290 C   0  0  0  0  0  3  0  0  0  0  0  0
   37.4020   24.2750   29.9450 H   0  0  0  0  0  0  0  0  0  0  0  0
   38.5590   27.6690   36.3200 N   0  0  0  0  0  0  0  0  0  0  0  0
   39.5280   27.6880   36.7060 H   0  0  0  0  0  0  0  0  0  0  0  0
   37.7710   28.2410   36.7440 H   0  0  0  0  0  0  0  0  0  0  0  0
  1  2  1  0  0  0  0
  1  7  1  0  0  0  0
  2 15  1  0  0  0  0
  3  8  1  0  0  0  0
  3  2  2  0  0  0  0
  4  3  1  0  0  0  0
  5  4  2  0  0  0  0
  5  6  1  0  0  0  0
  6  1  2  0  0  0  0
  9  5  1  0  0  0  0
 10  9  1  0  0  0  0
 11 10  1  0  0  0  0
 12 11  1  0  0  0  0
 13 12  1  0  0  0  0
 13  9  1  0  0  0  0
 14 13  1  0  0  0  0
 15 16  1  0  0  0  0
 15 17  1  0  0  0  0
M  END
>  <minimizedAffinity>
-3.92650127

$$$$

 OpenBabel03272506563D

 17 18  0  0  0  0  0  0  0  0999 V2000
   40.9660   23.1130   36.0420 C   0  0  0  0  0  0  0  0  0  0  0  0
   40.2260   22.6140   37.1310 C   0  0  0  0  0  0  0  0  0  0  0  0
   38.9840   23.2390   37.3820 C   0  0  0  0  0  0  0  0  0  0  0  0
   38.5760   24.2660   36.5740 N   0  0  0  0  0  0  0  0  0  0  0  0
   39.3350   24.6860   35.5550 C   0  0  0  0  0  0  0  0  0  0  0  0
   40.5280   24.1380   35.2580 N   0  0  0  0  0  0  0  0  0  0  0  0
   41.9210   22.6490   35.8310 H   0  0  0  0  0  0  0  0  0  0  0  0
   38.4200   22.8630   38.2090 H   0  0  0  0  0  0  0  0  0  0  0  0
   38.8310   25.7600   34.7700 N   0  0  0  0  0  0  0  0  0  0  0  0
   37.5850   25.7470   34.0220 C   0  0  0  0  0  2  0  0  0  0  0  0
   38.0320   26.3620   32.6930 C   0  0  0  0  0  2  0  0  0  0  0  0
   39.3270   27.1090   32.9930 C   0  0  0  0  0  2  0  0  0  0  0  0
   39.3590   27.0840   34.4980 C   0  0  0  0  0  3  0  0  0  0  0  0
   38.5790   27.8140   34.8290 H   0  0  0  0  0  0  0  0  0  0  0  0
   40.7330   21.5410   37.9140 N   0  0  0  0  0  0  0  0  0  0  0  0
   41.7090   21.4730   38.2760 H   0  0  0  0  0  0  0  0  0  0  0  0
   40.0070   20.7900   38.1030 H   0  0  0  0  0  0  0  0  0  0  0  0
  1  2  1  0  0  0  0
  2  3  2  0  0  0  0
  2 15  1  0  0  0  0
  3  8  1  0  0  0  0
  4  3  1  0  0  0  0
  5  4  2  0  0  0  0
  6  5  1  0  0  0  0
  6  1  2  0  0  0  0
  7  1  1  0  0  0  0
  9  5  1  0  0  0  0
 10  9  1  0  0  0  0
 11 12  1  0  0  0  0
 11 10  1  0  0  0  0
 12 13  1  0  0  0  0
 13  9  1  0  0  0  0
 13 14  1  0  0  0  0
 15 17  1  0  0  0  0
 15 16  1  0  0  0  0
M  END
>  <minimizedAffinity>
-3.91769385

$$$$

 OpenBabel03272506563D

 17 18  0  0  0  0  0  0  0  0999 V2000
   35.6710   26.7100   31.5320 C   0  0  0  0  0  0  0  0  0  0  0  0
   35.3110   25.4720   30.9650 C   0  0  0  0  0  0  0  0  0  0  0  0
   35.9460   24.3310   31.5030 C   0  0  0  0  0  0  0  0  0  0  0  0
   36.8510   24.4840   32.5190 N   0  0  0  0  0  0  0  0  0  0  0  0
   37.1420   25.6950   33.0070 C   0  0  0  0  0  0  0  0  0  0  0  0
   36.5760   26.8260   32.5440 N   0  0  0  0  0  0  0  0  0  0  0  0
   35.1960   27.5990   31.1350 H   0  0  0  0  0  0  0  0  0  0  0  0
   35.6760   23.3890   31.0750 H   0  0  0  0  0  0  0  0  0  0  0  0
   38.0950   25.7580   34.0610 N   0  0  0  0  0  0  0  0  0  0  0  0
   37.9650   25.1120   35.3560 C   0  0  0  0  0  2  0  0  0  0  0  0
   38.4030   26.2400   36.2950 C   0  0  0  0  0  2  0  0  0  0  0  0
   39.2020   27.2120   35.4340 C   0  0  0  0  0  2  0  0  0  0  0  0
   39.3780   26.4290   34.1610 C   0  0  0  0  0  3  0  0  0  0  0  0
   40.1350   25.6390   34.3930 H   0  0  0  0  0  0  0  0  0  0  0  0
   34.3590   25.4130   29.9110 N   0  0  0  0  0  0  0  0  0  0  0  0
   34.3540   26.0340   29.0740 H   0  0  0  0  0  0  0  0  0  0  0  0
   33.6300   24.6550   30.0570 H   0  0  0  0  0  0  0  0  0  0  0  0
  1  6  1  0  0  0  0
  2  3  1  0  0  0  0
  2  1  2  0  0  0  0
  3  4  2  0  0  0  0
  4  5  1  0  0  0  0
  5  9  1  0  0  0  0
  6  5  2  0  0  0  0
  7  1  1  0  0  0  0
  8  3  1  0  0  0  0
  9 13  1  0  0  0  0
  9 10  1  0  0  0  0
 10 11  1  0  0  0  0
 12 11  1  0  0  0  0
 13 14  1  0  0  0  0
 13 12  1  0  0  0  0
 15 17  1  0  0  0  0
 15  2  1  0  0  0  0
 16 15  1  0  0  0  0
M  END
>  <minimizedAffinity>
-3.90326786

$$$$

 OpenBabel03272506563D

 17 18  0  0  0  0  0  0  0  0999 V2000
   39.9030   23.4260   36.1510 C   0  0  0  0  0  0  0  0  0  0  0  0
   39.0770   23.4300   37.2920 C   0  0  0  0  0  0  0  0  0  0  0  0
   38.0010   24.3440   37.2800 C   0  0  0  0  0  0  0  0  0  0  0  0
   37.8210   25.1530   36.1900 N   0  0  0  0  0  0  0  0  0  0  0  0
   38.6480   25.0910   35.1410 C   0  0  0  0  0  0  0  0  0  0  0  0
   39.6940   24.2460   35.0830 N   0  0  0  0  0  0  0  0  0  0  0  0
   40.7350   22.7330   36.1390 H   0  0  0  0  0  0  0  0  0  0  0  0
   37.3710   24.3510   38.1450 H   0  0  0  0  0  0  0  0  0  0  0  0
   38.3840   25.9700   34.0540 N   0  0  0  0  0  0  0  0  0  0  0  0
   37.1620   25.9990   33.2680 C   0  0  0  0  0  2  0  0  0  0  0  0
   37.7260   26.0930   31.8470 C   0  0  0  0  0  2  0  0  0  0  0  0
   39.1530   26.6100   31.9980 C   0  0  0  0  0  2  0  0  0  0  0  0
   39.1850   27.0180   33.4460 C   0  0  0  0  0  3  0  0  0  0  0  0
   38.5820   27.9580   33.5090 H   0  0  0  0  0  0  0  0  0  0  0  0
   39.3450   22.5510   38.3770 N   0  0  0  0  0  0  0  0  0  0  0  0
   40.2840   22.3910   38.8000 H   0  0  0  0  0  0  0  0  0  0  0  0
   38.4740   22.0550   38.7280 H   0  0  0  0  0  0  0  0  0  0  0  0
  1  2  1  0  0  0  0
  2 15  1  0  0  0  0
  3  2  2  0  0  0  0
  3  8  1  0  0  0  0
  4  3  1  0  0  0  0
  5  4  2  0  0  0  0
  6  5  1  0  0  0  0
  6  1  2  0  0  0  0
  7  1  1  0  0  0  0
  9  5  1  0  0  0  0
 10  9  1  0  0  0  0
 11 12  1  0  0  0  0
 11 10  1  0  0  0  0
 12 13  1  0  0  0  0
 13 14  1  0  0  0  0
 13  9  1  0  0  0  0
 15 17  1  0  0  0  0
 15 16  1  0  0  0  0
M  END
>  <minimizedAffinity>
-3.76088142

$$$$

 OpenBabel03272506563D

 17 18  0  0  0  0  0  0  0  0999 V2000
   38.1410   22.0600   36.0460 C   0  0  0  0  0  0  0  0  0  0  0  0
   39.1570   22.8400   36.6330 C   0  0  0  0  0  0  0  0  0  0  0  0
   39.6480   23.9120   35.8560 C   0  0  0  0  0  0  0  0  0  0  0  0
   39.1260   24.1310   34.6090 N   0  0  0  0  0  0  0  0  0  0  0  0
   38.1610   23.3460   34.1180 C   0  0  0  0  0  0  0  0  0  0  0  0
   37.6440   22.3070   34.8010 N   0  0  0  0  0  0  0  0  0  0  0  0
   37.7490   21.2330   36.6240 H   0  0  0  0  0  0  0  0  0  0  0  0
   40.4200   24.5060   36.2980 H   0  0  0  0  0  0  0  0  0  0  0  0
   37.6790   23.6490   32.8140 N   0  0  0  0  0  0  0  0  0  0  0  0
   37.0620   24.9010   32.4100 C   0  0  0  0  0  2  0  0  0  0  0  0
   35.8650   24.3930   31.6010 C   0  0  0  0  0  2  0  0  0  0  0  0
   36.2050   22.9590   31.2100 C   0  0  0  0  0  2  0  0  0  0  0  0
   37.6580   22.8670   31.5900 C   0  0  0  0  0  3  0  0  0  0  0  0
   38.2110   23.4630   30.8220 H   0  0  0  0  0  0  0  0  0  0  0  0
   39.6350   22.5340   37.9360 N   0  0  0  0  0  0  0  0  0  0  0  0
   39.8840   21.5800   38.2730 H   0  0  0  0  0  0  0  0  0  0  0  0
   39.7190   23.3930   38.5550 H   0  0  0  0  0  0  0  0  0  0  0  0
  1  7  1  0  0  0  0
  1  2  1  0  0  0  0
  2 15  1  0  0  0  0
  3  8  1  0  0  0  0
  3  2  2  0  0  0  0
  4  3  1  0  0  0  0
  5  4  2  0  0  0  0
  5  6  1  0  0  0  0
  6  1  2  0  0  0  0
  9  5  1  0  0  0  0
 10  9  1  0  0  0  0
 11 10  1  0  0  0  0
 12 13  1  0  0  0  0
 12 11  1  0  0  0  0
 13  9  1  0  0  0  0
 14 13  1  0  0  0  0
 15 16  1  0  0  0  0
 15 17  1  0  0  0  0
M  END
>  <minimizedAffinity>
-3.73264599

$$$$
