
 OpenBabel03272510323D

 25 27  0  0  0  0  0  0  0  0999 V2000
   35.7160   30.0450   47.9870 C   0  0  0  0  0  0  0  0  0  0  0  0
   34.9590   30.1670   46.8470 C   0  0  0  0  0  0  0  0  0  0  0  0
   33.8830   29.3250   46.6070 C   0  0  0  0  0  0  0  0  0  0  0  0
   33.5950   28.3540   47.5610 C   0  0  0  0  0  0  0  0  0  0  0  0
   34.3400   28.2120   48.7100 C   0  0  0  0  0  0  0  0  0  0  0  0
   35.4040   29.0670   48.9150 C   0  0  0  0  0  0  0  0  0  0  0  0
   35.1530   30.9110   46.0830 H   0  0  0  0  0  0  0  0  0  0  0  0
   33.2980   29.4230   45.7210 H   0  0  0  0  0  0  0  0  0  0  0  0
   32.7550   27.6770   47.3990 H   0  0  0  0  0  0  0  0  0  0  0  0
   34.1310   27.4600   49.4650 H   0  0  0  0  0  0  0  0  0  0  0  0
   37.6660   32.8110   49.3000 C   0  0  0  0  0  0  0  0  0  0  0  0
   38.8450   32.8090   48.5570 C   0  0  0  0  0  0  0  0  0  0  0  0
   38.9540   31.8120   47.5740 C   0  0  0  0  0  0  0  0  0  0  0  0
   37.9460   30.9180   47.3880 N   0  0  0  0  0  0  0  0  0  0  0  0
   36.8210   30.9740   48.1460 C   0  0  0  0  0  0  0  0  0  0  0  0
   36.6800   31.9290   49.1120 N   0  0  0  0  0  0  0  0  0  0  0  0
   37.5020   33.5490   50.0800 H   0  0  0  0  0  0  0  0  0  0  0  0
   39.6050   33.5350   48.7440 H   0  0  0  0  0  0  0  0  0  0  0  0
   39.8590   31.7810   46.9750 H   0  0  0  0  0  0  0  0  0  0  0  0
   36.2270   28.9910   50.0750 N   0  0  0  0  0  0  0  0  0  0  0  0
   35.8110   29.1900   51.4690 C   0  0  0  0  0  2  0  0  0  0  0  0
   36.8250   30.2640   51.8810 C   0  0  0  0  0  2  0  0  0  0  0  0
   38.1080   29.5820   51.4180 C   0  0  0  0  0  2  0  0  0  0  0  0
   37.6250   28.7210   50.2910 C   0  0  0  0  0  3  0  0  0  0  0  0
   37.6970   27.6640   50.6130 H   0  0  0  0  0  0  0  0  0  0  0  0
  1 15  1  0  0  0  0
  1  6  1  0  0  0  0
  2  1  2  0  0  0  0
  3  2  1  0  0  0  0
  3  4  2  0  0  0  0
  4  5  1  0  0  0  0
  5  6  2  0  0  0  0
  5 10  1  0  0  0  0
  6 20  1  0  0  0  0
  7  2  1  0  0  0  0
  8  3  1  0  0  0  0
  9  4  1  0  0  0  0
 11 17  1  0  0  0  0
 12 18  1  0  0  0  0
 12 11  2  0  0  0  0
 13 12  1  0  0  0  0
 14 13  2  0  0  0  0
 14 15  1  0  0  0  0
 15 16  2  0  0  0  0
 16 11  1  0  0  0  0
 19 13  1  0  0  0  0
 20 24  1  0  0  0  0
 20 21  1  0  0  0  0
 21 22  1  0  0  0  0
 23 22  1  0  0  0  0
 24 25  1  0  0  0  0
 24 23  1  0  0  0  0
M  END
>  <minimizedAffinity>
-4.42316055

>  <minimizedRMSD>
0.933688104

$$$$
