
 OpenBabel03272509293D

 31 33  0  0  1  0  0  0  0  0999 V2000
   39.0040   25.7980   34.6390 C   0  0  2  0  0  0  0  0  0  0  0  0
   38.8870   27.1270   35.3620 C   0  0  0  0  0  0  0  0  0  0  0  0
   37.4950   27.6870   35.3180 C   0  0  0  0  0  0  0  0  0  0  0  0
   36.9680   27.8090   33.9080 C   0  0  0  0  0  0  0  0  0  0  0  0
   37.2460   26.6020   33.0590 C   0  0  0  0  0  0  0  0  0  0  0  0
   37.7780   25.4380   33.8690 C   0  0  1  0  0  0  0  0  0  0  0  0
   39.9190   25.8010   34.0030 H   0  0  0  0  0  0  0  0  0  0  0  0
   39.2120   27.0900   36.4150 H   0  0  0  0  0  0  0  0  0  0  0  0
   39.5380   27.8460   34.8310 H   0  0  0  0  0  0  0  0  0  0  0  0
   36.7920   26.9720   35.8300 H   0  0  0  0  0  0  0  0  0  0  0  0
   37.5030   28.6750   35.7780 H   0  0  0  0  0  0  0  0  0  0  0  0
   37.4310   28.7430   33.5000 H   0  0  0  0  0  0  0  0  0  0  0  0
   35.8790   28.0380   33.9740 H   0  0  0  0  0  0  0  0  0  0  0  0
   36.3010   26.2330   32.5860 H   0  0  0  0  0  0  0  0  0  0  0  0
   37.9490   26.9180   32.2770 H   0  0  0  0  0  0  0  0  0  0  0  0
   36.9570   25.1500   34.5730 H   0  0  0  0  0  0  0  0  0  0  0  0
   39.2440   24.7080   35.6350 C   0  0  0  0  0  0  0  0  0  0  0  0
   38.2490   24.5450   36.6170 C   0  0  0  0  0  0  0  0  0  0  0  0
   38.4610   23.5400   37.5650 C   0  0  0  0  0  0  0  0  0  0  0  0
   39.6040   22.7730   37.5000 N   0  0  0  0  0  0  0  0  0  0  0  0
   40.5400   22.9740   36.5250 C   0  0  0  0  0  0  0  0  0  0  0  0
   40.3510   23.9320   35.6120 N   0  0  0  0  0  0  0  0  0  0  0  0
   37.3470   25.1270   36.6930 H   0  0  0  0  0  0  0  0  0  0  0  0
   37.7820   23.3120   38.3630 H   0  0  0  0  0  0  0  0  0  0  0  0
   41.4070   22.3320   36.5430 H   0  0  0  0  0  0  0  0  0  0  0  0
   38.0320   24.3140   33.0350 N   0  0  2  0  0  0  0  0  0  0  0  0
   39.0450   24.4760   32.0420 C   0  0  0  0  0  2  0  0  0  0  0  0
   38.8370   23.2240   31.1770 C   0  0  0  0  0  2  0  0  0  0  0  0
   37.5010   22.6440   31.5950 C   0  0  0  0  0  2  0  0  0  0  0  0
   36.8890   23.8810   32.2680 C   0  0  0  0  0  3  0  0  0  0  0  0
   36.0090   23.6250   32.8510 H   0  0  0  0  0  0  0  0  0  0  0  0
  1  7  1  6  0  0  0
  1  2  1  0  0  0  0
  1 17  1  0  0  0  0
  2  8  1  0  0  0  0
  3  2  1  0  0  0  0
  3 11  1  0  0  0  0
  3 10  1  0  0  0  0
  4 13  1  0  0  0  0
  4  3  1  0  0  0  0
  5  6  1  0  0  0  0
  5  4  1  0  0  0  0
  6 16  1  1  0  0  0
  6  1  1  0  0  0  0
  9  2  1  0  0  0  0
 12  4  1  0  0  0  0
 14  5  1  0  0  0  0
 15  5  1  0  0  0  0
 17 18  1  0  0  0  0
 18 23  1  0  0  0  0
 18 19  2  0  0  0  0
 19 24  1  0  0  0  0
 20 19  1  0  0  0  0
 21 25  1  0  0  0  0
 21 20  2  0  0  0  0
 22 17  2  0  0  0  0
 22 21  1  0  0  0  0
 26 27  1  6  0  0  0
 26  6  1  0  0  0  0
 28 29  1  0  0  0  0
 28 27  1  0  0  0  0
 29 30  1  0  0  0  0
 30 31  1  0  0  0  0
 30 26  1  0  0  0  0
M  END
>  <minimizedAffinity>
-4.50951815

$$$$

 OpenBabel03272509293D

 31 33  0  0  1  0  0  0  0  0999 V2000
   37.9650   23.1060   34.6620 C   0  0  2  0  0  0  0  0  0  0  0  0
   38.2960   21.7930   33.9770 C   0  0  0  0  0  0  0  0  0  0  0  0
   39.3340   21.9470   32.9060 C   0  0  0  0  0  0  0  0  0  0  0  0
   38.9560   22.9920   31.8830 C   0  0  0  0  0  0  0  0  0  0  0  0
   38.4070   24.2520   32.4880 C   0  0  0  0  0  0  0  0  0  0  0  0
   38.5790   24.2890   33.9930 C   0  0  1  0  0  0  0  0  0  0  0  0
   36.8600   23.2040   34.7650 H   0  0  0  0  0  0  0  0  0  0  0  0
   38.6270   21.0020   34.6700 H   0  0  0  0  0  0  0  0  0  0  0  0
   37.3720   21.4430   33.4800 H   0  0  0  0  0  0  0  0  0  0  0  0
   40.2890   22.3260   33.3670 H   0  0  0  0  0  0  0  0  0  0  0  0
   39.4590   20.9890   32.4010 H   0  0  0  0  0  0  0  0  0  0  0  0
   38.2280   22.4860   31.2000 H   0  0  0  0  0  0  0  0  0  0  0  0
   39.8520   23.1830   31.2480 H   0  0  0  0  0  0  0  0  0  0  0  0
   38.9610   25.1440   32.1000 H   0  0  0  0  0  0  0  0  0  0  0  0
   37.3520   24.3150   32.1910 H   0  0  0  0  0  0  0  0  0  0  0  0
   39.6830   24.3010   34.1780 H   0  0  0  0  0  0  0  0  0  0  0  0
   38.4710   23.0750   36.0700 C   0  0  0  0  0  0  0  0  0  0  0  0
   37.5420   23.4350   37.0630 C   0  0  0  0  0  0  0  0  0  0  0  0
   38.0000   23.4250   38.3840 C   0  0  0  0  0  0  0  0  0  0  0  0
   39.3050   23.0730   38.6500 N   0  0  0  0  0  0  0  0  0  0  0  0
   40.1670   22.7320   37.6460 C   0  0  0  0  0  0  0  0  0  0  0  0
   39.7440   22.7370   36.3780 N   0  0  0  0  0  0  0  0  0  0  0  0
   36.5180   23.7140   36.8870 H   0  0  0  0  0  0  0  0  0  0  0  0
   37.3950   23.6770   39.2330 H   0  0  0  0  0  0  0  0  0  0  0  0
   41.1730   22.4690   37.9360 H   0  0  0  0  0  0  0  0  0  0  0  0
   38.0490   25.4930   34.5340 N   0  0  2  0  0  0  0  0  0  0  0  0
   37.2010   26.2560   33.6740 C   0  0  0  0  0  2  0  0  0  0  0  0
   37.0710   27.5740   34.4520 C   0  0  0  0  0  2  0  0  0  0  0  0
   38.1350   27.5280   35.5300 C   0  0  0  0  0  2  0  0  0  0  0  0
   39.0510   26.4490   34.9360 C   0  0  0  0  0  3  0  0  0  0  0  0
   39.7710   26.0880   35.6650 H   0  0  0  0  0  0  0  0  0  0  0  0
  1  7  1  1  0  0  0
  1 17  1  0  0  0  0
  2  1  1  0  0  0  0
  2  8  1  0  0  0  0
  3 10  1  0  0  0  0
  3  2  1  0  0  0  0
  4  5  1  0  0  0  0
  4  3  1  0  0  0  0
  5  6  1  0  0  0  0
  6 16  1  1  0  0  0
  6 26  1  0  0  0  0
  6  1  1  0  0  0  0
  9  2  1  0  0  0  0
 11  3  1  0  0  0  0
 12  4  1  0  0  0  0
 13  4  1  0  0  0  0
 14  5  1  0  0  0  0
 15  5  1  0  0  0  0
 17 22  2  0  0  0  0
 17 18  1  0  0  0  0
 18 19  2  0  0  0  0
 19 20  1  0  0  0  0
 19 24  1  0  0  0  0
 21 25  1  0  0  0  0
 21 20  2  0  0  0  0
 22 21  1  0  0  0  0
 23 18  1  0  0  0  0
 26 27  1  6  0  0  0
 26 30  1  0  0  0  0
 27 28  1  0  0  0  0
 28 29  1  0  0  0  0
 30 29  1  0  0  0  0
 30 31  1  0  0  0  0
M  END
>  <minimizedAffinity>
-4.48834324

$$$$

 OpenBabel03272509293D

 31 33  0  0  1  0  0  0  0  0999 V2000
   38.1990   25.2500   33.5850 C   0  0  2  0  0  0  0  0  0  0  0  0
   38.7180   24.6080   34.8570 C   0  0  0  0  0  0  0  0  0  0  0  0
   38.1260   25.2180   36.0940 C   0  0  0  0  0  0  0  0  0  0  0  0
   38.3170   26.7150   36.1460 C   0  0  0  0  0  0  0  0  0  0  0  0
   38.0310   27.4010   34.8410 C   0  0  0  0  0  0  0  0  0  0  0  0
   37.3830   26.4730   33.8340 C   0  0  1  0  0  0  0  0  0  0  0  0
   39.0500   25.4430   32.8910 H   0  0  0  0  0  0  0  0  0  0  0  0
   38.5620   23.5170   34.9000 H   0  0  0  0  0  0  0  0  0  0  0  0
   39.8080   24.7960   34.8980 H   0  0  0  0  0  0  0  0  0  0  0  0
   37.0100   25.0680   36.0830 H   0  0  0  0  0  0  0  0  0  0  0  0
   38.6040   24.7710   36.9660 H   0  0  0  0  0  0  0  0  0  0  0  0
   39.3710   26.8650   36.4930 H   0  0  0  0  0  0  0  0  0  0  0  0
   37.6880   27.1070   36.9780 H   0  0  0  0  0  0  0  0  0  0  0  0
   37.3010   28.2360   34.9930 H   0  0  0  0  0  0  0  0  0  0  0  0
   38.9840   27.8050   34.4780 H   0  0  0  0  0  0  0  0  0  0  0  0
   36.3920   26.1880   34.2680 H   0  0  0  0  0  0  0  0  0  0  0  0
   37.3330   24.2750   32.8520 C   0  0  0  0  0  0  0  0  0  0  0  0
   37.5910   22.9150   33.1040 C   0  0  0  0  0  0  0  0  0  0  0  0
   36.8010   21.9880   32.4190 C   0  0  0  0  0  0  0  0  0  0  0  0
   35.8290   22.4330   31.5490 N   0  0  0  0  0  0  0  0  0  0  0  0
   35.6200   23.7670   31.3390 C   0  0  0  0  0  0  0  0  0  0  0  0
   36.3690   24.6650   31.9880 N   0  0  0  0  0  0  0  0  0  0  0  0
   38.3410   22.5370   33.7770 H   0  0  0  0  0  0  0  0  0  0  0  0
   36.8940   20.9250   32.5210 H   0  0  0  0  0  0  0  0  0  0  0  0
   34.8410   24.0340   30.6430 H   0  0  0  0  0  0  0  0  0  0  0  0
   37.1260   27.1530   32.6110 N   0  0  2  0  0  0  0  0  0  0  0  0
   38.2650   27.6650   31.9180 C   0  0  0  0  0  2  0  0  0  0  0  0
   37.6080   28.5560   30.8540 C   0  0  0  0  0  2  0  0  0  0  0  0
   36.1590   28.7050   31.2700 C   0  0  0  0  0  2  0  0  0  0  0  0
   36.2800   28.3130   32.7500 C   0  0  0  0  0  3  0  0  0  0  0  0
   35.3070   28.1270   33.1960 H   0  0  0  0  0  0  0  0  0  0  0  0
  1  7  1  6  0  0  0
  1  6  1  0  0  0  0
  1  2  1  0  0  0  0
  2  9  1  0  0  0  0
  2  8  1  0  0  0  0
  2  3  1  0  0  0  0
  3  4  1  0  0  0  0
  3 11  1  0  0  0  0
  4 12  1  0  0  0  0
  4 13  1  0  0  0  0
  5 14  1  0  0  0  0
  5  4  1  0  0  0  0
  6 16  1  1  0  0  0
  6  5  1  0  0  0  0
 10  3  1  0  0  0  0
 15  5  1  0  0  0  0
 17 18  1  0  0  0  0
 17  1  1  0  0  0  0
 18 23  1  0  0  0  0
 19 24  1  0  0  0  0
 19 18  2  0  0  0  0
 20 19  1  0  0  0  0
 21 20  2  0  0  0  0
 21 22  1  0  0  0  0
 22 17  2  0  0  0  0
 25 21  1  0  0  0  0
 26 27  1  1  0  0  0
 26 30  1  0  0  0  0
 26  6  1  0  0  0  0
 28 29  1  0  0  0  0
 28 27  1  0  0  0  0
 29 30  1  0  0  0  0
 30 31  1  0  0  0  0
M  END
>  <minimizedAffinity>
-4.46443081

$$$$

 OpenBabel03272509293D

 31 33  0  0  1  0  0  0  0  0999 V2000
   38.2640   26.1810   33.3160 C   0  0  2  0  0  0  0  0  0  0  0  0
   38.8490   27.2090   32.3660 C   0  0  0  0  0  0  0  0  0  0  0  0
   40.3480   27.1740   32.3280 C   0  0  0  0  0  0  0  0  0  0  0  0
   40.9620   27.3200   33.7010 C   0  0  0  0  0  0  0  0  0  0  0  0
   40.2850   26.4870   34.7510 C   0  0  0  0  0  0  0  0  0  0  0  0
   39.2950   25.5070   34.1570 C   0  0  1  0  0  0  0  0  0  0  0  0
   37.4620   26.6540   33.9280 H   0  0  0  0  0  0  0  0  0  0  0  0
   38.4740   27.1220   31.3320 H   0  0  0  0  0  0  0  0  0  0  0  0
   38.5620   28.2070   32.7470 H   0  0  0  0  0  0  0  0  0  0  0  0
   40.6860   26.1630   31.9660 H   0  0  0  0  0  0  0  0  0  0  0  0
   40.7000   27.9900   31.6970 H   0  0  0  0  0  0  0  0  0  0  0  0
   40.9250   28.4160   33.9250 H   0  0  0  0  0  0  0  0  0  0  0  0
   42.0490   27.0870   33.6110 H   0  0  0  0  0  0  0  0  0  0  0  0
   41.0360   25.8630   35.2970 H   0  0  0  0  0  0  0  0  0  0  0  0
   39.8070   27.1850   35.4510 H   0  0  0  0  0  0  0  0  0  0  0  0
   39.8960   24.8010   33.5300 H   0  0  0  0  0  0  0  0  0  0  0  0
   37.5610   25.1200   32.5310 C   0  0  0  0  0  0  0  0  0  0  0  0
   36.2860   25.4600   32.0450 C   0  0  0  0  0  0  0  0  0  0  0  0
   35.6070   24.4760   31.3200 C   0  0  0  0  0  0  0  0  0  0  0  0
   36.1990   23.2480   31.1190 N   0  0  0  0  0  0  0  0  0  0  0  0
   37.4420   22.9690   31.6140 C   0  0  0  0  0  0  0  0  0  0  0  0
   38.1030   23.9010   32.3090 N   0  0  0  0  0  0  0  0  0  0  0  0
   35.7970   26.4090   32.1860 H   0  0  0  0  0  0  0  0  0  0  0  0
   34.6310   24.6070   30.8950 H   0  0  0  0  0  0  0  0  0  0  0  0
   37.8360   21.9860   31.4120 H   0  0  0  0  0  0  0  0  0  0  0  0
   38.6720   24.7350   35.1780 N   0  0  2  0  0  0  0  0  0  0  0  0
   38.1480   25.4610   36.2910 C   0  0  0  0  0  2  0  0  0  0  0  0
   37.8400   24.3300   37.2840 C   0  0  0  0  0  2  0  0  0  0  0  0
   38.5310   23.0970   36.7390 C   0  0  0  0  0  2  0  0  0  0  0  0
   39.5430   23.7680   35.8000 C   0  0  0  0  0  3  0  0  0  0  0  0
   39.9990   23.0510   35.1230 H   0  0  0  0  0  0  0  0  0  0  0  0
  1  7  1  1  0  0  0
  1  6  1  0  0  0  0
  2  9  1  0  0  0  0
  2  1  1  0  0  0  0
  3  2  1  0  0  0  0
  3  4  1  0  0  0  0
  4 12  1  0  0  0  0
  4  5  1  0  0  0  0
  5 14  1  0  0  0  0
  5 15  1  0  0  0  0
  6 16  1  6  0  0  0
  6  5  1  0  0  0  0
  6 26  1  0  0  0  0
  8  2  1  0  0  0  0
 10  3  1  0  0  0  0
 11  3  1  0  0  0  0
 13  4  1  0  0  0  0
 17  1  1  0  0  0  0
 18 23  1  0  0  0  0
 18 17  2  0  0  0  0
 19 18  1  0  0  0  0
 20 19  2  0  0  0  0
 20 21  1  0  0  0  0
 21 22  2  0  0  0  0
 22 17  1  0  0  0  0
 24 19  1  0  0  0  0
 25 21  1  0  0  0  0
 26 30  1  0  0  0  0
 26 27  1  1  0  0  0
 27 28  1  0  0  0  0
 29 28  1  0  0  0  0
 30 29  1  0  0  0  0
 31 30  1  0  0  0  0
M  END
>  <minimizedAffinity>
-4.44430971

$$$$

 OpenBabel03272509293D

 31 33  0  0  1  0  0  0  0  0999 V2000
   39.5290   24.6010   34.0470 C   0  0  2  0  0  0  0  0  0  0  0  0
   40.7960   25.1480   34.6760 C   0  0  0  0  0  0  0  0  0  0  0  0
   40.8260   26.6480   34.7030 C   0  0  0  0  0  0  0  0  0  0  0  0
   40.6150   27.2530   33.3350 C   0  0  0  0  0  0  0  0  0  0  0  0
   39.5060   26.6060   32.5590 C   0  0  0  0  0  0  0  0  0  0  0  0
   38.6880   25.6540   33.4080 C   0  0  1  0  0  0  0  0  0  0  0  0
   39.7880   23.7800   33.3400 H   0  0  0  0  0  0  0  0  0  0  0  0
   40.9790   24.7790   35.6990 H   0  0  0  0  0  0  0  0  0  0  0  0
   41.6420   24.8220   34.0420 H   0  0  0  0  0  0  0  0  0  0  0  0
   39.9640   27.0240   35.3220 H   0  0  0  0  0  0  0  0  0  0  0  0
   41.7940   26.9700   35.0860 H   0  0  0  0  0  0  0  0  0  0  0  0
   41.6080   27.1740   32.8230 H   0  0  0  0  0  0  0  0  0  0  0  0
   40.4550   28.3470   33.4710 H   0  0  0  0  0  0  0  0  0  0  0  0
   38.7840   27.3790   32.1930 H   0  0  0  0  0  0  0  0  0  0  0  0
   39.9690   26.1010   31.7010 H   0  0  0  0  0  0  0  0  0  0  0  0
   38.2010   26.2830   34.1950 H   0  0  0  0  0  0  0  0  0  0  0  0
   38.6950   23.9400   35.0990 C   0  0  0  0  0  0  0  0  0  0  0  0
   38.3640   24.7370   36.2090 C   0  0  0  0  0  0  0  0  0  0  0  0
   37.5960   24.1340   37.2090 C   0  0  0  0  0  0  0  0  0  0  0  0
   37.2080   22.8190   37.0700 N   0  0  0  0  0  0  0  0  0  0  0  0
   37.5590   22.0880   35.9700 C   0  0  0  0  0  0  0  0  0  0  0  0
   38.2930   22.6520   35.0050 N   0  0  0  0  0  0  0  0  0  0  0  0
   38.6510   25.7660   36.3470 H   0  0  0  0  0  0  0  0  0  0  0  0
   37.2760   24.6300   38.1050 H   0  0  0  0  0  0  0  0  0  0  0  0
   37.2160   21.0660   35.9350 H   0  0  0  0  0  0  0  0  0  0  0  0
   37.6470   25.0590   32.6420 N   0  0  2  0  0  0  0  0  0  0  0  0
   38.0500   24.3310   31.4820 C   0  0  0  0  0  2  0  0  0  0  0  0
   36.7060   24.1010   30.7740 C   0  0  0  0  0  2  0  0  0  0  0  0
   35.7120   25.0160   31.4610 C   0  0  0  0  0  2  0  0  0  0  0  0
   36.6880   26.0010   32.1190 C   0  0  0  0  0  3  0  0  0  0  0  0
   36.1930   26.6200   32.8620 H   0  0  0  0  0  0  0  0  0  0  0  0
  1  7  1  6  0  0  0
  1  2  1  0  0  0  0
  1 17  1  0  0  0  0
  2  3  1  0  0  0  0
  2  8  1  0  0  0  0
  3 11  1  0  0  0  0
  3 10  1  0  0  0  0
  4 13  1  0  0  0  0
  4  3  1  0  0  0  0
  5  4  1  0  0  0  0
  5  6  1  0  0  0  0
  6  1  1  0  0  0  0
  6 16  1  1  0  0  0
  9  2  1  0  0  0  0
 12  4  1  0  0  0  0
 14  5  1  0  0  0  0
 15  5  1  0  0  0  0
 17 18  1  0  0  0  0
 18 23  1  0  0  0  0
 18 19  2  0  0  0  0
 19 24  1  0  0  0  0
 20 19  1  0  0  0  0
 21 20  2  0  0  0  0
 22 17  2  0  0  0  0
 22 21  1  0  0  0  0
 25 21  1  0  0  0  0
 26 27  1  6  0  0  0
 26  6  1  0  0  0  0
 28 29  1  0  0  0  0
 28 27  1  0  0  0  0
 29 30  1  0  0  0  0
 30 26  1  0  0  0  0
 30 31  1  0  0  0  0
M  END
>  <minimizedAffinity>
-4.43467045

$$$$

 OpenBabel03272509293D

 31 33  0  0  1  0  0  0  0  0999 V2000
   39.5330   24.6360   34.0390 C   0  0  2  0  0  0  0  0  0  0  0  0
   40.8060   25.1980   34.6430 C   0  0  0  0  0  0  0  0  0  0  0  0
   40.8390   26.6980   34.6270 C   0  0  0  0  0  0  0  0  0  0  0  0
   40.6200   27.2640   33.2440 C   0  0  0  0  0  0  0  0  0  0  0  0
   39.5030   26.5980   32.4940 C   0  0  0  0  0  0  0  0  0  0  0  0
   38.6900   25.6730   33.3760 C   0  0  1  0  0  0  0  0  0  0  0  0
   39.7850   23.7950   33.3540 H   0  0  0  0  0  0  0  0  0  0  0  0
   40.9960   24.8580   35.6740 H   0  0  0  0  0  0  0  0  0  0  0  0
   41.6460   24.8520   34.0110 H   0  0  0  0  0  0  0  0  0  0  0  0
   39.9830   27.0940   35.2410 H   0  0  0  0  0  0  0  0  0  0  0  0
   41.8120   27.0280   34.9920 H   0  0  0  0  0  0  0  0  0  0  0  0
   41.6080   27.1680   32.7260 H   0  0  0  0  0  0  0  0  0  0  0  0
   40.4630   28.3620   33.3500 H   0  0  0  0  0  0  0  0  0  0  0  0
   38.7800   27.3620   32.1120 H   0  0  0  0  0  0  0  0  0  0  0  0
   39.9590   26.0670   31.6480 H   0  0  0  0  0  0  0  0  0  0  0  0
   38.2100   26.3250   34.1490 H   0  0  0  0  0  0  0  0  0  0  0  0
   38.7060   24.0080   35.1160 C   0  0  0  0  0  0  0  0  0  0  0  0
   38.3620   22.6580   34.9160 C   0  0  0  0  0  0  0  0  0  0  0  0
   37.5790   22.0570   35.9050 C   0  0  0  0  0  0  0  0  0  0  0  0
   37.1860   22.7910   37.0030 N   0  0  0  0  0  0  0  0  0  0  0  0
   37.5460   24.1010   37.1470 C   0  0  0  0  0  0  0  0  0  0  0  0
   38.2960   24.6900   36.2090 N   0  0  0  0  0  0  0  0  0  0  0  0
   38.6540   22.0590   34.0710 H   0  0  0  0  0  0  0  0  0  0  0  0
   37.2500   21.0360   35.8750 H   0  0  0  0  0  0  0  0  0  0  0  0
   37.1990   24.6060   38.0350 H   0  0  0  0  0  0  0  0  0  0  0  0
   37.6410   25.0590   32.6360 N   0  0  2  0  0  0  0  0  0  0  0  0
   38.0330   24.3090   31.4850 C   0  0  0  0  0  2  0  0  0  0  0  0
   36.6810   24.0600   30.8000 C   0  0  0  0  0  2  0  0  0  0  0  0
   35.6920   24.9850   31.4810 C   0  0  0  0  0  2  0  0  0  0  0  0
   36.6730   25.9870   32.1070 C   0  0  0  0  0  3  0  0  0  0  0  0
   36.1840   26.6180   32.8430 H   0  0  0  0  0  0  0  0  0  0  0  0
  1  7  1  6  0  0  0
  1  2  1  0  0  0  0
  1 17  1  0  0  0  0
  2  8  1  0  0  0  0
  3  2  1  0  0  0  0
  3 11  1  0  0  0  0
  3 10  1  0  0  0  0
  4 13  1  0  0  0  0
  4  3  1  0  0  0  0
  5  4  1  0  0  0  0
  5  6  1  0  0  0  0
  6  1  1  0  0  0  0
  6 16  1  1  0  0  0
  9  2  1  0  0  0  0
 12  4  1  0  0  0  0
 14  5  1  0  0  0  0
 15  5  1  0  0  0  0
 17 22  1  0  0  0  0
 18 17  2  0  0  0  0
 18 19  1  0  0  0  0
 19 20  2  0  0  0  0
 20 21  1  0  0  0  0
 21 25  1  0  0  0  0
 22 21  2  0  0  0  0
 23 18  1  0  0  0  0
 24 19  1  0  0  0  0
 26 27  1  6  0  0  0
 26  6  1  0  0  0  0
 28 29  1  0  0  0  0
 28 27  1  0  0  0  0
 29 30  1  0  0  0  0
 30 26  1  0  0  0  0
 30 31  1  0  0  0  0
M  END
>  <minimizedAffinity>
-4.37069511

$$$$

 OpenBabel03272509293D

 31 33  0  0  1  0  0  0  0  0999 V2000
   38.3020   23.8740   35.9520 C   0  0  2  0  0  0  0  0  0  0  0  0
   37.3990   23.8420   37.1710 C   0  0  0  0  0  0  0  0  0  0  0  0
   38.1560   24.0150   38.4550 C   0  0  0  0  0  0  0  0  0  0  0  0
   39.2730   23.0090   38.6040 C   0  0  0  0  0  0  0  0  0  0  0  0
   40.0830   22.8240   37.3530 C   0  0  0  0  0  0  0  0  0  0  0  0
   39.7530   23.8580   36.2960 C   0  0  1  0  0  0  0  0  0  0  0  0
   38.0220   23.0460   35.2600 H   0  0  0  0  0  0  0  0  0  0  0  0
   36.5880   24.5900   37.1430 H   0  0  0  0  0  0  0  0  0  0  0  0
   36.9330   22.8390   37.2060 H   0  0  0  0  0  0  0  0  0  0  0  0
   38.6660   25.0180   38.4520 H   0  0  0  0  0  0  0  0  0  0  0  0
   37.4620   23.8960   39.2870 H   0  0  0  0  0  0  0  0  0  0  0  0
   38.7770   22.0650   38.9440 H   0  0  0  0  0  0  0  0  0  0  0  0
   39.8990   23.3260   39.4700 H   0  0  0  0  0  0  0  0  0  0  0  0
   41.1720   22.9550   37.5720 H   0  0  0  0  0  0  0  0  0  0  0  0
   39.8970   21.8010   37.0020 H   0  0  0  0  0  0  0  0  0  0  0  0
   40.0530   24.8470   36.7260 H   0  0  0  0  0  0  0  0  0  0  0  0
   38.0400   25.1210   35.1700 C   0  0  0  0  0  0  0  0  0  0  0  0
   38.1490   26.3280   35.8850 C   0  0  0  0  0  0  0  0  0  0  0  0
   37.8950   27.5040   35.1750 C   0  0  0  0  0  0  0  0  0  0  0  0
   37.5570   27.4350   33.8410 N   0  0  0  0  0  0  0  0  0  0  0  0
   37.4640   26.2350   33.1930 C   0  0  0  0  0  0  0  0  0  0  0  0
   37.7040   25.1020   33.8600 N   0  0  0  0  0  0  0  0  0  0  0  0
   38.4100   26.4140   36.9260 H   0  0  0  0  0  0  0  0  0  0  0  0
   37.9440   28.4880   35.6010 H   0  0  0  0  0  0  0  0  0  0  0  0
   37.1950   26.2660   32.1490 H   0  0  0  0  0  0  0  0  0  0  0  0
   40.5360   23.6540   35.1260 N   0  0  2  0  0  0  0  0  0  0  0  0
   40.5550   22.3270   34.5990 C   0  0  0  0  0  2  0  0  0  0  0  0
   41.6890   22.4170   33.5680 C   0  0  0  0  0  2  0  0  0  0  0  0
   42.4130   23.7170   33.8550 C   0  0  0  0  0  2  0  0  0  0  0  0
   41.9360   23.9580   35.2940 C   0  0  0  0  0  3  0  0  0  0  0  0
   42.1550   24.9700   35.6240 H   0  0  0  0  0  0  0  0  0  0  0  0
  1  7  1  6  0  0  0
  1  6  1  0  0  0  0
  1  2  1  0  0  0  0
  2  9  1  0  0  0  0
  2  3  1  0  0  0  0
  3  4  1  0  0  0  0
  3 11  1  0  0  0  0
  4 12  1  0  0  0  0
  4 13  1  0  0  0  0
  5 14  1  0  0  0  0
  5  4  1  0  0  0  0
  6 16  1  1  0  0  0
  6  5  1  0  0  0  0
  8  2  1  0  0  0  0
 10  3  1  0  0  0  0
 15  5  1  0  0  0  0
 17 18  1  0  0  0  0
 17  1  1  0  0  0  0
 18 23  1  0  0  0  0
 19 24  1  0  0  0  0
 19 18  2  0  0  0  0
 20 19  1  0  0  0  0
 21 20  2  0  0  0  0
 21 22  1  0  0  0  0
 22 17  2  0  0  0  0
 25 21  1  0  0  0  0
 26 27  1  1  0  0  0
 26 30  1  0  0  0  0
 26  6  1  0  0  0  0
 28 29  1  0  0  0  0
 28 27  1  0  0  0  0
 29 30  1  0  0  0  0
 30 31  1  0  0  0  0
M  END
>  <minimizedAffinity>
-4.29594755

$$$$

 OpenBabel03272509293D

 31 33  0  0  1  0  0  0  0  0999 V2000
   38.5080   26.3150   35.2990 C   0  0  2  0  0  0  0  0  0  0  0  0
   37.2160   26.9540   34.8260 C   0  0  0  0  0  0  0  0  0  0  0  0
   37.0180   26.8250   33.3440 C   0  0  0  0  0  0  0  0  0  0  0  0
   38.1890   27.3640   32.5570 C   0  0  0  0  0  0  0  0  0  0  0  0
   39.5220   26.9460   33.1070 C   0  0  0  0  0  0  0  0  0  0  0  0
   39.3950   25.8850   34.1800 C   0  0  1  0  0  0  0  0  0  0  0  0
   39.0250   27.0010   36.0090 H   0  0  0  0  0  0  0  0  0  0  0  0
   36.3170   26.5660   35.3320 H   0  0  0  0  0  0  0  0  0  0  0  0
   37.2880   28.0360   35.0460 H   0  0  0  0  0  0  0  0  0  0  0  0
   36.9620   25.7340   33.0720 H   0  0  0  0  0  0  0  0  0  0  0  0
   36.1210   27.3780   33.0640 H   0  0  0  0  0  0  0  0  0  0  0  0
   38.0510   28.4750   32.5480 H   0  0  0  0  0  0  0  0  0  0  0  0
   38.0520   27.0540   31.4950 H   0  0  0  0  0  0  0  0  0  0  0  0
   40.1480   26.4860   32.3010 H   0  0  0  0  0  0  0  0  0  0  0  0
   40.0120   27.8550   33.4790 H   0  0  0  0  0  0  0  0  0  0  0  0
   38.9630   24.9850   33.6750 H   0  0  0  0  0  0  0  0  0  0  0  0
   38.1940   25.1010   36.1140 C   0  0  0  0  0  0  0  0  0  0  0  0
   38.1720   25.2860   37.5080 C   0  0  0  0  0  0  0  0  0  0  0  0
   37.8930   24.1600   38.2870 C   0  0  0  0  0  0  0  0  0  0  0  0
   37.6590   22.9480   37.6740 N   0  0  0  0  0  0  0  0  0  0  0  0
   37.6930   22.8230   36.3140 C   0  0  0  0  0  0  0  0  0  0  0  0
   37.9590   23.8910   35.5560 N   0  0  0  0  0  0  0  0  0  0  0  0
   38.3500   26.2180   38.0160 H   0  0  0  0  0  0  0  0  0  0  0  0
   37.8450   24.1650   39.3590 H   0  0  0  0  0  0  0  0  0  0  0  0
   37.4990   21.8410   35.9110 H   0  0  0  0  0  0  0  0  0  0  0  0
   40.6750   25.5130   34.6790 N   0  0  2  0  0  0  0  0  0  0  0  0
   41.7350   26.4450   34.4630 C   0  0  0  0  0  2  0  0  0  0  0  0
   42.9670   25.6110   34.8450 C   0  0  0  0  0  2  0  0  0  0  0  0
   42.4890   24.1760   34.9320 C   0  0  0  0  0  2  0  0  0  0  0  0
   41.1940   24.2920   34.1140 C   0  0  0  0  0  3  0  0  0  0  0  0
   40.5620   23.4170   34.2390 H   0  0  0  0  0  0  0  0  0  0  0  0
  1  7  1  1  0  0  0
  1 17  1  0  0  0  0
  2  9  1  0  0  0  0
  2  1  1  0  0  0  0
  2  8  1  0  0  0  0
  3  2  1  0  0  0  0
  4  5  1  0  0  0  0
  4  3  1  0  0  0  0
  5 15  1  0  0  0  0
  5  6  1  0  0  0  0
  6 16  1  6  0  0  0
  6 26  1  0  0  0  0
  6  1  1  0  0  0  0
 10  3  1  0  0  0  0
 11  3  1  0  0  0  0
 12  4  1  0  0  0  0
 13  4  1  0  0  0  0
 14  5  1  0  0  0  0
 17 18  1  0  0  0  0
 18 23  1  0  0  0  0
 18 19  2  0  0  0  0
 19 24  1  0  0  0  0
 20 19  1  0  0  0  0
 21 20  2  0  0  0  0
 22 17  2  0  0  0  0
 22 21  1  0  0  0  0
 25 21  1  0  0  0  0
 26 27  1  6  0  0  0
 27 28  1  0  0  0  0
 28 29  1  0  0  0  0
 30 31  1  0  0  0  0
 30 26  1  0  0  0  0
 30 29  1  0  0  0  0
M  END
>  <minimizedAffinity>
-4.25364923

$$$$

 OpenBabel03272509293D

 31 33  0  0  1  0  0  0  0  0999 V2000
   42.1120   23.4330   36.1490 C   0  0  2  0  0  0  0  0  0  0  0  0
   43.4320   22.7050   35.9850 C   0  0  0  0  0  0  0  0  0  0  0  0
   43.2700   21.2140   35.9530 C   0  0  0  0  0  0  0  0  0  0  0  0
   42.5280   20.6890   37.1600 C   0  0  0  0  0  0  0  0  0  0  0  0
   41.3170   21.5010   37.5180 C   0  0  0  0  0  0  0  0  0  0  0  0
   40.9720   22.5190   36.4510 C   0  0  1  0  0  0  0  0  0  0  0  0
   42.2230   24.2380   36.9110 H   0  0  0  0  0  0  0  0  0  0  0  0
   44.0000   23.0110   35.0900 H   0  0  0  0  0  0  0  0  0  0  0  0
   44.0480   22.9410   36.8730 H   0  0  0  0  0  0  0  0  0  0  0  0
   42.6270   20.9300   35.0720 H   0  0  0  0  0  0  0  0  0  0  0  0
   44.2580   20.7560   35.9200 H   0  0  0  0  0  0  0  0  0  0  0  0
   43.2880   20.6570   37.9810 H   0  0  0  0  0  0  0  0  0  0  0  0
   42.2790   19.6200   36.9650 H   0  0  0  0  0  0  0  0  0  0  0  0
   40.4180   20.8410   37.6060 H   0  0  0  0  0  0  0  0  0  0  0  0
   41.5250   21.9720   38.4870 H   0  0  0  0  0  0  0  0  0  0  0  0
   40.7020   21.9320   35.5380 H   0  0  0  0  0  0  0  0  0  0  0  0
   41.7810   24.1580   34.8830 C   0  0  0  0  0  0  0  0  0  0  0  0
   41.8520   25.5620   34.9440 C   0  0  0  0  0  0  0  0  0  0  0  0
   41.5350   26.2580   33.7750 C   0  0  0  0  0  0  0  0  0  0  0  0
   41.1740   25.5600   32.6430 N   0  0  0  0  0  0  0  0  0  0  0  0
   41.1200   24.1940   32.6380 C   0  0  0  0  0  0  0  0  0  0  0  0
   41.4220   23.5150   33.7490 N   0  0  0  0  0  0  0  0  0  0  0  0
   42.1300   26.1350   35.8120 H   0  0  0  0  0  0  0  0  0  0  0  0
   41.5500   27.3270   33.6870 H   0  0  0  0  0  0  0  0  0  0  0  0
   40.8300   23.7230   31.7120 H   0  0  0  0  0  0  0  0  0  0  0  0
   39.8220   23.2710   36.8220 N   0  0  2  0  0  0  0  0  0  0  0  0
   39.4050   23.1630   38.1830 C   0  0  0  0  0  2  0  0  0  0  0  0
   38.0250   23.8350   38.1420 C   0  0  0  0  0  2  0  0  0  0  0  0
   37.6680   23.9660   36.6750 C   0  0  0  0  0  2  0  0  0  0  0  0
   38.6300   22.9230   36.0870 C   0  0  0  0  0  3  0  0  0  0  0  0
   38.7070   23.0130   35.0080 H   0  0  0  0  0  0  0  0  0  0  0  0
  1  6  1  0  0  0  0
  1  7  1  1  0  0  0
  2  1  1  0  0  0  0
  2  9  1  0  0  0  0
  3  2  1  0  0  0  0
  3  4  1  0  0  0  0
  4  5  1  0  0  0  0
  4 12  1  0  0  0  0
  5 14  1  0  0  0  0
  5 15  1  0  0  0  0
  6 16  1  6  0  0  0
  6 26  1  0  0  0  0
  6  5  1  0  0  0  0
  8  2  1  0  0  0  0
 10  3  1  0  0  0  0
 11  3  1  0  0  0  0
 13  4  1  0  0  0  0
 17 18  1  0  0  0  0
 17  1  1  0  0  0  0
 18 23  1  0  0  0  0
 19 18  2  0  0  0  0
 20 19  1  0  0  0  0
 21 20  2  0  0  0  0
 21 22  1  0  0  0  0
 22 17  2  0  0  0  0
 24 19  1  0  0  0  0
 25 21  1  0  0  0  0
 26 27  1  1  0  0  0
 28 27  1  0  0  0  0
 29 28  1  0  0  0  0
 30 29  1  0  0  0  0
 30 26  1  0  0  0  0
 31 30  1  0  0  0  0
M  END
>  <minimizedAffinity>
-4.22773361

$$$$
