
 OpenBabel03272510323D

 25 27  0  0  0  0  0  0  0  0999 V2000
   35.7160   30.0450   47.9870 C   0  0  0  0  0  0  0  0  0  0  0  0
   34.9590   30.1670   46.8480 C   0  0  0  0  0  0  0  0  0  0  0  0
   33.8820   29.3240   46.6080 C   0  0  0  0  0  0  0  0  0  0  0  0
   33.5950   28.3530   47.5620 C   0  0  0  0  0  0  0  0  0  0  0  0
   34.3400   28.2110   48.7110 C   0  0  0  0  0  0  0  0  0  0  0  0
   35.4050   29.0670   48.9160 C   0  0  0  0  0  0  0  0  0  0  0  0
   35.1530   30.9100   46.0840 H   0  0  0  0  0  0  0  0  0  0  0  0
   33.2970   29.4230   45.7220 H   0  0  0  0  0  0  0  0  0  0  0  0
   32.7540   27.6760   47.4010 H   0  0  0  0  0  0  0  0  0  0  0  0
   34.1310   27.4590   49.4660 H   0  0  0  0  0  0  0  0  0  0  0  0
   37.6660   32.8110   49.3000 C   0  0  0  0  0  0  0  0  0  0  0  0
   38.8450   32.8090   48.5560 C   0  0  0  0  0  0  0  0  0  0  0  0
   38.9530   31.8120   47.5730 C   0  0  0  0  0  0  0  0  0  0  0  0
   37.9460   30.9180   47.3880 N   0  0  0  0  0  0  0  0  0  0  0  0
   36.8210   30.9740   48.1460 C   0  0  0  0  0  0  0  0  0  0  0  0
   36.6800   31.9290   49.1120 N   0  0  0  0  0  0  0  0  0  0  0  0
   37.5020   33.5490   50.0800 H   0  0  0  0  0  0  0  0  0  0  0  0
   39.6050   33.5340   48.7430 H   0  0  0  0  0  0  0  0  0  0  0  0
   39.8580   31.7800   46.9740 H   0  0  0  0  0  0  0  0  0  0  0  0
   36.2270   28.9910   50.0760 N   0  0  0  0  0  0  0  0  0  0  0  0
   35.8110   29.1910   51.4690 C   0  0  0  0  0  2  0  0  0  0  0  0
   36.8250   30.2640   51.8820 C   0  0  0  0  0  2  0  0  0  0  0  0
   38.1080   29.5810   51.4190 C   0  0  0  0  0  2  0  0  0  0  0  0
   37.6250   28.7200   50.2930 C   0  0  0  0  0  3  0  0  0  0  0  0
   37.6960   27.6630   50.6140 H   0  0  0  0  0  0  0  0  0  0  0  0
  1 15  1  0  0  0  0
  1  6  1  0  0  0  0
  2  1  2  0  0  0  0
  3  2  1  0  0  0  0
  3  4  2  0  0  0  0
  4  5  1  0  0  0  0
  5  6  2  0  0  0  0
  5 10  1  0  0  0  0
  6 20  1  0  0  0  0
  7  2  1  0  0  0  0
  8  3  1  0  0  0  0
  9  4  1  0  0  0  0
 11 17  1  0  0  0  0
 12 18  1  0  0  0  0
 12 11  2  0  0  0  0
 13 12  1  0  0  0  0
 14 13  2  0  0  0  0
 14 15  1  0  0  0  0
 15 16  2  0  0  0  0
 16 11  1  0  0  0  0
 19 13  1  0  0  0  0
 20 24  1  0  0  0  0
 20 21  1  0  0  0  0
 21 22  1  0  0  0  0
 23 22  1  0  0  0  0
 24 25  1  0  0  0  0
 24 23  1  0  0  0  0
M  END
>  <minimizedAffinity>
-4.42440271

>  <minimizedRMSD>
1.09602714

$$$$
