
 OpenBabel03272509413D

 32 34  0  0  1  0  0  0  0  0999 V2000
   36.4730   28.6910   32.5320 C   0  0  0  0  0  0  0  0  0  0  0  0
   35.9780   29.7850   31.8190 C   0  0  0  0  0  0  0  0  0  0  0  0
   35.3210   30.8340   32.4450 C   0  0  0  0  0  0  0  0  0  0  0  0
   35.1340   30.8180   33.8300 C   0  0  0  0  0  0  0  0  0  0  0  0
   35.6270   29.7350   34.5140 C   0  0  0  0  0  0  0  0  0  0  0  0
   36.2800   28.7040   33.8630 C   0  0  0  0  0  0  0  0  0  0  0  0
   36.1210   29.8030   30.7350 H   0  0  0  0  0  0  0  0  0  0  0  0
   34.9500   31.6670   31.8540 H   0  0  0  0  0  0  0  0  0  0  0  0
   34.6180   31.6460   34.2950 H   0  0  0  0  0  0  0  0  0  0  0  0
   35.4490   29.7850   35.5810 H   0  0  0  0  0  0  0  0  0  0  0  0
   37.1530   27.6320   31.7970 C   0  0  2  0  0  3  0  0  0  0  0  0
   38.2510   28.0100   31.2400 O   0  0  0  0  0  1  0  0  0  0  0  0
   34.9510   24.9300   30.8280 C   0  0  0  0  0  0  0  0  0  0  0  0
   35.5750   23.7840   31.2960 C   0  0  0  0  0  0  0  0  0  0  0  0
   36.7660   23.9430   31.9540 C   0  0  0  0  0  0  0  0  0  0  0  0
   37.2940   25.1880   32.1270 N   0  0  0  0  0  0  0  0  0  0  0  0
   36.6810   26.2680   31.6730 C   0  0  0  0  0  0  0  0  0  0  0  0
   35.4980   26.1170   31.0190 N   0  0  0  0  0  0  0  0  0  0  0  0
   33.9900   24.8870   30.2900 H   0  0  0  0  0  0  0  0  0  0  0  0
   35.0610   22.8660   31.0970 H   0  0  0  0  0  0  0  0  0  0  0  0
   37.2590   23.0510   32.3210 H   0  0  0  0  0  0  0  0  0  0  0  0
   36.7320   27.6460   34.7380 C   0  0  0  0  0  3  0  0  0  0  0  0
   37.9010   27.5510   35.3610 C   0  0  0  0  0  3  0  0  0  0  0  0
   38.4720   26.5750   36.2750 C   0  0  0  0  0  0  0  0  0  0  0  0
   39.5550   26.4120   36.0160 H   0  0  0  0  0  0  0  0  0  0  0  0
   38.3460   26.8460   37.3370 H   0  0  0  0  0  0  0  0  0  0  0  0
   37.8600   25.2380   36.1290 N   0  0  0  0  0  0  0  0  0  0  0  0
   38.8340   24.4220   35.3870 C   0  0  0  0  0  2  0  0  0  0  0  0
   38.7290   23.0340   35.9190 C   0  0  0  0  0  2  0  0  0  0  0  0
   37.8850   23.1380   37.1710 C   0  0  0  0  0  2  0  0  0  0  0  0
   37.8890   24.6170   37.4530 C   0  0  0  0  0  3  0  0  0  0  0  0
   38.8510   24.9150   37.9640 H   0  0  0  0  0  0  0  0  0  0  0  0
  1  6  1  0  0  0  0
  2  3  1  0  0  0  0
  2  1  2  0  0  0  0
  3  4  2  0  0  0  0
  4  9  1  0  0  0  0
  4  5  1  0  0  0  0
  5 10  1  0  0  0  0
  6  5  2  0  0  0  0
  6 22  1  0  0  0  0
  7  2  1  0  0  0  0
  8  3  1  0  0  0  0
 11 12  1  6  0  0  0
 11  1  1  0  0  0  0
 13 18  2  0  0  0  0
 13 14  1  0  0  0  0
 14 15  2  0  0  0  0
 15 16  1  0  0  0  0
 15 21  1  0  0  0  0
 17 11  1  0  0  0  0
 17 16  2  0  0  0  0
 18 17  1  0  0  0  0
 19 13  1  0  0  0  0
 20 14  1  0  0  0  0
 22 23  2  0  0  0  0
 23 24  1  0  0  0  0
 24 26  1  0  0  0  0
 25 24  1  0  0  0  0
 27 24  1  0  0  0  0
 27 31  1  0  0  0  0
 28 29  1  0  0  0  0
 28 27  1  0  0  0  0
 29 30  1  0  0  0  0
 30 31  1  0  0  0  0
 31 32  1  0  0  0  0
M  END
>  <minimizedAffinity>
-5.49510431

$$$$

 OpenBabel03272509413D

 32 34  0  0  1  0  0  0  0  0999 V2000
   37.3710   21.9880   33.5580 C   0  0  0  0  0  0  0  0  0  0  0  0
   36.5720   20.8950   33.9010 C   0  0  0  0  0  0  0  0  0  0  0  0
   35.4050   20.5940   33.2140 C   0  0  0  0  0  0  0  0  0  0  0  0
   34.9950   21.3930   32.1440 C   0  0  0  0  0  0  0  0  0  0  0  0
   35.7920   22.4620   31.8220 C   0  0  0  0  0  0  0  0  0  0  0  0
   36.9510   22.7390   32.5230 C   0  0  0  0  0  0  0  0  0  0  0  0
   36.8880   20.2660   34.7380 H   0  0  0  0  0  0  0  0  0  0  0  0
   34.8110   19.7340   33.5120 H   0  0  0  0  0  0  0  0  0  0  0  0
   34.0810   21.1380   31.6250 H   0  0  0  0  0  0  0  0  0  0  0  0
   35.4170   23.0400   30.9850 H   0  0  0  0  0  0  0  0  0  0  0  0
   38.5830   22.2330   34.3310 C   0  0  2  0  0  3  0  0  0  0  0  0
   39.6680   21.9480   33.6990 O   0  0  0  0  0  1  0  0  0  0  0  0
   39.8150   22.7000   37.7000 C   0  0  0  0  0  0  0  0  0  0  0  0
   38.9170   23.5810   38.2840 C   0  0  0  0  0  0  0  0  0  0  0  0
   37.8740   24.0170   37.5090 C   0  0  0  0  0  0  0  0  0  0  0  0
   37.7500   23.5880   36.2210 N   0  0  0  0  0  0  0  0  0  0  0  0
   38.6180   22.7470   35.6850 C   0  0  0  0  0  0  0  0  0  0  0  0
   39.6550   22.3100   36.4480 N   0  0  0  0  0  0  0  0  0  0  0  0
   40.6800   22.3030   38.2560 H   0  0  0  0  0  0  0  0  0  0  0  0
   39.1240   23.8420   39.3000 H   0  0  0  0  0  0  0  0  0  0  0  0
   37.1700   24.7060   37.9590 H   0  0  0  0  0  0  0  0  0  0  0  0
   37.6670   23.9010   32.0480 C   0  0  0  0  0  3  0  0  0  0  0  0
   37.5090   25.1640   32.4270 C   0  0  0  0  0  3  0  0  0  0  0  0
   38.1650   26.4080   32.0610 C   0  0  0  0  0  0  0  0  0  0  0  0
   39.1490   26.1790   31.5660 H   0  0  0  0  0  0  0  0  0  0  0  0
   37.5390   27.0630   31.4300 H   0  0  0  0  0  0  0  0  0  0  0  0
   38.5320   27.2220   33.2390 N   0  0  0  0  0  0  0  0  0  0  0  0
   37.3450   27.2390   34.1080 C   0  0  0  0  0  2  0  0  0  0  0  0
   37.8400   27.2450   35.5150 C   0  0  0  0  0  2  0  0  0  0  0  0
   39.3210   26.9410   35.4280 C   0  0  0  0  0  2  0  0  0  0  0  0
   39.4730   26.4220   34.0240 C   0  0  0  0  0  3  0  0  0  0  0  0
   39.1500   25.3410   33.9690 H   0  0  0  0  0  0  0  0  0  0  0  0
  1  2  1  0  0  0  0
  1 11  1  0  0  0  0
  2  7  1  0  0  0  0
  3  8  1  0  0  0  0
  3  2  2  0  0  0  0
  4  3  1  0  0  0  0
  5  4  2  0  0  0  0
  5  6  1  0  0  0  0
  6  1  2  0  0  0  0
  9  4  1  0  0  0  0
 10  5  1  0  0  0  0
 11 12  1  1  0  0  0
 11 17  1  0  0  0  0
 13 19  1  0  0  0  0
 13 14  1  0  0  0  0
 14 20  1  0  0  0  0
 15 21  1  0  0  0  0
 15 14  2  0  0  0  0
 16 15  1  0  0  0  0
 17 16  2  0  0  0  0
 17 18  1  0  0  0  0
 18 13  2  0  0  0  0
 22 23  2  0  0  0  0
 22  6  1  0  0  0  0
 24 23  1  0  0  0  0
 24 27  1  0  0  0  0
 25 24  1  0  0  0  0
 26 24  1  0  0  0  0
 27 31  1  0  0  0  0
 27 28  1  0  0  0  0
 28 29  1  0  0  0  0
 30 29  1  0  0  0  0
 31 30  1  0  0  0  0
 32 31  1  0  0  0  0
M  END
>  <minimizedAffinity>
-5.39968348

$$$$

 OpenBabel03272509413D

 32 34  0  0  1  0  0  0  0  0999 V2000
   38.2250   25.1270   35.4220 C   0  0  0  0  0  0  0  0  0  0  0  0
   38.2730   26.3230   36.1420 C   0  0  0  0  0  0  0  0  0  0  0  0
   37.9540   27.5420   35.5620 C   0  0  0  0  0  0  0  0  0  0  0  0
   37.5720   27.6020   34.2190 C   0  0  0  0  0  0  0  0  0  0  0  0
   37.5300   26.4170   33.5290 C   0  0  0  0  0  0  0  0  0  0  0  0
   37.8530   25.2150   34.1320 C   0  0  0  0  0  0  0  0  0  0  0  0
   38.5720   26.2820   37.1930 H   0  0  0  0  0  0  0  0  0  0  0  0
   38.0040   28.4500   36.1560 H   0  0  0  0  0  0  0  0  0  0  0  0
   37.3290   28.5640   33.7910 H   0  0  0  0  0  0  0  0  0  0  0  0
   37.2280   26.5340   32.4950 H   0  0  0  0  0  0  0  0  0  0  0  0
   38.5740   23.8890   36.1080 C   0  0  1  0  0  3  0  0  0  0  0  0
   37.5630   23.2750   36.6180 O   0  0  0  0  0  1  0  0  0  0  0  0
   41.2260   21.7650   37.3510 C   0  0  0  0  0  0  0  0  0  0  0  0
   42.3540   22.1660   36.6520 C   0  0  0  0  0  0  0  0  0  0  0  0
   42.2010   23.1800   35.7440 C   0  0  0  0  0  0  0  0  0  0  0  0
   40.9780   23.7530   35.5550 N   0  0  0  0  0  0  0  0  0  0  0  0
   39.9150   23.3550   36.2330 C   0  0  0  0  0  0  0  0  0  0  0  0
   40.0600   22.3490   37.1370 N   0  0  0  0  0  0  0  0  0  0  0  0
   41.2670   20.9570   38.1000 H   0  0  0  0  0  0  0  0  0  0  0  0
   43.2540   21.6390   36.8900 H   0  0  0  0  0  0  0  0  0  0  0  0
   43.0780   23.4980   35.1930 H   0  0  0  0  0  0  0  0  0  0  0  0
   37.7540   24.0690   33.2570 C   0  0  0  0  0  3  0  0  0  0  0  0
   36.9970   23.9360   32.1750 C   0  0  0  0  0  3  0  0  0  0  0  0
   36.8200   22.8700   31.2020 C   0  0  0  0  0  0  0  0  0  0  0  0
   35.8720   23.0500   30.6220 H   0  0  0  0  0  0  0  0  0  0  0  0
   37.6870   22.7430   30.5310 H   0  0  0  0  0  0  0  0  0  0  0  0
   36.6110   21.5530   31.8380 N   0  0  0  0  0  0  0  0  0  0  0  0
   35.2030   21.5230   32.2610 C   0  0  0  0  0  2  0  0  0  0  0  0
   34.7310   20.1180   32.0960 C   0  0  0  0  0  2  0  0  0  0  0  0
   35.8110   19.4160   31.3010 C   0  0  0  0  0  2  0  0  0  0  0  0
   36.6270   20.5610   30.7630 C   0  0  0  0  0  3  0  0  0  0  0  0
   36.1220   21.0100   29.8580 H   0  0  0  0  0  0  0  0  0  0  0  0
  1 11  1  0  0  0  0
  1  2  1  0  0  0  0
  2  7  1  0  0  0  0
  3  2  2  0  0  0  0
  3  8  1  0  0  0  0
  4  3  1  0  0  0  0
  5  6  1  0  0  0  0
  5  4  2  0  0  0  0
  6  1  2  0  0  0  0
  9  4  1  0  0  0  0
 10  5  1  0  0  0  0
 11 17  1  0  0  0  0
 11 12  1  6  0  0  0
 13 19  1  0  0  0  0
 14 20  1  0  0  0  0
 14 13  2  0  0  0  0
 15 14  1  0  0  0  0
 16 15  2  0  0  0  0
 16 17  1  0  0  0  0
 17 18  2  0  0  0  0
 18 13  1  0  0  0  0
 21 15  1  0  0  0  0
 22  6  1  0  0  0  0
 23 22  2  0  0  0  0
 24 27  1  0  0  0  0
 24 23  1  0  0  0  0
 25 24  1  0  0  0  0
 26 24  1  0  0  0  0
 27 28  1  0  0  0  0
 29 28  1  0  0  0  0
 30 29  1  0  0  0  0
 31 30  1  0  0  0  0
 31 27  1  0  0  0  0
 32 31  1  0  0  0  0
M  END
>  <minimizedAffinity>
-5.37711096

$$$$

 OpenBabel03272509413D

 32 34  0  0  1  0  0  0  0  0999 V2000
   37.5240   27.4800   33.0410 C   0  0  0  0  0  0  0  0  0  0  0  0
   38.7790   26.8660   33.0710 C   0  0  0  0  0  0  0  0  0  0  0  0
   39.4960   26.7180   34.2490 C   0  0  0  0  0  0  0  0  0  0  0  0
   38.9700   27.1910   35.4550 C   0  0  0  0  0  0  0  0  0  0  0  0
   37.7370   27.7910   35.4050 C   0  0  0  0  0  0  0  0  0  0  0  0
   37.0440   27.9240   34.2160 C   0  0  0  0  0  0  0  0  0  0  0  0
   39.1950   26.4940   32.1310 H   0  0  0  0  0  0  0  0  0  0  0  0
   40.4680   26.2350   34.2300 H   0  0  0  0  0  0  0  0  0  0  0  0
   39.5490   27.0650   36.3590 H   0  0  0  0  0  0  0  0  0  0  0  0
   37.3890   28.1350   36.3710 H   0  0  0  0  0  0  0  0  0  0  0  0
   36.8370   27.5930   31.7600 C   0  0  1  0  0  3  0  0  0  0  0  0
   36.0330   26.6180   31.5150 O   0  0  0  0  0  1  0  0  0  0  0  0
   37.7100   29.2100   28.6430 C   0  0  0  0  0  0  0  0  0  0  0  0
   37.4140   30.5490   28.8480 C   0  0  0  0  0  0  0  0  0  0  0  0
   36.9100   30.9000   30.0730 C   0  0  0  0  0  0  0  0  0  0  0  0
   36.7170   29.9510   31.0320 N   0  0  0  0  0  0  0  0  0  0  0  0
   37.0060   28.6790   30.8160 C   0  0  0  0  0  0  0  0  0  0  0  0
   37.5070   28.3240   29.6030 N   0  0  0  0  0  0  0  0  0  0  0  0
   38.1190   28.8470   27.6870 H   0  0  0  0  0  0  0  0  0  0  0  0
   37.6090   31.1950   28.0170 H   0  0  0  0  0  0  0  0  0  0  0  0
   36.6760   31.9450   30.2380 H   0  0  0  0  0  0  0  0  0  0  0  0
   35.7620   28.5800   34.3490 C   0  0  0  0  0  3  0  0  0  0  0  0
   35.5220   29.8830   34.4340 C   0  0  0  0  0  3  0  0  0  0  0  0
   34.3050   30.6710   34.5420 C   0  0  0  0  0  0  0  0  0  0  0  0
   34.4460   31.6480   34.0000 H   0  0  0  0  0  0  0  0  0  0  0  0
   33.4060   30.1380   34.1890 H   0  0  0  0  0  0  0  0  0  0  0  0
   34.0120   31.0690   35.9350 N   0  0  0  0  0  0  0  0  0  0  0  0
   35.1530   31.8860   36.3750 C   0  0  0  0  0  2  0  0  0  0  0  0
   34.6090   32.9350   37.2850 C   0  0  0  0  0  2  0  0  0  0  0  0
   33.1050   32.8750   37.1240 C   0  0  0  0  0  2  0  0  0  0  0  0
   32.9360   32.0590   35.8700 C   0  0  0  0  0  3  0  0  0  0  0  0
   33.1030   32.7050   34.9580 H   0  0  0  0  0  0  0  0  0  0  0  0
  1  2  2  0  0  0  0
  1  6  1  0  0  0  0
  2  3  1  0  0  0  0
  3  4  2  0  0  0  0
  4  9  1  0  0  0  0
  5  4  1  0  0  0  0
  5 10  1  0  0  0  0
  6 22  1  0  0  0  0
  6  5  2  0  0  0  0
  7  2  1  0  0  0  0
  8  3  1  0  0  0  0
 11 12  1  1  0  0  0
 11  1  1  0  0  0  0
 13 14  2  0  0  0  0
 13 18  1  0  0  0  0
 14 15  1  0  0  0  0
 15 21  1  0  0  0  0
 15 16  2  0  0  0  0
 17 16  1  0  0  0  0
 17 11  1  0  0  0  0
 18 17  2  0  0  0  0
 19 13  1  0  0  0  0
 20 14  1  0  0  0  0
 22 23  2  0  0  0  0
 23 24  1  0  0  0  0
 24 27  1  0  0  0  0
 25 24  1  0  0  0  0
 26 24  1  0  0  0  0
 27 28  1  0  0  0  0
 28 29  1  0  0  0  0
 30 29  1  0  0  0  0
 31 27  1  0  0  0  0
 31 30  1  0  0  0  0
 32 31  1  0  0  0  0
M  END
>  <minimizedAffinity>
-5.19697857

$$$$

 OpenBabel03272509413D

 32 34  0  0  1  0  0  0  0  0999 V2000
   36.2390   28.8980   32.2160 C   0  0  0  0  0  0  0  0  0  0  0  0
   36.3350   29.2250   30.8610 C   0  0  0  0  0  0  0  0  0  0  0  0
   37.2150   28.5730   30.0090 C   0  0  0  0  0  0  0  0  0  0  0  0
   38.0420   27.5580   30.4970 C   0  0  0  0  0  0  0  0  0  0  0  0
   37.9340   27.2520   31.8300 C   0  0  0  0  0  0  0  0  0  0  0  0
   37.0470   27.9170   32.6570 C   0  0  0  0  0  0  0  0  0  0  0  0
   35.6910   30.0180   30.4740 H   0  0  0  0  0  0  0  0  0  0  0  0
   37.2600   28.8570   28.9620 H   0  0  0  0  0  0  0  0  0  0  0  0
   38.7210   27.0670   29.8140 H   0  0  0  0  0  0  0  0  0  0  0  0
   38.6020   26.4590   32.1430 H   0  0  0  0  0  0  0  0  0  0  0  0
   35.2870   29.6310   33.0410 C   0  0  1  0  0  3  0  0  0  0  0  0
   34.0990   29.1350   33.0270 O   0  0  0  0  0  1  0  0  0  0  0  0
   35.8930   31.6140   36.0060 C   0  0  0  0  0  0  0  0  0  0  0  0
   36.1660   32.8860   35.5280 C   0  0  0  0  0  0  0  0  0  0  0  0
   36.1390   33.0640   34.1690 C   0  0  0  0  0  0  0  0  0  0  0  0
   35.8540   32.0160   33.3460 N   0  0  0  0  0  0  0  0  0  0  0  0
   35.5960   30.8100   33.8230 C   0  0  0  0  0  0  0  0  0  0  0  0
   35.6200   30.6270   35.1710 N   0  0  0  0  0  0  0  0  0  0  0  0
   35.8940   31.3890   37.0850 H   0  0  0  0  0  0  0  0  0  0  0  0
   36.3760   33.6230   36.2750 H   0  0  0  0  0  0  0  0  0  0  0  0
   36.3530   34.0560   33.7890 H   0  0  0  0  0  0  0  0  0  0  0  0
   37.0650   27.4650   34.0300 C   0  0  0  0  0  3  0  0  0  0  0  0
   38.1000   26.9960   34.7170 C   0  0  0  0  0  3  0  0  0  0  0  0
   38.2680   26.5390   36.0860 C   0  0  0  0  0  0  0  0  0  0  0  0
   39.3600   26.5770   36.3600 H   0  0  0  0  0  0  0  0  0  0  0  0
   37.6500   27.0950   36.8120 H   0  0  0  0  0  0  0  0  0  0  0  0
   37.9010   25.1180   36.2570 N   0  0  0  0  0  0  0  0  0  0  0  0
   38.9850   24.3390   35.6390 C   0  0  0  0  0  2  0  0  0  0  0  0
   39.1430   23.0990   36.4500 C   0  0  0  0  0  2  0  0  0  0  0  0
   38.3260   23.3230   37.7040 C   0  0  0  0  0  2  0  0  0  0  0  0
   38.0740   24.8070   37.6760 C   0  0  0  0  0  3  0  0  0  0  0  0
   38.9800   25.3650   38.0530 H   0  0  0  0  0  0  0  0  0  0  0  0
  1  6  1  0  0  0  0
  1 11  1  0  0  0  0
  2  1  2  0  0  0  0
  3  4  2  0  0  0  0
  3  2  1  0  0  0  0
  4  5  1  0  0  0  0
  5 10  1  0  0  0  0
  5  6  2  0  0  0  0
  6 22  1  0  0  0  0
  7  2  1  0  0  0  0
  8  3  1  0  0  0  0
  9  4  1  0  0  0  0
 11 12  1  1  0  0  0
 11 17  1  0  0  0  0
 13 19  1  0  0  0  0
 14 13  1  0  0  0  0
 14 20  1  0  0  0  0
 15 14  2  0  0  0  0
 16 17  2  0  0  0  0
 16 15  1  0  0  0  0
 17 18  1  0  0  0  0
 18 13  2  0  0  0  0
 21 15  1  0  0  0  0
 22 23  2  0  0  0  0
 23 24  1  0  0  0  0
 24 27  1  0  0  0  0
 24 25  1  0  0  0  0
 24 26  1  0  0  0  0
 27 31  1  0  0  0  0
 28 27  1  0  0  0  0
 28 29  1  0  0  0  0
 29 30  1  0  0  0  0
 31 30  1  0  0  0  0
 31 32  1  0  0  0  0
M  END
>  <minimizedAffinity>
-5.19082308

$$$$

 OpenBabel03272509413D

 32 34  0  0  1  0  0  0  0  0999 V2000
   39.7320   26.7570   34.2690 C   0  0  0  0  0  0  0  0  0  0  0  0
   41.0970   26.7960   34.5620 C   0  0  0  0  0  0  0  0  0  0  0  0
   42.0470   27.0970   33.5970 C   0  0  0  0  0  0  0  0  0  0  0  0
   41.6520   27.3720   32.2850 C   0  0  0  0  0  0  0  0  0  0  0  0
   40.3080   27.3290   32.0170 C   0  0  0  0  0  0  0  0  0  0  0  0
   39.3820   27.0270   32.9980 C   0  0  0  0  0  0  0  0  0  0  0  0
   41.4120   26.5810   35.5870 H   0  0  0  0  0  0  0  0  0  0  0  0
   43.1000   27.1170   33.8660 H   0  0  0  0  0  0  0  0  0  0  0  0
   42.4120   27.6030   31.5520 H   0  0  0  0  0  0  0  0  0  0  0  0
   40.0700   27.5500   30.9830 H   0  0  0  0  0  0  0  0  0  0  0  0
   38.8000   26.4330   35.3420 C   0  0  1  0  0  3  0  0  0  0  0  0
   38.3400   27.4660   35.9590 O   0  0  0  0  0  1  0  0  0  0  0  0
   38.1330   22.9010   34.9330 C   0  0  0  0  0  0  0  0  0  0  0  0
   37.6940   22.4800   36.1790 C   0  0  0  0  0  0  0  0  0  0  0  0
   37.6250   23.4230   37.1710 C   0  0  0  0  0  0  0  0  0  0  0  0
   37.9800   24.7140   36.9150 N   0  0  0  0  0  0  0  0  0  0  0  0
   38.3960   25.0940   35.7190 C   0  0  0  0  0  0  0  0  0  0  0  0
   38.4650   24.1630   34.7300 N   0  0  0  0  0  0  0  0  0  0  0  0
   38.2150   22.2040   34.0830 H   0  0  0  0  0  0  0  0  0  0  0  0
   37.4460   21.4420   36.2530 H   0  0  0  0  0  0  0  0  0  0  0  0
   37.2840   23.1000   38.1480 H   0  0  0  0  0  0  0  0  0  0  0  0
   38.0110   27.0260   32.5390 C   0  0  0  0  0  3  0  0  0  0  0  0
   37.1680   28.0510   32.4970 C   0  0  0  0  0  3  0  0  0  0  0  0
   35.7950   28.2000   32.0430 C   0  0  0  0  0  0  0  0  0  0  0  0
   35.7920   28.4930   30.9560 H   0  0  0  0  0  0  0  0  0  0  0  0
   35.1760   27.3040   32.2220 H   0  0  0  0  0  0  0  0  0  0  0  0
   35.0940   29.3110   32.7200 N   0  0  0  0  0  0  0  0  0  0  0  0
   35.4010   29.1760   34.1520 C   0  0  0  0  0  2  0  0  0  0  0  0
   35.4950   30.5570   34.7060 C   0  0  0  0  0  2  0  0  0  0  0  0
   35.5190   31.4780   33.5050 C   0  0  0  0  0  2  0  0  0  0  0  0
   35.8120   30.5360   32.3680 C   0  0  0  0  0  3  0  0  0  0  0  0
   36.9160   30.3010   32.3290 H   0  0  0  0  0  0  0  0  0  0  0  0
  1  2  1  0  0  0  0
  1 11  1  0  0  0  0
  2  7  1  0  0  0  0
  3  8  1  0  0  0  0
  3  2  2  0  0  0  0
  4  3  1  0  0  0  0
  5  4  2  0  0  0  0
  5  6  1  0  0  0  0
  6  1  2  0  0  0  0
  9  4  1  0  0  0  0
 10  5  1  0  0  0  0
 11 17  1  0  0  0  0
 11 12  1  6  0  0  0
 13 14  1  0  0  0  0
 14 20  1  0  0  0  0
 14 15  2  0  0  0  0
 15 21  1  0  0  0  0
 16 15  1  0  0  0  0
 17 16  2  0  0  0  0
 18 13  2  0  0  0  0
 18 17  1  0  0  0  0
 19 13  1  0  0  0  0
 22  6  1  0  0  0  0
 23 22  2  0  0  0  0
 24 26  1  0  0  0  0
 24 23  1  0  0  0  0
 24 27  1  0  0  0  0
 25 24  1  0  0  0  0
 27 28  1  0  0  0  0
 28 29  1  0  0  0  0
 30 29  1  0  0  0  0
 31 27  1  0  0  0  0
 31 30  1  0  0  0  0
 32 31  1  0  0  0  0
M  END
>  <minimizedAffinity>
-5.17257404

$$$$

 OpenBabel03272509413D

 32 34  0  0  1  0  0  0  0  0999 V2000
   38.1610   26.6020   33.4110 C   0  0  0  0  0  0  0  0  0  0  0  0
   39.3200   26.0650   33.9780 C   0  0  0  0  0  0  0  0  0  0  0  0
   39.7280   26.3940   35.2620 C   0  0  0  0  0  0  0  0  0  0  0  0
   38.9760   27.2870   36.0310 C   0  0  0  0  0  0  0  0  0  0  0  0
   37.8420   27.8020   35.4570 C   0  0  0  0  0  0  0  0  0  0  0  0
   37.4580   27.4570   34.1740 C   0  0  0  0  0  0  0  0  0  0  0  0
   39.9120   25.3670   33.3810 H   0  0  0  0  0  0  0  0  0  0  0  0
   40.6360   25.9550   35.6670 H   0  0  0  0  0  0  0  0  0  0  0  0
   39.3160   27.5270   37.0290 H   0  0  0  0  0  0  0  0  0  0  0  0
   37.3070   28.4870   36.1050 H   0  0  0  0  0  0  0  0  0  0  0  0
   37.8020   26.2030   32.0550 C   0  0  2  0  0  3  0  0  0  0  0  0
   38.0720   27.0930   31.1640 O   0  0  0  0  0  1  0  0  0  0  0  0
   35.1550   23.8710   31.2520 C   0  0  0  0  0  0  0  0  0  0  0  0
   35.8070   22.6720   31.0030 C   0  0  0  0  0  0  0  0  0  0  0  0
   37.1730   22.6670   31.1160 C   0  0  0  0  0  0  0  0  0  0  0  0
   37.8370   23.8060   31.4580 N   0  0  0  0  0  0  0  0  0  0  0  0
   37.1960   24.9380   31.6910 C   0  0  0  0  0  0  0  0  0  0  0  0
   35.8410   24.9510   31.5820 N   0  0  0  0  0  0  0  0  0  0  0  0
   34.0590   23.9580   31.1840 H   0  0  0  0  0  0  0  0  0  0  0  0
   35.1730   21.8500   30.7430 H   0  0  0  0  0  0  0  0  0  0  0  0
   37.6880   21.7330   30.9220 H   0  0  0  0  0  0  0  0  0  0  0  0
   36.2390   28.0940   33.7300 C   0  0  0  0  0  3  0  0  0  0  0  0
   35.6540   29.1730   34.2380 C   0  0  0  0  0  3  0  0  0  0  0  0
   34.4630   29.9270   33.8840 C   0  0  0  0  0  0  0  0  0  0  0  0
   34.5460   30.2750   32.8170 H   0  0  0  0  0  0  0  0  0  0  0  0
   33.5260   29.3690   34.0550 H   0  0  0  0  0  0  0  0  0  0  0  0
   34.3310   31.1760   34.6630 N   0  0  0  0  0  0  0  0  0  0  0  0
   33.3720   30.8860   35.7400 C   0  0  0  0  0  2  0  0  0  0  0  0
   33.8140   31.6650   36.9320 C   0  0  0  0  0  2  0  0  0  0  0  0
   35.1990   32.1740   36.5980 C   0  0  0  0  0  2  0  0  0  0  0  0
   35.5820   31.3410   35.4050 C   0  0  0  0  0  3  0  0  0  0  0  0
   35.9340   30.3200   35.7370 H   0  0  0  0  0  0  0  0  0  0  0  0
  1  2  2  0  0  0  0
  1  6  1  0  0  0  0
  2  3  1  0  0  0  0
  3  8  1  0  0  0  0
  3  4  2  0  0  0  0
  4  9  1  0  0  0  0
  5  4  1  0  0  0  0
  5 10  1  0  0  0  0
  6  5  2  0  0  0  0
  7  2  1  0  0  0  0
 11 12  1  1  0  0  0
 11  1  1  0  0  0  0
 13 18  1  0  0  0  0
 14 15  1  0  0  0  0
 14 13  2  0  0  0  0
 15 16  2  0  0  0  0
 16 17  1  0  0  0  0
 17 11  1  0  0  0  0
 18 17  2  0  0  0  0
 19 13  1  0  0  0  0
 20 14  1  0  0  0  0
 21 15  1  0  0  0  0
 22  6  1  0  0  0  0
 22 23  2  0  0  0  0
 24 26  1  0  0  0  0
 24 23  1  0  0  0  0
 24 27  1  0  0  0  0
 25 24  1  0  0  0  0
 27 31  1  0  0  0  0
 27 28  1  0  0  0  0
 28 29  1  0  0  0  0
 30 29  1  0  0  0  0
 31 32  1  0  0  0  0
 31 30  1  0  0  0  0
M  END
>  <minimizedAffinity>
-5.14098263

$$$$

 OpenBabel03272509413D

 32 34  0  0  1  0  0  0  0  0999 V2000
   37.5620   27.1560   34.1360 C   0  0  0  0  0  0  0  0  0  0  0  0
   36.8670   28.1760   34.7910 C   0  0  0  0  0  0  0  0  0  0  0  0
   35.8900   28.9250   34.1520 C   0  0  0  0  0  0  0  0  0  0  0  0
   35.5740   28.6730   32.8140 C   0  0  0  0  0  0  0  0  0  0  0  0
   36.2680   27.6680   32.1890 C   0  0  0  0  0  0  0  0  0  0  0  0
   37.2370   26.9360   32.8500 C   0  0  0  0  0  0  0  0  0  0  0  0
   37.1100   28.3780   35.8370 H   0  0  0  0  0  0  0  0  0  0  0  0
   35.3720   29.7100   34.6960 H   0  0  0  0  0  0  0  0  0  0  0  0
   34.8100   29.2710   32.3390 H   0  0  0  0  0  0  0  0  0  0  0  0
   35.9760   27.5250   31.1550 H   0  0  0  0  0  0  0  0  0  0  0  0
   38.5740   26.4160   34.8810 C   0  0  2  0  0  3  0  0  0  0  0  0
   39.7450   26.9500   34.8370 O   0  0  0  0  0  1  0  0  0  0  0  0
   37.9020   24.3120   37.7470 C   0  0  0  0  0  0  0  0  0  0  0  0
   37.8570   23.0250   37.2350 C   0  0  0  0  0  0  0  0  0  0  0  0
   38.0620   22.8790   35.8870 C   0  0  0  0  0  0  0  0  0  0  0  0
   38.2980   23.9710   35.1070 N   0  0  0  0  0  0  0  0  0  0  0  0
   38.3370   25.1910   35.6170 C   0  0  0  0  0  0  0  0  0  0  0  0
   38.1350   25.3430   36.9530 N   0  0  0  0  0  0  0  0  0  0  0  0
   37.7480   24.5130   38.8200 H   0  0  0  0  0  0  0  0  0  0  0  0
   37.6630   22.2520   37.9490 H   0  0  0  0  0  0  0  0  0  0  0  0
   38.0270   21.8750   35.4810 H   0  0  0  0  0  0  0  0  0  0  0  0
   37.8650   25.9180   32.0390 C   0  0  0  0  0  3  0  0  0  0  0  0
   37.3120   24.8160   31.5440 C   0  0  0  0  0  3  0  0  0  0  0  0
   37.8070   23.7370   30.7060 C   0  0  0  0  0  0  0  0  0  0  0  0
   37.5880   23.9740   29.6270 H   0  0  0  0  0  0  0  0  0  0  0  0
   38.8770   23.5170   30.8630 H   0  0  0  0  0  0  0  0  0  0  0  0
   37.0990   22.4630   30.9480 N   0  0  0  0  0  0  0  0  0  0  0  0
   37.6550   21.9170   32.1950 C   0  0  0  0  0  2  0  0  0  0  0  0
   36.5390   21.2240   32.9000 C   0  0  0  0  0  2  0  0  0  0  0  0
   35.2780   21.6350   32.1700 C   0  0  0  0  0  2  0  0  0  0  0  0
   35.7360   22.8110   31.3500 C   0  0  0  0  0  3  0  0  0  0  0  0
   35.7810   23.7400   31.9900 H   0  0  0  0  0  0  0  0  0  0  0  0
  1  2  1  0  0  0  0
  1 11  1  0  0  0  0
  2  7  1  0  0  0  0
  3  8  1  0  0  0  0
  3  2  2  0  0  0  0
  4  3  1  0  0  0  0
  5  4  2  0  0  0  0
  5  6  1  0  0  0  0
  6  1  2  0  0  0  0
  9  4  1  0  0  0  0
 10  5  1  0  0  0  0
 11 12  1  6  0  0  0
 11 17  1  0  0  0  0
 13 19  1  0  0  0  0
 14 13  1  0  0  0  0
 14 20  1  0  0  0  0
 15 14  2  0  0  0  0
 16 17  2  0  0  0  0
 16 15  1  0  0  0  0
 17 18  1  0  0  0  0
 18 13  2  0  0  0  0
 21 15  1  0  0  0  0
 22  6  1  0  0  0  0
 23 22  2  0  0  0  0
 24 26  1  0  0  0  0
 24 27  1  0  0  0  0
 24 23  1  0  0  0  0
 25 24  1  0  0  0  0
 27 31  1  0  0  0  0
 27 28  1  0  0  0  0
 28 29  1  0  0  0  0
 30 29  1  0  0  0  0
 31 32  1  0  0  0  0
 31 30  1  0  0  0  0
M  END
>  <minimizedAffinity>
-5.06812668

$$$$

 OpenBabel03272509413D

 32 34  0  0  1  0  0  0  0  0999 V2000
   37.8870   26.7250   33.2010 C   0  0  0  0  0  0  0  0  0  0  0  0
   39.0270   26.0610   33.6580 C   0  0  0  0  0  0  0  0  0  0  0  0
   39.5340   26.2660   34.9330 C   0  0  0  0  0  0  0  0  0  0  0  0
   38.9040   27.1600   35.8040 C   0  0  0  0  0  0  0  0  0  0  0  0
   37.7850   27.8020   35.3370 C   0  0  0  0  0  0  0  0  0  0  0  0
   37.3010   27.5780   34.0610 C   0  0  0  0  0  0  0  0  0  0  0  0
   39.5250   25.3620   32.9820 H   0  0  0  0  0  0  0  0  0  0  0  0
   40.4240   25.7300   35.2520 H   0  0  0  0  0  0  0  0  0  0  0  0
   39.3190   27.3030   36.7920 H   0  0  0  0  0  0  0  0  0  0  0  0
   37.3470   28.4800   36.0600 H   0  0  0  0  0  0  0  0  0  0  0  0
   37.4190   26.4520   31.8480 C   0  0  2  0  0  3  0  0  0  0  0  0
   36.5470   25.5060   31.7810 O   0  0  0  0  0  1  0  0  0  0  0  0
   37.3020   28.8370   29.1300 C   0  0  0  0  0  0  0  0  0  0  0  0
   38.4730   28.6190   28.4210 C   0  0  0  0  0  0  0  0  0  0  0  0
   39.3120   27.6390   28.8820 C   0  0  0  0  0  0  0  0  0  0  0  0
   38.9840   26.9230   29.9950 N   0  0  0  0  0  0  0  0  0  0  0  0
   37.8610   27.1470   30.6560 C   0  0  0  0  0  0  0  0  0  0  0  0
   37.0240   28.1180   30.2030 N   0  0  0  0  0  0  0  0  0  0  0  0
   36.5750   29.6060   28.8230 H   0  0  0  0  0  0  0  0  0  0  0  0
   38.6170   29.2460   27.5650 H   0  0  0  0  0  0  0  0  0  0  0  0
   40.2300   27.4640   28.3330 H   0  0  0  0  0  0  0  0  0  0  0  0
   36.1160   28.3390   33.7360 C   0  0  0  0  0  3  0  0  0  0  0  0
   35.5950   29.3590   34.4090 C   0  0  0  0  0  3  0  0  0  0  0  0
   34.4440   30.2190   34.1900 C   0  0  0  0  0  0  0  0  0  0  0  0
   34.1960   30.2370   33.0920 H   0  0  0  0  0  0  0  0  0  0  0  0
   33.5670   29.9390   34.7980 H   0  0  0  0  0  0  0  0  0  0  0  0
   34.7240   31.6320   34.5210 N   0  0  0  0  0  0  0  0  0  0  0  0
   35.5920   31.6090   35.7080 C   0  0  0  0  0  2  0  0  0  0  0  0
   36.5330   32.7580   35.5770 C   0  0  0  0  0  2  0  0  0  0  0  0
   36.3720   33.2600   34.1580 C   0  0  0  0  0  2  0  0  0  0  0  0
   35.6320   32.1320   33.4890 C   0  0  0  0  0  3  0  0  0  0  0  0
   36.3490   31.3030   33.2150 H   0  0  0  0  0  0  0  0  0  0  0  0
  1  2  2  0  0  0  0
  1  6  1  0  0  0  0
  2  3  1  0  0  0  0
  3  8  1  0  0  0  0
  3  4  2  0  0  0  0
  4  9  1  0  0  0  0
  5  4  1  0  0  0  0
  5 10  1  0  0  0  0
  6  5  2  0  0  0  0
  7  2  1  0  0  0  0
 11 12  1  6  0  0  0
 11  1  1  0  0  0  0
 13 18  1  0  0  0  0
 14 15  1  0  0  0  0
 14 13  2  0  0  0  0
 15 16  2  0  0  0  0
 16 17  1  0  0  0  0
 17 11  1  0  0  0  0
 18 17  2  0  0  0  0
 19 13  1  0  0  0  0
 20 14  1  0  0  0  0
 21 15  1  0  0  0  0
 22  6  1  0  0  0  0
 22 23  2  0  0  0  0
 24 23  1  0  0  0  0
 24 27  1  0  0  0  0
 24 26  1  0  0  0  0
 25 24  1  0  0  0  0
 27 28  1  0  0  0  0
 29 28  1  0  0  0  0
 30 29  1  0  0  0  0
 31 30  1  0  0  0  0
 31 27  1  0  0  0  0
 32 31  1  0  0  0  0
M  END
>  <minimizedAffinity>
-5.03169012

$$$$
