
 OpenBabel03272507563D

 20 21  0  0  0  0  0  0  0  0999 V2000
   36.9280   27.6160   33.5340 C   0  0  0  0  0  0  0  0  0  0  0  0
   37.6740   26.6680   34.2660 C   0  0  0  0  0  0  0  0  0  0  0  0
   37.7700   25.3720   33.7740 C   0  0  0  0  0  0  0  0  0  0  0  0
   37.1340   25.0750   32.5950 N   0  0  0  0  0  0  0  0  0  0  0  0
   36.4250   26.0210   31.9210 C   0  0  0  0  0  0  0  0  0  0  0  0
   36.3170   27.2920   32.3820 N   0  0  0  0  0  0  0  0  0  0  0  0
   35.8530   25.4910   30.7290 N   0  0  0  0  0  0  0  0  0  0  0  0
   36.8280   28.6340   33.8840 H   0  0  0  0  0  0  0  0  0  0  0  0
   36.2690   25.6420   29.7940 H   0  0  0  0  0  0  0  0  0  0  0  0
   34.9790   24.9210   30.7530 H   0  0  0  0  0  0  0  0  0  0  0  0
   38.5180   24.3870   34.4890 N   0  0  0  0  0  0  0  0  0  0  0  0
   39.5100   24.3620   35.5780 C   0  0  0  0  0  2  0  0  0  0  0  0
   39.0860   23.2110   36.4640 C   0  0  0  0  0  2  0  0  0  0  0  0
   38.3240   22.2740   35.5490 C   0  0  0  0  0  2  0  0  0  0  0  0
   38.3900   22.9710   34.1970 C   0  0  0  0  0  3  0  0  0  0  0  0
   37.4820   22.7430   33.6080 H   0  0  0  0  0  0  0  0  0  0  0  0
   38.3320   27.0930   35.5300 C   0  0  0  0  0  0  0  0  0  0  0  0
   39.7030   27.1200   35.4200 F   0  0  0  0  0  0  0  0  0  0  0  0
   37.8910   28.3770   35.8220 F   0  0  0  0  0  0  0  0  0  0  0  0
   38.0010   26.2910   36.6050 F   0  0  0  0  0  0  0  0  0  0  0  0
  1  8  1  0  0  0  0
  1  2  1  0  0  0  0
  2 17  1  0  0  0  0
  3  2  2  0  0  0  0
  3 11  1  0  0  0  0
  4  3  1  0  0  0  0
  5  6  1  0  0  0  0
  5  4  2  0  0  0  0
  6  1  2  0  0  0  0
  7 10  1  0  0  0  0
  7  5  1  0  0  0  0
  9  7  1  0  0  0  0
 11 12  1  0  0  0  0
 12 13  1  0  0  0  0
 14 13  1  0  0  0  0
 15 11  1  0  0  0  0
 15 14  1  0  0  0  0
 16 15  1  0  0  0  0
 17 19  1  0  0  0  0
 17 20  1  0  0  0  0
 18 17  1  0  0  0  0
M  END
>  <minimizedAffinity>
-4.92271185

$$$$

 OpenBabel03272507563D

 20 21  0  0  0  0  0  0  0  0999 V2000
   35.4230   26.0870   31.0580 C   0  0  0  0  0  0  0  0  0  0  0  0
   36.3290   26.4860   32.0640 C   0  0  0  0  0  0  0  0  0  0  0  0
   37.0080   25.5040   32.7760 C   0  0  0  0  0  0  0  0  0  0  0  0
   36.7650   24.1900   32.4660 N   0  0  0  0  0  0  0  0  0  0  0  0
   35.8830   23.8500   31.4870 C   0  0  0  0  0  0  0  0  0  0  0  0
   35.2080   24.7890   30.7790 N   0  0  0  0  0  0  0  0  0  0  0  0
   35.7910   22.4360   31.3380 N   0  0  0  0  0  0  0  0  0  0  0  0
   34.8740   26.8190   30.4830 H   0  0  0  0  0  0  0  0  0  0  0  0
   36.2800   21.9200   30.5880 H   0  0  0  0  0  0  0  0  0  0  0  0
   35.2170   21.8580   31.9910 H   0  0  0  0  0  0  0  0  0  0  0  0
   37.9320   25.8720   33.8010 N   0  0  0  0  0  0  0  0  0  0  0  0
   38.6380   27.0910   34.2350 C   0  0  0  0  0  2  0  0  0  0  0  0
   38.5360   27.0830   35.7440 C   0  0  0  0  0  2  0  0  0  0  0  0
   38.3800   25.6220   36.1170 C   0  0  0  0  0  2  0  0  0  0  0  0
   38.4180   24.9090   34.7730 C   0  0  0  0  0  3  0  0  0  0  0  0
   37.7950   23.9960   34.8090 H   0  0  0  0  0  0  0  0  0  0  0  0
   36.5260   27.9370   32.3180 C   0  0  0  0  0  0  0  0  0  0  0  0
   37.8070   28.3470   32.0310 F   0  0  0  0  0  0  0  0  0  0  0  0
   35.6490   28.6300   31.4940 F   0  0  0  0  0  0  0  0  0  0  0  0
   36.2390   28.3000   33.6200 F   0  0  0  0  0  0  0  0  0  0  0  0
  1  2  1  0  0  0  0
  2 17  1  0  0  0  0
  2  3  2  0  0  0  0
  3 11  1  0  0  0  0
  4  3  1  0  0  0  0
  5  4  2  0  0  0  0
  6  1  2  0  0  0  0
  6  5  1  0  0  0  0
  7  5  1  0  0  0  0
  7 10  1  0  0  0  0
  8  1  1  0  0  0  0
  9  7  1  0  0  0  0
 11 12  1  0  0  0  0
 11 15  1  0  0  0  0
 12 13  1  0  0  0  0
 13 14  1  0  0  0  0
 15 16  1  0  0  0  0
 15 14  1  0  0  0  0
 17 20  1  0  0  0  0
 18 17  1  0  0  0  0
 19 17  1  0  0  0  0
M  END
>  <minimizedAffinity>
-4.62961483

$$$$

 OpenBabel03272507563D

 20 21  0  0  0  0  0  0  0  0999 V2000
   37.8380   24.4150   36.6740 C   0  0  0  0  0  0  0  0  0  0  0  0
   38.6140   25.0720   35.6960 C   0  0  0  0  0  0  0  0  0  0  0  0
   39.9080   24.6230   35.4610 C   0  0  0  0  0  0  0  0  0  0  0  0
   40.3710   23.5590   36.1920 N   0  0  0  0  0  0  0  0  0  0  0  0
   39.5870   22.9540   37.1260 C   0  0  0  0  0  0  0  0  0  0  0  0
   38.3220   23.3740   37.3740 N   0  0  0  0  0  0  0  0  0  0  0  0
   40.2700   21.8770   37.7600 N   0  0  0  0  0  0  0  0  0  0  0  0
   36.8270   24.7350   36.8880 H   0  0  0  0  0  0  0  0  0  0  0  0
   40.1160   20.8880   37.5020 H   0  0  0  0  0  0  0  0  0  0  0  0
   40.9650   22.0470   38.5210 H   0  0  0  0  0  0  0  0  0  0  0  0
   40.7220   25.2650   34.4770 N   0  0  0  0  0  0  0  0  0  0  0  0
   40.5290   26.2020   33.3570 C   0  0  0  0  0  2  0  0  0  0  0  0
   41.6740   27.1850   33.4720 C   0  0  0  0  0  2  0  0  0  0  0  0
   42.7710   26.4240   34.1890 C   0  0  0  0  0  2  0  0  0  0  0  0
   42.1560   25.0510   34.4160 C   0  0  0  0  0  3  0  0  0  0  0  0
   42.5560   24.6050   35.3460 H   0  0  0  0  0  0  0  0  0  0  0  0
   38.0170   26.2130   34.9520 C   0  0  0  0  0  0  0  0  0  0  0  0
   37.9620   25.9800   33.5980 F   0  0  0  0  0  0  0  0  0  0  0  0
   36.7210   26.3850   35.4190 F   0  0  0  0  0  0  0  0  0  0  0  0
   38.6900   27.4010   35.1580 F   0  0  0  0  0  0  0  0  0  0  0  0
  1  8  1  0  0  0  0
  1  6  1  0  0  0  0
  2  1  2  0  0  0  0
  3  2  1  0  0  0  0
  3  4  2  0  0  0  0
  4  5  1  0  0  0  0
  5  6  2  0  0  0  0
  5  7  1  0  0  0  0
  7 10  1  0  0  0  0
  9  7  1  0  0  0  0
 11  3  1  0  0  0  0
 12 13  1  0  0  0  0
 12 11  1  0  0  0  0
 13 14  1  0  0  0  0
 14 15  1  0  0  0  0
 15 11  1  0  0  0  0
 15 16  1  0  0  0  0
 17 20  1  0  0  0  0
 17 19  1  0  0  0  0
 17  2  1  0  0  0  0
 18 17  1  0  0  0  0
M  END
>  <minimizedAffinity>
-4.59989834

$$$$

 OpenBabel03272507563D

 20 21  0  0  0  0  0  0  0  0999 V2000
   37.0330   27.6390   33.8010 C   0  0  0  0  0  0  0  0  0  0  0  0
   37.5360   26.3920   34.2280 C   0  0  0  0  0  0  0  0  0  0  0  0
   37.4710   25.3130   33.3540 C   0  0  0  0  0  0  0  0  0  0  0  0
   36.9190   25.5120   32.1140 N   0  0  0  0  0  0  0  0  0  0  0  0
   36.4450   26.7320   31.7430 C   0  0  0  0  0  0  0  0  0  0  0  0
   36.4980   27.8000   32.5770 N   0  0  0  0  0  0  0  0  0  0  0  0
   35.9200   26.7060   30.4190 N   0  0  0  0  0  0  0  0  0  0  0  0
   37.0650   28.5030   34.4500 H   0  0  0  0  0  0  0  0  0  0  0  0
   36.4480   27.0540   29.6010 H   0  0  0  0  0  0  0  0  0  0  0  0
   34.9670   26.3280   30.2210 H   0  0  0  0  0  0  0  0  0  0  0  0
   37.9710   24.0350   33.7540 N   0  0  0  0  0  0  0  0  0  0  0  0
   38.8300   23.4960   34.8230 C   0  0  0  0  0  2  0  0  0  0  0  0
   38.1350   22.2310   35.2780 C   0  0  0  0  0  2  0  0  0  0  0  0
   37.3290   21.7750   34.0780 C   0  0  0  0  0  2  0  0  0  0  0  0
   37.6450   22.8250   33.0220 C   0  0  0  0  0  3  0  0  0  0  0  0
   36.7770   22.9600   32.3500 H   0  0  0  0  0  0  0  0  0  0  0  0
   38.1220   26.2820   35.5900 C   0  0  0  0  0  0  0  0  0  0  0  0
   39.4620   25.9760   35.5580 F   0  0  0  0  0  0  0  0  0  0  0  0
   37.9690   27.5140   36.2120 F   0  0  0  0  0  0  0  0  0  0  0  0
   37.4840   25.3430   36.3760 F   0  0  0  0  0  0  0  0  0  0  0  0
  1  2  1  0  0  0  0
  1  8  1  0  0  0  0
  2 17  1  0  0  0  0
  3 11  1  0  0  0  0
  3  2  2  0  0  0  0
  4  3  1  0  0  0  0
  5  4  2  0  0  0  0
  5  6  1  0  0  0  0
  6  1  2  0  0  0  0
  7  5  1  0  0  0  0
  9  7  1  0  0  0  0
 10  7  1  0  0  0  0
 11 12  1  0  0  0  0
 12 13  1  0  0  0  0
 14 13  1  0  0  0  0
 15 11  1  0  0  0  0
 15 14  1  0  0  0  0
 16 15  1  0  0  0  0
 17 19  1  0  0  0  0
 17 20  1  0  0  0  0
 18 17  1  0  0  0  0
M  END
>  <minimizedAffinity>
-4.56939268

$$$$

 OpenBabel03272507563D

 20 21  0  0  0  0  0  0  0  0999 V2000
   38.1190   25.0320   36.9160 C   0  0  0  0  0  0  0  0  0  0  0  0
   38.3800   25.5810   35.6430 C   0  0  0  0  0  0  0  0  0  0  0  0
   38.3560   24.7410   34.5370 C   0  0  0  0  0  0  0  0  0  0  0  0
   38.0790   23.4120   34.7350 N   0  0  0  0  0  0  0  0  0  0  0  0
   37.8330   22.9230   35.9810 C   0  0  0  0  0  0  0  0  0  0  0  0
   37.8510   23.7240   37.0760 N   0  0  0  0  0  0  0  0  0  0  0  0
   37.5710   21.5240   35.9490 N   0  0  0  0  0  0  0  0  0  0  0  0
   38.1290   25.6510   37.8020 H   0  0  0  0  0  0  0  0  0  0  0  0
   36.6150   21.1330   35.9910 H   0  0  0  0  0  0  0  0  0  0  0  0
   38.3460   20.8280   35.8800 H   0  0  0  0  0  0  0  0  0  0  0  0
   38.6160   25.2640   33.2330 N   0  0  0  0  0  0  0  0  0  0  0  0
   38.6830   26.5900   32.5930 C   0  0  0  0  0  2  0  0  0  0  0  0
   39.9010   26.5280   31.6980 C   0  0  0  0  0  2  0  0  0  0  0  0
   40.0710   25.0580   31.3720 C   0  0  0  0  0  2  0  0  0  0  0  0
   38.9140   24.3970   32.1080 C   0  0  0  0  0  3  0  0  0  0  0  0
   39.2000   23.3770   32.4260 H   0  0  0  0  0  0  0  0  0  0  0  0
   38.6630   27.0370   35.5340 C   0  0  0  0  0  0  0  0  0  0  0  0
   37.7210   27.6960   34.7800 F   0  0  0  0  0  0  0  0  0  0  0  0
   38.6430   27.5660   36.8180 F   0  0  0  0  0  0  0  0  0  0  0  0
   39.9080   27.3050   34.9990 F   0  0  0  0  0  0  0  0  0  0  0  0
  1  6  1  0  0  0  0
  1  8  1  0  0  0  0
  2  1  2  0  0  0  0
  3  4  2  0  0  0  0
  3  2  1  0  0  0  0
  4  5  1  0  0  0  0
  5  6  2  0  0  0  0
  7  5  1  0  0  0  0
  7  9  1  0  0  0  0
 10  7  1  0  0  0  0
 11  3  1  0  0  0  0
 12 11  1  0  0  0  0
 13 12  1  0  0  0  0
 14 13  1  0  0  0  0
 14 15  1  0  0  0  0
 15 16  1  0  0  0  0
 15 11  1  0  0  0  0
 17  2  1  0  0  0  0
 17 19  1  0  0  0  0
 18 17  1  0  0  0  0
 20 17  1  0  0  0  0
M  END
>  <minimizedAffinity>
-4.38215971

$$$$

 OpenBabel03272507563D

 20 21  0  0  0  0  0  0  0  0999 V2000
   38.4910   24.1720   36.2620 C   0  0  0  0  0  0  0  0  0  0  0  0
   38.0950   23.7560   34.9730 C   0  0  0  0  0  0  0  0  0  0  0  0
   37.7160   24.7220   34.0490 C   0  0  0  0  0  0  0  0  0  0  0  0
   37.7470   26.0390   34.4340 N   0  0  0  0  0  0  0  0  0  0  0  0
   38.1360   26.3960   35.6880 C   0  0  0  0  0  0  0  0  0  0  0  0
   38.5100   25.4720   36.6080 N   0  0  0  0  0  0  0  0  0  0  0  0
   38.0910   27.8090   35.8640 N   0  0  0  0  0  0  0  0  0  0  0  0
   38.7920   23.4520   37.0100 H   0  0  0  0  0  0  0  0  0  0  0  0
   38.9330   28.4060   35.8140 H   0  0  0  0  0  0  0  0  0  0  0  0
   37.1900   28.3030   36.0540 H   0  0  0  0  0  0  0  0  0  0  0  0
   37.3090   24.3370   32.7340 N   0  0  0  0  0  0  0  0  0  0  0  0
   37.3890   23.1340   31.8870 C   0  0  0  0  0  2  0  0  0  0  0  0
   36.0270   23.0270   31.2360 C   0  0  0  0  0  2  0  0  0  0  0  0
   35.4930   24.4450   31.2140 C   0  0  0  0  0  2  0  0  0  0  0  0
   36.6130   25.2540   31.8510 C   0  0  0  0  0  3  0  0  0  0  0  0
   36.1940   26.1230   32.3920 H   0  0  0  0  0  0  0  0  0  0  0  0
   38.1040   22.3040   34.6530 C   0  0  0  0  0  0  0  0  0  0  0  0
   39.0110   21.9940   33.6670 F   0  0  0  0  0  0  0  0  0  0  0  0
   38.4620   21.6220   35.8080 F   0  0  0  0  0  0  0  0  0  0  0  0
   36.8660   21.8310   34.2640 F   0  0  0  0  0  0  0  0  0  0  0  0
  1  6  1  0  0  0  0
  1  8  1  0  0  0  0
  2  1  2  0  0  0  0
  3  4  2  0  0  0  0
  3  2  1  0  0  0  0
  4  5  1  0  0  0  0
  5  7  1  0  0  0  0
  5  6  2  0  0  0  0
  7 10  1  0  0  0  0
  9  7  1  0  0  0  0
 11  3  1  0  0  0  0
 12 11  1  0  0  0  0
 13 12  1  0  0  0  0
 14 13  1  0  0  0  0
 14 15  1  0  0  0  0
 15 16  1  0  0  0  0
 15 11  1  0  0  0  0
 17  2  1  0  0  0  0
 17 19  1  0  0  0  0
 18 17  1  0  0  0  0
 20 17  1  0  0  0  0
M  END
>  <minimizedAffinity>
-4.37333345

$$$$

 OpenBabel03272507563D

 20 21  0  0  0  0  0  0  0  0999 V2000
   40.6820   23.1070   36.3130 C   0  0  0  0  0  0  0  0  0  0  0  0
   40.3270   24.2400   35.5500 C   0  0  0  0  0  0  0  0  0  0  0  0
   39.0970   24.8410   35.7840 C   0  0  0  0  0  0  0  0  0  0  0  0
   38.2820   24.3040   36.7480 N   0  0  0  0  0  0  0  0  0  0  0  0
   38.6630   23.2090   37.4600 C   0  0  0  0  0  0  0  0  0  0  0  0
   39.8590   22.6040   37.2510 N   0  0  0  0  0  0  0  0  0  0  0  0
   37.6650   22.8270   38.4020 N   0  0  0  0  0  0  0  0  0  0  0  0
   41.6290   22.6100   36.1610 H   0  0  0  0  0  0  0  0  0  0  0  0
   37.7240   23.0640   39.4060 H   0  0  0  0  0  0  0  0  0  0  0  0
   36.8220   22.2850   38.1090 H   0  0  0  0  0  0  0  0  0  0  0  0
   38.7050   25.9910   35.0300 N   0  0  0  0  0  0  0  0  0  0  0  0
   39.3540   26.9800   34.1520 C   0  0  0  0  0  2  0  0  0  0  0  0
   38.3980   27.1570   32.9930 C   0  0  0  0  0  2  0  0  0  0  0  0
   37.0350   26.8000   33.5540 C   0  0  0  0  0  2  0  0  0  0  0  0
   37.3310   26.4570   35.0060 C   0  0  0  0  0  3  0  0  0  0  0  0
   36.6200   25.6900   35.3680 H   0  0  0  0  0  0  0  0  0  0  0  0
   41.2850   24.7500   34.5340 C   0  0  0  0  0  0  0  0  0  0  0  0
   41.7420   26.0120   34.8350 F   0  0  0  0  0  0  0  0  0  0  0  0
   42.3720   23.8850   34.5110 F   0  0  0  0  0  0  0  0  0  0  0  0
   40.7540   24.7760   33.2590 F   0  0  0  0  0  0  0  0  0  0  0  0
  1  6  1  0  0  0  0
  2  3  1  0  0  0  0
  2  1  2  0  0  0  0
  3  4  2  0  0  0  0
  4  5  1  0  0  0  0
  5  7  1  0  0  0  0
  6  5  2  0  0  0  0
  7  9  1  0  0  0  0
  8  1  1  0  0  0  0
 10  7  1  0  0  0  0
 11  3  1  0  0  0  0
 12 11  1  0  0  0  0
 13 14  1  0  0  0  0
 13 12  1  0  0  0  0
 14 15  1  0  0  0  0
 15 11  1  0  0  0  0
 15 16  1  0  0  0  0
 17 18  1  0  0  0  0
 17  2  1  0  0  0  0
 19 17  1  0  0  0  0
 20 17  1  0  0  0  0
M  END
>  <minimizedAffinity>
-4.3217659

$$$$

 OpenBabel03272507563D

 20 21  0  0  0  0  0  0  0  0999 V2000
   38.0370   24.9320   36.2110 C   0  0  0  0  0  0  0  0  0  0  0  0
   39.3080   24.6100   35.6880 C   0  0  0  0  0  0  0  0  0  0  0  0
   40.0600   23.6300   36.3230 C   0  0  0  0  0  0  0  0  0  0  0  0
   39.5310   23.0190   37.4310 N   0  0  0  0  0  0  0  0  0  0  0  0
   38.3010   23.3610   37.9020 C   0  0  0  0  0  0  0  0  0  0  0  0
   37.5470   24.3150   37.3000 N   0  0  0  0  0  0  0  0  0  0  0  0
   37.9550   22.6010   39.0560 N   0  0  0  0  0  0  0  0  0  0  0  0
   37.4210   25.6900   35.7470 H   0  0  0  0  0  0  0  0  0  0  0  0
   37.3250   21.7820   39.0190 H   0  0  0  0  0  0  0  0  0  0  0  0
   38.3320   22.8450   39.9990 H   0  0  0  0  0  0  0  0  0  0  0  0
   41.3510   23.2780   35.8200 N   0  0  0  0  0  0  0  0  0  0  0  0
   42.1220   23.4840   34.5820 C   0  0  0  0  0  2  0  0  0  0  0  0
   43.5200   23.8260   35.0470 C   0  0  0  0  0  2  0  0  0  0  0  0
   43.6450   23.1820   36.4140 C   0  0  0  0  0  2  0  0  0  0  0  0
   42.2940   22.5080   36.6100 C   0  0  0  0  0  3  0  0  0  0  0  0
   42.0300   22.4930   37.6840 H   0  0  0  0  0  0  0  0  0  0  0  0
   39.7880   25.3260   34.4760 C   0  0  0  0  0  0  0  0  0  0  0  0
   38.8800   26.2560   34.0260 F   0  0  0  0  0  0  0  0  0  0  0  0
   40.9600   25.9880   34.8170 F   0  0  0  0  0  0  0  0  0  0  0  0
   40.0860   24.4740   33.4310 F   0  0  0  0  0  0  0  0  0  0  0  0
  1  6  1  0  0  0  0
  2  1  2  0  0  0  0
  2  3  1  0  0  0  0
  3  4  2  0  0  0  0
  4  5  1  0  0  0  0
  5  7  1  0  0  0  0
  6  5  2  0  0  0  0
  7 10  1  0  0  0  0
  8  1  1  0  0  0  0
  9  7  1  0  0  0  0
 11  3  1  0  0  0  0
 11 15  1  0  0  0  0
 12 13  1  0  0  0  0
 12 11  1  0  0  0  0
 13 14  1  0  0  0  0
 14 15  1  0  0  0  0
 15 16  1  0  0  0  0
 17 19  1  0  0  0  0
 17  2  1  0  0  0  0
 18 17  1  0  0  0  0
 20 17  1  0  0  0  0
M  END
>  <minimizedAffinity>
-4.29747534

$$$$

 OpenBabel03272507563D

 20 21  0  0  0  0  0  0  0  0999 V2000
   37.8530   26.4580   33.0290 C   0  0  0  0  0  0  0  0  0  0  0  0
   36.7430   27.2880   32.7670 C   0  0  0  0  0  0  0  0  0  0  0  0
   36.3300   28.1790   33.7510 C   0  0  0  0  0  0  0  0  0  0  0  0
   37.0230   28.2080   34.9340 N   0  0  0  0  0  0  0  0  0  0  0  0
   38.0890   27.3890   35.1460 C   0  0  0  0  0  0  0  0  0  0  0  0
   38.5110   26.5120   34.2010 N   0  0  0  0  0  0  0  0  0  0  0  0
   38.6530   27.5910   36.4380 N   0  0  0  0  0  0  0  0  0  0  0  0
   38.2050   25.7510   32.2910 H   0  0  0  0  0  0  0  0  0  0  0  0
   39.5050   28.1560   36.5940 H   0  0  0  0  0  0  0  0  0  0  0  0
   38.2210   27.1710   37.2900 H   0  0  0  0  0  0  0  0  0  0  0  0
   35.2100   29.0350   33.5190 N   0  0  0  0  0  0  0  0  0  0  0  0
   34.4110   29.4820   32.3640 C   0  0  0  0  0  2  0  0  0  0  0  0
   32.9760   29.4280   32.8410 C   0  0  0  0  0  2  0  0  0  0  0  0
   33.0580   29.5920   34.3450 C   0  0  0  0  0  2  0  0  0  0  0  0
   34.5510   29.7400   34.6020 C   0  0  0  0  0  3  0  0  0  0  0  0
   34.8080   29.3230   35.5940 H   0  0  0  0  0  0  0  0  0  0  0  0
   36.0640   27.1840   31.4480 C   0  0  0  0  0  0  0  0  0  0  0  0
   34.7270   26.8850   31.5730 F   0  0  0  0  0  0  0  0  0  0  0  0
   36.1800   28.4160   30.8180 F   0  0  0  0  0  0  0  0  0  0  0  0
   36.6410   26.2420   30.6190 F   0  0  0  0  0  0  0  0  0  0  0  0
  1  6  1  0  0  0  0
  2  1  2  0  0  0  0
  2  3  1  0  0  0  0
  3  4  2  0  0  0  0
  4  5  1  0  0  0  0
  5  7  1  0  0  0  0
  6  5  2  0  0  0  0
  7  9  1  0  0  0  0
  7 10  1  0  0  0  0
  8  1  1  0  0  0  0
 11  3  1  0  0  0  0
 11 15  1  0  0  0  0
 12 13  1  0  0  0  0
 12 11  1  0  0  0  0
 13 14  1  0  0  0  0
 14 15  1  0  0  0  0
 15 16  1  0  0  0  0
 17 18  1  0  0  0  0
 17  2  1  0  0  0  0
 19 17  1  0  0  0  0
 20 17  1  0  0  0  0
M  END
>  <minimizedAffinity>
-4.27010536

$$$$
