
 OpenBabel03272508153D

 25 27  0  0  0  0  0  0  0  0999 V2000
   38.1420   23.3800   33.6840 Cl  0  0  0  0  0  0  0  0  0  0  0  0
   37.1130   24.3800   32.7000 C   0  0  0  0  0  0  0  0  0  0  0  0
   36.3070   23.6780   31.8420 C   0  0  0  0  0  0  0  0  0  0  0  0
   35.4350   24.3920   31.0010 C   0  0  0  0  0  0  0  0  0  0  0  0
   35.3810   25.7510   31.0250 C   0  0  0  0  0  0  0  0  0  0  0  0
   36.1970   26.4390   31.8920 C   0  0  0  0  0  0  0  0  0  0  0  0
   36.1520   28.1810   31.9490 Cl  0  0  0  0  0  0  0  0  0  0  0  0
   37.0410   25.7540   32.7070 C   0  0  0  0  0  0  0  0  0  0  0  0
   34.7650   23.9220   30.2930 H   0  0  0  0  0  0  0  0  0  0  0  0
   34.7100   26.3270   30.3780 H   0  0  0  0  0  0  0  0  0  0  0  0
   35.1210   21.5530   32.2910 C   0  0  0  0  0  0  0  0  0  0  0  0
   36.2000   22.2210   31.6480 C   0  0  0  0  0  0  0  0  0  0  0  0
   37.1000   21.4710   30.8680 C   0  0  0  0  0  0  0  0  0  0  0  0
   36.8720   20.1280   30.7810 N   0  0  0  0  0  0  0  0  0  0  0  0
   35.8390   19.5200   31.4030 C   0  0  0  0  0  0  0  0  0  0  0  0
   34.9770   20.2280   32.1470 N   0  0  0  0  0  0  0  0  0  0  0  0
   34.4340   22.1260   32.8860 H   0  0  0  0  0  0  0  0  0  0  0  0
   37.8960   21.9940   30.3990 H   0  0  0  0  0  0  0  0  0  0  0  0
   35.7010   18.4530   31.3030 H   0  0  0  0  0  0  0  0  0  0  0  0
   37.9230   26.3910   33.6380 N   0  0  0  0  0  0  0  0  0  0  0  0
   39.2830   26.8930   33.5500 C   0  0  0  0  0  2  0  0  0  0  0  0
   39.7350   26.8190   34.9950 C   0  0  0  0  0  2  0  0  0  0  0  0
   38.5020   27.3910   35.7040 C   0  0  0  0  0  2  0  0  0  0  0  0
   37.4140   26.6200   34.9950 C   0  0  0  0  0  3  0  0  0  0  0  0
   36.5010   27.2540   34.9730 H   0  0  0  0  0  0  0  0  0  0  0  0
  2  8  1  0  0  0  0
  2  1  1  0  0  0  0
  3  2  2  0  0  0  0
  4  5  2  0  0  0  0
  4  3  1  0  0  0  0
  5  6  1  0  0  0  0
  6  7  1  0  0  0  0
  6  8  2  0  0  0  0
  8 20  1  0  0  0  0
  9  4  1  0  0  0  0
 10  5  1  0  0  0  0
 11 17  1  0  0  0  0
 12  3  1  0  0  0  0
 12 11  2  0  0  0  0
 13 12  1  0  0  0  0
 14 13  2  0  0  0  0
 14 15  1  0  0  0  0
 15 16  2  0  0  0  0
 16 11  1  0  0  0  0
 18 13  1  0  0  0  0
 19 15  1  0  0  0  0
 20 24  1  0  0  0  0
 21 20  1  0  0  0  0
 21 22  1  0  0  0  0
 22 23  1  0  0  0  0
 24 23  1  0  0  0  0
 25 24  1  0  0  0  0
M  END
>  <minimizedAffinity>
-5.4607029

$$$$

 OpenBabel03272508153D

 25 27  0  0  0  0  0  0  0  0999 V2000
   38.3900   26.8030   35.2300 Cl  0  0  0  0  0  0  0  0  0  0  0  0
   37.9250   25.5230   34.1460 C   0  0  0  0  0  0  0  0  0  0  0  0
   37.3040   25.9560   33.0040 C   0  0  0  0  0  0  0  0  0  0  0  0
   36.8870   25.0010   32.0600 C   0  0  0  0  0  0  0  0  0  0  0  0
   37.0890   23.6710   32.2600 C   0  0  0  0  0  0  0  0  0  0  0  0
   37.7150   23.2550   33.4120 C   0  0  0  0  0  0  0  0  0  0  0  0
   37.9890   21.5570   33.7000 Cl  0  0  0  0  0  0  0  0  0  0  0  0
   38.1190   24.1730   34.3270 C   0  0  0  0  0  0  0  0  0  0  0  0
   36.3900   25.2510   31.1320 H   0  0  0  0  0  0  0  0  0  0  0  0
   36.7730   22.9100   31.5380 H   0  0  0  0  0  0  0  0  0  0  0  0
   37.6180   27.8200   31.4080 C   0  0  0  0  0  0  0  0  0  0  0  0
   36.9840   27.3320   32.5830 C   0  0  0  0  0  0  0  0  0  0  0  0
   36.0940   28.1730   33.2780 C   0  0  0  0  0  0  0  0  0  0  0  0
   35.8970   29.4220   32.7660 N   0  0  0  0  0  0  0  0  0  0  0  0
   36.5140   29.8600   31.6480 C   0  0  0  0  0  0  0  0  0  0  0  0
   37.3630   29.0660   30.9800 N   0  0  0  0  0  0  0  0  0  0  0  0
   38.2980   27.1790   30.8780 H   0  0  0  0  0  0  0  0  0  0  0  0
   35.6330   27.7830   34.1520 H   0  0  0  0  0  0  0  0  0  0  0  0
   36.3240   30.8600   31.2830 H   0  0  0  0  0  0  0  0  0  0  0  0
   38.7770   23.8260   35.5510 N   0  0  0  0  0  0  0  0  0  0  0  0
   40.1680   23.6430   35.9260 C   0  0  0  0  0  2  0  0  0  0  0  0
   40.0490   22.7050   37.1110 C   0  0  0  0  0  2  0  0  0  0  0  0
   38.8860   23.3580   37.8690 C   0  0  0  0  0  2  0  0  0  0  0  0
   37.9280   23.5900   36.7250 C   0  0  0  0  0  3  0  0  0  0  0  0
   37.3200   24.4900   36.9610 H   0  0  0  0  0  0  0  0  0  0  0  0
  2  8  1  0  0  0  0
  2  1  1  0  0  0  0
  3  2  2  0  0  0  0
  4  5  2  0  0  0  0
  4  3  1  0  0  0  0
  5  6  1  0  0  0  0
  6  7  1  0  0  0  0
  6  8  2  0  0  0  0
  8 20  1  0  0  0  0
  9  4  1  0  0  0  0
 10  5  1  0  0  0  0
 11 12  1  0  0  0  0
 12  3  1  0  0  0  0
 12 13  2  0  0  0  0
 13 18  1  0  0  0  0
 14 13  1  0  0  0  0
 15 14  2  0  0  0  0
 16 11  2  0  0  0  0
 16 15  1  0  0  0  0
 17 11  1  0  0  0  0
 19 15  1  0  0  0  0
 20 21  1  0  0  0  0
 20 24  1  0  0  0  0
 21 22  1  0  0  0  0
 22 23  1  0  0  0  0
 24 25  1  0  0  0  0
 24 23  1  0  0  0  0
M  END
>  <minimizedAffinity>
-4.6947217

$$$$

 OpenBabel03272508153D

 25 27  0  0  0  0  0  0  0  0999 V2000
   36.4640   27.8810   34.8200 Cl  0  0  0  0  0  0  0  0  0  0  0  0
   36.2920   28.7690   33.3330 C   0  0  0  0  0  0  0  0  0  0  0  0
   35.6640   29.9780   33.4740 C   0  0  0  0  0  0  0  0  0  0  0  0
   35.4740   30.7770   32.3320 C   0  0  0  0  0  0  0  0  0  0  0  0
   35.9000   30.3720   31.1050 C   0  0  0  0  0  0  0  0  0  0  0  0
   36.5290   29.1560   30.9830 C   0  0  0  0  0  0  0  0  0  0  0  0
   37.0870   28.6060   29.4250 Cl  0  0  0  0  0  0  0  0  0  0  0  0
   36.7150   28.3800   32.0830 C   0  0  0  0  0  0  0  0  0  0  0  0
   34.9890   31.7440   32.3500 H   0  0  0  0  0  0  0  0  0  0  0  0
   35.7620   30.9780   30.2030 H   0  0  0  0  0  0  0  0  0  0  0  0
   33.7470   30.4100   34.9790 C   0  0  0  0  0  0  0  0  0  0  0  0
   35.1260   30.6110   34.6920 C   0  0  0  0  0  0  0  0  0  0  0  0
   35.8990   31.3910   35.5720 C   0  0  0  0  0  0  0  0  0  0  0  0
   35.2620   31.9120   36.6600 N   0  0  0  0  0  0  0  0  0  0  0  0
   33.9500   31.7060   36.9070 C   0  0  0  0  0  0  0  0  0  0  0  0
   33.2070   30.9630   36.0740 N   0  0  0  0  0  0  0  0  0  0  0  0
   33.1570   29.8140   34.3080 H   0  0  0  0  0  0  0  0  0  0  0  0
   36.9260   31.5250   35.3340 H   0  0  0  0  0  0  0  0  0  0  0  0
   33.4910   32.1400   37.7840 H   0  0  0  0  0  0  0  0  0  0  0  0
   37.3590   27.1020   32.0440 N   0  0  0  0  0  0  0  0  0  0  0  0
   36.8800   25.7420   31.8780 C   0  0  0  0  0  2  0  0  0  0  0  0
   37.9710   24.9430   32.5630 C   0  0  0  0  0  2  0  0  0  0  0  0
   39.2180   25.6380   32.0060 C   0  0  0  0  0  2  0  0  0  0  0  0
   38.8180   27.0820   32.1970 C   0  0  0  0  0  3  0  0  0  0  0  0
   39.3080   27.6840   31.4000 H   0  0  0  0  0  0  0  0  0  0  0  0
  2  3  1  0  0  0  0
  2  1  1  0  0  0  0
  3 12  1  0  0  0  0
  4  9  1  0  0  0  0
  4  3  2  0  0  0  0
  5  4  1  0  0  0  0
  6  5  2  0  0  0  0
  6  8  1  0  0  0  0
  7  6  1  0  0  0  0
  8  2  2  0  0  0  0
 10  5  1  0  0  0  0
 11 16  1  0  0  0  0
 12 11  2  0  0  0  0
 12 13  1  0  0  0  0
 13 14  2  0  0  0  0
 14 15  1  0  0  0  0
 15 19  1  0  0  0  0
 16 15  2  0  0  0  0
 17 11  1  0  0  0  0
 18 13  1  0  0  0  0
 20  8  1  0  0  0  0
 20 24  1  0  0  0  0
 21 20  1  0  0  0  0
 21 22  1  0  0  0  0
 23 24  1  0  0  0  0
 23 22  1  0  0  0  0
 25 24  1  0  0  0  0
M  END
>  <minimizedAffinity>
-4.64549446

$$$$

 OpenBabel03272508153D

 25 27  0  0  0  0  0  0  0  0999 V2000
   38.1480   27.2130   33.4660 Cl  0  0  0  0  0  0  0  0  0  0  0  0
   37.1710   26.0580   32.6060 C   0  0  0  0  0  0  0  0  0  0  0  0
   36.2460   26.6230   31.7690 C   0  0  0  0  0  0  0  0  0  0  0  0
   35.4040   25.7770   31.0250 C   0  0  0  0  0  0  0  0  0  0  0  0
   35.4940   24.4240   31.1230 C   0  0  0  0  0  0  0  0  0  0  0  0
   36.4290   23.8740   31.9680 C   0  0  0  0  0  0  0  0  0  0  0  0
   36.5700   22.1430   32.1170 Cl  0  0  0  0  0  0  0  0  0  0  0  0
   37.2440   24.6870   32.6880 C   0  0  0  0  0  0  0  0  0  0  0  0
   34.6460   26.1350   30.3410 H   0  0  0  0  0  0  0  0  0  0  0  0
   34.8480   23.7460   30.5530 H   0  0  0  0  0  0  0  0  0  0  0  0
   35.0420   28.7040   32.3590 C   0  0  0  0  0  0  0  0  0  0  0  0
   35.9740   28.0490   31.5080 C   0  0  0  0  0  0  0  0  0  0  0  0
   36.5860   28.7810   30.4730 C   0  0  0  0  0  0  0  0  0  0  0  0
   36.2350   30.0950   30.3550 N   0  0  0  0  0  0  0  0  0  0  0  0
   35.3460   30.6910   31.1770 C   0  0  0  0  0  0  0  0  0  0  0  0
   34.7590   30.0000   32.1660 N   0  0  0  0  0  0  0  0  0  0  0  0
   34.5760   28.1440   33.1490 H   0  0  0  0  0  0  0  0  0  0  0  0
   37.2780   28.2690   29.8520 H   0  0  0  0  0  0  0  0  0  0  0  0
   35.1010   31.7350   31.0430 H   0  0  0  0  0  0  0  0  0  0  0  0
   38.2430   24.1980   33.5900 N   0  0  0  0  0  0  0  0  0  0  0  0
   38.2460   23.8780   35.0070 C   0  0  0  0  0  2  0  0  0  0  0  0
   39.7100   24.0500   35.3610 C   0  0  0  0  0  2  0  0  0  0  0  0
   40.3710   23.3390   34.1740 C   0  0  0  0  0  2  0  0  0  0  0  0
   39.5780   23.9400   33.0380 C   0  0  0  0  0  3  0  0  0  0  0  0
   39.5280   23.1910   32.2180 H   0  0  0  0  0  0  0  0  0  0  0  0
  2  8  1  0  0  0  0
  2  1  1  0  0  0  0
  3  2  2  0  0  0  0
  4  5  2  0  0  0  0
  4  3  1  0  0  0  0
  5  6  1  0  0  0  0
  6  7  1  0  0  0  0
  6  8  2  0  0  0  0
  8 20  1  0  0  0  0
  9  4  1  0  0  0  0
 10  5  1  0  0  0  0
 11 17  1  0  0  0  0
 12  3  1  0  0  0  0
 12 11  2  0  0  0  0
 13 12  1  0  0  0  0
 14 13  2  0  0  0  0
 14 15  1  0  0  0  0
 15 16  2  0  0  0  0
 16 11  1  0  0  0  0
 18 13  1  0  0  0  0
 19 15  1  0  0  0  0
 20 21  1  0  0  0  0
 21 22  1  0  0  0  0
 23 22  1  0  0  0  0
 24 20  1  0  0  0  0
 24 23  1  0  0  0  0
 25 24  1  0  0  0  0
M  END
>  <minimizedAffinity>
-4.59001493

$$$$

 OpenBabel03272508153D

 25 27  0  0  0  0  0  0  0  0999 V2000
   38.0210   26.3360   34.9370 Cl  0  0  0  0  0  0  0  0  0  0  0  0
   38.1380   24.9190   33.9340 C   0  0  0  0  0  0  0  0  0  0  0  0
   38.4240   23.7690   34.6230 C   0  0  0  0  0  0  0  0  0  0  0  0
   38.5400   22.5650   33.9060 C   0  0  0  0  0  0  0  0  0  0  0  0
   38.3750   22.5250   32.5560 C   0  0  0  0  0  0  0  0  0  0  0  0
   38.0870   23.6880   31.8820 C   0  0  0  0  0  0  0  0  0  0  0  0
   37.8690   23.6720   30.1520 Cl  0  0  0  0  0  0  0  0  0  0  0  0
   37.9740   24.8540   32.5700 C   0  0  0  0  0  0  0  0  0  0  0  0
   38.7640   21.6120   34.3660 H   0  0  0  0  0  0  0  0  0  0  0  0
   38.4610   21.5980   31.9780 H   0  0  0  0  0  0  0  0  0  0  0  0
   37.5660   23.9050   36.9400 C   0  0  0  0  0  0  0  0  0  0  0  0
   38.6420   23.5800   36.0680 C   0  0  0  0  0  0  0  0  0  0  0  0
   39.8450   23.0990   36.6190 C   0  0  0  0  0  0  0  0  0  0  0  0
   39.8980   22.9760   37.9760 N   0  0  0  0  0  0  0  0  0  0  0  0
   38.8600   23.2930   38.7810 C   0  0  0  0  0  0  0  0  0  0  0  0
   37.7110   23.7520   38.2640 N   0  0  0  0  0  0  0  0  0  0  0  0
   36.6480   24.2730   36.5190 H   0  0  0  0  0  0  0  0  0  0  0  0
   40.6320   22.8630   35.9460 H   0  0  0  0  0  0  0  0  0  0  0  0
   38.9520   23.1780   39.8510 H   0  0  0  0  0  0  0  0  0  0  0  0
   37.6780   26.1090   31.9460 N   0  0  0  0  0  0  0  0  0  0  0  0
   38.4970   27.1950   31.4400 C   0  0  0  0  0  2  0  0  0  0  0  0
   37.5460   28.3720   31.5360 C   0  0  0  0  0  2  0  0  0  0  0  0
   36.2640   27.7420   30.9780 C   0  0  0  0  0  2  0  0  0  0  0  0
   36.2630   26.4380   31.7400 C   0  0  0  0  0  3  0  0  0  0  0  0
   35.7670   25.6690   31.1080 H   0  0  0  0  0  0  0  0  0  0  0  0
  2  3  1  0  0  0  0
  2  1  1  0  0  0  0
  3 12  1  0  0  0  0
  4  9  1  0  0  0  0
  4  3  2  0  0  0  0
  5  4  1  0  0  0  0
  6  5  2  0  0  0  0
  6  8  1  0  0  0  0
  7  6  1  0  0  0  0
  8  2  2  0  0  0  0
 10  5  1  0  0  0  0
 11 16  1  0  0  0  0
 12 13  1  0  0  0  0
 12 11  2  0  0  0  0
 13 14  2  0  0  0  0
 14 15  1  0  0  0  0
 15 19  1  0  0  0  0
 16 15  2  0  0  0  0
 17 11  1  0  0  0  0
 18 13  1  0  0  0  0
 20  8  1  0  0  0  0
 21 22  1  0  0  0  0
 21 20  1  0  0  0  0
 23 22  1  0  0  0  0
 23 24  1  0  0  0  0
 24 20  1  0  0  0  0
 25 24  1  0  0  0  0
M  END
>  <minimizedAffinity>
-4.56486702

$$$$

 OpenBabel03272508153D

 25 27  0  0  0  0  0  0  0  0999 V2000
   39.2690   25.8860   34.7150 Cl  0  0  0  0  0  0  0  0  0  0  0  0
   38.3330   24.6690   33.8970 C   0  0  0  0  0  0  0  0  0  0  0  0
   38.4890   23.4070   34.4080 C   0  0  0  0  0  0  0  0  0  0  0  0
   37.7750   22.3490   33.8190 C   0  0  0  0  0  0  0  0  0  0  0  0
   36.9420   22.5550   32.7630 C   0  0  0  0  0  0  0  0  0  0  0  0
   36.7970   23.8290   32.2640 C   0  0  0  0  0  0  0  0  0  0  0  0
   35.7390   24.1290   30.9120 Cl  0  0  0  0  0  0  0  0  0  0  0  0
   37.4850   24.8550   32.8290 C   0  0  0  0  0  0  0  0  0  0  0  0
   37.8360   21.3220   34.1560 H   0  0  0  0  0  0  0  0  0  0  0  0
   36.3770   21.7450   32.2890 H   0  0  0  0  0  0  0  0  0  0  0  0
   40.5540   22.3100   35.2160 C   0  0  0  0  0  0  0  0  0  0  0  0
   39.3270   22.9560   35.5330 C   0  0  0  0  0  0  0  0  0  0  0  0
   38.9780   23.1320   36.8850 C   0  0  0  0  0  0  0  0  0  0  0  0
   39.8560   22.6610   37.8170 N   0  0  0  0  0  0  0  0  0  0  0  0
   41.0150   22.0510   37.4870 C   0  0  0  0  0  0  0  0  0  0  0  0
   41.3550   21.8800   36.2020 N   0  0  0  0  0  0  0  0  0  0  0  0
   40.8210   22.1760   34.1840 H   0  0  0  0  0  0  0  0  0  0  0  0
   38.0560   23.6170   37.0940 H   0  0  0  0  0  0  0  0  0  0  0  0
   41.6780   21.6950   38.2630 H   0  0  0  0  0  0  0  0  0  0  0  0
   37.3930   26.2090   32.3720 N   0  0  0  0  0  0  0  0  0  0  0  0
   36.5850   27.3480   32.7680 C   0  0  0  0  0  2  0  0  0  0  0  0
   36.5640   28.1710   31.4940 C   0  0  0  0  0  2  0  0  0  0  0  0
   38.0380   28.0850   31.0810 C   0  0  0  0  0  2  0  0  0  0  0  0
   38.2740   26.6050   31.2680 C   0  0  0  0  0  3  0  0  0  0  0  0
   39.3420   26.4580   31.5420 H   0  0  0  0  0  0  0  0  0  0  0  0
  2  3  1  0  0  0  0
  2  1  1  0  0  0  0
  3 12  1  0  0  0  0
  4  9  1  0  0  0  0
  4  3  2  0  0  0  0
  5  4  1  0  0  0  0
  6  5  2  0  0  0  0
  6  8  1  0  0  0  0
  7  6  1  0  0  0  0
  8  2  2  0  0  0  0
 10  5  1  0  0  0  0
 11 12  2  0  0  0  0
 11 16  1  0  0  0  0
 12 13  1  0  0  0  0
 13 18  1  0  0  0  0
 13 14  2  0  0  0  0
 15 14  1  0  0  0  0
 15 19  1  0  0  0  0
 16 15  2  0  0  0  0
 17 11  1  0  0  0  0
 20 21  1  0  0  0  0
 20  8  1  0  0  0  0
 22 21  1  0  0  0  0
 23 24  1  0  0  0  0
 23 22  1  0  0  0  0
 24 25  1  0  0  0  0
 24 20  1  0  0  0  0
M  END
>  <minimizedAffinity>
-4.52796268

$$$$

 OpenBabel03272508153D

 25 27  0  0  0  0  0  0  0  0999 V2000
   35.6670   24.8170   30.9260 Cl  0  0  0  0  0  0  0  0  0  0  0  0
   36.8590   24.7290   32.1910 C   0  0  0  0  0  0  0  0  0  0  0  0
   37.1650   23.4520   32.5810 C   0  0  0  0  0  0  0  0  0  0  0  0
   38.1190   23.2690   33.5990 C   0  0  0  0  0  0  0  0  0  0  0  0
   38.7340   24.3270   34.1930 C   0  0  0  0  0  0  0  0  0  0  0  0
   38.4140   25.6010   33.7870 C   0  0  0  0  0  0  0  0  0  0  0  0
   39.1840   26.9790   34.5280 Cl  0  0  0  0  0  0  0  0  0  0  0  0
   37.4940   25.7840   32.8050 C   0  0  0  0  0  0  0  0  0  0  0  0
   38.4220   22.2990   33.9700 H   0  0  0  0  0  0  0  0  0  0  0  0
   39.4790   24.2070   34.9870 H   0  0  0  0  0  0  0  0  0  0  0  0
   37.3530   21.5190   31.0480 C   0  0  0  0  0  0  0  0  0  0  0  0
   36.6290   22.1730   32.0830 C   0  0  0  0  0  0  0  0  0  0  0  0
   35.4540   21.5750   32.5760 C   0  0  0  0  0  0  0  0  0  0  0  0
   35.0820   20.3880   32.0160 N   0  0  0  0  0  0  0  0  0  0  0  0
   35.7890   19.7900   31.0330 C   0  0  0  0  0  0  0  0  0  0  0  0
   36.9100   20.3520   30.5580 N   0  0  0  0  0  0  0  0  0  0  0  0
   38.2510   21.9750   30.6720 H   0  0  0  0  0  0  0  0  0  0  0  0
   34.9330   22.0840   33.3490 H   0  0  0  0  0  0  0  0  0  0  0  0
   35.4530   18.8480   30.6210 H   0  0  0  0  0  0  0  0  0  0  0  0
   37.1030   27.0750   32.3240 N   0  0  0  0  0  0  0  0  0  0  0  0
   36.1050   28.0420   32.7450 C   0  0  0  0  0  2  0  0  0  0  0  0
   35.8440   28.7990   31.4580 C   0  0  0  0  0  2  0  0  0  0  0  0
   37.2790   28.9970   30.9540 C   0  0  0  0  0  2  0  0  0  0  0  0
   37.8210   27.6010   31.1580 C   0  0  0  0  0  3  0  0  0  0  0  0
   38.9100   27.6810   31.3670 H   0  0  0  0  0  0  0  0  0  0  0  0
  1  2  1  0  0  0  0
  2  3  2  0  0  0  0
  2  8  1  0  0  0  0
  3  4  1  0  0  0  0
  4  9  1  0  0  0  0
  4  5  2  0  0  0  0
  5 10  1  0  0  0  0
  6  5  1  0  0  0  0
  6  7  1  0  0  0  0
  8  6  2  0  0  0  0
 11 12  1  0  0  0  0
 12 13  2  0  0  0  0
 12  3  1  0  0  0  0
 13 18  1  0  0  0  0
 14 13  1  0  0  0  0
 15 14  2  0  0  0  0
 16 15  1  0  0  0  0
 16 11  2  0  0  0  0
 17 11  1  0  0  0  0
 19 15  1  0  0  0  0
 20 21  1  0  0  0  0
 20  8  1  0  0  0  0
 22 21  1  0  0  0  0
 23 24  1  0  0  0  0
 23 22  1  0  0  0  0
 24 25  1  0  0  0  0
 24 20  1  0  0  0  0
M  END
>  <minimizedAffinity>
-4.49092484

$$$$

 OpenBabel03272508153D

 25 27  0  0  0  0  0  0  0  0999 V2000
   35.2180   24.7270   30.8110 Cl  0  0  0  0  0  0  0  0  0  0  0  0
   36.5320   24.6610   31.9490 C   0  0  0  0  0  0  0  0  0  0  0  0
   37.0550   25.8860   32.2700 C   0  0  0  0  0  0  0  0  0  0  0  0
   38.1230   25.9440   33.1840 C   0  0  0  0  0  0  0  0  0  0  0  0
   38.6380   24.8180   33.7460 C   0  0  0  0  0  0  0  0  0  0  0  0
   38.1000   23.5970   33.4120 C   0  0  0  0  0  0  0  0  0  0  0  0
   38.7360   22.1330   34.1140 Cl  0  0  0  0  0  0  0  0  0  0  0  0
   37.0680   23.5350   32.5300 C   0  0  0  0  0  0  0  0  0  0  0  0
   38.5970   26.8660   33.4950 H   0  0  0  0  0  0  0  0  0  0  0  0
   39.4690   24.8400   34.4590 H   0  0  0  0  0  0  0  0  0  0  0  0
   37.1710   27.6410   30.5300 C   0  0  0  0  0  0  0  0  0  0  0  0
   36.6600   27.2220   31.7890 C   0  0  0  0  0  0  0  0  0  0  0  0
   35.8120   28.0880   32.5030 C   0  0  0  0  0  0  0  0  0  0  0  0
   35.5340   29.2940   31.9290 N   0  0  0  0  0  0  0  0  0  0  0  0
   36.0350   29.6670   30.7320 C   0  0  0  0  0  0  0  0  0  0  0  0
   36.8430   28.8470   30.0450 N   0  0  0  0  0  0  0  0  0  0  0  0
   37.8190   26.9790   29.9840 H   0  0  0  0  0  0  0  0  0  0  0  0
   35.4430   27.7510   33.4410 H   0  0  0  0  0  0  0  0  0  0  0  0
   35.7850   30.6340   30.3190 H   0  0  0  0  0  0  0  0  0  0  0  0
   36.4510   22.3070   32.1280 N   0  0  0  0  0  0  0  0  0  0  0  0
   35.2910   21.5680   32.5930 C   0  0  0  0  0  2  0  0  0  0  0  0
   35.6320   20.1540   32.1650 C   0  0  0  0  0  2  0  0  0  0  0  0
   36.1530   20.4080   30.7460 C   0  0  0  0  0  2  0  0  0  0  0  0
   37.0670   21.5810   31.0110 C   0  0  0  0  0  3  0  0  0  0  0  0
   37.0940   22.2120   30.0960 H   0  0  0  0  0  0  0  0  0  0  0  0
  1  2  1  0  0  0  0
  2  3  2  0  0  0  0
  2  8  1  0  0  0  0
  3  4  1  0  0  0  0
  4  9  1  0  0  0  0
  4  5  2  0  0  0  0
  5 10  1  0  0  0  0
  6  5  1  0  0  0  0
  6  7  1  0  0  0  0
  8  6  2  0  0  0  0
 11 12  1  0  0  0  0
 12  3  1  0  0  0  0
 12 13  2  0  0  0  0
 13 18  1  0  0  0  0
 14 13  1  0  0  0  0
 15 14  2  0  0  0  0
 16 11  2  0  0  0  0
 16 15  1  0  0  0  0
 17 11  1  0  0  0  0
 19 15  1  0  0  0  0
 20  8  1  0  0  0  0
 20 21  1  0  0  0  0
 22 21  1  0  0  0  0
 23 24  1  0  0  0  0
 23 22  1  0  0  0  0
 24 20  1  0  0  0  0
 25 24  1  0  0  0  0
M  END
>  <minimizedAffinity>
-4.48566771

$$$$

 OpenBabel03272508153D

 25 27  0  0  0  0  0  0  0  0999 V2000
   39.8250   26.3700   34.8080 Cl  0  0  0  0  0  0  0  0  0  0  0  0
   39.0760   25.1130   33.8660 C   0  0  0  0  0  0  0  0  0  0  0  0
   38.6050   24.0640   34.6110 C   0  0  0  0  0  0  0  0  0  0  0  0
   37.9800   22.9940   33.9460 C   0  0  0  0  0  0  0  0  0  0  0  0
   37.8370   22.9850   32.5940 C   0  0  0  0  0  0  0  0  0  0  0  0
   38.3150   24.0470   31.8630 C   0  0  0  0  0  0  0  0  0  0  0  0
   38.1490   24.0680   30.1280 Cl  0  0  0  0  0  0  0  0  0  0  0  0
   38.9200   25.0840   32.5000 C   0  0  0  0  0  0  0  0  0  0  0  0
   37.5790   22.1250   34.4520 H   0  0  0  0  0  0  0  0  0  0  0  0
   37.3530   22.1620   32.0560 H   0  0  0  0  0  0  0  0  0  0  0  0
   39.7150   23.0780   36.5900 C   0  0  0  0  0  0  0  0  0  0  0  0
   38.6500   23.8640   36.0700 C   0  0  0  0  0  0  0  0  0  0  0  0
   37.7050   24.4060   36.9610 C   0  0  0  0  0  0  0  0  0  0  0  0
   37.8780   24.1350   38.2870 N   0  0  0  0  0  0  0  0  0  0  0  0
   38.8990   23.3840   38.7530 C   0  0  0  0  0  0  0  0  0  0  0  0
   39.8030   22.8640   37.9110 N   0  0  0  0  0  0  0  0  0  0  0  0
   40.4370   22.6630   35.9100 H   0  0  0  0  0  0  0  0  0  0  0  0
   36.9200   24.9900   36.5470 H   0  0  0  0  0  0  0  0  0  0  0  0
   38.9920   23.1980   39.8130 H   0  0  0  0  0  0  0  0  0  0  0  0
   39.4450   26.2270   31.8160 N   0  0  0  0  0  0  0  0  0  0  0  0
   38.8830   27.5070   31.4230 C   0  0  0  0  0  2  0  0  0  0  0  0
   39.7640   27.8840   30.2480 C   0  0  0  0  0  2  0  0  0  0  0  0
   41.1460   27.5290   30.8090 C   0  0  0  0  0  2  0  0  0  0  0  0
   40.8480   26.1670   31.3900 C   0  0  0  0  0  3  0  0  0  0  0  0
   41.5200   26.0100   32.2620 H   0  0  0  0  0  0  0  0  0  0  0  0
  2  3  1  0  0  0  0
  2  1  1  0  0  0  0
  3 12  1  0  0  0  0
  4  9  1  0  0  0  0
  4  3  2  0  0  0  0
  5  4  1  0  0  0  0
  6  8  1  0  0  0  0
  6  5  2  0  0  0  0
  7  6  1  0  0  0  0
  8  2  2  0  0  0  0
 10  5  1  0  0  0  0
 11 16  1  0  0  0  0
 12 11  2  0  0  0  0
 12 13  1  0  0  0  0
 13 14  2  0  0  0  0
 14 15  1  0  0  0  0
 15 19  1  0  0  0  0
 16 15  2  0  0  0  0
 17 11  1  0  0  0  0
 18 13  1  0  0  0  0
 20  8  1  0  0  0  0
 21 20  1  0  0  0  0
 22 23  1  0  0  0  0
 22 21  1  0  0  0  0
 23 24  1  0  0  0  0
 24 20  1  0  0  0  0
 24 25  1  0  0  0  0
M  END
>  <minimizedAffinity>
-4.447474

$$$$
