
 OpenBabel03272506353D

 16 17  0  0  0  0  0  0  0  0999 V2000
   39.6760   22.8150   37.5600 C   0  0  0  0  0  0  0  0  0  0  0  0
   38.8440   23.2640   38.5930 C   0  0  0  0  0  0  0  0  0  0  0  0
   37.9620   24.3070   38.3520 C   0  0  0  0  0  0  0  0  0  0  0  0
   37.9510   24.8510   37.0980 N   0  0  0  0  0  0  0  0  0  0  0  0
   38.7630   24.4060   36.1040 C   0  0  0  0  0  0  0  0  0  0  0  0
   39.6140   23.3960   36.3430 N   0  0  0  0  0  0  0  0  0  0  0  0
   38.8170   22.8700   39.5870 H   0  0  0  0  0  0  0  0  0  0  0  0
   37.2870   24.7090   39.0980 H   0  0  0  0  0  0  0  0  0  0  0  0
   38.6940   25.0170   34.8430 N   0  0  0  0  0  0  0  0  0  0  0  0
   39.7210   24.8380   33.8210 C   0  0  0  0  0  2  0  0  0  0  0  0
   39.4400   25.8280   32.7300 C   0  0  0  0  0  2  0  0  0  0  0  0
   37.9690   26.0870   32.8810 C   0  0  0  0  0  2  0  0  0  0  0  0
   37.6600   25.8890   34.3270 C   0  0  0  0  0  3  0  0  0  0  0  0
   36.6420   25.4680   34.4320 H   0  0  0  0  0  0  0  0  0  0  0  0
   40.4900   21.7750   37.9610 O   0  0  0  0  0  0  0  0  0  0  0  0
   40.5530   20.9030   37.4350 H   0  0  0  0  0  0  0  0  0  0  0  0
  1 15  1  0  0  0  0
  1  2  1  0  0  0  0
  2  7  1  0  0  0  0
  3  2  2  0  0  0  0
  3  8  1  0  0  0  0
  4  3  1  0  0  0  0
  5  6  1  0  0  0  0
  5  4  2  0  0  0  0
  6  1  2  0  0  0  0
  9  5  1  0  0  0  0
 10  9  1  0  0  0  0
 11 12  1  0  0  0  0
 11 10  1  0  0  0  0
 12 13  1  0  0  0  0
 13 14  1  0  0  0  0
 13  9  1  0  0  0  0
 16 15  1  0  0  0  0
M  END
>  <minimizedAffinity>
-4.28124714

$$$$

 OpenBabel03272506353D

 16 17  0  0  0  0  0  0  0  0999 V2000
   39.1450   23.1180   37.8100 C   0  0  0  0  0  0  0  0  0  0  0  0
   40.3370   22.4360   37.5350 C   0  0  0  0  0  0  0  0  0  0  0  0
   41.0420   22.7390   36.3800 C   0  0  0  0  0  0  0  0  0  0  0  0
   40.5280   23.7030   35.5570 N   0  0  0  0  0  0  0  0  0  0  0  0
   39.3710   24.3560   35.8360 C   0  0  0  0  0  0  0  0  0  0  0  0
   38.6930   24.0600   36.9550 N   0  0  0  0  0  0  0  0  0  0  0  0
   40.7770   21.6770   38.1460 H   0  0  0  0  0  0  0  0  0  0  0  0
   41.9700   22.2570   36.0980 H   0  0  0  0  0  0  0  0  0  0  0  0
   38.9080   25.3330   34.9410 N   0  0  0  0  0  0  0  0  0  0  0  0
   37.5450   25.8560   34.9780 C   0  0  0  0  0  2  0  0  0  0  0  0
   37.3490   26.6720   33.7360 C   0  0  0  0  0  2  0  0  0  0  0  0
   38.7480   27.0730   33.3710 C   0  0  0  0  0  2  0  0  0  0  0  0
   39.6350   25.9830   33.8710 C   0  0  0  0  0  3  0  0  0  0  0  0
   40.6000   26.4140   34.1990 H   0  0  0  0  0  0  0  0  0  0  0  0
   38.5680   22.7010   38.9940 O   0  0  0  0  0  0  0  0  0  0  0  0
   38.2840   23.3610   39.7190 H   0  0  0  0  0  0  0  0  0  0  0  0
  1 15  1  0  0  0  0
  2  1  1  0  0  0  0
  2  7  1  0  0  0  0
  3  2  2  0  0  0  0
  4  5  2  0  0  0  0
  4  3  1  0  0  0  0
  5  6  1  0  0  0  0
  6  1  2  0  0  0  0
  8  3  1  0  0  0  0
  9 10  1  0  0  0  0
  9  5  1  0  0  0  0
 11 10  1  0  0  0  0
 12 11  1  0  0  0  0
 12 13  1  0  0  0  0
 13 14  1  0  0  0  0
 13  9  1  0  0  0  0
 15 16  1  0  0  0  0
M  END
>  <minimizedAffinity>
-4.07242823

$$$$

 OpenBabel03272506353D

 16 17  0  0  0  0  0  0  0  0999 V2000
   38.8120   22.6950   36.6320 C   0  0  0  0  0  0  0  0  0  0  0  0
   39.8850   23.3870   36.0580 C   0  0  0  0  0  0  0  0  0  0  0  0
   39.9470   23.5240   34.6790 C   0  0  0  0  0  0  0  0  0  0  0  0
   38.9400   22.9660   33.9400 N   0  0  0  0  0  0  0  0  0  0  0  0
   37.9050   22.2970   34.5090 C   0  0  0  0  0  0  0  0  0  0  0  0
   37.8500   22.1680   35.8450 N   0  0  0  0  0  0  0  0  0  0  0  0
   40.6930   23.8400   36.5920 H   0  0  0  0  0  0  0  0  0  0  0  0
   40.7430   24.0450   34.1600 H   0  0  0  0  0  0  0  0  0  0  0  0
   36.9100   21.7510   33.6840 N   0  0  0  0  0  0  0  0  0  0  0  0
   35.9460   20.7610   34.1570 C   0  0  0  0  0  2  0  0  0  0  0  0
   35.2250   20.2340   32.9530 C   0  0  0  0  0  2  0  0  0  0  0  0
   35.3670   21.3510   31.9600 C   0  0  0  0  0  2  0  0  0  0  0  0
   36.6480   22.0380   32.2900 C   0  0  0  0  0  3  0  0  0  0  0  0
   36.5510   23.1200   32.0780 H   0  0  0  0  0  0  0  0  0  0  0  0
   38.8980   22.6500   38.0090 O   0  0  0  0  0  0  0  0  0  0  0  0
   38.1210   22.9270   38.6090 H   0  0  0  0  0  0  0  0  0  0  0  0
  1 15  1  0  0  0  0
  2  7  1  0  0  0  0
  2  1  1  0  0  0  0
  3  2  2  0  0  0  0
  4  5  2  0  0  0  0
  4  3  1  0  0  0  0
  5  6  1  0  0  0  0
  6  1  2  0  0  0  0
  8  3  1  0  0  0  0
  9 10  1  0  0  0  0
  9  5  1  0  0  0  0
 11 10  1  0  0  0  0
 12 13  1  0  0  0  0
 12 11  1  0  0  0  0
 13  9  1  0  0  0  0
 14 13  1  0  0  0  0
 15 16  1  0  0  0  0
M  END
>  <minimizedAffinity>
-3.84435487

$$$$

 OpenBabel03272506353D

 16 17  0  0  0  0  0  0  0  0999 V2000
   36.6150   28.2090   30.6320 C   0  0  0  0  0  0  0  0  0  0  0  0
   35.9560   29.4260   30.8500 C   0  0  0  0  0  0  0  0  0  0  0  0
   35.7940   29.8890   32.1470 C   0  0  0  0  0  0  0  0  0  0  0  0
   36.2950   29.1220   33.1620 N   0  0  0  0  0  0  0  0  0  0  0  0
   36.9320   27.9440   32.9380 C   0  0  0  0  0  0  0  0  0  0  0  0
   37.0860   27.5000   31.6800 N   0  0  0  0  0  0  0  0  0  0  0  0
   35.5490   30.0590   30.0910 H   0  0  0  0  0  0  0  0  0  0  0  0
   35.2970   30.8190   32.3960 H   0  0  0  0  0  0  0  0  0  0  0  0
   37.4190   27.2130   34.0320 N   0  0  0  0  0  0  0  0  0  0  0  0
   37.8240   25.8140   33.9300 C   0  0  0  0  0  2  0  0  0  0  0  0
   38.0350   25.3100   35.3260 C   0  0  0  0  0  2  0  0  0  0  0  0
   38.3340   26.5640   36.0950 C   0  0  0  0  0  2  0  0  0  0  0  0
   37.6080   27.6620   35.3950 C   0  0  0  0  0  3  0  0  0  0  0  0
   38.1950   28.5980   35.4680 H   0  0  0  0  0  0  0  0  0  0  0  0
   36.6930   27.8910   29.2910 O   0  0  0  0  0  0  0  0  0  0  0  0
   37.5750   27.6380   28.8460 H   0  0  0  0  0  0  0  0  0  0  0  0
  1  2  2  0  0  0  0
  1  6  1  0  0  0  0
  2  3  1  0  0  0  0
  3  8  1  0  0  0  0
  3  4  2  0  0  0  0
  5  4  1  0  0  0  0
  5  9  1  0  0  0  0
  6  5  2  0  0  0  0
  7  2  1  0  0  0  0
  9 13  1  0  0  0  0
 10  9  1  0  0  0  0
 10 11  1  0  0  0  0
 11 12  1  0  0  0  0
 13 14  1  0  0  0  0
 13 12  1  0  0  0  0
 15  1  1  0  0  0  0
 16 15  1  0  0  0  0
M  END
>  <minimizedAffinity>
-3.75417709

$$$$

 OpenBabel03272506353D

 16 17  0  0  0  0  0  0  0  0999 V2000
   38.5840   23.2210   36.8080 C   0  0  0  0  0  0  0  0  0  0  0  0
   38.9080   22.1110   36.0170 C   0  0  0  0  0  0  0  0  0  0  0  0
   38.8680   22.2260   34.6350 C   0  0  0  0  0  0  0  0  0  0  0  0
   38.5060   23.4350   34.1090 N   0  0  0  0  0  0  0  0  0  0  0  0
   38.1930   24.5030   34.8870 C   0  0  0  0  0  0  0  0  0  0  0  0
   38.2350   24.3870   36.2240 N   0  0  0  0  0  0  0  0  0  0  0  0
   39.1960   21.1490   36.3820 H   0  0  0  0  0  0  0  0  0  0  0  0
   39.1050   21.4150   33.9570 H   0  0  0  0  0  0  0  0  0  0  0  0
   37.8310   25.7110   34.2730 N   0  0  0  0  0  0  0  0  0  0  0  0
   37.1810   26.8010   34.9950 C   0  0  0  0  0  2  0  0  0  0  0  0
   36.7240   27.8000   33.9740 C   0  0  0  0  0  2  0  0  0  0  0  0
   37.6470   27.5460   32.8170 C   0  0  0  0  0  2  0  0  0  0  0  0
   38.0160   26.1030   32.8910 C   0  0  0  0  0  3  0  0  0  0  0  0
   39.0560   25.9700   32.5360 H   0  0  0  0  0  0  0  0  0  0  0  0
   38.6740   22.9430   38.1580 O   0  0  0  0  0  0  0  0  0  0  0  0
   39.2070   23.5330   38.7970 H   0  0  0  0  0  0  0  0  0  0  0  0
  1 15  1  0  0  0  0
  2  7  1  0  0  0  0
  2  1  2  0  0  0  0
  3  2  1  0  0  0  0
  4  3  2  0  0  0  0
  4  5  1  0  0  0  0
  5  6  2  0  0  0  0
  6  1  1  0  0  0  0
  8  3  1  0  0  0  0
  9  5  1  0  0  0  0
  9 10  1  0  0  0  0
 11 10  1  0  0  0  0
 12 13  1  0  0  0  0
 12 11  1  0  0  0  0
 13  9  1  0  0  0  0
 14 13  1  0  0  0  0
 15 16  1  0  0  0  0
M  END
>  <minimizedAffinity>
-3.73288774

$$$$

 OpenBabel03272506353D

 16 17  0  0  0  0  0  0  0  0999 V2000
   36.4230   21.0750   33.5230 C   0  0  0  0  0  0  0  0  0  0  0  0
   37.4060   20.8770   32.5460 C   0  0  0  0  0  0  0  0  0  0  0  0
   38.7160   21.2440   32.8160 C   0  0  0  0  0  0  0  0  0  0  0  0
   38.9830   21.7880   34.0420 N   0  0  0  0  0  0  0  0  0  0  0  0
   38.0200   21.9740   34.9800 C   0  0  0  0  0  0  0  0  0  0  0  0
   36.7540   21.6170   34.7140 N   0  0  0  0  0  0  0  0  0  0  0  0
   37.2460   20.4570   31.5760 H   0  0  0  0  0  0  0  0  0  0  0  0
   39.5320   21.1230   32.1130 H   0  0  0  0  0  0  0  0  0  0  0  0
   38.3730   22.5380   36.2160 N   0  0  0  0  0  0  0  0  0  0  0  0
   37.3860   23.0670   37.1530 C   0  0  0  0  0  2  0  0  0  0  0  0
   38.1380   23.8060   38.2190 C   0  0  0  0  0  2  0  0  0  0  0  0
   39.4930   23.1620   38.1830 C   0  0  0  0  0  2  0  0  0  0  0  0
   39.6960   22.7020   36.7790 C   0  0  0  0  0  3  0  0  0  0  0  0
   40.2880   21.7670   36.7800 H   0  0  0  0  0  0  0  0  0  0  0  0
   35.1760   20.6590   33.0990 O   0  0  0  0  0  0  0  0  0  0  0  0
   34.5980   20.0280   33.6550 H   0  0  0  0  0  0  0  0  0  0  0  0
  1  6  1  0  0  0  0
  2  3  1  0  0  0  0
  2  1  2  0  0  0  0
  3  4  2  0  0  0  0
  4  5  1  0  0  0  0
  5  9  1  0  0  0  0
  6  5  2  0  0  0  0
  7  2  1  0  0  0  0
  8  3  1  0  0  0  0
  9 13  1  0  0  0  0
  9 10  1  0  0  0  0
 10 11  1  0  0  0  0
 12 11  1  0  0  0  0
 13 14  1  0  0  0  0
 13 12  1  0  0  0  0
 15  1  1  0  0  0  0
 15 16  1  0  0  0  0
M  END
>  <minimizedAffinity>
-3.72526121

$$$$

 OpenBabel03272506353D

 16 17  0  0  0  0  0  0  0  0999 V2000
   34.7060   32.0150   36.6840 C   0  0  0  0  0  0  0  0  0  0  0  0
   35.8220   32.2380   35.8680 C   0  0  0  0  0  0  0  0  0  0  0  0
   35.8960   31.6150   34.6310 C   0  0  0  0  0  0  0  0  0  0  0  0
   34.8580   30.8020   34.2680 N   0  0  0  0  0  0  0  0  0  0  0  0
   33.7810   30.5940   35.0680 C   0  0  0  0  0  0  0  0  0  0  0  0
   33.7150   31.2000   36.2650 N   0  0  0  0  0  0  0  0  0  0  0  0
   36.6560   32.8630   36.1090 H   0  0  0  0  0  0  0  0  0  0  0  0
   36.7240   31.7370   33.9440 H   0  0  0  0  0  0  0  0  0  0  0  0
   32.7560   29.7460   34.6250 N   0  0  0  0  0  0  0  0  0  0  0  0
   31.7310   29.2110   35.5170 C   0  0  0  0  0  2  0  0  0  0  0  0
   30.9800   28.1620   34.7530 C   0  0  0  0  0  2  0  0  0  0  0  0
   31.1940   28.5680   33.3240 C   0  0  0  0  0  2  0  0  0  0  0  0
   32.5160   29.2580   33.2830 C   0  0  0  0  0  3  0  0  0  0  0  0
   32.4870   30.0640   32.5250 H   0  0  0  0  0  0  0  0  0  0  0  0
   34.7860   32.7070   37.8770 O   0  0  0  0  0  0  0  0  0  0  0  0
   34.0260   33.3010   38.2100 H   0  0  0  0  0  0  0  0  0  0  0  0
  1 15  1  0  0  0  0
  2  7  1  0  0  0  0
  2  1  2  0  0  0  0
  3  2  1  0  0  0  0
  4  3  2  0  0  0  0
  4  5  1  0  0  0  0
  5  6  2  0  0  0  0
  6  1  1  0  0  0  0
  8  3  1  0  0  0  0
  9  5  1  0  0  0  0
  9 10  1  0  0  0  0
 11 10  1  0  0  0  0
 12 11  1  0  0  0  0
 13 12  1  0  0  0  0
 13  9  1  0  0  0  0
 14 13  1  0  0  0  0
 15 16  1  0  0  0  0
M  END
>  <minimizedAffinity>
-3.64135814

$$$$

 OpenBabel03272506353D

 16 17  0  0  0  0  0  0  0  0999 V2000
   35.9980   21.0380   35.5970 C   0  0  0  0  0  0  0  0  0  0  0  0
   35.5370   20.5420   34.3710 C   0  0  0  0  0  0  0  0  0  0  0  0
   36.2720   20.7870   33.2200 C   0  0  0  0  0  0  0  0  0  0  0  0
   37.4250   21.5110   33.3450 N   0  0  0  0  0  0  0  0  0  0  0  0
   37.8600   21.9870   34.5400 C   0  0  0  0  0  0  0  0  0  0  0  0
   37.1450   21.7470   35.6510 N   0  0  0  0  0  0  0  0  0  0  0  0
   34.6450   19.9720   34.2240 H   0  0  0  0  0  0  0  0  0  0  0  0
   35.9830   20.4370   32.2360 H   0  0  0  0  0  0  0  0  0  0  0  0
   39.0530   22.7230   34.5870 N   0  0  0  0  0  0  0  0  0  0  0  0
   39.4360   23.5350   35.7390 C   0  0  0  0  0  2  0  0  0  0  0  0
   40.6190   24.3590   35.3270 C   0  0  0  0  0  2  0  0  0  0  0  0
   41.2160   23.5570   34.2080 C   0  0  0  0  0  2  0  0  0  0  0  0
   40.0830   22.8220   33.5740 C   0  0  0  0  0  3  0  0  0  0  0  0
   40.4380   21.8370   33.2150 H   0  0  0  0  0  0  0  0  0  0  0  0
   35.1560   20.7080   36.6410 O   0  0  0  0  0  0  0  0  0  0  0  0
   35.5000   20.2690   37.4950 H   0  0  0  0  0  0  0  0  0  0  0  0
  1  6  1  0  0  0  0
  1 15  1  0  0  0  0
  2  1  2  0  0  0  0
  3  4  2  0  0  0  0
  3  2  1  0  0  0  0
  4  5  1  0  0  0  0
  5  9  1  0  0  0  0
  5  6  2  0  0  0  0
  7  2  1  0  0  0  0
  8  3  1  0  0  0  0
  9 10  1  0  0  0  0
 11 10  1  0  0  0  0
 12 11  1  0  0  0  0
 13 12  1  0  0  0  0
 13  9  1  0  0  0  0
 14 13  1  0  0  0  0
 15 16  1  0  0  0  0
M  END
>  <minimizedAffinity>
-3.63626218

$$$$

 OpenBabel03272506353D

 16 17  0  0  0  0  0  0  0  0999 V2000
   36.6170   26.8480   30.9680 C   0  0  0  0  0  0  0  0  0  0  0  0
   37.1660   27.5230   32.0650 C   0  0  0  0  0  0  0  0  0  0  0  0
   37.5300   26.8040   33.1930 C   0  0  0  0  0  0  0  0  0  0  0  0
   37.3300   25.4510   33.1750 N   0  0  0  0  0  0  0  0  0  0  0  0
   36.7960   24.8090   32.1050 C   0  0  0  0  0  0  0  0  0  0  0  0
   36.4460   25.5100   31.0140 N   0  0  0  0  0  0  0  0  0  0  0  0
   37.3410   28.5760   32.1250 H   0  0  0  0  0  0  0  0  0  0  0  0
   37.9610   27.2520   34.0800 H   0  0  0  0  0  0  0  0  0  0  0  0
   36.6210   23.4180   32.1620 N   0  0  0  0  0  0  0  0  0  0  0  0
   35.7810   22.6870   31.2170 C   0  0  0  0  0  2  0  0  0  0  0  0
   35.6360   21.2900   31.7410 C   0  0  0  0  0  2  0  0  0  0  0  0
   36.8580   21.1210   32.5960 C   0  0  0  0  0  2  0  0  0  0  0  0
   37.1990   22.4820   33.1030 C   0  0  0  0  0  3  0  0  0  0  0  0
   38.2980   22.5760   33.1930 H   0  0  0  0  0  0  0  0  0  0  0  0
   36.3100   27.7050   29.9290 O   0  0  0  0  0  0  0  0  0  0  0  0
   36.6290   27.5340   28.9750 H   0  0  0  0  0  0  0  0  0  0  0  0
  1  6  2  0  0  0  0
  1  2  1  0  0  0  0
  2  7  1  0  0  0  0
  2  3  2  0  0  0  0
  3  8  1  0  0  0  0
  4  3  1  0  0  0  0
  5  9  1  0  0  0  0
  5  4  2  0  0  0  0
  6  5  1  0  0  0  0
  9 13  1  0  0  0  0
 10 11  1  0  0  0  0
 10  9  1  0  0  0  0
 11 12  1  0  0  0  0
 12 13  1  0  0  0  0
 13 14  1  0  0  0  0
 15  1  1  0  0  0  0
 16 15  1  0  0  0  0
M  END
>  <minimizedAffinity>
-3.63382816

$$$$
