
 OpenBabel03272510073D

 27 29  0  0  0  0  0  0  0  0999 V2000
   37.8760   24.7210   34.1090 C   0  0  0  0  0  0  0  0  0  0  0  0
   38.0700   25.2120   35.4050 C   0  0  0  0  0  0  0  0  0  0  0  0
   37.8720   26.5750   35.6300 C   0  0  0  0  0  0  0  0  0  0  0  0
   37.5020   27.3660   34.5890 N   0  0  0  0  0  0  0  0  0  0  0  0
   37.3220   26.8600   33.3460 C   0  0  0  0  0  0  0  0  0  0  0  0
   37.5050   25.5450   33.0970 N   0  0  0  0  0  0  0  0  0  0  0  0
   36.9310   27.7550   32.2990 N   0  0  0  0  0  0  0  0  0  0  0  0
   35.6840   28.5220   32.3290 C   0  0  0  0  0  0  0  0  0  0  0  0
   35.8140   29.4800   31.2080 C   0  0  0  0  0  0  0  0  0  0  0  0
   37.2420   29.3840   30.7080 C   0  0  0  0  0  0  0  0  0  0  0  0
   37.7060   28.0180   31.0900 C   0  0  0  0  0  0  0  0  0  0  0  0
   38.0240   23.6660   33.9080 H   0  0  0  0  0  0  0  0  0  0  0  0
   38.0100   27.0020   36.6160 H   0  0  0  0  0  0  0  0  0  0  0  0
   34.7980   27.8590   32.1320 H   0  0  0  0  0  0  0  0  0  0  0  0
   35.5730   28.9530   33.3340 H   0  0  0  0  0  0  0  0  0  0  0  0
   35.0780   29.3570   30.3870 H   0  0  0  0  0  0  0  0  0  0  0  0
   35.6790   30.5130   31.6020 H   0  0  0  0  0  0  0  0  0  0  0  0
   37.2010   29.4250   29.5830 H   0  0  0  0  0  0  0  0  0  0  0  0
   37.8870   30.2110   31.0350 H   0  0  0  0  0  0  0  0  0  0  0  0
   38.7700   28.1200   31.4120 H   0  0  0  0  0  0  0  0  0  0  0  0
   37.6040   27.2420   30.3280 H   0  0  0  0  0  0  0  0  0  0  0  0
   38.4540   24.3460   36.4440 N   0  0  0  0  0  0  0  0  0  0  0  0
   39.3240   23.2050   36.2880 C   0  0  0  0  0  2  0  0  0  0  0  0
   39.8240   22.9200   37.6810 C   0  0  0  0  0  2  0  0  0  0  0  0
   38.6420   23.3020   38.5410 C   0  0  0  0  0  2  0  0  0  0  0  0
   38.0370   24.4660   37.8240 C   0  0  0  0  0  3  0  0  0  0  0  0
   38.4900   25.4170   38.2050 H   0  0  0  0  0  0  0  0  0  0  0  0
  1  2  1  0  0  0  0
  2  3  2  0  0  0  0
  2 22  1  0  0  0  0
  3 13  1  0  0  0  0
  4  3  1  0  0  0  0
  5  4  2  0  0  0  0
  6  5  1  0  0  0  0
  6  1  2  0  0  0  0
  7  8  1  0  0  0  0
  7  5  1  0  0  0  0
  8 15  1  0  0  0  0
  9 17  1  0  0  0  0
  9  8  1  0  0  0  0
 10 19  1  0  0  0  0
 10 11  1  0  0  0  0
 10  9  1  0  0  0  0
 11 20  1  0  0  0  0
 11  7  1  0  0  0  0
 12  1  1  0  0  0  0
 14  8  1  0  0  0  0
 16  9  1  0  0  0  0
 18 10  1  0  0  0  0
 21 11  1  0  0  0  0
 22 26  1  0  0  0  0
 23 22  1  0  0  0  0
 23 24  1  0  0  0  0
 24 25  1  0  0  0  0
 26 27  1  0  0  0  0
 26 25  1  0  0  0  0
M  END
>  <minimizedAffinity>
-4.64824438

$$$$

 OpenBabel03272510073D

 27 29  0  0  0  0  0  0  0  0999 V2000
   38.1860   26.7010   35.9070 C   0  0  0  0  0  0  0  0  0  0  0  0
   38.1530   25.3280   35.6380 C   0  0  0  0  0  0  0  0  0  0  0  0
   37.7530   24.9150   34.3660 C   0  0  0  0  0  0  0  0  0  0  0  0
   37.4150   25.8550   33.4450 N   0  0  0  0  0  0  0  0  0  0  0  0
   37.4580   27.1770   33.7370 C   0  0  0  0  0  0  0  0  0  0  0  0
   37.8410   27.6080   34.9590 N   0  0  0  0  0  0  0  0  0  0  0  0
   37.0870   28.1100   32.7160 N   0  0  0  0  0  0  0  0  0  0  0  0
   37.7940   28.2160   31.4380 C   0  0  0  0  0  0  0  0  0  0  0  0
   36.9340   29.0960   30.6140 C   0  0  0  0  0  0  0  0  0  0  0  0
   35.6360   29.2840   31.3740 C   0  0  0  0  0  0  0  0  0  0  0  0
   35.9790   29.0560   32.8090 C   0  0  0  0  0  0  0  0  0  0  0  0
   38.4920   27.0480   36.8870 H   0  0  0  0  0  0  0  0  0  0  0  0
   37.7120   23.8630   34.1100 H   0  0  0  0  0  0  0  0  0  0  0  0
   38.7930   28.7140   31.5700 H   0  0  0  0  0  0  0  0  0  0  0  0
   37.9650   27.2000   31.0570 H   0  0  0  0  0  0  0  0  0  0  0  0
   37.3860   30.0650   30.3200 H   0  0  0  0  0  0  0  0  0  0  0  0
   36.6800   28.5650   29.6690 H   0  0  0  0  0  0  0  0  0  0  0  0
   35.3420   30.3650   31.2650 H   0  0  0  0  0  0  0  0  0  0  0  0
   34.8000   28.6840   30.9880 H   0  0  0  0  0  0  0  0  0  0  0  0
   35.1230   28.4980   33.2590 H   0  0  0  0  0  0  0  0  0  0  0  0
   36.2130   29.9460   33.3970 H   0  0  0  0  0  0  0  0  0  0  0  0
   38.5140   24.4000   36.6300 N   0  0  0  0  0  0  0  0  0  0  0  0
   39.3880   23.2700   36.4240 C   0  0  0  0  0  2  0  0  0  0  0  0
   39.8570   22.9000   37.8070 C   0  0  0  0  0  2  0  0  0  0  0  0
   38.6560   23.2290   38.6630 C   0  0  0  0  0  2  0  0  0  0  0  0
   38.0660   24.4350   38.0050 C   0  0  0  0  0  3  0  0  0  0  0  0
   38.5090   25.3610   38.4530 H   0  0  0  0  0  0  0  0  0  0  0  0
  1 12  1  0  0  0  0
  2  1  1  0  0  0  0
  2 22  1  0  0  0  0
  3  2  2  0  0  0  0
  4  5  2  0  0  0  0
  4  3  1  0  0  0  0
  5  6  1  0  0  0  0
  6  1  2  0  0  0  0
  7 11  1  0  0  0  0
  7  5  1  0  0  0  0
  8 14  1  0  0  0  0
  8  7  1  0  0  0  0
  9 10  1  0  0  0  0
  9  8  1  0  0  0  0
 10 11  1  0  0  0  0
 11 20  1  0  0  0  0
 11 21  1  0  0  0  0
 13  3  1  0  0  0  0
 15  8  1  0  0  0  0
 16  9  1  0  0  0  0
 17  9  1  0  0  0  0
 18 10  1  0  0  0  0
 19 10  1  0  0  0  0
 22 26  1  0  0  0  0
 23 22  1  0  0  0  0
 23 24  1  0  0  0  0
 24 25  1  0  0  0  0
 26 27  1  0  0  0  0
 26 25  1  0  0  0  0
M  END
>  <minimizedAffinity>
-4.61021328

$$$$

 OpenBabel03272510073D

 27 29  0  0  0  0  0  0  0  0999 V2000
   37.2420   25.4820   31.7860 C   0  0  0  0  0  0  0  0  0  0  0  0
   36.1340   26.1780   31.2880 C   0  0  0  0  0  0  0  0  0  0  0  0
   35.0090   25.4430   30.9110 C   0  0  0  0  0  0  0  0  0  0  0  0
   35.0330   24.0900   31.0400 N   0  0  0  0  0  0  0  0  0  0  0  0
   36.1210   23.4470   31.5250 C   0  0  0  0  0  0  0  0  0  0  0  0
   37.2250   24.1300   31.9000 N   0  0  0  0  0  0  0  0  0  0  0  0
   36.0740   22.0200   31.6330 N   0  0  0  0  0  0  0  0  0  0  0  0
   35.1000   21.3150   32.4680 C   0  0  0  0  0  0  0  0  0  0  0  0
   35.2450   19.8930   32.0820 C   0  0  0  0  0  0  0  0  0  0  0  0
   36.1460   19.8550   30.8630 C   0  0  0  0  0  0  0  0  0  0  0  0
   36.9690   21.0980   30.9390 C   0  0  0  0  0  0  0  0  0  0  0  0
   38.1280   26.0290   32.0860 H   0  0  0  0  0  0  0  0  0  0  0  0
   34.1270   25.9360   30.5210 H   0  0  0  0  0  0  0  0  0  0  0  0
   35.3530   21.4170   33.5580 H   0  0  0  0  0  0  0  0  0  0  0  0
   34.1140   21.7710   32.3010 H   0  0  0  0  0  0  0  0  0  0  0  0
   35.6020   19.2150   32.8830 H   0  0  0  0  0  0  0  0  0  0  0  0
   34.2510   19.5060   31.7600 H   0  0  0  0  0  0  0  0  0  0  0  0
   36.8420   18.9800   30.9950 H   0  0  0  0  0  0  0  0  0  0  0  0
   35.6110   19.7000   29.9160 H   0  0  0  0  0  0  0  0  0  0  0  0
   37.0700   21.4800   29.8950 H   0  0  0  0  0  0  0  0  0  0  0  0
   37.9480   21.0010   31.4130 H   0  0  0  0  0  0  0  0  0  0  0  0
   36.1650   27.5790   31.1770 N   0  0  0  0  0  0  0  0  0  0  0  0
   35.5190   28.4940   32.0880 C   0  0  0  0  0  2  0  0  0  0  0  0
   36.2260   29.8060   31.8670 C   0  0  0  0  0  2  0  0  0  0  0  0
   36.5560   29.7600   30.3930 C   0  0  0  0  0  2  0  0  0  0  0  0
   36.8460   28.3160   30.1350 C   0  0  0  0  0  3  0  0  0  0  0  0
   37.9400   28.1210   30.2800 H   0  0  0  0  0  0  0  0  0  0  0  0
  1  6  1  0  0  0  0
  1 12  1  0  0  0  0
  2  1  2  0  0  0  0
  3  4  2  0  0  0  0
  3  2  1  0  0  0  0
  4  5  1  0  0  0  0
  5  7  1  0  0  0  0
  5  6  2  0  0  0  0
  7  8  1  0  0  0  0
  8 14  1  0  0  0  0
  9  8  1  0  0  0  0
  9 16  1  0  0  0  0
 10 11  1  0  0  0  0
 10 18  1  0  0  0  0
 10  9  1  0  0  0  0
 11 21  1  0  0  0  0
 11  7  1  0  0  0  0
 13  3  1  0  0  0  0
 15  8  1  0  0  0  0
 17  9  1  0  0  0  0
 19 10  1  0  0  0  0
 20 11  1  0  0  0  0
 22  2  1  0  0  0  0
 22 23  1  0  0  0  0
 24 23  1  0  0  0  0
 25 24  1  0  0  0  0
 26 27  1  0  0  0  0
 26 25  1  0  0  0  0
 26 22  1  0  0  0  0
M  END
>  <minimizedAffinity>
-4.56564188

$$$$

 OpenBabel03272510073D

 27 29  0  0  0  0  0  0  0  0999 V2000
   36.8910   22.7530   32.3220 C   0  0  0  0  0  0  0  0  0  0  0  0
   37.0100   21.6400   33.1630 C   0  0  0  0  0  0  0  0  0  0  0  0
   37.6010   21.8200   34.4150 C   0  0  0  0  0  0  0  0  0  0  0  0
   38.0330   23.0590   34.7660 N   0  0  0  0  0  0  0  0  0  0  0  0
   37.9030   24.1170   33.9300 C   0  0  0  0  0  0  0  0  0  0  0  0
   37.3350   23.9750   32.7120 N   0  0  0  0  0  0  0  0  0  0  0  0
   38.3820   25.3920   34.3690 N   0  0  0  0  0  0  0  0  0  0  0  0
   37.8600   26.0750   35.5540 C   0  0  0  0  0  0  0  0  0  0  0  0
   38.7970   27.2010   35.7720 C   0  0  0  0  0  0  0  0  0  0  0  0
   39.9670   26.9920   34.8300 C   0  0  0  0  0  0  0  0  0  0  0  0
   39.4320   26.1640   33.7100 C   0  0  0  0  0  0  0  0  0  0  0  0
   36.4360   22.6400   31.3450 H   0  0  0  0  0  0  0  0  0  0  0  0
   37.7150   20.9890   35.1000 H   0  0  0  0  0  0  0  0  0  0  0  0
   36.8360   26.4950   35.3600 H   0  0  0  0  0  0  0  0  0  0  0  0
   37.7810   25.3380   36.3650 H   0  0  0  0  0  0  0  0  0  0  0  0
   38.3580   28.2140   35.6690 H   0  0  0  0  0  0  0  0  0  0  0  0
   39.2010   27.1360   36.8080 H   0  0  0  0  0  0  0  0  0  0  0  0
   40.2350   28.0000   34.4080 H   0  0  0  0  0  0  0  0  0  0  0  0
   40.8690   26.5980   35.3190 H   0  0  0  0  0  0  0  0  0  0  0  0
   40.2340   25.4380   33.4350 H   0  0  0  0  0  0  0  0  0  0  0  0
   39.0850   26.7100   32.8290 H   0  0  0  0  0  0  0  0  0  0  0  0
   36.5450   20.3810   32.7460 N   0  0  0  0  0  0  0  0  0  0  0  0
   37.1390   19.5870   31.6970 C   0  0  0  0  0  2  0  0  0  0  0  0
   36.6400   18.1890   31.9560 C   0  0  0  0  0  2  0  0  0  0  0  0
   35.2570   18.4290   32.5150 C   0  0  0  0  0  2  0  0  0  0  0  0
   35.4020   19.6900   33.3030 C   0  0  0  0  0  3  0  0  0  0  0  0
   35.6730   19.4420   34.3610 H   0  0  0  0  0  0  0  0  0  0  0  0
  1  6  2  0  0  0  0
  1  2  1  0  0  0  0
  2  3  2  0  0  0  0
  3  4  1  0  0  0  0
  3 13  1  0  0  0  0
  5  7  1  0  0  0  0
  5  4  2  0  0  0  0
  6  5  1  0  0  0  0
  7  8  1  0  0  0  0
  8  9  1  0  0  0  0
  8 15  1  0  0  0  0
  9 17  1  0  0  0  0
 10 19  1  0  0  0  0
 10  9  1  0  0  0  0
 11  7  1  0  0  0  0
 11 10  1  0  0  0  0
 12  1  1  0  0  0  0
 14  8  1  0  0  0  0
 16  9  1  0  0  0  0
 18 10  1  0  0  0  0
 20 11  1  0  0  0  0
 21 11  1  0  0  0  0
 22  2  1  0  0  0  0
 22 26  1  0  0  0  0
 23 24  1  0  0  0  0
 23 22  1  0  0  0  0
 24 25  1  0  0  0  0
 25 26  1  0  0  0  0
 26 27  1  0  0  0  0
M  END
>  <minimizedAffinity>
-4.4834013

$$$$

 OpenBabel03272510073D

 27 29  0  0  0  0  0  0  0  0999 V2000
   35.1390   25.4810   30.8840 C   0  0  0  0  0  0  0  0  0  0  0  0
   36.0780   26.2740   31.5540 C   0  0  0  0  0  0  0  0  0  0  0  0
   37.0320   25.6370   32.3500 C   0  0  0  0  0  0  0  0  0  0  0  0
   37.0110   24.2810   32.4420 N   0  0  0  0  0  0  0  0  0  0  0  0
   36.0890   23.5410   31.7810 C   0  0  0  0  0  0  0  0  0  0  0  0
   35.1540   24.1290   31.0030 N   0  0  0  0  0  0  0  0  0  0  0  0
   36.1290   22.1170   31.9270 N   0  0  0  0  0  0  0  0  0  0  0  0
   37.2830   21.3080   31.5280 C   0  0  0  0  0  0  0  0  0  0  0  0
   36.9990   19.9650   32.0850 C   0  0  0  0  0  0  0  0  0  0  0  0
   35.7890   20.1070   32.9880 C   0  0  0  0  0  0  0  0  0  0  0  0
   35.0520   21.3020   32.4800 C   0  0  0  0  0  0  0  0  0  0  0  0
   34.3890   25.9510   30.2600 H   0  0  0  0  0  0  0  0  0  0  0  0
   37.7790   26.2070   32.8870 H   0  0  0  0  0  0  0  0  0  0  0  0
   37.3500   21.2230   30.4100 H   0  0  0  0  0  0  0  0  0  0  0  0
   38.1920   21.8080   31.8900 H   0  0  0  0  0  0  0  0  0  0  0  0
   36.8660   19.1570   31.3380 H   0  0  0  0  0  0  0  0  0  0  0  0
   37.8510   19.6590   32.7340 H   0  0  0  0  0  0  0  0  0  0  0  0
   35.1370   19.2070   32.8100 H   0  0  0  0  0  0  0  0  0  0  0  0
   36.0300   20.1220   34.0600 H   0  0  0  0  0  0  0  0  0  0  0  0
   34.6700   21.8480   33.3750 H   0  0  0  0  0  0  0  0  0  0  0  0
   34.2450   21.1060   31.7710 H   0  0  0  0  0  0  0  0  0  0  0  0
   36.0520   27.6730   31.4210 N   0  0  0  0  0  0  0  0  0  0  0  0
   35.3920   28.5760   32.3330 C   0  0  0  0  0  2  0  0  0  0  0  0
   36.0420   29.9110   32.0760 C   0  0  0  0  0  2  0  0  0  0  0  0
   36.3390   29.8540   30.5950 C   0  0  0  0  0  2  0  0  0  0  0  0
   36.6790   28.4190   30.3520 C   0  0  0  0  0  3  0  0  0  0  0  0
   37.7830   28.2690   30.4740 H   0  0  0  0  0  0  0  0  0  0  0  0
  1  6  2  0  0  0  0
  1  2  1  0  0  0  0
  2  3  2  0  0  0  0
  3  4  1  0  0  0  0
  3 13  1  0  0  0  0
  5  7  1  0  0  0  0
  5  4  2  0  0  0  0
  6  5  1  0  0  0  0
  7 11  1  0  0  0  0
  8 15  1  0  0  0  0
  8  7  1  0  0  0  0
  8  9  1  0  0  0  0
  9 17  1  0  0  0  0
  9 10  1  0  0  0  0
 10 19  1  0  0  0  0
 11 10  1  0  0  0  0
 11 20  1  0  0  0  0
 12  1  1  0  0  0  0
 14  8  1  0  0  0  0
 16  9  1  0  0  0  0
 18 10  1  0  0  0  0
 21 11  1  0  0  0  0
 22  2  1  0  0  0  0
 22 23  1  0  0  0  0
 24 23  1  0  0  0  0
 25 24  1  0  0  0  0
 26 27  1  0  0  0  0
 26 25  1  0  0  0  0
 26 22  1  0  0  0  0
M  END
>  <minimizedAffinity>
-4.46916437

$$$$

 OpenBabel03272510073D

 27 29  0  0  0  0  0  0  0  0999 V2000
   35.0310   29.1650   32.8490 C   0  0  0  0  0  0  0  0  0  0  0  0
   35.5840   29.2910   34.1290 C   0  0  0  0  0  0  0  0  0  0  0  0
   36.5130   28.3360   34.5430 C   0  0  0  0  0  0  0  0  0  0  0  0
   36.8430   27.3270   33.6940 N   0  0  0  0  0  0  0  0  0  0  0  0
   36.2900   27.2330   32.4610 C   0  0  0  0  0  0  0  0  0  0  0  0
   35.3880   28.1420   32.0310 N   0  0  0  0  0  0  0  0  0  0  0  0
   36.6860   26.1420   31.6220 N   0  0  0  0  0  0  0  0  0  0  0  0
   38.0680   25.9360   31.1820 C   0  0  0  0  0  0  0  0  0  0  0  0
   38.0610   24.5880   30.5700 C   0  0  0  0  0  0  0  0  0  0  0  0
   36.7150   23.9650   30.8860 C   0  0  0  0  0  0  0  0  0  0  0  0
   35.7880   25.1140   31.1060 C   0  0  0  0  0  0  0  0  0  0  0  0
   34.3070   29.8930   32.5030 H   0  0  0  0  0  0  0  0  0  0  0  0
   36.9680   28.3920   35.5240 H   0  0  0  0  0  0  0  0  0  0  0  0
   38.3570   26.6840   30.3950 H   0  0  0  0  0  0  0  0  0  0  0  0
   38.7270   26.0790   32.0500 H   0  0  0  0  0  0  0  0  0  0  0  0
   38.2880   24.5550   29.4850 H   0  0  0  0  0  0  0  0  0  0  0  0
   38.8320   23.9620   31.0740 H   0  0  0  0  0  0  0  0  0  0  0  0
   36.3730   23.4290   29.9570 H   0  0  0  0  0  0  0  0  0  0  0  0
   36.7440   23.2210   31.6940 H   0  0  0  0  0  0  0  0  0  0  0  0
   35.1160   24.8280   31.9500 H   0  0  0  0  0  0  0  0  0  0  0  0
   35.2050   25.4380   30.2400 H   0  0  0  0  0  0  0  0  0  0  0  0
   35.2050   30.3560   34.9650 N   0  0  0  0  0  0  0  0  0  0  0  0
   33.8460   30.7950   35.1770 C   0  0  0  0  0  2  0  0  0  0  0  0
   33.9000   31.5720   36.4680 C   0  0  0  0  0  2  0  0  0  0  0  0
   35.2720   32.2020   36.4180 C   0  0  0  0  0  2  0  0  0  0  0  0
   36.1160   31.1720   35.7370 C   0  0  0  0  0  3  0  0  0  0  0  0
   36.5690   30.4920   36.5040 H   0  0  0  0  0  0  0  0  0  0  0  0
  1  2  1  0  0  0  0
  2  3  2  0  0  0  0
  2 22  1  0  0  0  0
  3 13  1  0  0  0  0
  4  3  1  0  0  0  0
  5  4  2  0  0  0  0
  6  5  1  0  0  0  0
  6  1  2  0  0  0  0
  7  5  1  0  0  0  0
  8  7  1  0  0  0  0
  8 15  1  0  0  0  0
  9 10  1  0  0  0  0
  9 17  1  0  0  0  0
  9  8  1  0  0  0  0
 10 11  1  0  0  0  0
 10 19  1  0  0  0  0
 11  7  1  0  0  0  0
 11 20  1  0  0  0  0
 12  1  1  0  0  0  0
 14  8  1  0  0  0  0
 16  9  1  0  0  0  0
 18 10  1  0  0  0  0
 21 11  1  0  0  0  0
 22 23  1  0  0  0  0
 22 26  1  0  0  0  0
 23 24  1  0  0  0  0
 25 24  1  0  0  0  0
 26 25  1  0  0  0  0
 26 27  1  0  0  0  0
M  END
>  <minimizedAffinity>
-4.46236372

$$$$

 OpenBabel03272510073D

 27 29  0  0  0  0  0  0  0  0999 V2000
   37.2760   23.9940   32.5720 C   0  0  0  0  0  0  0  0  0  0  0  0
   36.2320   23.3060   31.9420 C   0  0  0  0  0  0  0  0  0  0  0  0
   35.3200   24.0420   31.1850 C   0  0  0  0  0  0  0  0  0  0  0  0
   35.4790   25.3880   31.0890 N   0  0  0  0  0  0  0  0  0  0  0  0
   36.5000   26.0250   31.7110 C   0  0  0  0  0  0  0  0  0  0  0  0
   37.4000   25.3400   32.4500 N   0  0  0  0  0  0  0  0  0  0  0  0
   36.6030   27.4460   31.5650 N   0  0  0  0  0  0  0  0  0  0  0  0
   36.7850   28.1020   30.2690 C   0  0  0  0  0  0  0  0  0  0  0  0
   36.5830   29.5410   30.5540 C   0  0  0  0  0  0  0  0  0  0  0  0
   36.0610   29.6410   31.9740 C   0  0  0  0  0  0  0  0  0  0  0  0
   36.5420   28.4070   32.6620 C   0  0  0  0  0  0  0  0  0  0  0  0
   37.9980   23.4460   33.1660 H   0  0  0  0  0  0  0  0  0  0  0  0
   34.4960   23.5550   30.6790 H   0  0  0  0  0  0  0  0  0  0  0  0
   37.8320   27.9580   29.8860 H   0  0  0  0  0  0  0  0  0  0  0  0
   36.0920   27.6410   29.5520 H   0  0  0  0  0  0  0  0  0  0  0  0
   37.4670   30.1900   30.3910 H   0  0  0  0  0  0  0  0  0  0  0  0
   35.7790   29.9280   29.8870 H   0  0  0  0  0  0  0  0  0  0  0  0
   36.5780   30.5180   32.4540 H   0  0  0  0  0  0  0  0  0  0  0  0
   34.9800   29.8290   32.0420 H   0  0  0  0  0  0  0  0  0  0  0  0
   35.7150   28.0700   33.3310 H   0  0  0  0  0  0  0  0  0  0  0  0
   37.4780   28.4960   33.2170 H   0  0  0  0  0  0  0  0  0  0  0  0
   36.1170   21.9120   32.0760 N   0  0  0  0  0  0  0  0  0  0  0  0
   36.2680   21.1870   33.3150 C   0  0  0  0  0  2  0  0  0  0  0  0
   35.5850   19.8670   33.0640 C   0  0  0  0  0  2  0  0  0  0  0  0
   35.8620   19.6250   31.5990 C   0  0  0  0  0  2  0  0  0  0  0  0
   35.8310   20.9930   30.9970 C   0  0  0  0  0  3  0  0  0  0  0  0
   34.7910   21.2280   30.6550 H   0  0  0  0  0  0  0  0  0  0  0  0
  1 12  1  0  0  0  0
  2 22  1  0  0  0  0
  2  1  2  0  0  0  0
  3  2  1  0  0  0  0
  4  3  2  0  0  0  0
  4  5  1  0  0  0  0
  5  6  2  0  0  0  0
  6  1  1  0  0  0  0
  7  5  1  0  0  0  0
  7 11  1  0  0  0  0
  8  9  1  0  0  0  0
  8  7  1  0  0  0  0
  9 10  1  0  0  0  0
 10 19  1  0  0  0  0
 10 18  1  0  0  0  0
 10 11  1  0  0  0  0
 11 21  1  0  0  0  0
 11 20  1  0  0  0  0
 13  3  1  0  0  0  0
 14  8  1  0  0  0  0
 15  8  1  0  0  0  0
 16  9  1  0  0  0  0
 17  9  1  0  0  0  0
 22 23  1  0  0  0  0
 24 23  1  0  0  0  0
 25 24  1  0  0  0  0
 26 25  1  0  0  0  0
 26 22  1  0  0  0  0
 27 26  1  0  0  0  0
M  END
>  <minimizedAffinity>
-4.4520278

$$$$

 OpenBabel03272510073D

 27 29  0  0  0  0  0  0  0  0999 V2000
   37.2220   24.0290   32.6980 C   0  0  0  0  0  0  0  0  0  0  0  0
   38.0100   24.0460   33.8550 C   0  0  0  0  0  0  0  0  0  0  0  0
   38.2690   22.8330   34.4950 C   0  0  0  0  0  0  0  0  0  0  0  0
   37.7500   21.6900   33.9720 N   0  0  0  0  0  0  0  0  0  0  0  0
   36.9910   21.7070   32.8510 C   0  0  0  0  0  0  0  0  0  0  0  0
   36.7240   22.8660   32.2090 N   0  0  0  0  0  0  0  0  0  0  0  0
   36.4780   20.4640   32.3590 N   0  0  0  0  0  0  0  0  0  0  0  0
   37.3390   19.3560   31.9400 C   0  0  0  0  0  0  0  0  0  0  0  0
   36.4100   18.2170   31.7610 C   0  0  0  0  0  0  0  0  0  0  0  0
   35.0650   18.6520   32.3080 C   0  0  0  0  0  0  0  0  0  0  0  0
   35.0610   20.1420   32.2150 C   0  0  0  0  0  0  0  0  0  0  0  0
   37.0070   24.9580   32.1830 H   0  0  0  0  0  0  0  0  0  0  0  0
   38.8730   22.7940   35.3920 H   0  0  0  0  0  0  0  0  0  0  0  0
   37.8280   19.5770   30.9530 H   0  0  0  0  0  0  0  0  0  0  0  0
   38.1280   19.2330   32.6940 H   0  0  0  0  0  0  0  0  0  0  0  0
   36.3300   17.8250   30.7260 H   0  0  0  0  0  0  0  0  0  0  0  0
   36.7570   17.3690   32.3940 H   0  0  0  0  0  0  0  0  0  0  0  0
   34.2800   18.2670   31.5990 H   0  0  0  0  0  0  0  0  0  0  0  0
   34.8310   18.2400   33.3000 H   0  0  0  0  0  0  0  0  0  0  0  0
   34.5560   20.5190   33.1360 H   0  0  0  0  0  0  0  0  0  0  0  0
   34.6050   20.5690   31.3200 H   0  0  0  0  0  0  0  0  0  0  0  0
   38.5210   25.2580   34.3500 N   0  0  0  0  0  0  0  0  0  0  0  0
   37.7190   26.3470   34.8540 C   0  0  0  0  0  2  0  0  0  0  0  0
   38.6710   27.1580   35.6960 C   0  0  0  0  0  2  0  0  0  0  0  0
   39.9820   26.9950   34.9610 C   0  0  0  0  0  2  0  0  0  0  0  0
   39.9250   25.5990   34.4290 C   0  0  0  0  0  3  0  0  0  0  0  0
   40.3750   24.8950   35.1750 H   0  0  0  0  0  0  0  0  0  0  0  0
  1  2  1  0  0  0  0
  2 22  1  0  0  0  0
  2  3  2  0  0  0  0
  3 13  1  0  0  0  0
  4  3  1  0  0  0  0
  5  4  2  0  0  0  0
  6  1  2  0  0  0  0
  6  5  1  0  0  0  0
  7  5  1  0  0  0  0
  8  7  1  0  0  0  0
  8 15  1  0  0  0  0
  9  8  1  0  0  0  0
  9 10  1  0  0  0  0
  9 17  1  0  0  0  0
 10 19  1  0  0  0  0
 11 10  1  0  0  0  0
 11  7  1  0  0  0  0
 11 20  1  0  0  0  0
 12  1  1  0  0  0  0
 14  8  1  0  0  0  0
 16  9  1  0  0  0  0
 18 10  1  0  0  0  0
 21 11  1  0  0  0  0
 22 26  1  0  0  0  0
 22 23  1  0  0  0  0
 23 24  1  0  0  0  0
 25 24  1  0  0  0  0
 26 25  1  0  0  0  0
 26 27  1  0  0  0  0
M  END
>  <minimizedAffinity>
-4.34587717

$$$$

 OpenBabel03272510073D

 27 29  0  0  0  0  0  0  0  0999 V2000
   37.4650   25.4780   33.2390 C   0  0  0  0  0  0  0  0  0  0  0  0
   38.1210   26.7100   33.1380 C   0  0  0  0  0  0  0  0  0  0  0  0
   39.1590   26.9810   34.0310 C   0  0  0  0  0  0  0  0  0  0  0  0
   39.4890   26.0430   34.9590 N   0  0  0  0  0  0  0  0  0  0  0  0
   38.8350   24.8600   35.0310 C   0  0  0  0  0  0  0  0  0  0  0  0
   37.8270   24.5690   34.1800 N   0  0  0  0  0  0  0  0  0  0  0  0
   39.2380   23.9220   36.0350 N   0  0  0  0  0  0  0  0  0  0  0  0
   40.5850   23.3510   36.0960 C   0  0  0  0  0  0  0  0  0  0  0  0
   40.6310   22.6570   37.4040 C   0  0  0  0  0  0  0  0  0  0  0  0
   39.3740   23.0490   38.1560 C   0  0  0  0  0  0  0  0  0  0  0  0
   38.3820   23.4210   37.1050 C   0  0  0  0  0  0  0  0  0  0  0  0
   36.6560   25.2430   32.5580 H   0  0  0  0  0  0  0  0  0  0  0  0
   39.6970   27.9200   33.9920 H   0  0  0  0  0  0  0  0  0  0  0  0
   40.7400   22.5900   35.2830 H   0  0  0  0  0  0  0  0  0  0  0  0
   41.3080   24.1650   35.9470 H   0  0  0  0  0  0  0  0  0  0  0  0
   40.7590   21.5570   37.3560 H   0  0  0  0  0  0  0  0  0  0  0  0
   41.4920   23.0510   37.9890 H   0  0  0  0  0  0  0  0  0  0  0  0
   38.9930   22.1200   38.6670 H   0  0  0  0  0  0  0  0  0  0  0  0
   39.5380   23.8020   38.9390 H   0  0  0  0  0  0  0  0  0  0  0  0
   37.8160   24.3010   37.4960 H   0  0  0  0  0  0  0  0  0  0  0  0
   37.6980   22.6320   36.7850 H   0  0  0  0  0  0  0  0  0  0  0  0
   37.7370   27.6420   32.1580 N   0  0  0  0  0  0  0  0  0  0  0  0
   38.3840   27.8090   30.8790 C   0  0  0  0  0  2  0  0  0  0  0  0
   37.3600   28.5160   30.0280 C   0  0  0  0  0  2  0  0  0  0  0  0
   36.6450   29.3920   31.0310 C   0  0  0  0  0  2  0  0  0  0  0  0
   36.6360   28.5730   32.2820 C   0  0  0  0  0  3  0  0  0  0  0  0
   35.7050   27.9520   32.3160 H   0  0  0  0  0  0  0  0  0  0  0  0
  1  6  1  0  0  0  0
  2  1  2  0  0  0  0
  2  3  1  0  0  0  0
  3  4  2  0  0  0  0
  4  5  1  0  0  0  0
  5  7  1  0  0  0  0
  6  5  2  0  0  0  0
  7  8  1  0  0  0  0
  7 11  1  0  0  0  0
  8  9  1  0  0  0  0
  9 17  1  0  0  0  0
  9 10  1  0  0  0  0
 10 18  1  0  0  0  0
 10 19  1  0  0  0  0
 11 20  1  0  0  0  0
 11 10  1  0  0  0  0
 12  1  1  0  0  0  0
 13  3  1  0  0  0  0
 14  8  1  0  0  0  0
 15  8  1  0  0  0  0
 16  9  1  0  0  0  0
 21 11  1  0  0  0  0
 22 26  1  0  0  0  0
 22  2  1  0  0  0  0
 23 22  1  0  0  0  0
 24 23  1  0  0  0  0
 24 25  1  0  0  0  0
 25 26  1  0  0  0  0
 26 27  1  0  0  0  0
M  END
>  <minimizedAffinity>
-4.3289423

$$$$
