
 OpenBabel03272510323D

 25 27  0  0  0  0  0  0  0  0999 V2000
   36.5170   30.5450   46.3670 C   0  0  0  0  0  0  0  0  0  0  0  0
   35.8060   30.1710   45.2530 C   0  0  0  0  0  0  0  0  0  0  0  0
   34.5150   29.6700   45.3590 C   0  0  0  0  0  0  0  0  0  0  0  0
   33.9670   29.5610   46.6320 C   0  0  0  0  0  0  0  0  0  0  0  0
   34.6600   29.9280   47.7640 C   0  0  0  0  0  0  0  0  0  0  0  0
   35.9420   30.4210   47.6200 C   0  0  0  0  0  0  0  0  0  0  0  0
   36.2010   30.2430   44.2460 H   0  0  0  0  0  0  0  0  0  0  0  0
   33.9670   29.3820   44.4910 H   0  0  0  0  0  0  0  0  0  0  0  0
   32.9540   29.1700   46.7470 H   0  0  0  0  0  0  0  0  0  0  0  0
   34.2480   29.8480   48.7660 H   0  0  0  0  0  0  0  0  0  0  0  0
   39.2240   32.9380   46.0280 C   0  0  0  0  0  0  0  0  0  0  0  0
   40.3560   32.1710   45.7580 C   0  0  0  0  0  0  0  0  0  0  0  0
   40.1590   30.7810   45.6960 C   0  0  0  0  0  0  0  0  0  0  0  0
   38.9210   30.2530   45.8920 N   0  0  0  0  0  0  0  0  0  0  0  0
   37.8580   31.0580   46.1510 C   0  0  0  0  0  0  0  0  0  0  0  0
   38.0110   32.4120   46.2200 N   0  0  0  0  0  0  0  0  0  0  0  0
   39.2890   34.0210   46.0930 H   0  0  0  0  0  0  0  0  0  0  0  0
   41.3040   32.6360   45.6110 H   0  0  0  0  0  0  0  0  0  0  0  0
   41.0180   30.1520   45.4880 H   0  0  0  0  0  0  0  0  0  0  0  0
   36.7290   30.8250   48.7360 N   0  0  0  0  0  0  0  0  0  0  0  0
   36.4010   31.8620   49.7190 C   0  0  0  0  0  2  0  0  0  0  0  0
   37.6720   32.7150   49.6190 C   0  0  0  0  0  2  0  0  0  0  0  0
   38.7180   31.6160   49.7890 C   0  0  0  0  0  2  0  0  0  0  0  0
   38.0050   30.4100   49.2600 C   0  0  0  0  0  3  0  0  0  0  0  0
   37.7930   29.7350   50.1120 H   0  0  0  0  0  0  0  0  0  0  0  0
  1  6  1  0  0  0  0
  2  3  1  0  0  0  0
  2  1  2  0  0  0  0
  3  4  2  0  0  0  0
  4  9  1  0  0  0  0
  4  5  1  0  0  0  0
  5 10  1  0  0  0  0
  6  5  2  0  0  0  0
  6 20  1  0  0  0  0
  7  2  1  0  0  0  0
  8  3  1  0  0  0  0
 11 17  1  0  0  0  0
 11 16  1  0  0  0  0
 12 11  2  0  0  0  0
 13 12  1  0  0  0  0
 13 14  2  0  0  0  0
 14 15  1  0  0  0  0
 15 16  2  0  0  0  0
 15  1  1  0  0  0  0
 18 12  1  0  0  0  0
 19 13  1  0  0  0  0
 20 24  1  0  0  0  0
 20 21  1  0  0  0  0
 22 21  1  0  0  0  0
 22 23  1  0  0  0  0
 24 23  1  0  0  0  0
 24 25  1  0  0  0  0
M  END
>  <minimizedAffinity>
-4.79145145

>  <minimizedRMSD>
2.79453993

$$$$
