
 OpenBabel03272510323D

 25 27  0  0  0  0  0  0  0  0999 V2000
   36.0060   30.1840   48.4330 C   0  0  0  0  0  0  0  0  0  0  0  0
   35.0360   30.1630   47.4600 C   0  0  0  0  0  0  0  0  0  0  0  0
   33.9550   29.2960   47.5430 C   0  0  0  0  0  0  0  0  0  0  0  0
   33.8870   28.4510   48.6450 C   0  0  0  0  0  0  0  0  0  0  0  0
   34.8460   28.4530   49.6330 C   0  0  0  0  0  0  0  0  0  0  0  0
   35.9080   29.3280   49.5170 C   0  0  0  0  0  0  0  0  0  0  0  0
   35.0570   30.8070   46.5890 H   0  0  0  0  0  0  0  0  0  0  0  0
   33.2050   29.2840   46.7860 H   0  0  0  0  0  0  0  0  0  0  0  0
   33.0480   27.7580   48.7380 H   0  0  0  0  0  0  0  0  0  0  0  0
   34.8100   27.8000   50.4990 H   0  0  0  0  0  0  0  0  0  0  0  0
   38.1170   33.0820   49.0020 C   0  0  0  0  0  0  0  0  0  0  0  0
   39.1150   33.0000   48.0320 C   0  0  0  0  0  0  0  0  0  0  0  0
   39.0410   31.9000   47.1610 C   0  0  0  0  0  0  0  0  0  0  0  0
   38.0390   30.9900   47.2890 N   0  0  0  0  0  0  0  0  0  0  0  0
   37.0960   31.1270   48.2560 C   0  0  0  0  0  0  0  0  0  0  0  0
   37.1360   32.1820   49.1210 N   0  0  0  0  0  0  0  0  0  0  0  0
   38.1010   33.9010   49.7150 H   0  0  0  0  0  0  0  0  0  0  0  0
   39.8780   33.7420   47.9760 H   0  0  0  0  0  0  0  0  0  0  0  0
   39.8010   31.8040   46.3930 H   0  0  0  0  0  0  0  0  0  0  0  0
   36.9450   29.3980   50.4910 N   0  0  0  0  0  0  0  0  0  0  0  0
   38.2290   28.6900   50.4670 C   0  0  0  0  0  2  0  0  0  0  0  0
   38.1700   28.0170   51.8430 C   0  0  0  0  0  2  0  0  0  0  0  0
   37.8340   29.2360   52.6980 C   0  0  0  0  0  2  0  0  0  0  0  0
   37.1020   30.1140   51.7310 C   0  0  0  0  0  3  0  0  0  0  0  0
   37.7430   30.9910   51.5100 H   0  0  0  0  0  0  0  0  0  0  0  0
  1  6  1  0  0  0  0
  2  3  1  0  0  0  0
  2  1  2  0  0  0  0
  3  4  2  0  0  0  0
  4  9  1  0  0  0  0
  4  5  1  0  0  0  0
  5 10  1  0  0  0  0
  6  5  2  0  0  0  0
  6 20  1  0  0  0  0
  7  2  1  0  0  0  0
  8  3  1  0  0  0  0
 11 16  1  0  0  0  0
 11 17  1  0  0  0  0
 12 11  2  0  0  0  0
 13 14  2  0  0  0  0
 13 12  1  0  0  0  0
 14 15  1  0  0  0  0
 15  1  1  0  0  0  0
 15 16  2  0  0  0  0
 18 12  1  0  0  0  0
 19 13  1  0  0  0  0
 20 24  1  0  0  0  0
 21 20  1  0  0  0  0
 21 22  1  0  0  0  0
 22 23  1  0  0  0  0
 24 23  1  0  0  0  0
 25 24  1  0  0  0  0
M  END
>  <minimizedAffinity>
-3.63138795

>  <minimizedRMSD>
0.460343629

$$$$
