
 OpenBabel03272501513D

 27 29  0  0  0  0  0  0  0  0999 V2000
   37.8940   23.0730   34.5170 C   0  0  0  0  0  0  0  0  0  0  0  0
   37.4230   21.8580   34.0590 C   0  0  0  0  0  0  0  0  0  0  0  0
   37.0070   21.7230   32.7340 C   0  0  0  0  0  0  0  0  0  0  0  0
   37.0650   22.8060   31.8740 C   0  0  0  0  0  0  0  0  0  0  0  0
   37.5390   24.0410   32.3250 C   0  0  0  0  0  0  0  0  0  0  0  0
   37.9400   24.1220   33.6540 C   0  0  0  0  0  0  0  0  0  0  0  0
   37.3730   20.9940   34.7270 H   0  0  0  0  0  0  0  0  0  0  0  0
   36.6400   20.7810   32.3620 H   0  0  0  0  0  0  0  0  0  0  0  0
   36.7240   22.6380   30.8450 H   0  0  0  0  0  0  0  0  0  0  0  0
   37.5430   24.8210   31.5800 H   0  0  0  0  0  0  0  0  0  0  0  0
   38.1390   23.9220   38.1810 C   0  0  0  0  0  0  0  0  0  0  0  0
   37.6430   23.9480   36.8680 C   0  0  0  0  0  0  0  0  0  0  0  0
   38.3050   23.1490   35.8980 C   0  0  0  0  0  0  0  0  0  0  0  0
   39.3660   22.4170   36.3030 N   0  0  0  0  0  0  0  0  0  0  0  0
   39.8070   22.4240   37.5840 C   0  0  0  0  0  0  0  0  0  0  0  0
   39.2070   23.1650   38.5200 N   0  0  0  0  0  0  0  0  0  0  0  0
   40.9180   21.6010   37.8430 N   0  0  0  0  0  0  0  0  0  0  0  0
   37.6020   24.5530   38.9060 H   0  0  0  0  0  0  0  0  0  0  0  0
   36.8000   24.5300   36.5480 H   0  0  0  0  0  0  0  0  0  0  0  0
   40.8330   20.5650   37.6300 H   0  0  0  0  0  0  0  0  0  0  0  0
   41.7020   22.1900   38.2310 H   0  0  0  0  0  0  0  0  0  0  0  0
   38.3880   25.4410   33.9170 N   0  0  0  0  0  0  0  0  0  0  0  0
   39.5640   26.2450   34.1770 C   0  0  0  0  0  2  0  0  0  0  0  0
   39.2220   27.1660   35.3330 C   0  0  0  0  0  2  0  0  0  0  0  0
   37.7030   27.2850   35.2640 C   0  0  0  0  0  2  0  0  0  0  0  0
   37.4090   26.5400   33.9770 C   0  0  0  0  0  3  0  0  0  0  0  0
   37.6750   27.2100   33.1330 H   0  0  0  0  0  0  0  0  0  0  0  0
  1 13  1  0  0  0  0
  2  1  1  0  0  0  0
  2  7  1  0  0  0  0
  3  2  2  0  0  0  0
  4  5  2  0  0  0  0
  4  3  1  0  0  0  0
  5  6  1  0  0  0  0
  6 22  1  0  0  0  0
  6  1  2  0  0  0  0
  8  3  1  0  0  0  0
  9  4  1  0  0  0  0
 10  5  1  0  0  0  0
 11 16  1  0  0  0  0
 11 18  1  0  0  0  0
 12 11  2  0  0  0  0
 13 14  2  0  0  0  0
 13 12  1  0  0  0  0
 14 15  1  0  0  0  0
 15 17  1  0  0  0  0
 15 16  2  0  0  0  0
 17 21  1  0  0  0  0
 19 12  1  0  0  0  0
 20 17  1  0  0  0  0
 22 26  1  0  0  0  0
 22 23  1  0  0  0  0
 23 24  1  0  0  0  0
 25 24  1  0  0  0  0
 26 25  1  0  0  0  0
 27 26  1  0  0  0  0
M  END
>  <minimizedAffinity>
-5.40212917

$$$$

 OpenBabel03272501513D

 27 29  0  0  0  0  0  0  0  0999 V2000
   38.4300   25.4620   35.1990 C   0  0  0  0  0  0  0  0  0  0  0  0
   38.2810   26.7000   35.7920 C   0  0  0  0  0  0  0  0  0  0  0  0
   37.5750   27.7090   35.1380 C   0  0  0  0  0  0  0  0  0  0  0  0
   37.0200   27.4730   33.8920 C   0  0  0  0  0  0  0  0  0  0  0  0
   37.1630   26.2240   33.2800 C   0  0  0  0  0  0  0  0  0  0  0  0
   37.8770   25.2540   33.9750 C   0  0  0  0  0  0  0  0  0  0  0  0
   38.7140   26.9000   36.7760 H   0  0  0  0  0  0  0  0  0  0  0  0
   37.4490   28.6790   35.5890 H   0  0  0  0  0  0  0  0  0  0  0  0
   36.4760   28.3050   33.4280 H   0  0  0  0  0  0  0  0  0  0  0  0
   36.6960   26.1410   32.3120 H   0  0  0  0  0  0  0  0  0  0  0  0
   41.0680   23.0110   36.3150 C   0  0  0  0  0  0  0  0  0  0  0  0
   40.4440   23.9770   35.5100 C   0  0  0  0  0  0  0  0  0  0  0  0
   39.1750   24.4610   35.9250 C   0  0  0  0  0  0  0  0  0  0  0  0
   38.6530   23.9610   37.0670 N   0  0  0  0  0  0  0  0  0  0  0  0
   39.2940   23.0290   37.8110 C   0  0  0  0  0  0  0  0  0  0  0  0
   40.4890   22.5530   37.4480 N   0  0  0  0  0  0  0  0  0  0  0  0
   38.6190   22.6190   38.9750 N   0  0  0  0  0  0  0  0  0  0  0  0
   42.0500   22.6580   35.9630 H   0  0  0  0  0  0  0  0  0  0  0  0
   40.8600   24.3730   34.6030 H   0  0  0  0  0  0  0  0  0  0  0  0
   38.3650   23.3580   39.6920 H   0  0  0  0  0  0  0  0  0  0  0  0
   38.4680   21.5750   38.9370 H   0  0  0  0  0  0  0  0  0  0  0  0
   37.9090   24.0670   33.2000 N   0  0  0  0  0  0  0  0  0  0  0  0
   37.3970   22.7160   33.1120 C   0  0  0  0  0  2  0  0  0  0  0  0
   38.5720   21.8200   32.7690 C   0  0  0  0  0  2  0  0  0  0  0  0
   39.5510   22.7590   32.0710 C   0  0  0  0  0  2  0  0  0  0  0  0
   38.7230   24.0250   31.9730 C   0  0  0  0  0  3  0  0  0  0  0  0
   37.9940   23.8870   31.1480 H   0  0  0  0  0  0  0  0  0  0  0  0
  1  2  1  0  0  0  0
  1 13  1  0  0  0  0
  2  7  1  0  0  0  0
  3  8  1  0  0  0  0
  3  2  2  0  0  0  0
  4  3  1  0  0  0  0
  5  4  2  0  0  0  0
  5  6  1  0  0  0  0
  6  1  2  0  0  0  0
  9  4  1  0  0  0  0
 10  5  1  0  0  0  0
 11 16  1  0  0  0  0
 12 13  1  0  0  0  0
 12 11  2  0  0  0  0
 13 14  2  0  0  0  0
 14 15  1  0  0  0  0
 15 17  1  0  0  0  0
 16 15  2  0  0  0  0
 17 20  1  0  0  0  0
 18 11  1  0  0  0  0
 19 12  1  0  0  0  0
 21 17  1  0  0  0  0
 22  6  1  0  0  0  0
 23 22  1  0  0  0  0
 24 23  1  0  0  0  0
 25 24  1  0  0  0  0
 26 25  1  0  0  0  0
 26 22  1  0  0  0  0
 27 26  1  0  0  0  0
M  END
>  <minimizedAffinity>
-5.09661627

$$$$

 OpenBabel03272501513D

 27 29  0  0  0  0  0  0  0  0999 V2000
   37.6490   23.5850   33.2340 C   0  0  0  0  0  0  0  0  0  0  0  0
   36.9730   22.6530   32.4720 C   0  0  0  0  0  0  0  0  0  0  0  0
   36.0630   23.0710   31.5010 C   0  0  0  0  0  0  0  0  0  0  0  0
   35.8350   24.4210   31.2980 C   0  0  0  0  0  0  0  0  0  0  0  0
   36.5130   25.3750   32.0630 C   0  0  0  0  0  0  0  0  0  0  0  0
   37.4090   24.9050   33.0170 C   0  0  0  0  0  0  0  0  0  0  0  0
   37.1430   21.5840   32.6220 H   0  0  0  0  0  0  0  0  0  0  0  0
   35.5280   22.3560   30.8980 H   0  0  0  0  0  0  0  0  0  0  0  0
   35.1080   24.6880   30.5210 H   0  0  0  0  0  0  0  0  0  0  0  0
   36.2650   26.3980   31.8280 H   0  0  0  0  0  0  0  0  0  0  0  0
   40.6610   22.1250   34.9690 C   0  0  0  0  0  0  0  0  0  0  0  0
   39.8550   22.5640   33.9070 C   0  0  0  0  0  0  0  0  0  0  0  0
   38.5740   23.0890   34.2250 C   0  0  0  0  0  0  0  0  0  0  0  0
   38.2170   23.1320   35.5280 N   0  0  0  0  0  0  0  0  0  0  0  0
   39.0320   22.6970   36.5190 C   0  0  0  0  0  0  0  0  0  0  0  0
   40.2420   22.1980   36.2520 N   0  0  0  0  0  0  0  0  0  0  0  0
   38.5150   22.8200   37.8210 N   0  0  0  0  0  0  0  0  0  0  0  0
   41.6460   21.7240   34.6860 H   0  0  0  0  0  0  0  0  0  0  0  0
   40.1390   22.5280   32.8720 H   0  0  0  0  0  0  0  0  0  0  0  0
   38.2300   23.7850   38.1570 H   0  0  0  0  0  0  0  0  0  0  0  0
   38.4940   21.8680   38.2750 H   0  0  0  0  0  0  0  0  0  0  0  0
   37.9940   26.0130   33.6790 N   0  0  0  0  0  0  0  0  0  0  0  0
   39.1530   26.8790   33.7050 C   0  0  0  0  0  2  0  0  0  0  0  0
   39.5630   27.0270   35.1580 C   0  0  0  0  0  2  0  0  0  0  0  0
   38.2730   26.7590   35.9270 C   0  0  0  0  0  2  0  0  0  0  0  0
   37.2730   26.6550   34.7920 C   0  0  0  0  0  3  0  0  0  0  0  0
   37.0560   27.6840   34.4400 H   0  0  0  0  0  0  0  0  0  0  0  0
  1 13  1  0  0  0  0
  2  7  1  0  0  0  0
  2  1  2  0  0  0  0
  3  2  1  0  0  0  0
  4  3  2  0  0  0  0
  4  5  1  0  0  0  0
  5  6  2  0  0  0  0
  6  1  1  0  0  0  0
  6 22  1  0  0  0  0
  8  3  1  0  0  0  0
  9  4  1  0  0  0  0
 10  5  1  0  0  0  0
 11 16  1  0  0  0  0
 12 13  1  0  0  0  0
 12 11  2  0  0  0  0
 13 14  2  0  0  0  0
 14 15  1  0  0  0  0
 15 17  1  0  0  0  0
 16 15  2  0  0  0  0
 17 20  1  0  0  0  0
 17 21  1  0  0  0  0
 18 11  1  0  0  0  0
 19 12  1  0  0  0  0
 22 23  1  0  0  0  0
 22 26  1  0  0  0  0
 23 24  1  0  0  0  0
 24 25  1  0  0  0  0
 26 25  1  0  0  0  0
 27 26  1  0  0  0  0
M  END
>  <minimizedAffinity>
-5.04587173

$$$$

 OpenBabel03272501513D

 27 29  0  0  0  0  0  0  0  0999 V2000
   33.5410   30.7470   35.6420 C   0  0  0  0  0  0  0  0  0  0  0  0
   33.6510   31.5230   36.7790 C   0  0  0  0  0  0  0  0  0  0  0  0
   34.7760   32.3230   36.9740 C   0  0  0  0  0  0  0  0  0  0  0  0
   35.7870   32.3420   36.0290 C   0  0  0  0  0  0  0  0  0  0  0  0
   35.6890   31.5610   34.8730 C   0  0  0  0  0  0  0  0  0  0  0  0
   34.5470   30.7820   34.7280 C   0  0  0  0  0  0  0  0  0  0  0  0
   32.8590   31.5180   37.5330 H   0  0  0  0  0  0  0  0  0  0  0  0
   34.8750   32.9350   37.8550 H   0  0  0  0  0  0  0  0  0  0  0  0
   36.6470   32.9900   36.2380 H   0  0  0  0  0  0  0  0  0  0  0  0
   36.5280   31.6450   34.2000 H   0  0  0  0  0  0  0  0  0  0  0  0
   30.1520   29.4300   34.6450 C   0  0  0  0  0  0  0  0  0  0  0  0
   31.2390   30.3150   34.7050 C   0  0  0  0  0  0  0  0  0  0  0  0
   32.3540   29.9380   35.5000 C   0  0  0  0  0  0  0  0  0  0  0  0
   32.2940   28.7520   36.1460 N   0  0  0  0  0  0  0  0  0  0  0  0
   31.2210   27.9300   36.0550 C   0  0  0  0  0  0  0  0  0  0  0  0
   30.1570   28.2560   35.3160 N   0  0  0  0  0  0  0  0  0  0  0  0
   31.3210   26.7290   36.7800 N   0  0  0  0  0  0  0  0  0  0  0  0
   29.3060   29.7550   34.0200 H   0  0  0  0  0  0  0  0  0  0  0  0
   31.2850   31.2580   34.1930 H   0  0  0  0  0  0  0  0  0  0  0  0
   32.1320   26.0800   36.5650 H   0  0  0  0  0  0  0  0  0  0  0  0
   30.5190   26.6700   37.4630 H   0  0  0  0  0  0  0  0  0  0  0  0
   34.6300   30.0720   33.5040 N   0  0  0  0  0  0  0  0  0  0  0  0
   35.0930   28.8430   32.8950 C   0  0  0  0  0  2  0  0  0  0  0  0
   35.7930   29.2250   31.6050 C   0  0  0  0  0  2  0  0  0  0  0  0
   35.1590   30.5610   31.2310 C   0  0  0  0  0  2  0  0  0  0  0  0
   34.0700   30.6720   32.2800 C   0  0  0  0  0  3  0  0  0  0  0  0
   33.2440   29.9950   31.9790 H   0  0  0  0  0  0  0  0  0  0  0  0
  1  2  1  0  0  0  0
  2  3  2  0  0  0  0
  2  7  1  0  0  0  0
  3  8  1  0  0  0  0
  4  9  1  0  0  0  0
  4  3  1  0  0  0  0
  5  4  2  0  0  0  0
  6  5  1  0  0  0  0
  6  1  2  0  0  0  0
 10  5  1  0  0  0  0
 11 12  2  0  0  0  0
 11 16  1  0  0  0  0
 12 13  1  0  0  0  0
 13  1  1  0  0  0  0
 13 14  2  0  0  0  0
 15 14  1  0  0  0  0
 15 17  1  0  0  0  0
 16 15  2  0  0  0  0
 17 21  1  0  0  0  0
 18 11  1  0  0  0  0
 19 12  1  0  0  0  0
 20 17  1  0  0  0  0
 22  6  1  0  0  0  0
 23 22  1  0  0  0  0
 24 23  1  0  0  0  0
 25 24  1  0  0  0  0
 25 26  1  0  0  0  0
 26 22  1  0  0  0  0
 27 26  1  0  0  0  0
M  END
>  <minimizedAffinity>
-5.03283405

$$$$

 OpenBabel03272501513D

 27 29  0  0  0  0  0  0  0  0999 V2000
   36.2260   26.4130   31.7220 C   0  0  0  0  0  0  0  0  0  0  0  0
   35.4460   25.5240   31.0080 C   0  0  0  0  0  0  0  0  0  0  0  0
   35.6120   24.1510   31.1840 C   0  0  0  0  0  0  0  0  0  0  0  0
   36.5580   23.6730   32.0740 C   0  0  0  0  0  0  0  0  0  0  0  0
   37.3540   24.5620   32.8020 C   0  0  0  0  0  0  0  0  0  0  0  0
   37.1490   25.9200   32.5890 C   0  0  0  0  0  0  0  0  0  0  0  0
   34.6940   25.8870   30.3020 H   0  0  0  0  0  0  0  0  0  0  0  0
   35.0100   23.4450   30.6360 H   0  0  0  0  0  0  0  0  0  0  0  0
   36.6420   22.5830   32.1690 H   0  0  0  0  0  0  0  0  0  0  0  0
   38.0610   24.0910   33.4680 H   0  0  0  0  0  0  0  0  0  0  0  0
   36.3820   29.9280   30.3700 C   0  0  0  0  0  0  0  0  0  0  0  0
   36.6960   28.5660   30.4970 C   0  0  0  0  0  0  0  0  0  0  0  0
   36.0090   27.8210   31.4920 C   0  0  0  0  0  0  0  0  0  0  0  0
   35.0980   28.4720   32.2500 N   0  0  0  0  0  0  0  0  0  0  0  0
   34.8290   29.7900   32.0880 C   0  0  0  0  0  0  0  0  0  0  0  0
   35.4580   30.5180   31.1620 N   0  0  0  0  0  0  0  0  0  0  0  0
   33.8500   30.3140   32.9510 N   0  0  0  0  0  0  0  0  0  0  0  0
   36.9340   30.4750   29.5900 H   0  0  0  0  0  0  0  0  0  0  0  0
   37.4200   28.0500   29.8950 H   0  0  0  0  0  0  0  0  0  0  0  0
   32.8850   29.8730   32.9380 H   0  0  0  0  0  0  0  0  0  0  0  0
   34.2660   31.1090   33.5040 H   0  0  0  0  0  0  0  0  0  0  0  0
   38.0400   26.6520   33.4140 N   0  0  0  0  0  0  0  0  0  0  0  0
   39.4100   27.1030   33.5410 C   0  0  0  0  0  2  0  0  0  0  0  0
   39.8280   26.8440   34.9760 C   0  0  0  0  0  2  0  0  0  0  0  0
   38.5100   26.8440   35.7430 C   0  0  0  0  0  2  0  0  0  0  0  0
   37.5390   27.2640   34.6570 C   0  0  0  0  0  3  0  0  0  0  0  0
   37.6550   28.3580   34.5070 H   0  0  0  0  0  0  0  0  0  0  0  0
  1  6  1  0  0  0  0
  2  3  1  0  0  0  0
  2  1  2  0  0  0  0
  3  4  2  0  0  0  0
  4  9  1  0  0  0  0
  4  5  1  0  0  0  0
  5 10  1  0  0  0  0
  6  5  2  0  0  0  0
  6 22  1  0  0  0  0
  7  2  1  0  0  0  0
  8  3  1  0  0  0  0
 11 12  2  0  0  0  0
 11 16  1  0  0  0  0
 12 13  1  0  0  0  0
 13  1  1  0  0  0  0
 13 14  2  0  0  0  0
 15 14  1  0  0  0  0
 15 17  1  0  0  0  0
 16 15  2  0  0  0  0
 17 21  1  0  0  0  0
 18 11  1  0  0  0  0
 19 12  1  0  0  0  0
 20 17  1  0  0  0  0
 22 23  1  0  0  0  0
 22 26  1  0  0  0  0
 23 24  1  0  0  0  0
 24 25  1  0  0  0  0
 26 25  1  0  0  0  0
 27 26  1  0  0  0  0
M  END
>  <minimizedAffinity>
-4.92793989

$$$$

 OpenBabel03272501513D

 27 29  0  0  0  0  0  0  0  0999 V2000
   37.8080   26.6940   33.2650 C   0  0  0  0  0  0  0  0  0  0  0  0
   38.5600   27.1900   34.3120 C   0  0  0  0  0  0  0  0  0  0  0  0
   39.2110   26.3150   35.1810 C   0  0  0  0  0  0  0  0  0  0  0  0
   39.1060   24.9470   34.9980 C   0  0  0  0  0  0  0  0  0  0  0  0
   38.3470   24.4320   33.9430 C   0  0  0  0  0  0  0  0  0  0  0  0
   37.7190   25.3470   33.1060 C   0  0  0  0  0  0  0  0  0  0  0  0
   38.6530   28.2680   34.4680 H   0  0  0  0  0  0  0  0  0  0  0  0
   39.8030   26.6870   36.0010 H   0  0  0  0  0  0  0  0  0  0  0  0
   39.6400   24.3100   35.7140 H   0  0  0  0  0  0  0  0  0  0  0  0
   38.3270   23.3550   33.8870 H   0  0  0  0  0  0  0  0  0  0  0  0
   35.7360   29.5490   31.9370 C   0  0  0  0  0  0  0  0  0  0  0  0
   36.2980   28.6770   32.8820 C   0  0  0  0  0  0  0  0  0  0  0  0
   37.1550   27.6510   32.4040 C   0  0  0  0  0  0  0  0  0  0  0  0
   37.3740   27.5820   31.0720 N   0  0  0  0  0  0  0  0  0  0  0  0
   36.8090   28.4500   30.1980 C   0  0  0  0  0  0  0  0  0  0  0  0
   35.9970   29.4250   30.6160 N   0  0  0  0  0  0  0  0  0  0  0  0
   37.1450   28.2480   28.8470 N   0  0  0  0  0  0  0  0  0  0  0  0
   35.0760   30.3310   32.3430 H   0  0  0  0  0  0  0  0  0  0  0  0
   36.1230   28.7310   33.9400 H   0  0  0  0  0  0  0  0  0  0  0  0
   38.1700   28.2780   28.5770 H   0  0  0  0  0  0  0  0  0  0  0  0
   36.2620   28.0900   28.2920 H   0  0  0  0  0  0  0  0  0  0  0  0
   37.0080   24.6390   32.1050 N   0  0  0  0  0  0  0  0  0  0  0  0
   35.6830   24.3220   31.6160 C   0  0  0  0  0  2  0  0  0  0  0  0
   35.6660   22.8360   31.3160 C   0  0  0  0  0  2  0  0  0  0  0  0
   37.1310   22.5020   31.0530 C   0  0  0  0  0  2  0  0  0  0  0  0
   37.7550   23.8840   31.0840 C   0  0  0  0  0  3  0  0  0  0  0  0
   37.5140   24.3830   30.1230 H   0  0  0  0  0  0  0  0  0  0  0  0
  1  2  1  0  0  0  0
  2  7  1  0  0  0  0
  2  3  2  0  0  0  0
  3  8  1  0  0  0  0
  4  3  1  0  0  0  0
  4  9  1  0  0  0  0
  5  4  2  0  0  0  0
  6  1  2  0  0  0  0
  6  5  1  0  0  0  0
 10  5  1  0  0  0  0
 11 18  1  0  0  0  0
 11 12  1  0  0  0  0
 12 19  1  0  0  0  0
 13 12  2  0  0  0  0
 13  1  1  0  0  0  0
 14 13  1  0  0  0  0
 15 16  1  0  0  0  0
 15 14  2  0  0  0  0
 16 11  2  0  0  0  0
 17 15  1  0  0  0  0
 20 17  1  0  0  0  0
 21 17  1  0  0  0  0
 22  6  1  0  0  0  0
 23 22  1  0  0  0  0
 24 23  1  0  0  0  0
 25 26  1  0  0  0  0
 25 24  1  0  0  0  0
 26 22  1  0  0  0  0
 27 26  1  0  0  0  0
M  END
>  <minimizedAffinity>
-4.9062047

$$$$

 OpenBabel03272501513D

 27 29  0  0  0  0  0  0  0  0999 V2000
   37.4210   25.0310   32.4190 C   0  0  0  0  0  0  0  0  0  0  0  0
   37.3770   23.6690   32.6440 C   0  0  0  0  0  0  0  0  0  0  0  0
   36.3870   22.8920   32.0420 C   0  0  0  0  0  0  0  0  0  0  0  0
   35.4460   23.4830   31.2170 C   0  0  0  0  0  0  0  0  0  0  0  0
   35.4790   24.8610   30.9820 C   0  0  0  0  0  0  0  0  0  0  0  0
   36.4850   25.5890   31.6070 C   0  0  0  0  0  0  0  0  0  0  0  0
   38.1150   23.1890   33.2930 H   0  0  0  0  0  0  0  0  0  0  0  0
   36.3420   21.8280   32.2060 H   0  0  0  0  0  0  0  0  0  0  0  0
   34.6930   22.8210   30.7720 H   0  0  0  0  0  0  0  0  0  0  0  0
   34.7030   25.2240   30.3260 H   0  0  0  0  0  0  0  0  0  0  0  0
   40.6730   26.7470   33.2480 C   0  0  0  0  0  0  0  0  0  0  0  0
   39.7520   25.9890   32.5100 C   0  0  0  0  0  0  0  0  0  0  0  0
   38.4660   25.7800   33.0750 C   0  0  0  0  0  0  0  0  0  0  0  0
   38.2140   26.3250   34.2860 N   0  0  0  0  0  0  0  0  0  0  0  0
   39.1380   27.0510   34.9610 C   0  0  0  0  0  0  0  0  0  0  0  0
   40.3560   27.2650   34.4560 N   0  0  0  0  0  0  0  0  0  0  0  0
   38.7150   27.5560   36.2040 N   0  0  0  0  0  0  0  0  0  0  0  0
   41.6590   26.8880   32.7800 H   0  0  0  0  0  0  0  0  0  0  0  0
   39.9530   25.5560   31.5480 H   0  0  0  0  0  0  0  0  0  0  0  0
   37.8610   28.1850   36.2240 H   0  0  0  0  0  0  0  0  0  0  0  0
   39.3610   27.2000   36.9590 H   0  0  0  0  0  0  0  0  0  0  0  0
   36.3540   26.9530   31.2450 N   0  0  0  0  0  0  0  0  0  0  0  0
   36.7700   27.9510   30.2830 C   0  0  0  0  0  2  0  0  0  0  0  0
   37.1380   29.1960   31.0680 C   0  0  0  0  0  2  0  0  0  0  0  0
   36.3330   29.0630   32.3560 C   0  0  0  0  0  2  0  0  0  0  0  0
   35.4950   27.8370   32.0520 C   0  0  0  0  0  3  0  0  0  0  0  0
   34.6790   28.1490   31.3670 H   0  0  0  0  0  0  0  0  0  0  0  0
  1  2  1  0  0  0  0
  1 13  1  0  0  0  0
  2  7  1  0  0  0  0
  3  8  1  0  0  0  0
  3  2  2  0  0  0  0
  4  3  1  0  0  0  0
  5  4  2  0  0  0  0
  5  6  1  0  0  0  0
  6  1  2  0  0  0  0
  9  4  1  0  0  0  0
 10  5  1  0  0  0  0
 11 16  1  0  0  0  0
 12 13  1  0  0  0  0
 12 11  2  0  0  0  0
 13 14  2  0  0  0  0
 14 15  1  0  0  0  0
 15 17  1  0  0  0  0
 16 15  2  0  0  0  0
 17 20  1  0  0  0  0
 17 21  1  0  0  0  0
 18 11  1  0  0  0  0
 19 12  1  0  0  0  0
 22  6  1  0  0  0  0
 22 26  1  0  0  0  0
 23 24  1  0  0  0  0
 23 22  1  0  0  0  0
 24 25  1  0  0  0  0
 26 25  1  0  0  0  0
 27 26  1  0  0  0  0
M  END
>  <minimizedAffinity>
-4.86614466

$$$$

 OpenBabel03272501513D

 27 29  0  0  0  0  0  0  0  0999 V2000
   39.7600   25.3230   34.6750 C   0  0  0  0  0  0  0  0  0  0  0  0
   40.5290   26.4510   34.8860 C   0  0  0  0  0  0  0  0  0  0  0  0
   41.0080   27.1830   33.7990 C   0  0  0  0  0  0  0  0  0  0  0  0
   40.7140   26.7830   32.5070 C   0  0  0  0  0  0  0  0  0  0  0  0
   39.9370   25.6430   32.2810 C   0  0  0  0  0  0  0  0  0  0  0  0
   39.4860   24.9490   33.3980 C   0  0  0  0  0  0  0  0  0  0  0  0
   40.7680   26.7790   35.9010 H   0  0  0  0  0  0  0  0  0  0  0  0
   41.6070   28.0660   33.9470 H   0  0  0  0  0  0  0  0  0  0  0  0
   41.1180   27.3990   31.6950 H   0  0  0  0  0  0  0  0  0  0  0  0
   39.7660   25.4140   31.2410 H   0  0  0  0  0  0  0  0  0  0  0  0
   37.7550   24.1330   37.6370 C   0  0  0  0  0  0  0  0  0  0  0  0
   38.0930   24.9170   36.5240 C   0  0  0  0  0  0  0  0  0  0  0  0
   39.2990   24.6060   35.8400 C   0  0  0  0  0  0  0  0  0  0  0  0
   40.0400   23.5760   36.3060 N   0  0  0  0  0  0  0  0  0  0  0  0
   39.6700   22.8470   37.3860 C   0  0  0  0  0  0  0  0  0  0  0  0
   38.5420   23.1140   38.0510 N   0  0  0  0  0  0  0  0  0  0  0  0
   40.5460   21.8040   37.7370 N   0  0  0  0  0  0  0  0  0  0  0  0
   36.8150   24.4020   38.1430 H   0  0  0  0  0  0  0  0  0  0  0  0
   37.5050   25.7360   36.1550 H   0  0  0  0  0  0  0  0  0  0  0  0
   40.7530   21.0600   37.0100 H   0  0  0  0  0  0  0  0  0  0  0  0
   40.8730   21.9470   38.7290 H   0  0  0  0  0  0  0  0  0  0  0  0
   38.7200   23.8370   32.9670 N   0  0  0  0  0  0  0  0  0  0  0  0
   37.3750   23.3880   32.6740 C   0  0  0  0  0  2  0  0  0  0  0  0
   37.2160   22.0220   33.3120 C   0  0  0  0  0  2  0  0  0  0  0  0
   38.6440   21.4930   33.3960 C   0  0  0  0  0  2  0  0  0  0  0  0
   39.4000   22.5710   32.6430 C   0  0  0  0  0  3  0  0  0  0  0  0
   39.2180   22.4140   31.5600 H   0  0  0  0  0  0  0  0  0  0  0  0
  1  2  1  0  0  0  0
  1 13  1  0  0  0  0
  2  7  1  0  0  0  0
  3  8  1  0  0  0  0
  3  2  2  0  0  0  0
  4  3  1  0  0  0  0
  5  4  2  0  0  0  0
  5  6  1  0  0  0  0
  6  1  2  0  0  0  0
  9  4  1  0  0  0  0
 10  5  1  0  0  0  0
 11 16  1  0  0  0  0
 11 18  1  0  0  0  0
 12 11  2  0  0  0  0
 13 14  2  0  0  0  0
 13 12  1  0  0  0  0
 14 15  1  0  0  0  0
 15 17  1  0  0  0  0
 15 16  2  0  0  0  0
 17 21  1  0  0  0  0
 19 12  1  0  0  0  0
 20 17  1  0  0  0  0
 22  6  1  0  0  0  0
 23 22  1  0  0  0  0
 23 24  1  0  0  0  0
 24 25  1  0  0  0  0
 26 22  1  0  0  0  0
 26 25  1  0  0  0  0
 27 26  1  0  0  0  0
M  END
>  <minimizedAffinity>
-4.85801506

$$$$

 OpenBabel03272501513D

 27 29  0  0  0  0  0  0  0  0999 V2000
   41.6260   24.5190   35.1770 C   0  0  0  0  0  0  0  0  0  0  0  0
   42.9270   24.8650   34.8730 C   0  0  0  0  0  0  0  0  0  0  0  0
   43.9850   24.0820   35.3350 C   0  0  0  0  0  0  0  0  0  0  0  0
   43.7340   22.9560   36.0990 C   0  0  0  0  0  0  0  0  0  0  0  0
   42.4210   22.5950   36.4140 C   0  0  0  0  0  0  0  0  0  0  0  0
   41.4040   23.4090   35.9300 C   0  0  0  0  0  0  0  0  0  0  0  0
   43.1400   25.7520   34.2700 H   0  0  0  0  0  0  0  0  0  0  0  0
   45.0060   24.3390   35.1040 H   0  0  0  0  0  0  0  0  0  0  0  0
   44.6070   22.3810   36.4330 H   0  0  0  0  0  0  0  0  0  0  0  0
   42.3310   21.7030   37.0140 H   0  0  0  0  0  0  0  0  0  0  0  0
   39.0940   26.2290   32.9680 C   0  0  0  0  0  0  0  0  0  0  0  0
   40.1330   25.3550   33.3240 C   0  0  0  0  0  0  0  0  0  0  0  0
   40.5760   25.3720   34.6730 C   0  0  0  0  0  0  0  0  0  0  0  0
   39.9670   26.2280   35.5250 N   0  0  0  0  0  0  0  0  0  0  0  0
   38.9670   27.0520   35.1340 C   0  0  0  0  0  0  0  0  0  0  0  0
   38.5280   27.0610   33.8710 N   0  0  0  0  0  0  0  0  0  0  0  0
   38.4340   27.8740   36.1430 N   0  0  0  0  0  0  0  0  0  0  0  0
   38.7770   26.1900   31.9140 H   0  0  0  0  0  0  0  0  0  0  0  0
   40.6160   24.6770   32.6470 H   0  0  0  0  0  0  0  0  0  0  0  0
   38.0310   27.4080   37.0060 H   0  0  0  0  0  0  0  0  0  0  0  0
   38.5330   28.8840   35.8540 H   0  0  0  0  0  0  0  0  0  0  0  0
   40.1570   22.8810   36.3470 N   0  0  0  0  0  0  0  0  0  0  0  0
   38.9180   22.2990   35.8760 C   0  0  0  0  0  2  0  0  0  0  0  0
   37.7940   22.9720   36.6410 C   0  0  0  0  0  2  0  0  0  0  0  0
   38.4630   23.4380   37.9310 C   0  0  0  0  0  2  0  0  0  0  0  0
   39.8400   22.8220   37.7850 C   0  0  0  0  0  3  0  0  0  0  0  0
   39.7500   21.7400   38.0160 H   0  0  0  0  0  0  0  0  0  0  0  0
  1  6  1  0  0  0  0
  2  1  2  0  0  0  0
  2  3  1  0  0  0  0
  3  4  2  0  0  0  0
  4  5  1  0  0  0  0
  4  9  1  0  0  0  0
  5 10  1  0  0  0  0
  6 22  1  0  0  0  0
  6  5  2  0  0  0  0
  7  2  1  0  0  0  0
  8  3  1  0  0  0  0
 11 12  2  0  0  0  0
 11 16  1  0  0  0  0
 12 13  1  0  0  0  0
 13  1  1  0  0  0  0
 13 14  2  0  0  0  0
 15 14  1  0  0  0  0
 15 17  1  0  0  0  0
 16 15  2  0  0  0  0
 17 20  1  0  0  0  0
 18 11  1  0  0  0  0
 19 12  1  0  0  0  0
 21 17  1  0  0  0  0
 22 26  1  0  0  0  0
 23 22  1  0  0  0  0
 23 24  1  0  0  0  0
 24 25  1  0  0  0  0
 26 25  1  0  0  0  0
 26 27  1  0  0  0  0
M  END
>  <minimizedAffinity>
-4.85190248

$$$$
