
 OpenBabel03272510153D

 25 27  0  0  0  0  0  0  0  0999 V2000
   37.2060   29.4470   51.0580 Br  0  0  0  0  0  0  0  0  0  0  0  0
   35.9990   29.3250   49.5700 C   0  0  0  0  0  0  0  0  0  0  0  0
   36.1060   30.1960   48.5080 C   0  0  0  0  0  0  0  0  0  0  0  0
   35.2020   30.0500   47.4680 C   0  0  0  0  0  0  0  0  0  0  0  0
   34.2230   29.0880   47.4600 C   0  0  0  0  0  0  0  0  0  0  0  0
   34.1420   28.2390   48.5280 C   0  0  0  0  0  0  0  0  0  0  0  0
   35.0390   28.3620   49.5890 C   0  0  0  0  0  0  0  0  0  0  0  0
   35.3200   30.7530   46.6550 H   0  0  0  0  0  0  0  0  0  0  0  0
   33.3750   27.4940   48.5090 H   0  0  0  0  0  0  0  0  0  0  0  0
   34.9580   27.6790   50.4270 H   0  0  0  0  0  0  0  0  0  0  0  0
   37.9820   33.1820   49.4440 C   0  0  0  0  0  0  0  0  0  0  0  0
   39.0460   33.2250   48.4910 C   0  0  0  0  0  0  0  0  0  0  0  0
   39.0910   32.2060   47.5350 C   0  0  0  0  0  0  0  0  0  0  0  0
   38.1290   31.2390   47.5620 N   0  0  0  0  0  0  0  0  0  0  0  0
   37.1380   31.2360   48.4820 C   0  0  0  0  0  0  0  0  0  0  0  0
   37.0700   32.2060   49.4160 N   0  0  0  0  0  0  0  0  0  0  0  0
   37.9830   33.9910   50.1700 H   0  0  0  0  0  0  0  0  0  0  0  0
   39.7990   34.0030   48.4910 H   0  0  0  0  0  0  0  0  0  0  0  0
   39.8620   32.1590   46.7760 H   0  0  0  0  0  0  0  0  0  0  0  0
   33.3240   28.9870   46.3640 N   0  0  0  0  0  0  0  0  0  0  0  0
   31.9160   29.3220   46.3560 C   0  0  0  0  0  2  0  0  0  0  0  0
   31.5740   29.4630   44.8670 C   0  0  0  0  0  2  0  0  0  0  0  0
   32.3910   28.2920   44.3030 C   0  0  0  0  0  2  0  0  0  0  0  0
   33.6990   28.5150   45.0260 C   0  0  0  0  0  3  0  0  0  0  0  0
   34.2400   29.3280   44.4740 H   0  0  0  0  0  0  0  0  0  0  0  0
  2  7  1  0  0  0  0
  2  1  1  0  0  0  0
  3  2  2  0  0  0  0
  4  3  1  0  0  0  0
  5  4  2  0  0  0  0
  5  6  1  0  0  0  0
  6  7  2  0  0  0  0
  7 10  1  0  0  0  0
  8  4  1  0  0  0  0
  9  6  1  0  0  0  0
 11 17  1  0  0  0  0
 12 18  1  0  0  0  0
 12 11  2  0  0  0  0
 13 14  2  0  0  0  0
 13 12  1  0  0  0  0
 14 15  1  0  0  0  0
 15  3  1  0  0  0  0
 15 16  2  0  0  0  0
 16 11  1  0  0  0  0
 19 13  1  0  0  0  0
 20  5  1  0  0  0  0
 21 20  1  0  0  0  0
 22 21  1  0  0  0  0
 23 22  1  0  0  0  0
 23 24  1  0  0  0  0
 24 20  1  0  0  0  0
 25 24  1  0  0  0  0
M  END
>  <minimizedAffinity>
-5.57570076

>  <minimizedRMSD>
0.329441965

$$$$
