
 OpenBabel03272510153D

 25 27  0  0  0  0  0  0  0  0999 V2000
   37.4630   29.2330   50.9280 Br  0  0  0  0  0  0  0  0  0  0  0  0
   36.0280   29.2890   49.6540 C   0  0  0  0  0  0  0  0  0  0  0  0
   36.0050   30.2500   48.6660 C   0  0  0  0  0  0  0  0  0  0  0  0
   34.9400   30.2310   47.7800 C   0  0  0  0  0  0  0  0  0  0  0  0
   33.9270   29.3070   47.8520 C   0  0  0  0  0  0  0  0  0  0  0  0
   33.9770   28.3670   48.8420 C   0  0  0  0  0  0  0  0  0  0  0  0
   35.0380   28.3620   49.7480 C   0  0  0  0  0  0  0  0  0  0  0  0
   34.9600   31.0010   47.0210 H   0  0  0  0  0  0  0  0  0  0  0  0
   33.1820   27.6530   48.8870 H   0  0  0  0  0  0  0  0  0  0  0  0
   35.0590   27.6080   50.5270 H   0  0  0  0  0  0  0  0  0  0  0  0
   38.0180   33.1990   49.4150 C   0  0  0  0  0  0  0  0  0  0  0  0
   39.0410   33.1720   48.4160 C   0  0  0  0  0  0  0  0  0  0  0  0
   39.0100   32.1210   47.4960 C   0  0  0  0  0  0  0  0  0  0  0  0
   38.0170   31.1890   47.5980 N   0  0  0  0  0  0  0  0  0  0  0  0
   37.0690   31.2520   48.5590 C   0  0  0  0  0  0  0  0  0  0  0  0
   37.0740   32.2540   49.4610 N   0  0  0  0  0  0  0  0  0  0  0  0
   38.0780   34.0310   50.1110 H   0  0  0  0  0  0  0  0  0  0  0  0
   39.8180   33.9230   48.3560 H   0  0  0  0  0  0  0  0  0  0  0  0
   39.7430   32.0220   46.7060 H   0  0  0  0  0  0  0  0  0  0  0  0
   32.8590   29.3380   46.9140 N   0  0  0  0  0  0  0  0  0  0  0  0
   32.5890   30.3680   45.9320 C   0  0  0  0  0  2  0  0  0  0  0  0
   31.6440   29.6890   44.9310 C   0  0  0  0  0  2  0  0  0  0  0  0
   30.7640   28.8940   45.9070 C   0  0  0  0  0  2  0  0  0  0  0  0
   31.8310   28.2980   46.7930 C   0  0  0  0  0  3  0  0  0  0  0  0
   32.2500   27.4120   46.2460 H   0  0  0  0  0  0  0  0  0  0  0  0
  2  7  1  0  0  0  0
  2  1  1  0  0  0  0
  3  2  2  0  0  0  0
  4  5  2  0  0  0  0
  4  3  1  0  0  0  0
  5  6  1  0  0  0  0
  6  9  1  0  0  0  0
  6  7  2  0  0  0  0
  7 10  1  0  0  0  0
  8  4  1  0  0  0  0
 11 16  1  0  0  0  0
 11 17  1  0  0  0  0
 12 11  2  0  0  0  0
 13 14  2  0  0  0  0
 13 12  1  0  0  0  0
 14 15  1  0  0  0  0
 15  3  1  0  0  0  0
 15 16  2  0  0  0  0
 18 12  1  0  0  0  0
 19 13  1  0  0  0  0
 20  5  1  0  0  0  0
 21 20  1  0  0  0  0
 22 23  1  0  0  0  0
 22 21  1  0  0  0  0
 23 24  1  0  0  0  0
 24 20  1  0  0  0  0
 25 24  1  0  0  0  0
M  END
>  <minimizedAffinity>
-5.69758463

>  <minimizedRMSD>
0.598966002

$$$$
