
 OpenBabel03272501503D

 27 29  0  0  0  0  0  0  0  0999 V2000
   38.3530   32.2280   48.6050 C   0  0  0  0  0  0  0  0  0  0  0  0
   38.6360   33.1350   49.6080 C   0  0  0  0  0  0  0  0  0  0  0  0
   39.4950   34.2060   49.3600 C   0  0  0  0  0  0  0  0  0  0  0  0
   40.0660   34.3640   48.1090 C   0  0  0  0  0  0  0  0  0  0  0  0
   39.7880   33.4530   47.0860 C   0  0  0  0  0  0  0  0  0  0  0  0
   38.9260   32.4040   47.3850 C   0  0  0  0  0  0  0  0  0  0  0  0
   38.1920   33.0220   50.6000 H   0  0  0  0  0  0  0  0  0  0  0  0
   39.7240   34.9220   50.1320 H   0  0  0  0  0  0  0  0  0  0  0  0
   40.7320   35.2250   47.9760 H   0  0  0  0  0  0  0  0  0  0  0  0
   40.2820   33.6630   46.1500 H   0  0  0  0  0  0  0  0  0  0  0  0
   36.8390   29.0890   50.0420 C   0  0  0  0  0  0  0  0  0  0  0  0
   37.8040   30.0800   49.8070 C   0  0  0  0  0  0  0  0  0  0  0  0
   37.4610   31.1390   48.9260 C   0  0  0  0  0  0  0  0  0  0  0  0
   36.2280   31.1240   48.3720 N   0  0  0  0  0  0  0  0  0  0  0  0
   35.3290   30.1440   48.6310 C   0  0  0  0  0  0  0  0  0  0  0  0
   35.6210   29.1340   49.4550 N   0  0  0  0  0  0  0  0  0  0  0  0
   34.0890   30.2790   47.9820 N   0  0  0  0  0  0  0  0  0  0  0  0
   37.1390   28.2830   50.7290 H   0  0  0  0  0  0  0  0  0  0  0  0
   38.7840   30.0910   50.2470 H   0  0  0  0  0  0  0  0  0  0  0  0
   33.5280   31.1640   48.1540 H   0  0  0  0  0  0  0  0  0  0  0  0
   33.9110   29.4220   47.3940 H   0  0  0  0  0  0  0  0  0  0  0  0
   38.7670   31.5990   46.2300 N   0  0  0  0  0  0  0  0  0  0  0  0
   39.1340   30.3340   45.6280 C   0  0  0  0  0  0  0  0  0  0  0  0
   39.5210   30.6240   44.1900 C   0  0  0  0  0  0  0  0  0  0  0  0
   38.7690   31.9110   43.8660 C   0  0  0  0  0  0  0  0  0  0  0  0
   37.9320   32.0840   45.1180 C   0  0  0  0  0  0  0  0  0  0  0  0
   37.0860   31.3680   45.0580 H   0  0  0  0  0  0  0  0  0  0  0  0
  1 13  1  0  0  0  0
  1  2  1  0  0  0  0
  2  7  1  0  0  0  0
  3  2  2  0  0  0  0
  3  8  1  0  0  0  0
  4  3  1  0  0  0  0
  5  6  1  0  0  0  0
  5  4  2  0  0  0  0
  6  1  2  0  0  0  0
  9  4  1  0  0  0  0
 10  5  1  0  0  0  0
 11 18  1  0  0  0  0
 12 11  1  0  0  0  0
 12 19  1  0  0  0  0
 13 12  2  0  0  0  0
 14 15  2  0  0  0  0
 14 13  1  0  0  0  0
 15 16  1  0  0  0  0
 16 11  2  0  0  0  0
 17 20  1  0  0  0  0
 17 15  1  0  0  0  0
 21 17  1  0  0  0  0
 22  6  1  0  0  0  0
 23 22  1  0  0  0  0
 24 23  1  0  0  0  0
 25 24  1  0  0  0  0
 25 26  1  0  0  0  0
 26 22  1  0  0  0  0
 27 26  1  0  0  0  0
M  END
>  <minimizedAffinity>
-6.10111189

>  <minimizedRMSD>
2.41412759

$$$$
