
 OpenBabel03272503413D

 38 41  0  0  1  0  0  0  0  0999 V2000
   38.4900   31.1280   45.9280 C   0  0  0  0  0  0  0  0  0  0  0  0
   39.8260   31.0580   46.2070 C   0  0  0  0  0  0  0  0  0  0  0  0
   40.4530   31.4230   45.0080 C   0  0  0  0  0  0  0  0  0  0  0  0
   39.5260   31.6890   44.0810 N   0  0  0  0  0  0  0  0  0  0  0  0
   38.3160   31.5090   44.6430 N   0  0  0  0  0  0  0  0  0  0  0  0
   40.3500   30.7890   47.1290 H   0  0  0  0  0  0  0  0  0  0  0  0
   41.5470   31.4580   44.9270 H   0  0  0  0  0  0  0  0  0  0  0  0
   39.8070   30.9010   41.7890 C   0  0  2  0  0  0  0  0  0  0  0  0
   39.8490   32.0930   42.7370 C   0  0  1  0  0  0  0  0  0  0  0  0
   38.7600   32.9280   42.1040 C   0  0  0  0  0  0  0  0  0  0  0  0
   38.8320   32.7360   40.7440 O   0  0  0  0  0  0  0  0  0  0  0  0
   39.6560   31.6860   40.4720 C   0  0  0  0  0  0  0  0  0  0  0  0
   40.7010   30.2890   41.7940 H   0  0  0  0  0  0  0  0  0  0  0  0
   40.7880   32.6390   42.7020 H   0  0  0  0  0  0  0  0  0  0  0  0
   38.9100   34.0040   42.3990 H   0  0  0  0  0  0  0  0  0  0  0  0
   37.8010   32.5190   42.4830 H   0  0  0  0  0  0  0  0  0  0  0  0
   40.6850   31.9930   40.1420 H   0  0  0  0  0  0  0  0  0  0  0  0
   39.2500   30.9790   39.7040 H   0  0  0  0  0  0  0  0  0  0  0  0
   38.6340   30.2170   42.0500 O   0  0  0  0  0  0  0  0  0  0  0  0
   39.0730   28.3610   44.0560 H   0  0  0  0  0  0  0  0  0  0  0  0
   39.5810   28.3230   43.1380 N   0  0  0  0  0  0  0  0  0  0  0  0
   39.5300   26.9010   42.7550 C   0  0  0  0  0  0  0  0  0  0  0  0
   38.0070   26.7250   42.7040 C   0  0  0  0  0  0  0  0  0  0  0  0
   37.4720   28.0940   42.2640 C   0  0  0  0  0  0  0  0  0  0  0  0
   38.7460   28.8670   42.0990 C   0  0  1  0  0  0  0  0  0  0  0  0
   36.5060   30.6370   49.0710 C   0  0  0  0  0  0  0  0  0  0  0  0
   37.5730   30.9270   48.2300 C   0  0  0  0  0  0  0  0  0  0  0  0
   37.4240   30.8400   46.8580 C   0  0  0  0  0  0  0  0  0  0  0  0
   36.2070   30.4630   46.3910 N   0  0  0  0  0  0  0  0  0  0  0  0
   35.1770   30.1820   47.2410 C   0  0  0  0  0  0  0  0  0  0  0  0
   35.3140   30.2640   48.5510 N   0  0  0  0  0  0  0  0  0  0  0  0
   38.5580   31.2310   48.5410 H   0  0  0  0  0  0  0  0  0  0  0  0
   34.1990   29.8800   46.8810 H   0  0  0  0  0  0  0  0  0  0  0  0
   36.8250   30.7730   50.4190 O   0  0  0  0  0  0  0  0  0  0  0  0
   36.8670   29.7030   51.3160 C   0  0  0  0  0  0  0  0  0  0  0  0
   35.5980   29.2300   51.6310 F   0  0  0  0  0  0  0  0  0  0  0  0
   37.5360   30.0920   52.4440 F   0  0  0  0  0  0  0  0  0  0  0  0
   37.5930   28.6660   50.7340 F   0  0  0  0  0  0  0  0  0  0  0  0
  1  2  1  0  0  0  0
  1 28  1  0  0  0  0
  2  6  1  0  0  0  0
  3  2  2  0  0  0  0
  4  5  1  0  0  0  0
  4  3  1  0  0  0  0
  5  1  2  0  0  0  0
  7  3  1  0  0  0  0
  8 13  1  1  0  0  0
  8 19  1  0  0  0  0
  8  9  1  0  0  0  0
  9 14  1  6  0  0  0
  9  4  1  0  0  0  0
 10 15  1  0  0  0  0
 10 16  1  0  0  0  0
 10  9  1  0  0  0  0
 11 10  1  0  0  0  0
 12 11  1  0  0  0  0
 12  8  1  0  0  0  0
 17 12  1  0  0  0  0
 18 12  1  0  0  0  0
 21 20  1  0  0  0  0
 22 21  1  0  0  0  0
 23 22  1  0  0  0  0
 24 23  1  0  0  0  0
 25 19  1  1  0  0  0
 25 24  1  0  0  0  0
 25 21  1  0  0  0  0
 26 34  1  0  0  0  0
 27 32  1  0  0  0  0
 27 26  2  0  0  0  0
 28 27  1  0  0  0  0
 29 28  2  0  0  0  0
 29 30  1  0  0  0  0
 30 31  2  0  0  0  0
 31 26  1  0  0  0  0
 33 30  1  0  0  0  0
 34 35  1  0  0  0  0
 35 36  1  0  0  0  0
 35 37  1  0  0  0  0
 38 35  1  0  0  0  0
M  END
>  <minimizedAffinity>
-6.28338814

>  <minimizedRMSD>
0.291114837

$$$$
