
 OpenBabel03262523003D

 35 39  0  0  0  0  0  0  0  0999 V2000
   36.7150   27.8820   33.6910 C   0  0  0  0  0  0  0  0  0  0  0  0
   37.6810   27.7200   32.6950 C   0  0  0  0  0  0  0  0  0  0  0  0
   38.5140   26.7000   33.0720 C   0  0  0  0  0  0  0  0  0  0  0  0
   38.0460   26.2530   34.2940 N   0  0  0  0  0  0  0  0  0  0  0  0
   36.9850   26.9810   34.6150 N   0  0  0  0  0  0  0  0  0  0  0  0
   39.5200   24.2870   34.4220 N   0  0  0  0  0  0  0  0  0  0  0  0
   38.6750   25.1860   34.9950 C   0  0  0  0  0  0  0  0  0  0  0  0
   38.5830   24.8520   36.2890 N   0  0  0  0  0  0  0  0  0  0  0  0
   39.3390   23.7730   36.5590 C   0  0  0  0  0  0  0  0  0  0  0  0
   39.6430   22.9950   37.6420 C   0  0  0  0  0  0  0  0  0  0  0  0
   40.4840   21.9490   37.5030 N   0  0  0  0  0  0  0  0  0  0  0  0
   41.0460   21.6330   36.3140 C   0  0  0  0  0  0  0  0  0  0  0  0
   40.7680   22.3750   35.2340 N   0  0  0  0  0  0  0  0  0  0  0  0
   39.9330   23.4170   35.3630 C   0  0  0  0  0  0  0  0  0  0  0  0
   37.7820   28.2790   31.7820 H   0  0  0  0  0  0  0  0  0  0  0  0
   39.3840   26.3100   32.5180 H   0  0  0  0  0  0  0  0  0  0  0  0
   39.8130   24.2640   33.4000 H   0  0  0  0  0  0  0  0  0  0  0  0
   41.7190   20.7950   36.2030 H   0  0  0  0  0  0  0  0  0  0  0  0
   33.6390   29.6280   32.7450 C   0  0  0  0  0  0  0  0  0  0  0  0
   33.6410   30.7490   33.6220 C   0  0  0  0  0  0  0  0  0  0  0  0
   34.6990   30.8610   34.5050 C   0  0  0  0  0  0  0  0  0  0  0  0
   35.6820   29.9320   34.5160 N   0  0  0  0  0  0  0  0  0  0  0  0
   35.6520   28.8640   33.6600 C   0  0  0  0  0  0  0  0  0  0  0  0
   34.6380   28.7340   32.7970 N   0  0  0  0  0  0  0  0  0  0  0  0
   32.8310   29.5000   32.0390 H   0  0  0  0  0  0  0  0  0  0  0  0
   32.8460   31.4500   33.5730 H   0  0  0  0  0  0  0  0  0  0  0  0
   34.7740   31.9460   35.4070 N   0  0  0  0  0  0  0  0  0  0  0  0
   34.8100   31.9230   36.8490 C   0  0  0  0  0  2  0  0  0  0  0  0
   34.0570   33.1540   37.3130 C   0  0  0  0  0  2  0  0  0  0  0  0
   33.9610   34.0650   36.1120 C   0  0  0  0  0  2  0  0  0  0  0  0
   34.8340   33.3470   35.1000 C   0  0  0  0  0  3  0  0  0  0  0  0
   35.8770   33.7330   35.1680 H   0  0  0  0  0  0  0  0  0  0  0  0
   39.0400   23.3460   38.8810 N   0  0  0  0  0  0  0  0  0  0  0  0
   39.5320   24.1800   39.2450 H   0  0  0  0  0  0  0  0  0  0  0  0
   38.2660   22.6620   39.0790 H   0  0  0  0  0  0  0  0  0  0  0  0
  1  5  2  0  0  0  0
  2  3  2  0  0  0  0
  2  1  1  0  0  0  0
  3  4  1  0  0  0  0
  4  5  1  0  0  0  0
  4  7  1  0  0  0  0
  6  7  1  0  0  0  0
  6 14  1  0  0  0  0
  7  8  2  0  0  0  0
  8  9  1  0  0  0  0
  9 10  1  0  0  0  0
 10 33  1  0  0  0  0
 11 10  2  0  0  0  0
 12 11  1  0  0  0  0
 13 14  1  0  0  0  0
 13 12  2  0  0  0  0
 14  9  2  0  0  0  0
 15  2  1  0  0  0  0
 16  3  1  0  0  0  0
 17  6  1  0  0  0  0
 18 12  1  0  0  0  0
 19 24  2  0  0  0  0
 19 20  1  0  0  0  0
 20 21  2  0  0  0  0
 21 22  1  0  0  0  0
 21 27  1  0  0  0  0
 23  1  1  0  0  0  0
 23 22  2  0  0  0  0
 24 23  1  0  0  0  0
 25 19  1  0  0  0  0
 26 20  1  0  0  0  0
 27 28  1  0  0  0  0
 28 29  1  0  0  0  0
 30 29  1  0  0  0  0
 31 32  1  0  0  0  0
 31 27  1  0  0  0  0
 31 30  1  0  0  0  0
 33 35  1  0  0  0  0
 33 34  1  0  0  0  0
M  END
>  <minimizedAffinity>
-6.57983017

$$$$

 OpenBabel03262523003D

 35 39  0  0  0  0  0  0  0  0999 V2000
   36.9570   27.6950   33.3790 C   0  0  0  0  0  0  0  0  0  0  0  0
   38.0100   27.5590   32.4720 C   0  0  0  0  0  0  0  0  0  0  0  0
   38.8440   26.5730   32.9300 C   0  0  0  0  0  0  0  0  0  0  0  0
   38.2870   26.1190   34.1120 N   0  0  0  0  0  0  0  0  0  0  0  0
   37.1770   26.8100   34.3330 N   0  0  0  0  0  0  0  0  0  0  0  0
   39.8130   24.2080   34.3880 N   0  0  0  0  0  0  0  0  0  0  0  0
   38.8900   25.0810   34.8760 C   0  0  0  0  0  0  0  0  0  0  0  0
   38.6980   24.7540   36.1610 N   0  0  0  0  0  0  0  0  0  0  0  0
   39.4650   23.7040   36.5060 C   0  0  0  0  0  0  0  0  0  0  0  0
   39.7020   22.9450   37.6200 C   0  0  0  0  0  0  0  0  0  0  0  0
   40.5870   21.9300   37.5660 N   0  0  0  0  0  0  0  0  0  0  0  0
   41.2610   21.6260   36.4330 C   0  0  0  0  0  0  0  0  0  0  0  0
   41.0520   22.3480   35.3250 N   0  0  0  0  0  0  0  0  0  0  0  0
   40.1730   23.3610   35.3700 C   0  0  0  0  0  0  0  0  0  0  0  0
   38.1710   28.1150   31.5650 H   0  0  0  0  0  0  0  0  0  0  0  0
   39.7710   26.2100   32.4580 H   0  0  0  0  0  0  0  0  0  0  0  0
   40.1930   24.1880   33.3950 H   0  0  0  0  0  0  0  0  0  0  0  0
   41.9700   20.8110   36.3890 H   0  0  0  0  0  0  0  0  0  0  0  0
   34.6840   30.1810   31.9470 C   0  0  0  0  0  0  0  0  0  0  0  0
   33.7820   30.4260   33.0200 C   0  0  0  0  0  0  0  0  0  0  0  0
   33.9880   29.7260   34.1940 C   0  0  0  0  0  0  0  0  0  0  0  0
   35.0140   28.8510   34.2970 N   0  0  0  0  0  0  0  0  0  0  0  0
   35.8660   28.6370   33.2460 C   0  0  0  0  0  0  0  0  0  0  0  0
   35.6850   29.3020   32.0990 N   0  0  0  0  0  0  0  0  0  0  0  0
   34.5590   30.7060   31.0100 H   0  0  0  0  0  0  0  0  0  0  0  0
   32.9920   31.1230   32.8880 H   0  0  0  0  0  0  0  0  0  0  0  0
   33.1370   29.9130   35.3050 N   0  0  0  0  0  0  0  0  0  0  0  0
   32.3130   28.9440   35.9880 C   0  0  0  0  0  2  0  0  0  0  0  0
   31.0690   29.6840   36.4360 C   0  0  0  0  0  2  0  0  0  0  0  0
   31.4020   31.1550   36.3520 C   0  0  0  0  0  2  0  0  0  0  0  0
   32.8840   31.1260   36.0300 C   0  0  0  0  0  3  0  0  0  0  0  0
   33.4710   31.1620   36.9760 H   0  0  0  0  0  0  0  0  0  0  0  0
   38.9810   23.2840   38.7990 N   0  0  0  0  0  0  0  0  0  0  0  0
   39.4100   24.1380   39.1950 H   0  0  0  0  0  0  0  0  0  0  0  0
   38.2180   22.5740   38.9360 H   0  0  0  0  0  0  0  0  0  0  0  0
  1  5  2  0  0  0  0
  2  3  2  0  0  0  0
  2  1  1  0  0  0  0
  3  4  1  0  0  0  0
  4  5  1  0  0  0  0
  4  7  1  0  0  0  0
  6  7  1  0  0  0  0
  6 14  1  0  0  0  0
  7  8  2  0  0  0  0
  8  9  1  0  0  0  0
  9 10  1  0  0  0  0
 10 33  1  0  0  0  0
 11 10  2  0  0  0  0
 12 11  1  0  0  0  0
 13 14  1  0  0  0  0
 13 12  2  0  0  0  0
 14  9  2  0  0  0  0
 15  2  1  0  0  0  0
 16  3  1  0  0  0  0
 17  6  1  0  0  0  0
 18 12  1  0  0  0  0
 19 24  2  0  0  0  0
 19 20  1  0  0  0  0
 20 21  2  0  0  0  0
 21 22  1  0  0  0  0
 21 27  1  0  0  0  0
 23  1  1  0  0  0  0
 23 22  2  0  0  0  0
 24 23  1  0  0  0  0
 25 19  1  0  0  0  0
 26 20  1  0  0  0  0
 27 28  1  0  0  0  0
 27 31  1  0  0  0  0
 28 29  1  0  0  0  0
 30 29  1  0  0  0  0
 31 30  1  0  0  0  0
 31 32  1  0  0  0  0
 33 35  1  0  0  0  0
 33 34  1  0  0  0  0
M  END
>  <minimizedAffinity>
-6.33312178

$$$$

 OpenBabel03262523003D

 35 39  0  0  0  0  0  0  0  0999 V2000
   36.4620   27.2520   32.6350 C   0  0  0  0  0  0  0  0  0  0  0  0
   36.1160   27.8820   31.4380 C   0  0  0  0  0  0  0  0  0  0  0  0
   35.7770   29.1790   31.7210 C   0  0  0  0  0  0  0  0  0  0  0  0
   35.9210   29.3240   33.0890 N   0  0  0  0  0  0  0  0  0  0  0  0
   36.3260   28.1610   33.5810 N   0  0  0  0  0  0  0  0  0  0  0  0
   35.5910   31.7620   33.1180 N   0  0  0  0  0  0  0  0  0  0  0  0
   35.6520   30.5570   33.7460 C   0  0  0  0  0  0  0  0  0  0  0  0
   35.4130   30.7900   35.0430 N   0  0  0  0  0  0  0  0  0  0  0  0
   35.2030   32.1010   35.2620 C   0  0  0  0  0  0  0  0  0  0  0  0
   34.9250   32.9190   36.3230 C   0  0  0  0  0  0  0  0  0  0  0  0
   34.7790   34.2450   36.1280 N   0  0  0  0  0  0  0  0  0  0  0  0
   34.9000   34.8080   34.9040 C   0  0  0  0  0  0  0  0  0  0  0  0
   35.1720   34.0360   33.8450 N   0  0  0  0  0  0  0  0  0  0  0  0
   35.3190   32.7140   34.0290 C   0  0  0  0  0  0  0  0  0  0  0  0
   36.1060   27.4550   30.4510 H   0  0  0  0  0  0  0  0  0  0  0  0
   35.4550   29.9550   31.0080 H   0  0  0  0  0  0  0  0  0  0  0  0
   35.7350   31.9350   32.0780 H   0  0  0  0  0  0  0  0  0  0  0  0
   34.7840   35.8720   34.7480 H   0  0  0  0  0  0  0  0  0  0  0  0
   36.8510   23.6800   31.9350 C   0  0  0  0  0  0  0  0  0  0  0  0
   37.6900   23.2490   33.0010 C   0  0  0  0  0  0  0  0  0  0  0  0
   38.0900   24.2020   33.9180 C   0  0  0  0  0  0  0  0  0  0  0  0
   37.6870   25.4860   33.7900 N   0  0  0  0  0  0  0  0  0  0  0  0
   36.8790   25.8710   32.7520 C   0  0  0  0  0  0  0  0  0  0  0  0
   36.4800   24.9660   31.8520 N   0  0  0  0  0  0  0  0  0  0  0  0
   36.5150   22.9680   31.1940 H   0  0  0  0  0  0  0  0  0  0  0  0
   37.9790   22.2280   33.0570 H   0  0  0  0  0  0  0  0  0  0  0  0
   38.9220   23.8530   35.0050 N   0  0  0  0  0  0  0  0  0  0  0  0
   40.2340   24.3540   35.3390 C   0  0  0  0  0  2  0  0  0  0  0  0
   40.9920   23.1920   35.9450 C   0  0  0  0  0  2  0  0  0  0  0  0
   39.9530   22.1600   36.3160 C   0  0  0  0  0  2  0  0  0  0  0  0
   38.6590   22.9050   36.0510 C   0  0  0  0  0  3  0  0  0  0  0  0
   38.3240   23.4130   36.9840 H   0  0  0  0  0  0  0  0  0  0  0  0
   34.8020   32.3040   37.6000 N   0  0  0  0  0  0  0  0  0  0  0  0
   33.8870   31.8240   37.6310 H   0  0  0  0  0  0  0  0  0  0  0  0
   35.6740   32.5100   38.1510 H   0  0  0  0  0  0  0  0  0  0  0  0
  1 23  1  0  0  0  0
  1  5  2  0  0  0  0
  2  3  2  0  0  0  0
  2  1  1  0  0  0  0
  3  4  1  0  0  0  0
  4  5  1  0  0  0  0
  4  7  1  0  0  0  0
  6  7  1  0  0  0  0
  6 14  1  0  0  0  0
  7  8  2  0  0  0  0
  8  9  1  0  0  0  0
  9 10  1  0  0  0  0
 10 33  1  0  0  0  0
 11 10  2  0  0  0  0
 12 11  1  0  0  0  0
 13 14  1  0  0  0  0
 13 12  2  0  0  0  0
 14  9  2  0  0  0  0
 15  2  1  0  0  0  0
 16  3  1  0  0  0  0
 17  6  1  0  0  0  0
 18 12  1  0  0  0  0
 19 20  1  0  0  0  0
 20 26  1  0  0  0  0
 20 21  2  0  0  0  0
 21 27  1  0  0  0  0
 22 21  1  0  0  0  0
 23 22  2  0  0  0  0
 24 19  2  0  0  0  0
 24 23  1  0  0  0  0
 25 19  1  0  0  0  0
 27 28  1  0  0  0  0
 27 31  1  0  0  0  0
 28 29  1  0  0  0  0
 29 30  1  0  0  0  0
 31 30  1  0  0  0  0
 31 32  1  0  0  0  0
 33 34  1  0  0  0  0
 33 35  1  0  0  0  0
M  END
>  <minimizedAffinity>
-6.19158506

$$$$

 OpenBabel03262523003D

 35 39  0  0  0  0  0  0  0  0999 V2000
   36.7640   26.9230   32.6600 C   0  0  0  0  0  0  0  0  0  0  0  0
   36.2810   27.4400   31.4550 C   0  0  0  0  0  0  0  0  0  0  0  0
   35.8280   28.7120   31.6870 C   0  0  0  0  0  0  0  0  0  0  0  0
   36.0420   28.9560   33.0320 N   0  0  0  0  0  0  0  0  0  0  0  0
   36.5950   27.8720   33.5600 N   0  0  0  0  0  0  0  0  0  0  0  0
   35.4650   31.3460   32.9470 N   0  0  0  0  0  0  0  0  0  0  0  0
   35.6890   30.1950   33.6360 C   0  0  0  0  0  0  0  0  0  0  0  0
   35.5080   30.4840   34.9310 N   0  0  0  0  0  0  0  0  0  0  0  0
   35.1790   31.7790   35.0900 C   0  0  0  0  0  0  0  0  0  0  0  0
   34.8850   32.6310   36.1200 C   0  0  0  0  0  0  0  0  0  0  0  0
   34.5910   33.9210   35.8610 N   0  0  0  0  0  0  0  0  0  0  0  0
   34.5770   34.4150   34.6020 C   0  0  0  0  0  0  0  0  0  0  0  0
   34.8610   33.6080   33.5720 N   0  0  0  0  0  0  0  0  0  0  0  0
   35.1540   32.3220   33.8190 C   0  0  0  0  0  0  0  0  0  0  0  0
   36.2530   26.9520   30.4960 H   0  0  0  0  0  0  0  0  0  0  0  0
   35.3840   29.4060   30.9560 H   0  0  0  0  0  0  0  0  0  0  0  0
   35.5250   31.4670   31.8910 H   0  0  0  0  0  0  0  0  0  0  0  0
   34.3430   35.4500   34.3940 H   0  0  0  0  0  0  0  0  0  0  0  0
   39.0390   24.2240   33.6290 C   0  0  0  0  0  0  0  0  0  0  0  0
   38.3770   23.0700   33.1250 C   0  0  0  0  0  0  0  0  0  0  0  0
   37.1740   23.2630   32.4730 C   0  0  0  0  0  0  0  0  0  0  0  0
   36.6660   24.5080   32.3290 N   0  0  0  0  0  0  0  0  0  0  0  0
   37.3280   25.6000   32.8250 C   0  0  0  0  0  0  0  0  0  0  0  0
   38.4930   25.4380   33.4610 N   0  0  0  0  0  0  0  0  0  0  0  0
   39.9820   24.1200   34.1470 H   0  0  0  0  0  0  0  0  0  0  0  0
   38.8180   22.1140   33.2640 H   0  0  0  0  0  0  0  0  0  0  0  0
   36.4560   22.1680   31.9430 N   0  0  0  0  0  0  0  0  0  0  0  0
   35.1230   21.7190   32.2630 C   0  0  0  0  0  2  0  0  0  0  0  0
   35.1450   20.2080   32.1560 C   0  0  0  0  0  2  0  0  0  0  0  0
   36.3920   19.8610   31.3780 C   0  0  0  0  0  2  0  0  0  0  0  0
   36.8870   21.2280   30.9470 C   0  0  0  0  0  3  0  0  0  0  0  0
   36.4670   21.4770   29.9460 H   0  0  0  0  0  0  0  0  0  0  0  0
   34.9060   32.0880   37.4340 N   0  0  0  0  0  0  0  0  0  0  0  0
   34.0480   31.5220   37.5550 H   0  0  0  0  0  0  0  0  0  0  0  0
   35.7850   32.4130   37.9120 H   0  0  0  0  0  0  0  0  0  0  0  0
  1 23  1  0  0  0  0
  1  5  2  0  0  0  0
  2  3  2  0  0  0  0
  2  1  1  0  0  0  0
  3  4  1  0  0  0  0
  4  5  1  0  0  0  0
  4  7  1  0  0  0  0
  6  7  1  0  0  0  0
  6 14  1  0  0  0  0
  7  8  2  0  0  0  0
  8  9  1  0  0  0  0
  9 10  1  0  0  0  0
 10 33  1  0  0  0  0
 11 10  2  0  0  0  0
 12 11  1  0  0  0  0
 13 14  1  0  0  0  0
 13 12  2  0  0  0  0
 14  9  2  0  0  0  0
 15  2  1  0  0  0  0
 16  3  1  0  0  0  0
 17  6  1  0  0  0  0
 18 12  1  0  0  0  0
 19 25  1  0  0  0  0
 20 26  1  0  0  0  0
 20 19  2  0  0  0  0
 21 20  1  0  0  0  0
 22 21  2  0  0  0  0
 22 23  1  0  0  0  0
 23 24  2  0  0  0  0
 24 19  1  0  0  0  0
 27 28  1  0  0  0  0
 27 21  1  0  0  0  0
 29 28  1  0  0  0  0
 30 29  1  0  0  0  0
 31 30  1  0  0  0  0
 31 27  1  0  0  0  0
 32 31  1  0  0  0  0
 33 34  1  0  0  0  0
 33 35  1  0  0  0  0
M  END
>  <minimizedAffinity>
-6.07637405

$$$$

 OpenBabel03262523003D

 35 39  0  0  0  0  0  0  0  0999 V2000
   37.4110   27.8120   32.8790 C   0  0  0  0  0  0  0  0  0  0  0  0
   37.4950   28.2910   31.5700 C   0  0  0  0  0  0  0  0  0  0  0  0
   36.3260   28.9460   31.2800 C   0  0  0  0  0  0  0  0  0  0  0  0
   35.5450   28.8580   32.4170 N   0  0  0  0  0  0  0  0  0  0  0  0
   36.2280   28.1810   33.3300 N   0  0  0  0  0  0  0  0  0  0  0  0
   33.7920   30.3970   31.6350 N   0  0  0  0  0  0  0  0  0  0  0  0
   34.2450   29.4340   32.4830 C   0  0  0  0  0  0  0  0  0  0  0  0
   33.2450   29.1730   33.3340 N   0  0  0  0  0  0  0  0  0  0  0  0
   32.1720   29.9360   33.0590 C   0  0  0  0  0  0  0  0  0  0  0  0
   30.9080   30.1220   33.5490 C   0  0  0  0  0  0  0  0  0  0  0  0
   30.0900   31.0250   32.9730 N   0  0  0  0  0  0  0  0  0  0  0  0
   30.4760   31.7690   31.9110 C   0  0  0  0  0  0  0  0  0  0  0  0
   31.7070   31.6120   31.4070 N   0  0  0  0  0  0  0  0  0  0  0  0
   32.5290   30.7150   31.9740 C   0  0  0  0  0  0  0  0  0  0  0  0
   38.3150   28.1830   30.8820 H   0  0  0  0  0  0  0  0  0  0  0  0
   36.0580   29.4440   30.3340 H   0  0  0  0  0  0  0  0  0  0  0  0
   34.3370   30.8350   30.8340 H   0  0  0  0  0  0  0  0  0  0  0  0
   29.8210   32.4940   31.4500 H   0  0  0  0  0  0  0  0  0  0  0  0
   40.7210   26.5840   33.8500 C   0  0  0  0  0  0  0  0  0  0  0  0
   40.4090   25.6250   34.8540 C   0  0  0  0  0  0  0  0  0  0  0  0
   39.0740   25.4380   35.1600 C   0  0  0  0  0  0  0  0  0  0  0  0
   38.1190   26.1480   34.5160 N   0  0  0  0  0  0  0  0  0  0  0  0
   38.4510   27.0640   33.5530 C   0  0  0  0  0  0  0  0  0  0  0  0
   39.7360   27.2630   33.2420 N   0  0  0  0  0  0  0  0  0  0  0  0
   41.7520   26.7640   33.5800 H   0  0  0  0  0  0  0  0  0  0  0  0
   41.1960   25.0940   35.3300 H   0  0  0  0  0  0  0  0  0  0  0  0
   38.6830   24.5040   36.1440 N   0  0  0  0  0  0  0  0  0  0  0  0
   37.9510   24.7300   37.3670 C   0  0  0  0  0  2  0  0  0  0  0  0
   38.5060   23.7530   38.3830 C   0  0  0  0  0  2  0  0  0  0  0  0
   39.2650   22.7120   37.5930 C   0  0  0  0  0  2  0  0  0  0  0  0
   38.9230   23.0880   36.1640 C   0  0  0  0  0  3  0  0  0  0  0  0
   38.0240   22.5200   35.8340 H   0  0  0  0  0  0  0  0  0  0  0  0
   30.5240   29.3290   34.6660 N   0  0  0  0  0  0  0  0  0  0  0  0
   30.3340   28.3720   34.3210 H   0  0  0  0  0  0  0  0  0  0  0  0
   30.5430   29.9350   35.5250 H   0  0  0  0  0  0  0  0  0  0  0  0
  1  5  2  0  0  0  0
  1 23  1  0  0  0  0
  2  1  1  0  0  0  0
  3  2  2  0  0  0  0
  3  4  1  0  0  0  0
  4  7  1  0  0  0  0
  4  5  1  0  0  0  0
  6 14  1  0  0  0  0
  6  7  1  0  0  0  0
  7  8  2  0  0  0  0
  9  8  1  0  0  0  0
  9 10  1  0  0  0  0
 10 33  1  0  0  0  0
 11 10  2  0  0  0  0
 12 11  1  0  0  0  0
 13 12  2  0  0  0  0
 13 14  1  0  0  0  0
 14  9  2  0  0  0  0
 15  2  1  0  0  0  0
 16  3  1  0  0  0  0
 17  6  1  0  0  0  0
 18 12  1  0  0  0  0
 19 20  1  0  0  0  0
 20 21  2  0  0  0  0
 20 26  1  0  0  0  0
 21 27  1  0  0  0  0
 22 21  1  0  0  0  0
 23 22  2  0  0  0  0
 24 23  1  0  0  0  0
 24 19  2  0  0  0  0
 25 19  1  0  0  0  0
 27 31  1  0  0  0  0
 27 28  1  0  0  0  0
 28 29  1  0  0  0  0
 30 29  1  0  0  0  0
 31 30  1  0  0  0  0
 32 31  1  0  0  0  0
 33 35  1  0  0  0  0
 34 33  1  0  0  0  0
M  END
>  <minimizedAffinity>
-5.99458075

$$$$

 OpenBabel03262523003D

 35 39  0  0  0  0  0  0  0  0999 V2000
   36.9890   25.4820   32.6750 C   0  0  0  0  0  0  0  0  0  0  0  0
   36.3320   25.7220   31.4660 C   0  0  0  0  0  0  0  0  0  0  0  0
   35.8740   27.0130   31.4790 C   0  0  0  0  0  0  0  0  0  0  0  0
   36.2580   27.5450   32.6960 N   0  0  0  0  0  0  0  0  0  0  0  0
   36.9120   26.6040   33.3640 N   0  0  0  0  0  0  0  0  0  0  0  0
   35.5970   29.8580   32.1780 N   0  0  0  0  0  0  0  0  0  0  0  0
   35.9490   28.8850   33.0620 C   0  0  0  0  0  0  0  0  0  0  0  0
   35.9350   29.4500   34.2760 N   0  0  0  0  0  0  0  0  0  0  0  0
   35.5880   30.7470   34.1960 C   0  0  0  0  0  0  0  0  0  0  0  0
   35.4070   31.8020   35.0480 C   0  0  0  0  0  0  0  0  0  0  0  0
   35.0390   33.0040   34.5610 N   0  0  0  0  0  0  0  0  0  0  0  0
   34.8400   33.2110   33.2390 C   0  0  0  0  0  0  0  0  0  0  0  0
   35.0080   32.2000   32.3780 N   0  0  0  0  0  0  0  0  0  0  0  0
   35.3740   31.0000   32.8540 C   0  0  0  0  0  0  0  0  0  0  0  0
   36.1920   25.0370   30.6490 H   0  0  0  0  0  0  0  0  0  0  0  0
   35.3120   27.5290   30.6840 H   0  0  0  0  0  0  0  0  0  0  0  0
   35.5100   29.7450   31.1240 H   0  0  0  0  0  0  0  0  0  0  0  0
   34.5450   34.1750   32.8480 H   0  0  0  0  0  0  0  0  0  0  0  0
   37.8920   21.9340   32.6860 C   0  0  0  0  0  0  0  0  0  0  0  0
   38.8180   21.8570   33.7640 C   0  0  0  0  0  0  0  0  0  0  0  0
   39.0970   23.0270   34.4450 C   0  0  0  0  0  0  0  0  0  0  0  0
   38.5010   24.1860   34.0850 N   0  0  0  0  0  0  0  0  0  0  0  0
   37.6140   24.2290   33.0420 C   0  0  0  0  0  0  0  0  0  0  0  0
   37.3290   23.1090   32.3680 N   0  0  0  0  0  0  0  0  0  0  0  0
   37.6450   21.0440   32.1250 H   0  0  0  0  0  0  0  0  0  0  0  0
   39.2580   20.9220   34.0070 H   0  0  0  0  0  0  0  0  0  0  0  0
   40.0040   23.0330   35.5280 N   0  0  0  0  0  0  0  0  0  0  0  0
   41.2340   23.7730   35.6740 C   0  0  0  0  0  2  0  0  0  0  0  0
   42.1770   22.8810   36.4560 C   0  0  0  0  0  2  0  0  0  0  0  0
   41.3170   21.8130   37.0880 C   0  0  0  0  0  2  0  0  0  0  0  0
   39.9180   22.2960   36.7570 C   0  0  0  0  0  3  0  0  0  0  0  0
   39.5380   22.9340   37.5870 H   0  0  0  0  0  0  0  0  0  0  0  0
   35.6230   31.5590   36.4330 N   0  0  0  0  0  0  0  0  0  0  0  0
   34.8080   31.0310   36.7910 H   0  0  0  0  0  0  0  0  0  0  0  0
   36.5470   31.9830   36.7040 H   0  0  0  0  0  0  0  0  0  0  0  0
  1 23  1  0  0  0  0
  1  5  2  0  0  0  0
  2  3  2  0  0  0  0
  2  1  1  0  0  0  0
  3  4  1  0  0  0  0
  4  7  1  0  0  0  0
  4  5  1  0  0  0  0
  6 14  1  0  0  0  0
  6  7  1  0  0  0  0
  7  8  2  0  0  0  0
  9  8  1  0  0  0  0
  9 10  1  0  0  0  0
 10 33  1  0  0  0  0
 11 10  2  0  0  0  0
 12 11  1  0  0  0  0
 13 14  1  0  0  0  0
 13 12  2  0  0  0  0
 14  9  2  0  0  0  0
 15  2  1  0  0  0  0
 16  3  1  0  0  0  0
 17  6  1  0  0  0  0
 18 12  1  0  0  0  0
 19 20  1  0  0  0  0
 20 26  1  0  0  0  0
 20 21  2  0  0  0  0
 21 27  1  0  0  0  0
 22 21  1  0  0  0  0
 23 22  2  0  0  0  0
 24 19  2  0  0  0  0
 24 23  1  0  0  0  0
 25 19  1  0  0  0  0
 27 28  1  0  0  0  0
 27 31  1  0  0  0  0
 28 29  1  0  0  0  0
 29 30  1  0  0  0  0
 31 30  1  0  0  0  0
 31 32  1  0  0  0  0
 33 35  1  0  0  0  0
 33 34  1  0  0  0  0
M  END
>  <minimizedAffinity>
-5.93473244

$$$$

 OpenBabel03262523003D

 35 39  0  0  0  0  0  0  0  0999 V2000
   39.0140   26.7110   32.3000 C   0  0  0  0  0  0  0  0  0  0  0  0
   40.2760   26.5590   31.7220 C   0  0  0  0  0  0  0  0  0  0  0  0
   40.9690   25.6270   32.4500 C   0  0  0  0  0  0  0  0  0  0  0  0
   40.1200   25.2230   33.4630 N   0  0  0  0  0  0  0  0  0  0  0  0
   38.9810   25.8890   33.3320 N   0  0  0  0  0  0  0  0  0  0  0  0
   41.5440   23.3820   34.2620 N   0  0  0  0  0  0  0  0  0  0  0  0
   40.5090   24.2500   34.4270 C   0  0  0  0  0  0  0  0  0  0  0  0
   39.9800   23.9900   35.6290 N   0  0  0  0  0  0  0  0  0  0  0  0
   40.6410   22.9870   36.2350 C   0  0  0  0  0  0  0  0  0  0  0  0
   40.5780   22.3010   37.4180 C   0  0  0  0  0  0  0  0  0  0  0  0
   41.4610   21.3140   37.6690 N   0  0  0  0  0  0  0  0  0  0  0  0
   42.4220   20.9680   36.7820 C   0  0  0  0  0  0  0  0  0  0  0  0
   42.5110   21.6190   35.6160 N   0  0  0  0  0  0  0  0  0  0  0  0
   41.6370   22.6040   35.3570 C   0  0  0  0  0  0  0  0  0  0  0  0
   40.6680   27.0670   30.8590 H   0  0  0  0  0  0  0  0  0  0  0  0
   41.9960   25.2690   32.2700 H   0  0  0  0  0  0  0  0  0  0  0  0
   42.1800   23.3180   33.4120 H   0  0  0  0  0  0  0  0  0  0  0  0
   43.1300   20.1760   36.9830 H   0  0  0  0  0  0  0  0  0  0  0  0
   36.8330   28.5770   30.0280 C   0  0  0  0  0  0  0  0  0  0  0  0
   36.0220   29.3240   30.9270 C   0  0  0  0  0  0  0  0  0  0  0  0
   36.2540   29.1570   32.2790 C   0  0  0  0  0  0  0  0  0  0  0  0
   37.2210   28.3140   32.7080 N   0  0  0  0  0  0  0  0  0  0  0  0
   37.9860   27.6080   31.8170 C   0  0  0  0  0  0  0  0  0  0  0  0
   37.7780   27.7530   30.5040 N   0  0  0  0  0  0  0  0  0  0  0  0
   36.6850   28.6760   28.9610 H   0  0  0  0  0  0  0  0  0  0  0  0
   35.2760   29.9730   30.5390 H   0  0  0  0  0  0  0  0  0  0  0  0
   35.4920   29.8640   33.2350 N   0  0  0  0  0  0  0  0  0  0  0  0
   34.6480   29.3440   34.2840 C   0  0  0  0  0  2  0  0  0  0  0  0
   33.4910   30.3130   34.4190 C   0  0  0  0  0  2  0  0  0  0  0  0
   33.9210   31.5800   33.7180 C   0  0  0  0  0  2  0  0  0  0  0  0
   35.3730   31.2860   33.3940 C   0  0  0  0  0  3  0  0  0  0  0  0
   36.0210   31.6570   34.2210 H   0  0  0  0  0  0  0  0  0  0  0  0
   39.5590   22.6830   38.3330 N   0  0  0  0  0  0  0  0  0  0  0  0
   39.8500   23.5710   38.7760 H   0  0  0  0  0  0  0  0  0  0  0  0
   38.7980   21.9570   38.3040 H   0  0  0  0  0  0  0  0  0  0  0  0
  1  5  2  0  0  0  0
  2  1  1  0  0  0  0
  2  3  2  0  0  0  0
  3  4  1  0  0  0  0
  4  7  1  0  0  0  0
  5  4  1  0  0  0  0
  6  7  1  0  0  0  0
  6 14  1  0  0  0  0
  7  8  2  0  0  0  0
  8  9  1  0  0  0  0
  9 10  1  0  0  0  0
 10 11  2  0  0  0  0
 10 33  1  0  0  0  0
 12 18  1  0  0  0  0
 12 11  1  0  0  0  0
 13 12  2  0  0  0  0
 14 13  1  0  0  0  0
 14  9  2  0  0  0  0
 15  2  1  0  0  0  0
 16  3  1  0  0  0  0
 17  6  1  0  0  0  0
 19 24  2  0  0  0  0
 19 20  1  0  0  0  0
 20 21  2  0  0  0  0
 21 22  1  0  0  0  0
 21 27  1  0  0  0  0
 23  1  1  0  0  0  0
 23 22  2  0  0  0  0
 24 23  1  0  0  0  0
 25 19  1  0  0  0  0
 26 20  1  0  0  0  0
 27 31  1  0  0  0  0
 27 28  1  0  0  0  0
 28 29  1  0  0  0  0
 30 29  1  0  0  0  0
 31 30  1  0  0  0  0
 31 32  1  0  0  0  0
 33 34  1  0  0  0  0
 35 33  1  0  0  0  0
M  END
>  <minimizedAffinity>
-5.93381834

$$$$

 OpenBabel03262523003D

 35 39  0  0  0  0  0  0  0  0999 V2000
   37.7300   25.6450   34.7500 C   0  0  0  0  0  0  0  0  0  0  0  0
   37.5670   25.3870   33.3870 C   0  0  0  0  0  0  0  0  0  0  0  0
   36.9560   26.4730   32.8170 C   0  0  0  0  0  0  0  0  0  0  0  0
   36.7550   27.3810   33.8410 N   0  0  0  0  0  0  0  0  0  0  0  0
   37.2280   26.8460   34.9590 N   0  0  0  0  0  0  0  0  0  0  0  0
   36.0170   29.2290   32.3940 N   0  0  0  0  0  0  0  0  0  0  0  0
   36.1360   28.6420   33.6160 C   0  0  0  0  0  0  0  0  0  0  0  0
   35.5680   29.4760   34.4970 N   0  0  0  0  0  0  0  0  0  0  0  0
   35.0940   30.5730   33.8790 C   0  0  0  0  0  0  0  0  0  0  0  0
   34.4440   31.7270   34.2220 C   0  0  0  0  0  0  0  0  0  0  0  0
   34.1230   32.6260   33.2690 N   0  0  0  0  0  0  0  0  0  0  0  0
   34.4250   32.4280   31.9650 C   0  0  0  0  0  0  0  0  0  0  0  0
   35.0610   31.3090   31.5970 N   0  0  0  0  0  0  0  0  0  0  0  0
   35.3840   30.4080   32.5380 C   0  0  0  0  0  0  0  0  0  0  0  0
   37.8570   24.5030   32.8470 H   0  0  0  0  0  0  0  0  0  0  0  0
   36.6790   26.6040   31.7580 H   0  0  0  0  0  0  0  0  0  0  0  0
   36.3640   28.8310   31.4710 H   0  0  0  0  0  0  0  0  0  0  0  0
   34.1690   33.1480   31.2010 H   0  0  0  0  0  0  0  0  0  0  0  0
   38.2940   23.6570   37.7710 C   0  0  0  0  0  0  0  0  0  0  0  0
   39.5210   22.9960   37.4790 C   0  0  0  0  0  0  0  0  0  0  0  0
   40.1050   23.2590   36.2540 C   0  0  0  0  0  0  0  0  0  0  0  0
   39.5200   24.1140   35.3860 N   0  0  0  0  0  0  0  0  0  0  0  0
   38.3390   24.7340   35.6960 C   0  0  0  0  0  0  0  0  0  0  0  0
   37.7530   24.4950   36.8750 N   0  0  0  0  0  0  0  0  0  0  0  0
   37.8010   23.4800   38.7170 H   0  0  0  0  0  0  0  0  0  0  0  0
   39.9400   22.3340   38.1950 H   0  0  0  0  0  0  0  0  0  0  0  0
   41.3240   22.6440   35.8890 N   0  0  0  0  0  0  0  0  0  0  0  0
   41.6010   21.7790   34.7680 C   0  0  0  0  0  2  0  0  0  0  0  0
   42.6310   20.7760   35.2480 C   0  0  0  0  0  2  0  0  0  0  0  0
   43.2170   21.3510   36.5160 C   0  0  0  0  0  2  0  0  0  0  0  0
   42.5930   22.7320   36.5560 C   0  0  0  0  0  3  0  0  0  0  0  0
   43.2660   23.4600   36.0480 H   0  0  0  0  0  0  0  0  0  0  0  0
   34.1380   31.9140   35.5980 N   0  0  0  0  0  0  0  0  0  0  0  0
   33.3350   31.3020   35.8270 H   0  0  0  0  0  0  0  0  0  0  0  0
   34.8110   32.6170   35.9950 H   0  0  0  0  0  0  0  0  0  0  0  0
  1  5  2  0  0  0  0
  1 23  1  0  0  0  0
  2  1  1  0  0  0  0
  3  2  2  0  0  0  0
  3  4  1  0  0  0  0
  4  5  1  0  0  0  0
  6 14  1  0  0  0  0
  6  7  1  0  0  0  0
  7  4  1  0  0  0  0
  7  8  2  0  0  0  0
  9 10  1  0  0  0  0
  9  8  1  0  0  0  0
 10 33  1  0  0  0  0
 11 10  2  0  0  0  0
 12 11  1  0  0  0  0
 13 12  2  0  0  0  0
 13 14  1  0  0  0  0
 14  9  2  0  0  0  0
 15  2  1  0  0  0  0
 16  3  1  0  0  0  0
 17  6  1  0  0  0  0
 18 12  1  0  0  0  0
 19 25  1  0  0  0  0
 20 19  1  0  0  0  0
 20 26  1  0  0  0  0
 21 20  2  0  0  0  0
 22 23  2  0  0  0  0
 22 21  1  0  0  0  0
 23 24  1  0  0  0  0
 24 19  2  0  0  0  0
 27 21  1  0  0  0  0
 27 31  1  0  0  0  0
 28 29  1  0  0  0  0
 28 27  1  0  0  0  0
 29 30  1  0  0  0  0
 30 31  1  0  0  0  0
 32 31  1  0  0  0  0
 33 34  1  0  0  0  0
 33 35  1  0  0  0  0
M  END
>  <minimizedAffinity>
-5.87357616

$$$$

 OpenBabel03262523003D

 35 39  0  0  0  0  0  0  0  0999 V2000
   36.2630   28.9800   31.9320 C   0  0  0  0  0  0  0  0  0  0  0  0
   36.4960   28.7620   30.5730 C   0  0  0  0  0  0  0  0  0  0  0  0
   36.7810   27.4330   30.3970 C   0  0  0  0  0  0  0  0  0  0  0  0
   36.7180   26.8580   31.6520 N   0  0  0  0  0  0  0  0  0  0  0  0
   36.4100   27.8100   32.5220 N   0  0  0  0  0  0  0  0  0  0  0  0
   36.9160   24.5330   30.8710 N   0  0  0  0  0  0  0  0  0  0  0  0
   36.9620   25.4710   31.8560 C   0  0  0  0  0  0  0  0  0  0  0  0
   37.2710   24.8220   32.9870 N   0  0  0  0  0  0  0  0  0  0  0  0
   37.4220   23.5050   32.7560 C   0  0  0  0  0  0  0  0  0  0  0  0
   37.7230   22.3790   33.4730 C   0  0  0  0  0  0  0  0  0  0  0  0
   37.7840   21.1840   32.8510 N   0  0  0  0  0  0  0  0  0  0  0  0
   37.5530   21.0520   31.5250 C   0  0  0  0  0  0  0  0  0  0  0  0
   37.2560   22.1340   30.7950 N   0  0  0  0  0  0  0  0  0  0  0  0
   37.1930   23.3280   31.4040 C   0  0  0  0  0  0  0  0  0  0  0  0
   36.4660   29.4860   29.7770 H   0  0  0  0  0  0  0  0  0  0  0  0
   37.0140   26.9210   29.4490 H   0  0  0  0  0  0  0  0  0  0  0  0
   36.6960   24.7110   29.8460 H   0  0  0  0  0  0  0  0  0  0  0  0
   37.6010   20.0940   31.0270 H   0  0  0  0  0  0  0  0  0  0  0  0
   35.8760   32.5940   32.3700 C   0  0  0  0  0  0  0  0  0  0  0  0
   35.2850   32.6850   33.6610 C   0  0  0  0  0  0  0  0  0  0  0  0
   35.0410   31.5010   34.3310 C   0  0  0  0  0  0  0  0  0  0  0  0
   35.3610   30.3160   33.7640 N   0  0  0  0  0  0  0  0  0  0  0  0
   35.9300   30.2610   32.5190 C   0  0  0  0  0  0  0  0  0  0  0  0
   36.1740   31.3940   31.8510 N   0  0  0  0  0  0  0  0  0  0  0  0
   36.0830   33.4950   31.8090 H   0  0  0  0  0  0  0  0  0  0  0  0
   35.0520   33.6400   34.0620 H   0  0  0  0  0  0  0  0  0  0  0  0
   34.4580   31.5060   35.6170 N   0  0  0  0  0  0  0  0  0  0  0  0
   33.2220   30.9020   36.0540 C   0  0  0  0  0  2  0  0  0  0  0  0
   32.6450   31.8270   37.1070 C   0  0  0  0  0  2  0  0  0  0  0  0
   33.7750   32.7320   37.5360 C   0  0  0  0  0  2  0  0  0  0  0  0
   34.9610   32.1220   36.8130 C   0  0  0  0  0  3  0  0  0  0  0  0
   35.4570   31.3750   37.4750 H   0  0  0  0  0  0  0  0  0  0  0  0
   37.9610   22.5430   34.8650 N   0  0  0  0  0  0  0  0  0  0  0  0
   38.9020   22.9590   34.9770 H   0  0  0  0  0  0  0  0  0  0  0  0
   37.1170   22.1970   35.3880 H   0  0  0  0  0  0  0  0  0  0  0  0
  1 23  1  0  0  0  0
  1  5  2  0  0  0  0
  2  1  1  0  0  0  0
  3  2  2  0  0  0  0
  3  4  1  0  0  0  0
  4  7  1  0  0  0  0
  4  5  1  0  0  0  0
  6 14  1  0  0  0  0
  6  7  1  0  0  0  0
  7  8  2  0  0  0  0
  9  8  1  0  0  0  0
  9 10  1  0  0  0  0
 10 33  1  0  0  0  0
 11 10  2  0  0  0  0
 12 11  1  0  0  0  0
 13 14  1  0  0  0  0
 13 12  2  0  0  0  0
 14  9  2  0  0  0  0
 15  2  1  0  0  0  0
 16  3  1  0  0  0  0
 17  6  1  0  0  0  0
 18 12  1  0  0  0  0
 19 20  1  0  0  0  0
 20 26  1  0  0  0  0
 20 21  2  0  0  0  0
 21 27  1  0  0  0  0
 22 21  1  0  0  0  0
 23 22  2  0  0  0  0
 24 19  2  0  0  0  0
 24 23  1  0  0  0  0
 25 19  1  0  0  0  0
 27 28  1  0  0  0  0
 27 31  1  0  0  0  0
 28 29  1  0  0  0  0
 29 30  1  0  0  0  0
 31 32  1  0  0  0  0
 31 30  1  0  0  0  0
 33 34  1  0  0  0  0
 33 35  1  0  0  0  0
M  END
>  <minimizedAffinity>
-5.87270975

$$$$
