
 OpenBabel03272510153D

 25 27  0  0  0  0  0  0  0  0999 V2000
   37.2680   29.3610   51.0610 Br  0  0  0  0  0  0  0  0  0  0  0  0
   35.9310   29.3260   49.6850 C   0  0  0  0  0  0  0  0  0  0  0  0
   35.9730   30.2280   48.6430 C   0  0  0  0  0  0  0  0  0  0  0  0
   34.9760   30.1450   47.6850 C   0  0  0  0  0  0  0  0  0  0  0  0
   33.9680   29.2150   47.7370 C   0  0  0  0  0  0  0  0  0  0  0  0
   33.9520   28.3340   48.7810 C   0  0  0  0  0  0  0  0  0  0  0  0
   34.9440   28.3940   49.7610 C   0  0  0  0  0  0  0  0  0  0  0  0
   35.0460   30.8700   46.8860 H   0  0  0  0  0  0  0  0  0  0  0  0
   33.1610   27.6150   48.8090 H   0  0  0  0  0  0  0  0  0  0  0  0
   34.9130   27.6860   50.5820 H   0  0  0  0  0  0  0  0  0  0  0  0
   37.9750   33.1700   49.4470 C   0  0  0  0  0  0  0  0  0  0  0  0
   39.0000   33.1630   48.4510 C   0  0  0  0  0  0  0  0  0  0  0  0
   38.9750   32.1270   47.5130 C   0  0  0  0  0  0  0  0  0  0  0  0
   37.9850   31.1910   47.5970 N   0  0  0  0  0  0  0  0  0  0  0  0
   37.0340   31.2350   48.5570 C   0  0  0  0  0  0  0  0  0  0  0  0
   37.0340   32.2220   49.4750 N   0  0  0  0  0  0  0  0  0  0  0  0
   38.0300   33.9910   50.1570 H   0  0  0  0  0  0  0  0  0  0  0  0
   39.7750   33.9180   48.4050 H   0  0  0  0  0  0  0  0  0  0  0  0
   39.7120   32.0440   46.7240 H   0  0  0  0  0  0  0  0  0  0  0  0
   32.9720   29.1790   46.7230 N   0  0  0  0  0  0  0  0  0  0  0  0
   32.8700   30.0480   45.5680 C   0  0  0  0  0  2  0  0  0  0  0  0
   31.9310   29.2940   44.6170 C   0  0  0  0  0  2  0  0  0  0  0  0
   30.9140   28.7550   45.6340 C   0  0  0  0  0  2  0  0  0  0  0  0
   31.8560   28.2260   46.6890 C   0  0  0  0  0  3  0  0  0  0  0  0
   32.2200   27.2290   46.3280 H   0  0  0  0  0  0  0  0  0  0  0  0
  2  7  1  0  0  0  0
  2  1  1  0  0  0  0
  3  2  2  0  0  0  0
  4  5  2  0  0  0  0
  4  3  1  0  0  0  0
  5  6  1  0  0  0  0
  6  9  1  0  0  0  0
  6  7  2  0  0  0  0
  7 10  1  0  0  0  0
  8  4  1  0  0  0  0
 11 16  1  0  0  0  0
 11 17  1  0  0  0  0
 12 11  2  0  0  0  0
 13 14  2  0  0  0  0
 13 12  1  0  0  0  0
 14 15  1  0  0  0  0
 15  3  1  0  0  0  0
 15 16  2  0  0  0  0
 18 12  1  0  0  0  0
 19 13  1  0  0  0  0
 20  5  1  0  0  0  0
 21 20  1  0  0  0  0
 22 21  1  0  0  0  0
 22 23  1  0  0  0  0
 23 24  1  0  0  0  0
 24 20  1  0  0  0  0
 25 24  1  0  0  0  0
M  END
>  <minimizedAffinity>
-5.70214033

>  <minimizedRMSD>
0.0676457137

$$$$
