
 OpenBabel03272506223D

 25 27  0  0  0  0  0  0  0  0999 V2000
   37.5690   21.8690   34.0240 C   0  0  0  0  0  0  0  0  0  0  0  0
   37.8960   23.1500   34.5130 C   0  0  0  0  0  0  0  0  0  0  0  0
   37.8400   24.1840   33.5930 C   0  0  0  0  0  0  0  0  0  0  0  0
   37.4830   23.9240   32.3080 N   0  0  0  0  0  0  0  0  0  0  0  0
   37.1790   22.6900   31.8780 C   0  0  0  0  0  0  0  0  0  0  0  0
   37.2220   21.6490   32.7490 N   0  0  0  0  0  0  0  0  0  0  0  0
   37.5880   21.0120   34.6680 H   0  0  0  0  0  0  0  0  0  0  0  0
   36.9030   22.5620   30.8380 H   0  0  0  0  0  0  0  0  0  0  0  0
   38.2560   23.2540   35.9150 C   0  0  0  0  0  0  0  0  0  0  0  0
   39.5190   22.8370   36.2640 C   0  0  0  0  0  0  0  0  0  0  0  0
   40.0260   22.8630   37.5420 C   0  0  0  0  0  0  0  0  0  0  0  0
   39.2040   23.3490   38.5780 C   0  0  0  0  0  0  0  0  0  0  0  0
   37.9300   23.7700   38.2250 C   0  0  0  0  0  0  0  0  0  0  0  0
   37.4640   23.7270   36.9380 C   0  0  0  0  0  0  0  0  0  0  0  0
   40.2220   22.4470   35.5360 H   0  0  0  0  0  0  0  0  0  0  0  0
   41.0220   22.5310   37.7980 H   0  0  0  0  0  0  0  0  0  0  0  0
   39.5130   23.4090   39.6140 H   0  0  0  0  0  0  0  0  0  0  0  0
   37.2720   24.1480   38.9880 H   0  0  0  0  0  0  0  0  0  0  0  0
   36.4620   24.0550   36.6450 H   0  0  0  0  0  0  0  0  0  0  0  0
   38.1700   25.4780   34.0880 N   0  0  0  0  0  0  0  0  0  0  0  0
   39.4480   26.1540   33.8160 C   0  0  0  0  0  2  0  0  0  0  0  0
   39.8690   26.3900   35.2730 C   0  0  0  0  0  2  0  0  0  0  0  0
   38.6190   27.1220   35.7470 C   0  0  0  0  0  2  0  0  0  0  0  0
   37.5260   26.4790   34.9030 C   0  0  0  0  0  3  0  0  0  0  0  0
   37.0740   27.2430   34.2040 H   0  0  0  0  0  0  0  0  0  0  0  0
  1  2  1  0  0  0  0
  1  7  1  0  0  0  0
  2  9  1  0  0  0  0
  3 20  1  0  0  0  0
  3  2  2  0  0  0  0
  4  3  1  0  0  0  0
  5  4  2  0  0  0  0
  5  6  1  0  0  0  0
  6  1  2  0  0  0  0
  8  5  1  0  0  0  0
  9 10  2  0  0  0  0
  9 14  1  0  0  0  0
 10 11  1  0  0  0  0
 11 16  1  0  0  0  0
 11 12  2  0  0  0  0
 12 17  1  0  0  0  0
 13 12  1  0  0  0  0
 13 18  1  0  0  0  0
 14 13  2  0  0  0  0
 15 10  1  0  0  0  0
 19 14  1  0  0  0  0
 20 24  1  0  0  0  0
 21 20  1  0  0  0  0
 21 22  1  0  0  0  0
 22 23  1  0  0  0  0
 24 23  1  0  0  0  0
 25 24  1  0  0  0  0
M  END
>  <minimizedAffinity>
-4.86336613

$$$$

 OpenBabel03272506223D

 25 27  0  0  0  0  0  0  0  0999 V2000
   35.5080   25.5630   30.9320 C   0  0  0  0  0  0  0  0  0  0  0  0
   36.1950   26.4220   31.8140 C   0  0  0  0  0  0  0  0  0  0  0  0
   37.0140   25.8070   32.7460 C   0  0  0  0  0  0  0  0  0  0  0  0
   37.1150   24.4530   32.7650 N   0  0  0  0  0  0  0  0  0  0  0  0
   36.4460   23.6660   31.9080 C   0  0  0  0  0  0  0  0  0  0  0  0
   35.6320   24.2300   30.9780 N   0  0  0  0  0  0  0  0  0  0  0  0
   34.8530   25.9560   30.1790 H   0  0  0  0  0  0  0  0  0  0  0  0
   36.5780   22.5940   31.9850 H   0  0  0  0  0  0  0  0  0  0  0  0
   35.9740   27.8480   31.6580 C   0  0  0  0  0  0  0  0  0  0  0  0
   36.6980   28.4850   30.6770 C   0  0  0  0  0  0  0  0  0  0  0  0
   36.6170   29.8280   30.3920 C   0  0  0  0  0  0  0  0  0  0  0  0
   35.7310   30.6200   31.1500 C   0  0  0  0  0  0  0  0  0  0  0  0
   35.0010   29.9770   32.1380 C   0  0  0  0  0  0  0  0  0  0  0  0
   35.1120   28.6360   32.3910 C   0  0  0  0  0  0  0  0  0  0  0  0
   37.4040   27.9580   30.0450 H   0  0  0  0  0  0  0  0  0  0  0  0
   37.1930   30.3110   29.6170 H   0  0  0  0  0  0  0  0  0  0  0  0
   35.5970   31.6830   31.0000 H   0  0  0  0  0  0  0  0  0  0  0  0
   34.3140   30.5470   32.7390 H   0  0  0  0  0  0  0  0  0  0  0  0
   34.5440   28.1150   33.1670 H   0  0  0  0  0  0  0  0  0  0  0  0
   37.7070   26.6750   33.6370 N   0  0  0  0  0  0  0  0  0  0  0  0
   39.0830   27.1460   33.4120 C   0  0  0  0  0  2  0  0  0  0  0  0
   39.6870   26.6500   34.7340 C   0  0  0  0  0  2  0  0  0  0  0  0
   38.7150   27.3310   35.6900 C   0  0  0  0  0  2  0  0  0  0  0  0
   37.4190   27.3330   34.8890 C   0  0  0  0  0  3  0  0  0  0  0  0
   37.1110   28.3920   34.6490 H   0  0  0  0  0  0  0  0  0  0  0  0
  1  6  2  0  0  0  0
  1  2  1  0  0  0  0
  2  3  2  0  0  0  0
  3  4  1  0  0  0  0
  3 20  1  0  0  0  0
  5  8  1  0  0  0  0
  5  4  2  0  0  0  0
  6  5  1  0  0  0  0
  7  1  1  0  0  0  0
  9  2  1  0  0  0  0
  9 14  1  0  0  0  0
 10  9  2  0  0  0  0
 11 10  1  0  0  0  0
 11 12  2  0  0  0  0
 12 13  1  0  0  0  0
 13 14  2  0  0  0  0
 13 18  1  0  0  0  0
 14 19  1  0  0  0  0
 15 10  1  0  0  0  0
 16 11  1  0  0  0  0
 17 12  1  0  0  0  0
 20 24  1  0  0  0  0
 21 20  1  0  0  0  0
 21 22  1  0  0  0  0
 22 23  1  0  0  0  0
 24 23  1  0  0  0  0
 25 24  1  0  0  0  0
M  END
>  <minimizedAffinity>
-4.7474947

$$$$

 OpenBabel03272506223D

 25 27  0  0  0  0  0  0  0  0999 V2000
   37.3230   21.6340   34.2610 C   0  0  0  0  0  0  0  0  0  0  0  0
   37.9370   22.8510   34.6200 C   0  0  0  0  0  0  0  0  0  0  0  0
   38.0090   23.8120   33.6250 C   0  0  0  0  0  0  0  0  0  0  0  0
   37.5020   23.5460   32.3930 N   0  0  0  0  0  0  0  0  0  0  0  0
   36.9250   22.3740   32.0860 C   0  0  0  0  0  0  0  0  0  0  0  0
   36.8340   21.4050   33.0340 N   0  0  0  0  0  0  0  0  0  0  0  0
   37.2260   20.8350   34.9690 H   0  0  0  0  0  0  0  0  0  0  0  0
   36.5440   22.2370   31.0820 H   0  0  0  0  0  0  0  0  0  0  0  0
   38.4250   22.9710   35.9810 C   0  0  0  0  0  0  0  0  0  0  0  0
   37.5600   23.5080   36.9070 C   0  0  0  0  0  0  0  0  0  0  0  0
   37.8550   23.6960   38.2360 C   0  0  0  0  0  0  0  0  0  0  0  0
   39.1300   23.3140   38.6990 C   0  0  0  0  0  0  0  0  0  0  0  0
   40.0010   22.7720   37.7660 C   0  0  0  0  0  0  0  0  0  0  0  0
   39.6680   22.6030   36.4490 C   0  0  0  0  0  0  0  0  0  0  0  0
   36.5590   23.8310   36.6430 H   0  0  0  0  0  0  0  0  0  0  0  0
   37.1620   24.1190   38.9490 H   0  0  0  0  0  0  0  0  0  0  0  0
   39.4540   23.4220   39.7260 H   0  0  0  0  0  0  0  0  0  0  0  0
   40.9850   22.4690   38.0800 H   0  0  0  0  0  0  0  0  0  0  0  0
   40.3440   22.1770   35.7020 H   0  0  0  0  0  0  0  0  0  0  0  0
   38.6280   25.0420   33.9900 N   0  0  0  0  0  0  0  0  0  0  0  0
   37.8810   26.2500   34.3710 C   0  0  0  0  0  2  0  0  0  0  0  0
   38.4860   27.2020   33.3290 C   0  0  0  0  0  2  0  0  0  0  0  0
   39.9580   26.9870   33.6630 C   0  0  0  0  0  2  0  0  0  0  0  0
   39.9790   25.5320   34.1160 C   0  0  0  0  0  3  0  0  0  0  0  0
   40.2600   25.4690   35.2080 H   0  0  0  0  0  0  0  0  0  0  0  0
  1  2  1  0  0  0  0
  1  7  1  0  0  0  0
  2  9  1  0  0  0  0
  3 20  1  0  0  0  0
  3  2  2  0  0  0  0
  4  3  1  0  0  0  0
  5  4  2  0  0  0  0
  5  6  1  0  0  0  0
  6  1  2  0  0  0  0
  8  5  1  0  0  0  0
  9 14  2  0  0  0  0
  9 10  1  0  0  0  0
 10 11  2  0  0  0  0
 11 12  1  0  0  0  0
 11 16  1  0  0  0  0
 12 17  1  0  0  0  0
 13 18  1  0  0  0  0
 13 12  2  0  0  0  0
 14 13  1  0  0  0  0
 15 10  1  0  0  0  0
 19 14  1  0  0  0  0
 20 24  1  0  0  0  0
 20 21  1  0  0  0  0
 22 23  1  0  0  0  0
 22 21  1  0  0  0  0
 23 24  1  0  0  0  0
 24 25  1  0  0  0  0
M  END
>  <minimizedAffinity>
-4.65238094

$$$$

 OpenBabel03272506223D

 25 27  0  0  0  0  0  0  0  0999 V2000
   37.4630   23.8500   32.3060 C   0  0  0  0  0  0  0  0  0  0  0  0
   37.8880   23.7610   33.6470 C   0  0  0  0  0  0  0  0  0  0  0  0
   37.8000   22.5070   34.2300 C   0  0  0  0  0  0  0  0  0  0  0  0
   37.3260   21.4590   33.5070 N   0  0  0  0  0  0  0  0  0  0  0  0
   36.9290   21.5820   32.2310 C   0  0  0  0  0  0  0  0  0  0  0  0
   37.0000   22.7950   31.6220 N   0  0  0  0  0  0  0  0  0  0  0  0
   37.4970   24.7830   31.7780 H   0  0  0  0  0  0  0  0  0  0  0  0
   36.5620   20.7010   31.7200 H   0  0  0  0  0  0  0  0  0  0  0  0
   38.3680   24.9780   34.2730 C   0  0  0  0  0  0  0  0  0  0  0  0
   37.4150   25.8540   34.7400 C   0  0  0  0  0  0  0  0  0  0  0  0
   37.6890   27.0510   35.3580 C   0  0  0  0  0  0  0  0  0  0  0  0
   39.0380   27.4200   35.5330 C   0  0  0  0  0  0  0  0  0  0  0  0
   39.9980   26.5370   35.0620 C   0  0  0  0  0  0  0  0  0  0  0  0
   39.6820   25.3530   34.4520 C   0  0  0  0  0  0  0  0  0  0  0  0
   36.3530   25.6550   34.6500 H   0  0  0  0  0  0  0  0  0  0  0  0
   36.9270   27.7270   35.7190 H   0  0  0  0  0  0  0  0  0  0  0  0
   39.3530   28.3410   36.0070 H   0  0  0  0  0  0  0  0  0  0  0  0
   41.0400   26.7830   35.1770 H   0  0  0  0  0  0  0  0  0  0  0  0
   40.4280   24.6460   34.0760 H   0  0  0  0  0  0  0  0  0  0  0  0
   38.2300   22.4180   35.5850 N   0  0  0  0  0  0  0  0  0  0  0  0
   37.3190   22.5030   36.7370 C   0  0  0  0  0  2  0  0  0  0  0  0
   38.0080   23.6720   37.4560 C   0  0  0  0  0  2  0  0  0  0  0  0
   39.4110   23.0820   37.5390 C   0  0  0  0  0  2  0  0  0  0  0  0
   39.4860   22.2410   36.2710 C   0  0  0  0  0  3  0  0  0  0  0  0
   39.5750   21.1470   36.5340 H   0  0  0  0  0  0  0  0  0  0  0  0
  1  2  1  0  0  0  0
  2  3  2  0  0  0  0
  2  9  1  0  0  0  0
  3 20  1  0  0  0  0
  4  3  1  0  0  0  0
  5  4  2  0  0  0  0
  6  5  1  0  0  0  0
  6  1  2  0  0  0  0
  7  1  1  0  0  0  0
  8  5  1  0  0  0  0
  9 14  2  0  0  0  0
  9 10  1  0  0  0  0
 10 11  2  0  0  0  0
 11 12  1  0  0  0  0
 11 16  1  0  0  0  0
 12 17  1  0  0  0  0
 13 18  1  0  0  0  0
 13 12  2  0  0  0  0
 14 13  1  0  0  0  0
 15 10  1  0  0  0  0
 19 14  1  0  0  0  0
 20 24  1  0  0  0  0
 20 21  1  0  0  0  0
 21 22  1  0  0  0  0
 22 23  1  0  0  0  0
 24 25  1  0  0  0  0
 24 23  1  0  0  0  0
M  END
>  <minimizedAffinity>
-4.57111883

$$$$

 OpenBabel03272506223D

 25 27  0  0  0  0  0  0  0  0999 V2000
   38.8250   23.6690   36.9080 C   0  0  0  0  0  0  0  0  0  0  0  0
   39.3930   24.4060   35.8480 C   0  0  0  0  0  0  0  0  0  0  0  0
   40.6860   24.0610   35.4940 C   0  0  0  0  0  0  0  0  0  0  0  0
   41.3240   23.0630   36.1580 N   0  0  0  0  0  0  0  0  0  0  0  0
   40.7520   22.3820   37.1630 C   0  0  0  0  0  0  0  0  0  0  0  0
   39.4840   22.6900   37.5420 N   0  0  0  0  0  0  0  0  0  0  0  0
   37.8280   23.8700   37.2470 H   0  0  0  0  0  0  0  0  0  0  0  0
   41.3240   21.5990   37.6450 H   0  0  0  0  0  0  0  0  0  0  0  0
   38.5730   25.4400   35.2460 C   0  0  0  0  0  0  0  0  0  0  0  0
   38.5210   26.6500   35.8990 C   0  0  0  0  0  0  0  0  0  0  0  0
   37.7970   27.7390   35.4720 C   0  0  0  0  0  0  0  0  0  0  0  0
   37.0500   27.6210   34.2830 C   0  0  0  0  0  0  0  0  0  0  0  0
   37.1030   26.4010   33.6250 C   0  0  0  0  0  0  0  0  0  0  0  0
   37.8380   25.3410   34.0850 C   0  0  0  0  0  0  0  0  0  0  0  0
   39.0620   26.8340   36.8200 H   0  0  0  0  0  0  0  0  0  0  0  0
   37.7690   28.6820   35.9990 H   0  0  0  0  0  0  0  0  0  0  0  0
   36.4510   28.4210   33.8680 H   0  0  0  0  0  0  0  0  0  0  0  0
   36.5460   26.2710   32.7140 H   0  0  0  0  0  0  0  0  0  0  0  0
   37.8890   24.3730   33.5770 H   0  0  0  0  0  0  0  0  0  0  0  0
   41.2590   24.8060   34.4230 N   0  0  0  0  0  0  0  0  0  0  0  0
   42.2250   25.9000   34.6150 C   0  0  0  0  0  2  0  0  0  0  0  0
   41.4460   26.9930   33.8700 C   0  0  0  0  0  2  0  0  0  0  0  0
   41.2580   26.2650   32.5450 C   0  0  0  0  0  2  0  0  0  0  0  0
   41.1600   24.8090   32.9840 C   0  0  0  0  0  3  0  0  0  0  0  0
   42.0380   24.2220   32.5850 H   0  0  0  0  0  0  0  0  0  0  0  0
  1  7  1  0  0  0  0
  1  6  1  0  0  0  0
  2  1  2  0  0  0  0
  3  2  1  0  0  0  0
  3  4  2  0  0  0  0
  4  5  1  0  0  0  0
  5  6  2  0  0  0  0
  5  8  1  0  0  0  0
  9  2  1  0  0  0  0
  9 10  1  0  0  0  0
 10 15  1  0  0  0  0
 11 10  2  0  0  0  0
 11 16  1  0  0  0  0
 12 11  1  0  0  0  0
 13 14  1  0  0  0  0
 13 12  2  0  0  0  0
 14  9  2  0  0  0  0
 17 12  1  0  0  0  0
 18 13  1  0  0  0  0
 19 14  1  0  0  0  0
 20 21  1  0  0  0  0
 20  3  1  0  0  0  0
 22 21  1  0  0  0  0
 23 24  1  0  0  0  0
 23 22  1  0  0  0  0
 24 20  1  0  0  0  0
 25 24  1  0  0  0  0
M  END
>  <minimizedAffinity>
-4.51316452

$$$$

 OpenBabel03272506223D

 25 27  0  0  0  0  0  0  0  0999 V2000
   35.6580   24.2570   31.1700 C   0  0  0  0  0  0  0  0  0  0  0  0
   36.4460   23.3510   31.9080 C   0  0  0  0  0  0  0  0  0  0  0  0
   37.3770   23.9150   32.7650 C   0  0  0  0  0  0  0  0  0  0  0  0
   37.4820   25.2670   32.8520 N   0  0  0  0  0  0  0  0  0  0  0  0
   36.7130   26.0990   32.1320 C   0  0  0  0  0  0  0  0  0  0  0  0
   35.7880   25.5860   31.2800 N   0  0  0  0  0  0  0  0  0  0  0  0
   34.9130   23.9060   30.4830 H   0  0  0  0  0  0  0  0  0  0  0  0
   36.8550   27.1650   32.2560 H   0  0  0  0  0  0  0  0  0  0  0  0
   36.2060   21.9370   31.6960 C   0  0  0  0  0  0  0  0  0  0  0  0
   35.1480   21.3770   32.3760 C   0  0  0  0  0  0  0  0  0  0  0  0
   34.7760   20.0560   32.2950 C   0  0  0  0  0  0  0  0  0  0  0  0
   35.5240   19.2010   31.4600 C   0  0  0  0  0  0  0  0  0  0  0  0
   36.5900   19.7660   30.7750 C   0  0  0  0  0  0  0  0  0  0  0  0
   36.9260   21.0880   30.8840 C   0  0  0  0  0  0  0  0  0  0  0  0
   34.5170   21.9560   33.0410 H   0  0  0  0  0  0  0  0  0  0  0  0
   33.9420   19.6350   32.8360 H   0  0  0  0  0  0  0  0  0  0  0  0
   35.3090   18.1480   31.3300 H   0  0  0  0  0  0  0  0  0  0  0  0
   37.1850   19.1460   30.1270 H   0  0  0  0  0  0  0  0  0  0  0  0
   37.7640   21.5470   30.3500 H   0  0  0  0  0  0  0  0  0  0  0  0
   38.1730   22.9990   33.5110 N   0  0  0  0  0  0  0  0  0  0  0  0
   37.7730   22.4440   34.8140 C   0  0  0  0  0  2  0  0  0  0  0  0
   39.0050   22.8940   35.6140 C   0  0  0  0  0  2  0  0  0  0  0  0
   40.0800   22.2700   34.7320 C   0  0  0  0  0  2  0  0  0  0  0  0
   39.4530   22.3540   33.3460 C   0  0  0  0  0  3  0  0  0  0  0  0
   39.2580   21.3180   32.9430 H   0  0  0  0  0  0  0  0  0  0  0  0
  1  6  2  0  0  0  0
  1  2  1  0  0  0  0
  2  3  2  0  0  0  0
  3  4  1  0  0  0  0
  3 20  1  0  0  0  0
  5  8  1  0  0  0  0
  5  4  2  0  0  0  0
  6  5  1  0  0  0  0
  7  1  1  0  0  0  0
  9  2  1  0  0  0  0
  9 10  1  0  0  0  0
 10 15  1  0  0  0  0
 11 10  2  0  0  0  0
 11 16  1  0  0  0  0
 12 11  1  0  0  0  0
 13 14  1  0  0  0  0
 13 12  2  0  0  0  0
 14  9  2  0  0  0  0
 17 12  1  0  0  0  0
 18 13  1  0  0  0  0
 19 14  1  0  0  0  0
 20 21  1  0  0  0  0
 21 22  1  0  0  0  0
 23 22  1  0  0  0  0
 24 20  1  0  0  0  0
 24 23  1  0  0  0  0
 25 24  1  0  0  0  0
M  END
>  <minimizedAffinity>
-4.42848253

$$$$

 OpenBabel03272506223D

 25 27  0  0  0  0  0  0  0  0999 V2000
   40.0120   27.4730   31.0830 C   0  0  0  0  0  0  0  0  0  0  0  0
   39.0260   26.6480   31.6630 C   0  0  0  0  0  0  0  0  0  0  0  0
   38.5700   25.6020   30.8790 C   0  0  0  0  0  0  0  0  0  0  0  0
   39.0770   25.4250   29.6310 N   0  0  0  0  0  0  0  0  0  0  0  0
   40.0150   26.2310   29.1100 C   0  0  0  0  0  0  0  0  0  0  0  0
   40.4890   27.2680   29.8480 N   0  0  0  0  0  0  0  0  0  0  0  0
   40.4200   28.3050   31.6200 H   0  0  0  0  0  0  0  0  0  0  0  0
   40.3700   26.0250   28.1080 H   0  0  0  0  0  0  0  0  0  0  0  0
   38.5950   26.9780   33.0090 C   0  0  0  0  0  0  0  0  0  0  0  0
   39.4890   26.7330   34.0260 C   0  0  0  0  0  0  0  0  0  0  0  0
   39.2480   26.9820   35.3560 C   0  0  0  0  0  0  0  0  0  0  0  0
   38.0010   27.5290   35.7190 C   0  0  0  0  0  0  0  0  0  0  0  0
   37.1000   27.7760   34.6930 C   0  0  0  0  0  0  0  0  0  0  0  0
   37.3800   27.5120   33.3790 C   0  0  0  0  0  0  0  0  0  0  0  0
   40.4720   26.3130   33.8430 H   0  0  0  0  0  0  0  0  0  0  0  0
   39.9640   26.7830   36.1410 H   0  0  0  0  0  0  0  0  0  0  0  0
   37.7190   27.7600   36.7380 H   0  0  0  0  0  0  0  0  0  0  0  0
   36.1360   28.1930   34.9300 H   0  0  0  0  0  0  0  0  0  0  0  0
   36.6800   27.7010   32.5600 H   0  0  0  0  0  0  0  0  0  0  0  0
   37.5750   24.7700   31.4660 N   0  0  0  0  0  0  0  0  0  0  0  0
   37.8810   23.5880   32.2880 C   0  0  0  0  0  2  0  0  0  0  0  0
   37.0870   22.5590   31.4700 C   0  0  0  0  0  2  0  0  0  0  0  0
   35.7350   23.2620   31.4840 C   0  0  0  0  0  2  0  0  0  0  0  0
   36.1330   24.7330   31.5010 C   0  0  0  0  0  3  0  0  0  0  0  0
   35.8070   25.2130   32.4690 H   0  0  0  0  0  0  0  0  0  0  0  0
  1  7  1  0  0  0  0
  1  2  1  0  0  0  0
  2  9  1  0  0  0  0
  3 20  1  0  0  0  0
  3  2  2  0  0  0  0
  4  3  1  0  0  0  0
  5  4  2  0  0  0  0
  5  6  1  0  0  0  0
  6  1  2  0  0  0  0
  8  5  1  0  0  0  0
  9 14  2  0  0  0  0
  9 10  1  0  0  0  0
 10 11  2  0  0  0  0
 11 12  1  0  0  0  0
 11 16  1  0  0  0  0
 12 17  1  0  0  0  0
 13 18  1  0  0  0  0
 13 12  2  0  0  0  0
 14 13  1  0  0  0  0
 15 10  1  0  0  0  0
 19 14  1  0  0  0  0
 20 24  1  0  0  0  0
 20 21  1  0  0  0  0
 22 23  1  0  0  0  0
 22 21  1  0  0  0  0
 23 24  1  0  0  0  0
 24 25  1  0  0  0  0
M  END
>  <minimizedAffinity>
-4.40751982

$$$$

 OpenBabel03272506223D

 25 27  0  0  0  0  0  0  0  0999 V2000
   36.9740   24.4160   32.2890 C   0  0  0  0  0  0  0  0  0  0  0  0
   37.1910   25.8060   32.3860 C   0  0  0  0  0  0  0  0  0  0  0  0
   36.2610   26.6110   31.7480 C   0  0  0  0  0  0  0  0  0  0  0  0
   35.2200   26.0440   31.0850 N   0  0  0  0  0  0  0  0  0  0  0  0
   35.0460   24.7150   31.0140 C   0  0  0  0  0  0  0  0  0  0  0  0
   35.9360   23.8910   31.6260 N   0  0  0  0  0  0  0  0  0  0  0  0
   37.6460   23.7210   32.7530 H   0  0  0  0  0  0  0  0  0  0  0  0
   34.1910   24.3380   30.4670 H   0  0  0  0  0  0  0  0  0  0  0  0
   38.3530   26.2460   33.1330 C   0  0  0  0  0  0  0  0  0  0  0  0
   39.5230   26.4050   32.4260 C   0  0  0  0  0  0  0  0  0  0  0  0
   40.7180   26.8130   32.9710 C   0  0  0  0  0  0  0  0  0  0  0  0
   40.7620   27.0930   34.3520 C   0  0  0  0  0  0  0  0  0  0  0  0
   39.5820   26.9330   35.0640 C   0  0  0  0  0  0  0  0  0  0  0  0
   38.4130   26.5240   34.4820 C   0  0  0  0  0  0  0  0  0  0  0  0
   39.5850   26.2130   31.3610 H   0  0  0  0  0  0  0  0  0  0  0  0
   41.6270   26.9330   32.3990 H   0  0  0  0  0  0  0  0  0  0  0  0
   41.6540   27.4200   34.8700 H   0  0  0  0  0  0  0  0  0  0  0  0
   39.5750   27.1370   36.1210 H   0  0  0  0  0  0  0  0  0  0  0  0
   37.4750   26.3930   35.0300 H   0  0  0  0  0  0  0  0  0  0  0  0
   36.4800   28.0150   31.8460 N   0  0  0  0  0  0  0  0  0  0  0  0
   35.9160   28.8570   32.9130 C   0  0  0  0  0  2  0  0  0  0  0  0
   35.1850   29.8640   32.0140 C   0  0  0  0  0  2  0  0  0  0  0  0
   36.3670   30.2870   31.1510 C   0  0  0  0  0  2  0  0  0  0  0  0
   37.2020   29.0130   31.0950 C   0  0  0  0  0  3  0  0  0  0  0  0
   38.1920   29.1740   31.6130 H   0  0  0  0  0  0  0  0  0  0  0  0
  1  2  1  0  0  0  0
  1  7  1  0  0  0  0
  2  9  1  0  0  0  0
  3 20  1  0  0  0  0
  3  2  2  0  0  0  0
  4  3  1  0  0  0  0
  5  4  2  0  0  0  0
  5  6  1  0  0  0  0
  6  1  2  0  0  0  0
  8  5  1  0  0  0  0
  9 14  1  0  0  0  0
 10 11  1  0  0  0  0
 10  9  2  0  0  0  0
 11 12  2  0  0  0  0
 12 17  1  0  0  0  0
 12 13  1  0  0  0  0
 13 18  1  0  0  0  0
 14 19  1  0  0  0  0
 14 13  2  0  0  0  0
 15 10  1  0  0  0  0
 16 11  1  0  0  0  0
 20 21  1  0  0  0  0
 22 21  1  0  0  0  0
 23 22  1  0  0  0  0
 24 23  1  0  0  0  0
 24 25  1  0  0  0  0
 24 20  1  0  0  0  0
M  END
>  <minimizedAffinity>
-4.40672779

$$$$

 OpenBabel03272506223D

 25 27  0  0  0  0  0  0  0  0999 V2000
   35.1410   24.1600   31.0140 C   0  0  0  0  0  0  0  0  0  0  0  0
   36.1090   23.5310   31.8240 C   0  0  0  0  0  0  0  0  0  0  0  0
   37.0580   24.3640   32.3940 C   0  0  0  0  0  0  0  0  0  0  0  0
   37.0120   25.7010   32.1560 N   0  0  0  0  0  0  0  0  0  0  0  0
   36.0750   26.2650   31.3780 C   0  0  0  0  0  0  0  0  0  0  0  0
   35.1260   25.4830   30.8000 N   0  0  0  0  0  0  0  0  0  0  0  0
   34.3710   23.5900   30.5340 H   0  0  0  0  0  0  0  0  0  0  0  0
   36.1040   27.3380   31.2350 H   0  0  0  0  0  0  0  0  0  0  0  0
   36.0140   22.0920   31.9750 C   0  0  0  0  0  0  0  0  0  0  0  0
   36.4870   21.3260   30.9340 C   0  0  0  0  0  0  0  0  0  0  0  0
   36.4750   19.9510   30.9060 C   0  0  0  0  0  0  0  0  0  0  0  0
   35.9450   19.2640   32.0170 C   0  0  0  0  0  0  0  0  0  0  0  0
   35.4690   20.0370   33.0660 C   0  0  0  0  0  0  0  0  0  0  0  0
   35.4990   21.4060   33.0530 C   0  0  0  0  0  0  0  0  0  0  0  0
   36.9120   21.7650   30.0390 H   0  0  0  0  0  0  0  0  0  0  0  0
   36.8520   19.3660   30.0800 H   0  0  0  0  0  0  0  0  0  0  0  0
   35.8930   18.1850   32.0880 H   0  0  0  0  0  0  0  0  0  0  0  0
   35.0560   19.5500   33.9320 H   0  0  0  0  0  0  0  0  0  0  0  0
   35.1270   22.0280   33.8720 H   0  0  0  0  0  0  0  0  0  0  0  0
   38.0350   23.7280   33.2120 N   0  0  0  0  0  0  0  0  0  0  0  0
   39.3580   23.3080   32.7260 C   0  0  0  0  0  2  0  0  0  0  0  0
   39.2590   21.8270   33.1180 C   0  0  0  0  0  2  0  0  0  0  0  0
   38.9290   22.0110   34.5940 C   0  0  0  0  0  2  0  0  0  0  0  0
   38.1290   23.3080   34.5890 C   0  0  0  0  0  3  0  0  0  0  0  0
   38.6880   24.1120   35.1500 H   0  0  0  0  0  0  0  0  0  0  0  0
  1  2  1  0  0  0  0
  2  9  1  0  0  0  0
  2  3  2  0  0  0  0
  3 20  1  0  0  0  0
  4  3  1  0  0  0  0
  5  4  2  0  0  0  0
  6  1  2  0  0  0  0
  6  5  1  0  0  0  0
  7  1  1  0  0  0  0
  8  5  1  0  0  0  0
  9 14  1  0  0  0  0
 10  9  2  0  0  0  0
 11 10  1  0  0  0  0
 11 12  2  0  0  0  0
 12 17  1  0  0  0  0
 12 13  1  0  0  0  0
 13 18  1  0  0  0  0
 14 13  2  0  0  0  0
 14 19  1  0  0  0  0
 15 10  1  0  0  0  0
 16 11  1  0  0  0  0
 20 24  1  0  0  0  0
 21 22  1  0  0  0  0
 21 20  1  0  0  0  0
 22 23  1  0  0  0  0
 24 23  1  0  0  0  0
 24 25  1  0  0  0  0
M  END
>  <minimizedAffinity>
-4.34127808

$$$$
