
 OpenBabel03272509123D

 25 27  0  0  0  0  0  0  0  0999 V2000
   37.4650   23.7680   32.4350 C   0  0  0  0  0  0  0  0  0  0  0  0
   37.9550   24.0100   33.7590 C   0  0  0  0  0  0  0  0  0  0  0  0
   37.9180   22.9330   34.6470 C   0  0  0  0  0  0  0  0  0  0  0  0
   37.4280   21.7280   34.2290 N   0  0  0  0  0  0  0  0  0  0  0  0
   36.9740   21.5440   32.9730 C   0  0  0  0  0  0  0  0  0  0  0  0
   36.9940   22.5560   32.0840 N   0  0  0  0  0  0  0  0  0  0  0  0
   37.4660   24.5660   31.6910 H   0  0  0  0  0  0  0  0  0  0  0  0
   36.6170   20.5390   32.7890 H   0  0  0  0  0  0  0  0  0  0  0  0
   38.3840   23.0570   36.0080 C   0  0  0  0  0  0  0  0  0  0  0  0
   37.5390   23.5660   36.9520 C   0  0  0  0  0  0  0  0  0  0  0  0
   37.8950   23.7160   38.2810 C   0  0  0  0  0  0  0  0  0  0  0  0
   39.1850   23.3170   38.6330 C   0  0  0  0  0  0  0  0  0  0  0  0
   40.1050   22.7880   37.7210 C   0  0  0  0  0  0  0  0  0  0  0  0
   39.6550   22.6750   36.4020 C   0  0  0  0  0  0  0  0  0  0  0  0
   36.5340   23.9260   36.8200 H   0  0  0  0  0  0  0  0  0  0  0  0
   37.2940   24.1030   39.0730 H   0  0  0  0  0  0  0  0  0  0  0  0
   39.5630   23.3940   39.6520 H   0  0  0  0  0  0  0  0  0  0  0  0
   41.0940   22.4930   38.0370 H   0  0  0  0  0  0  0  0  0  0  0  0
   40.3400   22.2720   35.6870 H   0  0  0  0  0  0  0  0  0  0  0  0
   38.3840   25.3290   34.0050 N   0  0  0  0  0  0  0  0  0  0  0  0
   39.6330   26.0990   33.9250 C   0  0  0  0  0  2  0  0  0  0  0  0
   39.6980   26.7490   35.3030 C   0  0  0  0  0  2  0  0  0  0  0  0
   38.2400   27.0250   35.6430 C   0  0  0  0  0  2  0  0  0  0  0  0
   37.4740   26.3610   34.5170 C   0  0  0  0  0  3  0  0  0  0  0  0
   37.2920   27.1350   33.7570 H   0  0  0  0  0  0  0  0  0  0  0  0
  1  2  1  0  0  0  0
  2 20  1  0  0  0  0
  2  3  2  0  0  0  0
  3  9  1  0  0  0  0
  4  3  1  0  0  0  0
  5  4  2  0  0  0  0
  6  1  2  0  0  0  0
  6  5  1  0  0  0  0
  7  1  1  0  0  0  0
  8  5  1  0  0  0  0
  9 14  2  0  0  0  0
  9 10  1  0  0  0  0
 10 11  2  0  0  0  0
 11 12  1  0  0  0  0
 11 16  1  0  0  0  0
 12 17  1  0  0  0  0
 13 18  1  0  0  0  0
 13 12  2  0  0  0  0
 14 13  1  0  0  0  0
 15 10  1  0  0  0  0
 19 14  1  0  0  0  0
 20 24  1  0  0  0  0
 21 20  1  0  0  0  0
 21 22  1  0  0  0  0
 22 23  1  0  0  0  0
 24 23  1  0  0  0  0
 25 24  1  0  0  0  0
M  END
>  <minimizedAffinity>
-5.06708241

$$$$

 OpenBabel03272509123D

 25 27  0  0  0  0  0  0  0  0999 V2000
   37.3090   24.6060   32.8230 C   0  0  0  0  0  0  0  0  0  0  0  0
   37.1810   26.0280   32.6930 C   0  0  0  0  0  0  0  0  0  0  0  0
   36.2540   26.4910   31.7580 C   0  0  0  0  0  0  0  0  0  0  0  0
   35.5280   25.5950   31.0260 N   0  0  0  0  0  0  0  0  0  0  0  0
   35.6800   24.2640   31.1780 C   0  0  0  0  0  0  0  0  0  0  0  0
   36.5630   23.7760   32.0700 N   0  0  0  0  0  0  0  0  0  0  0  0
   38.0150   24.1770   33.5350 H   0  0  0  0  0  0  0  0  0  0  0  0
   35.0380   23.6830   30.5300 H   0  0  0  0  0  0  0  0  0  0  0  0
   36.0390   27.9020   31.5390 C   0  0  0  0  0  0  0  0  0  0  0  0
   36.7380   28.5300   30.5490 C   0  0  0  0  0  0  0  0  0  0  0  0
   36.5940   29.8760   30.2610 C   0  0  0  0  0  0  0  0  0  0  0  0
   35.6820   30.5900   31.0410 C   0  0  0  0  0  0  0  0  0  0  0  0
   34.9320   30.0130   32.0720 C   0  0  0  0  0  0  0  0  0  0  0  0
   35.1460   28.6480   32.2880 C   0  0  0  0  0  0  0  0  0  0  0  0
   37.4780   28.1130   29.8890 H   0  0  0  0  0  0  0  0  0  0  0  0
   37.1000   30.4360   29.5070 H   0  0  0  0  0  0  0  0  0  0  0  0
   35.4950   31.6530   30.8960 H   0  0  0  0  0  0  0  0  0  0  0  0
   34.2390   30.6030   32.6510 H   0  0  0  0  0  0  0  0  0  0  0  0
   34.5830   28.1850   33.0710 H   0  0  0  0  0  0  0  0  0  0  0  0
   38.0460   26.7810   33.5120 N   0  0  0  0  0  0  0  0  0  0  0  0
   39.4640   27.1690   33.5280 C   0  0  0  0  0  2  0  0  0  0  0  0
   39.8870   26.7750   34.9380 C   0  0  0  0  0  2  0  0  0  0  0  0
   38.6490   27.0490   35.7800 C   0  0  0  0  0  2  0  0  0  0  0  0
   37.5890   27.4090   34.7570 C   0  0  0  0  0  3  0  0  0  0  0  0
   37.5940   28.5050   34.6690 H   0  0  0  0  0  0  0  0  0  0  0  0
  1  7  1  0  0  0  0
  2  1  1  0  0  0  0
  2 20  1  0  0  0  0
  3  2  2  0  0  0  0
  4  5  2  0  0  0  0
  4  3  1  0  0  0  0
  5  6  1  0  0  0  0
  6  1  2  0  0  0  0
  8  5  1  0  0  0  0
  9  3  1  0  0  0  0
  9 14  1  0  0  0  0
 10  9  2  0  0  0  0
 11 10  1  0  0  0  0
 11 12  2  0  0  0  0
 12 13  1  0  0  0  0
 13 14  2  0  0  0  0
 13 18  1  0  0  0  0
 14 19  1  0  0  0  0
 15 10  1  0  0  0  0
 16 11  1  0  0  0  0
 17 12  1  0  0  0  0
 20 21  1  0  0  0  0
 20 24  1  0  0  0  0
 21 22  1  0  0  0  0
 22 23  1  0  0  0  0
 24 23  1  0  0  0  0
 25 24  1  0  0  0  0
M  END
>  <minimizedAffinity>
-4.77850294

$$$$

 OpenBabel03272509123D

 25 27  0  0  0  0  0  0  0  0999 V2000
   35.2350   26.1660   30.8890 C   0  0  0  0  0  0  0  0  0  0  0  0
   36.1490   26.7000   31.8550 C   0  0  0  0  0  0  0  0  0  0  0  0
   36.8740   25.7750   32.6080 C   0  0  0  0  0  0  0  0  0  0  0  0
   36.6860   24.4380   32.4000 N   0  0  0  0  0  0  0  0  0  0  0  0
   35.8140   23.9770   31.4820 C   0  0  0  0  0  0  0  0  0  0  0  0
   35.0960   24.8350   30.7330 N   0  0  0  0  0  0  0  0  0  0  0  0
   34.6370   26.8330   30.2660 H   0  0  0  0  0  0  0  0  0  0  0  0
   35.7740   22.8980   31.4320 H   0  0  0  0  0  0  0  0  0  0  0  0
   37.8240   26.1940   33.6120 C   0  0  0  0  0  0  0  0  0  0  0  0
   37.4080   26.3080   34.9070 C   0  0  0  0  0  0  0  0  0  0  0  0
   38.2470   26.6960   35.9370 C   0  0  0  0  0  0  0  0  0  0  0  0
   39.5720   26.9750   35.5950 C   0  0  0  0  0  0  0  0  0  0  0  0
   40.0680   26.8810   34.2900 C   0  0  0  0  0  0  0  0  0  0  0  0
   39.1460   26.4810   33.3190 C   0  0  0  0  0  0  0  0  0  0  0  0
   36.4230   26.1440   35.3070 H   0  0  0  0  0  0  0  0  0  0  0  0
   37.9990   26.8070   36.9690 H   0  0  0  0  0  0  0  0  0  0  0  0
   40.3120   27.2880   36.3310 H   0  0  0  0  0  0  0  0  0  0  0  0
   41.1000   27.1070   34.0710 H   0  0  0  0  0  0  0  0  0  0  0  0
   39.5020   26.4010   32.3130 H   0  0  0  0  0  0  0  0  0  0  0  0
   36.1700   28.1050   31.9430 N   0  0  0  0  0  0  0  0  0  0  0  0
   35.4480   29.1600   32.6690 C   0  0  0  0  0  2  0  0  0  0  0  0
   35.0460   30.1060   31.5440 C   0  0  0  0  0  2  0  0  0  0  0  0
   36.2110   30.0250   30.5670 C   0  0  0  0  0  2  0  0  0  0  0  0
   37.0830   28.9230   31.1350 C   0  0  0  0  0  3  0  0  0  0  0  0
   37.8370   29.4110   31.7690 H   0  0  0  0  0  0  0  0  0  0  0  0
  1  2  1  0  0  0  0
  2 20  1  0  0  0  0
  2  3  2  0  0  0  0
  3  9  1  0  0  0  0
  4  3  1  0  0  0  0
  5  4  2  0  0  0  0
  6  1  2  0  0  0  0
  6  5  1  0  0  0  0
  7  1  1  0  0  0  0
  8  5  1  0  0  0  0
  9 10  1  0  0  0  0
 10 15  1  0  0  0  0
 10 11  2  0  0  0  0
 11 16  1  0  0  0  0
 12 11  1  0  0  0  0
 12 17  1  0  0  0  0
 13 12  2  0  0  0  0
 14  9  2  0  0  0  0
 14 13  1  0  0  0  0
 18 13  1  0  0  0  0
 19 14  1  0  0  0  0
 20 21  1  0  0  0  0
 22 21  1  0  0  0  0
 23 24  1  0  0  0  0
 23 22  1  0  0  0  0
 24 25  1  0  0  0  0
 24 20  1  0  0  0  0
M  END
>  <minimizedAffinity>
-4.59619522

$$$$

 OpenBabel03272509123D

 25 27  0  0  0  0  0  0  0  0999 V2000
   37.1630   25.6920   32.3590 C   0  0  0  0  0  0  0  0  0  0  0  0
   37.1520   24.2590   32.3930 C   0  0  0  0  0  0  0  0  0  0  0  0
   36.1180   23.6250   31.7020 C   0  0  0  0  0  0  0  0  0  0  0  0
   35.1860   24.3750   31.0420 N   0  0  0  0  0  0  0  0  0  0  0  0
   35.2330   25.7220   31.0370 C   0  0  0  0  0  0  0  0  0  0  0  0
   36.2140   26.3740   31.6910 N   0  0  0  0  0  0  0  0  0  0  0  0
   37.9440   26.2500   32.8790 H   0  0  0  0  0  0  0  0  0  0  0  0
   34.4290   26.1770   30.4740 H   0  0  0  0  0  0  0  0  0  0  0  0
   36.0020   22.1860   31.6650 C   0  0  0  0  0  0  0  0  0  0  0  0
   36.8150   21.4800   30.8260 C   0  0  0  0  0  0  0  0  0  0  0  0
   36.7810   20.1010   30.7270 C   0  0  0  0  0  0  0  0  0  0  0  0
   35.8580   19.4360   31.5360 C   0  0  0  0  0  0  0  0  0  0  0  0
   34.9920   20.0930   32.4180 C   0  0  0  0  0  0  0  0  0  0  0  0
   35.1010   21.4860   32.4490 C   0  0  0  0  0  0  0  0  0  0  0  0
   37.5530   21.8580   30.1400 H   0  0  0  0  0  0  0  0  0  0  0  0
   37.3820   19.4800   30.1000 H   0  0  0  0  0  0  0  0  0  0  0  0
   35.7510   18.3520   31.5330 H   0  0  0  0  0  0  0  0  0  0  0  0
   34.2930   19.5390   33.0250 H   0  0  0  0  0  0  0  0  0  0  0  0
   34.4500   22.0110   33.1160 H   0  0  0  0  0  0  0  0  0  0  0  0
   38.1780   23.6720   33.1590 N   0  0  0  0  0  0  0  0  0  0  0  0
   39.4960   23.0640   32.9260 C   0  0  0  0  0  2  0  0  0  0  0  0
   39.3740   21.7400   33.6720 C   0  0  0  0  0  2  0  0  0  0  0  0
   38.5010   22.0780   34.8720 C   0  0  0  0  0  2  0  0  0  0  0  0
   38.0680   23.5070   34.6130 C   0  0  0  0  0  3  0  0  0  0  0  0
   38.7860   24.1550   35.1360 H   0  0  0  0  0  0  0  0  0  0  0  0
  1  2  1  0  0  0  0
  1  7  1  0  0  0  0
  2 20  1  0  0  0  0
  3  2  2  0  0  0  0
  4  3  1  0  0  0  0
  5  4  2  0  0  0  0
  5  6  1  0  0  0  0
  6  1  2  0  0  0  0
  8  5  1  0  0  0  0
  9  3  1  0  0  0  0
  9 14  1  0  0  0  0
 10  9  2  0  0  0  0
 11 10  1  0  0  0  0
 11 12  2  0  0  0  0
 12 13  1  0  0  0  0
 13 14  2  0  0  0  0
 13 18  1  0  0  0  0
 14 19  1  0  0  0  0
 15 10  1  0  0  0  0
 16 11  1  0  0  0  0
 17 12  1  0  0  0  0
 20 24  1  0  0  0  0
 21 20  1  0  0  0  0
 21 22  1  0  0  0  0
 22 23  1  0  0  0  0
 24 23  1  0  0  0  0
 24 25  1  0  0  0  0
M  END
>  <minimizedAffinity>
-4.48808336

$$$$

 OpenBabel03272509123D

 25 27  0  0  0  0  0  0  0  0999 V2000
   37.1280   25.6480   32.3170 C   0  0  0  0  0  0  0  0  0  0  0  0
   37.1560   24.2150   32.3480 C   0  0  0  0  0  0  0  0  0  0  0  0
   36.1450   23.5540   31.6500 C   0  0  0  0  0  0  0  0  0  0  0  0
   35.1960   24.2790   30.9850 N   0  0  0  0  0  0  0  0  0  0  0  0
   35.2060   25.6270   30.9830 C   0  0  0  0  0  0  0  0  0  0  0  0
   36.1640   26.3040   31.6430 N   0  0  0  0  0  0  0  0  0  0  0  0
   37.8890   26.2270   32.8420 H   0  0  0  0  0  0  0  0  0  0  0  0
   34.3920   26.0600   30.4160 H   0  0  0  0  0  0  0  0  0  0  0  0
   36.0690   22.1120   31.6090 C   0  0  0  0  0  0  0  0  0  0  0  0
   35.1370   21.4780   32.3790 C   0  0  0  0  0  0  0  0  0  0  0  0
   34.9860   20.1030   32.4010 C   0  0  0  0  0  0  0  0  0  0  0  0
   35.8460   19.3650   31.5860 C   0  0  0  0  0  0  0  0  0  0  0  0
   36.8240   19.9460   30.7710 C   0  0  0  0  0  0  0  0  0  0  0  0
   36.9000   21.3410   30.8160 C   0  0  0  0  0  0  0  0  0  0  0  0
   34.4290   21.9150   33.0610 H   0  0  0  0  0  0  0  0  0  0  0  0
   34.2850   19.5360   32.9730 H   0  0  0  0  0  0  0  0  0  0  0  0
   35.8090   18.2770   31.5310 H   0  0  0  0  0  0  0  0  0  0  0  0
   37.4680   19.3360   30.1560 H   0  0  0  0  0  0  0  0  0  0  0  0
   37.6410   21.8080   30.2000 H   0  0  0  0  0  0  0  0  0  0  0  0
   38.1940   23.6560   33.1190 N   0  0  0  0  0  0  0  0  0  0  0  0
   39.5340   23.0950   32.8940 C   0  0  0  0  0  2  0  0  0  0  0  0
   39.4500   21.7610   33.6260 C   0  0  0  0  0  2  0  0  0  0  0  0
   38.5540   22.0560   34.8200 C   0  0  0  0  0  2  0  0  0  0  0  0
   38.0740   23.4730   34.5700 C   0  0  0  0  0  3  0  0  0  0  0  0
   38.7640   24.1390   35.1070 H   0  0  0  0  0  0  0  0  0  0  0  0
  1  2  1  0  0  0  0
  1  7  1  0  0  0  0
  2 20  1  0  0  0  0
  3  2  2  0  0  0  0
  4  3  1  0  0  0  0
  5  4  2  0  0  0  0
  5  6  1  0  0  0  0
  6  1  2  0  0  0  0
  8  5  1  0  0  0  0
  9  3  1  0  0  0  0
  9 10  1  0  0  0  0
 10 11  2  0  0  0  0
 10 15  1  0  0  0  0
 11 16  1  0  0  0  0
 12 11  1  0  0  0  0
 13 14  1  0  0  0  0
 13 12  2  0  0  0  0
 14  9  2  0  0  0  0
 17 12  1  0  0  0  0
 18 13  1  0  0  0  0
 19 14  1  0  0  0  0
 20 24  1  0  0  0  0
 21 20  1  0  0  0  0
 21 22  1  0  0  0  0
 22 23  1  0  0  0  0
 24 23  1  0  0  0  0
 24 25  1  0  0  0  0
M  END
>  <minimizedAffinity>
-4.48090553

$$$$

 OpenBabel03272509123D

 25 27  0  0  0  0  0  0  0  0999 V2000
   38.7680   24.5890   30.0050 C   0  0  0  0  0  0  0  0  0  0  0  0
   38.3660   24.9920   31.3200 C   0  0  0  0  0  0  0  0  0  0  0  0
   38.9280   26.1710   31.8120 C   0  0  0  0  0  0  0  0  0  0  0  0
   39.8140   26.8710   31.0420 N   0  0  0  0  0  0  0  0  0  0  0  0
   40.1660   26.4550   29.8100 C   0  0  0  0  0  0  0  0  0  0  0  0
   39.6470   25.3230   29.2960 N   0  0  0  0  0  0  0  0  0  0  0  0
   38.3660   23.6770   29.5600 H   0  0  0  0  0  0  0  0  0  0  0  0
   40.8760   27.1100   29.3230 H   0  0  0  0  0  0  0  0  0  0  0  0
   38.6000   26.6770   33.1240 C   0  0  0  0  0  0  0  0  0  0  0  0
   37.3820   27.2620   33.3200 C   0  0  0  0  0  0  0  0  0  0  0  0
   36.9760   27.7690   34.5420 C   0  0  0  0  0  0  0  0  0  0  0  0
   37.8830   27.6610   35.5980 C   0  0  0  0  0  0  0  0  0  0  0  0
   39.1480   27.0760   35.4710 C   0  0  0  0  0  0  0  0  0  0  0  0
   39.4670   26.5910   34.1990 C   0  0  0  0  0  0  0  0  0  0  0  0
   36.5990   27.4270   32.6000 H   0  0  0  0  0  0  0  0  0  0  0  0
   36.0450   28.2370   34.7730 H   0  0  0  0  0  0  0  0  0  0  0  0
   37.6610   28.0290   36.5990 H   0  0  0  0  0  0  0  0  0  0  0  0
   39.8180   27.0140   36.3150 H   0  0  0  0  0  0  0  0  0  0  0  0
   40.4290   26.1390   34.0780 H   0  0  0  0  0  0  0  0  0  0  0  0
   37.4720   24.1160   31.9660 N   0  0  0  0  0  0  0  0  0  0  0  0
   37.5330   23.0540   32.9800 C   0  0  0  0  0  2  0  0  0  0  0  0
   36.7890   21.9140   32.2960 C   0  0  0  0  0  2  0  0  0  0  0  0
   35.7090   22.6180   31.4860 C   0  0  0  0  0  2  0  0  0  0  0  0
   36.0400   24.0890   31.6450 C   0  0  0  0  0  3  0  0  0  0  0  0
   35.4420   24.4570   32.4910 H   0  0  0  0  0  0  0  0  0  0  0  0
  1  2  1  0  0  0  0
  2  3  2  0  0  0  0
  2 20  1  0  0  0  0
  3  9  1  0  0  0  0
  4  3  1  0  0  0  0
  5  4  2  0  0  0  0
  6  5  1  0  0  0  0
  6  1  2  0  0  0  0
  7  1  1  0  0  0  0
  8  5  1  0  0  0  0
  9 10  2  0  0  0  0
  9 14  1  0  0  0  0
 10 11  1  0  0  0  0
 11 16  1  0  0  0  0
 11 12  2  0  0  0  0
 12 17  1  0  0  0  0
 13 12  1  0  0  0  0
 13 18  1  0  0  0  0
 14 13  2  0  0  0  0
 15 10  1  0  0  0  0
 19 14  1  0  0  0  0
 20 21  1  0  0  0  0
 22 21  1  0  0  0  0
 23 24  1  0  0  0  0
 23 22  1  0  0  0  0
 24 20  1  0  0  0  0
 24 25  1  0  0  0  0
M  END
>  <minimizedAffinity>
-4.3691597

$$$$

 OpenBabel03272509123D

 25 27  0  0  0  0  0  0  0  0999 V2000
   37.3940   24.3680   32.2350 C   0  0  0  0  0  0  0  0  0  0  0  0
   37.8010   23.7300   33.4530 C   0  0  0  0  0  0  0  0  0  0  0  0
   38.1230   24.5690   34.5210 C   0  0  0  0  0  0  0  0  0  0  0  0
   38.0400   25.9240   34.3670 N   0  0  0  0  0  0  0  0  0  0  0  0
   37.6540   26.4830   33.2030 C   0  0  0  0  0  0  0  0  0  0  0  0
   37.3340   25.7110   32.1470 N   0  0  0  0  0  0  0  0  0  0  0  0
   37.1280   23.7720   31.3610 H   0  0  0  0  0  0  0  0  0  0  0  0
   37.6370   27.5640   33.2320 H   0  0  0  0  0  0  0  0  0  0  0  0
   38.5460   24.0410   35.7980 C   0  0  0  0  0  0  0  0  0  0  0  0
   39.7840   23.4740   35.8990 C   0  0  0  0  0  0  0  0  0  0  0  0
   40.2780   22.9490   37.0800 C   0  0  0  0  0  0  0  0  0  0  0  0
   39.4420   23.0200   38.1960 C   0  0  0  0  0  0  0  0  0  0  0  0
   38.1620   23.5860   38.1660 C   0  0  0  0  0  0  0  0  0  0  0  0
   37.7510   24.0900   36.9290 C   0  0  0  0  0  0  0  0  0  0  0  0
   40.5190   23.3380   35.1260 H   0  0  0  0  0  0  0  0  0  0  0  0
   41.2290   22.4930   37.2400 H   0  0  0  0  0  0  0  0  0  0  0  0
   39.7350   22.6360   39.1730 H   0  0  0  0  0  0  0  0  0  0  0  0
   37.5490   23.6190   39.0540 H   0  0  0  0  0  0  0  0  0  0  0  0
   36.7760   24.5280   36.8820 H   0  0  0  0  0  0  0  0  0  0  0  0
   37.8570   22.3240   33.3990 N   0  0  0  0  0  0  0  0  0  0  0  0
   38.8190   21.2890   32.9920 C   0  0  0  0  0  2  0  0  0  0  0  0
   37.9820   20.4220   32.0600 C   0  0  0  0  0  2  0  0  0  0  0  0
   36.5900   20.4670   32.6740 C   0  0  0  0  0  2  0  0  0  0  0  0
   36.7200   21.4830   33.7920 C   0  0  0  0  0  3  0  0  0  0  0  0
   36.9480   20.9180   34.7080 H   0  0  0  0  0  0  0  0  0  0  0  0
  1  2  1  0  0  0  0
  2  3  2  0  0  0  0
  3  9  1  0  0  0  0
  4  3  1  0  0  0  0
  5  8  1  0  0  0  0
  5  4  2  0  0  0  0
  6  1  2  0  0  0  0
  6  5  1  0  0  0  0
  7  1  1  0  0  0  0
  9 10  2  0  0  0  0
  9 14  1  0  0  0  0
 10 11  1  0  0  0  0
 11 16  1  0  0  0  0
 11 12  2  0  0  0  0
 12 17  1  0  0  0  0
 13 12  1  0  0  0  0
 13 18  1  0  0  0  0
 14 13  2  0  0  0  0
 15 10  1  0  0  0  0
 19 14  1  0  0  0  0
 20  2  1  0  0  0  0
 20 24  1  0  0  0  0
 21 20  1  0  0  0  0
 22 23  1  0  0  0  0
 22 21  1  0  0  0  0
 23 24  1  0  0  0  0
 24 25  1  0  0  0  0
M  END
>  <minimizedAffinity>
-4.3541832

$$$$

 OpenBabel03272509123D

 25 27  0  0  0  0  0  0  0  0999 V2000
   35.9990   23.5300   31.3570 C   0  0  0  0  0  0  0  0  0  0  0  0
   36.8990   24.0050   32.3660 C   0  0  0  0  0  0  0  0  0  0  0  0
   36.9060   25.3810   32.6010 C   0  0  0  0  0  0  0  0  0  0  0  0
   36.0770   26.1940   31.8810 N   0  0  0  0  0  0  0  0  0  0  0  0
   35.2460   25.7060   30.9390 C   0  0  0  0  0  0  0  0  0  0  0  0
   35.2080   24.3850   30.6810 N   0  0  0  0  0  0  0  0  0  0  0  0
   35.9430   22.4660   31.1220 H   0  0  0  0  0  0  0  0  0  0  0  0
   34.6540   26.4700   30.4530 H   0  0  0  0  0  0  0  0  0  0  0  0
   37.7710   25.9760   33.5930 C   0  0  0  0  0  0  0  0  0  0  0  0
   39.0240   26.3720   33.2230 C   0  0  0  0  0  0  0  0  0  0  0  0
   39.9200   26.9570   34.1010 C   0  0  0  0  0  0  0  0  0  0  0  0
   39.4850   27.1320   35.4160 C   0  0  0  0  0  0  0  0  0  0  0  0
   38.2160   26.7510   35.8660 C   0  0  0  0  0  0  0  0  0  0  0  0
   37.3820   26.1690   34.9070 C   0  0  0  0  0  0  0  0  0  0  0  0
   39.4930   26.2830   32.2590 H   0  0  0  0  0  0  0  0  0  0  0  0
   40.9100   27.2920   33.8890 H   0  0  0  0  0  0  0  0  0  0  0  0
   40.1130   27.5820   36.1840 H   0  0  0  0  0  0  0  0  0  0  0  0
   37.9230   26.9050   36.8930 H   0  0  0  0  0  0  0  0  0  0  0  0
   36.4060   25.8700   35.2280 H   0  0  0  0  0  0  0  0  0  0  0  0
   37.6960   23.0130   32.9700 N   0  0  0  0  0  0  0  0  0  0  0  0
   37.6270   22.1270   34.1400 C   0  0  0  0  0  2  0  0  0  0  0  0
   38.9690   22.3830   34.8150 C   0  0  0  0  0  2  0  0  0  0  0  0
   39.9220   22.6160   33.6520 C   0  0  0  0  0  2  0  0  0  0  0  0
   39.0130   22.6420   32.4390 C   0  0  0  0  0  3  0  0  0  0  0  0
   38.9980   21.6200   32.0330 H   0  0  0  0  0  0  0  0  0  0  0  0
  1  2  1  0  0  0  0
  2  3  2  0  0  0  0
  2 20  1  0  0  0  0
  3  9  1  0  0  0  0
  4  3  1  0  0  0  0
  5  4  2  0  0  0  0
  6  5  1  0  0  0  0
  6  1  2  0  0  0  0
  7  1  1  0  0  0  0
  8  5  1  0  0  0  0
  9 14  1  0  0  0  0
 10  9  2  0  0  0  0
 10 11  1  0  0  0  0
 11 12  2  0  0  0  0
 12 13  1  0  0  0  0
 12 17  1  0  0  0  0
 13 18  1  0  0  0  0
 14 19  1  0  0  0  0
 14 13  2  0  0  0  0
 15 10  1  0  0  0  0
 16 11  1  0  0  0  0
 20 21  1  0  0  0  0
 21 22  1  0  0  0  0
 23 22  1  0  0  0  0
 24 20  1  0  0  0  0
 24 23  1  0  0  0  0
 25 24  1  0  0  0  0
M  END
>  <minimizedAffinity>
-4.32782555

$$$$

 OpenBabel03272509123D

 25 27  0  0  0  0  0  0  0  0999 V2000
   37.9500   22.7890   34.3370 C   0  0  0  0  0  0  0  0  0  0  0  0
   38.0300   24.1630   33.9380 C   0  0  0  0  0  0  0  0  0  0  0  0
   37.5120   24.4820   32.6820 C   0  0  0  0  0  0  0  0  0  0  0  0
   36.9660   23.4980   31.9060 N   0  0  0  0  0  0  0  0  0  0  0  0
   36.9120   22.2160   32.3190 C   0  0  0  0  0  0  0  0  0  0  0  0
   37.4000   21.8660   33.5250 N   0  0  0  0  0  0  0  0  0  0  0  0
   38.3360   22.4720   35.3070 H   0  0  0  0  0  0  0  0  0  0  0  0
   36.4540   21.5530   31.5980 H   0  0  0  0  0  0  0  0  0  0  0  0
   37.5360   25.8330   32.1720 C   0  0  0  0  0  0  0  0  0  0  0  0
   38.4760   26.1690   31.2410 C   0  0  0  0  0  0  0  0  0  0  0  0
   38.5730   27.4350   30.6910 C   0  0  0  0  0  0  0  0  0  0  0  0
   37.6510   28.3840   31.1340 C   0  0  0  0  0  0  0  0  0  0  0  0
   36.6610   28.1110   32.0860 C   0  0  0  0  0  0  0  0  0  0  0  0
   36.6420   26.8050   32.5830 C   0  0  0  0  0  0  0  0  0  0  0  0
   39.2530   25.5510   30.8250 H   0  0  0  0  0  0  0  0  0  0  0  0
   39.2750   27.7740   29.9620 H   0  0  0  0  0  0  0  0  0  0  0  0
   37.6420   29.4090   30.7640 H   0  0  0  0  0  0  0  0  0  0  0  0
   35.9680   28.8760   32.4000 H   0  0  0  0  0  0  0  0  0  0  0  0
   35.8930   26.5730   33.3120 H   0  0  0  0  0  0  0  0  0  0  0  0
   38.6610   25.0170   34.8640 N   0  0  0  0  0  0  0  0  0  0  0  0
   38.2850   25.8140   36.0400 C   0  0  0  0  0  2  0  0  0  0  0  0
   38.8700   27.1800   35.7020 C   0  0  0  0  0  2  0  0  0  0  0  0
   40.1480   26.8510   34.9450 C   0  0  0  0  0  2  0  0  0  0  0  0
   40.0890   25.3460   34.7720 C   0  0  0  0  0  3  0  0  0  0  0  0
   40.6460   24.9090   35.6130 H   0  0  0  0  0  0  0  0  0  0  0  0
  1  7  1  0  0  0  0
  2  1  1  0  0  0  0
  2 20  1  0  0  0  0
  3  2  2  0  0  0  0
  4  5  2  0  0  0  0
  4  3  1  0  0  0  0
  5  6  1  0  0  0  0
  6  1  2  0  0  0  0
  8  5  1  0  0  0  0
  9 14  1  0  0  0  0
  9  3  1  0  0  0  0
 10  9  2  0  0  0  0
 11 12  2  0  0  0  0
 11 10  1  0  0  0  0
 12 13  1  0  0  0  0
 13 18  1  0  0  0  0
 13 14  2  0  0  0  0
 14 19  1  0  0  0  0
 15 10  1  0  0  0  0
 16 11  1  0  0  0  0
 17 12  1  0  0  0  0
 20 21  1  0  0  0  0
 22 21  1  0  0  0  0
 23 22  1  0  0  0  0
 24 20  1  0  0  0  0
 24 23  1  0  0  0  0
 24 25  1  0  0  0  0
M  END
>  <minimizedAffinity>
-4.31498575

$$$$
