
 OpenBabel03262520523D

 45 49  0  0  1  0  0  0  0  0999 V2000
   35.0610   30.5370   33.9770 C   0  0  0  0  0  0  0  0  0  0  0  0
   35.0930   31.2540   33.1380 H   0  0  0  0  0  0  0  0  0  0  0  0
   34.0010   30.2810   34.2700 H   0  0  0  0  0  0  0  0  0  0  0  0
   36.5000   28.5910   34.4560 C   0  0  0  0  0  0  0  0  0  0  0  0
   35.6730   29.2400   33.5540 C   0  0  0  0  0  0  0  0  0  0  0  0
   35.4490   28.6700   32.3090 C   0  0  0  0  0  0  0  0  0  0  0  0
   36.0330   27.4700   31.9590 C   0  0  0  0  0  0  0  0  0  0  0  0
   35.9560   26.7450   30.8270 N   0  0  0  0  0  0  0  0  0  0  0  0
   36.7190   25.6580   31.0110 C   0  0  0  0  0  0  0  0  0  0  0  0
   37.3100   25.6480   32.2600 C   0  0  0  0  0  0  0  0  0  0  0  0
   36.8530   26.8250   32.8540 C   0  0  0  0  0  0  0  0  0  0  0  0
   37.0770   27.3840   34.0810 C   0  0  0  0  0  0  0  0  0  0  0  0
   36.7550   28.9250   35.4510 H   0  0  0  0  0  0  0  0  0  0  0  0
   34.7850   29.2420   31.6550 H   0  0  0  0  0  0  0  0  0  0  0  0
   35.3970   27.0080   29.9830 H   0  0  0  0  0  0  0  0  0  0  0  0
   36.8850   24.8540   30.2920 H   0  0  0  0  0  0  0  0  0  0  0  0
   37.9720   24.9110   32.6950 H   0  0  0  0  0  0  0  0  0  0  0  0
   37.9410   26.6650   34.9680 N   0  0  0  0  0  0  0  0  0  0  0  0
   39.3610   26.9180   35.2000 C   0  0  0  0  0  2  0  0  0  0  0  0
   39.9210   25.5160   35.0450 C   0  0  0  0  0  2  0  0  0  0  0  0
   38.9500   24.7000   35.8670 C   0  0  0  0  0  2  0  0  0  0  0  0
   37.7010   25.5280   35.8640 C   0  0  0  0  0  3  0  0  0  0  0  0
   37.5650   26.0120   36.8750 H   0  0  0  0  0  0  0  0  0  0  0  0
   35.8100   31.0320   35.1990 C   0  0  0  0  0  0  0  0  0  0  0  0
   36.3230   31.9570   34.8800 H   0  0  0  0  0  0  0  0  0  0  0  0
   36.5130   30.1950   35.4550 H   0  0  0  0  0  0  0  0  0  0  0  0
   33.4970   31.4130   36.1230 C   0  0  1  0  0  0  0  0  0  0  0  0
   34.2550   32.6680   36.4940 C   0  0  0  0  0  0  0  0  0  0  0  0
   34.9490   31.3730   36.3620 C   0  0  2  0  0  0  0  0  0  0  0  0
   33.1000   31.4010   35.0900 H   0  0  0  0  0  0  0  0  0  0  0  0
   34.0990   33.1290   37.4850 H   0  0  0  0  0  0  0  0  0  0  0  0
   34.4540   33.4330   35.7040 H   0  0  0  0  0  0  0  0  0  0  0  0
   35.2280   30.9200   37.3590 H   0  0  0  0  0  0  0  0  0  0  0  0
   32.5310   30.9270   37.1740 C   0  0  0  0  0  0  0  0  0  0  0  0
   31.7380   31.6980   37.2610 H   0  0  0  0  0  0  0  0  0  0  0  0
   33.0390   30.7840   38.1380 H   0  0  0  0  0  0  0  0  0  0  0  0
   31.0040   28.2840   35.0180 C   0  0  0  0  0  0  0  0  0  0  0  0
   31.6310   29.5010   35.4370 C   0  0  0  0  0  0  0  0  0  0  0  0
   31.8860   29.6660   36.7740 C   0  0  0  0  0  0  0  0  0  0  0  0
   31.5340   28.6760   37.6160 N   0  0  0  0  0  0  0  0  0  0  0  0
   30.9520   27.5470   37.2190 C   0  0  0  0  0  0  0  0  0  0  0  0
   30.6930   27.3630   35.9240 N   0  0  0  0  0  0  0  0  0  0  0  0
   30.7780   28.0900   33.9970 H   0  0  0  0  0  0  0  0  0  0  0  0
   31.8770   30.2370   34.6850 H   0  0  0  0  0  0  0  0  0  0  0  0
   30.7540   26.8910   38.0540 H   0  0  0  0  0  0  0  0  0  0  0  0
  1  3  1  0  0  0  0
  1 24  1  0  0  0  0
  2  1  1  0  0  0  0
  4 13  1  0  0  0  0
  5  1  1  0  0  0  0
  5  4  2  0  0  0  0
  6  5  1  0  0  0  0
  7  6  2  0  0  0  0
  7 11  1  0  0  0  0
  8  9  1  0  0  0  0
  8  7  1  0  0  0  0
  9 10  2  0  0  0  0
 10 17  1  0  0  0  0
 10 11  1  0  0  0  0
 11 12  2  0  0  0  0
 12  4  1  0  0  0  0
 12 18  1  0  0  0  0
 14  6  1  0  0  0  0
 15  8  1  0  0  0  0
 16  9  1  0  0  0  0
 18 19  1  0  0  0  0
 18 22  1  0  0  0  0
 20 19  1  0  0  0  0
 20 21  1  0  0  0  0
 22 21  1  0  0  0  0
 22 23  1  0  0  0  0
 24 26  1  0  0  0  0
 24 29  1  0  0  0  0
 25 24  1  0  0  0  0
 27 30  1  6  0  0  0
 27 29  1  0  0  0  0
 27 28  1  0  0  0  0
 27 34  1  0  0  0  0
 28 31  1  0  0  0  0
 29 28  1  0  0  0  0
 29 33  1  1  0  0  0
 32 28  1  0  0  0  0
 34 35  1  0  0  0  0
 34 36  1  0  0  0  0
 37 38  2  0  0  0  0
 37 42  1  0  0  0  0
 38 39  1  0  0  0  0
 39 34  1  0  0  0  0
 39 40  2  0  0  0  0
 41 40  1  0  0  0  0
 41 45  1  0  0  0  0
 42 41  2  0  0  0  0
 43 37  1  0  0  0  0
 44 38  1  0  0  0  0
M  END
>  <minimizedAffinity>
-5.97839785

$$$$

 OpenBabel03262520523D

 45 49  0  0  1  0  0  0  0  0999 V2000
   35.2240   30.5480   34.2090 C   0  0  0  0  0  0  0  0  0  0  0  0
   35.2720   31.0110   33.2080 H   0  0  0  0  0  0  0  0  0  0  0  0
   34.1740   30.2290   34.4740 H   0  0  0  0  0  0  0  0  0  0  0  0
   35.9720   28.4760   33.0990 C   0  0  0  0  0  0  0  0  0  0  0  0
   36.0280   29.2870   34.2190 C   0  0  0  0  0  0  0  0  0  0  0  0
   36.8180   28.9040   35.2940 C   0  0  0  0  0  0  0  0  0  0  0  0
   37.5460   27.7330   35.2620 C   0  0  0  0  0  0  0  0  0  0  0  0
   38.3650   27.1750   36.1740 N   0  0  0  0  0  0  0  0  0  0  0  0
   38.8180   26.0320   35.6380 C   0  0  0  0  0  0  0  0  0  0  0  0
   38.3090   25.8180   34.3720 C   0  0  0  0  0  0  0  0  0  0  0  0
   37.4910   26.9270   34.1500 C   0  0  0  0  0  0  0  0  0  0  0  0
   36.7140   27.3000   33.0890 C   0  0  0  0  0  0  0  0  0  0  0  0
   35.4020   28.6570   32.2000 H   0  0  0  0  0  0  0  0  0  0  0  0
   36.8090   29.5970   36.1400 H   0  0  0  0  0  0  0  0  0  0  0  0
   38.5840   27.5810   37.1110 H   0  0  0  0  0  0  0  0  0  0  0  0
   39.5050   25.3260   36.1060 H   0  0  0  0  0  0  0  0  0  0  0  0
   38.4880   24.9940   33.6950 H   0  0  0  0  0  0  0  0  0  0  0  0
   36.6980   26.4190   31.9610 N   0  0  0  0  0  0  0  0  0  0  0  0
   35.5350   25.7320   31.4050 C   0  0  0  0  0  2  0  0  0  0  0  0
   36.0730   24.3160   31.3030 C   0  0  0  0  0  2  0  0  0  0  0  0
   37.4330   24.5430   30.6850 C   0  0  0  0  0  2  0  0  0  0  0  0
   37.7630   25.9550   31.0640 C   0  0  0  0  0  3  0  0  0  0  0  0
   37.6570   26.6240   30.1600 H   0  0  0  0  0  0  0  0  0  0  0  0
   35.7590   31.4540   35.3010 C   0  0  0  0  0  0  0  0  0  0  0  0
   35.8330   32.4580   34.8460 H   0  0  0  0  0  0  0  0  0  0  0  0
   36.7540   31.0100   35.5700 H   0  0  0  0  0  0  0  0  0  0  0  0
   33.4350   31.5750   36.2660 C   0  0  1  0  0  0  0  0  0  0  0  0
   34.1350   32.7900   36.8340 C   0  0  0  0  0  0  0  0  0  0  0  0
   34.8880   31.5660   36.5000 C   0  0  2  0  0  0  0  0  0  0  0  0
   33.0340   31.7080   35.2430 H   0  0  0  0  0  0  0  0  0  0  0  0
   33.9620   33.0800   37.8850 H   0  0  0  0  0  0  0  0  0  0  0  0
   34.2950   33.6790   36.1750 H   0  0  0  0  0  0  0  0  0  0  0  0
   35.1920   30.9740   37.4140 H   0  0  0  0  0  0  0  0  0  0  0  0
   32.4970   30.8840   37.2230 C   0  0  0  0  0  0  0  0  0  0  0  0
   31.6910   31.6090   37.4610 H   0  0  0  0  0  0  0  0  0  0  0  0
   33.0250   30.5800   38.1380 H   0  0  0  0  0  0  0  0  0  0  0  0
   30.9180   27.5150   36.8810 C   0  0  0  0  0  0  0  0  0  0  0  0
   31.5310   28.6760   37.4510 C   0  0  0  0  0  0  0  0  0  0  0  0
   31.8700   29.7030   36.6090 C   0  0  0  0  0  0  0  0  0  0  0  0
   31.6080   29.5630   35.2950 N   0  0  0  0  0  0  0  0  0  0  0  0
   31.0380   28.4790   34.7720 C   0  0  0  0  0  0  0  0  0  0  0  0
   30.6990   27.4670   35.5710 N   0  0  0  0  0  0  0  0  0  0  0  0
   30.6290   26.6820   37.4760 H   0  0  0  0  0  0  0  0  0  0  0  0
   31.7000   28.6970   38.5180 H   0  0  0  0  0  0  0  0  0  0  0  0
   30.9210   28.5740   33.7020 H   0  0  0  0  0  0  0  0  0  0  0  0
  1  5  1  0  0  0  0
  1  3  1  0  0  0  0
  1 24  1  0  0  0  0
  2  1  1  0  0  0  0
  4  5  1  0  0  0  0
  5  6  2  0  0  0  0
  6 14  1  0  0  0  0
  7  6  1  0  0  0  0
  7  8  1  0  0  0  0
  8 15  1  0  0  0  0
  9 16  1  0  0  0  0
  9  8  1  0  0  0  0
 10  9  2  0  0  0  0
 11 10  1  0  0  0  0
 11  7  2  0  0  0  0
 12  4  2  0  0  0  0
 12 11  1  0  0  0  0
 13  4  1  0  0  0  0
 17 10  1  0  0  0  0
 18 12  1  0  0  0  0
 19 18  1  0  0  0  0
 20 19  1  0  0  0  0
 21 22  1  0  0  0  0
 21 20  1  0  0  0  0
 22 18  1  0  0  0  0
 23 22  1  0  0  0  0
 24 26  1  0  0  0  0
 24 29  1  0  0  0  0
 25 24  1  0  0  0  0
 27 30  1  6  0  0  0
 27 29  1  0  0  0  0
 27 28  1  0  0  0  0
 27 34  1  0  0  0  0
 28 31  1  0  0  0  0
 29 28  1  0  0  0  0
 29 33  1  1  0  0  0
 32 28  1  0  0  0  0
 34 35  1  0  0  0  0
 34 36  1  0  0  0  0
 37 38  1  0  0  0  0
 37 43  1  0  0  0  0
 38 44  1  0  0  0  0
 39 34  1  0  0  0  0
 39 38  2  0  0  0  0
 40 39  1  0  0  0  0
 41 40  2  0  0  0  0
 41 42  1  0  0  0  0
 42 37  2  0  0  0  0
 45 41  1  0  0  0  0
M  END
>  <minimizedAffinity>
-5.95241308

$$$$

 OpenBabel03262520523D

 45 49  0  0  1  0  0  0  0  0999 V2000
   42.6850   25.1350   33.6830 C   0  0  0  0  0  0  0  0  0  0  0  0
   42.7390   24.3580   32.9000 H   0  0  0  0  0  0  0  0  0  0  0  0
   43.2510   26.0660   33.3910 H   0  0  0  0  0  0  0  0  0  0  0  0
   40.3320   25.1220   32.9400 C   0  0  0  0  0  0  0  0  0  0  0  0
   41.2670   25.5780   33.8540 C   0  0  0  0  0  0  0  0  0  0  0  0
   40.8570   26.4180   34.8800 C   0  0  0  0  0  0  0  0  0  0  0  0
   39.5370   26.8020   35.0020 C   0  0  0  0  0  0  0  0  0  0  0  0
   38.9260   27.5940   35.9030 N   0  0  0  0  0  0  0  0  0  0  0  0
   37.6290   27.6370   35.5640 C   0  0  0  0  0  0  0  0  0  0  0  0
   37.3650   26.8790   34.4400 C   0  0  0  0  0  0  0  0  0  0  0  0
   38.6090   26.3490   34.0950 C   0  0  0  0  0  0  0  0  0  0  0  0
   39.0090   25.5220   33.0830 C   0  0  0  0  0  0  0  0  0  0  0  0
   40.5180   24.4680   32.1010 H   0  0  0  0  0  0  0  0  0  0  0  0
   41.6520   26.7340   35.5600 H   0  0  0  0  0  0  0  0  0  0  0  0
   39.4010   28.0710   36.7030 H   0  0  0  0  0  0  0  0  0  0  0  0
   36.8440   28.1900   36.0810 H   0  0  0  0  0  0  0  0  0  0  0  0
   36.4240   26.7190   33.9310 H   0  0  0  0  0  0  0  0  0  0  0  0
   37.9960   25.0860   32.1700 N   0  0  0  0  0  0  0  0  0  0  0  0
   37.5700   25.7640   30.9480 C   0  0  0  0  0  2  0  0  0  0  0  0
   36.0640   25.7570   31.1390 C   0  0  0  0  0  2  0  0  0  0  0  0
   35.8120   24.3330   31.5780 C   0  0  0  0  0  2  0  0  0  0  0  0
   37.1240   23.9060   32.1640 C   0  0  0  0  0  3  0  0  0  0  0  0
   37.6430   23.1970   31.4540 H   0  0  0  0  0  0  0  0  0  0  0  0
   43.1880   24.6470   35.0280 C   0  0  0  0  0  0  0  0  0  0  0  0
   42.7200   25.3090   35.7800 H   0  0  0  0  0  0  0  0  0  0  0  0
   44.3030   24.7570   34.9670 H   0  0  0  0  0  0  0  0  0  0  0  0
   42.3250   23.0020   36.7320 C   0  0  1  0  0  0  0  0  0  0  0  0
   43.6210   22.3890   36.2490 C   0  0  0  0  0  0  0  0  0  0  0  0
   42.8120   23.2490   35.3640 C   0  0  2  0  0  0  0  0  0  0  0  0
   42.4430   23.7760   37.5140 H   0  0  0  0  0  0  0  0  0  0  0  0
   43.6830   21.3000   36.0810 H   0  0  0  0  0  0  0  0  0  0  0  0
   44.5890   22.8110   36.6180 H   0  0  0  0  0  0  0  0  0  0  0  0
   42.2510   22.6630   34.5760 H   0  0  0  0  0  0  0  0  0  0  0  0
   41.2170   22.0130   36.9870 C   0  0  0  0  0  0  0  0  0  0  0  0
   41.4410   21.5260   37.9600 H   0  0  0  0  0  0  0  0  0  0  0  0
   41.1660   21.2650   36.1830 H   0  0  0  0  0  0  0  0  0  0  0  0
   37.9270   23.5130   36.0480 C   0  0  0  0  0  0  0  0  0  0  0  0
   39.1990   22.8650   35.9560 C   0  0  0  0  0  0  0  0  0  0  0  0
   39.9130   22.6810   37.1130 C   0  0  0  0  0  0  0  0  0  0  0  0
   39.3760   23.1190   38.2680 N   0  0  0  0  0  0  0  0  0  0  0  0
   38.1910   23.7210   38.3460 C   0  0  0  0  0  0  0  0  0  0  0  0
   37.4790   23.9110   37.2350 N   0  0  0  0  0  0  0  0  0  0  0  0
   37.3210   23.6870   35.1910 H   0  0  0  0  0  0  0  0  0  0  0  0
   39.5460   22.5480   34.9830 H   0  0  0  0  0  0  0  0  0  0  0  0
   37.9530   23.9910   39.3640 H   0  0  0  0  0  0  0  0  0  0  0  0
  1  5  1  0  0  0  0
  1 24  1  0  0  0  0
  2  1  1  0  0  0  0
  3  1  1  0  0  0  0
  4 12  2  0  0  0  0
  4  5  1  0  0  0  0
  5  6  2  0  0  0  0
  6  7  1  0  0  0  0
  6 14  1  0  0  0  0
  7  8  1  0  0  0  0
  8 15  1  0  0  0  0
  9  8  1  0  0  0  0
  9 16  1  0  0  0  0
 10  9  2  0  0  0  0
 11 10  1  0  0  0  0
 11  7  2  0  0  0  0
 12 11  1  0  0  0  0
 13  4  1  0  0  0  0
 17 10  1  0  0  0  0
 18 12  1  0  0  0  0
 19 20  1  0  0  0  0
 19 18  1  0  0  0  0
 20 21  1  0  0  0  0
 21 22  1  0  0  0  0
 22 18  1  0  0  0  0
 23 22  1  0  0  0  0
 24 29  1  0  0  0  0
 24 25  1  0  0  0  0
 26 24  1  0  0  0  0
 27 34  1  0  0  0  0
 27 30  1  1  0  0  0
 28 32  1  0  0  0  0
 28 27  1  0  0  0  0
 29 33  1  6  0  0  0
 29 28  1  0  0  0  0
 29 27  1  0  0  0  0
 31 28  1  0  0  0  0
 34 39  1  0  0  0  0
 34 35  1  0  0  0  0
 36 34  1  0  0  0  0
 37 42  1  0  0  0  0
 38 37  2  0  0  0  0
 38 39  1  0  0  0  0
 39 40  2  0  0  0  0
 40 41  1  0  0  0  0
 41 45  1  0  0  0  0
 42 41  2  0  0  0  0
 43 37  1  0  0  0  0
 44 38  1  0  0  0  0
M  END
>  <minimizedAffinity>
-5.93965435

$$$$

 OpenBabel03262520523D

 45 49  0  0  1  0  0  0  0  0999 V2000
   37.0580   27.6880   33.8290 C   0  0  0  0  0  0  0  0  0  0  0  0
   37.6700   28.0090   34.6900 H   0  0  0  0  0  0  0  0  0  0  0  0
   36.4140   26.7960   34.0810 H   0  0  0  0  0  0  0  0  0  0  0  0
   35.3240   29.3200   34.4750 C   0  0  0  0  0  0  0  0  0  0  0  0
   36.0960   28.7730   33.4630 C   0  0  0  0  0  0  0  0  0  0  0  0
   35.9490   29.2460   32.1680 C   0  0  0  0  0  0  0  0  0  0  0  0
   35.0510   30.2510   31.8730 C   0  0  0  0  0  0  0  0  0  0  0  0
   34.7480   30.8540   30.7080 N   0  0  0  0  0  0  0  0  0  0  0  0
   33.8030   31.7670   30.9790 C   0  0  0  0  0  0  0  0  0  0  0  0
   33.4680   31.7790   32.3190 C   0  0  0  0  0  0  0  0  0  0  0  0
   34.2840   30.7950   32.8760 C   0  0  0  0  0  0  0  0  0  0  0  0
   34.4260   30.3310   34.1550 C   0  0  0  0  0  0  0  0  0  0  0  0
   35.3420   29.0450   35.5190 H   0  0  0  0  0  0  0  0  0  0  0  0
   36.5930   28.7650   31.4270 H   0  0  0  0  0  0  0  0  0  0  0  0
   35.1860   30.6310   29.7860 H   0  0  0  0  0  0  0  0  0  0  0  0
   33.3270   32.4370   30.2620 H   0  0  0  0  0  0  0  0  0  0  0  0
   32.7460   32.3980   32.8360 H   0  0  0  0  0  0  0  0  0  0  0  0
   33.5990   30.9370   35.1540 N   0  0  0  0  0  0  0  0  0  0  0  0
   33.8360   32.2100   35.8300 C   0  0  0  0  0  2  0  0  0  0  0  0
   33.6450   31.7960   37.2770 C   0  0  0  0  0  2  0  0  0  0  0  0
   32.3770   30.9770   37.2020 C   0  0  0  0  0  2  0  0  0  0  0  0
   32.3410   30.5100   35.7780 C   0  0  0  0  0  3  0  0  0  0  0  0
   31.5550   31.0870   35.2100 H   0  0  0  0  0  0  0  0  0  0  0  0
   37.8920   27.3690   32.6040 C   0  0  0  0  0  0  0  0  0  0  0  0
   38.2160   28.3460   32.2010 H   0  0  0  0  0  0  0  0  0  0  0  0
   37.1920   26.8150   31.9240 H   0  0  0  0  0  0  0  0  0  0  0  0
   39.2960   26.0760   34.2490 C   0  0  1  0  0  0  0  0  0  0  0  0
   40.2570   27.0800   33.6520 C   0  0  0  0  0  0  0  0  0  0  0  0
   39.1140   26.5670   32.8730 C   0  0  2  0  0  0  0  0  0  0  0  0
   38.6660   26.4700   35.0700 H   0  0  0  0  0  0  0  0  0  0  0  0
   41.2900   26.7740   33.4130 H   0  0  0  0  0  0  0  0  0  0  0  0
   40.2030   28.1450   33.9880 H   0  0  0  0  0  0  0  0  0  0  0  0
   39.4210   25.8170   32.0850 H   0  0  0  0  0  0  0  0  0  0  0  0
   39.8890   24.7150   34.5080 C   0  0  0  0  0  0  0  0  0  0  0  0
   40.9910   24.8430   34.5200 H   0  0  0  0  0  0  0  0  0  0  0  0
   39.5900   24.0020   33.7270 H   0  0  0  0  0  0  0  0  0  0  0  0
   37.9200   24.2130   37.6450 C   0  0  0  0  0  0  0  0  0  0  0  0
   38.3360   24.7040   36.3660 C   0  0  0  0  0  0  0  0  0  0  0  0
   39.4860   24.1910   35.8230 C   0  0  0  0  0  0  0  0  0  0  0  0
   40.1570   23.2540   36.5210 N   0  0  0  0  0  0  0  0  0  0  0  0
   39.7640   22.8020   37.7100 C   0  0  0  0  0  0  0  0  0  0  0  0
   38.6500   23.2870   38.2590 N   0  0  0  0  0  0  0  0  0  0  0  0
   37.0390   24.5670   38.1240 H   0  0  0  0  0  0  0  0  0  0  0  0
   37.7300   25.4560   35.8830 H   0  0  0  0  0  0  0  0  0  0  0  0
   40.4450   22.0570   38.0930 H   0  0  0  0  0  0  0  0  0  0  0  0
  1  3  1  0  0  0  0
  1  2  1  0  0  0  0
  4 13  1  0  0  0  0
  5  1  1  0  0  0  0
  5  4  2  0  0  0  0
  6  5  1  0  0  0  0
  7  6  2  0  0  0  0
  7 11  1  0  0  0  0
  8  9  1  0  0  0  0
  8  7  1  0  0  0  0
  9 10  2  0  0  0  0
 10 17  1  0  0  0  0
 10 11  1  0  0  0  0
 11 12  2  0  0  0  0
 12  4  1  0  0  0  0
 12 18  1  0  0  0  0
 14  6  1  0  0  0  0
 15  8  1  0  0  0  0
 16  9  1  0  0  0  0
 18 22  1  0  0  0  0
 18 19  1  0  0  0  0
 19 20  1  0  0  0  0
 21 20  1  0  0  0  0
 22 21  1  0  0  0  0
 23 22  1  0  0  0  0
 24 29  1  0  0  0  0
 24  1  1  0  0  0  0
 25 24  1  0  0  0  0
 26 24  1  0  0  0  0
 27 34  1  0  0  0  0
 27 30  1  1  0  0  0
 28 32  1  0  0  0  0
 28 27  1  0  0  0  0
 29 33  1  6  0  0  0
 29 28  1  0  0  0  0
 29 27  1  0  0  0  0
 31 28  1  0  0  0  0
 34 35  1  0  0  0  0
 34 39  1  0  0  0  0
 36 34  1  0  0  0  0
 37 43  1  0  0  0  0
 37 42  1  0  0  0  0
 38 37  2  0  0  0  0
 39 38  1  0  0  0  0
 39 40  2  0  0  0  0
 40 41  1  0  0  0  0
 41 45  1  0  0  0  0
 41 42  2  0  0  0  0
 44 38  1  0  0  0  0
M  END
>  <minimizedAffinity>
-5.75518322

$$$$

 OpenBabel03262520523D

 45 49  0  0  1  0  0  0  0  0999 V2000
   38.8180   26.7370   35.9610 C   0  0  0  0  0  0  0  0  0  0  0  0
   39.8750   26.6120   35.6700 H   0  0  0  0  0  0  0  0  0  0  0  0
   38.6940   27.5170   36.7680 H   0  0  0  0  0  0  0  0  0  0  0  0
   37.0120   28.1510   35.0520 C   0  0  0  0  0  0  0  0  0  0  0  0
   38.0340   27.2520   34.7960 C   0  0  0  0  0  0  0  0  0  0  0  0
   38.2870   26.8700   33.4870 C   0  0  0  0  0  0  0  0  0  0  0  0
   37.5400   27.3700   32.4410 C   0  0  0  0  0  0  0  0  0  0  0  0
   37.6100   27.1430   31.1150 N   0  0  0  0  0  0  0  0  0  0  0  0
   36.6490   27.8850   30.5450 C   0  0  0  0  0  0  0  0  0  0  0  0
   35.9350   28.6100   31.4780 C   0  0  0  0  0  0  0  0  0  0  0  0
   36.5260   28.2630   32.6940 C   0  0  0  0  0  0  0  0  0  0  0  0
   36.2720   28.6420   33.9820 C   0  0  0  0  0  0  0  0  0  0  0  0
   36.7130   28.5290   36.0190 H   0  0  0  0  0  0  0  0  0  0  0  0
   39.1090   26.1580   33.3670 H   0  0  0  0  0  0  0  0  0  0  0  0
   38.2940   26.5040   30.6510 H   0  0  0  0  0  0  0  0  0  0  0  0
   36.4230   27.9410   29.4790 H   0  0  0  0  0  0  0  0  0  0  0  0
   35.1080   29.2910   31.3260 H   0  0  0  0  0  0  0  0  0  0  0  0
   35.2030   29.5730   34.1810 N   0  0  0  0  0  0  0  0  0  0  0  0
   35.3160   31.0270   34.2750 C   0  0  0  0  0  2  0  0  0  0  0  0
   34.5090   31.2860   35.5340 C   0  0  0  0  0  2  0  0  0  0  0  0
   33.2810   30.4370   35.2980 C   0  0  0  0  0  2  0  0  0  0  0  0
   33.7570   29.3860   34.3420 C   0  0  0  0  0  3  0  0  0  0  0  0
   33.3470   29.5980   33.3110 H   0  0  0  0  0  0  0  0  0  0  0  0
   38.1780   25.4410   36.4190 C   0  0  0  0  0  0  0  0  0  0  0  0
   37.1620   25.4390   35.9830 H   0  0  0  0  0  0  0  0  0  0  0  0
   38.1840   25.5050   37.5390 H   0  0  0  0  0  0  0  0  0  0  0  0
   38.0190   23.0400   35.6700 C   0  0  1  0  0  0  0  0  0  0  0  0
   39.0230   23.0090   36.8000 C   0  0  0  0  0  0  0  0  0  0  0  0
   38.8680   24.2090   35.9560 C   0  0  2  0  0  0  0  0  0  0  0  0
   36.9600   23.0270   35.9910 H   0  0  0  0  0  0  0  0  0  0  0  0
   39.9200   22.3700   36.7190 H   0  0  0  0  0  0  0  0  0  0  0  0
   38.6540   23.0790   37.8530 H   0  0  0  0  0  0  0  0  0  0  0  0
   39.7150   24.3390   35.2180 H   0  0  0  0  0  0  0  0  0  0  0  0
   38.3390   22.1210   34.5180 C   0  0  0  0  0  0  0  0  0  0  0  0
   38.2800   21.0840   34.9110 H   0  0  0  0  0  0  0  0  0  0  0  0
   39.3410   22.3270   34.1180 H   0  0  0  0  0  0  0  0  0  0  0  0
   36.4590   23.5290   31.6120 C   0  0  0  0  0  0  0  0  0  0  0  0
   37.4090   23.3810   32.6720 C   0  0  0  0  0  0  0  0  0  0  0  0
   37.3490   22.2440   33.4370 C   0  0  0  0  0  0  0  0  0  0  0  0
   36.4000   21.3320   33.1480 N   0  0  0  0  0  0  0  0  0  0  0  0
   35.5200   21.4770   32.1600 C   0  0  0  0  0  0  0  0  0  0  0  0
   35.5590   22.5730   31.4030 N   0  0  0  0  0  0  0  0  0  0  0  0
   36.4490   24.3840   30.9800 H   0  0  0  0  0  0  0  0  0  0  0  0
   38.1340   24.1680   32.8260 H   0  0  0  0  0  0  0  0  0  0  0  0
   34.8500   20.6310   32.1030 H   0  0  0  0  0  0  0  0  0  0  0  0
  1 24  1  0  0  0  0
  1  3  1  0  0  0  0
  2  1  1  0  0  0  0
  4 13  1  0  0  0  0
  5  4  1  0  0  0  0
  5  1  1  0  0  0  0
  6  5  2  0  0  0  0
  7 11  2  0  0  0  0
  7  6  1  0  0  0  0
  8  7  1  0  0  0  0
  9  8  1  0  0  0  0
  9 10  2  0  0  0  0
 10 11  1  0  0  0  0
 11 12  1  0  0  0  0
 12 18  1  0  0  0  0
 12  4  2  0  0  0  0
 14  6  1  0  0  0  0
 15  8  1  0  0  0  0
 16  9  1  0  0  0  0
 17 10  1  0  0  0  0
 18 19  1  0  0  0  0
 18 22  1  0  0  0  0
 19 20  1  0  0  0  0
 21 20  1  0  0  0  0
 22 21  1  0  0  0  0
 23 22  1  0  0  0  0
 24 26  1  0  0  0  0
 25 24  1  0  0  0  0
 27 29  1  0  0  0  0
 27 30  1  1  0  0  0
 27 28  1  0  0  0  0
 28 32  1  0  0  0  0
 29 33  1  6  0  0  0
 29 24  1  0  0  0  0
 29 28  1  0  0  0  0
 31 28  1  0  0  0  0
 34 35  1  0  0  0  0
 34 27  1  0  0  0  0
 36 34  1  0  0  0  0
 37 38  1  0  0  0  0
 38 44  1  0  0  0  0
 38 39  2  0  0  0  0
 39 34  1  0  0  0  0
 40 39  1  0  0  0  0
 41 40  2  0  0  0  0
 42 37  2  0  0  0  0
 42 41  1  0  0  0  0
 43 37  1  0  0  0  0
 45 41  1  0  0  0  0
M  END
>  <minimizedAffinity>
-5.67692709

$$$$

 OpenBabel03262520523D

 45 49  0  0  1  0  0  0  0  0999 V2000
   38.2440   26.5120   33.5860 C   0  0  0  0  0  0  0  0  0  0  0  0
   38.9850   27.3280   33.5230 H   0  0  0  0  0  0  0  0  0  0  0  0
   38.2280   25.8860   32.6470 H   0  0  0  0  0  0  0  0  0  0  0  0
   39.8100   24.8580   34.5350 C   0  0  0  0  0  0  0  0  0  0  0  0
   38.6290   25.5670   34.6790 C   0  0  0  0  0  0  0  0  0  0  0  0
   37.8590   25.3760   35.8170 C   0  0  0  0  0  0  0  0  0  0  0  0
   38.2510   24.4940   36.8030 C   0  0  0  0  0  0  0  0  0  0  0  0
   37.6710   24.1570   37.9710 N   0  0  0  0  0  0  0  0  0  0  0  0
   38.4710   23.2520   38.5530 C   0  0  0  0  0  0  0  0  0  0  0  0
   39.5850   22.9790   37.7840 C   0  0  0  0  0  0  0  0  0  0  0  0
   39.4230   23.7910   36.6610 C   0  0  0  0  0  0  0  0  0  0  0  0
   40.1850   23.9760   35.5410 C   0  0  0  0  0  0  0  0  0  0  0  0
   40.4970   24.9150   33.7040 H   0  0  0  0  0  0  0  0  0  0  0  0
   36.9420   25.9710   35.8570 H   0  0  0  0  0  0  0  0  0  0  0  0
   36.7680   24.5450   38.3260 H   0  0  0  0  0  0  0  0  0  0  0  0
   38.3040   22.7640   39.5140 H   0  0  0  0  0  0  0  0  0  0  0  0
   40.4040   22.3000   37.9860 H   0  0  0  0  0  0  0  0  0  0  0  0
   41.3930   23.2140   35.4510 N   0  0  0  0  0  0  0  0  0  0  0  0
   41.5520   21.8960   34.8420 C   0  0  0  0  0  2  0  0  0  0  0  0
   42.2960   21.1680   35.9470 C   0  0  0  0  0  2  0  0  0  0  0  0
   43.3540   22.1770   36.3260 C   0  0  0  0  0  2  0  0  0  0  0  0
   42.7620   23.4880   35.9050 C   0  0  0  0  0  3  0  0  0  0  0  0
   43.2810   23.8560   34.9720 H   0  0  0  0  0  0  0  0  0  0  0  0
   36.8430   27.0150   33.8730 C   0  0  0  0  0  0  0  0  0  0  0  0
   36.7250   26.9590   34.9710 H   0  0  0  0  0  0  0  0  0  0  0  0
   36.1720   26.3090   33.3150 H   0  0  0  0  0  0  0  0  0  0  0  0
   35.4320   29.0930   34.0800 C   0  0  1  0  0  0  0  0  0  0  0  0
   35.4640   28.8140   32.5940 C   0  0  0  0  0  0  0  0  0  0  0  0
   36.5890   28.4210   33.4640 C   0  0  2  0  0  0  0  0  0  0  0  0
   34.6820   28.5070   34.6440 H   0  0  0  0  0  0  0  0  0  0  0  0
   35.5640   29.6510   31.8810 H   0  0  0  0  0  0  0  0  0  0  0  0
   34.8280   27.9900   32.1850 H   0  0  0  0  0  0  0  0  0  0  0  0
   37.4900   29.0930   33.3480 H   0  0  0  0  0  0  0  0  0  0  0  0
   35.4980   30.5530   34.4480 C   0  0  0  0  0  0  0  0  0  0  0  0
   35.2720   31.1260   33.5240 H   0  0  0  0  0  0  0  0  0  0  0  0
   36.4930   30.8160   34.8330 H   0  0  0  0  0  0  0  0  0  0  0  0
   32.2960   30.5210   36.3730 C   0  0  0  0  0  0  0  0  0  0  0  0
   33.3040   30.2000   35.4090 C   0  0  0  0  0  0  0  0  0  0  0  0
   34.4800   30.9050   35.4510 C   0  0  0  0  0  0  0  0  0  0  0  0
   34.6200   31.8550   36.3950 N   0  0  0  0  0  0  0  0  0  0  0  0
   33.6770   32.1470   37.2880 C   0  0  0  0  0  0  0  0  0  0  0  0
   32.5250   31.4770   37.2680 N   0  0  0  0  0  0  0  0  0  0  0  0
   31.3600   30.0140   36.3990 H   0  0  0  0  0  0  0  0  0  0  0  0
   33.0990   29.4200   34.6910 H   0  0  0  0  0  0  0  0  0  0  0  0
   33.9950   32.9390   37.9500 H   0  0  0  0  0  0  0  0  0  0  0  0
  1 24  1  0  0  0  0
  1  5  1  0  0  0  0
  2  1  1  0  0  0  0
  3  1  1  0  0  0  0
  4  5  2  0  0  0  0
  4 12  1  0  0  0  0
  5  6  1  0  0  0  0
  6 14  1  0  0  0  0
  6  7  2  0  0  0  0
  7  8  1  0  0  0  0
  8 15  1  0  0  0  0
  8  9  1  0  0  0  0
  9 16  1  0  0  0  0
 10 17  1  0  0  0  0
 10  9  2  0  0  0  0
 11  7  1  0  0  0  0
 11 10  1  0  0  0  0
 12 11  2  0  0  0  0
 13  4  1  0  0  0  0
 18 12  1  0  0  0  0
 18 22  1  0  0  0  0
 19 18  1  0  0  0  0
 19 20  1  0  0  0  0
 20 21  1  0  0  0  0
 22 21  1  0  0  0  0
 23 22  1  0  0  0  0
 24 25  1  0  0  0  0
 26 24  1  0  0  0  0
 27 34  1  0  0  0  0
 27 30  1  1  0  0  0
 28 29  1  0  0  0  0
 28 27  1  0  0  0  0
 29 33  1  6  0  0  0
 29 24  1  0  0  0  0
 29 27  1  0  0  0  0
 31 28  1  0  0  0  0
 32 28  1  0  0  0  0
 34 36  1  0  0  0  0
 34 39  1  0  0  0  0
 35 34  1  0  0  0  0
 37 43  1  0  0  0  0
 37 42  1  0  0  0  0
 38 39  1  0  0  0  0
 38 37  2  0  0  0  0
 39 40  2  0  0  0  0
 40 41  1  0  0  0  0
 41 45  1  0  0  0  0
 42 41  2  0  0  0  0
 44 38  1  0  0  0  0
M  END
>  <minimizedAffinity>
-5.66361427

$$$$

 OpenBabel03262520523D

 45 49  0  0  1  0  0  0  0  0999 V2000
   36.9500   26.9270   33.1350 C   0  0  0  0  0  0  0  0  0  0  0  0
   36.4620   26.3460   33.9360 H   0  0  0  0  0  0  0  0  0  0  0  0
   36.8190   26.4420   32.1250 H   0  0  0  0  0  0  0  0  0  0  0  0
   35.9120   28.9070   34.1800 C   0  0  0  0  0  0  0  0  0  0  0  0
   36.2930   28.2650   33.0130 C   0  0  0  0  0  0  0  0  0  0  0  0
   36.0530   28.8810   31.7930 C   0  0  0  0  0  0  0  0  0  0  0  0
   35.4450   30.1170   31.7260 C   0  0  0  0  0  0  0  0  0  0  0  0
   35.1210   30.8870   30.6700 N   0  0  0  0  0  0  0  0  0  0  0  0
   34.5460   31.9950   31.1610 C   0  0  0  0  0  0  0  0  0  0  0  0
   34.4810   31.9740   32.5410 C   0  0  0  0  0  0  0  0  0  0  0  0
   35.0670   30.7540   32.8830 C   0  0  0  0  0  0  0  0  0  0  0  0
   35.3010   30.1510   34.0880 C   0  0  0  0  0  0  0  0  0  0  0  0
   36.0410   28.5400   35.1880 H   0  0  0  0  0  0  0  0  0  0  0  0
   36.3820   28.3120   30.9200 H   0  0  0  0  0  0  0  0  0  0  0  0
   35.2970   30.6400   29.6700 H   0  0  0  0  0  0  0  0  0  0  0  0
   34.1610   32.8350   30.5820 H   0  0  0  0  0  0  0  0  0  0  0  0
   34.0780   32.7160   33.2160 H   0  0  0  0  0  0  0  0  0  0  0  0
   34.8840   30.8640   35.2560 N   0  0  0  0  0  0  0  0  0  0  0  0
   33.5430   30.8830   35.8370 C   0  0  0  0  0  2  0  0  0  0  0  0
   33.3370   32.3770   36.0110 C   0  0  0  0  0  2  0  0  0  0  0  0
   34.6490   32.8030   36.6260 C   0  0  0  0  0  2  0  0  0  0  0  0
   35.6100   31.7420   36.1820 C   0  0  0  0  0  3  0  0  0  0  0  0
   35.8540   31.0640   37.0520 H   0  0  0  0  0  0  0  0  0  0  0  0
   38.4270   27.1530   33.3920 C   0  0  0  0  0  0  0  0  0  0  0  0
   38.5680   28.2500   33.3800 H   0  0  0  0  0  0  0  0  0  0  0  0
   38.9430   26.6270   32.5450 H   0  0  0  0  0  0  0  0  0  0  0  0
   37.9140   26.0450   35.5960 C   0  0  1  0  0  0  0  0  0  0  0  0
   38.6210   27.3260   35.9820 C   0  0  0  0  0  0  0  0  0  0  0  0
   38.9150   26.6510   34.7030 C   0  0  2  0  0  0  0  0  0  0  0  0
   36.8340   26.1590   35.3830 H   0  0  0  0  0  0  0  0  0  0  0  0
   39.3530   27.3200   36.8080 H   0  0  0  0  0  0  0  0  0  0  0  0
   38.0590   28.2910   35.9280 H   0  0  0  0  0  0  0  0  0  0  0  0
   39.9080   26.1110   34.7090 H   0  0  0  0  0  0  0  0  0  0  0  0
   38.2650   24.8520   36.4470 C   0  0  0  0  0  0  0  0  0  0  0  0
   37.3120   24.4690   36.8690 H   0  0  0  0  0  0  0  0  0  0  0  0
   38.9590   25.1330   37.2510 H   0  0  0  0  0  0  0  0  0  0  0  0
   40.7550   22.3600   35.1980 C   0  0  0  0  0  0  0  0  0  0  0  0
   40.1470   23.4070   35.9620 C   0  0  0  0  0  0  0  0  0  0  0  0
   38.8630   23.7730   35.6450 C   0  0  0  0  0  0  0  0  0  0  0  0
   38.2480   23.1260   34.6360 N   0  0  0  0  0  0  0  0  0  0  0  0
   38.8200   22.1530   33.9310 C   0  0  0  0  0  0  0  0  0  0  0  0
   40.0670   21.7800   34.2200 N   0  0  0  0  0  0  0  0  0  0  0  0
   41.7460   22.0270   35.3900 H   0  0  0  0  0  0  0  0  0  0  0  0
   40.7210   23.8660   36.7540 H   0  0  0  0  0  0  0  0  0  0  0  0
   38.1520   21.7730   33.1710 H   0  0  0  0  0  0  0  0  0  0  0  0
  1 24  1  0  0  0  0
  1  2  1  0  0  0  0
  3  1  1  0  0  0  0
  4 13  1  0  0  0  0
  5  1  1  0  0  0  0
  5  4  2  0  0  0  0
  6  5  1  0  0  0  0
  7  6  2  0  0  0  0
  7 11  1  0  0  0  0
  8  9  1  0  0  0  0
  8  7  1  0  0  0  0
  9 10  2  0  0  0  0
 10 11  1  0  0  0  0
 10 17  1  0  0  0  0
 11 12  2  0  0  0  0
 12  4  1  0  0  0  0
 12 18  1  0  0  0  0
 14  6  1  0  0  0  0
 15  8  1  0  0  0  0
 16  9  1  0  0  0  0
 18 19  1  0  0  0  0
 18 22  1  0  0  0  0
 19 20  1  0  0  0  0
 20 21  1  0  0  0  0
 22 21  1  0  0  0  0
 22 23  1  0  0  0  0
 24 29  1  0  0  0  0
 25 24  1  0  0  0  0
 26 24  1  0  0  0  0
 27 30  1  6  0  0  0
 27 28  1  0  0  0  0
 27 34  1  0  0  0  0
 28 31  1  0  0  0  0
 29 33  1  6  0  0  0
 29 27  1  0  0  0  0
 29 28  1  0  0  0  0
 32 28  1  0  0  0  0
 34 35  1  0  0  0  0
 34 36  1  0  0  0  0
 37 43  1  0  0  0  0
 37 38  1  0  0  0  0
 38 44  1  0  0  0  0
 39 38  2  0  0  0  0
 39 34  1  0  0  0  0
 40 39  1  0  0  0  0
 41 42  1  0  0  0  0
 41 40  2  0  0  0  0
 42 37  2  0  0  0  0
 45 41  1  0  0  0  0
M  END
>  <minimizedAffinity>
-5.64984083

$$$$

 OpenBabel03262520523D

 45 49  0  0  1  0  0  0  0  0999 V2000
   35.8020   29.8400   33.2180 C   0  0  0  0  0  0  0  0  0  0  0  0
   36.5860   30.5140   32.8290 H   0  0  0  0  0  0  0  0  0  0  0  0
   34.8340   29.9490   32.6490 H   0  0  0  0  0  0  0  0  0  0  0  0
   36.9940   27.8240   33.9950 C   0  0  0  0  0  0  0  0  0  0  0  0
   36.2160   28.4170   33.0150 C   0  0  0  0  0  0  0  0  0  0  0  0
   35.8560   27.6790   31.8970 C   0  0  0  0  0  0  0  0  0  0  0  0
   36.2580   26.3680   31.7490 C   0  0  0  0  0  0  0  0  0  0  0  0
   36.0290   25.4770   30.7650 N   0  0  0  0  0  0  0  0  0  0  0  0
   36.6510   24.3420   31.1180 C   0  0  0  0  0  0  0  0  0  0  0  0
   37.2970   24.4650   32.3330 C   0  0  0  0  0  0  0  0  0  0  0  0
   37.0300   25.7780   32.7210 C   0  0  0  0  0  0  0  0  0  0  0  0
   37.3880   26.5030   33.8240 C   0  0  0  0  0  0  0  0  0  0  0  0
   37.3410   28.2850   34.9080 H   0  0  0  0  0  0  0  0  0  0  0  0
   35.2420   28.2160   31.1690 H   0  0  0  0  0  0  0  0  0  0  0  0
   35.4690   25.6660   29.9030 H   0  0  0  0  0  0  0  0  0  0  0  0
   36.6730   23.4120   30.5480 H   0  0  0  0  0  0  0  0  0  0  0  0
   37.8780   23.7290   32.8740 H   0  0  0  0  0  0  0  0  0  0  0  0
   38.1930   25.8340   34.8010 N   0  0  0  0  0  0  0  0  0  0  0  0
   39.6520   25.8450   34.8880 C   0  0  0  0  0  2  0  0  0  0  0  0
   39.9330   24.3600   35.0250 C   0  0  0  0  0  2  0  0  0  0  0  0
   38.9180   23.9460   36.0650 C   0  0  0  0  0  2  0  0  0  0  0  0
   37.8430   24.9840   35.9450 C   0  0  0  0  0  3  0  0  0  0  0  0
   37.8980   25.6900   36.8250 H   0  0  0  0  0  0  0  0  0  0  0  0
   35.5370   30.0430   34.6970 C   0  0  0  0  0  0  0  0  0  0  0  0
   36.4820   29.7830   35.2080 H   0  0  0  0  0  0  0  0  0  0  0  0
   34.6940   29.3400   34.9300 H   0  0  0  0  0  0  0  0  0  0  0  0
   36.3060   32.3520   35.3500 C   0  0  1  0  0  0  0  0  0  0  0  0
   35.3490   31.9560   36.4520 C   0  0  0  0  0  0  0  0  0  0  0  0
   35.1860   31.4350   35.0820 C   0  0  2  0  0  0  0  0  0  0  0  0
   37.3340   31.9590   35.4670 H   0  0  0  0  0  0  0  0  0  0  0  0
   34.6470   32.7030   36.8630 H   0  0  0  0  0  0  0  0  0  0  0  0
   35.6920   31.2320   37.2320 H   0  0  0  0  0  0  0  0  0  0  0  0
   34.3310   31.9220   34.5250 H   0  0  0  0  0  0  0  0  0  0  0  0
   36.2290   33.8010   34.9400 C   0  0  0  0  0  0  0  0  0  0  0  0
   35.7400   34.3440   35.7760 H   0  0  0  0  0  0  0  0  0  0  0  0
   35.6520   33.9160   34.0130 H   0  0  0  0  0  0  0  0  0  0  0  0
   39.1050   35.5760   33.3460 C   0  0  0  0  0  0  0  0  0  0  0  0
   37.8110   35.0010   33.5550 C   0  0  0  0  0  0  0  0  0  0  0  0
   37.5690   34.3820   34.7550 C   0  0  0  0  0  0  0  0  0  0  0  0
   38.5590   34.3510   35.6670 N   0  0  0  0  0  0  0  0  0  0  0  0
   39.7600   34.8880   35.4650 C   0  0  0  0  0  0  0  0  0  0  0  0
   40.0200   35.4950   34.3070 N   0  0  0  0  0  0  0  0  0  0  0  0
   39.3620   36.0710   32.4400 H   0  0  0  0  0  0  0  0  0  0  0  0
   37.0810   35.0780   32.7630 H   0  0  0  0  0  0  0  0  0  0  0  0
   40.4020   34.7500   36.3230 H   0  0  0  0  0  0  0  0  0  0  0  0
  1 24  1  0  0  0  0
  2  1  1  0  0  0  0
  3  1  1  0  0  0  0
  4 13  1  0  0  0  0
  5  1  1  0  0  0  0
  5  4  2  0  0  0  0
  6  5  1  0  0  0  0
  7  6  2  0  0  0  0
  7 11  1  0  0  0  0
  8  9  1  0  0  0  0
  8  7  1  0  0  0  0
  9 10  2  0  0  0  0
 10 11  1  0  0  0  0
 10 17  1  0  0  0  0
 11 12  2  0  0  0  0
 12  4  1  0  0  0  0
 12 18  1  0  0  0  0
 14  6  1  0  0  0  0
 15  8  1  0  0  0  0
 16  9  1  0  0  0  0
 18 19  1  0  0  0  0
 18 22  1  0  0  0  0
 19 20  1  0  0  0  0
 20 21  1  0  0  0  0
 22 21  1  0  0  0  0
 22 23  1  0  0  0  0
 24 26  1  0  0  0  0
 24 29  1  0  0  0  0
 24 25  1  0  0  0  0
 27 30  1  1  0  0  0
 27 28  1  0  0  0  0
 28 31  1  0  0  0  0
 28 32  1  0  0  0  0
 29 33  1  6  0  0  0
 29 27  1  0  0  0  0
 29 28  1  0  0  0  0
 34 27  1  0  0  0  0
 34 35  1  0  0  0  0
 36 34  1  0  0  0  0
 37 38  2  0  0  0  0
 37 42  1  0  0  0  0
 38 39  1  0  0  0  0
 39 34  1  0  0  0  0
 39 40  2  0  0  0  0
 41 40  1  0  0  0  0
 41 45  1  0  0  0  0
 42 41  2  0  0  0  0
 43 37  1  0  0  0  0
 44 38  1  0  0  0  0
M  END
>  <minimizedAffinity>
-5.61553669

$$$$

 OpenBabel03262520523D

 45 49  0  0  1  0  0  0  0  0999 V2000
   34.5970   31.0100   33.7320 C   0  0  0  0  0  0  0  0  0  0  0  0
   34.0960   31.8320   33.1930 H   0  0  0  0  0  0  0  0  0  0  0  0
   33.8560   30.2700   34.1530 H   0  0  0  0  0  0  0  0  0  0  0  0
   36.0030   29.0440   33.2380 C   0  0  0  0  0  0  0  0  0  0  0  0
   35.4370   30.2210   32.7790 C   0  0  0  0  0  0  0  0  0  0  0  0
   35.6690   30.6190   31.4700 C   0  0  0  0  0  0  0  0  0  0  0  0
   36.4490   29.8610   30.6220 C   0  0  0  0  0  0  0  0  0  0  0  0
   36.8010   30.0500   29.3360 N   0  0  0  0  0  0  0  0  0  0  0  0
   37.5740   29.0110   28.9890 C   0  0  0  0  0  0  0  0  0  0  0  0
   37.7450   28.1240   30.0340 C   0  0  0  0  0  0  0  0  0  0  0  0
   37.0110   28.6920   31.0770 C   0  0  0  0  0  0  0  0  0  0  0  0
   36.7860   28.2960   32.3660 C   0  0  0  0  0  0  0  0  0  0  0  0
   35.9020   28.6230   34.2270 H   0  0  0  0  0  0  0  0  0  0  0  0
   35.1880   31.5580   31.1840 H   0  0  0  0  0  0  0  0  0  0  0  0
   36.5090   30.8640   28.7480 H   0  0  0  0  0  0  0  0  0  0  0  0
   38.0340   28.8440   28.0140 H   0  0  0  0  0  0  0  0  0  0  0  0
   38.3090   27.2010   30.0600 H   0  0  0  0  0  0  0  0  0  0  0  0
   37.3990   27.0710   32.7800 N   0  0  0  0  0  0  0  0  0  0  0  0
   38.7000   26.9190   33.4270 C   0  0  0  0  0  2  0  0  0  0  0  0
   39.3120   25.8290   32.5660 C   0  0  0  0  0  2  0  0  0  0  0  0
   38.1760   24.8380   32.4630 C   0  0  0  0  0  2  0  0  0  0  0  0
   36.9540   25.6740   32.6960 C   0  0  0  0  0  3  0  0  0  0  0  0
   36.5440   25.4660   33.7280 H   0  0  0  0  0  0  0  0  0  0  0  0
   35.4960   31.5040   34.8490 C   0  0  0  0  0  0  0  0  0  0  0  0
   35.6580   32.5790   34.6480 H   0  0  0  0  0  0  0  0  0  0  0  0
   36.4270   30.8860   34.7540 H   0  0  0  0  0  0  0  0  0  0  0  0
   33.5080   31.7790   36.3740 C   0  0  1  0  0  0  0  0  0  0  0  0
   34.6110   32.5530   37.0610 C   0  0  0  0  0  0  0  0  0  0  0  0
   34.9180   31.3850   36.2130 C   0  0  2  0  0  0  0  0  0  0  0  0
   32.9880   32.3330   35.5680 H   0  0  0  0  0  0  0  0  0  0  0  0
   34.7150   32.5000   38.1590 H   0  0  0  0  0  0  0  0  0  0  0  0
   34.8970   33.5570   36.6620 H   0  0  0  0  0  0  0  0  0  0  0  0
   35.1990   30.4680   36.8120 H   0  0  0  0  0  0  0  0  0  0  0  0
   32.5980   31.0190   37.3040 C   0  0  0  0  0  0  0  0  0  0  0  0
   31.7970   31.7230   37.6130 H   0  0  0  0  0  0  0  0  0  0  0  0
   33.1500   30.6530   38.1810 H   0  0  0  0  0  0  0  0  0  0  0  0
   31.0410   27.6660   36.7610 C   0  0  0  0  0  0  0  0  0  0  0  0
   31.6660   28.7870   37.3950 C   0  0  0  0  0  0  0  0  0  0  0  0
   31.9570   29.8830   36.6240 C   0  0  0  0  0  0  0  0  0  0  0  0
   31.6380   29.8430   35.3160 N   0  0  0  0  0  0  0  0  0  0  0  0
   31.0570   28.7970   34.7330 C   0  0  0  0  0  0  0  0  0  0  0  0
   30.7650   27.7200   35.4620 N   0  0  0  0  0  0  0  0  0  0  0  0
   30.7870   26.7840   37.2990 H   0  0  0  0  0  0  0  0  0  0  0  0
   31.8820   28.7240   38.4520 H   0  0  0  0  0  0  0  0  0  0  0  0
   30.8910   28.9750   33.6810 H   0  0  0  0  0  0  0  0  0  0  0  0
  1  3  1  0  0  0  0
  1 24  1  0  0  0  0
  2  1  1  0  0  0  0
  4 13  1  0  0  0  0
  5  4  1  0  0  0  0
  5  1  1  0  0  0  0
  6  5  2  0  0  0  0
  7 11  2  0  0  0  0
  7  6  1  0  0  0  0
  8  7  1  0  0  0  0
  9  8  1  0  0  0  0
  9 10  2  0  0  0  0
 10 17  1  0  0  0  0
 10 11  1  0  0  0  0
 11 12  1  0  0  0  0
 12 18  1  0  0  0  0
 12  4  2  0  0  0  0
 14  6  1  0  0  0  0
 15  8  1  0  0  0  0
 16  9  1  0  0  0  0
 18 19  1  0  0  0  0
 20 19  1  0  0  0  0
 21 20  1  0  0  0  0
 21 22  1  0  0  0  0
 22 18  1  0  0  0  0
 22 23  1  0  0  0  0
 24 29  1  0  0  0  0
 25 24  1  0  0  0  0
 26 24  1  0  0  0  0
 27 30  1  6  0  0  0
 27 28  1  0  0  0  0
 27 34  1  0  0  0  0
 28 31  1  0  0  0  0
 29 27  1  0  0  0  0
 29 33  1  1  0  0  0
 29 28  1  0  0  0  0
 32 28  1  0  0  0  0
 34 35  1  0  0  0  0
 34 36  1  0  0  0  0
 37 43  1  0  0  0  0
 37 38  1  0  0  0  0
 38 44  1  0  0  0  0
 39 34  1  0  0  0  0
 39 38  2  0  0  0  0
 40 39  1  0  0  0  0
 41 40  2  0  0  0  0
 41 42  1  0  0  0  0
 42 37  2  0  0  0  0
 45 41  1  0  0  0  0
M  END
>  <minimizedAffinity>
-5.59662437

$$$$
