
 OpenBabel03272510183D

 25 27  0  0  0  0  0  0  0  0999 V2000
   37.2690   28.7170   29.5360 Br  0  0  0  0  0  0  0  0  0  0  0  0
   36.5570   29.4180   31.1750 C   0  0  0  0  0  0  0  0  0  0  0  0
   36.1300   28.5690   32.1740 C   0  0  0  0  0  0  0  0  0  0  0  0
   35.6280   29.1440   33.3300 C   0  0  0  0  0  0  0  0  0  0  0  0
   35.5420   30.5020   33.5110 C   0  0  0  0  0  0  0  0  0  0  0  0
   35.9730   31.3180   32.5040 C   0  0  0  0  0  0  0  0  0  0  0  0
   36.4840   30.7670   31.3280 C   0  0  0  0  0  0  0  0  0  0  0  0
   35.3040   28.4430   34.0880 H   0  0  0  0  0  0  0  0  0  0  0  0
   35.9000   32.3740   32.6580 H   0  0  0  0  0  0  0  0  0  0  0  0
   36.8200   31.4320   30.5400 H   0  0  0  0  0  0  0  0  0  0  0  0
   37.3390   25.1440   32.5250 C   0  0  0  0  0  0  0  0  0  0  0  0
   36.4090   24.3780   31.7550 C   0  0  0  0  0  0  0  0  0  0  0  0
   35.3730   25.0730   31.1250 C   0  0  0  0  0  0  0  0  0  0  0  0
   35.3050   26.4280   31.2760 N   0  0  0  0  0  0  0  0  0  0  0  0
   36.2060   27.1150   32.0140 C   0  0  0  0  0  0  0  0  0  0  0  0
   37.2160   26.4710   32.6340 N   0  0  0  0  0  0  0  0  0  0  0  0
   38.1280   24.5680   32.9990 H   0  0  0  0  0  0  0  0  0  0  0  0
   36.4840   23.3030   31.6510 H   0  0  0  0  0  0  0  0  0  0  0  0
   34.6250   24.5740   30.5220 H   0  0  0  0  0  0  0  0  0  0  0  0
   35.0170   31.0320   34.7210 N   0  0  0  0  0  0  0  0  0  0  0  0
   33.6270   31.3080   35.0230 C   0  0  0  0  0  2  0  0  0  0  0  0
   33.5930   31.4160   36.5530 C   0  0  0  0  0  2  0  0  0  0  0  0
   34.9030   32.1810   36.7870 C   0  0  0  0  0  2  0  0  0  0  0  0
   35.8290   31.3940   35.8890 C   0  0  0  0  0  3  0  0  0  0  0  0
   36.1170   30.4680   36.4520 H   0  0  0  0  0  0  0  0  0  0  0  0
  1  2  1  0  0  0  0
  2  7  2  0  0  0  0
  2  3  1  0  0  0  0
  3  4  2  0  0  0  0
  4  5  1  0  0  0  0
  4  8  1  0  0  0  0
  5 20  1  0  0  0  0
  6  9  1  0  0  0  0
  6  5  2  0  0  0  0
  7  6  1  0  0  0  0
 10  7  1  0  0  0  0
 11 16  1  0  0  0  0
 11 17  1  0  0  0  0
 12 11  2  0  0  0  0
 13 14  2  0  0  0  0
 13 12  1  0  0  0  0
 14 15  1  0  0  0  0
 15  3  1  0  0  0  0
 15 16  2  0  0  0  0
 18 12  1  0  0  0  0
 19 13  1  0  0  0  0
 20 21  1  0  0  0  0
 20 24  1  0  0  0  0
 21 22  1  0  0  0  0
 22 23  1  0  0  0  0
 24 25  1  0  0  0  0
 24 23  1  0  0  0  0
M  END
>  <minimizedAffinity>
-4.91284657

$$$$

 OpenBabel03272510183D

 25 27  0  0  0  0  0  0  0  0999 V2000
   39.4950   25.9050   34.5930 Br  0  0  0  0  0  0  0  0  0  0  0  0
   38.5530   24.3930   33.8790 C   0  0  0  0  0  0  0  0  0  0  0  0
   38.1940   23.3420   34.6940 C   0  0  0  0  0  0  0  0  0  0  0  0
   37.5160   22.2830   34.1120 C   0  0  0  0  0  0  0  0  0  0  0  0
   37.1960   22.2460   32.7770 C   0  0  0  0  0  0  0  0  0  0  0  0
   37.5650   23.3030   31.9940 C   0  0  0  0  0  0  0  0  0  0  0  0
   38.2490   24.3830   32.5530 C   0  0  0  0  0  0  0  0  0  0  0  0
   37.2530   21.4790   34.7860 H   0  0  0  0  0  0  0  0  0  0  0  0
   37.3100   23.2610   30.9560 H   0  0  0  0  0  0  0  0  0  0  0  0
   38.5330   25.2120   31.9150 H   0  0  0  0  0  0  0  0  0  0  0  0
   37.8490   23.9060   38.2830 C   0  0  0  0  0  0  0  0  0  0  0  0
   39.0680   23.3890   38.8240 C   0  0  0  0  0  0  0  0  0  0  0  0
   39.9910   22.8500   37.9230 C   0  0  0  0  0  0  0  0  0  0  0  0
   39.6840   22.8470   36.5930 N   0  0  0  0  0  0  0  0  0  0  0  0
   38.5190   23.3470   36.1230 C   0  0  0  0  0  0  0  0  0  0  0  0
   37.6100   23.8720   36.9680 N   0  0  0  0  0  0  0  0  0  0  0  0
   37.1590   24.3160   39.0150 H   0  0  0  0  0  0  0  0  0  0  0  0
   39.2880   23.4030   39.8840 H   0  0  0  0  0  0  0  0  0  0  0  0
   40.9380   22.4370   38.2450 H   0  0  0  0  0  0  0  0  0  0  0  0
   36.4980   21.1320   32.2370 N   0  0  0  0  0  0  0  0  0  0  0  0
   36.5480   20.6490   30.8730 C   0  0  0  0  0  2  0  0  0  0  0  0
   36.0020   19.2180   30.9650 C   0  0  0  0  0  2  0  0  0  0  0  0
   34.8640   19.4400   31.9710 C   0  0  0  0  0  2  0  0  0  0  0  0
   35.5900   20.2720   33.0040 C   0  0  0  0  0  3  0  0  0  0  0  0
   36.1840   19.5600   33.6340 H   0  0  0  0  0  0  0  0  0  0  0  0
  2  1  1  0  0  0  0
  2  3  1  0  0  0  0
  3 15  1  0  0  0  0
  4  3  2  0  0  0  0
  4  8  1  0  0  0  0
  5  4  1  0  0  0  0
  6  7  1  0  0  0  0
  6  5  2  0  0  0  0
  7  2  2  0  0  0  0
  9  6  1  0  0  0  0
 10  7  1  0  0  0  0
 11 12  1  0  0  0  0
 11 17  1  0  0  0  0
 12 18  1  0  0  0  0
 13 19  1  0  0  0  0
 13 12  2  0  0  0  0
 14 13  1  0  0  0  0
 15 14  2  0  0  0  0
 15 16  1  0  0  0  0
 16 11  2  0  0  0  0
 20  5  1  0  0  0  0
 20 24  1  0  0  0  0
 21 22  1  0  0  0  0
 21 20  1  0  0  0  0
 22 23  1  0  0  0  0
 23 24  1  0  0  0  0
 24 25  1  0  0  0  0
M  END
>  <minimizedAffinity>
-4.84332132

$$$$

 OpenBabel03272510183D

 25 27  0  0  0  0  0  0  0  0999 V2000
   35.6430   30.1880   31.5170 Br  0  0  0  0  0  0  0  0  0  0  0  0
   36.3950   28.7520   32.5450 C   0  0  0  0  0  0  0  0  0  0  0  0
   36.1360   28.6460   33.8950 C   0  0  0  0  0  0  0  0  0  0  0  0
   36.7110   27.5850   34.5740 C   0  0  0  0  0  0  0  0  0  0  0  0
   37.5130   26.6540   33.9620 C   0  0  0  0  0  0  0  0  0  0  0  0
   37.7510   26.7860   32.6240 C   0  0  0  0  0  0  0  0  0  0  0  0
   37.1850   27.8450   31.9130 C   0  0  0  0  0  0  0  0  0  0  0  0
   36.4830   27.5380   35.6310 H   0  0  0  0  0  0  0  0  0  0  0  0
   38.3780   26.0540   32.1590 H   0  0  0  0  0  0  0  0  0  0  0  0
   37.3870   27.9310   30.8510 H   0  0  0  0  0  0  0  0  0  0  0  0
   35.1710   31.5610   35.8670 C   0  0  0  0  0  0  0  0  0  0  0  0
   33.7440   31.4910   35.8950 C   0  0  0  0  0  0  0  0  0  0  0  0
   33.1410   30.4250   35.2210 C   0  0  0  0  0  0  0  0  0  0  0  0
   33.9370   29.5190   34.5830 N   0  0  0  0  0  0  0  0  0  0  0  0
   35.2850   29.6210   34.5810 C   0  0  0  0  0  0  0  0  0  0  0  0
   35.8940   30.6400   35.2220 N   0  0  0  0  0  0  0  0  0  0  0  0
   35.6010   32.4040   36.4010 H   0  0  0  0  0  0  0  0  0  0  0  0
   33.1330   32.2230   36.4080 H   0  0  0  0  0  0  0  0  0  0  0  0
   32.0660   30.2950   35.1910 H   0  0  0  0  0  0  0  0  0  0  0  0
   38.0750   25.5860   34.7140 N   0  0  0  0  0  0  0  0  0  0  0  0
   38.6080   24.3420   34.1970 C   0  0  0  0  0  2  0  0  0  0  0  0
   39.4650   23.7990   35.3480 C   0  0  0  0  0  2  0  0  0  0  0  0
   38.5590   24.1550   36.5350 C   0  0  0  0  0  2  0  0  0  0  0  0
   38.2060   25.5790   36.1750 C   0  0  0  0  0  3  0  0  0  0  0  0
   39.0770   26.2160   36.4800 H   0  0  0  0  0  0  0  0  0  0  0  0
  1  2  1  0  0  0  0
  2  3  1  0  0  0  0
  3  4  2  0  0  0  0
  3 15  1  0  0  0  0
  4  8  1  0  0  0  0
  5  4  1  0  0  0  0
  5 20  1  0  0  0  0
  6  5  2  0  0  0  0
  7  2  2  0  0  0  0
  7  6  1  0  0  0  0
  9  6  1  0  0  0  0
 10  7  1  0  0  0  0
 11 12  1  0  0  0  0
 11 17  1  0  0  0  0
 12 18  1  0  0  0  0
 13 12  2  0  0  0  0
 14 13  1  0  0  0  0
 15 14  2  0  0  0  0
 15 16  1  0  0  0  0
 16 11  2  0  0  0  0
 19 13  1  0  0  0  0
 20 24  1  0  0  0  0
 21 20  1  0  0  0  0
 21 22  1  0  0  0  0
 22 23  1  0  0  0  0
 24 25  1  0  0  0  0
 24 23  1  0  0  0  0
M  END
>  <minimizedAffinity>
-4.72997046

$$$$

 OpenBabel03272510183D

 25 27  0  0  0  0  0  0  0  0999 V2000
   36.6340   28.0380   31.7350 Br  0  0  0  0  0  0  0  0  0  0  0  0
   36.4330   26.1290   31.7620 C   0  0  0  0  0  0  0  0  0  0  0  0
   37.3340   25.3400   32.4430 C   0  0  0  0  0  0  0  0  0  0  0  0
   37.1280   23.9700   32.4210 C   0  0  0  0  0  0  0  0  0  0  0  0
   36.0780   23.3840   31.7580 C   0  0  0  0  0  0  0  0  0  0  0  0
   35.2010   24.1930   31.0930 C   0  0  0  0  0  0  0  0  0  0  0  0
   35.3840   25.5770   31.0970 C   0  0  0  0  0  0  0  0  0  0  0  0
   37.8580   23.3870   32.9660 H   0  0  0  0  0  0  0  0  0  0  0  0
   34.3880   23.7240   30.5800 H   0  0  0  0  0  0  0  0  0  0  0  0
   34.6770   26.2010   30.5630 H   0  0  0  0  0  0  0  0  0  0  0  0
   40.6930   26.6120   33.0860 C   0  0  0  0  0  0  0  0  0  0  0  0
   40.6390   27.0330   34.4510 C   0  0  0  0  0  0  0  0  0  0  0  0
   39.4260   26.8650   35.1250 C   0  0  0  0  0  0  0  0  0  0  0  0
   38.3730   26.3150   34.4530 N   0  0  0  0  0  0  0  0  0  0  0  0
   38.4670   25.9300   33.1610 C   0  0  0  0  0  0  0  0  0  0  0  0
   39.6240   26.0810   32.4850 N   0  0  0  0  0  0  0  0  0  0  0  0
   41.6520   26.7600   32.5970 H   0  0  0  0  0  0  0  0  0  0  0  0
   41.4880   27.4670   34.9620 H   0  0  0  0  0  0  0  0  0  0  0  0
   39.2950   27.1550   36.1600 H   0  0  0  0  0  0  0  0  0  0  0  0
   35.9190   21.9720   31.7720 N   0  0  0  0  0  0  0  0  0  0  0  0
   35.0480   21.2000   32.6340 C   0  0  0  0  0  2  0  0  0  0  0  0
   34.9340   19.8420   31.9290 C   0  0  0  0  0  2  0  0  0  0  0  0
   36.3860   19.6730   31.4600 C   0  0  0  0  0  2  0  0  0  0  0  0
   36.6370   21.0480   30.8860 C   0  0  0  0  0  3  0  0  0  0  0  0
   36.1720   21.0630   29.8660 H   0  0  0  0  0  0  0  0  0  0  0  0
  1  2  1  0  0  0  0
  2  3  1  0  0  0  0
  3 15  1  0  0  0  0
  4  3  2  0  0  0  0
  4  8  1  0  0  0  0
  5 20  1  0  0  0  0
  5  4  1  0  0  0  0
  6  7  1  0  0  0  0
  6  5  2  0  0  0  0
  7  2  2  0  0  0  0
  9  6  1  0  0  0  0
 10  7  1  0  0  0  0
 11 12  1  0  0  0  0
 12 18  1  0  0  0  0
 12 13  2  0  0  0  0
 13 19  1  0  0  0  0
 14 13  1  0  0  0  0
 15 14  2  0  0  0  0
 16 11  2  0  0  0  0
 16 15  1  0  0  0  0
 17 11  1  0  0  0  0
 20 21  1  0  0  0  0
 22 21  1  0  0  0  0
 23 22  1  0  0  0  0
 24 23  1  0  0  0  0
 24 20  1  0  0  0  0
 25 24  1  0  0  0  0
M  END
>  <minimizedAffinity>
-4.69456816

$$$$

 OpenBabel03272510183D

 25 27  0  0  0  0  0  0  0  0999 V2000
   37.3520   26.6050   31.2330 Br  0  0  0  0  0  0  0  0  0  0  0  0
   36.6340   27.8530   32.5020 C   0  0  0  0  0  0  0  0  0  0  0  0
   37.0120   27.8020   33.8260 C   0  0  0  0  0  0  0  0  0  0  0  0
   36.4540   28.7340   34.6870 C   0  0  0  0  0  0  0  0  0  0  0  0
   35.5570   29.6870   34.2740 C   0  0  0  0  0  0  0  0  0  0  0  0
   35.2010   29.7130   32.9560 C   0  0  0  0  0  0  0  0  0  0  0  0
   35.7460   28.7870   32.0660 C   0  0  0  0  0  0  0  0  0  0  0  0
   36.7770   28.6590   35.7170 H   0  0  0  0  0  0  0  0  0  0  0  0
   34.5000   30.4600   32.6480 H   0  0  0  0  0  0  0  0  0  0  0  0
   35.4510   28.8240   31.0230 H   0  0  0  0  0  0  0  0  0  0  0  0
   40.1860   26.2810   34.7880 C   0  0  0  0  0  0  0  0  0  0  0  0
   39.8190   24.9580   35.1870 C   0  0  0  0  0  0  0  0  0  0  0  0
   38.4640   24.6190   35.1140 C   0  0  0  0  0  0  0  0  0  0  0  0
   37.5770   25.5570   34.6700 N   0  0  0  0  0  0  0  0  0  0  0  0
   37.9670   26.7980   34.3020 C   0  0  0  0  0  0  0  0  0  0  0  0
   39.2670   27.1530   34.3630 N   0  0  0  0  0  0  0  0  0  0  0  0
   41.2470   26.5040   34.8610 H   0  0  0  0  0  0  0  0  0  0  0  0
   40.5410   24.2310   35.5360 H   0  0  0  0  0  0  0  0  0  0  0  0
   38.0980   23.6410   35.3950 H   0  0  0  0  0  0  0  0  0  0  0  0
   35.0190   30.6170   35.2050 N   0  0  0  0  0  0  0  0  0  0  0  0
   33.6190   30.8410   35.5050 C   0  0  0  0  0  2  0  0  0  0  0  0
   33.6410   31.5780   36.8510 C   0  0  0  0  0  2  0  0  0  0  0  0
   34.8400   32.5080   36.6160 C   0  0  0  0  0  2  0  0  0  0  0  0
   35.8240   31.5220   36.0320 C   0  0  0  0  0  3  0  0  0  0  0  0
   36.2660   30.9560   36.8940 H   0  0  0  0  0  0  0  0  0  0  0  0
  1  2  1  0  0  0  0
  2  3  1  0  0  0  0
  3 15  1  0  0  0  0
  3  4  2  0  0  0  0
  4  8  1  0  0  0  0
  5  4  1  0  0  0  0
  5 20  1  0  0  0  0
  6  5  2  0  0  0  0
  7  2  2  0  0  0  0
  7  6  1  0  0  0  0
  9  6  1  0  0  0  0
 10  7  1  0  0  0  0
 11 17  1  0  0  0  0
 11 12  1  0  0  0  0
 12 18  1  0  0  0  0
 13 12  2  0  0  0  0
 13 19  1  0  0  0  0
 14 13  1  0  0  0  0
 15 16  1  0  0  0  0
 15 14  2  0  0  0  0
 16 11  2  0  0  0  0
 20 21  1  0  0  0  0
 20 24  1  0  0  0  0
 21 22  1  0  0  0  0
 23 22  1  0  0  0  0
 24 23  1  0  0  0  0
 24 25  1  0  0  0  0
M  END
>  <minimizedAffinity>
-4.68832207

$$$$

 OpenBabel03272510183D

 25 27  0  0  0  0  0  0  0  0999 V2000
   39.1890   27.0800   30.6000 Br  0  0  0  0  0  0  0  0  0  0  0  0
   38.2520   25.4280   30.8760 C   0  0  0  0  0  0  0  0  0  0  0  0
   37.1580   25.3740   31.7130 C   0  0  0  0  0  0  0  0  0  0  0  0
   36.5300   24.1480   31.8650 C   0  0  0  0  0  0  0  0  0  0  0  0
   36.9500   23.0100   31.2240 C   0  0  0  0  0  0  0  0  0  0  0  0
   38.0370   23.0950   30.4010 C   0  0  0  0  0  0  0  0  0  0  0  0
   38.6900   24.3160   30.2280 C   0  0  0  0  0  0  0  0  0  0  0  0
   35.6770   24.1490   32.5310 H   0  0  0  0  0  0  0  0  0  0  0  0
   38.3540   22.2000   29.9080 H   0  0  0  0  0  0  0  0  0  0  0  0
   39.5510   24.3620   29.5700 H   0  0  0  0  0  0  0  0  0  0  0  0
   36.7180   27.8400   34.3660 C   0  0  0  0  0  0  0  0  0  0  0  0
   35.8240   28.7970   33.7920 C   0  0  0  0  0  0  0  0  0  0  0  0
   35.3900   28.5630   32.4850 C   0  0  0  0  0  0  0  0  0  0  0  0
   35.8360   27.4490   31.8340 N   0  0  0  0  0  0  0  0  0  0  0  0
   36.6820   26.5690   32.4140 C   0  0  0  0  0  0  0  0  0  0  0  0
   37.1180   26.7680   33.6740 N   0  0  0  0  0  0  0  0  0  0  0  0
   37.0330   28.0570   35.3830 H   0  0  0  0  0  0  0  0  0  0  0  0
   35.4850   29.6740   34.3290 H   0  0  0  0  0  0  0  0  0  0  0  0
   34.7130   29.2350   31.9720 H   0  0  0  0  0  0  0  0  0  0  0  0
   36.2640   21.7810   31.4200 N   0  0  0  0  0  0  0  0  0  0  0  0
   36.4950   20.5310   30.7250 C   0  0  0  0  0  2  0  0  0  0  0  0
   35.8310   19.4780   31.6220 C   0  0  0  0  0  2  0  0  0  0  0  0
   34.5670   20.2480   32.0310 C   0  0  0  0  0  2  0  0  0  0  0  0
   35.1800   21.5820   32.3890 C   0  0  0  0  0  3  0  0  0  0  0  0
   35.6070   21.4770   33.4200 H   0  0  0  0  0  0  0  0  0  0  0  0
  1  2  1  0  0  0  0
  2  3  1  0  0  0  0
  3  4  2  0  0  0  0
  3 15  1  0  0  0  0
  4  8  1  0  0  0  0
  5 20  1  0  0  0  0
  5  4  1  0  0  0  0
  6  5  2  0  0  0  0
  7  6  1  0  0  0  0
  7  2  2  0  0  0  0
  9  6  1  0  0  0  0
 10  7  1  0  0  0  0
 11 17  1  0  0  0  0
 12 18  1  0  0  0  0
 12 11  1  0  0  0  0
 13 12  2  0  0  0  0
 14 15  2  0  0  0  0
 14 13  1  0  0  0  0
 15 16  1  0  0  0  0
 16 11  2  0  0  0  0
 19 13  1  0  0  0  0
 20 24  1  0  0  0  0
 21 20  1  0  0  0  0
 21 22  1  0  0  0  0
 22 23  1  0  0  0  0
 23 24  1  0  0  0  0
 24 25  1  0  0  0  0
M  END
>  <minimizedAffinity>
-4.60452509

$$$$

 OpenBabel03272510183D

 25 27  0  0  0  0  0  0  0  0999 V2000
   34.3610   32.1710   32.4750 Br  0  0  0  0  0  0  0  0  0  0  0  0
   35.2860   30.5270   32.8290 C   0  0  0  0  0  0  0  0  0  0  0  0
   35.3270   30.0060   34.1040 C   0  0  0  0  0  0  0  0  0  0  0  0
   36.0120   28.8160   34.2860 C   0  0  0  0  0  0  0  0  0  0  0  0
   36.6380   28.1510   33.2620 C   0  0  0  0  0  0  0  0  0  0  0  0
   36.5790   28.6910   32.0080 C   0  0  0  0  0  0  0  0  0  0  0  0
   35.8960   29.8890   31.7940 C   0  0  0  0  0  0  0  0  0  0  0  0
   36.0210   28.4420   35.3020 H   0  0  0  0  0  0  0  0  0  0  0  0
   37.0710   28.1620   31.2190 H   0  0  0  0  0  0  0  0  0  0  0  0
   35.8610   30.3010   30.7920 H   0  0  0  0  0  0  0  0  0  0  0  0
   32.7250   30.9850   36.4670 C   0  0  0  0  0  0  0  0  0  0  0  0
   33.3760   31.9400   37.3090 C   0  0  0  0  0  0  0  0  0  0  0  0
   34.7170   32.2250   37.0370 C   0  0  0  0  0  0  0  0  0  0  0  0
   35.3250   31.5870   35.9940 N   0  0  0  0  0  0  0  0  0  0  0  0
   34.6710   30.6890   35.2220 C   0  0  0  0  0  0  0  0  0  0  0  0
   33.3780   30.3940   35.4620 N   0  0  0  0  0  0  0  0  0  0  0  0
   31.6840   30.7910   36.7120 H   0  0  0  0  0  0  0  0  0  0  0  0
   32.8720   32.4330   38.1310 H   0  0  0  0  0  0  0  0  0  0  0  0
   35.2870   32.9340   37.6220 H   0  0  0  0  0  0  0  0  0  0  0  0
   37.3250   26.9320   33.5110 N   0  0  0  0  0  0  0  0  0  0  0  0
   37.9560   26.0690   32.5330 C   0  0  0  0  0  2  0  0  0  0  0  0
   38.9010   25.1920   33.3660 C   0  0  0  0  0  2  0  0  0  0  0  0
   38.0070   24.9370   34.5870 C   0  0  0  0  0  2  0  0  0  0  0  0
   37.5070   26.3400   34.8420 C   0  0  0  0  0  3  0  0  0  0  0  0
   38.3230   26.8810   35.3880 H   0  0  0  0  0  0  0  0  0  0  0  0
  1  2  1  0  0  0  0
  2  3  1  0  0  0  0
  3  4  2  0  0  0  0
  3 15  1  0  0  0  0
  4  8  1  0  0  0  0
  5 20  1  0  0  0  0
  5  4  1  0  0  0  0
  6  5  2  0  0  0  0
  7  6  1  0  0  0  0
  7  2  2  0  0  0  0
  9  6  1  0  0  0  0
 10  7  1  0  0  0  0
 11 17  1  0  0  0  0
 11 12  1  0  0  0  0
 12 18  1  0  0  0  0
 13 12  2  0  0  0  0
 13 19  1  0  0  0  0
 14 13  1  0  0  0  0
 15 16  1  0  0  0  0
 15 14  2  0  0  0  0
 16 11  2  0  0  0  0
 20 24  1  0  0  0  0
 21 22  1  0  0  0  0
 21 20  1  0  0  0  0
 22 23  1  0  0  0  0
 23 24  1  0  0  0  0
 24 25  1  0  0  0  0
M  END
>  <minimizedAffinity>
-4.46309996

$$$$

 OpenBabel03272510183D

 25 27  0  0  0  0  0  0  0  0999 V2000
   36.6660   29.8540   30.3880 Br  0  0  0  0  0  0  0  0  0  0  0  0
   37.0680   28.5810   31.7670 C   0  0  0  0  0  0  0  0  0  0  0  0
   36.3300   28.5510   32.9300 C   0  0  0  0  0  0  0  0  0  0  0  0
   36.6750   27.6060   33.8830 C   0  0  0  0  0  0  0  0  0  0  0  0
   37.7060   26.7170   33.7110 C   0  0  0  0  0  0  0  0  0  0  0  0
   38.4200   26.7700   32.5470 C   0  0  0  0  0  0  0  0  0  0  0  0
   38.0950   27.7110   31.5700 C   0  0  0  0  0  0  0  0  0  0  0  0
   36.0720   27.6170   34.7800 H   0  0  0  0  0  0  0  0  0  0  0  0
   39.2210   26.0720   32.4270 H   0  0  0  0  0  0  0  0  0  0  0  0
   38.6740   27.7380   30.6540 H   0  0  0  0  0  0  0  0  0  0  0  0
   32.9470   29.9190   32.9020 C   0  0  0  0  0  0  0  0  0  0  0  0
   33.0950   31.1970   33.5250 C   0  0  0  0  0  0  0  0  0  0  0  0
   34.3770   31.5600   33.9460 C   0  0  0  0  0  0  0  0  0  0  0  0
   35.4060   30.6870   33.7420 N   0  0  0  0  0  0  0  0  0  0  0  0
   35.2230   29.4860   33.1480 C   0  0  0  0  0  0  0  0  0  0  0  0
   33.9970   29.1090   32.7320 N   0  0  0  0  0  0  0  0  0  0  0  0
   31.9350   29.6740   32.5900 H   0  0  0  0  0  0  0  0  0  0  0  0
   32.2630   31.8720   33.6770 H   0  0  0  0  0  0  0  0  0  0  0  0
   34.5810   32.5080   34.4260 H   0  0  0  0  0  0  0  0  0  0  0  0
   38.0130   25.7690   34.7250 N   0  0  0  0  0  0  0  0  0  0  0  0
   38.2500   24.3510   34.5520 C   0  0  0  0  0  2  0  0  0  0  0  0
   38.9640   23.9320   35.8440 C   0  0  0  0  0  2  0  0  0  0  0  0
   38.1630   24.7590   36.8600 C   0  0  0  0  0  2  0  0  0  0  0  0
   38.1410   26.0930   36.1510 C   0  0  0  0  0  3  0  0  0  0  0  0
   39.1330   26.5780   36.3420 H   0  0  0  0  0  0  0  0  0  0  0  0
  1  2  1  0  0  0  0
  2  3  1  0  0  0  0
  3 15  1  0  0  0  0
  3  4  2  0  0  0  0
  4  8  1  0  0  0  0
  5  4  1  0  0  0  0
  5 20  1  0  0  0  0
  6  5  2  0  0  0  0
  7  2  2  0  0  0  0
  7  6  1  0  0  0  0
  9  6  1  0  0  0  0
 10  7  1  0  0  0  0
 11 12  1  0  0  0  0
 12 18  1  0  0  0  0
 12 13  2  0  0  0  0
 13 19  1  0  0  0  0
 14 13  1  0  0  0  0
 15 14  2  0  0  0  0
 16 11  2  0  0  0  0
 16 15  1  0  0  0  0
 17 11  1  0  0  0  0
 20 24  1  0  0  0  0
 21 20  1  0  0  0  0
 21 22  1  0  0  0  0
 22 23  1  0  0  0  0
 24 25  1  0  0  0  0
 24 23  1  0  0  0  0
M  END
>  <minimizedAffinity>
-4.4199152

$$$$

 OpenBabel03272510183D

 25 27  0  0  0  0  0  0  0  0999 V2000
   38.2170   23.9880   38.0370 Br  0  0  0  0  0  0  0  0  0  0  0  0
   37.6840   23.0080   36.4750 C   0  0  0  0  0  0  0  0  0  0  0  0
   38.1690   23.3520   35.2320 C   0  0  0  0  0  0  0  0  0  0  0  0
   37.7420   22.6020   34.1480 C   0  0  0  0  0  0  0  0  0  0  0  0
   36.8700   21.5480   34.2680 C   0  0  0  0  0  0  0  0  0  0  0  0
   36.4070   21.2310   35.5130 C   0  0  0  0  0  0  0  0  0  0  0  0
   36.8190   21.9690   36.6230 C   0  0  0  0  0  0  0  0  0  0  0  0
   38.1460   22.9050   33.1920 H   0  0  0  0  0  0  0  0  0  0  0  0
   35.7280   20.4080   35.5920 H   0  0  0  0  0  0  0  0  0  0  0  0
   36.4390   21.7010   37.6020 H   0  0  0  0  0  0  0  0  0  0  0  0
   39.3750   26.7690   34.8050 C   0  0  0  0  0  0  0  0  0  0  0  0
   40.7960   26.6210   34.7510 C   0  0  0  0  0  0  0  0  0  0  0  0
   41.3100   25.3270   34.8670 C   0  0  0  0  0  0  0  0  0  0  0  0
   40.4390   24.2870   35.0210 N   0  0  0  0  0  0  0  0  0  0  0  0
   39.1010   24.4710   35.0660 C   0  0  0  0  0  0  0  0  0  0  0  0
   38.5770   25.7090   34.9580 N   0  0  0  0  0  0  0  0  0  0  0  0
   39.0160   27.7910   34.7120 H   0  0  0  0  0  0  0  0  0  0  0  0
   41.4670   27.4620   34.6290 H   0  0  0  0  0  0  0  0  0  0  0  0
   42.3730   25.1220   34.8370 H   0  0  0  0  0  0  0  0  0  0  0  0
   36.4690   20.8150   33.1180 N   0  0  0  0  0  0  0  0  0  0  0  0
   36.8440   21.0730   31.7430 C   0  0  0  0  0  2  0  0  0  0  0  0
   36.5240   19.7600   31.0180 C   0  0  0  0  0  2  0  0  0  0  0  0
   35.2000   19.4000   31.7080 C   0  0  0  0  0  2  0  0  0  0  0  0
   35.5830   19.6460   33.1490 C   0  0  0  0  0  3  0  0  0  0  0  0
   36.1570   18.7450   33.4900 H   0  0  0  0  0  0  0  0  0  0  0  0
  2  7  1  0  0  0  0
  2  1  1  0  0  0  0
  3  2  2  0  0  0  0
  4  5  2  0  0  0  0
  4  3  1  0  0  0  0
  5  6  1  0  0  0  0
  6  9  1  0  0  0  0
  6  7  2  0  0  0  0
  7 10  1  0  0  0  0
  8  4  1  0  0  0  0
 11 16  1  0  0  0  0
 12 11  2  0  0  0  0
 12 13  1  0  0  0  0
 13 14  2  0  0  0  0
 14 15  1  0  0  0  0
 15  3  1  0  0  0  0
 16 15  2  0  0  0  0
 17 11  1  0  0  0  0
 18 12  1  0  0  0  0
 19 13  1  0  0  0  0
 20 24  1  0  0  0  0
 20  5  1  0  0  0  0
 21 20  1  0  0  0  0
 22 23  1  0  0  0  0
 22 21  1  0  0  0  0
 23 24  1  0  0  0  0
 24 25  1  0  0  0  0
M  END
>  <minimizedAffinity>
-4.38406849

$$$$
