
 OpenBabel03272510153D

 25 27  0  0  0  0  0  0  0  0999 V2000
   37.4700   29.2010   50.8780 Br  0  0  0  0  0  0  0  0  0  0  0  0
   36.0260   29.2880   49.6160 C   0  0  0  0  0  0  0  0  0  0  0  0
   36.0010   30.2670   48.6470 C   0  0  0  0  0  0  0  0  0  0  0  0
   34.9290   30.2690   47.7690 C   0  0  0  0  0  0  0  0  0  0  0  0
   33.9120   29.3490   47.8310 C   0  0  0  0  0  0  0  0  0  0  0  0
   33.9650   28.3900   48.8030 C   0  0  0  0  0  0  0  0  0  0  0  0
   35.0330   28.3630   49.7010 C   0  0  0  0  0  0  0  0  0  0  0  0
   34.9460   31.0540   47.0240 H   0  0  0  0  0  0  0  0  0  0  0  0
   33.1670   27.6800   48.8400 H   0  0  0  0  0  0  0  0  0  0  0  0
   35.0560   27.5940   50.4650 H   0  0  0  0  0  0  0  0  0  0  0  0
   38.0230   33.2020   49.4270 C   0  0  0  0  0  0  0  0  0  0  0  0
   39.0470   33.1800   48.4290 C   0  0  0  0  0  0  0  0  0  0  0  0
   39.0140   32.1380   47.4990 C   0  0  0  0  0  0  0  0  0  0  0  0
   38.0180   31.2090   47.5910 N   0  0  0  0  0  0  0  0  0  0  0  0
   37.0680   31.2660   48.5510 C   0  0  0  0  0  0  0  0  0  0  0  0
   37.0760   32.2600   49.4620 N   0  0  0  0  0  0  0  0  0  0  0  0
   38.0850   34.0270   50.1300 H   0  0  0  0  0  0  0  0  0  0  0  0
   39.8270   33.9290   48.3770 H   0  0  0  0  0  0  0  0  0  0  0  0
   39.7490   32.0440   46.7100 H   0  0  0  0  0  0  0  0  0  0  0  0
   32.8380   29.4030   46.9010 N   0  0  0  0  0  0  0  0  0  0  0  0
   31.8000   28.4120   46.7070 C   0  0  0  0  0  2  0  0  0  0  0  0
   30.7010   29.1690   45.9490 C   0  0  0  0  0  2  0  0  0  0  0  0
   31.5700   29.9970   44.9940 C   0  0  0  0  0  2  0  0  0  0  0  0
   32.6090   30.5080   45.9640 C   0  0  0  0  0  3  0  0  0  0  0  0
   32.1480   31.3760   46.5050 H   0  0  0  0  0  0  0  0  0  0  0  0
  2  7  1  0  0  0  0
  2  1  1  0  0  0  0
  3  2  2  0  0  0  0
  4  5  2  0  0  0  0
  4  3  1  0  0  0  0
  5  6  1  0  0  0  0
  6  9  1  0  0  0  0
  6  7  2  0  0  0  0
  7 10  1  0  0  0  0
  8  4  1  0  0  0  0
 11 16  1  0  0  0  0
 11 17  1  0  0  0  0
 12 11  2  0  0  0  0
 13 14  2  0  0  0  0
 13 12  1  0  0  0  0
 14 15  1  0  0  0  0
 15  3  1  0  0  0  0
 15 16  2  0  0  0  0
 18 12  1  0  0  0  0
 19 13  1  0  0  0  0
 20  5  1  0  0  0  0
 21 20  1  0  0  0  0
 22 21  1  0  0  0  0
 23 22  1  0  0  0  0
 23 24  1  0  0  0  0
 24 25  1  0  0  0  0
 24 20  1  0  0  0  0
M  END
>  <minimizedAffinity>
-5.72001743

>  <minimizedRMSD>
0.582150877

$$$$
