
 OpenBabel03272505023D

 26 28  0  0  1  0  0  0  0  0999 V2000
   37.3590   30.5450   46.8920 Cl  0  0  0  0  0  0  0  0  0  0  0  0
   38.0330   31.8090   47.8910 C   0  0  0  0  0  0  0  0  0  0  0  0
   37.6620   31.8620   49.2010 C   0  0  0  0  0  0  0  0  0  0  0  0
   38.2290   32.8900   49.9590 C   0  0  0  0  0  0  0  0  0  0  0  0
   39.1140   33.7750   49.3430 C   0  0  0  0  0  0  0  0  0  0  0  0
   39.4480   33.6720   48.0270 C   0  0  0  0  0  0  0  0  0  0  0  0
   38.8950   32.6630   47.2750 C   0  0  0  0  0  0  0  0  0  0  0  0
   37.9480   32.9480   50.9950 H   0  0  0  0  0  0  0  0  0  0  0  0
   39.4840   34.5280   50.0440 H   0  0  0  0  0  0  0  0  0  0  0  0
   40.1310   34.4290   47.7360 H   0  0  0  0  0  0  0  0  0  0  0  0
   37.0940   30.1600   50.9340 C   0  0  0  0  0  0  0  0  0  0  0  0
   36.7310   30.9360   49.8460 C   0  0  0  0  0  0  0  0  0  0  0  0
   35.4200   30.8080   49.3680 C   0  0  0  0  0  0  0  0  0  0  0  0
   34.5930   29.9390   49.9970 N   0  0  0  0  0  0  0  0  0  0  0  0
   34.9780   29.2090   51.0430 C   0  0  0  0  0  0  0  0  0  0  0  0
   36.2270   29.3120   51.5210 N   0  0  0  0  0  0  0  0  0  0  0  0
   38.0970   30.2280   51.3340 H   0  0  0  0  0  0  0  0  0  0  0  0
   35.1700   31.4160   48.5320 H   0  0  0  0  0  0  0  0  0  0  0  0
   34.1700   28.5870   51.3890 H   0  0  0  0  0  0  0  0  0  0  0  0
   39.2410   32.5730   45.9460 O   0  0  0  0  0  0  0  0  0  0  0  0
   40.4920   30.4300   45.7830 H   0  0  0  0  0  0  0  0  0  0  0  0
   40.8980   31.1030   45.1080 N   0  0  0  0  0  0  0  0  0  0  0  0
   40.6120   30.8390   43.7320 C   0  0  0  0  0  0  0  0  0  0  0  0
   39.7790   32.0100   43.2550 C   0  0  0  0  0  0  0  0  0  0  0  0
   40.4330   33.1510   44.0200 C   0  0  0  0  0  0  0  0  0  0  0  0
   40.5230   32.4760   45.4020 C   0  0  1  0  0  0  0  0  0  0  0  0
  1  2  1  0  0  0  0
  2  3  1  0  0  0  0
  3 12  1  0  0  0  0
  3  4  2  0  0  0  0
  4  8  1  0  0  0  0
  5  4  1  0  0  0  0
  5  9  1  0  0  0  0
  6  5  2  0  0  0  0
  7  2  2  0  0  0  0
  7  6  1  0  0  0  0
 10  6  1  0  0  0  0
 11 17  1  0  0  0  0
 11 16  1  0  0  0  0
 12 11  2  0  0  0  0
 13 12  1  0  0  0  0
 13 14  2  0  0  0  0
 14 15  1  0  0  0  0
 15 19  1  0  0  0  0
 15 16  2  0  0  0  0
 18 13  1  0  0  0  0
 20  7  1  0  0  0  0
 22 26  1  0  0  0  0
 22 21  1  0  0  0  0
 23 22  1  0  0  0  0
 24 23  1  0  0  0  0
 24 25  1  0  0  0  0
 25 26  1  0  0  0  0
 26 20  1  6  0  0  0
M  END
>  <minimizedAffinity>
-6.07619715

>  <minimizedRMSD>
1.20652938

$$$$
