
 OpenBabel03272509453D

 16 17  0  0  1  0  0  0  0  0999 V2000
   39.0160   23.2230   38.4720 C   0  0  0  0  0  0  0  0  0  0  0  0
   40.0580   22.7110   37.6660 C   0  0  0  0  0  0  0  0  0  0  0  0
   40.1500   23.1530   36.3350 C   0  0  0  0  0  0  0  0  0  0  0  0
   39.2180   24.0610   35.8920 N   0  0  0  0  0  0  0  0  0  0  0  0
   38.2350   24.5220   36.7070 C   0  0  0  0  0  0  0  0  0  0  0  0
   38.1310   24.1100   37.9850 N   0  0  0  0  0  0  0  0  0  0  0  0
   38.8640   22.9460   39.4960 H   0  0  0  0  0  0  0  0  0  0  0  0
   40.7160   22.0140   38.1260 H   0  0  0  0  0  0  0  0  0  0  0  0
   40.9380   22.7640   35.7350 H   0  0  0  0  0  0  0  0  0  0  0  0
   37.4190   25.4200   36.0530 O   0  0  0  0  0  0  0  0  0  0  0  0
   36.7000   25.2440   33.6960 H   0  0  0  0  0  0  0  0  0  0  0  0
   37.4740   25.9490   33.7220 N   0  0  0  0  0  0  0  0  0  0  0  0
   37.0280   27.2120   33.1910 C   0  0  0  0  0  2  0  0  0  0  0  0
   36.6720   27.9900   34.4320 C   0  0  0  0  0  2  0  0  0  0  0  0
   37.8030   27.6300   35.3740 C   0  0  0  0  0  2  0  0  0  0  0  0
   38.0380   26.1710   35.0140 C   0  0  1  0  0  3  0  0  0  0  0  0
  1  7  1  0  0  0  0
  2  8  1  0  0  0  0
  2  1  2  0  0  0  0
  3  2  1  0  0  0  0
  4  3  2  0  0  0  0
  4  5  1  0  0  0  0
  5  6  2  0  0  0  0
  6  1  1  0  0  0  0
  9  3  1  0  0  0  0
 10  5  1  0  0  0  0
 11 12  1  0  0  0  0
 12 16  1  0  0  0  0
 13 12  1  0  0  0  0
 13 14  1  0  0  0  0
 14 15  1  0  0  0  0
 16 15  1  0  0  0  0
 16 10  1  1  0  0  0
M  END
>  <minimizedAffinity>
-3.7674396

$$$$

 OpenBabel03272509453D

 16 17  0  0  1  0  0  0  0  0999 V2000
   38.0270   24.4690   36.6190 C   0  0  0  0  0  0  0  0  0  0  0  0
   37.8700   24.3170   38.0160 C   0  0  0  0  0  0  0  0  0  0  0  0
   38.7530   23.4610   38.6960 C   0  0  0  0  0  0  0  0  0  0  0  0
   39.7210   22.8180   37.9620 N   0  0  0  0  0  0  0  0  0  0  0  0
   39.8290   22.9970   36.6200 C   0  0  0  0  0  0  0  0  0  0  0  0
   38.9920   23.8130   35.9520 N   0  0  0  0  0  0  0  0  0  0  0  0
   37.4040   25.0970   36.0150 H   0  0  0  0  0  0  0  0  0  0  0  0
   37.0830   24.8700   38.4690 H   0  0  0  0  0  0  0  0  0  0  0  0
   38.6290   23.3520   39.7480 H   0  0  0  0  0  0  0  0  0  0  0  0
   40.8650   22.2560   36.0950 O   0  0  0  0  0  0  0  0  0  0  0  0
   41.0710   20.0040   37.0900 H   0  0  0  0  0  0  0  0  0  0  0  0
   41.8710   20.5700   37.4590 N   0  0  0  0  0  0  0  0  0  0  0  0
   43.1290   19.9440   37.1360 C   0  0  0  0  0  2  0  0  0  0  0  0
   43.5610   20.6800   35.8940 C   0  0  0  0  0  2  0  0  0  0  0  0
   43.2000   22.1140   36.2280 C   0  0  0  0  0  2  0  0  0  0  0  0
   41.9080   21.9230   37.0050 C   0  0  1  0  0  3  0  0  0  0  0  0
  1  2  1  0  0  0  0
  2  8  1  0  0  0  0
  2  3  2  0  0  0  0
  3  9  1  0  0  0  0
  4  3  1  0  0  0  0
  5  4  2  0  0  0  0
  6  1  2  0  0  0  0
  6  5  1  0  0  0  0
  7  1  1  0  0  0  0
 10  5  1  0  0  0  0
 11 12  1  0  0  0  0
 13 12  1  0  0  0  0
 14 15  1  0  0  0  0
 14 13  1  0  0  0  0
 15 16  1  0  0  0  0
 16 10  1  6  0  0  0
 16 12  1  0  0  0  0
M  END
>  <minimizedAffinity>
-3.63692069

$$$$

 OpenBabel03272509453D

 16 17  0  0  1  0  0  0  0  0999 V2000
   39.7200   26.7220   34.0730 C   0  0  0  0  0  0  0  0  0  0  0  0
   38.5730   27.0850   33.3290 C   0  0  0  0  0  0  0  0  0  0  0  0
   37.3080   26.8270   33.8850 C   0  0  0  0  0  0  0  0  0  0  0  0
   37.2590   26.2340   35.1240 N   0  0  0  0  0  0  0  0  0  0  0  0
   38.3900   25.9030   35.7980 C   0  0  0  0  0  0  0  0  0  0  0  0
   39.6100   26.1430   35.2800 N   0  0  0  0  0  0  0  0  0  0  0  0
   40.7230   26.8780   33.7330 H   0  0  0  0  0  0  0  0  0  0  0  0
   38.7440   27.5380   32.3820 H   0  0  0  0  0  0  0  0  0  0  0  0
   36.4500   27.1030   33.3190 H   0  0  0  0  0  0  0  0  0  0  0  0
   38.1010   25.3230   37.0140 O   0  0  0  0  0  0  0  0  0  0  0  0
   38.7460   23.9320   35.0770 H   0  0  0  0  0  0  0  0  0  0  0  0
   38.3470   23.2820   35.7940 N   0  0  0  0  0  0  0  0  0  0  0  0
   39.3040   22.2640   36.1480 C   0  0  0  0  0  2  0  0  0  0  0  0
   39.9220   22.8100   37.4100 C   0  0  0  0  0  2  0  0  0  0  0  0
   38.7170   23.3650   38.1440 C   0  0  0  0  0  2  0  0  0  0  0  0
   37.8940   23.9150   36.9910 C   0  0  1  0  0  3  0  0  0  0  0  0
  1  6  1  0  0  0  0
  2  3  1  0  0  0  0
  2  1  2  0  0  0  0
  3  4  2  0  0  0  0
  4  5  1  0  0  0  0
  5 10  1  0  0  0  0
  6  5  2  0  0  0  0
  7  1  1  0  0  0  0
  8  2  1  0  0  0  0
  9  3  1  0  0  0  0
 11 12  1  0  0  0  0
 12 13  1  0  0  0  0
 12 16  1  0  0  0  0
 13 14  1  0  0  0  0
 14 15  1  0  0  0  0
 16 10  1  6  0  0  0
 16 15  1  0  0  0  0
M  END
>  <minimizedAffinity>
-3.60293484

$$$$

 OpenBabel03272509453D

 16 17  0  0  1  0  0  0  0  0999 V2000
   39.7000   22.9660   36.5270 C   0  0  0  0  0  0  0  0  0  0  0  0
   39.4700   22.8940   37.9210 C   0  0  0  0  0  0  0  0  0  0  0  0
   38.5530   23.7920   38.4920 C   0  0  0  0  0  0  0  0  0  0  0  0
   37.9310   24.6930   37.6600 N   0  0  0  0  0  0  0  0  0  0  0  0
   38.1880   24.7230   36.3270 C   0  0  0  0  0  0  0  0  0  0  0  0
   39.0640   23.8700   35.7630 N   0  0  0  0  0  0  0  0  0  0  0  0
   40.3800   22.3250   36.0020 H   0  0  0  0  0  0  0  0  0  0  0  0
   40.0130   22.1520   38.4540 H   0  0  0  0  0  0  0  0  0  0  0  0
   38.3840   23.7310   39.5410 H   0  0  0  0  0  0  0  0  0  0  0  0
   37.4540   25.7030   35.6950 O   0  0  0  0  0  0  0  0  0  0  0  0
   39.9210   25.8190   35.7640 H   0  0  0  0  0  0  0  0  0  0  0  0
   39.5840   26.7590   35.4500 N   0  0  0  0  0  0  0  0  0  0  0  0
   40.1510   27.1010   34.1700 C   0  0  0  0  0  2  0  0  0  0  0  0
   39.0590   26.7120   33.2060 C   0  0  0  0  0  2  0  0  0  0  0  0
   37.8120   27.1920   33.9220 C   0  0  0  0  0  2  0  0  0  0  0  0
   38.1650   26.8920   35.3690 C   0  0  1  0  0  3  0  0  0  0  0  0
  1  2  1  0  0  0  0
  2  8  1  0  0  0  0
  2  3  2  0  0  0  0
  3  9  1  0  0  0  0
  4  3  1  0  0  0  0
  5  4  2  0  0  0  0
  6  5  1  0  0  0  0
  6  1  2  0  0  0  0
  7  1  1  0  0  0  0
 10  5  1  0  0  0  0
 12 11  1  0  0  0  0
 13 12  1  0  0  0  0
 14 15  1  0  0  0  0
 14 13  1  0  0  0  0
 15 16  1  0  0  0  0
 16 12  1  0  0  0  0
 16 10  1  6  0  0  0
M  END
>  <minimizedAffinity>
-3.52748704

$$$$

 OpenBabel03272509453D

 16 17  0  0  1  0  0  0  0  0999 V2000
   35.9910   21.2830   33.0640 C   0  0  0  0  0  0  0  0  0  0  0  0
   36.3340   22.3350   32.1830 C   0  0  0  0  0  0  0  0  0  0  0  0
   37.3440   23.2300   32.5760 C   0  0  0  0  0  0  0  0  0  0  0  0
   37.9430   23.0300   33.7970 N   0  0  0  0  0  0  0  0  0  0  0  0
   37.5760   22.0030   34.6070 C   0  0  0  0  0  0  0  0  0  0  0  0
   36.6100   21.1370   34.2480 N   0  0  0  0  0  0  0  0  0  0  0  0
   35.2350   20.5540   32.8530 H   0  0  0  0  0  0  0  0  0  0  0  0
   35.7970   22.3820   31.2670 H   0  0  0  0  0  0  0  0  0  0  0  0
   37.5980   24.0180   31.9080 H   0  0  0  0  0  0  0  0  0  0  0  0
   38.3070   21.9980   35.7750 O   0  0  0  0  0  0  0  0  0  0  0  0
   36.7060   23.6570   36.6620 H   0  0  0  0  0  0  0  0  0  0  0  0
   37.6570   24.0870   36.7370 N   0  0  0  0  0  0  0  0  0  0  0  0
   37.9450   24.4490   38.1030 C   0  0  0  0  0  2  0  0  0  0  0  0
   38.7560   23.2770   38.5950 C   0  0  0  0  0  2  0  0  0  0  0  0
   39.6590   22.9900   37.4120 C   0  0  0  0  0  2  0  0  0  0  0  0
   38.7230   23.2740   36.2480 C   0  0  1  0  0  3  0  0  0  0  0  0
  1  6  1  0  0  0  0
  2  3  1  0  0  0  0
  2  1  2  0  0  0  0
  3  4  2  0  0  0  0
  4  5  1  0  0  0  0
  5 10  1  0  0  0  0
  6  5  2  0  0  0  0
  7  1  1  0  0  0  0
  8  2  1  0  0  0  0
  9  3  1  0  0  0  0
 11 12  1  0  0  0  0
 12 13  1  0  0  0  0
 13 14  1  0  0  0  0
 15 14  1  0  0  0  0
 16 10  1  1  0  0  0
 16 12  1  0  0  0  0
 16 15  1  0  0  0  0
M  END
>  <minimizedAffinity>
-3.49820423

$$$$

 OpenBabel03272509453D

 16 17  0  0  1  0  0  0  0  0999 V2000
   35.6640   22.9800   31.5230 C   0  0  0  0  0  0  0  0  0  0  0  0
   36.9790   22.6550   31.1170 C   0  0  0  0  0  0  0  0  0  0  0  0
   37.8280   23.6990   30.7120 C   0  0  0  0  0  0  0  0  0  0  0  0
   37.3300   24.9800   30.7330 N   0  0  0  0  0  0  0  0  0  0  0  0
   36.0590   25.2400   31.1310 C   0  0  0  0  0  0  0  0  0  0  0  0
   35.2300   24.2520   31.5220 N   0  0  0  0  0  0  0  0  0  0  0  0
   34.9440   22.2550   31.8460 H   0  0  0  0  0  0  0  0  0  0  0  0
   37.2440   21.6260   31.1450 H   0  0  0  0  0  0  0  0  0  0  0  0
   38.8170   23.4460   30.4090 H   0  0  0  0  0  0  0  0  0  0  0  0
   35.7780   26.5880   31.0720 O   0  0  0  0  0  0  0  0  0  0  0  0
   36.0250   27.7760   28.9210 H   0  0  0  0  0  0  0  0  0  0  0  0
   36.8450   28.0490   29.5110 N   0  0  0  0  0  0  0  0  0  0  0  0
   36.8970   29.4790   29.6800 C   0  0  0  0  0  2  0  0  0  0  0  0
   36.2380   29.6820   31.0200 C   0  0  0  0  0  2  0  0  0  0  0  0
   36.8160   28.5440   31.8380 C   0  0  0  0  0  2  0  0  0  0  0  0
   36.8870   27.4370   30.7990 C   0  0  1  0  0  3  0  0  0  0  0  0
  1  7  1  0  0  0  0
  2  8  1  0  0  0  0
  2  1  2  0  0  0  0
  3  4  2  0  0  0  0
  3  2  1  0  0  0  0
  4  5  1  0  0  0  0
  5  6  2  0  0  0  0
  6  1  1  0  0  0  0
  9  3  1  0  0  0  0
 10  5  1  0  0  0  0
 11 12  1  0  0  0  0
 12 13  1  0  0  0  0
 12 16  1  0  0  0  0
 13 14  1  0  0  0  0
 14 15  1  0  0  0  0
 16 10  1  1  0  0  0
 16 15  1  0  0  0  0
M  END
>  <minimizedAffinity>
-3.48845387

$$$$

 OpenBabel03272509453D

 16 17  0  0  1  0  0  0  0  0999 V2000
   35.6630   24.1330   31.3380 C   0  0  0  0  0  0  0  0  0  0  0  0
   35.7000   22.7270   31.4880 C   0  0  0  0  0  0  0  0  0  0  0  0
   36.6650   22.1740   32.3470 C   0  0  0  0  0  0  0  0  0  0  0  0
   37.5200   23.0340   32.9940 N   0  0  0  0  0  0  0  0  0  0  0  0
   37.4440   24.3780   32.8150 C   0  0  0  0  0  0  0  0  0  0  0  0
   36.5260   24.9250   31.9960 N   0  0  0  0  0  0  0  0  0  0  0  0
   34.9650   24.6450   30.7070 H   0  0  0  0  0  0  0  0  0  0  0  0
   34.9840   22.1700   30.9320 H   0  0  0  0  0  0  0  0  0  0  0  0
   36.6870   21.1150   32.4550 H   0  0  0  0  0  0  0  0  0  0  0  0
   38.3950   25.0390   33.5600 O   0  0  0  0  0  0  0  0  0  0  0  0
   36.4410   26.1660   34.5680 H   0  0  0  0  0  0  0  0  0  0  0  0
   37.0840   26.9210   34.2340 N   0  0  0  0  0  0  0  0  0  0  0  0
   37.4550   27.7910   35.3220 C   0  0  0  0  0  2  0  0  0  0  0  0
   38.7940   27.2420   35.7470 C   0  0  0  0  0  2  0  0  0  0  0  0
   39.4570   26.9450   34.4160 C   0  0  0  0  0  2  0  0  0  0  0  0
   38.2740   26.4570   33.5960 C   0  0  1  0  0  3  0  0  0  0  0  0
  1  2  2  0  0  0  0
  1  6  1  0  0  0  0
  2  3  1  0  0  0  0
  3  9  1  0  0  0  0
  3  4  2  0  0  0  0
  5  4  1  0  0  0  0
  5 10  1  0  0  0  0
  6  5  2  0  0  0  0
  7  1  1  0  0  0  0
  8  2  1  0  0  0  0
 12 11  1  0  0  0  0
 12 13  1  0  0  0  0
 13 14  1  0  0  0  0
 15 14  1  0  0  0  0
 16 10  1  1  0  0  0
 16 12  1  0  0  0  0
 16 15  1  0  0  0  0
M  END
>  <minimizedAffinity>
-3.40129638

$$$$

 OpenBabel03272509453D

 16 17  0  0  1  0  0  0  0  0999 V2000
   40.9010   25.5120   33.7000 C   0  0  0  0  0  0  0  0  0  0  0  0
   40.7420   26.7620   34.3420 C   0  0  0  0  0  0  0  0  0  0  0  0
   39.6420   26.9360   35.1990 C   0  0  0  0  0  0  0  0  0  0  0  0
   38.7810   25.8770   35.3650 N   0  0  0  0  0  0  0  0  0  0  0  0
   38.9780   24.6960   34.7240 C   0  0  0  0  0  0  0  0  0  0  0  0
   40.0260   24.5120   33.8990 N   0  0  0  0  0  0  0  0  0  0  0  0
   41.7050   25.2850   33.0300 H   0  0  0  0  0  0  0  0  0  0  0  0
   41.4760   27.5010   34.1320 H   0  0  0  0  0  0  0  0  0  0  0  0
   39.5290   27.8790   35.6790 H   0  0  0  0  0  0  0  0  0  0  0  0
   37.9950   23.7830   35.0390 O   0  0  0  0  0  0  0  0  0  0  0  0
   40.1460   23.8540   36.2520 H   0  0  0  0  0  0  0  0  0  0  0  0
   39.6260   23.0180   36.6090 N   0  0  0  0  0  0  0  0  0  0  0  0
   39.4450   23.1040   38.0370 C   0  0  0  0  0  2  0  0  0  0  0  0
   38.0500   23.6610   38.1650 C   0  0  0  0  0  2  0  0  0  0  0  0
   37.2990   22.8960   37.0930 C   0  0  0  0  0  2  0  0  0  0  0  0
   38.3530   22.7980   36.0020 C   0  0  1  0  0  3  0  0  0  0  0  0
  1  6  2  0  0  0  0
  1  2  1  0  0  0  0
  2  3  2  0  0  0  0
  3  4  1  0  0  0  0
  3  9  1  0  0  0  0
  5 10  1  0  0  0  0
  5  4  2  0  0  0  0
  6  5  1  0  0  0  0
  7  1  1  0  0  0  0
  8  2  1  0  0  0  0
 11 12  1  0  0  0  0
 12 13  1  0  0  0  0
 13 14  1  0  0  0  0
 15 14  1  0  0  0  0
 16 10  1  6  0  0  0
 16 12  1  0  0  0  0
 16 15  1  0  0  0  0
M  END
>  <minimizedAffinity>
-3.33025956

$$$$

 OpenBabel03272509453D

 16 17  0  0  1  0  0  0  0  0999 V2000
   39.6700   27.1170   33.9570 C   0  0  0  0  0  0  0  0  0  0  0  0
   39.3410   26.5770   35.2220 C   0  0  0  0  0  0  0  0  0  0  0  0
   38.0110   26.1880   35.4550 C   0  0  0  0  0  0  0  0  0  0  0  0
   37.1030   26.3550   34.4360 N   0  0  0  0  0  0  0  0  0  0  0  0
   37.4700   26.8800   33.2390 C   0  0  0  0  0  0  0  0  0  0  0  0
   38.7400   27.2590   32.9980 N   0  0  0  0  0  0  0  0  0  0  0  0
   40.6550   27.4420   33.6870 H   0  0  0  0  0  0  0  0  0  0  0  0
   40.1340   26.4980   35.9260 H   0  0  0  0  0  0  0  0  0  0  0  0
   37.7720   25.7810   36.4090 H   0  0  0  0  0  0  0  0  0  0  0  0
   36.4000   26.9540   32.3730 O   0  0  0  0  0  0  0  0  0  0  0  0
   38.0340   25.1160   32.1370 H   0  0  0  0  0  0  0  0  0  0  0  0
   37.5130   25.1740   31.2310 N   0  0  0  0  0  0  0  0  0  0  0  0
   36.8780   23.9150   30.9270 C   0  0  0  0  0  2  0  0  0  0  0  0
   35.4680   24.1250   31.4150 C   0  0  0  0  0  2  0  0  0  0  0  0
   35.1770   25.5420   30.9590 C   0  0  0  0  0  2  0  0  0  0  0  0
   36.5290   26.2060   31.1700 C   0  0  1  0  0  3  0  0  0  0  0  0
  1  2  1  0  0  0  0
  2  3  2  0  0  0  0
  2  8  1  0  0  0  0
  3  9  1  0  0  0  0
  4  3  1  0  0  0  0
  5  4  2  0  0  0  0
  6  5  1  0  0  0  0
  6  1  2  0  0  0  0
  7  1  1  0  0  0  0
 10  5  1  0  0  0  0
 12 11  1  0  0  0  0
 13 12  1  0  0  0  0
 13 14  1  0  0  0  0
 15 16  1  0  0  0  0
 15 14  1  0  0  0  0
 16 12  1  0  0  0  0
 16 10  1  1  0  0  0
M  END
>  <minimizedAffinity>
-3.3222971

$$$$
