
 OpenBabel03262521503D

 16 17  0  0  1  0  0  0  0  0999 V2000
   38.7190   32.4310   46.6280 C   0  0  0  0  0  0  0  0  0  0  0  0
   39.9260   33.0300   46.2090 C   0  0  0  0  0  0  0  0  0  0  0  0
   40.1520   33.2230   44.8560 C   0  0  0  0  0  0  0  0  0  0  0  0
   39.1640   32.8100   43.9920 N   0  0  0  0  0  0  0  0  0  0  0  0
   38.0330   32.2470   44.4250 C   0  0  0  0  0  0  0  0  0  0  0  0
   37.8080   32.0580   45.7330 N   0  0  0  0  0  0  0  0  0  0  0  0
   40.7250   33.3610   46.8570 H   0  0  0  0  0  0  0  0  0  0  0  0
   41.0630   33.6770   44.4840 H   0  0  0  0  0  0  0  0  0  0  0  0
   37.2520   31.9170   43.7550 H   0  0  0  0  0  0  0  0  0  0  0  0
   38.6160   32.2680   48.4010 S   0  0  0  0  0  0  0  0  0  0  0  0
   38.4090   30.9640   50.8430 H   0  0  0  0  0  0  0  0  0  0  0  0
   38.4450   30.2130   50.1420 N   0  0  0  0  0  0  0  0  0  0  0  0
   37.4410   29.2110   50.5270 C   0  0  0  0  0  0  0  0  0  0  0  0
   36.1870   30.0480   50.4710 C   0  0  0  0  0  0  0  0  0  0  0  0
   36.4320   30.9810   49.2900 C   0  0  0  0  0  0  0  0  0  0  0  0
   37.8690   30.7110   48.9110 C   0  0  1  0  0  0  0  0  0  0  0  0
  1 10  1  0  0  0  0
  2  1  1  0  0  0  0
  2  7  1  0  0  0  0
  3  2  2  0  0  0  0
  4  5  2  0  0  0  0
  4  3  1  0  0  0  0
  5  6  1  0  0  0  0
  6  1  2  0  0  0  0
  8  3  1  0  0  0  0
  9  5  1  0  0  0  0
 12 13  1  0  0  0  0
 12 11  1  0  0  0  0
 14 13  1  0  0  0  0
 15 14  1  0  0  0  0
 16 10  1  1  0  0  0
 16 15  1  0  0  0  0
 16 12  1  0  0  0  0
M  END
>  <minimizedAffinity>
-4.82285213

>  <minimizedRMSD>
4.34606695

$$$$
