
 OpenBabel03272501183D

 27 29  0  0  1  0  0  0  0  0999 V2000
   37.3690   31.3260   47.4880 C   0  0  0  0  0  0  0  0  0  0  0  0
   36.7220   30.9930   48.6730 C   0  0  0  0  0  0  0  0  0  0  0  0
   37.1690   31.6860   49.7950 C   0  0  0  0  0  0  0  0  0  0  0  0
   38.1850   32.6310   49.7030 C   0  0  0  0  0  0  0  0  0  0  0  0
   38.7680   32.8940   48.4790 C   0  0  0  0  0  0  0  0  0  0  0  0
   38.3610   32.2360   47.3430 C   0  0  0  0  0  0  0  0  0  0  0  0
   36.6970   31.4620   50.7430 H   0  0  0  0  0  0  0  0  0  0  0  0
   38.4540   33.1080   50.6340 H   0  0  0  0  0  0  0  0  0  0  0  0
   39.5340   33.6430   48.5620 H   0  0  0  0  0  0  0  0  0  0  0  0
   34.5000   30.1670   48.0210 C   0  0  0  0  0  0  0  0  0  0  0  0
   35.6710   30.0130   48.7590 C   0  0  0  0  0  0  0  0  0  0  0  0
   35.7700   28.8790   49.5710 C   0  0  0  0  0  0  0  0  0  0  0  0
   34.7260   28.0010   49.5920 N   0  0  0  0  0  0  0  0  0  0  0  0
   33.6130   28.1910   48.8630 C   0  0  0  0  0  0  0  0  0  0  0  0
   33.5020   29.2730   48.0780 N   0  0  0  0  0  0  0  0  0  0  0  0
   34.4260   31.0510   47.3900 H   0  0  0  0  0  0  0  0  0  0  0  0
   36.6770   28.7460   50.1500 H   0  0  0  0  0  0  0  0  0  0  0  0
   32.7900   27.4930   48.8840 H   0  0  0  0  0  0  0  0  0  0  0  0
   36.9760   30.6710   46.3110 O   0  0  0  0  0  0  0  0  0  0  0  0
   36.0950   30.1770   46.2810 H   0  0  0  0  0  0  0  0  0  0  0  0
   38.9560   32.5140   46.1400 O   0  0  0  0  0  0  0  0  0  0  0  0
   41.5480   30.7560   45.5860 H   0  0  0  0  0  0  0  0  0  0  0  0
   40.5350   30.8620   45.8380 N   0  0  0  0  0  0  0  0  0  0  0  0
   39.8080   30.4790   44.6180 C   0  0  0  0  0  0  0  0  0  0  0  0
   40.5050   31.3810   43.6200 C   0  0  0  0  0  0  0  0  0  0  0  0
   40.4750   32.7060   44.3520 C   0  0  0  0  0  0  0  0  0  0  0  0
   40.2980   32.3180   45.8080 C   0  0  1  0  0  0  0  0  0  0  0  0
  1  2  1  0  0  0  0
  2 11  1  0  0  0  0
  2  3  2  0  0  0  0
  3  7  1  0  0  0  0
  4  3  1  0  0  0  0
  4  8  1  0  0  0  0
  5  9  1  0  0  0  0
  5  4  2  0  0  0  0
  6  1  2  0  0  0  0
  6  5  1  0  0  0  0
 10 15  2  0  0  0  0
 10 11  1  0  0  0  0
 11 12  2  0  0  0  0
 12 13  1  0  0  0  0
 12 17  1  0  0  0  0
 14 18  1  0  0  0  0
 14 13  2  0  0  0  0
 15 14  1  0  0  0  0
 16 10  1  0  0  0  0
 19  1  1  0  0  0  0
 20 19  1  0  0  0  0
 21  6  1  0  0  0  0
 22 23  1  0  0  0  0
 24 23  1  0  0  0  0
 25 26  1  0  0  0  0
 25 24  1  0  0  0  0
 26 27  1  0  0  0  0
 27 23  1  0  0  0  0
 27 21  1  6  0  0  0
M  END
>  <minimizedAffinity>
-6.27100039

>  <minimizedRMSD>
2.60532999

$$$$
