
 OpenBabel03272504183D

 23 24  0  0  1  0  0  0  0  0999 V2000
   37.1960   26.0980   34.6400 O   0  0  0  0  0  0  0  0  0  0  0  0
   37.1260   26.6540   33.3670 C   0  0  0  0  0  0  0  0  0  0  0  0
   36.5780   27.8870   33.0440 C   0  0  0  0  0  0  0  0  0  0  0  0
   36.5830   28.3060   31.7240 C   0  0  0  0  0  0  0  0  0  0  0  0
   37.1370   27.4770   30.7750 N   0  0  0  0  0  0  0  0  0  0  0  0
   37.6650   26.2750   31.1320 C   0  0  0  0  0  0  0  0  0  0  0  0
   37.6600   25.8650   32.4240 N   0  0  0  0  0  0  0  0  0  0  0  0
   36.1520   29.2560   31.5210 H   0  0  0  0  0  0  0  0  0  0  0  0
   38.1050   25.6240   30.3670 H   0  0  0  0  0  0  0  0  0  0  0  0
   36.0510   28.6080   34.1440 N   0  0  0  0  0  0  0  0  0  0  0  0
   35.5540   28.1300   34.9180 H   0  0  0  0  0  0  0  0  0  0  0  0
   36.0720   29.6400   34.3450 H   0  0  0  0  0  0  0  0  0  0  0  0
   39.8300   26.1280   35.1050 O   0  0  0  0  0  0  0  0  0  0  0  0
   38.4930   26.4340   35.7170 P   0  0  1  0  0  0  0  0  0  0  0  0
   38.3450   28.0770   36.1210 O   0  0  0  0  0  0  0  0  0  0  0  0
   38.4920   28.1870   37.1000 H   0  0  0  0  0  0  0  0  0  0  0  0
   38.3460   25.4610   37.0940 O   0  0  0  0  0  0  0  0  0  0  0  0
   38.1980   22.9950   35.1070 H   0  0  0  0  0  0  0  0  0  0  0  0
   38.6550   23.6040   35.8190 N   0  0  0  0  0  0  0  0  0  0  0  0
   39.6150   22.9180   36.6480 C   0  0  0  0  0  2  0  0  0  0  0  0
   39.2060   23.1250   38.0920 C   0  0  0  0  0  2  0  0  0  0  0  0
   37.7140   23.3700   37.9240 C   0  0  0  0  0  2  0  0  0  0  0  0
   37.7280   24.2730   36.7060 C   0  0  1  0  0  3  0  0  0  0  0  0
  1 14  1  0  0  0  0
  2  1  1  0  0  0  0
  3  2  1  0  0  0  0
  3 10  1  0  0  0  0
  4  3  2  0  0  0  0
  5  6  2  0  0  0  0
  5  4  1  0  0  0  0
  6  7  1  0  0  0  0
  7  2  2  0  0  0  0
  8  4  1  0  0  0  0
  9  6  1  0  0  0  0
 10 12  1  0  0  0  0
 10 11  1  0  0  0  0
 14 13  2  6  0  0  0
 14 15  1  0  0  0  0
 14 17  1  0  0  0  0
 15 16  1  0  0  0  0
 18 19  1  0  0  0  0
 19 20  1  0  0  0  0
 19 23  1  0  0  0  0
 20 21  1  0  0  0  0
 22 21  1  0  0  0  0
 23 17  1  1  0  0  0
 23 22  1  0  0  0  0
M  END
>  <minimizedAffinity>
-4.48785353

$$$$

 OpenBabel03272504183D

 23 24  0  0  1  0  0  0  0  0999 V2000
   37.1210   26.0620   34.7630 O   0  0  0  0  0  0  0  0  0  0  0  0
   37.0520   26.4840   33.4400 C   0  0  0  0  0  0  0  0  0  0  0  0
   37.0990   25.6680   32.3190 C   0  0  0  0  0  0  0  0  0  0  0  0
   37.0170   26.2400   31.0600 C   0  0  0  0  0  0  0  0  0  0  0  0
   36.8900   27.6080   30.9680 N   0  0  0  0  0  0  0  0  0  0  0  0
   36.8480   28.3740   32.0920 C   0  0  0  0  0  0  0  0  0  0  0  0
   36.9280   27.8140   33.3240 N   0  0  0  0  0  0  0  0  0  0  0  0
   37.0580   25.5780   30.2290 H   0  0  0  0  0  0  0  0  0  0  0  0
   36.7460   29.4630   32.0060 H   0  0  0  0  0  0  0  0  0  0  0  0
   37.2310   24.2850   32.5970 N   0  0  0  0  0  0  0  0  0  0  0  0
   37.8240   23.9430   33.3760 H   0  0  0  0  0  0  0  0  0  0  0  0
   36.7980   23.4570   32.1160 H   0  0  0  0  0  0  0  0  0  0  0  0
   39.7760   26.0600   35.0910 O   0  0  0  0  0  0  0  0  0  0  0  0
   38.4770   26.4030   35.7640 P   0  0  1  0  0  0  0  0  0  0  0  0
   38.3750   28.0570   36.1330 O   0  0  0  0  0  0  0  0  0  0  0  0
   38.5750   28.1890   37.1000 H   0  0  0  0  0  0  0  0  0  0  0  0
   38.3870   25.4670   37.1700 O   0  0  0  0  0  0  0  0  0  0  0  0
   37.9900   22.9710   35.2550 H   0  0  0  0  0  0  0  0  0  0  0  0
   38.5230   23.5730   35.9190 N   0  0  0  0  0  0  0  0  0  0  0  0
   39.5110   22.8620   36.6910 C   0  0  0  0  0  2  0  0  0  0  0  0
   39.2190   23.1150   38.1550 C   0  0  0  0  0  2  0  0  0  0  0  0
   37.7300   23.4220   38.0910 C   0  0  0  0  0  2  0  0  0  0  0  0
   37.6920   24.2990   36.8550 C   0  0  1  0  0  3  0  0  0  0  0  0
  1 14  1  0  0  0  0
  2  1  1  0  0  0  0
  3 10  1  0  0  0  0
  3  2  2  0  0  0  0
  4  3  1  0  0  0  0
  5  4  2  0  0  0  0
  5  6  1  0  0  0  0
  6  7  2  0  0  0  0
  7  2  1  0  0  0  0
  8  4  1  0  0  0  0
  9  6  1  0  0  0  0
 10 11  1  0  0  0  0
 12 10  1  0  0  0  0
 14 13  2  6  0  0  0
 14 15  1  0  0  0  0
 14 17  1  0  0  0  0
 15 16  1  0  0  0  0
 18 19  1  0  0  0  0
 19 20  1  0  0  0  0
 19 23  1  0  0  0  0
 20 21  1  0  0  0  0
 22 21  1  0  0  0  0
 23 17  1  1  0  0  0
 23 22  1  0  0  0  0
M  END
>  <minimizedAffinity>
-4.46854591

$$$$

 OpenBabel03272504183D

 23 24  0  0  1  0  0  0  0  0999 V2000
   37.7100   24.8850   36.5340 O   0  0  0  0  0  0  0  0  0  0  0  0
   38.3060   25.3620   35.3720 C   0  0  0  0  0  0  0  0  0  0  0  0
   38.8100   26.6400   35.1780 C   0  0  0  0  0  0  0  0  0  0  0  0
   39.3770   26.9670   33.9570 C   0  0  0  0  0  0  0  0  0  0  0  0
   39.4210   26.0040   32.9750 N   0  0  0  0  0  0  0  0  0  0  0  0
   38.9160   24.7610   33.2050 C   0  0  0  0  0  0  0  0  0  0  0  0
   38.3610   24.4410   34.3990 N   0  0  0  0  0  0  0  0  0  0  0  0
   39.7500   27.9570   33.8520 H   0  0  0  0  0  0  0  0  0  0  0  0
   38.9580   24.0010   32.4140 H   0  0  0  0  0  0  0  0  0  0  0  0
   38.6810   27.5030   36.2940 N   0  0  0  0  0  0  0  0  0  0  0  0
   37.8410   27.4840   36.9010 H   0  0  0  0  0  0  0  0  0  0  0  0
   39.3440   28.2340   36.6600 H   0  0  0  0  0  0  0  0  0  0  0  0
   37.6660   23.2520   38.6520 O   0  0  0  0  0  0  0  0  0  0  0  0
   38.1460   23.3770   37.2340 P   0  0  1  0  0  0  0  0  0  0  0  0
   37.4680   22.1860   36.2320 O   0  0  0  0  0  0  0  0  0  0  0  0
   38.1350   21.4620   36.0860 H   0  0  0  0  0  0  0  0  0  0  0  0
   39.8320   23.2420   37.2700 O   0  0  0  0  0  0  0  0  0  0  0  0
   40.2090   21.4620   34.6730 H   0  0  0  0  0  0  0  0  0  0  0  0
   40.4120   22.2730   35.2960 N   0  0  0  0  0  0  0  0  0  0  0  0
   41.7590   22.7750   35.1850 C   0  0  0  0  0  2  0  0  0  0  0  0
   42.3740   22.7510   36.5690 C   0  0  0  0  0  2  0  0  0  0  0  0
   41.5460   21.6540   37.2200 C   0  0  0  0  0  2  0  0  0  0  0  0
   40.1690   22.0140   36.6990 C   0  0  1  0  0  3  0  0  0  0  0  0
  1 14  1  0  0  0  0
  2  1  1  0  0  0  0
  3  2  1  0  0  0  0
  3 10  1  0  0  0  0
  4  3  2  0  0  0  0
  5  6  2  0  0  0  0
  5  4  1  0  0  0  0
  6  7  1  0  0  0  0
  7  2  2  0  0  0  0
  8  4  1  0  0  0  0
  9  6  1  0  0  0  0
 10 12  1  0  0  0  0
 10 11  1  0  0  0  0
 14 17  1  0  0  0  0
 14 13  2  1  0  0  0
 15 14  1  0  0  0  0
 16 15  1  0  0  0  0
 18 19  1  0  0  0  0
 19 23  1  0  0  0  0
 20 19  1  0  0  0  0
 20 21  1  0  0  0  0
 21 22  1  0  0  0  0
 23 22  1  0  0  0  0
 23 17  1  1  0  0  0
M  END
>  <minimizedAffinity>
-4.46263027

$$$$

 OpenBabel03272504183D

 23 24  0  0  1  0  0  0  0  0999 V2000
   37.8810   21.8770   34.3240 O   0  0  0  0  0  0  0  0  0  0  0  0
   36.9750   21.5020   33.3380 C   0  0  0  0  0  0  0  0  0  0  0  0
   35.7820   20.8230   33.5400 C   0  0  0  0  0  0  0  0  0  0  0  0
   34.9820   20.5190   32.4510 C   0  0  0  0  0  0  0  0  0  0  0  0
   35.4030   20.9070   31.1990 N   0  0  0  0  0  0  0  0  0  0  0  0
   36.5800   21.5720   31.0420 C   0  0  0  0  0  0  0  0  0  0  0  0
   37.3630   21.8690   32.1080 N   0  0  0  0  0  0  0  0  0  0  0  0
   34.0780   19.9970   32.6510 H   0  0  0  0  0  0  0  0  0  0  0  0
   36.9040   21.8760   30.0390 H   0  0  0  0  0  0  0  0  0  0  0  0
   35.5050   20.5020   34.8920 N   0  0  0  0  0  0  0  0  0  0  0  0
   36.2560   20.2120   35.5460 H   0  0  0  0  0  0  0  0  0  0  0  0
   34.5900   20.5020   35.4100 H   0  0  0  0  0  0  0  0  0  0  0  0
   39.9060   23.6220   34.2420 O   0  0  0  0  0  0  0  0  0  0  0  0
   38.4310   23.4970   34.4950 P   0  0  1  0  0  0  0  0  0  0  0  0
   37.5210   24.4140   33.3930 O   0  0  0  0  0  0  0  0  0  0  0  0
   37.2290   25.2580   33.8320 H   0  0  0  0  0  0  0  0  0  0  0  0
   38.1560   24.0190   36.0810 O   0  0  0  0  0  0  0  0  0  0  0  0
   38.9210   21.0760   36.9790 H   0  0  0  0  0  0  0  0  0  0  0  0
   39.0840   22.1000   36.8730 N   0  0  0  0  0  0  0  0  0  0  0  0
   39.9430   22.6640   37.8840 C   0  0  0  0  0  2  0  0  0  0  0  0
   39.1880   23.7980   38.5470 C   0  0  0  0  0  2  0  0  0  0  0  0
   37.7540   23.3640   38.2880 C   0  0  0  0  0  2  0  0  0  0  0  0
   37.8730   22.8920   36.8530 C   0  0  1  0  0  3  0  0  0  0  0  0
  1 14  1  0  0  0  0
  2  3  1  0  0  0  0
  2  1  1  0  0  0  0
  3 10  1  0  0  0  0
  4  8  1  0  0  0  0
  4  3  2  0  0  0  0
  5  4  1  0  0  0  0
  6  5  2  0  0  0  0
  6  7  1  0  0  0  0
  7  2  2  0  0  0  0
  9  6  1  0  0  0  0
 10 12  1  0  0  0  0
 10 11  1  0  0  0  0
 14 13  2  6  0  0  0
 14 17  1  0  0  0  0
 15 16  1  0  0  0  0
 15 14  1  0  0  0  0
 19 18  1  0  0  0  0
 19 20  1  0  0  0  0
 20 21  1  0  0  0  0
 22 21  1  0  0  0  0
 23 17  1  6  0  0  0
 23 19  1  0  0  0  0
 23 22  1  0  0  0  0
M  END
>  <minimizedAffinity>
-4.45521498

$$$$

 OpenBabel03272504183D

 23 24  0  0  1  0  0  0  0  0999 V2000
   38.3580   25.1700   33.3330 O   0  0  0  0  0  0  0  0  0  0  0  0
   37.2460   25.1350   32.4980 C   0  0  0  0  0  0  0  0  0  0  0  0
   36.5750   23.9950   32.0800 C   0  0  0  0  0  0  0  0  0  0  0  0
   35.4780   24.1230   31.2440 C   0  0  0  0  0  0  0  0  0  0  0  0
   35.0920   25.3860   30.8570 N   0  0  0  0  0  0  0  0  0  0  0  0
   35.7770   26.4800   31.2890 C   0  0  0  0  0  0  0  0  0  0  0  0
   36.8500   26.3550   32.1070 N   0  0  0  0  0  0  0  0  0  0  0  0
   34.9940   23.2240   30.9480 H   0  0  0  0  0  0  0  0  0  0  0  0
   35.4590   27.4810   30.9740 H   0  0  0  0  0  0  0  0  0  0  0  0
   37.1080   22.7790   32.5740 N   0  0  0  0  0  0  0  0  0  0  0  0
   38.1290   22.6360   32.6760 H   0  0  0  0  0  0  0  0  0  0  0  0
   36.6130   21.9060   32.8890 H   0  0  0  0  0  0  0  0  0  0  0  0
   39.3760   27.2850   34.6160 O   0  0  0  0  0  0  0  0  0  0  0  0
   38.4090   26.1430   34.7500 P   0  0  1  0  0  0  0  0  0  0  0  0
   36.8200   26.6880   34.9950 O   0  0  0  0  0  0  0  0  0  0  0  0
   36.5930   26.6100   35.9620 H   0  0  0  0  0  0  0  0  0  0  0  0
   38.9310   25.2040   36.0570 O   0  0  0  0  0  0  0  0  0  0  0  0
   37.1550   22.6850   35.3140 H   0  0  0  0  0  0  0  0  0  0  0  0
   38.0480   23.1750   35.5310 N   0  0  0  0  0  0  0  0  0  0  0  0
   39.0490   22.3300   36.1330 C   0  0  0  0  0  2  0  0  0  0  0  0
   39.4640   22.9700   37.4420 C   0  0  0  0  0  2  0  0  0  0  0  0
   38.2150   23.7770   37.7620 C   0  0  0  0  0  2  0  0  0  0  0  0
   37.8950   24.3310   36.3890 C   0  0  1  0  0  3  0  0  0  0  0  0
  1 14  1  0  0  0  0
  2  1  1  0  0  0  0
  3  2  2  0  0  0  0
  3 10  1  0  0  0  0
  4  3  1  0  0  0  0
  5  4  2  0  0  0  0
  5  6  1  0  0  0  0
  6  7  2  0  0  0  0
  7  2  1  0  0  0  0
  8  4  1  0  0  0  0
  9  6  1  0  0  0  0
 10 11  1  0  0  0  0
 10 12  1  0  0  0  0
 14 13  2  6  0  0  0
 14 15  1  0  0  0  0
 14 17  1  0  0  0  0
 15 16  1  0  0  0  0
 18 19  1  0  0  0  0
 19 20  1  0  0  0  0
 19 23  1  0  0  0  0
 20 21  1  0  0  0  0
 21 22  1  0  0  0  0
 23 17  1  6  0  0  0
 23 22  1  0  0  0  0
M  END
>  <minimizedAffinity>
-4.30476332

$$$$

 OpenBabel03272504183D

 23 24  0  0  1  0  0  0  0  0999 V2000
   37.7010   25.3090   35.0660 O   0  0  0  0  0  0  0  0  0  0  0  0
   38.2540   24.5560   36.0970 C   0  0  0  0  0  0  0  0  0  0  0  0
   39.3100   23.6640   35.9810 C   0  0  0  0  0  0  0  0  0  0  0  0
   39.7500   22.9860   37.1050 C   0  0  0  0  0  0  0  0  0  0  0  0
   39.1180   23.2240   38.3050 N   0  0  0  0  0  0  0  0  0  0  0  0
   38.0850   24.1070   38.3770 C   0  0  0  0  0  0  0  0  0  0  0  0
   37.6550   24.7710   37.2770 N   0  0  0  0  0  0  0  0  0  0  0  0
   40.5610   22.3120   36.9710 H   0  0  0  0  0  0  0  0  0  0  0  0
   37.5910   24.2900   39.3390 H   0  0  0  0  0  0  0  0  0  0  0  0
   39.8410   23.5410   34.6730 N   0  0  0  0  0  0  0  0  0  0  0  0
   39.2310   23.5620   33.8350 H   0  0  0  0  0  0  0  0  0  0  0  0
   40.8380   23.4210   34.3600 H   0  0  0  0  0  0  0  0  0  0  0  0
   36.6880   27.7660   34.7650 O   0  0  0  0  0  0  0  0  0  0  0  0
   37.9710   27.0010   34.9200 P   0  0  1  0  0  0  0  0  0  0  0  0
   38.8120   27.4580   36.3220 O   0  0  0  0  0  0  0  0  0  0  0  0
   39.5520   28.0760   36.0730 H   0  0  0  0  0  0  0  0  0  0  0  0
   38.8980   27.3040   33.5380 O   0  0  0  0  0  0  0  0  0  0  0  0
   36.8790   25.4380   31.9590 H   0  0  0  0  0  0  0  0  0  0  0  0
   37.3120   26.3500   32.2160 N   0  0  0  0  0  0  0  0  0  0  0  0
   37.2700   27.3360   31.1650 C   0  0  0  0  0  2  0  0  0  0  0  0
   38.6900   27.7950   30.9090 C   0  0  0  0  0  2  0  0  0  0  0  0
   39.4650   26.5780   31.3910 C   0  0  0  0  0  2  0  0  0  0  0  0
   38.6890   26.2490   32.6500 C   0  0  1  0  0  3  0  0  0  0  0  0
  1  2  1  0  0  0  0
  2  7  1  0  0  0  0
  3  2  2  0  0  0  0
  3  4  1  0  0  0  0
  4  5  2  0  0  0  0
  5  6  1  0  0  0  0
  6  9  1  0  0  0  0
  7  6  2  0  0  0  0
  8  4  1  0  0  0  0
 10  3  1  0  0  0  0
 11 10  1  0  0  0  0
 12 10  1  0  0  0  0
 14 13  2  6  0  0  0
 14  1  1  0  0  0  0
 14 15  1  0  0  0  0
 16 15  1  0  0  0  0
 17 14  1  0  0  0  0
 18 19  1  0  0  0  0
 19 23  1  0  0  0  0
 20 19  1  0  0  0  0
 21 20  1  0  0  0  0
 21 22  1  0  0  0  0
 22 23  1  0  0  0  0
 23 17  1  1  0  0  0
M  END
>  <minimizedAffinity>
-4.25312614

$$$$

 OpenBabel03272504183D

 23 24  0  0  1  0  0  0  0  0999 V2000
   37.7990   21.9700   35.8620 O   0  0  0  0  0  0  0  0  0  0  0  0
   37.3730   21.8510   34.5430 C   0  0  0  0  0  0  0  0  0  0  0  0
   36.2480   21.1650   34.1080 C   0  0  0  0  0  0  0  0  0  0  0  0
   35.9540   21.1370   32.7550 C   0  0  0  0  0  0  0  0  0  0  0  0
   36.7930   21.7970   31.8870 N   0  0  0  0  0  0  0  0  0  0  0  0
   37.8870   22.4590   32.3530 C   0  0  0  0  0  0  0  0  0  0  0  0
   38.1750   22.4860   33.6770 N   0  0  0  0  0  0  0  0  0  0  0  0
   35.0830   20.5990   32.4650 H   0  0  0  0  0  0  0  0  0  0  0  0
   38.5480   22.9820   31.6510 H   0  0  0  0  0  0  0  0  0  0  0  0
   35.4980   20.5430   35.1360 N   0  0  0  0  0  0  0  0  0  0  0  0
   35.9590   20.0960   35.9500 H   0  0  0  0  0  0  0  0  0  0  0  0
   34.4570   20.4400   35.2420 H   0  0  0  0  0  0  0  0  0  0  0  0
   39.0200   23.2380   37.8760 O   0  0  0  0  0  0  0  0  0  0  0  0
   38.7560   23.2940   36.3990 P   0  0  1  0  0  0  0  0  0  0  0  0
   40.1930   23.2230   35.4980 O   0  0  0  0  0  0  0  0  0  0  0  0
   40.4340   24.1400   35.1950 H   0  0  0  0  0  0  0  0  0  0  0  0
   37.9300   24.7400   36.1000 O   0  0  0  0  0  0  0  0  0  0  0  0
   39.6080   25.7080   33.5900 H   0  0  0  0  0  0  0  0  0  0  0  0
   38.7300   25.4920   34.1080 N   0  0  0  0  0  0  0  0  0  0  0  0
   37.5940   26.2740   33.6880 C   0  0  0  0  0  2  0  0  0  0  0  0
   37.0420   26.9750   34.9120 C   0  0  0  0  0  2  0  0  0  0  0  0
   38.2860   27.0280   35.7850 C   0  0  0  0  0  2  0  0  0  0  0  0
   38.8410   25.6390   35.5430 C   0  0  1  0  0  3  0  0  0  0  0  0
  1 14  1  0  0  0  0
  2  1  1  0  0  0  0
  3  2  1  0  0  0  0
  3 10  1  0  0  0  0
  4  3  2  0  0  0  0
  5  6  2  0  0  0  0
  5  4  1  0  0  0  0
  6  7  1  0  0  0  0
  7  2  2  0  0  0  0
  8  4  1  0  0  0  0
  9  6  1  0  0  0  0
 10 12  1  0  0  0  0
 10 11  1  0  0  0  0
 14 13  2  1  0  0  0
 15 14  1  0  0  0  0
 16 15  1  0  0  0  0
 17 14  1  0  0  0  0
 18 19  1  0  0  0  0
 19 23  1  0  0  0  0
 20 19  1  0  0  0  0
 20 21  1  0  0  0  0
 21 22  1  0  0  0  0
 23 22  1  0  0  0  0
 23 17  1  1  0  0  0
M  END
>  <minimizedAffinity>
-4.22380066

$$$$

 OpenBabel03272504183D

 23 24  0  0  1  0  0  0  0  0999 V2000
   38.1910   22.5670   33.8010 O   0  0  0  0  0  0  0  0  0  0  0  0
   37.5220   21.4590   33.2910 C   0  0  0  0  0  0  0  0  0  0  0  0
   37.9980   20.5970   32.3130 C   0  0  0  0  0  0  0  0  0  0  0  0
   37.2100   19.5320   31.9080 C   0  0  0  0  0  0  0  0  0  0  0  0
   35.9770   19.3670   32.4960 N   0  0  0  0  0  0  0  0  0  0  0  0
   35.5470   20.2340   33.4520 C   0  0  0  0  0  0  0  0  0  0  0  0
   36.3170   21.2760   33.8490 N   0  0  0  0  0  0  0  0  0  0  0  0
   37.6130   18.8970   31.1560 H   0  0  0  0  0  0  0  0  0  0  0  0
   34.5620   20.0910   33.9140 H   0  0  0  0  0  0  0  0  0  0  0  0
   39.2860   20.9160   31.8180 N   0  0  0  0  0  0  0  0  0  0  0  0
   39.5850   21.8980   31.6760 H   0  0  0  0  0  0  0  0  0  0  0  0
   40.0760   20.2810   31.5380 H   0  0  0  0  0  0  0  0  0  0  0  0
   38.4530   24.0600   36.0040 O   0  0  0  0  0  0  0  0  0  0  0  0
   38.6530   22.6770   35.4530 P   0  0  1  0  0  0  0  0  0  0  0  0
   37.7120   21.5280   36.2750 O   0  0  0  0  0  0  0  0  0  0  0  0
   38.2880   21.0370   36.9230 H   0  0  0  0  0  0  0  0  0  0  0  0
   40.3010   22.3210   35.5990 O   0  0  0  0  0  0  0  0  0  0  0  0
   40.4880   21.9820   38.7460 H   0  0  0  0  0  0  0  0  0  0  0  0
   40.6610   21.7020   37.7580 N   0  0  0  0  0  0  0  0  0  0  0  0
   41.8580   20.9190   37.5720 C   0  0  0  0  0  2  0  0  0  0  0  0
   42.7140   21.6280   36.5430 C   0  0  0  0  0  2  0  0  0  0  0  0
   42.2210   23.0570   36.7090 C   0  0  0  0  0  2  0  0  0  0  0  0
   40.7310   22.8120   36.8320 C   0  0  1  0  0  3  0  0  0  0  0  0
  1 14  1  0  0  0  0
  2  1  1  0  0  0  0
  2  7  1  0  0  0  0
  3  2  2  0  0  0  0
  4  3  1  0  0  0  0
  4  5  2  0  0  0  0
  5  6  1  0  0  0  0
  6  7  2  0  0  0  0
  6  9  1  0  0  0  0
  8  4  1  0  0  0  0
 10  3  1  0  0  0  0
 11 10  1  0  0  0  0
 12 10  1  0  0  0  0
 14 17  1  0  0  0  0
 14 13  2  1  0  0  0
 14 15  1  0  0  0  0
 15 16  1  0  0  0  0
 19 18  1  0  0  0  0
 20 19  1  0  0  0  0
 21 22  1  0  0  0  0
 21 20  1  0  0  0  0
 22 23  1  0  0  0  0
 23 17  1  6  0  0  0
 23 19  1  0  0  0  0
M  END
>  <minimizedAffinity>
-4.13791037

$$$$

 OpenBabel03272504183D

 23 24  0  0  1  0  0  0  0  0999 V2000
   38.2900   24.0370   36.1250 O   0  0  0  0  0  0  0  0  0  0  0  0
   39.4060   23.2210   36.2760 C   0  0  0  0  0  0  0  0  0  0  0  0
   39.8450   22.6480   37.4600 C   0  0  0  0  0  0  0  0  0  0  0  0
   40.9800   21.8550   37.4500 C   0  0  0  0  0  0  0  0  0  0  0  0
   41.6350   21.6620   36.2540 N   0  0  0  0  0  0  0  0  0  0  0  0
   41.1730   22.2420   35.1130 C   0  0  0  0  0  0  0  0  0  0  0  0
   40.0620   23.0180   35.1240 N   0  0  0  0  0  0  0  0  0  0  0  0
   41.2810   21.4370   38.3800 H   0  0  0  0  0  0  0  0  0  0  0  0
   41.7030   22.0800   34.1670 H   0  0  0  0  0  0  0  0  0  0  0  0
   39.0520   22.9520   38.5950 N   0  0  0  0  0  0  0  0  0  0  0  0
   38.6300   23.8900   38.7270 H   0  0  0  0  0  0  0  0  0  0  0  0
   38.7830   22.3450   39.4100 H   0  0  0  0  0  0  0  0  0  0  0  0
   37.2550   26.3600   35.2950 O   0  0  0  0  0  0  0  0  0  0  0  0
   38.2050   25.2580   34.9180 P   0  0  1  0  0  0  0  0  0  0  0  0
   39.7910   25.8320   34.7260 O   0  0  0  0  0  0  0  0  0  0  0  0
   39.9860   25.9360   33.7550 H   0  0  0  0  0  0  0  0  0  0  0  0
   37.6310   24.5840   33.4760 O   0  0  0  0  0  0  0  0  0  0  0  0
   37.7300   27.4290   32.0830 H   0  0  0  0  0  0  0  0  0  0  0  0
   38.0150   26.4360   32.2140 N   0  0  0  0  0  0  0  0  0  0  0  0
   38.4820   25.7960   31.0090 C   0  0  0  0  0  2  0  0  0  0  0  0
   37.6430   24.5530   30.7940 C   0  0  0  0  0  2  0  0  0  0  0  0
   36.3750   24.9440   31.5390 C   0  0  0  0  0  2  0  0  0  0  0  0
   36.9780   25.5930   32.7690 C   0  0  1  0  0  3  0  0  0  0  0  0
  1  2  1  0  0  0  0
  2  3  1  0  0  0  0
  3 10  1  0  0  0  0
  4  3  2  0  0  0  0
  4  8  1  0  0  0  0
  5  4  1  0  0  0  0
  6  7  1  0  0  0  0
  6  5  2  0  0  0  0
  7  2  2  0  0  0  0
  9  6  1  0  0  0  0
 10 11  1  0  0  0  0
 10 12  1  0  0  0  0
 14 13  2  1  0  0  0
 14  1  1  0  0  0  0
 15 14  1  0  0  0  0
 16 15  1  0  0  0  0
 17 14  1  0  0  0  0
 18 19  1  0  0  0  0
 19 23  1  0  0  0  0
 20 19  1  0  0  0  0
 21 20  1  0  0  0  0
 21 22  1  0  0  0  0
 22 23  1  0  0  0  0
 23 17  1  1  0  0  0
M  END
>  <minimizedAffinity>
-4.10076618

$$$$
