
 OpenBabel03262521513D

 16 17  0  0  1  0  0  0  0  0999 V2000
   37.3210   26.6100   34.3720 C   0  0  0  0  0  0  0  0  0  0  0  0
   36.7640   27.9040   34.2970 C   0  0  0  0  0  0  0  0  0  0  0  0
   36.1190   28.2970   33.1360 C   0  0  0  0  0  0  0  0  0  0  0  0
   36.0620   27.3800   32.1120 N   0  0  0  0  0  0  0  0  0  0  0  0
   36.6010   26.1630   32.2190 C   0  0  0  0  0  0  0  0  0  0  0  0
   37.2260   25.7760   33.3400 N   0  0  0  0  0  0  0  0  0  0  0  0
   36.7940   28.6500   35.0780 H   0  0  0  0  0  0  0  0  0  0  0  0
   35.6760   29.2800   33.0290 H   0  0  0  0  0  0  0  0  0  0  0  0
   36.5640   25.4370   31.4190 H   0  0  0  0  0  0  0  0  0  0  0  0
   38.1070   26.2940   35.9420 S   0  0  0  0  0  0  0  0  0  0  0  0
   40.1900   24.5680   36.5650 H   0  0  0  0  0  0  0  0  0  0  0  0
   39.4940   23.9830   36.0860 N   0  0  0  0  0  0  0  0  0  0  0  0
   39.4020   22.7190   36.8300 C   0  0  0  0  0  2  0  0  0  0  0  0
   38.9560   23.2290   38.1780 C   0  0  0  0  0  2  0  0  0  0  0  0
   38.0260   24.3870   37.8320 C   0  0  0  0  0  2  0  0  0  0  0  0
   38.1810   24.5380   36.3380 C   0  0  1  0  0  3  0  0  0  0  0  0
  1 10  1  0  0  0  0
  2  1  1  0  0  0  0
  2  7  1  0  0  0  0
  3  2  2  0  0  0  0
  4  5  2  0  0  0  0
  4  3  1  0  0  0  0
  5  6  1  0  0  0  0
  6  1  2  0  0  0  0
  8  3  1  0  0  0  0
  9  5  1  0  0  0  0
 12 16  1  0  0  0  0
 12 11  1  0  0  0  0
 12 13  1  0  0  0  0
 13 14  1  0  0  0  0
 15 14  1  0  0  0  0
 16 10  1  1  0  0  0
 16 15  1  0  0  0  0
M  END
>  <minimizedAffinity>
-3.71756506

$$$$

 OpenBabel03262521513D

 16 17  0  0  1  0  0  0  0  0999 V2000
   38.5300   23.1460   35.8220 C   0  0  0  0  0  0  0  0  0  0  0  0
   39.7970   22.7380   36.2910 C   0  0  0  0  0  0  0  0  0  0  0  0
   40.0520   22.7590   37.6520 C   0  0  0  0  0  0  0  0  0  0  0  0
   39.0340   23.1840   38.4740 N   0  0  0  0  0  0  0  0  0  0  0  0
   37.8470   23.5630   37.9930 C   0  0  0  0  0  0  0  0  0  0  0  0
   37.5920   23.5450   36.6770 N   0  0  0  0  0  0  0  0  0  0  0  0
   40.6200   22.4040   35.6770 H   0  0  0  0  0  0  0  0  0  0  0  0
   41.0090   22.4570   38.0620 H   0  0  0  0  0  0  0  0  0  0  0  0
   37.0420   23.9020   38.6300 H   0  0  0  0  0  0  0  0  0  0  0  0
   38.3950   23.0500   34.0460 S   0  0  0  0  0  0  0  0  0  0  0  0
   35.9030   22.0680   34.7750 H   0  0  0  0  0  0  0  0  0  0  0  0
   36.4450   21.2400   34.4990 N   0  0  0  0  0  0  0  0  0  0  0  0
   35.5580   20.3900   33.6910 C   0  0  0  0  0  2  0  0  0  0  0  0
   35.2440   21.3300   32.5540 C   0  0  0  0  0  2  0  0  0  0  0  0
   36.5500   22.0890   32.3460 C   0  0  0  0  0  2  0  0  0  0  0  0
   37.4130   21.6420   33.5020 C   0  0  1  0  0  3  0  0  0  0  0  0
  1  2  2  0  0  0  0
  1  6  1  0  0  0  0
  2  3  1  0  0  0  0
  3  8  1  0  0  0  0
  3  4  2  0  0  0  0
  5  4  1  0  0  0  0
  5  9  1  0  0  0  0
  6  5  2  0  0  0  0
  7  2  1  0  0  0  0
 10  1  1  0  0  0  0
 12 11  1  0  0  0  0
 13 12  1  0  0  0  0
 14 13  1  0  0  0  0
 15 14  1  0  0  0  0
 15 16  1  0  0  0  0
 16 10  1  1  0  0  0
 16 12  1  0  0  0  0
M  END
>  <minimizedAffinity>
-3.66103673

$$$$

 OpenBabel03262521513D

 16 17  0  0  1  0  0  0  0  0999 V2000
   37.4250   22.2130   33.5850 C   0  0  0  0  0  0  0  0  0  0  0  0
   37.4310   23.2570   32.6360 C   0  0  0  0  0  0  0  0  0  0  0  0
   36.4760   23.2650   31.6330 C   0  0  0  0  0  0  0  0  0  0  0  0
   35.5660   22.2340   31.6280 N   0  0  0  0  0  0  0  0  0  0  0  0
   35.5910   21.2620   32.5430 C   0  0  0  0  0  0  0  0  0  0  0  0
   36.5110   21.2480   33.5180 N   0  0  0  0  0  0  0  0  0  0  0  0
   38.1320   24.0790   32.6060 H   0  0  0  0  0  0  0  0  0  0  0  0
   36.4400   24.0440   30.8800 H   0  0  0  0  0  0  0  0  0  0  0  0
   34.8820   20.4460   32.5460 H   0  0  0  0  0  0  0  0  0  0  0  0
   38.7270   22.3790   34.7920 S   0  0  0  0  0  0  0  0  0  0  0  0
   39.9350   23.1860   37.1580 H   0  0  0  0  0  0  0  0  0  0  0  0
   39.1340   22.6120   37.4500 N   0  0  0  0  0  0  0  0  0  0  0  0
   38.4940   23.3020   38.5790 C   0  0  0  0  0  2  0  0  0  0  0  0
   38.1120   24.6050   37.9200 C   0  0  0  0  0  2  0  0  0  0  0  0
   37.7240   24.1880   36.5050 C   0  0  0  0  0  2  0  0  0  0  0  0
   38.1000   22.7270   36.4440 C   0  0  1  0  0  3  0  0  0  0  0  0
  1 10  1  0  0  0  0
  2  1  2  0  0  0  0
  3  2  1  0  0  0  0
  4  3  2  0  0  0  0
  4  5  1  0  0  0  0
  5  9  1  0  0  0  0
  5  6  2  0  0  0  0
  6  1  1  0  0  0  0
  7  2  1  0  0  0  0
  8  3  1  0  0  0  0
 11 12  1  0  0  0  0
 12 13  1  0  0  0  0
 14 13  1  0  0  0  0
 15 14  1  0  0  0  0
 16 10  1  6  0  0  0
 16 15  1  0  0  0  0
 16 12  1  0  0  0  0
M  END
>  <minimizedAffinity>
-3.58434892

$$$$

 OpenBabel03262521513D

 16 17  0  0  1  0  0  0  0  0999 V2000
   39.3840   23.9270   35.9000 C   0  0  0  0  0  0  0  0  0  0  0  0
   40.4950   23.1540   36.3000 C   0  0  0  0  0  0  0  0  0  0  0  0
   40.5060   22.5920   37.5660 C   0  0  0  0  0  0  0  0  0  0  0  0
   39.4120   22.8290   38.3650 N   0  0  0  0  0  0  0  0  0  0  0  0
   38.3780   23.5660   37.9520 C   0  0  0  0  0  0  0  0  0  0  0  0
   38.3600   24.1120   36.7280 N   0  0  0  0  0  0  0  0  0  0  0  0
   41.3710   22.9510   35.7020 H   0  0  0  0  0  0  0  0  0  0  0  0
   41.3360   21.9920   37.9200 H   0  0  0  0  0  0  0  0  0  0  0  0
   37.5160   23.7610   38.5730 H   0  0  0  0  0  0  0  0  0  0  0  0
   39.5560   24.5630   34.2420 S   0  0  0  0  0  0  0  0  0  0  0  0
   37.1380   25.5780   35.1530 H   0  0  0  0  0  0  0  0  0  0  0  0
   37.2860   26.0230   34.2380 N   0  0  0  0  0  0  0  0  0  0  0  0
   36.9190   27.4390   34.3800 C   0  0  0  0  0  2  0  0  0  0  0  0
   37.9000   27.8700   35.4420 C   0  0  0  0  0  2  0  0  0  0  0  0
   39.1580   27.0740   35.1090 C   0  0  0  0  0  2  0  0  0  0  0  0
   38.7110   26.1370   34.0130 C   0  0  1  0  0  3  0  0  0  0  0  0
  1  2  2  0  0  0  0
  1  6  1  0  0  0  0
  2  3  1  0  0  0  0
  3  8  1  0  0  0  0
  3  4  2  0  0  0  0
  5  4  1  0  0  0  0
  5  9  1  0  0  0  0
  6  5  2  0  0  0  0
  7  2  1  0  0  0  0
 10  1  1  0  0  0  0
 12 13  1  0  0  0  0
 12 11  1  0  0  0  0
 13 14  1  0  0  0  0
 15 14  1  0  0  0  0
 16 12  1  0  0  0  0
 16 10  1  1  0  0  0
 16 15  1  0  0  0  0
M  END
>  <minimizedAffinity>
-3.58192992

$$$$

 OpenBabel03262521513D

 16 17  0  0  1  0  0  0  0  0999 V2000
   39.8030   23.2640   36.4030 C   0  0  0  0  0  0  0  0  0  0  0  0
   39.6620   22.8330   37.7390 C   0  0  0  0  0  0  0  0  0  0  0  0
   38.7130   23.4360   38.5470 C   0  0  0  0  0  0  0  0  0  0  0  0
   37.9560   24.4370   37.9830 N   0  0  0  0  0  0  0  0  0  0  0  0
   38.1170   24.8190   36.7140 C   0  0  0  0  0  0  0  0  0  0  0  0
   39.0330   24.2380   35.9250 N   0  0  0  0  0  0  0  0  0  0  0  0
   40.2410   22.0550   38.2150 H   0  0  0  0  0  0  0  0  0  0  0  0
   38.5680   23.1420   39.5800 H   0  0  0  0  0  0  0  0  0  0  0  0
   37.5300   25.6050   36.2630 H   0  0  0  0  0  0  0  0  0  0  0  0
   41.0720   22.3690   35.5250 S   0  0  0  0  0  0  0  0  0  0  0  0
   41.7490   24.9960   36.1150 H   0  0  0  0  0  0  0  0  0  0  0  0
   42.2840   24.7660   35.2680 N   0  0  0  0  0  0  0  0  0  0  0  0
   43.6370   25.3110   35.4490 C   0  0  0  0  0  2  0  0  0  0  0  0
   44.0730   24.5540   36.6790 C   0  0  0  0  0  2  0  0  0  0  0  0
   43.4440   23.1780   36.4930 C   0  0  0  0  0  2  0  0  0  0  0  0
   42.5640   23.3460   35.2770 C   0  0  1  0  0  3  0  0  0  0  0  0
  1  2  1  0  0  0  0
  2  7  1  0  0  0  0
  2  3  2  0  0  0  0
  3  8  1  0  0  0  0
  4  3  1  0  0  0  0
  5  4  2  0  0  0  0
  6  1  2  0  0  0  0
  6  5  1  0  0  0  0
  9  5  1  0  0  0  0
 10  1  1  0  0  0  0
 12 16  1  0  0  0  0
 12 13  1  0  0  0  0
 12 11  1  0  0  0  0
 13 14  1  0  0  0  0
 15 14  1  0  0  0  0
 16 10  1  1  0  0  0
 16 15  1  0  0  0  0
M  END
>  <minimizedAffinity>
-3.53831077

$$$$

 OpenBabel03262521513D

 16 17  0  0  1  0  0  0  0  0999 V2000
   41.7410   23.4330   35.6950 C   0  0  0  0  0  0  0  0  0  0  0  0
   41.8130   24.5690   34.8620 C   0  0  0  0  0  0  0  0  0  0  0  0
   42.8800   25.4410   34.9980 C   0  0  0  0  0  0  0  0  0  0  0  0
   43.8190   25.1360   35.9560 N   0  0  0  0  0  0  0  0  0  0  0  0
   43.7180   24.0500   36.7270 C   0  0  0  0  0  0  0  0  0  0  0  0
   42.6890   23.2010   36.6000 N   0  0  0  0  0  0  0  0  0  0  0  0
   41.0930   24.8430   34.1040 H   0  0  0  0  0  0  0  0  0  0  0  0
   42.9790   26.3290   34.3840 H   0  0  0  0  0  0  0  0  0  0  0  0
   44.4490   23.8030   37.4840 H   0  0  0  0  0  0  0  0  0  0  0  0
   40.2980   22.4360   35.3690 S   0  0  0  0  0  0  0  0  0  0  0  0
   40.3050   23.4880   37.9380 H   0  0  0  0  0  0  0  0  0  0  0  0
   39.5970   22.7430   37.9580 N   0  0  0  0  0  0  0  0  0  0  0  0
   38.4410   23.2610   38.7040 C   0  0  0  0  0  2  0  0  0  0  0  0
   38.0700   24.4430   37.8440 C   0  0  0  0  0  2  0  0  0  0  0  0
   38.3520   23.9560   36.4260 C   0  0  0  0  0  2  0  0  0  0  0  0
   39.0280   22.6220   36.6320 C   0  0  1  0  0  3  0  0  0  0  0  0
  1  6  1  0  0  0  0
  2  3  1  0  0  0  0
  2  1  2  0  0  0  0
  3  4  2  0  0  0  0
  4  5  1  0  0  0  0
  5  9  1  0  0  0  0
  6  5  2  0  0  0  0
  7  2  1  0  0  0  0
  8  3  1  0  0  0  0
 10  1  1  0  0  0  0
 11 12  1  0  0  0  0
 12 13  1  0  0  0  0
 14 13  1  0  0  0  0
 15 16  1  0  0  0  0
 15 14  1  0  0  0  0
 16 10  1  6  0  0  0
 16 12  1  0  0  0  0
M  END
>  <minimizedAffinity>
-3.52769709

$$$$

 OpenBabel03262521513D

 16 17  0  0  1  0  0  0  0  0999 V2000
   39.1000   22.3170   35.5510 C   0  0  0  0  0  0  0  0  0  0  0  0
   37.9930   22.9690   36.1340 C   0  0  0  0  0  0  0  0  0  0  0  0
   38.0670   23.3770   37.4550 C   0  0  0  0  0  0  0  0  0  0  0  0
   39.2400   23.1150   38.1260 N   0  0  0  0  0  0  0  0  0  0  0  0
   40.2680   22.4950   37.5410 C   0  0  0  0  0  0  0  0  0  0  0  0
   40.2030   22.0980   36.2620 N   0  0  0  0  0  0  0  0  0  0  0  0
   37.0570   23.1860   35.6410 H   0  0  0  0  0  0  0  0  0  0  0  0
   37.2430   23.8800   37.9490 H   0  0  0  0  0  0  0  0  0  0  0  0
   41.1910   22.2830   38.0600 H   0  0  0  0  0  0  0  0  0  0  0  0
   38.8120   21.8700   33.8490 S   0  0  0  0  0  0  0  0  0  0  0  0
   37.5850   21.8570   31.3590 H   0  0  0  0  0  0  0  0  0  0  0  0
   37.1570   22.6440   31.8620 N   0  0  0  0  0  0  0  0  0  0  0  0
   35.7140   22.6030   31.5880 C   0  0  0  0  0  2  0  0  0  0  0  0
   35.3680   21.2470   32.1540 C   0  0  0  0  0  2  0  0  0  0  0  0
   36.2730   21.1300   33.3760 C   0  0  0  0  0  2  0  0  0  0  0  0
   37.1700   22.3400   33.2770 C   0  0  1  0  0  3  0  0  0  0  0  0
  1  2  2  0  0  0  0
  1  6  1  0  0  0  0
  2  3  1  0  0  0  0
  3  8  1  0  0  0  0
  3  4  2  0  0  0  0
  5  9  1  0  0  0  0
  5  4  1  0  0  0  0
  6  5  2  0  0  0  0
  7  2  1  0  0  0  0
 10  1  1  0  0  0  0
 11 12  1  0  0  0  0
 12 16  1  0  0  0  0
 13 12  1  0  0  0  0
 13 14  1  0  0  0  0
 14 15  1  0  0  0  0
 16 15  1  0  0  0  0
 16 10  1  6  0  0  0
M  END
>  <minimizedAffinity>
-3.48736787

$$$$

 OpenBabel03262521513D

 16 17  0  0  1  0  0  0  0  0999 V2000
   38.5990   24.7060   36.3120 C   0  0  0  0  0  0  0  0  0  0  0  0
   38.0080   24.4560   37.5690 C   0  0  0  0  0  0  0  0  0  0  0  0
   38.5190   23.4470   38.3670 C   0  0  0  0  0  0  0  0  0  0  0  0
   39.5900   22.7390   37.8730 N   0  0  0  0  0  0  0  0  0  0  0  0
   40.1240   23.0030   36.6780 C   0  0  0  0  0  0  0  0  0  0  0  0
   39.6360   23.9800   35.9000 N   0  0  0  0  0  0  0  0  0  0  0  0
   37.1650   24.9870   37.9870 H   0  0  0  0  0  0  0  0  0  0  0  0
   38.0990   23.2150   39.3400 H   0  0  0  0  0  0  0  0  0  0  0  0
   40.9630   22.4520   36.2790 H   0  0  0  0  0  0  0  0  0  0  0  0
   37.8040   26.0400   35.4350 S   0  0  0  0  0  0  0  0  0  0  0  0
   40.4560   25.6920   34.6930 H   0  0  0  0  0  0  0  0  0  0  0  0
   40.3430   26.7080   34.8080 N   0  0  0  0  0  0  0  0  0  0  0  0
   41.0390   27.3530   33.6850 C   0  0  0  0  0  2  0  0  0  0  0  0
   40.2720   26.7740   32.5220 C   0  0  0  0  0  2  0  0  0  0  0  0
   38.8420   26.6890   33.0440 C   0  0  0  0  0  2  0  0  0  0  0  0
   38.9700   27.0490   34.5040 C   0  0  1  0  0  3  0  0  0  0  0  0
  1  2  1  0  0  0  0
  2  7  1  0  0  0  0
  2  3  2  0  0  0  0
  3  8  1  0  0  0  0
  4  3  1  0  0  0  0
  5  4  2  0  0  0  0
  6  1  2  0  0  0  0
  6  5  1  0  0  0  0
  9  5  1  0  0  0  0
 10  1  1  0  0  0  0
 11 12  1  0  0  0  0
 13 12  1  0  0  0  0
 14 15  1  0  0  0  0
 14 13  1  0  0  0  0
 15 16  1  0  0  0  0
 16 12  1  0  0  0  0
 16 10  1  1  0  0  0
M  END
>  <minimizedAffinity>
-3.47271347

$$$$

 OpenBabel03262521513D

 16 17  0  0  1  0  0  0  0  0999 V2000
   36.9180   24.7280   32.3230 C   0  0  0  0  0  0  0  0  0  0  0  0
   35.8950   24.2200   31.4960 C   0  0  0  0  0  0  0  0  0  0  0  0
   35.6560   22.8560   31.4760 C   0  0  0  0  0  0  0  0  0  0  0  0
   36.4480   22.0700   32.2800 N   0  0  0  0  0  0  0  0  0  0  0  0
   37.4090   22.5870   33.0510 C   0  0  0  0  0  0  0  0  0  0  0  0
   37.6450   23.9060   33.0760 N   0  0  0  0  0  0  0  0  0  0  0  0
   35.2570   24.8050   30.8490 H   0  0  0  0  0  0  0  0  0  0  0  0
   34.8820   22.4170   30.8560 H   0  0  0  0  0  0  0  0  0  0  0  0
   38.0380   21.9780   33.6840 H   0  0  0  0  0  0  0  0  0  0  0  0
   37.0720   26.5010   32.2100 S   0  0  0  0  0  0  0  0  0  0  0  0
   37.5480   25.5110   34.7600 H   0  0  0  0  0  0  0  0  0  0  0  0
   37.3050   26.5000   34.8990 N   0  0  0  0  0  0  0  0  0  0  0  0
   38.2400   27.0400   35.8970 C   0  0  0  0  0  2  0  0  0  0  0  0
   39.5530   26.8200   35.1870 C   0  0  0  0  0  2  0  0  0  0  0  0
   39.2140   27.0820   33.7230 C   0  0  0  0  0  2  0  0  0  0  0  0
   37.7130   27.2390   33.7230 C   0  0  1  0  0  3  0  0  0  0  0  0
  1  6  1  0  0  0  0
  2  1  2  0  0  0  0
  3  2  1  0  0  0  0
  3  4  2  0  0  0  0
  4  5  1  0  0  0  0
  5  6  2  0  0  0  0
  5  9  1  0  0  0  0
  7  2  1  0  0  0  0
  8  3  1  0  0  0  0
 10  1  1  0  0  0  0
 11 12  1  0  0  0  0
 12 13  1  0  0  0  0
 14 13  1  0  0  0  0
 15 16  1  0  0  0  0
 15 14  1  0  0  0  0
 16 10  1  6  0  0  0
 16 12  1  0  0  0  0
M  END
>  <minimizedAffinity>
-3.3987956

$$$$
