
 OpenBabel03272504213D

 36 38  0  0  1  0  0  0  0  0999 V2000
   36.8140   31.5710   48.7560 O   0  0  0  0  0  0  0  0  0  0  0  0
   38.7720   32.4240   47.8350 C   0  0  2  0  0  0  0  0  0  0  0  0
   38.1790   31.3730   48.7530 C   0  0  1  0  0  0  0  0  0  0  0  0
   38.7670   31.8850   50.0770 C   0  0  0  0  0  0  0  0  0  0  0  0
   38.4230   33.2260   50.0250 O   0  0  0  0  0  0  0  0  0  0  0  0
   38.6090   33.6650   48.7230 C   0  0  0  0  0  0  0  0  0  0  0  0
   39.8430   32.2330   47.6400 H   0  0  0  0  0  0  0  0  0  0  0  0
   38.4890   30.3520   48.5260 H   0  0  0  0  0  0  0  0  0  0  0  0
   38.2600   31.4260   50.9540 H   0  0  0  0  0  0  0  0  0  0  0  0
   39.8370   31.7050   50.1350 H   0  0  0  0  0  0  0  0  0  0  0  0
   37.6890   34.1610   48.3820 H   0  0  0  0  0  0  0  0  0  0  0  0
   39.5230   34.2920   48.6400 H   0  0  0  0  0  0  0  0  0  0  0  0
   38.0030   32.4850   46.6940 O   0  0  0  0  0  0  0  0  0  0  0  0
   37.4600   32.0130   43.8590 H   0  0  0  0  0  0  0  0  0  0  0  0
   38.0600   32.7120   44.3480 N   0  0  0  0  0  0  0  0  0  0  0  0
   39.2050   32.9460   43.4590 C   0  0  0  0  0  2  0  0  0  0  0  0
   40.1690   33.6150   44.4180 C   0  0  0  0  0  2  0  0  0  0  0  0
   40.0650   32.6720   45.6130 C   0  0  0  0  0  2  0  0  0  0  0  0
   38.6610   32.1090   45.5370 C   0  0  1  0  0  3  0  0  0  0  0  0
   35.8840   29.8530   47.0300 O   0  0  0  0  0  0  0  0  0  0  0  0
   35.9390   30.1560   48.5000 P   0  0  1  0  0  0  0  0  0  0  0  0
   36.7340   28.8480   49.2790 O   0  0  0  0  0  0  0  0  0  0  0  0
   37.2250   28.3190   48.6220 H   0  0  0  0  0  0  0  0  0  0  0  0
   34.3720   30.3200   49.1380 O   0  0  0  0  0  0  0  0  0  0  0  0
   34.1030   29.1620   49.8420 C   0  0  0  0  0  0  0  0  0  0  0  0
   33.5180   29.4840   50.7450 H   0  0  0  0  0  0  0  0  0  0  0  0
   35.0370   28.6610   50.2130 H   0  0  0  0  0  0  0  0  0  0  0  0
   33.2410   28.2100   49.1060 C   0  0  0  0  0  0  0  0  0  0  0  0
   33.8750   27.3260   48.2640 C   0  0  0  0  0  0  0  0  0  0  0  0
   33.1180   26.4010   47.5400 C   0  0  0  0  0  0  0  0  0  0  0  0
   31.7670   26.4350   47.7190 N   0  0  0  0  0  0  0  0  0  0  0  0
   31.1700   27.3110   48.5500 C   0  0  0  0  0  0  0  0  0  0  0  0
   31.9060   28.2000   49.2450 N   0  0  0  0  0  0  0  0  0  0  0  0
   34.9250   27.2240   48.0580 H   0  0  0  0  0  0  0  0  0  0  0  0
   33.5380   25.6650   46.8510 H   0  0  0  0  0  0  0  0  0  0  0  0
   30.0940   27.3230   48.6800 H   0  0  0  0  0  0  0  0  0  0  0  0
  2  7  1  6  0  0  0
  2  6  1  0  0  0  0
  2  3  1  0  0  0  0
  3  8  1  6  0  0  0
  3  1  1  0  0  0  0
  3  4  1  0  0  0  0
  4 10  1  0  0  0  0
  4  9  1  0  0  0  0
  5  4  1  0  0  0  0
  6  5  1  0  0  0  0
 11  6  1  0  0  0  0
 12  6  1  0  0  0  0
 13  2  1  0  0  0  0
 14 15  1  0  0  0  0
 15 19  1  0  0  0  0
 16 15  1  0  0  0  0
 16 17  1  0  0  0  0
 17 18  1  0  0  0  0
 19 18  1  0  0  0  0
 19 13  1  1  0  0  0
 21 20  2  6  0  0  0
 21  1  1  0  0  0  0
 21 24  1  0  0  0  0
 21 22  1  0  0  0  0
 23 22  1  0  0  0  0
 24 25  1  0  0  0  0
 25 27  1  0  0  0  0
 25 26  1  0  0  0  0
 28 33  1  0  0  0  0
 28 25  1  0  0  0  0
 29 28  2  0  0  0  0
 30 31  2  0  0  0  0
 30 29  1  0  0  0  0
 31 32  1  0  0  0  0
 32 36  1  0  0  0  0
 32 33  2  0  0  0  0
 34 29  1  0  0  0  0
 35 30  1  0  0  0  0
M  END
>  <minimizedAffinity>
-4.85706711

>  <minimizedRMSD>
0.317212671

$$$$
