
 OpenBabel03272509453D

 16 17  0  0  1  0  0  0  0  0999 V2000
   38.8660   33.0500   48.4510 C   0  0  0  0  0  0  0  0  0  0  0  0
   39.1560   32.4690   47.1940 C   0  0  0  0  0  0  0  0  0  0  0  0
   38.7040   31.1620   46.9440 C   0  0  0  0  0  0  0  0  0  0  0  0
   38.0040   30.5210   47.9370 N   0  0  0  0  0  0  0  0  0  0  0  0
   37.7510   31.1230   49.1280 C   0  0  0  0  0  0  0  0  0  0  0  0
   38.1770   32.3740   49.3860 N   0  0  0  0  0  0  0  0  0  0  0  0
   39.1680   34.0380   48.7340 H   0  0  0  0  0  0  0  0  0  0  0  0
   39.7060   33.0690   46.5100 H   0  0  0  0  0  0  0  0  0  0  0  0
   38.9260   30.7330   45.9950 H   0  0  0  0  0  0  0  0  0  0  0  0
   37.0370   30.2970   49.9680 O   0  0  0  0  0  0  0  0  0  0  0  0
   35.8830   30.3580   47.7840 H   0  0  0  0  0  0  0  0  0  0  0  0
   35.1380   30.3920   48.5190 N   0  0  0  0  0  0  0  0  0  0  0  0
   34.2150   29.2960   48.3580 C   0  0  0  0  0  2  0  0  0  0  0  0
   34.7300   28.2770   49.3420 C   0  0  0  0  0  2  0  0  0  0  0  0
   35.0830   29.1360   50.5400 C   0  0  0  0  0  2  0  0  0  0  0  0
   35.6200   30.3860   49.8630 C   0  0  1  0  0  3  0  0  0  0  0  0
  1  7  1  0  0  0  0
  1  6  1  0  0  0  0
  2  1  2  0  0  0  0
  3  2  1  0  0  0  0
  3  4  2  0  0  0  0
  4  5  1  0  0  0  0
  5  6  2  0  0  0  0
  5 10  1  0  0  0  0
  8  2  1  0  0  0  0
  9  3  1  0  0  0  0
 11 12  1  0  0  0  0
 12 16  1  0  0  0  0
 13 12  1  0  0  0  0
 13 14  1  0  0  0  0
 14 15  1  0  0  0  0
 16 10  1  6  0  0  0
 16 15  1  0  0  0  0
M  END
>  <minimizedAffinity>
-4.23096848

>  <minimizedRMSD>
3.39348817

$$$$
