
 OpenBabel03272504223D

 36 38  0  0  1  0  0  0  0  0999 V2000
   36.8470   31.5920   48.7110 O   0  0  0  0  0  0  0  0  0  0  0  0
   38.8480   32.3950   47.8410 C   0  0  2  0  0  0  0  0  0  0  0  0
   38.2090   31.3860   48.7740 C   0  0  1  0  0  0  0  0  0  0  0  0
   38.7450   31.9480   50.1000 C   0  0  0  0  0  0  0  0  0  0  0  0
   38.4130   33.2870   49.9800 O   0  0  0  0  0  0  0  0  0  0  0  0
   38.6580   33.6720   48.6700 C   0  0  0  0  0  0  0  0  0  0  0  0
   39.9250   32.1900   47.6990 H   0  0  0  0  0  0  0  0  0  0  0  0
   38.5210   30.3540   48.6020 H   0  0  0  0  0  0  0  0  0  0  0  0
   38.1980   31.5280   50.9730 H   0  0  0  0  0  0  0  0  0  0  0  0
   39.8100   31.7650   50.2110 H   0  0  0  0  0  0  0  0  0  0  0  0
   37.7560   34.1590   48.2700 H   0  0  0  0  0  0  0  0  0  0  0  0
   39.5780   34.2890   48.6000 H   0  0  0  0  0  0  0  0  0  0  0  0
   38.1280   32.4130   46.6670 O   0  0  0  0  0  0  0  0  0  0  0  0
   40.2610   30.5590   45.9130 H   0  0  0  0  0  0  0  0  0  0  0  0
   39.2550   30.6140   45.6400 N   0  0  0  0  0  0  0  0  0  0  0  0
   39.1900   30.1420   44.2510 C   0  0  0  0  0  2  0  0  0  0  0  0
   37.8210   30.6500   43.8470 C   0  0  0  0  0  2  0  0  0  0  0  0
   37.8980   32.0830   44.3660 C   0  0  0  0  0  2  0  0  0  0  0  0
   38.8390   32.0150   45.5490 C   0  0  1  0  0  3  0  0  0  0  0  0
   35.9450   29.8720   46.9730 O   0  0  0  0  0  0  0  0  0  0  0  0
   35.9750   30.1760   48.4440 P   0  0  1  0  0  0  0  0  0  0  0  0
   36.7560   28.8700   49.2380 O   0  0  0  0  0  0  0  0  0  0  0  0
   37.2570   28.3390   48.5910 H   0  0  0  0  0  0  0  0  0  0  0  0
   34.3980   30.3430   49.0540 O   0  0  0  0  0  0  0  0  0  0  0  0
   34.1310   29.2040   49.7900 C   0  0  0  0  0  0  0  0  0  0  0  0
   33.5470   29.5510   50.6850 H   0  0  0  0  0  0  0  0  0  0  0  0
   35.0660   28.7150   50.1730 H   0  0  0  0  0  0  0  0  0  0  0  0
   33.2690   28.2320   49.0810 C   0  0  0  0  0  0  0  0  0  0  0  0
   33.8990   27.3420   48.2440 C   0  0  0  0  0  0  0  0  0  0  0  0
   33.1430   26.3970   47.5460 C   0  0  0  0  0  0  0  0  0  0  0  0
   31.7940   26.4200   47.7440 N   0  0  0  0  0  0  0  0  0  0  0  0
   31.2000   27.3030   48.5700 C   0  0  0  0  0  0  0  0  0  0  0  0
   31.9360   28.2100   49.2400 N   0  0  0  0  0  0  0  0  0  0  0  0
   34.9480   27.2470   48.0250 H   0  0  0  0  0  0  0  0  0  0  0  0
   33.5600   25.6550   46.8630 H   0  0  0  0  0  0  0  0  0  0  0  0
   30.1260   27.3050   48.7160 H   0  0  0  0  0  0  0  0  0  0  0  0
  1  3  1  0  0  0  0
  2  7  1  6  0  0  0
  2  6  1  0  0  0  0
  2  3  1  0  0  0  0
  3  8  1  6  0  0  0
  3  4  1  0  0  0  0
  4 10  1  0  0  0  0
  4  9  1  0  0  0  0
  5  4  1  0  0  0  0
  6  5  1  0  0  0  0
 11  6  1  0  0  0  0
 12  6  1  0  0  0  0
 13  2  1  0  0  0  0
 15 14  1  0  0  0  0
 16 15  1  0  0  0  0
 17 16  1  0  0  0  0
 17 18  1  0  0  0  0
 18 19  1  0  0  0  0
 19 15  1  0  0  0  0
 19 13  1  1  0  0  0
 21 20  2  6  0  0  0
 21  1  1  0  0  0  0
 21 24  1  0  0  0  0
 21 22  1  0  0  0  0
 23 22  1  0  0  0  0
 24 25  1  0  0  0  0
 25 27  1  0  0  0  0
 25 26  1  0  0  0  0
 28 33  1  0  0  0  0
 28 25  1  0  0  0  0
 29 28  2  0  0  0  0
 30 31  2  0  0  0  0
 30 29  1  0  0  0  0
 31 32  1  0  0  0  0
 32 36  1  0  0  0  0
 32 33  2  0  0  0  0
 34 29  1  0  0  0  0
 35 30  1  0  0  0  0
M  END
>  <minimizedAffinity>
-4.42926407

>  <minimizedRMSD>
0.264595181

$$$$
