
 OpenBabel03272509453D

 16 17  0  0  1  0  0  0  0  0999 V2000
   36.9480   29.7720   49.8490 C   0  0  0  0  0  0  0  0  0  0  0  0
   36.7800   30.9820   50.5610 C   0  0  0  0  0  0  0  0  0  0  0  0
   37.1750   32.1800   49.9410 C   0  0  0  0  0  0  0  0  0  0  0  0
   37.7040   32.1060   48.6740 N   0  0  0  0  0  0  0  0  0  0  0  0
   37.8450   30.9170   48.0330 C   0  0  0  0  0  0  0  0  0  0  0  0
   37.4720   29.7600   48.6120 N   0  0  0  0  0  0  0  0  0  0  0  0
   36.6780   28.8110   50.2380 H   0  0  0  0  0  0  0  0  0  0  0  0
   36.3590   30.9070   51.5340 H   0  0  0  0  0  0  0  0  0  0  0  0
   37.0460   33.0870   50.4830 H   0  0  0  0  0  0  0  0  0  0  0  0
   38.3940   31.0830   46.7800 O   0  0  0  0  0  0  0  0  0  0  0  0
   40.4010   32.5230   46.7510 H   0  0  0  0  0  0  0  0  0  0  0  0
   39.6250   33.0780   46.3170 N   0  0  0  0  0  0  0  0  0  0  0  0
   39.9810   33.4920   44.9830 C   0  0  0  0  0  2  0  0  0  0  0  0
   39.3200   32.4470   44.1210 C   0  0  0  0  0  2  0  0  0  0  0  0
   37.9780   32.2680   44.8020 C   0  0  0  0  0  2  0  0  0  0  0  0
   38.3660   32.4090   46.2660 C   0  0  1  0  0  3  0  0  0  0  0  0
  1  7  1  0  0  0  0
  1  2  1  0  0  0  0
  2  8  1  0  0  0  0
  3  9  1  0  0  0  0
  3  2  2  0  0  0  0
  4  3  1  0  0  0  0
  5  6  1  0  0  0  0
  5  4  2  0  0  0  0
  6  1  2  0  0  0  0
 10  5  1  0  0  0  0
 12 11  1  0  0  0  0
 13 12  1  0  0  0  0
 14 15  1  0  0  0  0
 14 13  1  0  0  0  0
 15 16  1  0  0  0  0
 16 12  1  0  0  0  0
 16 10  1  6  0  0  0
M  END
>  <minimizedAffinity>
-3.91435432

>  <minimizedRMSD>
6.52984858

$$$$
