
 OpenBabel03272508273D

 35 38  0  0  1  0  0  0  0  0999 V2000
   33.9910   28.9880   47.3380 C   0  0  2  0  0  0  0  0  0  0  0  0
   34.7280   28.2370   48.4360 C   0  0  2  0  0  0  0  0  0  0  0  0
   33.8180   28.0780   49.4440 O   0  0  0  0  0  0  0  0  0  0  0  0
   32.5480   28.1330   48.9620 C   0  0  0  0  0  0  0  0  0  0  0  0
   32.6200   28.3120   47.4580 C   0  0  1  0  0  0  0  0  0  0  0  0
   33.8300   30.0500   47.5610 H   0  0  0  0  0  0  0  0  0  0  0  0
   35.0290   27.2610   47.9900 H   0  0  0  0  0  0  0  0  0  0  0  0
   31.9390   27.2350   49.2010 H   0  0  0  0  0  0  0  0  0  0  0  0
   32.0320   29.0000   49.4480 H   0  0  0  0  0  0  0  0  0  0  0  0
   32.6820   27.2930   47.0410 H   0  0  0  0  0  0  0  0  0  0  0  0
   35.7930   30.5150   49.0520 C   0  0  1  0  0  0  0  0  0  0  0  0
   35.8840   29.0870   48.8540 C   0  0  1  0  0  0  0  0  0  0  0  0
   36.0220   29.5870   50.2550 C   0  0  0  0  0  0  0  0  0  0  0  0
   34.8810   31.1260   49.1940 H   0  0  0  0  0  0  0  0  0  0  0  0
   36.8540   28.7190   48.4110 H   0  0  0  0  0  0  0  0  0  0  0  0
   37.0020   29.6060   50.7550 H   0  0  0  0  0  0  0  0  0  0  0  0
   35.1470   29.3590   50.8920 H   0  0  0  0  0  0  0  0  0  0  0  0
   36.9820   31.4260   48.8040 C   0  0  0  0  0  0  0  0  0  0  0  0
   37.1740   32.4830   49.6920 C   0  0  0  0  0  0  0  0  0  0  0  0
   38.2620   33.2980   49.3950 C   0  0  0  0  0  0  0  0  0  0  0  0
   39.0610   33.0570   48.3120 N   0  0  0  0  0  0  0  0  0  0  0  0
   38.8290   32.0090   47.4770 C   0  0  0  0  0  0  0  0  0  0  0  0
   37.7800   31.1900   47.7310 N   0  0  0  0  0  0  0  0  0  0  0  0
   36.5350   32.6480   50.5270 H   0  0  0  0  0  0  0  0  0  0  0  0
   38.4440   34.1260   50.0560 H   0  0  0  0  0  0  0  0  0  0  0  0
   39.4920   31.8630   46.6360 H   0  0  0  0  0  0  0  0  0  0  0  0
   34.5310   28.8100   46.0800 O   0  0  0  0  0  0  0  0  0  0  0  0
   34.3640   29.6220   45.5230 H   0  0  0  0  0  0  0  0  0  0  0  0
   31.6260   29.0870   46.9240 O   0  0  0  0  0  0  0  0  0  0  0  0
   32.0310   27.7740   44.3450 H   0  0  0  0  0  0  0  0  0  0  0  0
   31.7080   27.4040   45.2850 N   0  0  0  0  0  0  0  0  0  0  0  0
   30.8450   26.2800   44.9530 C   0  0  0  0  0  2  0  0  0  0  0  0
   29.4260   26.7740   45.2610 C   0  0  0  0  0  2  0  0  0  0  0  0
   29.7570   27.6180   46.5010 C   0  0  0  0  0  2  0  0  0  0  0  0
   30.9250   28.3990   45.9470 C   0  0  1  0  0  3  0  0  0  0  0  0
  1  5  1  0  0  0  0
  1  6  1  1  0  0  0
  1  2  1  0  0  0  0
  2  7  1  6  0  0  0
  2 12  1  0  0  0  0
  2  3  1  0  0  0  0
  4  8  1  0  0  0  0
  4  3  1  0  0  0  0
  4  9  1  0  0  0  0
  5 10  1  6  0  0  0
  5  4  1  0  0  0  0
 11 14  1  6  0  0  0
 11 13  1  0  0  0  0
 12 15  1  6  0  0  0
 12 11  1  0  0  0  0
 12 13  1  0  0  0  0
 13 16  1  0  0  0  0
 13 17  1  0  0  0  0
 18 11  1  0  0  0  0
 18 19  1  0  0  0  0
 19 24  1  0  0  0  0
 20 19  2  0  0  0  0
 20 25  1  0  0  0  0
 21 20  1  0  0  0  0
 22 23  1  0  0  0  0
 22 21  2  0  0  0  0
 23 18  2  0  0  0  0
 26 22  1  0  0  0  0
 27  1  1  0  0  0  0
 28 27  1  0  0  0  0
 29  5  1  0  0  0  0
 30 31  1  0  0  0  0
 31 35  1  0  0  0  0
 32 33  1  0  0  0  0
 32 31  1  0  0  0  0
 33 34  1  0  0  0  0
 35 34  1  0  0  0  0
 35 29  1  1  0  0  0
M  END
>  <minimizedAffinity>
-4.75375223

>  <minimizedRMSD>
0.128862128

$$$$
