
 OpenBabel03272503513D

 34 36  0  0  1  0  0  0  0  0999 V2000
   37.6370   25.0650   32.1800 C   0  0  1  0  0  0  0  0  0  0  0  0
   36.9470   26.2670   32.8640 C   0  0  2  0  0  0  0  0  0  0  0  0
   36.1640   26.7770   31.8760 O   0  0  0  0  0  0  0  0  0  0  0  0
   35.5520   25.6640   31.3130 C   0  0  0  0  0  0  0  0  0  0  0  0
   36.5250   24.5210   31.3460 C   0  0  2  0  0  0  0  0  0  0  0  0
   37.9750   24.3530   32.9750 H   0  0  0  0  0  0  0  0  0  0  0  0
   36.3960   25.8130   33.7260 H   0  0  0  0  0  0  0  0  0  0  0  0
   35.3780   25.9400   30.2310 H   0  0  0  0  0  0  0  0  0  0  0  0
   34.5700   25.4370   31.7640 H   0  0  0  0  0  0  0  0  0  0  0  0
   36.8940   24.2060   30.3490 H   0  0  0  0  0  0  0  0  0  0  0  0
   38.7500   25.4830   31.4760 O   0  0  0  0  0  0  0  0  0  0  0  0
   38.5510   26.2760   30.9280 H   0  0  0  0  0  0  0  0  0  0  0  0
   37.9740   27.0470   33.3060 O   0  0  0  0  0  0  0  0  0  0  0  0
   39.7220   26.9470   35.2800 O   0  0  0  0  0  0  0  0  0  0  0  0
   38.2320   26.9640   34.9660 P   0  0  1  0  0  0  0  0  0  0  0  0
   37.6380   28.3610   35.7190 O   0  0  0  0  0  0  0  0  0  0  0  0
   36.6520   28.4520   35.5230 H   0  0  0  0  0  0  0  0  0  0  0  0
   37.4040   25.5810   35.5360 O   0  0  0  0  0  0  0  0  0  0  0  0
   38.0590   24.5500   36.1820 C   0  0  0  0  0  0  0  0  0  0  0  0
   38.1250   24.3940   37.5860 C   0  0  0  0  0  0  0  0  0  0  0  0
   38.8230   23.3040   38.0880 C   0  0  0  0  0  0  0  0  0  0  0  0
   39.4080   22.4380   37.2040 N   0  0  0  0  0  0  0  0  0  0  0  0
   39.3270   22.6140   35.8570 C   0  0  0  0  0  0  0  0  0  0  0  0
   38.6460   23.6790   35.3490 N   0  0  0  0  0  0  0  0  0  0  0  0
   37.6310   25.1310   38.1740 H   0  0  0  0  0  0  0  0  0  0  0  0
   38.8830   23.1720   39.1510 H   0  0  0  0  0  0  0  0  0  0  0  0
   39.7970   21.9160   35.1800 H   0  0  0  0  0  0  0  0  0  0  0  0
   35.9550   23.4150   31.9400 O   0  0  0  0  0  0  0  0  0  0  0  0
   36.9240   22.4870   34.0180 H   0  0  0  0  0  0  0  0  0  0  0  0
   36.8160   21.7650   33.2720 N   0  0  0  0  0  0  0  0  0  0  0  0
   35.6720   20.9060   33.4890 C   0  0  0  0  0  2  0  0  0  0  0  0
   34.9620   20.7760   32.1450 C   0  0  0  0  0  2  0  0  0  0  0  0
   36.0870   21.1350   31.1930 C   0  0  0  0  0  2  0  0  0  0  0  0
   36.7290   22.2810   31.9410 C   0  0  1  0  0  3  0  0  0  0  0  0
  1  2  1  0  0  0  0
  1  6  1  1  0  0  0
  2 13  1  0  0  0  0
  2  7  1  1  0  0  0
  3  2  1  0  0  0  0
  4  5  1  0  0  0  0
  4  9  1  0  0  0  0
  4  3  1  0  0  0  0
  5 10  1  6  0  0  0
  5 28  1  0  0  0  0
  5  1  1  0  0  0  0
  8  4  1  0  0  0  0
 11  1  1  0  0  0  0
 12 11  1  0  0  0  0
 13 15  1  0  0  0  0
 15 14  2  1  0  0  0
 15 18  1  0  0  0  0
 15 16  1  0  0  0  0
 17 16  1  0  0  0  0
 18 19  1  0  0  0  0
 19 20  1  0  0  0  0
 20 21  2  0  0  0  0
 20 25  1  0  0  0  0
 21 26  1  0  0  0  0
 22 21  1  0  0  0  0
 23 22  2  0  0  0  0
 24 23  1  0  0  0  0
 24 19  2  0  0  0  0
 27 23  1  0  0  0  0
 30 31  1  0  0  0  0
 30 29  1  0  0  0  0
 32 31  1  0  0  0  0
 33 34  1  0  0  0  0
 33 32  1  0  0  0  0
 34 28  1  1  0  0  0
 34 30  1  0  0  0  0
M  END
>  <minimizedAffinity>
-5.25608397

$$$$

 OpenBabel03272503513D

 34 36  0  0  1  0  0  0  0  0999 V2000
   37.4920   26.1740   34.5950 C   0  0  1  0  0  0  0  0  0  0  0  0
   38.1120   25.9740   33.1930 C   0  0  2  0  0  0  0  0  0  0  0  0
   39.0960   26.9120   33.1540 O   0  0  0  0  0  0  0  0  0  0  0  0
   39.7350   26.7930   34.3810 C   0  0  0  0  0  0  0  0  0  0  0  0
   38.7070   26.4470   35.4190 C   0  0  2  0  0  0  0  0  0  0  0  0
   36.9690   25.2290   34.8870 H   0  0  0  0  0  0  0  0  0  0  0  0
   38.4630   24.9120   33.1970 H   0  0  0  0  0  0  0  0  0  0  0  0
   40.1250   27.8270   34.6110 H   0  0  0  0  0  0  0  0  0  0  0  0
   40.6000   26.1060   34.3510 H   0  0  0  0  0  0  0  0  0  0  0  0
   38.5140   27.2510   36.1570 H   0  0  0  0  0  0  0  0  0  0  0  0
   36.5590   27.1920   34.5690 O   0  0  0  0  0  0  0  0  0  0  0  0
   36.9040   27.9850   34.0980 H   0  0  0  0  0  0  0  0  0  0  0  0
   37.0680   26.1330   32.3300 O   0  0  0  0  0  0  0  0  0  0  0  0
   35.1000   24.7830   31.2040 O   0  0  0  0  0  0  0  0  0  0  0  0
   36.5730   24.7090   31.5840 P   0  0  1  0  0  0  0  0  0  0  0  0
   37.3970   24.5040   30.1170 O   0  0  0  0  0  0  0  0  0  0  0  0
   38.3910   24.4780   30.2930 H   0  0  0  0  0  0  0  0  0  0  0  0
   36.9340   23.4270   32.6560 O   0  0  0  0  0  0  0  0  0  0  0  0
   36.5130   22.1330   32.4170 C   0  0  0  0  0  0  0  0  0  0  0  0
   36.0240   21.2510   33.4090 C   0  0  0  0  0  0  0  0  0  0  0  0
   35.6380   19.9770   33.0130 C   0  0  0  0  0  0  0  0  0  0  0  0
   35.7490   19.6400   31.6900 N   0  0  0  0  0  0  0  0  0  0  0  0
   36.2240   20.5120   30.7590 C   0  0  0  0  0  0  0  0  0  0  0  0
   36.6060   21.7650   31.1310 N   0  0  0  0  0  0  0  0  0  0  0  0
   35.9820   21.6230   34.4040 H   0  0  0  0  0  0  0  0  0  0  0  0
   35.2650   19.2960   33.7530 H   0  0  0  0  0  0  0  0  0  0  0  0
   36.3010   20.2220   29.7210 H   0  0  0  0  0  0  0  0  0  0  0  0
   39.0880   25.3260   36.1250 O   0  0  0  0  0  0  0  0  0  0  0  0
   38.7050   23.3750   34.6530 H   0  0  0  0  0  0  0  0  0  0  0  0
   38.3440   23.2210   35.6210 N   0  0  0  0  0  0  0  0  0  0  0  0
   39.2170   22.3790   36.4120 C   0  0  0  0  0  2  0  0  0  0  0  0
   39.3440   23.0470   37.7780 C   0  0  0  0  0  2  0  0  0  0  0  0
   38.0960   23.9080   37.7920 C   0  0  0  0  0  2  0  0  0  0  0  0
   38.0910   24.4130   36.3670 C   0  0  1  0  0  3  0  0  0  0  0  0
  1  6  1  1  0  0  0
  1  5  1  0  0  0  0
  2  7  1  6  0  0  0
  2  1  1  0  0  0  0
  3  2  1  0  0  0  0
  3  4  1  0  0  0  0
  4  8  1  0  0  0  0
  4  5  1  0  0  0  0
  5 28  1  0  0  0  0
  5 10  1  1  0  0  0
  9  4  1  0  0  0  0
 11  1  1  0  0  0  0
 12 11  1  0  0  0  0
 13  2  1  0  0  0  0
 15 14  2  6  0  0  0
 15 13  1  0  0  0  0
 15 18  1  0  0  0  0
 16 17  1  0  0  0  0
 16 15  1  0  0  0  0
 19 18  1  0  0  0  0
 19 20  1  0  0  0  0
 20 25  1  0  0  0  0
 21 20  2  0  0  0  0
 21 26  1  0  0  0  0
 22 21  1  0  0  0  0
 23 24  1  0  0  0  0
 23 22  2  0  0  0  0
 24 19  2  0  0  0  0
 27 23  1  0  0  0  0
 29 30  1  0  0  0  0
 30 34  1  0  0  0  0
 30 31  1  0  0  0  0
 31 32  1  0  0  0  0
 32 33  1  0  0  0  0
 34 28  1  1  0  0  0
 34 33  1  0  0  0  0
M  END
>  <minimizedAffinity>
-5.09459925

$$$$

 OpenBabel03272503513D

 34 36  0  0  1  0  0  0  0  0999 V2000
   35.7400   29.3950   33.6190 C   0  0  1  0  0  0  0  0  0  0  0  0
   36.6450   28.1660   33.3760 C   0  0  2  0  0  0  0  0  0  0  0  0
   36.0210   27.5210   32.3540 O   0  0  0  0  0  0  0  0  0  0  0  0
   35.7100   28.5280   31.4500 C   0  0  0  0  0  0  0  0  0  0  0  0
   35.3670   29.7690   32.2220 C   0  0  2  0  0  0  0  0  0  0  0  0
   36.3450   30.1820   34.1360 H   0  0  0  0  0  0  0  0  0  0  0  0
   37.6430   28.6060   33.1280 H   0  0  0  0  0  0  0  0  0  0  0  0
   34.7730   28.1750   30.9280 H   0  0  0  0  0  0  0  0  0  0  0  0
   36.4890   28.6730   30.6800 H   0  0  0  0  0  0  0  0  0  0  0  0
   34.3010   30.0660   32.1620 H   0  0  0  0  0  0  0  0  0  0  0  0
   34.6800   29.0590   34.4400 O   0  0  0  0  0  0  0  0  0  0  0  0
   34.2540   28.2200   34.1520 H   0  0  0  0  0  0  0  0  0  0  0  0
   36.6860   27.5260   34.5790 O   0  0  0  0  0  0  0  0  0  0  0  0
   39.2320   27.2900   33.9270 O   0  0  0  0  0  0  0  0  0  0  0  0
   38.1910   26.8750   34.9570 P   0  0  1  0  0  0  0  0  0  0  0  0
   38.7470   27.5080   36.4270 O   0  0  0  0  0  0  0  0  0  0  0  0
   38.0810   27.2940   37.1560 H   0  0  0  0  0  0  0  0  0  0  0  0
   37.9910   25.1810   35.0740 O   0  0  0  0  0  0  0  0  0  0  0  0
   38.4090   24.4690   36.1810 C   0  0  0  0  0  0  0  0  0  0  0  0
   39.4460   23.5070   36.1740 C   0  0  0  0  0  0  0  0  0  0  0  0
   39.7540   22.8720   37.3700 C   0  0  0  0  0  0  0  0  0  0  0  0
   39.0430   23.2080   38.4910 N   0  0  0  0  0  0  0  0  0  0  0  0
   38.0490   24.1370   38.4670 C   0  0  0  0  0  0  0  0  0  0  0  0
   37.7360   24.7690   37.3010 N   0  0  0  0  0  0  0  0  0  0  0  0
   39.9290   23.3290   35.2430 H   0  0  0  0  0  0  0  0  0  0  0  0
   40.5380   22.1400   37.3810 H   0  0  0  0  0  0  0  0  0  0  0  0
   37.5030   24.3850   39.3650 H   0  0  0  0  0  0  0  0  0  0  0  0
   36.1160   30.8390   31.7800 O   0  0  0  0  0  0  0  0  0  0  0  0
   34.4110   31.9940   30.4090 H   0  0  0  0  0  0  0  0  0  0  0  0
   35.3480   31.9770   29.9490 N   0  0  0  0  0  0  0  0  0  0  0  0
   36.0420   33.2440   30.0520 C   0  0  0  0  0  2  0  0  0  0  0  0
   37.4810   32.9230   30.4440 C   0  0  0  0  0  2  0  0  0  0  0  0
   37.5850   31.4800   29.9900 C   0  0  0  0  0  2  0  0  0  0  0  0
   36.2320   30.9560   30.4170 C   0  0  1  0  0  3  0  0  0  0  0  0
  1  6  1  1  0  0  0
  1 11  1  0  0  0  0
  2  7  1  6  0  0  0
  2  1  1  0  0  0  0
  2 13  1  0  0  0  0
  3  2  1  0  0  0  0
  4  5  1  0  0  0  0
  4  3  1  0  0  0  0
  5 10  1  6  0  0  0
  5  1  1  0  0  0  0
  8  4  1  0  0  0  0
  9  4  1  0  0  0  0
 12 11  1  0  0  0  0
 13 15  1  0  0  0  0
 15 14  2  6  0  0  0
 15 18  1  0  0  0  0
 15 16  1  0  0  0  0
 16 17  1  0  0  0  0
 18 19  1  0  0  0  0
 19 24  1  0  0  0  0
 20 19  2  0  0  0  0
 20 21  1  0  0  0  0
 21 26  1  0  0  0  0
 21 22  2  0  0  0  0
 23 22  1  0  0  0  0
 23 27  1  0  0  0  0
 24 23  2  0  0  0  0
 25 20  1  0  0  0  0
 28  5  1  0  0  0  0
 30 31  1  0  0  0  0
 30 29  1  0  0  0  0
 30 34  1  0  0  0  0
 31 32  1  0  0  0  0
 33 34  1  0  0  0  0
 33 32  1  0  0  0  0
 34 28  1  1  0  0  0
M  END
>  <minimizedAffinity>
-5.0135951

$$$$

 OpenBabel03272503513D

 34 36  0  0  1  0  0  0  0  0999 V2000
   38.8060   23.5990   35.9710 C   0  0  1  0  0  0  0  0  0  0  0  0
   38.2600   24.8290   36.7310 C   0  0  2  0  0  0  0  0  0  0  0  0
   37.7910   24.2930   37.8900 O   0  0  0  0  0  0  0  0  0  0  0  0
   38.7960   23.4280   38.3010 C   0  0  0  0  0  0  0  0  0  0  0  0
   39.4220   22.8140   37.0820 C   0  0  2  0  0  0  0  0  0  0  0  0
   39.5550   23.9530   35.2180 H   0  0  0  0  0  0  0  0  0  0  0  0
   39.1480   25.5010   36.8390 H   0  0  0  0  0  0  0  0  0  0  0  0
   38.2650   22.6080   38.8680 H   0  0  0  0  0  0  0  0  0  0  0  0
   39.5170   23.9010   38.9910 H   0  0  0  0  0  0  0  0  0  0  0  0
   39.2210   21.7300   36.9610 H   0  0  0  0  0  0  0  0  0  0  0  0
   37.7860   22.9580   35.2940 O   0  0  0  0  0  0  0  0  0  0  0  0
   36.9950   22.8350   35.8670 H   0  0  0  0  0  0  0  0  0  0  0  0
   37.3420   25.3770   35.8850 O   0  0  0  0  0  0  0  0  0  0  0  0
   36.9380   27.8200   34.9720 O   0  0  0  0  0  0  0  0  0  0  0  0
   37.9310   26.6650   34.9770 P   0  0  1  0  0  0  0  0  0  0  0  0
   39.3330   27.2910   35.6940 O   0  0  0  0  0  0  0  0  0  0  0  0
   40.0290   26.5620   35.7580 H   0  0  0  0  0  0  0  0  0  0  0  0
   38.2770   26.0620   33.4140 O   0  0  0  0  0  0  0  0  0  0  0  0
   37.3020   25.5000   32.6140 C   0  0  0  0  0  0  0  0  0  0  0  0
   36.3540   26.2360   31.8640 C   0  0  0  0  0  0  0  0  0  0  0  0
   35.4330   25.5270   31.1050 C   0  0  0  0  0  0  0  0  0  0  0  0
   35.4870   24.1580   31.1190 N   0  0  0  0  0  0  0  0  0  0  0  0
   36.4100   23.4780   31.8520 C   0  0  0  0  0  0  0  0  0  0  0  0
   37.3210   24.1590   32.6020 N   0  0  0  0  0  0  0  0  0  0  0  0
   36.4090   27.2960   31.9300 H   0  0  0  0  0  0  0  0  0  0  0  0
   34.7090   26.0700   30.5300 H   0  0  0  0  0  0  0  0  0  0  0  0
   36.4330   22.3980   31.8470 H   0  0  0  0  0  0  0  0  0  0  0  0
   40.7910   22.9770   37.1030 O   0  0  0  0  0  0  0  0  0  0  0  0
   42.4110   24.7390   36.4790 H   0  0  0  0  0  0  0  0  0  0  0  0
   42.5440   23.8620   35.9280 N   0  0  0  0  0  0  0  0  0  0  0  0
   43.6660   23.0760   36.3950 C   0  0  0  0  0  2  0  0  0  0  0  0
   43.1880   21.6280   36.4550 C   0  0  0  0  0  2  0  0  0  0  0  0
   42.0140   21.6750   35.4970 C   0  0  0  0  0  2  0  0  0  0  0  0
   41.4010   23.0050   35.8730 C   0  0  1  0  0  3  0  0  0  0  0  0
  1  6  1  6  0  0  0
  1  2  1  0  0  0  0
  1  5  1  0  0  0  0
  2  7  1  1  0  0  0
  2  3  1  0  0  0  0
  3  4  1  0  0  0  0
  4  8  1  0  0  0  0
  4  9  1  0  0  0  0
  5 10  1  6  0  0  0
  5 28  1  0  0  0  0
  5  4  1  0  0  0  0
 11 12  1  0  0  0  0
 11  1  1  0  0  0  0
 13  2  1  0  0  0  0
 15 14  2  6  0  0  0
 15 16  1  0  0  0  0
 15 13  1  0  0  0  0
 16 17  1  0  0  0  0
 18 15  1  0  0  0  0
 19 18  1  0  0  0  0
 20 25  1  0  0  0  0
 20 19  2  0  0  0  0
 21 22  2  0  0  0  0
 21 20  1  0  0  0  0
 22 23  1  0  0  0  0
 23 24  2  0  0  0  0
 24 19  1  0  0  0  0
 26 21  1  0  0  0  0
 27 23  1  0  0  0  0
 30 31  1  0  0  0  0
 30 29  1  0  0  0  0
 31 32  1  0  0  0  0
 33 34  1  0  0  0  0
 33 32  1  0  0  0  0
 34 30  1  0  0  0  0
 34 28  1  1  0  0  0
M  END
>  <minimizedAffinity>
-4.9764657

$$$$

 OpenBabel03272503513D

 34 36  0  0  1  0  0  0  0  0999 V2000
   35.9760   27.3360   31.4010 C   0  0  1  0  0  0  0  0  0  0  0  0
   36.4870   25.9790   31.9360 C   0  0  2  0  0  0  0  0  0  0  0  0
   37.8070   26.2140   32.1620 O   0  0  0  0  0  0  0  0  0  0  0  0
   37.8330   27.4390   32.8160 C   0  0  0  0  0  0  0  0  0  0  0  0
   36.7330   28.2960   32.2590 C   0  0  2  0  0  0  0  0  0  0  0  0
   34.8690   27.3850   31.5630 H   0  0  0  0  0  0  0  0  0  0  0  0
   35.8690   25.7950   32.8510 H   0  0  0  0  0  0  0  0  0  0  0  0
   38.8180   27.9070   32.5250 H   0  0  0  0  0  0  0  0  0  0  0  0
   37.8190   27.3410   33.9160 H   0  0  0  0  0  0  0  0  0  0  0  0
   37.0860   29.1650   31.6670 H   0  0  0  0  0  0  0  0  0  0  0  0
   36.2180   27.4430   30.0450 O   0  0  0  0  0  0  0  0  0  0  0  0
   37.1380   27.1740   29.8220 H   0  0  0  0  0  0  0  0  0  0  0  0
   36.1750   25.0840   30.9560 O   0  0  0  0  0  0  0  0  0  0  0  0
   38.1060   23.4420   30.2240 O   0  0  0  0  0  0  0  0  0  0  0  0
   36.9020   23.5790   31.1460 P   0  0  1  0  0  0  0  0  0  0  0  0
   37.5270   23.4280   32.7140 O   0  0  0  0  0  0  0  0  0  0  0  0
   36.7800   23.5420   33.3830 H   0  0  0  0  0  0  0  0  0  0  0  0
   35.6970   22.3990   30.8670 O   0  0  0  0  0  0  0  0  0  0  0  0
   35.6870   21.1900   31.5360 C   0  0  0  0  0  0  0  0  0  0  0  0
   35.9060   19.9320   30.9270 C   0  0  0  0  0  0  0  0  0  0  0  0
   35.8640   18.8030   31.7340 C   0  0  0  0  0  0  0  0  0  0  0  0
   35.6170   18.9630   33.0720 N   0  0  0  0  0  0  0  0  0  0  0  0
   35.4100   20.1870   33.6280 C   0  0  0  0  0  0  0  0  0  0  0  0
   35.4470   21.3040   32.8500 N   0  0  0  0  0  0  0  0  0  0  0  0
   36.0890   19.9310   29.8790 H   0  0  0  0  0  0  0  0  0  0  0  0
   36.0280   17.8420   31.2880 H   0  0  0  0  0  0  0  0  0  0  0  0
   35.2170   20.2860   34.6870 H   0  0  0  0  0  0  0  0  0  0  0  0
   35.9380   28.7870   33.2730 O   0  0  0  0  0  0  0  0  0  0  0  0
   33.5160   28.7300   33.7700 H   0  0  0  0  0  0  0  0  0  0  0  0
   33.8770   29.7040   33.6570 N   0  0  0  0  0  0  0  0  0  0  0  0
   34.0630   30.3790   34.9240 C   0  0  0  0  0  2  0  0  0  0  0  0
   35.4200   31.0730   34.8520 C   0  0  0  0  0  2  0  0  0  0  0  0
   35.6140   31.1660   33.3510 C   0  0  0  0  0  2  0  0  0  0  0  0
   35.0970   29.8130   32.9200 C   0  0  1  0  0  3  0  0  0  0  0  0
  1  6  1  1  0  0  0
  1  2  1  0  0  0  0
  1  5  1  0  0  0  0
  2  3  1  0  0  0  0
  2  7  1  1  0  0  0
  3  4  1  0  0  0  0
  4  9  1  0  0  0  0
  5 10  1  6  0  0  0
  5  4  1  0  0  0  0
  5 28  1  0  0  0  0
  8  4  1  0  0  0  0
 11  1  1  0  0  0  0
 12 11  1  0  0  0  0
 13 15  1  0  0  0  0
 13  2  1  0  0  0  0
 15 14  2  6  0  0  0
 15 16  1  0  0  0  0
 16 17  1  0  0  0  0
 18 15  1  0  0  0  0
 18 19  1  0  0  0  0
 19 24  1  0  0  0  0
 20 19  2  0  0  0  0
 20 21  1  0  0  0  0
 21 22  2  0  0  0  0
 22 23  1  0  0  0  0
 23 27  1  0  0  0  0
 24 23  2  0  0  0  0
 25 20  1  0  0  0  0
 26 21  1  0  0  0  0
 30 29  1  0  0  0  0
 30 31  1  0  0  0  0
 32 31  1  0  0  0  0
 33 32  1  0  0  0  0
 34 28  1  1  0  0  0
 34 33  1  0  0  0  0
 34 30  1  0  0  0  0
M  END
>  <minimizedAffinity>
-4.90155315

$$$$

 OpenBabel03272503513D

 34 36  0  0  1  0  0  0  0  0999 V2000
   38.9350   22.9760   34.7900 C   0  0  1  0  0  0  0  0  0  0  0  0
   37.6700   22.1700   34.4180 C   0  0  2  0  0  0  0  0  0  0  0  0
   37.3050   21.6040   35.6000 O   0  0  0  0  0  0  0  0  0  0  0  0
   37.4020   22.6390   36.5210 C   0  0  0  0  0  0  0  0  0  0  0  0
   38.5590   23.5130   36.1310 C   0  0  2  0  0  0  0  0  0  0  0  0
   39.0810   23.7780   34.0230 H   0  0  0  0  0  0  0  0  0  0  0  0
   36.9630   22.9390   34.0160 H   0  0  0  0  0  0  0  0  0  0  0  0
   37.6610   22.1380   37.4990 H   0  0  0  0  0  0  0  0  0  0  0  0
   36.4510   23.1820   36.6620 H   0  0  0  0  0  0  0  0  0  0  0  0
   39.4190   23.4730   36.8310 H   0  0  0  0  0  0  0  0  0  0  0  0
   40.0500   22.1590   34.7760 O   0  0  0  0  0  0  0  0  0  0  0  0
   39.8820   21.3140   35.2510 H   0  0  0  0  0  0  0  0  0  0  0  0
   38.0790   21.3270   33.4270 O   0  0  0  0  0  0  0  0  0  0  0  0
   36.9430   19.3070   32.1650 O   0  0  0  0  0  0  0  0  0  0  0  0
   36.8390   20.8050   32.4170 P   0  0  1  0  0  0  0  0  0  0  0  0
   35.3400   21.0230   33.1750 O   0  0  0  0  0  0  0  0  0  0  0  0
   35.2180   21.9990   33.4000 H   0  0  0  0  0  0  0  0  0  0  0  0
   36.9280   21.7400   30.9880 O   0  0  0  0  0  0  0  0  0  0  0  0
   36.8710   23.1200   31.0110 C   0  0  0  0  0  0  0  0  0  0  0  0
   37.9700   23.9740   30.7600 C   0  0  0  0  0  0  0  0  0  0  0  0
   37.7560   25.3450   30.8210 C   0  0  0  0  0  0  0  0  0  0  0  0
   36.4990   25.7990   31.1200 N   0  0  0  0  0  0  0  0  0  0  0  0
   35.4620   24.9520   31.3580 C   0  0  0  0  0  0  0  0  0  0  0  0
   35.6550   23.6040   31.3020 N   0  0  0  0  0  0  0  0  0  0  0  0
   38.9000   23.5080   30.5370 H   0  0  0  0  0  0  0  0  0  0  0  0
   38.5790   26.0060   30.6320 H   0  0  0  0  0  0  0  0  0  0  0  0
   34.4790   25.3350   31.5920 H   0  0  0  0  0  0  0  0  0  0  0  0
   38.1640   24.8310   36.0430 O   0  0  0  0  0  0  0  0  0  0  0  0
   36.5830   25.3890   34.2240 H   0  0  0  0  0  0  0  0  0  0  0  0
   37.4150   26.0200   34.2370 N   0  0  0  0  0  0  0  0  0  0  0  0
   37.1220   27.3160   34.8110 C   0  0  0  0  0  2  0  0  0  0  0  0
   38.2720   27.6420   35.7600 C   0  0  0  0  0  2  0  0  0  0  0  0
   39.3600   26.7410   35.2090 C   0  0  0  0  0  2  0  0  0  0  0  0
   38.5620   25.4930   34.9080 C   0  0  1  0  0  3  0  0  0  0  0  0
  1  6  1  6  0  0  0
  1  5  1  0  0  0  0
  2  7  1  6  0  0  0
  2  1  1  0  0  0  0
  2  3  1  0  0  0  0
  3  4  1  0  0  0  0
  4  9  1  0  0  0  0
  4  8  1  0  0  0  0
  5  4  1  0  0  0  0
  5 10  1  1  0  0  0
 11  1  1  0  0  0  0
 11 12  1  0  0  0  0
 13  2  1  0  0  0  0
 15 14  2  6  0  0  0
 15 16  1  0  0  0  0
 15 13  1  0  0  0  0
 16 17  1  0  0  0  0
 18 19  1  0  0  0  0
 18 15  1  0  0  0  0
 19 24  1  0  0  0  0
 20 21  1  0  0  0  0
 20 19  2  0  0  0  0
 21 22  2  0  0  0  0
 22 23  1  0  0  0  0
 23 27  1  0  0  0  0
 24 23  2  0  0  0  0
 25 20  1  0  0  0  0
 26 21  1  0  0  0  0
 28  5  1  0  0  0  0
 29 30  1  0  0  0  0
 30 31  1  0  0  0  0
 30 34  1  0  0  0  0
 31 32  1  0  0  0  0
 33 32  1  0  0  0  0
 34 33  1  0  0  0  0
 34 28  1  1  0  0  0
M  END
>  <minimizedAffinity>
-4.86619902

$$$$

 OpenBabel03272503513D

 34 36  0  0  1  0  0  0  0  0999 V2000
   35.9740   26.0240   31.5760 C   0  0  1  0  0  0  0  0  0  0  0  0
   37.1140   25.6910   32.5640 C   0  0  2  0  0  0  0  0  0  0  0  0
   38.1810   26.3500   32.0370 O   0  0  0  0  0  0  0  0  0  0  0  0
   37.6860   27.6070   31.7170 C   0  0  0  0  0  0  0  0  0  0  0  0
   36.2650   27.4540   31.2590 C   0  0  2  0  0  0  0  0  0  0  0  0
   34.9970   25.8830   32.1040 H   0  0  0  0  0  0  0  0  0  0  0  0
   36.7480   26.0810   33.5470 H   0  0  0  0  0  0  0  0  0  0  0  0
   38.3000   27.9480   30.8320 H   0  0  0  0  0  0  0  0  0  0  0  0
   37.8250   28.3450   32.5270 H   0  0  0  0  0  0  0  0  0  0  0  0
   36.1060   27.6620   30.1820 H   0  0  0  0  0  0  0  0  0  0  0  0
   36.0060   25.1640   30.4950 O   0  0  0  0  0  0  0  0  0  0  0  0
   36.9180   25.0720   30.1360 H   0  0  0  0  0  0  0  0  0  0  0  0
   37.1710   24.3290   32.5780 O   0  0  0  0  0  0  0  0  0  0  0  0
   39.4120   22.9380   32.4890 O   0  0  0  0  0  0  0  0  0  0  0  0
   38.4860   23.7070   33.4230 P   0  0  1  0  0  0  0  0  0  0  0  0
   39.4320   24.9700   34.0410 O   0  0  0  0  0  0  0  0  0  0  0  0
   38.8660   25.5430   34.6490 H   0  0  0  0  0  0  0  0  0  0  0  0
   37.8610   22.7510   34.6950 O   0  0  0  0  0  0  0  0  0  0  0  0
   38.2690   22.9180   36.0040 C   0  0  0  0  0  0  0  0  0  0  0  0
   37.4470   23.4080   37.0460 C   0  0  0  0  0  0  0  0  0  0  0  0
   38.0020   23.5210   38.3140 C   0  0  0  0  0  0  0  0  0  0  0  0
   39.3090   23.1520   38.4920 N   0  0  0  0  0  0  0  0  0  0  0  0
   40.0750   22.6840   37.4690 C   0  0  0  0  0  0  0  0  0  0  0  0
   39.5450   22.5680   36.2190 N   0  0  0  0  0  0  0  0  0  0  0  0
   36.4470   23.6630   36.7890 H   0  0  0  0  0  0  0  0  0  0  0  0
   37.3930   23.8910   39.1150 H   0  0  0  0  0  0  0  0  0  0  0  0
   41.1030   22.3990   37.6350 H   0  0  0  0  0  0  0  0  0  0  0  0
   35.4330   28.2960   31.9660 O   0  0  0  0  0  0  0  0  0  0  0  0
   35.5260   30.7190   31.4720 H   0  0  0  0  0  0  0  0  0  0  0  0
   35.6320   30.5150   32.4910 N   0  0  0  0  0  0  0  0  0  0  0  0
   34.4210   30.7720   33.2400 C   0  0  0  0  0  2  0  0  0  0  0  0
   34.2250   29.5820   34.1740 C   0  0  0  0  0  2  0  0  0  0  0  0
   35.6390   29.0370   34.2420 C   0  0  0  0  0  2  0  0  0  0  0  0
   36.0640   29.1870   32.7990 C   0  0  1  0  0  3  0  0  0  0  0  0
  1  6  1  1  0  0  0
  1  2  1  0  0  0  0
  2 13  1  0  0  0  0
  2  7  1  1  0  0  0
  3  2  1  0  0  0  0
  4  3  1  0  0  0  0
  4  9  1  0  0  0  0
  5 10  1  6  0  0  0
  5  1  1  0  0  0  0
  5  4  1  0  0  0  0
  5 28  1  0  0  0  0
  8  4  1  0  0  0  0
 11  1  1  0  0  0  0
 12 11  1  0  0  0  0
 13 15  1  0  0  0  0
 15 14  2  6  0  0  0
 15 16  1  0  0  0  0
 15 18  1  0  0  0  0
 16 17  1  0  0  0  0
 18 19  1  0  0  0  0
 19 24  2  0  0  0  0
 19 20  1  0  0  0  0
 20 21  2  0  0  0  0
 21 22  1  0  0  0  0
 21 26  1  0  0  0  0
 23 27  1  0  0  0  0
 23 22  2  0  0  0  0
 24 23  1  0  0  0  0
 25 20  1  0  0  0  0
 29 30  1  0  0  0  0
 30 34  1  0  0  0  0
 30 31  1  0  0  0  0
 31 32  1  0  0  0  0
 32 33  1  0  0  0  0
 34 28  1  6  0  0  0
 34 33  1  0  0  0  0
M  END
>  <minimizedAffinity>
-4.79881191

$$$$

 OpenBabel03272503513D

 34 36  0  0  1  0  0  0  0  0999 V2000
   39.3160   26.4320   35.4710 C   0  0  1  0  0  0  0  0  0  0  0  0
   38.5120   25.1160   35.3730 C   0  0  2  0  0  0  0  0  0  0  0  0
   37.6030   25.3810   34.3970 O   0  0  0  0  0  0  0  0  0  0  0  0
   38.3430   25.9910   33.3930 C   0  0  0  0  0  0  0  0  0  0  0  0
   39.4130   26.8270   34.0350 C   0  0  2  0  0  0  0  0  0  0  0  0
   40.3110   26.2040   35.9300 H   0  0  0  0  0  0  0  0  0  0  0  0
   39.2800   24.3440   35.1160 H   0  0  0  0  0  0  0  0  0  0  0  0
   37.6210   26.6900   32.8780 H   0  0  0  0  0  0  0  0  0  0  0  0
   38.7170   25.2770   32.6380 H   0  0  0  0  0  0  0  0  0  0  0  0
   39.2740   27.9210   33.9130 H   0  0  0  0  0  0  0  0  0  0  0  0
   38.6630   27.3370   36.2870 O   0  0  0  0  0  0  0  0  0  0  0  0
   37.7060   27.3940   36.0660 H   0  0  0  0  0  0  0  0  0  0  0  0
   38.0290   24.9130   36.6320 O   0  0  0  0  0  0  0  0  0  0  0  0
   37.5330   23.1180   38.5020 O   0  0  0  0  0  0  0  0  0  0  0  0
   38.3710   23.3900   37.2600 P   0  0  1  0  0  0  0  0  0  0  0  0
   37.9220   22.1890   36.1520 O   0  0  0  0  0  0  0  0  0  0  0  0
   38.4210   22.3300   35.2860 H   0  0  0  0  0  0  0  0  0  0  0  0
   40.0550   23.3330   37.5530 O   0  0  0  0  0  0  0  0  0  0  0  0
   40.8800   22.4340   36.9040 C   0  0  0  0  0  0  0  0  0  0  0  0
   41.6460   21.4360   37.5500 C   0  0  0  0  0  0  0  0  0  0  0  0
   42.4310   20.6060   36.7610 C   0  0  0  0  0  0  0  0  0  0  0  0
   42.4230   20.7930   35.4040 N   0  0  0  0  0  0  0  0  0  0  0  0
   41.6750   21.7630   34.8120 C   0  0  0  0  0  0  0  0  0  0  0  0
   40.9000   22.5860   35.5720 N   0  0  0  0  0  0  0  0  0  0  0  0
   41.5720   21.3840   38.6100 H   0  0  0  0  0  0  0  0  0  0  0  0
   43.0170   19.8430   37.2350 H   0  0  0  0  0  0  0  0  0  0  0  0
   41.6860   21.8900   33.7390 H   0  0  0  0  0  0  0  0  0  0  0  0
   40.6520   26.5130   33.5180 O   0  0  0  0  0  0  0  0  0  0  0  0
   42.4970   26.9290   35.1110 H   0  0  0  0  0  0  0  0  0  0  0  0
   42.6810   27.3440   34.1710 N   0  0  0  0  0  0  0  0  0  0  0  0
   43.6110   26.5590   33.3870 C   0  0  0  0  0  2  0  0  0  0  0  0
   43.0240   26.4630   31.9820 C   0  0  0  0  0  2  0  0  0  0  0  0
   42.0950   27.6610   31.9780 C   0  0  0  0  0  2  0  0  0  0  0  0
   41.5170   27.5690   33.3720 C   0  0  1  0  0  3  0  0  0  0  0  0
  1  6  1  1  0  0  0
  1 11  1  0  0  0  0
  2  7  1  6  0  0  0
  2  1  1  0  0  0  0
  2 13  1  0  0  0  0
  3  2  1  0  0  0  0
  4  5  1  0  0  0  0
  4  3  1  0  0  0  0
  5 10  1  6  0  0  0
  5  1  1  0  0  0  0
  8  4  1  0  0  0  0
  9  4  1  0  0  0  0
 12 11  1  0  0  0  0
 13 15  1  0  0  0  0
 15 18  1  0  0  0  0
 15 14  2  1  0  0  0
 16 15  1  0  0  0  0
 17 16  1  0  0  0  0
 19 20  1  0  0  0  0
 19 18  1  0  0  0  0
 20 25  1  0  0  0  0
 21 26  1  0  0  0  0
 21 20  2  0  0  0  0
 22 21  1  0  0  0  0
 23 22  2  0  0  0  0
 23 24  1  0  0  0  0
 24 19  2  0  0  0  0
 27 23  1  0  0  0  0
 28  5  1  0  0  0  0
 30 29  1  0  0  0  0
 31 30  1  0  0  0  0
 32 31  1  0  0  0  0
 33 32  1  0  0  0  0
 33 34  1  0  0  0  0
 34 28  1  6  0  0  0
 34 30  1  0  0  0  0
M  END
>  <minimizedAffinity>
-4.76940584

$$$$

 OpenBabel03272503513D

 34 36  0  0  1  0  0  0  0  0999 V2000
   38.7900   23.5110   36.1080 C   0  0  1  0  0  0  0  0  0  0  0  0
   38.2860   24.7660   36.8560 C   0  0  2  0  0  0  0  0  0  0  0  0
   37.8470   24.2640   38.0410 O   0  0  0  0  0  0  0  0  0  0  0  0
   38.8530   23.3940   38.4410 C   0  0  0  0  0  0  0  0  0  0  0  0
   39.4300   22.7440   37.2170 C   0  0  2  0  0  0  0  0  0  0  0  0
   39.5190   23.8370   35.3240 H   0  0  0  0  0  0  0  0  0  0  0  0
   39.1860   25.4280   36.9200 H   0  0  0  0  0  0  0  0  0  0  0  0
   38.3290   22.5960   39.0430 H   0  0  0  0  0  0  0  0  0  0  0  0
   39.6020   23.8730   39.0960 H   0  0  0  0  0  0  0  0  0  0  0  0
   39.2110   21.6600   37.1280 H   0  0  0  0  0  0  0  0  0  0  0  0
   37.7400   22.8700   35.4790 O   0  0  0  0  0  0  0  0  0  0  0  0
   36.9670   22.7720   36.0810 H   0  0  0  0  0  0  0  0  0  0  0  0
   37.3490   25.3080   36.0270 O   0  0  0  0  0  0  0  0  0  0  0  0
   36.7270   27.5570   34.7940 O   0  0  0  0  0  0  0  0  0  0  0  0
   37.8900   26.6450   35.1610 P   0  0  1  0  0  0  0  0  0  0  0  0
   38.9060   27.5930   36.1310 O   0  0  0  0  0  0  0  0  0  0  0  0
   39.6900   27.0360   36.4380 H   0  0  0  0  0  0  0  0  0  0  0  0
   38.7430   26.0530   33.8020 O   0  0  0  0  0  0  0  0  0  0  0  0
   39.9860   26.5420   33.4490 C   0  0  0  0  0  0  0  0  0  0  0  0
   40.2830   27.1650   32.2140 C   0  0  0  0  0  0  0  0  0  0  0  0
   41.5830   27.6050   32.0040 C   0  0  0  0  0  0  0  0  0  0  0  0
   42.5070   27.4170   32.9970 N   0  0  0  0  0  0  0  0  0  0  0  0
   42.1910   26.8130   34.1740 C   0  0  0  0  0  0  0  0  0  0  0  0
   40.9200   26.3750   34.3960 N   0  0  0  0  0  0  0  0  0  0  0  0
   39.4840   27.2570   31.5180 H   0  0  0  0  0  0  0  0  0  0  0  0
   41.8250   28.0800   31.0730 H   0  0  0  0  0  0  0  0  0  0  0  0
   42.9380   26.6760   34.9430 H   0  0  0  0  0  0  0  0  0  0  0  0
   40.8010   22.8870   37.1910 O   0  0  0  0  0  0  0  0  0  0  0  0
   42.3310   24.7060   36.5060 H   0  0  0  0  0  0  0  0  0  0  0  0
   42.4770   23.8320   35.9520 N   0  0  0  0  0  0  0  0  0  0  0  0
   43.6440   23.0900   36.3810 C   0  0  0  0  0  2  0  0  0  0  0  0
   43.2230   21.6260   36.4620 C   0  0  0  0  0  2  0  0  0  0  0  0
   42.0150   21.6260   35.5450 C   0  0  0  0  0  2  0  0  0  0  0  0
   41.3660   22.9330   35.9400 C   0  0  1  0  0  3  0  0  0  0  0  0
  1  6  1  6  0  0  0
  1  2  1  0  0  0  0
  1  5  1  0  0  0  0
  2  7  1  1  0  0  0
  2  3  1  0  0  0  0
  3  4  1  0  0  0  0
  4  8  1  0  0  0  0
  4  9  1  0  0  0  0
  5 10  1  6  0  0  0
  5  4  1  0  0  0  0
 11 12  1  0  0  0  0
 11  1  1  0  0  0  0
 13  2  1  0  0  0  0
 15 14  2  6  0  0  0
 15 13  1  0  0  0  0
 15 16  1  0  0  0  0
 16 17  1  0  0  0  0
 18 15  1  0  0  0  0
 19 18  1  0  0  0  0
 19 24  1  0  0  0  0
 20 19  2  0  0  0  0
 21 20  1  0  0  0  0
 21 22  2  0  0  0  0
 22 23  1  0  0  0  0
 23 24  2  0  0  0  0
 23 27  1  0  0  0  0
 25 20  1  0  0  0  0
 26 21  1  0  0  0  0
 28  5  1  0  0  0  0
 30 31  1  0  0  0  0
 30 29  1  0  0  0  0
 31 32  1  0  0  0  0
 33 34  1  0  0  0  0
 33 32  1  0  0  0  0
 34 30  1  0  0  0  0
 34 28  1  1  0  0  0
M  END
>  <minimizedAffinity>
-4.76198339

$$$$
