
 OpenBabel03272508293D

 35 38  0  0  1  0  0  0  0  0999 V2000
   35.2700   25.3590   31.1100 C   0  0  2  0  0  0  0  0  0  0  0  0
   36.4610   26.3050   31.1380 C   0  0  2  0  0  0  0  0  0  0  0  0
   37.3170   25.7890   32.0700 O   0  0  0  0  0  0  0  0  0  0  0  0
   37.1060   24.4560   32.2340 C   0  0  0  0  0  0  0  0  0  0  0  0
   36.0120   24.0280   31.2740 C   0  0  1  0  0  0  0  0  0  0  0  0
   34.6120   25.4530   31.9830 H   0  0  0  0  0  0  0  0  0  0  0  0
   36.8970   26.2780   30.1120 H   0  0  0  0  0  0  0  0  0  0  0  0
   38.0130   23.8360   32.0640 H   0  0  0  0  0  0  0  0  0  0  0  0
   36.8020   24.2810   33.2970 H   0  0  0  0  0  0  0  0  0  0  0  0
   36.5260   23.7830   30.3290 H   0  0  0  0  0  0  0  0  0  0  0  0
   36.1640   28.2370   32.8360 C   0  0  1  0  0  0  0  0  0  0  0  0
   35.9470   27.6520   31.5340 C   0  0  1  0  0  0  0  0  0  0  0  0
   36.8450   28.8440   31.5990 C   0  0  0  0  0  0  0  0  0  0  0  0
   36.9150   27.9470   33.5960 H   0  0  0  0  0  0  0  0  0  0  0  0
   34.9440   27.8700   31.0650 H   0  0  0  0  0  0  0  0  0  0  0  0
   36.5050   29.8280   31.2430 H   0  0  0  0  0  0  0  0  0  0  0  0
   37.9110   28.6010   31.4380 H   0  0  0  0  0  0  0  0  0  0  0  0
   35.1570   29.1900   33.4550 C   0  0  0  0  0  0  0  0  0  0  0  0
   35.5790   29.9470   34.5460 C   0  0  0  0  0  0  0  0  0  0  0  0
   34.6030   30.7790   35.0860 C   0  0  0  0  0  0  0  0  0  0  0  0
   33.3390   30.8290   34.5660 N   0  0  0  0  0  0  0  0  0  0  0  0
   32.9790   30.0680   33.4970 C   0  0  0  0  0  0  0  0  0  0  0  0
   33.9000   29.2440   32.9420 N   0  0  0  0  0  0  0  0  0  0  0  0
   36.5700   29.8870   34.9300 H   0  0  0  0  0  0  0  0  0  0  0  0
   34.8880   31.3790   35.9300 H   0  0  0  0  0  0  0  0  0  0  0  0
   31.9680   30.1460   33.1250 H   0  0  0  0  0  0  0  0  0  0  0  0
   34.5560   25.3950   29.9290 O   0  0  0  0  0  0  0  0  0  0  0  0
   33.5980   25.1730   30.1080 H   0  0  0  0  0  0  0  0  0  0  0  0
   35.1870   23.0440   31.7460 O   0  0  0  0  0  0  0  0  0  0  0  0
   35.8220   21.3390   34.0330 H   0  0  0  0  0  0  0  0  0  0  0  0
   35.3090   21.1450   33.1240 N   0  0  0  0  0  0  0  0  0  0  0  0
   35.5480   19.7320   32.8720 C   0  0  0  0  0  2  0  0  0  0  0  0
   36.5340   19.7060   31.6970 C   0  0  0  0  0  2  0  0  0  0  0  0
   35.9830   20.9160   30.9280 C   0  0  0  0  0  2  0  0  0  0  0  0
   35.9020   21.9020   32.0690 C   0  0  1  0  0  3  0  0  0  0  0  0
  1  2  1  0  0  0  0
  1  5  1  0  0  0  0
  1  6  1  1  0  0  0
  2  7  1  6  0  0  0
  2 12  1  0  0  0  0
  2  3  1  0  0  0  0
  3  4  1  0  0  0  0
  4  9  1  0  0  0  0
  5 10  1  6  0  0  0
  5 29  1  0  0  0  0
  5  4  1  0  0  0  0
  8  4  1  0  0  0  0
 11 18  1  0  0  0  0
 11 14  1  1  0  0  0
 12 15  1  6  0  0  0
 12 13  1  0  0  0  0
 12 11  1  0  0  0  0
 13 11  1  0  0  0  0
 16 13  1  0  0  0  0
 17 13  1  0  0  0  0
 18 19  1  0  0  0  0
 19 24  1  0  0  0  0
 19 20  2  0  0  0  0
 20 25  1  0  0  0  0
 21 20  1  0  0  0  0
 22 21  2  0  0  0  0
 23 18  2  0  0  0  0
 23 22  1  0  0  0  0
 26 22  1  0  0  0  0
 27 28  1  0  0  0  0
 27  1  1  0  0  0  0
 31 30  1  0  0  0  0
 32 31  1  0  0  0  0
 33 32  1  0  0  0  0
 34 33  1  0  0  0  0
 34 35  1  0  0  0  0
 35 29  1  6  0  0  0
 35 31  1  0  0  0  0
M  END
>  <minimizedAffinity>
-5.08790922

$$$$

 OpenBabel03272508293D

 35 38  0  0  1  0  0  0  0  0999 V2000
   37.1060   27.7460   34.7290 C   0  0  2  0  0  0  0  0  0  0  0  0
   38.0540   27.1660   33.6900 C   0  0  2  0  0  0  0  0  0  0  0  0
   37.3070   27.0180   32.5560 O   0  0  0  0  0  0  0  0  0  0  0  0
   36.2430   27.8640   32.5630 C   0  0  0  0  0  0  0  0  0  0  0  0
   36.3100   28.6970   33.8280 C   0  0  1  0  0  0  0  0  0  0  0  0
   36.3840   27.0190   35.1210 H   0  0  0  0  0  0  0  0  0  0  0  0
   38.8630   27.9220   33.5600 H   0  0  0  0  0  0  0  0  0  0  0  0
   36.1990   28.5350   31.6780 H   0  0  0  0  0  0  0  0  0  0  0  0
   35.3100   27.2470   32.5350 H   0  0  0  0  0  0  0  0  0  0  0  0
   36.9400   29.5680   33.5770 H   0  0  0  0  0  0  0  0  0  0  0  0
   37.8760   25.1250   35.2730 C   0  0  1  0  0  0  0  0  0  0  0  0
   38.5390   25.8540   34.2180 C   0  0  1  0  0  0  0  0  0  0  0  0
   37.8800   24.5670   33.8410 C   0  0  0  0  0  0  0  0  0  0  0  0
   36.8400   25.2530   35.6420 H   0  0  0  0  0  0  0  0  0  0  0  0
   39.6660   25.7980   34.2230 H   0  0  0  0  0  0  0  0  0  0  0  0
   38.4770   23.6670   33.6300 H   0  0  0  0  0  0  0  0  0  0  0  0
   36.9600   24.7020   33.2430 H   0  0  0  0  0  0  0  0  0  0  0  0
   38.6510   24.2370   36.2300 C   0  0  0  0  0  0  0  0  0  0  0  0
   38.1080   24.0360   37.4980 C   0  0  0  0  0  0  0  0  0  0  0  0
   38.8770   23.2370   38.3370 C   0  0  0  0  0  0  0  0  0  0  0  0
   40.0680   22.7060   37.9240 N   0  0  0  0  0  0  0  0  0  0  0  0
   40.5530   22.9330   36.6740 C   0  0  0  0  0  0  0  0  0  0  0  0
   39.8330   23.7060   35.8250 N   0  0  0  0  0  0  0  0  0  0  0  0
   37.1780   24.4630   37.7930 H   0  0  0  0  0  0  0  0  0  0  0  0
   38.4940   23.0580   39.3250 H   0  0  0  0  0  0  0  0  0  0  0  0
   41.4980   22.4890   36.3980 H   0  0  0  0  0  0  0  0  0  0  0  0
   37.7420   28.4300   35.7460 O   0  0  0  0  0  0  0  0  0  0  0  0
   37.2020   28.3660   36.5840 H   0  0  0  0  0  0  0  0  0  0  0  0
   35.0950   29.0120   34.3740 O   0  0  0  0  0  0  0  0  0  0  0  0
   35.0710   30.9020   36.6020 H   0  0  0  0  0  0  0  0  0  0  0  0
   35.7330   30.7820   35.7810 N   0  0  0  0  0  0  0  0  0  0  0  0
   36.2560   32.1190   35.5420 C   0  0  0  0  0  2  0  0  0  0  0  0
   35.5810   32.5760   34.2420 C   0  0  0  0  0  2  0  0  0  0  0  0
   35.5680   31.2210   33.5200 C   0  0  0  0  0  2  0  0  0  0  0  0
   34.9960   30.3700   34.6290 C   0  0  1  0  0  3  0  0  0  0  0  0
  1  6  1  1  0  0  0
  1 27  1  0  0  0  0
  2  7  1  6  0  0  0
  2 12  1  0  0  0  0
  2  1  1  0  0  0  0
  3  4  1  0  0  0  0
  3  2  1  0  0  0  0
  4  5  1  0  0  0  0
  5 10  1  6  0  0  0
  5 29  1  0  0  0  0
  5  1  1  0  0  0  0
  8  4  1  0  0  0  0
  9  4  1  0  0  0  0
 11 14  1  1  0  0  0
 11 18  1  0  0  0  0
 12 15  1  1  0  0  0
 12 11  1  0  0  0  0
 13 12  1  0  0  0  0
 13 11  1  0  0  0  0
 16 13  1  0  0  0  0
 17 13  1  0  0  0  0
 18 19  1  0  0  0  0
 19 24  1  0  0  0  0
 19 20  2  0  0  0  0
 20 25  1  0  0  0  0
 21 20  1  0  0  0  0
 22 21  2  0  0  0  0
 23 18  2  0  0  0  0
 23 22  1  0  0  0  0
 26 22  1  0  0  0  0
 27 28  1  0  0  0  0
 31 30  1  0  0  0  0
 32 31  1  0  0  0  0
 33 32  1  0  0  0  0
 34 33  1  0  0  0  0
 34 35  1  0  0  0  0
 35 29  1  6  0  0  0
 35 31  1  0  0  0  0
M  END
>  <minimizedAffinity>
-4.99813223

$$$$

 OpenBabel03272508293D

 35 38  0  0  1  0  0  0  0  0999 V2000
   39.1270   23.8010   34.1240 C   0  0  2  0  0  0  0  0  0  0  0  0
   39.0280   24.6700   35.3680 C   0  0  2  0  0  0  0  0  0  0  0  0
   38.0240   24.1240   36.1170 O   0  0  0  0  0  0  0  0  0  0  0  0
   37.8500   22.8110   35.8090 C   0  0  0  0  0  0  0  0  0  0  0  0
   38.8800   22.4300   34.7630 C   0  0  1  0  0  0  0  0  0  0  0  0
   38.3080   23.9590   33.4100 H   0  0  0  0  0  0  0  0  0  0  0  0
   40.0170   24.5890   35.8770 H   0  0  0  0  0  0  0  0  0  0  0  0
   37.9380   22.1300   36.6830 H   0  0  0  0  0  0  0  0  0  0  0  0
   36.8100   22.6830   35.4160 H   0  0  0  0  0  0  0  0  0  0  0  0
   39.7790   22.1290   35.3280 H   0  0  0  0  0  0  0  0  0  0  0  0
   37.3750   26.6270   34.9930 C   0  0  1  0  0  0  0  0  0  0  0  0
   38.6990   26.0560   34.9160 C   0  0  1  0  0  0  0  0  0  0  0  0
   38.4980   27.1710   35.8900 C   0  0  0  0  0  0  0  0  0  0  0  0
   36.5190   26.2790   35.6020 H   0  0  0  0  0  0  0  0  0  0  0  0
   39.3050   26.3540   34.0110 H   0  0  0  0  0  0  0  0  0  0  0  0
   38.8920   28.1780   35.6870 H   0  0  0  0  0  0  0  0  0  0  0  0
   38.5070   26.8400   36.9460 H   0  0  0  0  0  0  0  0  0  0  0  0
   36.8990   27.6630   33.9900 C   0  0  0  0  0  0  0  0  0  0  0  0
   37.4220   27.5920   32.7000 C   0  0  0  0  0  0  0  0  0  0  0  0
   36.9690   28.5840   31.8370 C   0  0  0  0  0  0  0  0  0  0  0  0
   36.0820   29.5400   32.2490 N   0  0  0  0  0  0  0  0  0  0  0  0
   35.6030   29.5640   33.5220 C   0  0  0  0  0  0  0  0  0  0  0  0
   36.0180   28.6140   34.3940 N   0  0  0  0  0  0  0  0  0  0  0  0
   38.1110   26.8360   32.4070 H   0  0  0  0  0  0  0  0  0  0  0  0
   37.3490   28.5650   30.8320 H   0  0  0  0  0  0  0  0  0  0  0  0
   34.9040   30.3400   33.7960 H   0  0  0  0  0  0  0  0  0  0  0  0
   40.3580   23.8530   33.5020 O   0  0  0  0  0  0  0  0  0  0  0  0
   40.2480   23.6980   32.5220 H   0  0  0  0  0  0  0  0  0  0  0  0
   38.4520   21.5130   33.8420 O   0  0  0  0  0  0  0  0  0  0  0  0
   37.4070   23.1430   31.6540 H   0  0  0  0  0  0  0  0  0  0  0  0
   37.3380   22.1030   31.8590 N   0  0  0  0  0  0  0  0  0  0  0  0
   36.0790   21.6990   31.2530 C   0  0  0  0  0  2  0  0  0  0  0  0
   35.1380   21.4500   32.4390 C   0  0  0  0  0  2  0  0  0  0  0  0
   36.1680   20.8560   33.4100 C   0  0  0  0  0  2  0  0  0  0  0  0
   37.2510   21.9000   33.2700 C   0  0  1  0  0  3  0  0  0  0  0  0
  1  6  1  6  0  0  0
  1  5  1  0  0  0  0
  1  2  1  0  0  0  0
  2  7  1  1  0  0  0
  2  3  1  0  0  0  0
  4  3  1  0  0  0  0
  4  8  1  0  0  0  0
  5 10  1  1  0  0  0
  5  4  1  0  0  0  0
  9  4  1  0  0  0  0
 11 14  1  1  0  0  0
 11 13  1  0  0  0  0
 12 15  1  6  0  0  0
 12 11  1  0  0  0  0
 12  2  1  0  0  0  0
 12 13  1  0  0  0  0
 13 17  1  0  0  0  0
 16 13  1  0  0  0  0
 18 23  1  0  0  0  0
 18 11  1  0  0  0  0
 19 18  2  0  0  0  0
 20 21  2  0  0  0  0
 20 19  1  0  0  0  0
 21 22  1  0  0  0  0
 22 26  1  0  0  0  0
 22 23  2  0  0  0  0
 24 19  1  0  0  0  0
 25 20  1  0  0  0  0
 27  1  1  0  0  0  0
 28 27  1  0  0  0  0
 29  5  1  0  0  0  0
 30 31  1  0  0  0  0
 31 35  1  0  0  0  0
 32 31  1  0  0  0  0
 32 33  1  0  0  0  0
 33 34  1  0  0  0  0
 35 34  1  0  0  0  0
 35 29  1  6  0  0  0
M  END
>  <minimizedAffinity>
-4.97650766

$$$$

 OpenBabel03272508293D

 35 38  0  0  1  0  0  0  0  0999 V2000
   37.1630   26.3910   34.0050 C   0  0  2  0  0  0  0  0  0  0  0  0
   37.3290   27.8860   34.2340 C   0  0  2  0  0  0  0  0  0  0  0  0
   37.7670   28.0120   35.5220 O   0  0  0  0  0  0  0  0  0  0  0  0
   38.3790   26.8720   35.9390 C   0  0  0  0  0  0  0  0  0  0  0  0
   38.3830   25.8880   34.7850 C   0  0  1  0  0  0  0  0  0  0  0  0
   36.2830   25.9640   34.5030 H   0  0  0  0  0  0  0  0  0  0  0  0
   38.0970   28.2240   33.4980 H   0  0  0  0  0  0  0  0  0  0  0  0
   39.4190   27.0280   36.2990 H   0  0  0  0  0  0  0  0  0  0  0  0
   37.8030   26.4690   36.8110 H   0  0  0  0  0  0  0  0  0  0  0  0
   39.2970   26.1100   34.2080 H   0  0  0  0  0  0  0  0  0  0  0  0
   35.6840   29.8760   34.4070 C   0  0  1  0  0  0  0  0  0  0  0  0
   35.9890   28.5160   34.0320 C   0  0  1  0  0  0  0  0  0  0  0  0
   35.7380   29.4840   32.9220 C   0  0  0  0  0  0  0  0  0  0  0  0
   36.3930   30.6980   34.6220 H   0  0  0  0  0  0  0  0  0  0  0  0
   35.1520   27.7730   34.1780 H   0  0  0  0  0  0  0  0  0  0  0  0
   34.7980   29.4580   32.3510 H   0  0  0  0  0  0  0  0  0  0  0  0
   36.6510   29.7550   32.3600 H   0  0  0  0  0  0  0  0  0  0  0  0
   34.2850   30.2860   34.8340 C   0  0  0  0  0  0  0  0  0  0  0  0
   34.0610   31.6400   35.0750 C   0  0  0  0  0  0  0  0  0  0  0  0
   32.7700   31.9480   35.4900 C   0  0  0  0  0  0  0  0  0  0  0  0
   31.8180   30.9780   35.6430 N   0  0  0  0  0  0  0  0  0  0  0  0
   32.0900   29.6690   35.3940 C   0  0  0  0  0  0  0  0  0  0  0  0
   33.3360   29.3270   34.9860 N   0  0  0  0  0  0  0  0  0  0  0  0
   34.8220   32.3740   34.9480 H   0  0  0  0  0  0  0  0  0  0  0  0
   32.5550   32.9820   35.6870 H   0  0  0  0  0  0  0  0  0  0  0  0
   31.3020   28.9430   35.5290 H   0  0  0  0  0  0  0  0  0  0  0  0
   37.2260   26.0180   32.6770 O   0  0  0  0  0  0  0  0  0  0  0  0
   36.6680   25.2030   32.5290 H   0  0  0  0  0  0  0  0  0  0  0  0
   38.2440   24.5760   35.1490 O   0  0  0  0  0  0  0  0  0  0  0  0
   36.9740   24.8770   37.7630 H   0  0  0  0  0  0  0  0  0  0  0  0
   37.3530   24.0270   37.2530 N   0  0  0  0  0  0  0  0  0  0  0  0
   37.7660   23.1250   38.3170 C   0  0  0  0  0  2  0  0  0  0  0  0
   39.3000   23.1610   38.2860 C   0  0  0  0  0  2  0  0  0  0  0  0
   39.4810   23.2770   36.7660 C   0  0  0  0  0  2  0  0  0  0  0  0
   38.5070   24.3990   36.4970 C   0  0  1  0  0  3  0  0  0  0  0  0
  1  2  1  0  0  0  0
  1  6  1  1  0  0  0
  1  5  1  0  0  0  0
  2  7  1  6  0  0  0
  2  3  1  0  0  0  0
  3  4  1  0  0  0  0
  4  8  1  0  0  0  0
  4  9  1  0  0  0  0
  5 10  1  6  0  0  0
  5 29  1  0  0  0  0
  5  4  1  0  0  0  0
 11 14  1  1  0  0  0
 11 18  1  0  0  0  0
 12 15  1  1  0  0  0
 12  2  1  0  0  0  0
 12 11  1  0  0  0  0
 13 12  1  0  0  0  0
 13 11  1  0  0  0  0
 16 13  1  0  0  0  0
 17 13  1  0  0  0  0
 18 23  2  0  0  0  0
 18 19  1  0  0  0  0
 19 20  2  0  0  0  0
 20 21  1  0  0  0  0
 20 25  1  0  0  0  0
 22 26  1  0  0  0  0
 22 21  2  0  0  0  0
 23 22  1  0  0  0  0
 24 19  1  0  0  0  0
 27  1  1  0  0  0  0
 28 27  1  0  0  0  0
 31 30  1  0  0  0  0
 31 32  1  0  0  0  0
 33 32  1  0  0  0  0
 34 33  1  0  0  0  0
 35 29  1  6  0  0  0
 35 34  1  0  0  0  0
 35 31  1  0  0  0  0
M  END
>  <minimizedAffinity>
-4.91917419

$$$$

 OpenBabel03272508293D

 35 38  0  0  1  0  0  0  0  0999 V2000
   38.6470   24.8740   32.8180 C   0  0  2  0  0  0  0  0  0  0  0  0
   37.5690   25.3870   31.8750 C   0  0  2  0  0  0  0  0  0  0  0  0
   36.7330   26.1410   32.6500 O   0  0  0  0  0  0  0  0  0  0  0  0
   37.3790   26.5940   33.7580 C   0  0  0  0  0  0  0  0  0  0  0  0
   38.8180   26.1210   33.6940 C   0  0  1  0  0  0  0  0  0  0  0  0
   38.3040   24.0750   33.4870 H   0  0  0  0  0  0  0  0  0  0  0  0
   38.0990   26.0050   31.1120 H   0  0  0  0  0  0  0  0  0  0  0  0
   37.3550   27.7000   33.8680 H   0  0  0  0  0  0  0  0  0  0  0  0
   36.8570   26.1790   34.6570 H   0  0  0  0  0  0  0  0  0  0  0  0
   39.3590   26.8940   33.1200 H   0  0  0  0  0  0  0  0  0  0  0  0
   36.1170   23.2550   32.0960 C   0  0  1  0  0  0  0  0  0  0  0  0
   36.8770   24.1920   31.3030 C   0  0  1  0  0  0  0  0  0  0  0  0
   35.3990   24.1700   31.0920 C   0  0  0  0  0  0  0  0  0  0  0  0
   35.7130   23.3980   33.1170 H   0  0  0  0  0  0  0  0  0  0  0  0
   37.4600   23.7430   30.4470 H   0  0  0  0  0  0  0  0  0  0  0  0
   34.9630   23.7180   30.1880 H   0  0  0  0  0  0  0  0  0  0  0  0
   34.8830   25.0600   31.4970 H   0  0  0  0  0  0  0  0  0  0  0  0
   36.0100   21.7910   31.7070 C   0  0  0  0  0  0  0  0  0  0  0  0
   34.9860   21.0470   32.2910 C   0  0  0  0  0  0  0  0  0  0  0  0
   34.9580   19.7080   31.9170 C   0  0  0  0  0  0  0  0  0  0  0  0
   35.8750   19.1900   31.0450 N   0  0  0  0  0  0  0  0  0  0  0  0
   36.8560   19.9620   30.5030 C   0  0  0  0  0  0  0  0  0  0  0  0
   36.9180   21.2720   30.8410 N   0  0  0  0  0  0  0  0  0  0  0  0
   34.2860   21.4770   32.9680 H   0  0  0  0  0  0  0  0  0  0  0  0
   34.1840   19.0990   32.3460 H   0  0  0  0  0  0  0  0  0  0  0  0
   37.5540   19.5030   29.8180 H   0  0  0  0  0  0  0  0  0  0  0  0
   39.8280   24.5370   32.1860 O   0  0  0  0  0  0  0  0  0  0  0  0
   40.2850   23.8080   32.6940 H   0  0  0  0  0  0  0  0  0  0  0  0
   39.3760   25.8150   34.9050 O   0  0  0  0  0  0  0  0  0  0  0  0
   39.6310   22.9100   35.0960 H   0  0  0  0  0  0  0  0  0  0  0  0
   39.6660   23.6750   35.8310 N   0  0  0  0  0  0  0  0  0  0  0  0
   39.1870   23.0300   37.0440 C   0  0  0  0  0  2  0  0  0  0  0  0
   37.7880   23.6170   37.2720 C   0  0  0  0  0  2  0  0  0  0  0  0
   38.0730   25.0460   36.7870 C   0  0  0  0  0  2  0  0  0  0  0  0
   38.7560   24.7180   35.4800 C   0  0  1  0  0  3  0  0  0  0  0  0
  1  6  1  1  0  0  0
  1  5  1  0  0  0  0
  2  7  1  6  0  0  0
  2  3  1  0  0  0  0
  2  1  1  0  0  0  0
  3  4  1  0  0  0  0
  4  8  1  0  0  0  0
  4  9  1  0  0  0  0
  5 10  1  6  0  0  0
  5  4  1  0  0  0  0
  5 29  1  0  0  0  0
 11 14  1  1  0  0  0
 12 15  1  6  0  0  0
 12  2  1  0  0  0  0
 12 11  1  0  0  0  0
 13 12  1  0  0  0  0
 13 17  1  0  0  0  0
 13 11  1  0  0  0  0
 16 13  1  0  0  0  0
 18 11  1  0  0  0  0
 18 19  1  0  0  0  0
 19 24  1  0  0  0  0
 20 19  2  0  0  0  0
 20 25  1  0  0  0  0
 21 20  1  0  0  0  0
 22 23  1  0  0  0  0
 22 21  2  0  0  0  0
 23 18  2  0  0  0  0
 26 22  1  0  0  0  0
 27 28  1  0  0  0  0
 27  1  1  0  0  0  0
 30 31  1  0  0  0  0
 31 32  1  0  0  0  0
 32 33  1  0  0  0  0
 34 33  1  0  0  0  0
 35 29  1  1  0  0  0
 35 31  1  0  0  0  0
 35 34  1  0  0  0  0
M  END
>  <minimizedAffinity>
-4.91430473

$$$$

 OpenBabel03272508293D

 35 38  0  0  1  0  0  0  0  0999 V2000
   37.7030   26.6200   32.9550 C   0  0  2  0  0  0  0  0  0  0  0  0
   39.0350   27.2100   33.3910 C   0  0  2  0  0  0  0  0  0  0  0  0
   39.9080   26.9320   32.3770 O   0  0  0  0  0  0  0  0  0  0  0  0
   39.2440   26.7430   31.2060 C   0  0  0  0  0  0  0  0  0  0  0  0
   37.7640   26.9570   31.4610 C   0  0  1  0  0  0  0  0  0  0  0  0
   37.6630   25.5250   33.0210 H   0  0  0  0  0  0  0  0  0  0  0  0
   38.8620   28.3060   33.5020 H   0  0  0  0  0  0  0  0  0  0  0  0
   39.5810   27.4150   30.3870 H   0  0  0  0  0  0  0  0  0  0  0  0
   39.4470   25.6990   30.8570 H   0  0  0  0  0  0  0  0  0  0  0  0
   37.5940   28.0390   31.3270 H   0  0  0  0  0  0  0  0  0  0  0  0
   39.5350   25.1000   34.8050 C   0  0  1  0  0  0  0  0  0  0  0  0
   39.4230   26.5320   34.6660 C   0  0  1  0  0  0  0  0  0  0  0  0
   40.7950   25.9770   34.8720 C   0  0  0  0  0  0  0  0  0  0  0  0
   39.6250   24.3430   34.0020 H   0  0  0  0  0  0  0  0  0  0  0  0
   39.0190   27.0780   35.5680 H   0  0  0  0  0  0  0  0  0  0  0  0
   41.3100   26.0850   35.8380 H   0  0  0  0  0  0  0  0  0  0  0  0
   41.4280   26.0230   33.9660 H   0  0  0  0  0  0  0  0  0  0  0  0
   39.2550   24.4080   36.1270 C   0  0  0  0  0  0  0  0  0  0  0  0
   38.1850   24.8820   36.8840 C   0  0  0  0  0  0  0  0  0  0  0  0
   37.9990   24.2260   38.0970 C   0  0  0  0  0  0  0  0  0  0  0  0
   38.8160   23.2020   38.4890 N   0  0  0  0  0  0  0  0  0  0  0  0
   39.8480   22.7780   37.7100 C   0  0  0  0  0  0  0  0  0  0  0  0
   40.0630   23.3890   36.5210 N   0  0  0  0  0  0  0  0  0  0  0  0
   37.5660   25.6820   36.5540 H   0  0  0  0  0  0  0  0  0  0  0  0
   37.1840   24.5620   38.7110 H   0  0  0  0  0  0  0  0  0  0  0  0
   40.4620   21.9640   38.0670 H   0  0  0  0  0  0  0  0  0  0  0  0
   36.6080   27.2050   33.5580 O   0  0  0  0  0  0  0  0  0  0  0  0
   35.8690   26.5380   33.6360 H   0  0  0  0  0  0  0  0  0  0  0  0
   36.9340   26.1540   30.7270 O   0  0  0  0  0  0  0  0  0  0  0  0
   35.0920   24.5280   32.3090 H   0  0  0  0  0  0  0  0  0  0  0  0
   35.4860   24.4040   31.3310 N   0  0  0  0  0  0  0  0  0  0  0  0
   35.5110   22.9630   31.1330 C   0  0  0  0  0  2  0  0  0  0  0  0
   36.9970   22.5860   31.2000 C   0  0  0  0  0  2  0  0  0  0  0  0
   37.5660   23.8340   30.5090 C   0  0  0  0  0  2  0  0  0  0  0  0
   36.8270   24.8930   31.2910 C   0  0  1  0  0  3  0  0  0  0  0  0
  1  6  1  1  0  0  0
  1  2  1  0  0  0  0
  1 27  1  0  0  0  0
  2  7  1  1  0  0  0
  2 12  1  0  0  0  0
  3  2  1  0  0  0  0
  4  5  1  0  0  0  0
  4  3  1  0  0  0  0
  5 10  1  6  0  0  0
  5  1  1  0  0  0  0
  8  4  1  0  0  0  0
  9  4  1  0  0  0  0
 11 14  1  6  0  0  0
 11 13  1  0  0  0  0
 11 18  1  0  0  0  0
 12 11  1  0  0  0  0
 12 13  1  0  0  0  0
 12 15  1  1  0  0  0
 13 16  1  0  0  0  0
 17 13  1  0  0  0  0
 18 23  2  0  0  0  0
 18 19  1  0  0  0  0
 19 20  2  0  0  0  0
 20 21  1  0  0  0  0
 20 25  1  0  0  0  0
 22 26  1  0  0  0  0
 22 21  2  0  0  0  0
 23 22  1  0  0  0  0
 24 19  1  0  0  0  0
 27 28  1  0  0  0  0
 29  5  1  0  0  0  0
 31 30  1  0  0  0  0
 32 33  1  0  0  0  0
 32 31  1  0  0  0  0
 34 33  1  0  0  0  0
 34 35  1  0  0  0  0
 35 29  1  6  0  0  0
 35 31  1  0  0  0  0
M  END
>  <minimizedAffinity>
-4.83583021

$$$$

 OpenBabel03272508293D

 35 38  0  0  1  0  0  0  0  0999 V2000
   36.1010   25.1090   31.4310 C   0  0  2  0  0  0  0  0  0  0  0  0
   37.5210   25.6490   31.3500 C   0  0  2  0  0  0  0  0  0  0  0  0
   38.2920   24.7540   32.0360 O   0  0  0  0  0  0  0  0  0  0  0  0
   37.6980   23.5320   32.0740 C   0  0  0  0  0  0  0  0  0  0  0  0
   36.4010   23.6120   31.2920 C   0  0  1  0  0  0  0  0  0  0  0  0
   35.6360   25.2380   32.4180 H   0  0  0  0  0  0  0  0  0  0  0  0
   37.7770   25.6720   30.2650 H   0  0  0  0  0  0  0  0  0  0  0  0
   38.3290   22.7140   31.6650 H   0  0  0  0  0  0  0  0  0  0  0  0
   37.5070   23.2730   33.1470 H   0  0  0  0  0  0  0  0  0  0  0  0
   36.6730   23.3940   30.2450 H   0  0  0  0  0  0  0  0  0  0  0  0
   36.6520   27.3540   33.0930 C   0  0  1  0  0  0  0  0  0  0  0  0
   37.5180   26.9970   31.9950 C   0  0  1  0  0  0  0  0  0  0  0  0
   38.1670   27.2330   33.3200 C   0  0  0  0  0  0  0  0  0  0  0  0
   36.0970   26.6770   33.7700 H   0  0  0  0  0  0  0  0  0  0  0  0
   37.7170   27.8180   31.2460 H   0  0  0  0  0  0  0  0  0  0  0  0
   38.7450   28.1490   33.5120 H   0  0  0  0  0  0  0  0  0  0  0  0
   38.5340   26.3070   33.8010 H   0  0  0  0  0  0  0  0  0  0  0  0
   36.1630   28.7790   33.2860 C   0  0  0  0  0  0  0  0  0  0  0  0
   36.0340   29.5710   32.1460 C   0  0  0  0  0  0  0  0  0  0  0  0
   35.6100   30.8730   32.3910 C   0  0  0  0  0  0  0  0  0  0  0  0
   35.3470   31.3120   33.6590 N   0  0  0  0  0  0  0  0  0  0  0  0
   35.4890   30.4960   34.7380 C   0  0  0  0  0  0  0  0  0  0  0  0
   35.9000   29.2200   34.5430 N   0  0  0  0  0  0  0  0  0  0  0  0
   36.2460   29.2020   31.1700 H   0  0  0  0  0  0  0  0  0  0  0  0
   35.4980   31.5170   31.5380 H   0  0  0  0  0  0  0  0  0  0  0  0
   35.2680   30.8940   35.7180 H   0  0  0  0  0  0  0  0  0  0  0  0
   35.2750   25.5530   30.4190 O   0  0  0  0  0  0  0  0  0  0  0  0
   34.3320   25.5910   30.7450 H   0  0  0  0  0  0  0  0  0  0  0  0
   35.3830   22.8440   31.7880 O   0  0  0  0  0  0  0  0  0  0  0  0
   35.1540   20.7110   33.7730 H   0  0  0  0  0  0  0  0  0  0  0  0
   34.8550   20.7690   32.7560 N   0  0  0  0  0  0  0  0  0  0  0  0
   34.9170   19.3940   32.2850 C   0  0  0  0  0  2  0  0  0  0  0  0
   36.1440   19.3510   31.3650 C   0  0  0  0  0  2  0  0  0  0  0  0
   36.0010   20.7520   30.7520 C   0  0  0  0  0  2  0  0  0  0  0  0
   35.8030   21.5450   32.0220 C   0  0  1  0  0  3  0  0  0  0  0  0
  1  6  1  1  0  0  0
  2  7  1  6  0  0  0
  2  1  1  0  0  0  0
  2 12  1  0  0  0  0
  2  3  1  0  0  0  0
  3  4  1  0  0  0  0
  4  9  1  0  0  0  0
  5 10  1  6  0  0  0
  5  1  1  0  0  0  0
  5 29  1  0  0  0  0
  5  4  1  0  0  0  0
  8  4  1  0  0  0  0
 11 18  1  0  0  0  0
 11 13  1  0  0  0  0
 11 14  1  1  0  0  0
 12 15  1  6  0  0  0
 12 11  1  0  0  0  0
 12 13  1  0  0  0  0
 13 16  1  0  0  0  0
 13 17  1  0  0  0  0
 18 23  1  0  0  0  0
 19 20  1  0  0  0  0
 19 18  2  0  0  0  0
 20 21  2  0  0  0  0
 21 22  1  0  0  0  0
 22 26  1  0  0  0  0
 23 22  2  0  0  0  0
 24 19  1  0  0  0  0
 25 20  1  0  0  0  0
 27 28  1  0  0  0  0
 27  1  1  0  0  0  0
 31 30  1  0  0  0  0
 32 31  1  0  0  0  0
 33 32  1  0  0  0  0
 34 33  1  0  0  0  0
 34 35  1  0  0  0  0
 35 29  1  6  0  0  0
 35 31  1  0  0  0  0
M  END
>  <minimizedAffinity>
-4.82957125

$$$$

 OpenBabel03272508293D

 35 38  0  0  1  0  0  0  0  0999 V2000
   36.1540   26.9050   31.1900 C   0  0  2  0  0  0  0  0  0  0  0  0
   36.6990   27.7220   32.3520 C   0  0  2  0  0  0  0  0  0  0  0  0
   36.9800   26.8170   33.3360 O   0  0  0  0  0  0  0  0  0  0  0  0
   37.1880   25.5800   32.8110 C   0  0  0  0  0  0  0  0  0  0  0  0
   37.0700   25.6810   31.3020 C   0  0  1  0  0  0  0  0  0  0  0  0
   35.1320   26.5380   31.3510 H   0  0  0  0  0  0  0  0  0  0  0  0
   37.6210   28.2200   31.9690 H   0  0  0  0  0  0  0  0  0  0  0  0
   38.1730   25.1400   33.0780 H   0  0  0  0  0  0  0  0  0  0  0  0
   36.4130   24.8900   33.2310 H   0  0  0  0  0  0  0  0  0  0  0  0
   38.0780   25.9510   30.9430 H   0  0  0  0  0  0  0  0  0  0  0  0
   35.7820   29.6410   33.8260 C   0  0  1  0  0  0  0  0  0  0  0  0
   35.6270   28.6800   32.7600 C   0  0  1  0  0  0  0  0  0  0  0  0
   35.6760   30.1220   32.3710 C   0  0  0  0  0  0  0  0  0  0  0  0
   36.7210   29.9970   34.2910 H   0  0  0  0  0  0  0  0  0  0  0  0
   34.6000   28.2230   32.6630 H   0  0  0  0  0  0  0  0  0  0  0  0
   34.7660   30.6540   32.0580 H   0  0  0  0  0  0  0  0  0  0  0  0
   36.6160   30.4090   31.8630 H   0  0  0  0  0  0  0  0  0  0  0  0
   34.5980   30.0960   34.6610 C   0  0  0  0  0  0  0  0  0  0  0  0
   33.3920   29.4210   34.4820 C   0  0  0  0  0  0  0  0  0  0  0  0
   32.3390   29.9020   35.2540 C   0  0  0  0  0  0  0  0  0  0  0  0
   32.5030   30.9560   36.1100 N   0  0  0  0  0  0  0  0  0  0  0  0
   33.7040   31.5800   36.2460 C   0  0  0  0  0  0  0  0  0  0  0  0
   34.7560   31.1420   35.5130 N   0  0  0  0  0  0  0  0  0  0  0  0
   33.2920   28.6030   33.8080 H   0  0  0  0  0  0  0  0  0  0  0  0
   31.3910   29.4080   35.1450 H   0  0  0  0  0  0  0  0  0  0  0  0
   33.7800   32.4070   36.9370 H   0  0  0  0  0  0  0  0  0  0  0  0
   36.2860   27.5220   29.9620 O   0  0  0  0  0  0  0  0  0  0  0  0
   35.5470   27.2290   29.3570 H   0  0  0  0  0  0  0  0  0  0  0  0
   36.5240   24.5830   30.6940 O   0  0  0  0  0  0  0  0  0  0  0  0
   34.9890   23.0140   32.6230 H   0  0  0  0  0  0  0  0  0  0  0  0
   35.3980   22.7680   31.6750 N   0  0  0  0  0  0  0  0  0  0  0  0
   35.6710   21.3420   31.7600 C   0  0  0  0  0  2  0  0  0  0  0  0
   37.2000   21.2410   31.8490 C   0  0  0  0  0  2  0  0  0  0  0  0
   37.5460   22.4060   30.9100 C   0  0  0  0  0  2  0  0  0  0  0  0
   36.6350   23.4590   31.4960 C   0  0  1  0  0  3  0  0  0  0  0  0
  1  5  1  0  0  0  0
  1  6  1  1  0  0  0
  1  2  1  0  0  0  0
  2  7  1  6  0  0  0
  2 12  1  0  0  0  0
  2  3  1  0  0  0  0
  4  8  1  0  0  0  0
  4  9  1  0  0  0  0
  4  3  1  0  0  0  0
  5 10  1  6  0  0  0
  5  4  1  0  0  0  0
 11 14  1  1  0  0  0
 11 18  1  0  0  0  0
 12 15  1  6  0  0  0
 12 11  1  0  0  0  0
 13 12  1  0  0  0  0
 13 11  1  0  0  0  0
 16 13  1  0  0  0  0
 17 13  1  0  0  0  0
 18 23  1  0  0  0  0
 19 18  2  0  0  0  0
 19 20  1  0  0  0  0
 20 21  2  0  0  0  0
 21 22  1  0  0  0  0
 22 26  1  0  0  0  0
 23 22  2  0  0  0  0
 24 19  1  0  0  0  0
 25 20  1  0  0  0  0
 27  1  1  0  0  0  0
 28 27  1  0  0  0  0
 29  5  1  0  0  0  0
 31 32  1  0  0  0  0
 31 30  1  0  0  0  0
 32 33  1  0  0  0  0
 34 35  1  0  0  0  0
 34 33  1  0  0  0  0
 35 29  1  6  0  0  0
 35 31  1  0  0  0  0
M  END
>  <minimizedAffinity>
-4.76629114

$$$$

 OpenBabel03272508293D

 35 38  0  0  1  0  0  0  0  0999 V2000
   39.2840   24.8670   35.0450 C   0  0  2  0  0  0  0  0  0  0  0  0
   38.9760   26.1840   35.7420 C   0  0  2  0  0  0  0  0  0  0  0  0
   38.0020   25.8950   36.6560 O   0  0  0  0  0  0  0  0  0  0  0  0
   38.0300   24.5790   36.9930 C   0  0  0  0  0  0  0  0  0  0  0  0
   39.1770   23.9240   36.2480 C   0  0  1  0  0  0  0  0  0  0  0  0
   38.5060   24.5510   34.3380 H   0  0  0  0  0  0  0  0  0  0  0  0
   39.9270   26.4990   36.2330 H   0  0  0  0  0  0  0  0  0  0  0  0
   38.1430   24.3980   38.0840 H   0  0  0  0  0  0  0  0  0  0  0  0
   37.0480   24.1260   36.7010 H   0  0  0  0  0  0  0  0  0  0  0  0
   40.0630   24.0580   36.8920 H   0  0  0  0  0  0  0  0  0  0  0  0
   37.5120   26.7980   33.6980 C   0  0  1  0  0  0  0  0  0  0  0  0
   38.4990   27.1380   34.6950 C   0  0  1  0  0  0  0  0  0  0  0  0
   37.1700   27.8130   34.7990 C   0  0  0  0  0  0  0  0  0  0  0  0
   36.7980   25.9520   33.7070 H   0  0  0  0  0  0  0  0  0  0  0  0
   39.3250   27.8230   34.3470 H   0  0  0  0  0  0  0  0  0  0  0  0
   37.0490   28.8700   34.5200 H   0  0  0  0  0  0  0  0  0  0  0  0
   36.5580   27.4530   35.6470 H   0  0  0  0  0  0  0  0  0  0  0  0
   37.5240   27.4370   32.3210 C   0  0  0  0  0  0  0  0  0  0  0  0
   38.7400   27.4680   31.6400 C   0  0  0  0  0  0  0  0  0  0  0  0
   38.6920   28.0920   30.3980 C   0  0  0  0  0  0  0  0  0  0  0  0
   37.5310   28.6240   29.9090 N   0  0  0  0  0  0  0  0  0  0  0  0
   36.3700   28.5660   30.6160 C   0  0  0  0  0  0  0  0  0  0  0  0
   36.3730   27.9660   31.8300 N   0  0  0  0  0  0  0  0  0  0  0  0
   39.6300   27.0460   32.0460 H   0  0  0  0  0  0  0  0  0  0  0  0
   39.6100   28.1380   29.8410 H   0  0  0  0  0  0  0  0  0  0  0  0
   35.4810   29.0010   30.1830 H   0  0  0  0  0  0  0  0  0  0  0  0
   40.5400   24.8170   34.4750 O   0  0  0  0  0  0  0  0  0  0  0  0
   40.5250   24.2130   33.6800 H   0  0  0  0  0  0  0  0  0  0  0  0
   38.9460   22.6320   35.8590 O   0  0  0  0  0  0  0  0  0  0  0  0
   41.0440   21.0730   34.5530 H   0  0  0  0  0  0  0  0  0  0  0  0
   41.0840   21.9070   35.2080 N   0  0  0  0  0  0  0  0  0  0  0  0
   42.3510   21.7530   35.9080 C   0  0  0  0  0  2  0  0  0  0  0  0
   41.9630   21.3310   37.3310 C   0  0  0  0  0  2  0  0  0  0  0  0
   40.6910   22.1810   37.4670 C   0  0  0  0  0  2  0  0  0  0  0  0
   40.0240   21.8170   36.1610 C   0  0  1  0  0  3  0  0  0  0  0  0
  1  6  1  6  0  0  0
  1  2  1  0  0  0  0
  1  5  1  0  0  0  0
  2  7  1  1  0  0  0
  2  3  1  0  0  0  0
  3  4  1  0  0  0  0
  4  8  1  0  0  0  0
  5 10  1  1  0  0  0
  5  4  1  0  0  0  0
  9  4  1  0  0  0  0
 11 14  1  1  0  0  0
 11 12  1  0  0  0  0
 11 13  1  0  0  0  0
 12 15  1  6  0  0  0
 12 13  1  0  0  0  0
 12  2  1  0  0  0  0
 13 17  1  0  0  0  0
 16 13  1  0  0  0  0
 18 11  1  0  0  0  0
 19 24  1  0  0  0  0
 19 18  2  0  0  0  0
 20 19  1  0  0  0  0
 21 20  2  0  0  0  0
 21 22  1  0  0  0  0
 22 23  2  0  0  0  0
 23 18  1  0  0  0  0
 25 20  1  0  0  0  0
 26 22  1  0  0  0  0
 27  1  1  0  0  0  0
 28 27  1  0  0  0  0
 29  5  1  0  0  0  0
 30 31  1  0  0  0  0
 31 32  1  0  0  0  0
 31 35  1  0  0  0  0
 32 33  1  0  0  0  0
 33 34  1  0  0  0  0
 35 29  1  6  0  0  0
 35 34  1  0  0  0  0
M  END
>  <minimizedAffinity>
-4.70735264

$$$$
