
 OpenBabel03272508263D

 35 38  0  0  1  0  0  0  0  0999 V2000
   33.8820   28.9470   47.2740 C   0  0  2  0  0  0  0  0  0  0  0  0
   34.6080   28.1700   48.3610 C   0  0  2  0  0  0  0  0  0  0  0  0
   33.6960   28.0080   49.3660 O   0  0  0  0  0  0  0  0  0  0  0  0
   32.4270   28.0890   48.8860 C   0  0  0  0  0  0  0  0  0  0  0  0
   32.5010   28.2900   47.3840 C   0  0  1  0  0  0  0  0  0  0  0  0
   33.7360   30.0080   47.5130 H   0  0  0  0  0  0  0  0  0  0  0  0
   34.8950   27.1960   47.9000 H   0  0  0  0  0  0  0  0  0  0  0  0
   31.8050   27.1970   49.1110 H   0  0  0  0  0  0  0  0  0  0  0  0
   31.9230   28.9560   49.3840 H   0  0  0  0  0  0  0  0  0  0  0  0
   32.5490   27.2750   46.9520 H   0  0  0  0  0  0  0  0  0  0  0  0
   35.6970   30.4160   49.0470 C   0  0  1  0  0  0  0  0  0  0  0  0
   35.7760   28.9970   48.7920 C   0  0  1  0  0  0  0  0  0  0  0  0
   35.9420   29.4400   50.2090 C   0  0  0  0  0  0  0  0  0  0  0  0
   34.7910   31.0250   49.2290 H   0  0  0  0  0  0  0  0  0  0  0  0
   36.7360   28.6410   48.3170 H   0  0  0  0  0  0  0  0  0  0  0  0
   36.9300   29.4350   50.6910 H   0  0  0  0  0  0  0  0  0  0  0  0
   35.0770   29.1920   50.8520 H   0  0  0  0  0  0  0  0  0  0  0  0
   36.8870   31.3300   48.8140 C   0  0  0  0  0  0  0  0  0  0  0  0
   37.0770   32.3740   49.7180 C   0  0  0  0  0  0  0  0  0  0  0  0
   38.1660   33.1930   49.4340 C   0  0  0  0  0  0  0  0  0  0  0  0
   38.9670   32.9670   48.3490 N   0  0  0  0  0  0  0  0  0  0  0  0
   38.7360   31.9310   47.4980 C   0  0  0  0  0  0  0  0  0  0  0  0
   37.6860   31.1100   47.7390 N   0  0  0  0  0  0  0  0  0  0  0  0
   36.4370   32.5270   50.5540 H   0  0  0  0  0  0  0  0  0  0  0  0
   38.3470   34.0110   50.1070 H   0  0  0  0  0  0  0  0  0  0  0  0
   39.3990   31.7970   46.6560 H   0  0  0  0  0  0  0  0  0  0  0  0
   34.4200   28.7800   46.0140 O   0  0  0  0  0  0  0  0  0  0  0  0
   34.2640   29.6030   45.4690 H   0  0  0  0  0  0  0  0  0  0  0  0
   31.5190   29.0860   46.8610 O   0  0  0  0  0  0  0  0  0  0  0  0
   30.2050   26.5040   46.4830 H   0  0  0  0  0  0  0  0  0  0  0  0
   29.8230   27.4930   46.5330 N   0  0  0  0  0  0  0  0  0  0  0  0
   28.6200   27.4570   45.7150 C   0  0  0  0  0  2  0  0  0  0  0  0
   28.9890   28.2360   44.4460 C   0  0  0  0  0  2  0  0  0  0  0  0
   29.8810   29.3020   45.1000 C   0  0  0  0  0  2  0  0  0  0  0  0
   30.7540   28.3960   45.9350 C   0  0  1  0  0  3  0  0  0  0  0  0
  1  5  1  0  0  0  0
  1  6  1  1  0  0  0
  1  2  1  0  0  0  0
  2  7  1  6  0  0  0
  2 12  1  0  0  0  0
  2  3  1  0  0  0  0
  4  8  1  0  0  0  0
  4  3  1  0  0  0  0
  4  9  1  0  0  0  0
  5 10  1  6  0  0  0
  5  4  1  0  0  0  0
 11 14  1  6  0  0  0
 11 13  1  0  0  0  0
 12 15  1  6  0  0  0
 12 11  1  0  0  0  0
 12 13  1  0  0  0  0
 13 16  1  0  0  0  0
 13 17  1  0  0  0  0
 18 11  1  0  0  0  0
 18 19  1  0  0  0  0
 19 24  1  0  0  0  0
 20 19  2  0  0  0  0
 20 25  1  0  0  0  0
 21 20  1  0  0  0  0
 22 23  1  0  0  0  0
 22 21  2  0  0  0  0
 23 18  2  0  0  0  0
 26 22  1  0  0  0  0
 27  1  1  0  0  0  0
 28 27  1  0  0  0  0
 29  5  1  0  0  0  0
 30 31  1  0  0  0  0
 32 31  1  0  0  0  0
 33 34  1  0  0  0  0
 33 32  1  0  0  0  0
 34 35  1  0  0  0  0
 35 31  1  0  0  0  0
 35 29  1  1  0  0  0
M  END
>  <minimizedAffinity>
-4.79389524

>  <minimizedRMSD>
0.234027982

$$$$
