
 OpenBabel03272508273D

 35 38  0  0  1  0  0  0  0  0999 V2000
   33.9950   29.0030   47.3480 C   0  0  2  0  0  0  0  0  0  0  0  0
   34.7460   28.2420   48.4300 C   0  0  2  0  0  0  0  0  0  0  0  0
   33.8460   28.0600   49.4420 O   0  0  0  0  0  0  0  0  0  0  0  0
   32.5720   28.1130   48.9700 C   0  0  0  0  0  0  0  0  0  0  0  0
   32.6310   28.3150   47.4680 C   0  0  1  0  0  0  0  0  0  0  0  0
   33.8270   30.0610   47.5890 H   0  0  0  0  0  0  0  0  0  0  0  0
   35.0520   27.2750   47.9670 H   0  0  0  0  0  0  0  0  0  0  0  0
   31.9710   27.2060   49.2000 H   0  0  0  0  0  0  0  0  0  0  0  0
   32.0520   28.9680   49.4720 H   0  0  0  0  0  0  0  0  0  0  0  0
   32.6980   27.3020   47.0350 H   0  0  0  0  0  0  0  0  0  0  0  0
   35.8040   30.5230   49.0480 C   0  0  1  0  0  0  0  0  0  0  0  0
   35.8990   29.0950   48.8520 C   0  0  1  0  0  0  0  0  0  0  0  0
   36.0290   29.5970   50.2540 C   0  0  0  0  0  0  0  0  0  0  0  0
   34.8900   31.1320   49.1850 H   0  0  0  0  0  0  0  0  0  0  0  0
   36.8720   28.7290   48.4140 H   0  0  0  0  0  0  0  0  0  0  0  0
   37.0070   29.6190   50.7580 H   0  0  0  0  0  0  0  0  0  0  0  0
   35.1520   29.3680   50.8870 H   0  0  0  0  0  0  0  0  0  0  0  0
   36.9920   31.4360   48.8050 C   0  0  0  0  0  0  0  0  0  0  0  0
   37.1780   32.4950   49.6920 C   0  0  0  0  0  0  0  0  0  0  0  0
   38.2660   33.3110   49.4000 C   0  0  0  0  0  0  0  0  0  0  0  0
   39.0700   33.0710   48.3200 N   0  0  0  0  0  0  0  0  0  0  0  0
   38.8440   32.0220   47.4840 C   0  0  0  0  0  0  0  0  0  0  0  0
   37.7950   31.2020   47.7340 N   0  0  0  0  0  0  0  0  0  0  0  0
   36.5350   32.6580   50.5250 H   0  0  0  0  0  0  0  0  0  0  0  0
   38.4430   34.1400   50.0600 H   0  0  0  0  0  0  0  0  0  0  0  0
   39.5100   31.8770   46.6460 H   0  0  0  0  0  0  0  0  0  0  0  0
   34.5280   28.8490   46.0840 O   0  0  0  0  0  0  0  0  0  0  0  0
   34.3500   29.6670   45.5410 H   0  0  0  0  0  0  0  0  0  0  0  0
   31.6270   29.0890   46.9530 O   0  0  0  0  0  0  0  0  0  0  0  0
   29.8980   26.7360   47.0260 H   0  0  0  0  0  0  0  0  0  0  0  0
   29.6930   27.7590   46.8400 N   0  0  0  0  0  0  0  0  0  0  0  0
   28.5340   27.7410   45.9590 C   0  0  0  0  0  2  0  0  0  0  0  0
   29.0830   28.1530   44.5860 C   0  0  0  0  0  2  0  0  0  0  0  0
   30.1200   29.1760   45.0670 C   0  0  0  0  0  2  0  0  0  0  0  0
   30.7890   28.3460   46.1380 C   0  0  1  0  0  3  0  0  0  0  0  0
  1  5  1  0  0  0  0
  1  6  1  1  0  0  0
  1  2  1  0  0  0  0
  2  7  1  6  0  0  0
  2 12  1  0  0  0  0
  2  3  1  0  0  0  0
  4  8  1  0  0  0  0
  4  3  1  0  0  0  0
  4  9  1  0  0  0  0
  5 10  1  6  0  0  0
  5  4  1  0  0  0  0
 11 14  1  6  0  0  0
 11 13  1  0  0  0  0
 12 15  1  6  0  0  0
 12 11  1  0  0  0  0
 12 13  1  0  0  0  0
 13 16  1  0  0  0  0
 13 17  1  0  0  0  0
 18 11  1  0  0  0  0
 18 19  1  0  0  0  0
 19 24  1  0  0  0  0
 20 19  2  0  0  0  0
 20 25  1  0  0  0  0
 21 20  1  0  0  0  0
 22 23  1  0  0  0  0
 22 21  2  0  0  0  0
 23 18  2  0  0  0  0
 26 22  1  0  0  0  0
 27  1  1  0  0  0  0
 28 27  1  0  0  0  0
 29  5  1  0  0  0  0
 31 30  1  0  0  0  0
 32 31  1  0  0  0  0
 33 34  1  0  0  0  0
 33 32  1  0  0  0  0
 34 35  1  0  0  0  0
 35 31  1  0  0  0  0
 35 29  1  1  0  0  0
M  END
>  <minimizedAffinity>
-4.8171258

>  <minimizedRMSD>
0.160641313

$$$$
