
 OpenBabel03272508273D

 35 38  0  0  1  0  0  0  0  0999 V2000
   33.8870   28.9270   47.2680 C   0  0  2  0  0  0  0  0  0  0  0  0
   34.5970   28.1650   48.3780 C   0  0  2  0  0  0  0  0  0  0  0  0
   33.6730   28.0270   49.3750 O   0  0  0  0  0  0  0  0  0  0  0  0
   32.4100   28.1070   48.8790 C   0  0  0  0  0  0  0  0  0  0  0  0
   32.5020   28.2790   47.3750 C   0  0  1  0  0  0  0  0  0  0  0  0
   33.7450   29.9930   47.4870 H   0  0  0  0  0  0  0  0  0  0  0  0
   34.8840   27.1810   47.9370 H   0  0  0  0  0  0  0  0  0  0  0  0
   31.7800   27.2220   49.1140 H   0  0  0  0  0  0  0  0  0  0  0  0
   31.9060   28.9850   49.3560 H   0  0  0  0  0  0  0  0  0  0  0  0
   32.5480   27.2570   46.9620 H   0  0  0  0  0  0  0  0  0  0  0  0
   35.6870   30.4120   49.0580 C   0  0  1  0  0  0  0  0  0  0  0  0
   35.7650   28.9930   48.8060 C   0  0  1  0  0  0  0  0  0  0  0  0
   35.9320   29.4390   50.2220 C   0  0  0  0  0  0  0  0  0  0  0  0
   34.7810   31.0220   49.2400 H   0  0  0  0  0  0  0  0  0  0  0  0
   36.7250   28.6370   48.3310 H   0  0  0  0  0  0  0  0  0  0  0  0
   36.9210   29.4350   50.7040 H   0  0  0  0  0  0  0  0  0  0  0  0
   35.0670   29.1920   50.8660 H   0  0  0  0  0  0  0  0  0  0  0  0
   36.8760   31.3260   48.8230 C   0  0  0  0  0  0  0  0  0  0  0  0
   37.0700   32.3700   49.7270 C   0  0  0  0  0  0  0  0  0  0  0  0
   38.1580   33.1880   49.4420 C   0  0  0  0  0  0  0  0  0  0  0  0
   38.9560   32.9620   48.3540 N   0  0  0  0  0  0  0  0  0  0  0  0
   38.7220   31.9280   47.5030 C   0  0  0  0  0  0  0  0  0  0  0  0
   37.6720   31.1060   47.7450 N   0  0  0  0  0  0  0  0  0  0  0  0
   36.4320   32.5210   50.5660 H   0  0  0  0  0  0  0  0  0  0  0  0
   38.3420   34.0050   50.1150 H   0  0  0  0  0  0  0  0  0  0  0  0
   39.3830   31.7940   46.6590 H   0  0  0  0  0  0  0  0  0  0  0  0
   34.4380   28.7340   46.0170 O   0  0  0  0  0  0  0  0  0  0  0  0
   34.2930   29.5480   45.4560 H   0  0  0  0  0  0  0  0  0  0  0  0
   31.5300   29.0720   46.8280 O   0  0  0  0  0  0  0  0  0  0  0  0
   31.9720   27.7490   44.2590 H   0  0  0  0  0  0  0  0  0  0  0  0
   31.6140   27.3880   45.1910 N   0  0  0  0  0  0  0  0  0  0  0  0
   30.7330   26.2850   44.8350 C   0  0  0  0  0  2  0  0  0  0  0  0
   29.3190   26.8150   45.1050 C   0  0  0  0  0  2  0  0  0  0  0  0
   29.6360   27.6510   46.3530 C   0  0  0  0  0  2  0  0  0  0  0  0
   30.8380   28.4020   45.8320 C   0  0  1  0  0  3  0  0  0  0  0  0
  1  5  1  0  0  0  0
  1  6  1  1  0  0  0
  1  2  1  0  0  0  0
  2  7  1  6  0  0  0
  2 12  1  0  0  0  0
  2  3  1  0  0  0  0
  4  8  1  0  0  0  0
  4  9  1  0  0  0  0
  4  3  1  0  0  0  0
  5 10  1  6  0  0  0
  5  4  1  0  0  0  0
 11 14  1  6  0  0  0
 11 13  1  0  0  0  0
 12 15  1  6  0  0  0
 12 11  1  0  0  0  0
 12 13  1  0  0  0  0
 13 16  1  0  0  0  0
 13 17  1  0  0  0  0
 18 11  1  0  0  0  0
 18 19  1  0  0  0  0
 19 24  1  0  0  0  0
 20 19  2  0  0  0  0
 20 25  1  0  0  0  0
 21 20  1  0  0  0  0
 22 23  1  0  0  0  0
 22 21  2  0  0  0  0
 23 18  2  0  0  0  0
 26 22  1  0  0  0  0
 27  1  1  0  0  0  0
 28 27  1  0  0  0  0
 29  5  1  0  0  0  0
 30 31  1  0  0  0  0
 31 35  1  0  0  0  0
 32 33  1  0  0  0  0
 32 31  1  0  0  0  0
 33 34  1  0  0  0  0
 35 34  1  0  0  0  0
 35 29  1  1  0  0  0
M  END
>  <minimizedAffinity>
-4.74179459

>  <minimizedRMSD>
0.340215862

$$$$
