
 OpenBabel03272508273D

 35 38  0  0  1  0  0  0  0  0999 V2000
   33.8150   28.8300   47.2820 C   0  0  2  0  0  0  0  0  0  0  0  0
   34.5090   28.1140   48.4310 C   0  0  2  0  0  0  0  0  0  0  0  0
   33.5830   28.0480   49.4340 O   0  0  0  0  0  0  0  0  0  0  0  0
   32.3220   28.1280   48.9340 C   0  0  0  0  0  0  0  0  0  0  0  0
   32.4160   28.2180   47.4230 C   0  0  1  0  0  0  0  0  0  0  0  0
   33.6950   29.9090   47.4440 H   0  0  0  0  0  0  0  0  0  0  0  0
   34.7740   27.1020   48.0430 H   0  0  0  0  0  0  0  0  0  0  0  0
   31.6730   27.2700   49.2160 H   0  0  0  0  0  0  0  0  0  0  0  0
   31.8360   29.0410   49.3640 H   0  0  0  0  0  0  0  0  0  0  0  0
   32.4410   27.1750   47.0650 H   0  0  0  0  0  0  0  0  0  0  0  0
   35.6240   30.3520   49.0980 C   0  0  1  0  0  0  0  0  0  0  0  0
   35.6950   28.9390   48.8140 C   0  0  1  0  0  0  0  0  0  0  0  0
   35.9320   29.3580   50.2290 C   0  0  0  0  0  0  0  0  0  0  0  0
   34.7270   30.9550   49.3370 H   0  0  0  0  0  0  0  0  0  0  0  0
   36.6300   28.5950   48.2850 H   0  0  0  0  0  0  0  0  0  0  0  0
   36.9440   29.3490   50.6600 H   0  0  0  0  0  0  0  0  0  0  0  0
   35.1020   29.0950   50.9110 H   0  0  0  0  0  0  0  0  0  0  0  0
   36.7970   31.2760   48.8200 C   0  0  0  0  0  0  0  0  0  0  0  0
   37.0450   32.2910   49.7420 C   0  0  0  0  0  0  0  0  0  0  0  0
   38.1130   33.1200   49.4170 C   0  0  0  0  0  0  0  0  0  0  0  0
   38.8440   32.9300   48.2770 N   0  0  0  0  0  0  0  0  0  0  0  0
   38.5590   31.9220   47.4090 C   0  0  0  0  0  0  0  0  0  0  0  0
   37.5260   31.0920   47.6890 N   0  0  0  0  0  0  0  0  0  0  0  0
   36.4580   32.4150   50.6220 H   0  0  0  0  0  0  0  0  0  0  0  0
   38.3370   33.9160   50.1030 H   0  0  0  0  0  0  0  0  0  0  0  0
   39.1680   31.8160   46.5240 H   0  0  0  0  0  0  0  0  0  0  0  0
   34.3600   28.5590   46.0430 O   0  0  0  0  0  0  0  0  0  0  0  0
   34.2320   29.3450   45.4400 H   0  0  0  0  0  0  0  0  0  0  0  0
   31.4600   29.0010   46.8340 O   0  0  0  0  0  0  0  0  0  0  0  0
   31.2270   26.7280   45.0130 H   0  0  0  0  0  0  0  0  0  0  0  0
   30.9040   26.8700   46.0140 N   0  0  0  0  0  0  0  0  0  0  0  0
   29.7300   26.0190   46.1380 C   0  0  0  0  0  2  0  0  0  0  0  0
   28.5460   26.9930   46.1820 C   0  0  0  0  0  2  0  0  0  0  0  0
   29.2190   28.1150   46.9850 C   0  0  0  0  0  2  0  0  0  0  0  0
   30.5020   28.2290   46.1980 C   0  0  1  0  0  3  0  0  0  0  0  0
  1  5  1  0  0  0  0
  1  6  1  1  0  0  0
  1  2  1  0  0  0  0
  2  7  1  6  0  0  0
  2 12  1  0  0  0  0
  2  3  1  0  0  0  0
  4  8  1  0  0  0  0
  4  9  1  0  0  0  0
  4  3  1  0  0  0  0
  5 10  1  6  0  0  0
  5  4  1  0  0  0  0
 11 14  1  6  0  0  0
 11 13  1  0  0  0  0
 12 15  1  6  0  0  0
 12 11  1  0  0  0  0
 12 13  1  0  0  0  0
 13 16  1  0  0  0  0
 13 17  1  0  0  0  0
 18 11  1  0  0  0  0
 18 19  1  0  0  0  0
 19 24  1  0  0  0  0
 20 19  2  0  0  0  0
 20 25  1  0  0  0  0
 21 20  1  0  0  0  0
 22 23  1  0  0  0  0
 22 21  2  0  0  0  0
 23 18  2  0  0  0  0
 26 22  1  0  0  0  0
 27  1  1  0  0  0  0
 28 27  1  0  0  0  0
 29  5  1  0  0  0  0
 30 31  1  0  0  0  0
 31 32  1  0  0  0  0
 31 35  1  0  0  0  0
 32 33  1  0  0  0  0
 33 34  1  0  0  0  0
 35 29  1  1  0  0  0
 35 34  1  0  0  0  0
M  END
>  <minimizedAffinity>
-4.94868517

>  <minimizedRMSD>
0.434464335

$$$$
