
 OpenBabel03272508273D

 35 38  0  0  1  0  0  0  0  0999 V2000
   33.9950   29.0040   47.3490 C   0  0  2  0  0  0  0  0  0  0  0  0
   34.7460   28.2430   48.4310 C   0  0  2  0  0  0  0  0  0  0  0  0
   33.8460   28.0600   49.4420 O   0  0  0  0  0  0  0  0  0  0  0  0
   32.5710   28.1120   48.9710 C   0  0  0  0  0  0  0  0  0  0  0  0
   32.6310   28.3150   47.4690 C   0  0  1  0  0  0  0  0  0  0  0  0
   33.8260   30.0610   47.5900 H   0  0  0  0  0  0  0  0  0  0  0  0
   35.0530   27.2760   47.9670 H   0  0  0  0  0  0  0  0  0  0  0  0
   31.9720   27.2050   49.2000 H   0  0  0  0  0  0  0  0  0  0  0  0
   32.0510   28.9670   49.4730 H   0  0  0  0  0  0  0  0  0  0  0  0
   32.6990   27.3020   47.0350 H   0  0  0  0  0  0  0  0  0  0  0  0
   35.8040   30.5240   49.0460 C   0  0  1  0  0  0  0  0  0  0  0  0
   35.8980   29.0960   48.8530 C   0  0  1  0  0  0  0  0  0  0  0  0
   36.0270   29.6000   50.2540 C   0  0  0  0  0  0  0  0  0  0  0  0
   34.8900   31.1330   49.1810 H   0  0  0  0  0  0  0  0  0  0  0  0
   36.8720   28.7290   48.4160 H   0  0  0  0  0  0  0  0  0  0  0  0
   37.0040   29.6230   50.7590 H   0  0  0  0  0  0  0  0  0  0  0  0
   35.1490   29.3720   50.8860 H   0  0  0  0  0  0  0  0  0  0  0  0
   36.9920   31.4370   48.8030 C   0  0  0  0  0  0  0  0  0  0  0  0
   37.1790   32.4940   49.6920 C   0  0  0  0  0  0  0  0  0  0  0  0
   38.2670   33.3110   49.3990 C   0  0  0  0  0  0  0  0  0  0  0  0
   39.0710   33.0710   48.3190 N   0  0  0  0  0  0  0  0  0  0  0  0
   38.8430   32.0230   47.4830 C   0  0  0  0  0  0  0  0  0  0  0  0
   37.7940   31.2030   47.7320 N   0  0  0  0  0  0  0  0  0  0  0  0
   36.5370   32.6570   50.5250 H   0  0  0  0  0  0  0  0  0  0  0  0
   38.4450   34.1380   50.0610 H   0  0  0  0  0  0  0  0  0  0  0  0
   39.5090   31.8780   46.6440 H   0  0  0  0  0  0  0  0  0  0  0  0
   34.5270   28.8500   46.0850 O   0  0  0  0  0  0  0  0  0  0  0  0
   34.3490   29.6690   45.5410 H   0  0  0  0  0  0  0  0  0  0  0  0
   31.6260   29.0890   46.9540 O   0  0  0  0  0  0  0  0  0  0  0  0
   29.9070   26.7270   47.0180 H   0  0  0  0  0  0  0  0  0  0  0  0
   29.6980   27.7520   46.8370 N   0  0  0  0  0  0  0  0  0  0  0  0
   28.5380   27.7330   45.9590 C   0  0  0  0  0  2  0  0  0  0  0  0
   29.0820   28.1530   44.5870 C   0  0  0  0  0  2  0  0  0  0  0  0
   30.1160   29.1780   45.0700 C   0  0  0  0  0  2  0  0  0  0  0  0
   30.7900   28.3460   46.1360 C   0  0  1  0  0  3  0  0  0  0  0  0
  1  5  1  0  0  0  0
  1  6  1  1  0  0  0
  1  2  1  0  0  0  0
  2  7  1  6  0  0  0
  2 12  1  0  0  0  0
  2  3  1  0  0  0  0
  4  8  1  0  0  0  0
  4  3  1  0  0  0  0
  4  9  1  0  0  0  0
  5 10  1  6  0  0  0
  5  4  1  0  0  0  0
 11 14  1  6  0  0  0
 11 13  1  0  0  0  0
 12 15  1  6  0  0  0
 12 11  1  0  0  0  0
 12 13  1  0  0  0  0
 13 16  1  0  0  0  0
 13 17  1  0  0  0  0
 18 11  1  0  0  0  0
 18 19  1  0  0  0  0
 19 24  1  0  0  0  0
 20 19  2  0  0  0  0
 20 25  1  0  0  0  0
 21 20  1  0  0  0  0
 22 23  1  0  0  0  0
 22 21  2  0  0  0  0
 23 18  2  0  0  0  0
 26 22  1  0  0  0  0
 27  1  1  0  0  0  0
 28 27  1  0  0  0  0
 29  5  1  0  0  0  0
 31 30  1  0  0  0  0
 32 31  1  0  0  0  0
 33 34  1  0  0  0  0
 33 32  1  0  0  0  0
 34 35  1  0  0  0  0
 35 31  1  0  0  0  0
 35 29  1  1  0  0  0
M  END
>  <minimizedAffinity>
-4.81787157

>  <minimizedRMSD>
0.182195529

$$$$
