
 OpenBabel03262522273D

 43 46  0  0  1  0  0  0  0  0999 V2000
   39.0710   32.8630   47.9000 C   0  0  0  0  0  0  0  0  0  0  0  0
   39.3430   32.1580   46.7360 C   0  0  0  0  0  0  0  0  0  0  0  0
   38.8020   30.9060   46.6240 C   0  0  0  0  0  0  0  0  0  0  0  0
   38.0390   30.4330   47.6450 N   0  0  0  0  0  0  0  0  0  0  0  0
   37.8020   31.1230   48.7290 C   0  0  0  0  0  0  0  0  0  0  0  0
   38.3150   32.3880   48.9070 N   0  0  0  0  0  0  0  0  0  0  0  0
   39.4780   33.8620   48.0380 H   0  0  0  0  0  0  0  0  0  0  0  0
   38.9900   30.3150   45.7240 H   0  0  0  0  0  0  0  0  0  0  0  0
   40.1180   32.7460   45.7940 O   0  0  0  0  0  0  0  0  0  0  0  0
   40.1090   32.2520   44.4910 C   0  0  0  0  0  0  0  0  0  0  0  0
   40.6540   31.0820   44.0300 C   0  0  0  0  0  0  0  0  0  0  0  0
   40.5390   30.7710   42.7110 C   0  0  0  0  0  0  0  0  0  0  0  0
   39.8880   31.6260   41.8820 C   0  0  0  0  0  0  0  0  0  0  0  0
   39.3370   32.8200   42.3730 C   0  0  0  0  0  0  0  0  0  0  0  0
   39.4610   33.1130   43.6890 N   0  0  0  0  0  0  0  0  0  0  0  0
   41.1510   30.4770   44.7910 H   0  0  0  0  0  0  0  0  0  0  0  0
   40.9690   29.8510   42.3560 H   0  0  0  0  0  0  0  0  0  0  0  0
   39.7610   31.4390   40.8180 H   0  0  0  0  0  0  0  0  0  0  0  0
   38.6130   33.7590   41.4190 C   0  0  0  0  0  0  0  0  0  0  0  0
   39.3490   34.5920   41.2780 H   0  0  0  0  0  0  0  0  0  0  0  0
   37.7340   34.1940   41.8940 H   0  0  0  0  0  0  0  0  0  0  0  0
   38.4290   33.1940   40.4950 H   0  0  0  0  0  0  0  0  0  0  0  0
   36.7560   30.2380   49.9160 S   0  0  0  0  0  0  0  0  0  0  0  0
   35.0760   30.8110   49.5460 C   0  0  0  0  0  0  0  0  0  0  0  0
   35.1620   31.8680   49.2000 H   0  0  0  0  0  0  0  0  0  0  0  0
   34.4150   30.8150   50.4190 H   0  0  0  0  0  0  0  0  0  0  0  0
   33.4880   28.6740   50.2270 F   0  0  0  0  0  0  0  0  0  0  0  0
   33.7590   28.8870   48.9020 C   0  0  0  0  0  0  0  0  0  0  0  0
   34.5520   29.9400   48.4360 C   0  0  0  0  0  0  0  0  0  0  0  0
   34.7970   30.1220   47.1120 C   0  0  0  0  0  0  0  0  0  0  0  0
   34.2470   29.2410   46.1780 C   0  0  0  0  0  0  0  0  0  0  0  0
   33.4600   28.1940   46.6210 C   0  0  0  0  0  0  0  0  0  0  0  0
   33.2220   28.0240   47.9620 C   0  0  0  0  0  0  0  0  0  0  0  0
   35.4180   30.9570   46.8470 H   0  0  0  0  0  0  0  0  0  0  0  0
   34.4840   29.4490   45.1640 H   0  0  0  0  0  0  0  0  0  0  0  0
   33.1030   27.5980   45.8060 H   0  0  0  0  0  0  0  0  0  0  0  0
   32.4300   26.9660   48.3480 O   0  0  0  0  0  0  0  0  0  0  0  0
   30.3620   28.6390   49.5910 H   0  0  0  0  0  0  0  0  0  0  0  0
   30.5680   28.3070   48.6200 N   0  0  0  0  0  0  0  0  0  0  0  0
   29.3700   28.3670   47.8410 C   0  0  0  0  0  0  0  0  0  0  0  0
   29.0470   26.9560   47.3970 C   0  0  0  0  0  0  0  0  0  0  0  0
   30.4250   26.3350   47.3180 C   0  0  0  0  0  0  0  0  0  0  0  0
   31.0670   26.9460   48.5680 C   0  0  1  0  0  0  0  0  0  0  0  0
  1  7  1  0  0  0  0
  1  6  1  0  0  0  0
  2  1  2  0  0  0  0
  3  2  1  0  0  0  0
  3  4  2  0  0  0  0
  4  5  1  0  0  0  0
  5  6  2  0  0  0  0
  5 23  1  0  0  0  0
  8  3  1  0  0  0  0
  9  2  1  0  0  0  0
 10  9  1  0  0  0  0
 11 10  1  0  0  0  0
 11 16  1  0  0  0  0
 12 11  2  0  0  0  0
 13 14  2  0  0  0  0
 13 12  1  0  0  0  0
 14 15  1  0  0  0  0
 15 10  2  0  0  0  0
 17 12  1  0  0  0  0
 18 13  1  0  0  0  0
 19 21  1  0  0  0  0
 19 14  1  0  0  0  0
 20 19  1  0  0  0  0
 22 19  1  0  0  0  0
 24 23  1  0  0  0  0
 24 26  1  0  0  0  0
 25 24  1  0  0  0  0
 28 27  1  0  0  0  0
 29 28  1  0  0  0  0
 29 24  1  0  0  0  0
 30 29  2  0  0  0  0
 31 32  2  0  0  0  0
 31 30  1  0  0  0  0
 32 33  1  0  0  0  0
 33 37  1  0  0  0  0
 33 28  2  0  0  0  0
 34 30  1  0  0  0  0
 35 31  1  0  0  0  0
 36 32  1  0  0  0  0
 39 38  1  0  0  0  0
 40 39  1  0  0  0  0
 41 40  1  0  0  0  0
 42 41  1  0  0  0  0
 42 43  1  0  0  0  0
 43 37  1  6  0  0  0
 43 39  1  0  0  0  0
M  END
>  <minimizedAffinity>
-6.21785641

>  <minimizedRMSD>
2.08349037

$$$$
