
 OpenBabel03262520493D

 48 52  0  0  1  0  0  0  0  0999 V2000
   40.4030   31.0370   43.8660 C   0  0  0  0  0  0  0  0  0  0  0  0
   40.0740   31.9680   43.3690 H   0  0  0  0  0  0  0  0  0  0  0  0
   41.4580   31.1170   44.1930 H   0  0  0  0  0  0  0  0  0  0  0  0
   39.4640   28.8160   43.3100 C   0  0  0  0  0  0  0  0  0  0  0  0
   40.3200   29.8550   42.9500 C   0  0  0  0  0  0  0  0  0  0  0  0
   41.0560   29.7600   41.7730 C   0  0  0  0  0  0  0  0  0  0  0  0
   40.9530   28.6520   40.9520 C   0  0  0  0  0  0  0  0  0  0  0  0
   41.5530   28.3460   39.7880 N   0  0  0  0  0  0  0  0  0  0  0  0
   41.0870   27.1430   39.4250 C   0  0  0  0  0  0  0  0  0  0  0  0
   40.1750   26.6420   40.3440 C   0  0  0  0  0  0  0  0  0  0  0  0
   40.1060   27.6280   41.3120 C   0  0  0  0  0  0  0  0  0  0  0  0
   39.3770   27.7090   42.4680 C   0  0  0  0  0  0  0  0  0  0  0  0
   38.8480   28.7840   44.1960 H   0  0  0  0  0  0  0  0  0  0  0  0
   41.7020   30.6020   41.5480 H   0  0  0  0  0  0  0  0  0  0  0  0
   42.2320   28.9220   39.2820 H   0  0  0  0  0  0  0  0  0  0  0  0
   41.4020   26.6410   38.5110 H   0  0  0  0  0  0  0  0  0  0  0  0
   39.6790   25.7010   40.2500 H   0  0  0  0  0  0  0  0  0  0  0  0
   37.4620   26.2380   41.8080 C   0  0  1  0  0  0  0  0  0  0  0  0
   38.4560   26.5890   42.8620 C   0  0  1  0  0  0  0  0  0  0  0  0
   39.2250   25.4940   43.1560 O   0  0  0  0  0  0  0  0  0  0  0  0
   38.4420   24.3620   42.9550 C   0  0  0  0  0  0  0  0  0  0  0  0
   37.4010   24.7140   41.9330 C   0  0  1  0  0  0  0  0  0  0  0  0
   36.1930   26.7820   42.0300 O   0  0  0  0  0  0  0  0  0  0  0  0
   35.6990   26.8600   41.1760 H   0  0  0  0  0  0  0  0  0  0  0  0
   36.1490   24.3540   42.4790 O   0  0  0  0  0  0  0  0  0  0  0  0
   35.4200   24.8380   42.0060 H   0  0  0  0  0  0  0  0  0  0  0  0
   39.5670   30.7270   45.0950 C   0  0  0  0  0  0  0  0  0  0  0  0
   39.7730   29.6700   45.3530 H   0  0  0  0  0  0  0  0  0  0  0  0
   38.5070   30.9030   44.7630 H   0  0  0  0  0  0  0  0  0  0  0  0
   38.7650   32.2630   46.9290 C   0  0  1  0  0  0  0  0  0  0  0  0
   39.8830   33.0330   46.2630 C   0  0  0  0  0  0  0  0  0  0  0  0
   39.8870   31.5580   46.2850 C   0  0  2  0  0  0  0  0  0  0  0  0
   37.7830   32.3840   46.4350 H   0  0  0  0  0  0  0  0  0  0  0  0
   39.7010   33.4840   45.2620 H   0  0  0  0  0  0  0  0  0  0  0  0
   40.6050   33.6090   46.8760 H   0  0  0  0  0  0  0  0  0  0  0  0
   40.6360   31.1300   47.0110 H   0  0  0  0  0  0  0  0  0  0  0  0
   38.7010   32.4030   48.4280 C   0  0  0  0  0  0  0  0  0  0  0  0
   38.1430   33.3400   48.6450 H   0  0  0  0  0  0  0  0  0  0  0  0
   39.7120   32.5290   48.8820 H   0  0  0  0  0  0  0  0  0  0  0  0
   37.4380   30.0180   51.0110 C   0  0  0  0  0  0  0  0  0  0  0  0
   38.1500   31.0860   50.3790 C   0  0  0  0  0  0  0  0  0  0  0  0
   37.9540   31.2970   49.0480 C   0  0  0  0  0  0  0  0  0  0  0  0
   37.1030   30.4920   48.3970 N   0  0  0  0  0  0  0  0  0  0  0  0
   36.4360   29.4930   48.9840 C   0  0  0  0  0  0  0  0  0  0  0  0
   36.6160   29.2710   50.2870 N   0  0  0  0  0  0  0  0  0  0  0  0
   37.6000   29.8590   52.0610 H   0  0  0  0  0  0  0  0  0  0  0  0
   38.8120   31.6740   51.0000 H   0  0  0  0  0  0  0  0  0  0  0  0
   35.7510   28.8550   48.4310 H   0  0  0  0  0  0  0  0  0  0  0  0
  1  3  1  0  0  0  0
  1 27  1  0  0  0  0
  2  1  1  0  0  0  0
  4 13  1  0  0  0  0
  5  4  1  0  0  0  0
  5  1  1  0  0  0  0
  6  5  2  0  0  0  0
  7 11  2  0  0  0  0
  7  6  1  0  0  0  0
  8  7  1  0  0  0  0
  9  8  1  0  0  0  0
  9 10  2  0  0  0  0
 10 11  1  0  0  0  0
 11 12  1  0  0  0  0
 12  4  2  0  0  0  0
 14  6  1  0  0  0  0
 15  8  1  0  0  0  0
 16  9  1  0  0  0  0
 17 10  1  0  0  0  0
 18 22  1  0  0  0  0
 18 23  1  1  0  0  0
 18 19  1  0  0  0  0
 19 12  1  6  0  0  0
 19 20  1  0  0  0  0
 21 20  1  0  0  0  0
 22 25  1  1  0  0  0
 22 21  1  0  0  0  0
 24 23  1  0  0  0  0
 26 25  1  0  0  0  0
 27 28  1  0  0  0  0
 27 32  1  0  0  0  0
 29 27  1  0  0  0  0
 30 33  1  6  0  0  0
 30 37  1  0  0  0  0
 31 32  1  0  0  0  0
 31 35  1  0  0  0  0
 31 30  1  0  0  0  0
 32 30  1  0  0  0  0
 32 36  1  1  0  0  0
 34 31  1  0  0  0  0
 37 38  1  0  0  0  0
 37 39  1  0  0  0  0
 37 42  1  0  0  0  0
 40 46  1  0  0  0  0
 41 47  1  0  0  0  0
 41 40  1  0  0  0  0
 42 41  2  0  0  0  0
 43 44  2  0  0  0  0
 43 42  1  0  0  0  0
 44 45  1  0  0  0  0
 45 40  2  0  0  0  0
 48 44  1  0  0  0  0
M  END
>  <minimizedAffinity>
-5.95466948

>  <minimizedRMSD>
0.349287748

$$$$
