
 OpenBabel03272503083D

 45 49  0  0  1  0  0  0  0  0999 V2000
   39.2580   31.9050   44.9530 C   0  0  0  0  0  0  0  0  0  0  0  0
   38.1640   32.5450   45.0750 O   0  0  0  0  0  0  0  0  0  0  0  0
   39.9550   31.6530   46.1660 N   0  0  0  0  0  0  0  0  0  0  0  0
   40.8410   31.1400   46.1080 H   0  0  0  0  0  0  0  0  0  0  0  0
   39.1230   32.1710   42.5720 C   0  0  0  0  0  0  0  0  0  0  0  0
   39.6850   31.5010   43.6340 C   0  0  0  0  0  0  0  0  0  0  0  0
   40.6150   30.4890   43.4760 C   0  0  0  0  0  0  0  0  0  0  0  0
   40.9980   30.1320   42.1960 C   0  0  0  0  0  0  0  0  0  0  0  0
   41.8580   29.2110   41.7310 N   0  0  0  0  0  0  0  0  0  0  0  0
   41.8480   29.2880   40.3990 C   0  0  0  0  0  0  0  0  0  0  0  0
   40.9970   30.2410   40.0300 N   0  0  0  0  0  0  0  0  0  0  0  0
   40.4350   30.8020   41.1260 C   0  0  0  0  0  0  0  0  0  0  0  0
   39.5030   31.8180   41.2670 C   0  0  0  0  0  0  0  0  0  0  0  0
   38.3900   32.9690   42.6900 H   0  0  0  0  0  0  0  0  0  0  0  0
   41.0350   29.9850   44.3320 H   0  0  0  0  0  0  0  0  0  0  0  0
   42.4010   28.5830   42.3670 H   0  0  0  0  0  0  0  0  0  0  0  0
   42.4770   28.6290   39.7890 H   0  0  0  0  0  0  0  0  0  0  0  0
   37.7850   31.8430   39.4470 C   0  0  1  0  0  0  0  0  0  0  0  0
   38.9230   32.5100   40.1320 C   0  0  1  0  0  0  0  0  0  0  0  0
   38.3950   33.7560   40.4540 O   0  0  0  0  0  0  0  0  0  0  0  0
   37.6980   34.1840   39.3490 C   0  0  0  0  0  0  0  0  0  0  0  0
   37.2740   32.9700   38.5690 C   0  0  1  0  0  0  0  0  0  0  0  0
   38.1570   30.7300   38.7010 O   0  0  0  0  0  0  0  0  0  0  0  0
   37.9950   29.9250   39.2790 H   0  0  0  0  0  0  0  0  0  0  0  0
   37.9770   32.8600   37.3600 O   0  0  0  0  0  0  0  0  0  0  0  0
   37.9000   33.7130   36.8430 H   0  0  0  0  0  0  0  0  0  0  0  0
   38.1050   30.1490   47.5000 F   0  0  0  0  0  0  0  0  0  0  0  0
   38.3680   31.3920   47.9920 C   0  0  0  0  0  0  0  0  0  0  0  0
   37.7070   31.8280   49.1140 C   0  0  0  0  0  0  0  0  0  0  0  0
   38.0210   33.0890   49.5540 C   0  0  0  0  0  0  0  0  0  0  0  0
   38.9390   33.9010   48.9340 C   0  0  0  0  0  0  0  0  0  0  0  0
   39.5890   33.4310   47.8040 C   0  0  0  0  0  0  0  0  0  0  0  0
   39.2980   32.1670   47.3340 C   0  0  0  0  0  0  0  0  0  0  0  0
   37.5100   33.4510   50.4360 H   0  0  0  0  0  0  0  0  0  0  0  0
   39.1790   34.8940   49.2880 H   0  0  0  0  0  0  0  0  0  0  0  0
   40.3260   33.9860   47.2420 H   0  0  0  0  0  0  0  0  0  0  0  0
   36.0720   29.3530   51.4510 C   0  0  0  0  0  0  0  0  0  0  0  0
   37.0460   30.2090   50.8780 C   0  0  0  0  0  0  0  0  0  0  0  0
   36.7430   30.9390   49.7380 C   0  0  0  0  0  0  0  0  0  0  0  0
   35.4830   30.7880   49.2130 N   0  0  0  0  0  0  0  0  0  0  0  0
   34.5780   29.9700   49.7770 C   0  0  0  0  0  0  0  0  0  0  0  0
   34.8680   29.2700   50.8690 N   0  0  0  0  0  0  0  0  0  0  0  0
   36.4560   28.8490   52.3390 H   0  0  0  0  0  0  0  0  0  0  0  0
   38.0290   30.3550   51.2480 H   0  0  0  0  0  0  0  0  0  0  0  0
   33.5840   29.8240   49.3980 H   0  0  0  0  0  0  0  0  0  0  0  0
  1  2  2  0  0  0  0
  1  3  1  0  0  0  0
  3 33  1  0  0  0  0
  4  3  1  0  0  0  0
  5 14  1  0  0  0  0
  5  6  1  0  0  0  0
  6  1  1  0  0  0  0
  7  6  2  0  0  0  0
  7 15  1  0  0  0  0
  8  7  1  0  0  0  0
  9  8  1  0  0  0  0
  9 16  1  0  0  0  0
 10  9  1  0  0  0  0
 11 10  2  0  0  0  0
 11 12  1  0  0  0  0
 12 13  1  0  0  0  0
 12  8  2  0  0  0  0
 13  5  2  0  0  0  0
 17 10  1  0  0  0  0
 18 23  1  6  0  0  0
 18 19  1  0  0  0  0
 19 20  1  0  0  0  0
 19 13  1  1  0  0  0
 21 20  1  0  0  0  0
 22 25  1  6  0  0  0
 22 21  1  0  0  0  0
 22 18  1  0  0  0  0
 23 24  1  0  0  0  0
 26 25  1  0  0  0  0
 27 28  1  0  0  0  0
 28 29  1  0  0  0  0
 29 30  2  0  0  0  0
 29 39  1  0  0  0  0
 30 34  1  0  0  0  0
 31 35  1  0  0  0  0
 31 30  1  0  0  0  0
 32 31  2  0  0  0  0
 33 32  1  0  0  0  0
 33 28  2  0  0  0  0
 36 32  1  0  0  0  0
 37 43  1  0  0  0  0
 38 44  1  0  0  0  0
 38 37  1  0  0  0  0
 39 38  2  0  0  0  0
 40 39  1  0  0  0  0
 40 41  2  0  0  0  0
 41 42  1  0  0  0  0
 42 37  2  0  0  0  0
 45 41  1  0  0  0  0
M  END
>  <minimizedAffinity>
-7.56302834

>  <minimizedRMSD>
0.12963897

$$$$
