
 OpenBabel03272501283D

 39 42  0  0  1  0  0  0  0  0999 V2000
   36.1670   27.0040   31.4340 C   0  0  0  0  0  0  0  0  0  0  0  0
   36.9070   27.7180   30.4940 C   0  0  0  0  0  0  0  0  0  0  0  0
   36.4830   29.0510   30.5730 C   0  0  0  0  0  0  0  0  0  0  0  0
   35.5270   29.0890   31.5320 N   0  0  0  0  0  0  0  0  0  0  0  0
   35.3630   27.8670   32.0210 N   0  0  0  0  0  0  0  0  0  0  0  0
   37.6800   27.3570   29.8050 H   0  0  0  0  0  0  0  0  0  0  0  0
   36.8550   29.8910   29.9750 H   0  0  0  0  0  0  0  0  0  0  0  0
   33.6430   29.8650   32.7940 N   0  0  0  0  0  0  0  0  0  0  0  0
   33.2950   31.0870   33.4930 C   0  0  0  0  0  0  0  0  0  0  0  0
   34.4900   31.9980   33.4380 C   0  0  0  0  0  0  0  0  0  0  0  0
   35.5860   31.0460   32.9540 C   0  0  0  0  0  0  0  0  0  0  0  0
   34.7920   30.2050   31.9840 C   0  0  1  0  0  0  0  0  0  0  0  0
   33.9630   29.1460   33.4790 H   0  0  0  0  0  0  0  0  0  0  0  0
   32.4570   31.5890   32.9590 H   0  0  0  0  0  0  0  0  0  0  0  0
   32.9880   30.8690   34.5360 H   0  0  0  0  0  0  0  0  0  0  0  0
   34.3530   32.8580   32.7790 H   0  0  0  0  0  0  0  0  0  0  0  0
   34.7540   32.3000   34.4830 H   0  0  0  0  0  0  0  0  0  0  0  0
   36.0110   30.4710   33.7800 H   0  0  0  0  0  0  0  0  0  0  0  0
   36.3430   31.6080   32.3640 H   0  0  0  0  0  0  0  0  0  0  0  0
   34.4350   31.0260   30.8600 N   0  0  0  0  0  0  0  0  0  0  0  0
   35.1690   31.7290   30.6630 H   0  0  0  0  0  0  0  0  0  0  0  0
   34.2820   30.4640   29.9950 H   0  0  0  0  0  0  0  0  0  0  0  0
   37.4050   25.0370   32.3980 C   0  0  0  0  0  0  0  0  0  0  0  0
   36.3530   25.5730   31.6220 C   0  0  0  0  0  0  0  0  0  0  0  0
   35.4660   24.6720   31.0190 C   0  0  0  0  0  0  0  0  0  0  0  0
   35.6800   23.3500   31.2230 N   0  0  0  0  0  0  0  0  0  0  0  0
   36.7030   22.8640   31.9760 C   0  0  0  0  0  0  0  0  0  0  0  0
   37.5760   23.7400   32.5700 N   0  0  0  0  0  0  0  0  0  0  0  0
   38.1000   25.7200   32.8700 H   0  0  0  0  0  0  0  0  0  0  0  0
   34.6380   25.0160   30.4130 H   0  0  0  0  0  0  0  0  0  0  0  0
   35.4310   20.8100   32.5490 C   0  0  1  0  0  3  0  0  0  0  0  0
   36.7150   21.3750   32.0420 C   0  0  1  0  0  3  0  0  0  0  0  0
   36.8430   20.8430   30.7840 O   0  0  0  0  0  0  0  0  0  0  0  0
   36.2510   19.6070   30.7330 C   0  0  0  0  0  2  0  0  0  0  0  0
   35.5350   19.3750   32.0300 C   0  0  2  0  0  3  0  0  0  0  0  0
   35.3730   20.7210   33.9380 O   0  0  0  0  0  0  0  0  0  0  0  0
   36.2460   20.6390   34.3560 H   0  0  0  0  0  0  0  0  0  0  0  0
   34.2820   18.8070   31.8650 O   0  0  0  0  0  0  0  0  0  0  0  0
   33.6700   19.4990   31.5270 H   0  0  0  0  0  0  0  0  0  0  0  0
  1 24  1  0  0  0  0
  1  5  2  0  0  0  0
  2  3  2  0  0  0  0
  2  1  1  0  0  0  0
  3  4  1  0  0  0  0
  4 12  1  0  0  0  0
  4  5  1  0  0  0  0
  6  2  1  0  0  0  0
  7  3  1  0  0  0  0
  8 13  1  0  0  0  0
  8  9  1  0  0  0  0
  9 15  1  0  0  0  0
 10  9  1  0  0  0  0
 10 17  1  0  0  0  0
 11 10  1  0  0  0  0
 11 18  1  0  0  0  0
 12 20  1  6  0  0  0
 12  8  1  0  0  0  0
 12 11  1  0  0  0  0
 14  9  1  0  0  0  0
 16 10  1  0  0  0  0
 19 11  1  0  0  0  0
 21 20  1  0  0  0  0
 22 20  1  0  0  0  0
 23 28  1  0  0  0  0
 23 29  1  0  0  0  0
 24 23  2  0  0  0  0
 25 26  2  0  0  0  0
 25 24  1  0  0  0  0
 26 27  1  0  0  0  0
 27 28  2  0  0  0  0
 30 25  1  0  0  0  0
 31 36  1  1  0  0  0
 32 27  1  6  0  0  0
 32 31  1  0  0  0  0
 33 32  1  0  0  0  0
 34 33  1  0  0  0  0
 34 35  1  0  0  0  0
 35 38  1  6  0  0  0
 35 31  1  0  0  0  0
 36 37  1  0  0  0  0
 39 38  1  0  0  0  0
M  END
>  <minimizedAffinity>
-5.93915319

$$$$

 OpenBabel03272501283D

 39 42  0  0  1  0  0  0  0  0999 V2000
   37.4510   26.0670   34.1890 C   0  0  0  0  0  0  0  0  0  0  0  0
   37.9360   25.1890   33.2230 C   0  0  0  0  0  0  0  0  0  0  0  0
   38.4300   24.0690   33.9050 C   0  0  0  0  0  0  0  0  0  0  0  0
   38.2310   24.3090   35.2220 N   0  0  0  0  0  0  0  0  0  0  0  0
   37.6520   25.4940   35.3590 N   0  0  0  0  0  0  0  0  0  0  0  0
   37.9510   25.3020   32.1330 H   0  0  0  0  0  0  0  0  0  0  0  0
   38.8870   23.1800   33.4550 H   0  0  0  0  0  0  0  0  0  0  0  0
   39.9690   23.1780   36.4260 N   0  0  0  0  0  0  0  0  0  0  0  0
   40.1530   22.7110   37.7870 C   0  0  0  0  0  0  0  0  0  0  0  0
   38.9610   23.1610   38.5870 C   0  0  0  0  0  0  0  0  0  0  0  0
   38.3100   24.1680   37.6380 C   0  0  0  0  0  0  0  0  0  0  0  0
   38.5580   23.4800   36.3170 C   0  0  1  0  0  0  0  0  0  0  0  0
   40.4780   24.0800   36.2910 H   0  0  0  0  0  0  0  0  0  0  0  0
   40.1700   21.5980   37.7930 H   0  0  0  0  0  0  0  0  0  0  0  0
   41.1040   23.0950   38.2080 H   0  0  0  0  0  0  0  0  0  0  0  0
   38.2920   22.3460   38.8670 H   0  0  0  0  0  0  0  0  0  0  0  0
   39.3280   23.7360   39.4760 H   0  0  0  0  0  0  0  0  0  0  0  0
   38.7810   25.1510   37.7100 H   0  0  0  0  0  0  0  0  0  0  0  0
   37.2100   24.1860   37.8000 H   0  0  0  0  0  0  0  0  0  0  0  0
   37.7550   22.2900   36.2680 N   0  0  0  0  0  0  0  0  0  0  0  0
   36.8620   22.4210   36.7760 H   0  0  0  0  0  0  0  0  0  0  0  0
   37.5330   22.0040   35.2900 H   0  0  0  0  0  0  0  0  0  0  0  0
   36.5010   28.3180   34.7900 C   0  0  0  0  0  0  0  0  0  0  0  0
   36.8600   27.3470   33.8290 C   0  0  0  0  0  0  0  0  0  0  0  0
   36.6260   27.6490   32.4810 C   0  0  0  0  0  0  0  0  0  0  0  0
   36.0740   28.8520   32.1950 N   0  0  0  0  0  0  0  0  0  0  0  0
   35.7390   29.7680   33.1440 C   0  0  0  0  0  0  0  0  0  0  0  0
   35.9640   29.4790   34.4660 N   0  0  0  0  0  0  0  0  0  0  0  0
   36.6740   28.0990   35.8360 H   0  0  0  0  0  0  0  0  0  0  0  0
   36.8780   26.9500   31.6950 H   0  0  0  0  0  0  0  0  0  0  0  0
   34.6240   30.8090   31.1850 C   0  0  1  0  0  3  0  0  0  0  0  0
   35.1490   31.0090   32.5670 C   0  0  1  0  0  3  0  0  0  0  0  0
   34.0490   31.3950   33.2900 O   0  0  0  0  0  0  0  0  0  0  0  0
   33.1730   32.0800   32.4880 C   0  0  0  0  0  2  0  0  0  0  0  0
   33.6690   31.9990   31.0740 C   0  0  2  0  0  3  0  0  0  0  0  0
   35.5870   30.9860   30.1940 O   0  0  0  0  0  0  0  0  0  0  0  0
   36.3070   31.5820   30.4580 H   0  0  0  0  0  0  0  0  0  0  0  0
   32.6610   31.7520   30.1570 O   0  0  0  0  0  0  0  0  0  0  0  0
   32.3970   30.8070   30.2320 H   0  0  0  0  0  0  0  0  0  0  0  0
  1  5  2  0  0  0  0
  2  3  2  0  0  0  0
  2  1  1  0  0  0  0
  3  4  1  0  0  0  0
  4  5  1  0  0  0  0
  4 12  1  0  0  0  0
  6  2  1  0  0  0  0
  7  3  1  0  0  0  0
  8  9  1  0  0  0  0
  9 14  1  0  0  0  0
  9 15  1  0  0  0  0
  9 10  1  0  0  0  0
 10 16  1  0  0  0  0
 10 17  1  0  0  0  0
 11 18  1  0  0  0  0
 11 19  1  0  0  0  0
 11 10  1  0  0  0  0
 12 20  1  6  0  0  0
 12  8  1  0  0  0  0
 12 11  1  0  0  0  0
 13  8  1  0  0  0  0
 20 21  1  0  0  0  0
 22 20  1  0  0  0  0
 23 29  1  0  0  0  0
 24  1  1  0  0  0  0
 24 23  2  0  0  0  0
 25 24  1  0  0  0  0
 26 25  2  0  0  0  0
 26 27  1  0  0  0  0
 27 28  2  0  0  0  0
 28 23  1  0  0  0  0
 30 25  1  0  0  0  0
 31 36  1  6  0  0  0
 31 32  1  0  0  0  0
 32 27  1  1  0  0  0
 32 33  1  0  0  0  0
 34 33  1  0  0  0  0
 35 38  1  6  0  0  0
 35 31  1  0  0  0  0
 35 34  1  0  0  0  0
 36 37  1  0  0  0  0
 38 39  1  0  0  0  0
M  END
>  <minimizedAffinity>
-5.79509735

$$$$

 OpenBabel03272501283D

 39 42  0  0  1  0  0  0  0  0999 V2000
   38.4680   24.7970   35.6590 C   0  0  0  0  0  0  0  0  0  0  0  0
   37.9540   24.4390   36.9040 C   0  0  0  0  0  0  0  0  0  0  0  0
   38.8200   23.4760   37.4370 C   0  0  0  0  0  0  0  0  0  0  0  0
   39.7970   23.2920   36.5180 N   0  0  0  0  0  0  0  0  0  0  0  0
   39.5630   24.0850   35.4810 N   0  0  0  0  0  0  0  0  0  0  0  0
   37.0550   24.8090   37.4110 H   0  0  0  0  0  0  0  0  0  0  0  0
   38.7190   22.9740   38.4070 H   0  0  0  0  0  0  0  0  0  0  0  0
   41.1130   21.6330   35.3950 N   0  0  0  0  0  0  0  0  0  0  0  0
   42.4800   21.1570   35.4850 C   0  0  0  0  0  0  0  0  0  0  0  0
   43.1970   22.0230   36.4850 C   0  0  0  0  0  0  0  0  0  0  0  0
   42.2110   23.1790   36.6600 C   0  0  0  0  0  0  0  0  0  0  0  0
   40.9060   22.4230   36.5890 C   0  0  1  0  0  0  0  0  0  0  0  0
   41.0200   22.2860   34.5860 H   0  0  0  0  0  0  0  0  0  0  0  0
   42.4800   20.1140   35.8740 H   0  0  0  0  0  0  0  0  0  0  0  0
   42.9700   21.1790   34.4910 H   0  0  0  0  0  0  0  0  0  0  0  0
   43.4240   21.5110   37.4220 H   0  0  0  0  0  0  0  0  0  0  0  0
   44.1130   22.4430   35.9970 H   0  0  0  0  0  0  0  0  0  0  0  0
   42.3220   23.9260   35.8720 H   0  0  0  0  0  0  0  0  0  0  0  0
   42.2950   23.5970   37.6880 H   0  0  0  0  0  0  0  0  0  0  0  0
   40.7930   21.6040   37.7640 N   0  0  0  0  0  0  0  0  0  0  0  0
   41.2370   22.0580   38.5810 H   0  0  0  0  0  0  0  0  0  0  0  0
   39.7990   21.3980   38.0070 H   0  0  0  0  0  0  0  0  0  0  0  0
   37.4770   25.5380   33.4680 C   0  0  0  0  0  0  0  0  0  0  0  0
   37.8120   25.7870   34.8190 C   0  0  0  0  0  0  0  0  0  0  0  0
   37.4890   27.0430   35.3470 C   0  0  0  0  0  0  0  0  0  0  0  0
   36.8790   27.9300   34.5260 N   0  0  0  0  0  0  0  0  0  0  0  0
   36.5690   27.6610   33.2290 C   0  0  0  0  0  0  0  0  0  0  0  0
   36.8820   26.4330   32.7040 N   0  0  0  0  0  0  0  0  0  0  0  0
   37.7210   24.5710   33.0450 H   0  0  0  0  0  0  0  0  0  0  0  0
   37.7170   27.2980   36.3730 H   0  0  0  0  0  0  0  0  0  0  0  0
   35.6280   29.9470   33.4650 C   0  0  1  0  0  3  0  0  0  0  0  0
   35.9020   28.8060   32.5450 C   0  0  1  0  0  3  0  0  0  0  0  0
   36.7290   29.3370   31.5880 O   0  0  0  0  0  0  0  0  0  0  0  0
   36.4510   30.6680   31.4110 C   0  0  0  0  0  2  0  0  0  0  0  0
   35.4580   31.0840   32.4560 C   0  0  2  0  0  3  0  0  0  0  0  0
   34.4130   29.8370   34.1390 O   0  0  0  0  0  0  0  0  0  0  0  0
   33.7540   29.3080   33.6610 H   0  0  0  0  0  0  0  0  0  0  0  0
   35.7510   32.3120   33.0260 O   0  0  0  0  0  0  0  0  0  0  0  0
   36.5110   32.1950   33.6400 H   0  0  0  0  0  0  0  0  0  0  0  0
  1  2  1  0  0  0  0
  2  6  1  0  0  0  0
  2  3  2  0  0  0  0
  3  7  1  0  0  0  0
  4 12  1  0  0  0  0
  4  3  1  0  0  0  0
  5  1  2  0  0  0  0
  5  4  1  0  0  0  0
  8  9  1  0  0  0  0
  8 12  1  0  0  0  0
  9 14  1  0  0  0  0
  9 10  1  0  0  0  0
 10 11  1  0  0  0  0
 10 16  1  0  0  0  0
 11 19  1  0  0  0  0
 12 11  1  0  0  0  0
 12 20  1  1  0  0  0
 13  8  1  0  0  0  0
 15  9  1  0  0  0  0
 17 10  1  0  0  0  0
 18 11  1  0  0  0  0
 20 22  1  0  0  0  0
 20 21  1  0  0  0  0
 23 24  1  0  0  0  0
 24 25  2  0  0  0  0
 24  1  1  0  0  0  0
 25 30  1  0  0  0  0
 26 25  1  0  0  0  0
 27 26  2  0  0  0  0
 28 27  1  0  0  0  0
 28 23  2  0  0  0  0
 29 23  1  0  0  0  0
 31 36  1  6  0  0  0
 32 27  1  1  0  0  0
 32 31  1  0  0  0  0
 33 32  1  0  0  0  0
 34 33  1  0  0  0  0
 34 35  1  0  0  0  0
 35 38  1  1  0  0  0
 35 31  1  0  0  0  0
 37 36  1  0  0  0  0
 38 39  1  0  0  0  0
M  END
>  <minimizedAffinity>
-5.74100208

$$$$

 OpenBabel03272501283D

 39 42  0  0  1  0  0  0  0  0999 V2000
   37.1760   27.9100   32.1600 C   0  0  0  0  0  0  0  0  0  0  0  0
   36.2030   28.9030   32.2580 C   0  0  0  0  0  0  0  0  0  0  0  0
   36.2870   29.6690   31.0890 C   0  0  0  0  0  0  0  0  0  0  0  0
   37.2830   29.1260   30.3500 N   0  0  0  0  0  0  0  0  0  0  0  0
   37.7880   28.0900   31.0070 N   0  0  0  0  0  0  0  0  0  0  0  0
   35.4880   29.0890   33.0680 H   0  0  0  0  0  0  0  0  0  0  0  0
   35.6680   30.5360   30.8310 H   0  0  0  0  0  0  0  0  0  0  0  0
   37.0570   30.6860   28.5440 N   0  0  0  0  0  0  0  0  0  0  0  0
   37.9270   31.2040   27.5050 C   0  0  0  0  0  0  0  0  0  0  0  0
   39.3030   30.6440   27.7450 C   0  0  0  0  0  0  0  0  0  0  0  0
   39.1650   30.0700   29.1550 C   0  0  0  0  0  0  0  0  0  0  0  0
   37.7530   29.5400   29.0850 C   0  0  1  0  0  0  0  0  0  0  0  0
   36.9800   31.3820   29.3190 H   0  0  0  0  0  0  0  0  0  0  0  0
   37.5750   30.8370   26.5150 H   0  0  0  0  0  0  0  0  0  0  0  0
   37.9250   32.3130   27.5080 H   0  0  0  0  0  0  0  0  0  0  0  0
   39.6020   29.8960   27.0080 H   0  0  0  0  0  0  0  0  0  0  0  0
   40.0270   31.4960   27.8050 H   0  0  0  0  0  0  0  0  0  0  0  0
   39.3010   30.8390   29.9170 H   0  0  0  0  0  0  0  0  0  0  0  0
   39.8410   29.1950   29.2770 H   0  0  0  0  0  0  0  0  0  0  0  0
   37.7330   28.4220   28.1820 N   0  0  0  0  0  0  0  0  0  0  0  0
   38.6250   27.8960   28.2190 H   0  0  0  0  0  0  0  0  0  0  0  0
   36.9560   27.7590   28.3930 H   0  0  0  0  0  0  0  0  0  0  0  0
   37.2310   27.2390   34.5850 C   0  0  0  0  0  0  0  0  0  0  0  0
   37.3700   26.9260   33.2140 C   0  0  0  0  0  0  0  0  0  0  0  0
   37.7090   25.6080   32.8800 C   0  0  0  0  0  0  0  0  0  0  0  0
   37.8790   24.7290   33.8950 N   0  0  0  0  0  0  0  0  0  0  0  0
   37.7380   25.0610   35.2060 C   0  0  0  0  0  0  0  0  0  0  0  0
   37.4060   26.3490   35.5420 N   0  0  0  0  0  0  0  0  0  0  0  0
   36.9690   28.2540   34.8590 H   0  0  0  0  0  0  0  0  0  0  0  0
   37.8310   25.3010   31.8500 H   0  0  0  0  0  0  0  0  0  0  0  0
   39.4070   23.4810   36.1470 C   0  0  1  0  0  3  0  0  0  0  0  0
   37.9780   23.9100   36.1240 C   0  0  1  0  0  3  0  0  0  0  0  0
   37.7150   24.2710   37.4210 O   0  0  0  0  0  0  0  0  0  0  0  0
   38.4800   23.5270   38.2820 C   0  0  0  0  0  2  0  0  0  0  0  0
   39.4460   22.7150   37.4700 C   0  0  2  0  0  3  0  0  0  0  0  0
   39.7270   22.5600   35.1520 O   0  0  0  0  0  0  0  0  0  0  0  0
   38.9680   22.0290   34.8600 H   0  0  0  0  0  0  0  0  0  0  0  0
   40.7240   22.6960   38.0040 O   0  0  0  0  0  0  0  0  0  0  0  0
   41.1450   23.5680   37.8320 H   0  0  0  0  0  0  0  0  0  0  0  0
  1  2  1  0  0  0  0
  1 24  1  0  0  0  0
  2  6  1  0  0  0  0
  3  2  2  0  0  0  0
  4  5  1  0  0  0  0
  4  3  1  0  0  0  0
  5  1  2  0  0  0  0
  7  3  1  0  0  0  0
  8 12  1  0  0  0  0
  8 13  1  0  0  0  0
  9 15  1  0  0  0  0
  9 10  1  0  0  0  0
  9  8  1  0  0  0  0
 10 17  1  0  0  0  0
 10 11  1  0  0  0  0
 11 19  1  0  0  0  0
 11 18  1  0  0  0  0
 12 20  1  6  0  0  0
 12 11  1  0  0  0  0
 12  4  1  0  0  0  0
 14  9  1  0  0  0  0
 16 10  1  0  0  0  0
 20 21  1  0  0  0  0
 20 22  1  0  0  0  0
 23 29  1  0  0  0  0
 23 28  1  0  0  0  0
 24 23  2  0  0  0  0
 25 24  1  0  0  0  0
 25 26  2  0  0  0  0
 26 27  1  0  0  0  0
 27 28  2  0  0  0  0
 30 25  1  0  0  0  0
 31 36  1  6  0  0  0
 31 35  1  0  0  0  0
 32 27  1  6  0  0  0
 32 31  1  0  0  0  0
 32 33  1  0  0  0  0
 33 34  1  0  0  0  0
 35 38  1  1  0  0  0
 35 34  1  0  0  0  0
 37 36  1  0  0  0  0
 39 38  1  0  0  0  0
M  END
>  <minimizedAffinity>
-5.69920969

$$$$

 OpenBabel03272501283D

 39 42  0  0  1  0  0  0  0  0999 V2000
   36.0690   28.1870   32.4380 C   0  0  0  0  0  0  0  0  0  0  0  0
   36.3800   29.1200   31.4510 C   0  0  0  0  0  0  0  0  0  0  0  0
   36.1440   30.3860   32.0020 C   0  0  0  0  0  0  0  0  0  0  0  0
   35.7090   30.1750   33.2670 N   0  0  0  0  0  0  0  0  0  0  0  0
   35.6760   28.8690   33.4950 N   0  0  0  0  0  0  0  0  0  0  0  0
   36.7430   28.9500   30.4310 H   0  0  0  0  0  0  0  0  0  0  0  0
   36.2840   31.3520   31.5020 H   0  0  0  0  0  0  0  0  0  0  0  0
   33.9670   31.0260   34.6770 N   0  0  0  0  0  0  0  0  0  0  0  0
   33.9090   31.7700   35.9200 C   0  0  0  0  0  0  0  0  0  0  0  0
   35.3190   31.9290   36.4200 C   0  0  0  0  0  0  0  0  0  0  0  0
   36.0770   30.9400   35.5330 C   0  0  0  0  0  0  0  0  0  0  0  0
   35.3390   31.1360   34.2320 C   0  0  1  0  0  0  0  0  0  0  0  0
   33.7940   30.0130   34.8640 H   0  0  0  0  0  0  0  0  0  0  0  0
   33.5000   32.7860   35.7200 H   0  0  0  0  0  0  0  0  0  0  0  0
   33.2630   31.2530   36.6580 H   0  0  0  0  0  0  0  0  0  0  0  0
   35.6970   32.9500   36.3400 H   0  0  0  0  0  0  0  0  0  0  0  0
   35.3690   31.5370   37.4680 H   0  0  0  0  0  0  0  0  0  0  0  0
   36.0110   29.9210   35.9200 H   0  0  0  0  0  0  0  0  0  0  0  0
   37.1210   31.2930   35.3780 H   0  0  0  0  0  0  0  0  0  0  0  0
   35.6390   32.4490   33.7330 N   0  0  0  0  0  0  0  0  0  0  0  0
   36.6030   32.7320   33.9830 H   0  0  0  0  0  0  0  0  0  0  0  0
   35.5410   32.5090   32.6960 H   0  0  0  0  0  0  0  0  0  0  0  0
   35.4930   26.0840   31.1820 C   0  0  0  0  0  0  0  0  0  0  0  0
   36.2010   26.7570   32.2040 C   0  0  0  0  0  0  0  0  0  0  0  0
   37.0560   25.9970   33.0120 C   0  0  0  0  0  0  0  0  0  0  0  0
   37.1440   24.6700   32.7550 N   0  0  0  0  0  0  0  0  0  0  0  0
   36.4500   24.0500   31.7630 C   0  0  0  0  0  0  0  0  0  0  0  0
   35.6110   24.7880   30.9680 N   0  0  0  0  0  0  0  0  0  0  0  0
   34.8280   26.6590   30.5500 H   0  0  0  0  0  0  0  0  0  0  0  0
   37.6270   26.4490   33.8120 H   0  0  0  0  0  0  0  0  0  0  0  0
   36.5380   21.9000   33.0020 C   0  0  1  0  0  3  0  0  0  0  0  0
   36.7260   22.5870   31.6910 C   0  0  1  0  0  3  0  0  0  0  0  0
   35.8260   21.9720   30.8580 O   0  0  0  0  0  0  0  0  0  0  0  0
   35.6430   20.6680   31.2410 C   0  0  0  0  0  2  0  0  0  0  0  0
   36.3680   20.4530   32.5360 C   0  0  2  0  0  3  0  0  0  0  0  0
   37.6730   21.9220   33.8090 O   0  0  0  0  0  0  0  0  0  0  0  0
   38.5020   21.9920   33.3070 H   0  0  0  0  0  0  0  0  0  0  0  0
   35.6390   19.7110   33.4510 O   0  0  0  0  0  0  0  0  0  0  0  0
   34.9300   20.2840   33.8200 H   0  0  0  0  0  0  0  0  0  0  0  0
  1  5  2  0  0  0  0
  2  3  2  0  0  0  0
  2  1  1  0  0  0  0
  3  4  1  0  0  0  0
  4  5  1  0  0  0  0
  4 12  1  0  0  0  0
  6  2  1  0  0  0  0
  7  3  1  0  0  0  0
  8 13  1  0  0  0  0
  8  9  1  0  0  0  0
  9 10  1  0  0  0  0
  9 15  1  0  0  0  0
 10 17  1  0  0  0  0
 11 18  1  0  0  0  0
 11 10  1  0  0  0  0
 12 20  1  6  0  0  0
 12  8  1  0  0  0  0
 12 11  1  0  0  0  0
 14  9  1  0  0  0  0
 16 10  1  0  0  0  0
 19 11  1  0  0  0  0
 20 21  1  0  0  0  0
 22 20  1  0  0  0  0
 23 24  1  0  0  0  0
 24  1  1  0  0  0  0
 24 25  2  0  0  0  0
 25 30  1  0  0  0  0
 26 25  1  0  0  0  0
 27 26  2  0  0  0  0
 28 23  2  0  0  0  0
 28 27  1  0  0  0  0
 29 23  1  0  0  0  0
 31 36  1  1  0  0  0
 32 27  1  1  0  0  0
 32 31  1  0  0  0  0
 33 34  1  0  0  0  0
 33 32  1  0  0  0  0
 34 35  1  0  0  0  0
 35 31  1  0  0  0  0
 35 38  1  1  0  0  0
 37 36  1  0  0  0  0
 38 39  1  0  0  0  0
M  END
>  <minimizedAffinity>
-5.5458827

$$$$

 OpenBabel03272501283D

 39 42  0  0  1  0  0  0  0  0999 V2000
   37.8150   25.0390   33.1610 C   0  0  0  0  0  0  0  0  0  0  0  0
   37.8370   23.7490   32.6360 C   0  0  0  0  0  0  0  0  0  0  0  0
   38.0040   22.8750   33.7180 C   0  0  0  0  0  0  0  0  0  0  0  0
   38.0770   23.6510   34.8250 N   0  0  0  0  0  0  0  0  0  0  0  0
   37.9620   24.9220   34.4650 N   0  0  0  0  0  0  0  0  0  0  0  0
   37.7440   23.4270   31.5930 H   0  0  0  0  0  0  0  0  0  0  0  0
   38.0650   21.7820   33.6700 H   0  0  0  0  0  0  0  0  0  0  0  0
   39.6190   22.9860   36.5370 N   0  0  0  0  0  0  0  0  0  0  0  0
   39.6320   23.0080   37.9870 C   0  0  0  0  0  0  0  0  0  0  0  0
   38.3820   23.7100   38.4420 C   0  0  0  0  0  0  0  0  0  0  0  0
   37.8850   24.3390   37.1380 C   0  0  0  0  0  0  0  0  0  0  0  0
   38.2440   23.2420   36.1660 C   0  0  1  0  0  0  0  0  0  0  0  0
   40.1810   23.7840   36.1670 H   0  0  0  0  0  0  0  0  0  0  0  0
   39.5970   21.9630   38.3700 H   0  0  0  0  0  0  0  0  0  0  0  0
   40.5480   23.5070   38.3640 H   0  0  0  0  0  0  0  0  0  0  0  0
   37.6490   23.0430   38.8980 H   0  0  0  0  0  0  0  0  0  0  0  0
   38.6750   24.5500   39.1220 H   0  0  0  0  0  0  0  0  0  0  0  0
   38.3900   25.2840   36.9310 H   0  0  0  0  0  0  0  0  0  0  0  0
   36.7760   24.4180   37.1540 H   0  0  0  0  0  0  0  0  0  0  0  0
   37.3970   22.1110   36.4260 N   0  0  0  0  0  0  0  0  0  0  0  0
   36.4610   22.4120   36.7500 H   0  0  0  0  0  0  0  0  0  0  0  0
   37.2710   21.5100   35.5820 H   0  0  0  0  0  0  0  0  0  0  0  0
   38.2690   26.3130   31.0390 C   0  0  0  0  0  0  0  0  0  0  0  0
   37.6550   26.2070   32.3070 C   0  0  0  0  0  0  0  0  0  0  0  0
   36.8660   27.2800   32.7390 C   0  0  0  0  0  0  0  0  0  0  0  0
   36.7470   28.3440   31.9100 N   0  0  0  0  0  0  0  0  0  0  0  0
   37.3510   28.4170   30.6930 C   0  0  0  0  0  0  0  0  0  0  0  0
   38.1250   27.3700   30.2630 N   0  0  0  0  0  0  0  0  0  0  0  0
   38.8820   25.4910   30.6910 H   0  0  0  0  0  0  0  0  0  0  0  0
   36.3680   27.2640   33.6990 H   0  0  0  0  0  0  0  0  0  0  0  0
   36.3270   30.6750   30.8290 C   0  0  1  0  0  3  0  0  0  0  0  0
   37.0600   29.6930   29.9790 C   0  0  1  0  0  3  0  0  0  0  0  0
   38.2290   30.3360   29.6560 O   0  0  0  0  0  0  0  0  0  0  0  0
   38.0210   31.6900   29.5980 C   0  0  0  0  0  2  0  0  0  0  0  0
   36.6290   31.9740   30.0790 C   0  0  2  0  0  3  0  0  0  0  0  0
   34.9430   30.5160   30.7940 O   0  0  0  0  0  0  0  0  0  0  0  0
   34.6230   30.1090   29.9720 H   0  0  0  0  0  0  0  0  0  0  0  0
   36.5580   33.0710   30.9220 O   0  0  0  0  0  0  0  0  0  0  0  0
   36.9240   32.8140   31.7980 H   0  0  0  0  0  0  0  0  0  0  0  0
  1  5  2  0  0  0  0
  2  1  1  0  0  0  0
  2  3  2  0  0  0  0
  3  4  1  0  0  0  0
  4 12  1  0  0  0  0
  5  4  1  0  0  0  0
  6  2  1  0  0  0  0
  7  3  1  0  0  0  0
  8  9  1  0  0  0  0
  9 15  1  0  0  0  0
  9 14  1  0  0  0  0
  9 10  1  0  0  0  0
 10 16  1  0  0  0  0
 10 17  1  0  0  0  0
 11 19  1  0  0  0  0
 11 10  1  0  0  0  0
 12 20  1  1  0  0  0
 12  8  1  0  0  0  0
 12 11  1  0  0  0  0
 13  8  1  0  0  0  0
 18 11  1  0  0  0  0
 20 21  1  0  0  0  0
 22 20  1  0  0  0  0
 23 24  1  0  0  0  0
 24 25  2  0  0  0  0
 24  1  1  0  0  0  0
 25 30  1  0  0  0  0
 26 25  1  0  0  0  0
 27 26  2  0  0  0  0
 28 27  1  0  0  0  0
 28 23  2  0  0  0  0
 29 23  1  0  0  0  0
 31 36  1  6  0  0  0
 32 27  1  1  0  0  0
 32 31  1  0  0  0  0
 33 32  1  0  0  0  0
 34 33  1  0  0  0  0
 34 35  1  0  0  0  0
 35 31  1  0  0  0  0
 35 38  1  1  0  0  0
 37 36  1  0  0  0  0
 38 39  1  0  0  0  0
M  END
>  <minimizedAffinity>
-5.51554871

$$$$

 OpenBabel03272501283D

 39 42  0  0  1  0  0  0  0  0999 V2000
   35.9240   28.8720   32.6130 C   0  0  0  0  0  0  0  0  0  0  0  0
   36.3430   29.6360   31.5250 C   0  0  0  0  0  0  0  0  0  0  0  0
   35.2550   30.4340   31.1490 C   0  0  0  0  0  0  0  0  0  0  0  0
   34.2480   30.1290   32.0000 N   0  0  0  0  0  0  0  0  0  0  0  0
   34.6720   29.2050   32.8520 N   0  0  0  0  0  0  0  0  0  0  0  0
   37.3190   29.6480   31.0260 H   0  0  0  0  0  0  0  0  0  0  0  0
   35.2320   31.1590   30.3270 H   0  0  0  0  0  0  0  0  0  0  0  0
   31.9330   29.7350   32.4870 N   0  0  0  0  0  0  0  0  0  0  0  0
   30.7960   30.5570   32.8560 C   0  0  0  0  0  0  0  0  0  0  0  0
   31.2940   31.9640   33.0400 C   0  0  0  0  0  0  0  0  0  0  0  0
   32.8100   31.7590   33.0660 C   0  0  0  0  0  0  0  0  0  0  0  0
   32.9430   30.6660   32.0330 C   0  0  1  0  0  0  0  0  0  0  0  0
   32.3200   29.2670   33.3370 H   0  0  0  0  0  0  0  0  0  0  0  0
   30.0600   30.5600   32.0210 H   0  0  0  0  0  0  0  0  0  0  0  0
   30.3100   30.1660   33.7720 H   0  0  0  0  0  0  0  0  0  0  0  0
   30.9710   32.6470   32.2520 H   0  0  0  0  0  0  0  0  0  0  0  0
   30.9920   32.3160   34.0590 H   0  0  0  0  0  0  0  0  0  0  0  0
   33.1570   31.4620   34.0580 H   0  0  0  0  0  0  0  0  0  0  0  0
   33.3220   32.6600   32.6630 H   0  0  0  0  0  0  0  0  0  0  0  0
   32.6250   31.2190   30.7450 N   0  0  0  0  0  0  0  0  0  0  0  0
   32.9130   32.2120   30.6840 H   0  0  0  0  0  0  0  0  0  0  0  0
   33.0860   30.6980   29.9680 H   0  0  0  0  0  0  0  0  0  0  0  0
   37.7090   27.1000   32.5430 C   0  0  0  0  0  0  0  0  0  0  0  0
   36.8120   27.9210   33.2640 C   0  0  0  0  0  0  0  0  0  0  0  0
   36.7950   27.7950   34.6580 C   0  0  0  0  0  0  0  0  0  0  0  0
   37.6390   26.8960   35.2170 N   0  0  0  0  0  0  0  0  0  0  0  0
   38.4920   26.1200   34.4970 C   0  0  0  0  0  0  0  0  0  0  0  0
   38.5150   26.2370   33.1300 N   0  0  0  0  0  0  0  0  0  0  0  0
   37.7340   27.1850   31.4640 H   0  0  0  0  0  0  0  0  0  0  0  0
   36.1330   28.3930   35.2700 H   0  0  0  0  0  0  0  0  0  0  0  0
   38.4890   24.2120   36.0860 C   0  0  1  0  0  3  0  0  0  0  0  0
   39.3130   25.2150   35.3510 C   0  0  1  0  0  3  0  0  0  0  0  0
   40.1510   24.4560   34.5740 O   0  0  0  0  0  0  0  0  0  0  0  0
   40.4190   23.2630   35.1960 C   0  0  0  0  0  2  0  0  0  0  0  0
   39.5540   23.1660   36.4180 C   0  0  2  0  0  3  0  0  0  0  0  0
   38.0050   24.6780   37.3070 O   0  0  0  0  0  0  0  0  0  0  0  0
   38.5570   25.3730   37.7000 H   0  0  0  0  0  0  0  0  0  0  0  0
   38.9920   21.9110   36.5870 O   0  0  0  0  0  0  0  0  0  0  0  0
   38.2650   21.8050   35.9330 H   0  0  0  0  0  0  0  0  0  0  0  0
  1  5  2  0  0  0  0
  1 24  1  0  0  0  0
  2  1  1  0  0  0  0
  3  2  2  0  0  0  0
  3  4  1  0  0  0  0
  4 12  1  0  0  0  0
  4  5  1  0  0  0  0
  6  2  1  0  0  0  0
  7  3  1  0  0  0  0
  8  9  1  0  0  0  0
  8 13  1  0  0  0  0
  9 10  1  0  0  0  0
  9 15  1  0  0  0  0
 10 11  1  0  0  0  0
 10 17  1  0  0  0  0
 11 18  1  0  0  0  0
 12 20  1  6  0  0  0
 12  8  1  0  0  0  0
 12 11  1  0  0  0  0
 14  9  1  0  0  0  0
 16 10  1  0  0  0  0
 19 11  1  0  0  0  0
 21 20  1  0  0  0  0
 22 20  1  0  0  0  0
 23 28  2  0  0  0  0
 23 24  1  0  0  0  0
 24 25  2  0  0  0  0
 25 26  1  0  0  0  0
 25 30  1  0  0  0  0
 27 26  2  0  0  0  0
 28 27  1  0  0  0  0
 29 23  1  0  0  0  0
 31 35  1  0  0  0  0
 31 36  1  1  0  0  0
 32 27  1  6  0  0  0
 32 31  1  0  0  0  0
 33 34  1  0  0  0  0
 33 32  1  0  0  0  0
 34 35  1  0  0  0  0
 35 38  1  6  0  0  0
 36 37  1  0  0  0  0
 39 38  1  0  0  0  0
M  END
>  <minimizedAffinity>
-5.51425171

$$$$

 OpenBabel03272501283D

 39 42  0  0  1  0  0  0  0  0999 V2000
   36.1090   27.7060   31.8640 C   0  0  0  0  0  0  0  0  0  0  0  0
   35.9970   28.3790   33.0780 C   0  0  0  0  0  0  0  0  0  0  0  0
   35.9520   29.7470   32.7800 C   0  0  0  0  0  0  0  0  0  0  0  0
   36.0370   29.8450   31.4330 N   0  0  0  0  0  0  0  0  0  0  0  0
   36.1290   28.6250   30.9200 N   0  0  0  0  0  0  0  0  0  0  0  0
   35.9490   27.9670   34.0930 H   0  0  0  0  0  0  0  0  0  0  0  0
   35.8650   30.5690   33.5000 H   0  0  0  0  0  0  0  0  0  0  0  0
   34.7230   31.6000   30.4640 N   0  0  0  0  0  0  0  0  0  0  0  0
   34.9710   32.9600   30.0240 C   0  0  0  0  0  0  0  0  0  0  0  0
   36.3940   33.2980   30.3760 C   0  0  0  0  0  0  0  0  0  0  0  0
   36.7650   32.1500   31.3160 C   0  0  0  0  0  0  0  0  0  0  0  0
   36.0340   31.0150   30.6430 C   0  0  1  0  0  0  0  0  0  0  0  0
   34.2700   31.6110   31.4040 H   0  0  0  0  0  0  0  0  0  0  0  0
   34.8710   33.0110   28.9170 H   0  0  0  0  0  0  0  0  0  0  0  0
   34.2510   33.6610   30.4910 H   0  0  0  0  0  0  0  0  0  0  0  0
   37.0530   33.3670   29.5080 H   0  0  0  0  0  0  0  0  0  0  0  0
   36.3940   34.2370   30.9860 H   0  0  0  0  0  0  0  0  0  0  0  0
   36.4240   32.3410   32.3360 H   0  0  0  0  0  0  0  0  0  0  0  0
   37.8530   31.9350   31.2410 H   0  0  0  0  0  0  0  0  0  0  0  0
   36.6780   30.7420   29.3880 N   0  0  0  0  0  0  0  0  0  0  0  0
   37.6970   30.9170   29.4450 H   0  0  0  0  0  0  0  0  0  0  0  0
   36.5340   29.7560   29.0770 H   0  0  0  0  0  0  0  0  0  0  0  0
   35.3100   25.4810   31.0010 C   0  0  0  0  0  0  0  0  0  0  0  0
   36.1830   26.2540   31.8000 C   0  0  0  0  0  0  0  0  0  0  0  0
   37.1480   25.5730   32.5540 C   0  0  0  0  0  0  0  0  0  0  0  0
   37.1770   24.2230   32.4620 N   0  0  0  0  0  0  0  0  0  0  0  0
   36.3230   23.5060   31.6830 C   0  0  0  0  0  0  0  0  0  0  0  0
   35.3740   24.1650   30.9420 N   0  0  0  0  0  0  0  0  0  0  0  0
   34.5580   25.9920   30.4140 H   0  0  0  0  0  0  0  0  0  0  0  0
   37.8470   26.1040   33.1860 H   0  0  0  0  0  0  0  0  0  0  0  0
   36.3140   21.4820   33.1220 C   0  0  1  0  0  3  0  0  0  0  0  0
   36.5640   22.0370   31.7600 C   0  0  1  0  0  3  0  0  0  0  0  0
   35.6790   21.3650   30.9560 O   0  0  0  0  0  0  0  0  0  0  0  0
   35.4510   20.1080   31.4530 C   0  0  0  0  0  2  0  0  0  0  0  0
   36.1250   20.0010   32.7890 C   0  0  2  0  0  3  0  0  0  0  0  0
   37.4200   21.5560   33.9650 O   0  0  0  0  0  0  0  0  0  0  0  0
   38.2670   21.5610   33.4890 H   0  0  0  0  0  0  0  0  0  0  0  0
   35.3460   19.3660   33.7420 O   0  0  0  0  0  0  0  0  0  0  0  0
   34.6390   19.9860   34.0290 H   0  0  0  0  0  0  0  0  0  0  0  0
  1  2  1  0  0  0  0
  2  6  1  0  0  0  0
  3  2  2  0  0  0  0
  3  7  1  0  0  0  0
  4  3  1  0  0  0  0
  5  4  1  0  0  0  0
  5  1  2  0  0  0  0
  8 12  1  0  0  0  0
  8 13  1  0  0  0  0
  9 10  1  0  0  0  0
  9  8  1  0  0  0  0
  9 15  1  0  0  0  0
 10 17  1  0  0  0  0
 10 11  1  0  0  0  0
 11 18  1  0  0  0  0
 12 20  1  6  0  0  0
 12 11  1  0  0  0  0
 12  4  1  0  0  0  0
 14  9  1  0  0  0  0
 16 10  1  0  0  0  0
 19 11  1  0  0  0  0
 20 21  1  0  0  0  0
 22 20  1  0  0  0  0
 23 24  1  0  0  0  0
 24  1  1  0  0  0  0
 24 25  2  0  0  0  0
 25 30  1  0  0  0  0
 26 25  1  0  0  0  0
 27 26  2  0  0  0  0
 28 23  2  0  0  0  0
 28 27  1  0  0  0  0
 29 23  1  0  0  0  0
 31 36  1  1  0  0  0
 32 27  1  1  0  0  0
 32 31  1  0  0  0  0
 33 34  1  0  0  0  0
 33 32  1  0  0  0  0
 34 35  1  0  0  0  0
 35 31  1  0  0  0  0
 35 38  1  1  0  0  0
 37 36  1  0  0  0  0
 38 39  1  0  0  0  0
M  END
>  <minimizedAffinity>
-5.48709536

$$$$

 OpenBabel03272501283D

 39 42  0  0  1  0  0  0  0  0999 V2000
   35.9940   29.1060   33.7270 C   0  0  0  0  0  0  0  0  0  0  0  0
   35.7090   29.7930   32.5490 C   0  0  0  0  0  0  0  0  0  0  0  0
   35.1160   31.0060   32.9220 C   0  0  0  0  0  0  0  0  0  0  0  0
   35.0660   31.0040   34.2750 N   0  0  0  0  0  0  0  0  0  0  0  0
   35.5910   29.8710   34.7210 N   0  0  0  0  0  0  0  0  0  0  0  0
   35.8920   29.4900   31.5120 H   0  0  0  0  0  0  0  0  0  0  0  0
   34.7630   31.7950   32.2470 H   0  0  0  0  0  0  0  0  0  0  0  0
   33.1690   31.8180   35.4960 N   0  0  0  0  0  0  0  0  0  0  0  0
   32.9690   32.6540   36.6640 C   0  0  0  0  0  0  0  0  0  0  0  0
   34.3240   32.9700   37.2340 C   0  0  0  0  0  0  0  0  0  0  0  0
   35.2170   31.9790   36.4850 C   0  0  0  0  0  0  0  0  0  0  0  0
   34.5560   32.0060   35.1290 C   0  0  1  0  0  0  0  0  0  0  0  0
   33.0640   30.8130   35.7590 H   0  0  0  0  0  0  0  0  0  0  0  0
   32.4960   33.6130   36.3520 H   0  0  0  0  0  0  0  0  0  0  0  0
   32.3160   32.1460   37.4030 H   0  0  0  0  0  0  0  0  0  0  0  0
   34.6260   34.0090   37.0890 H   0  0  0  0  0  0  0  0  0  0  0  0
   34.3330   32.6710   38.3130 H   0  0  0  0  0  0  0  0  0  0  0  0
   35.2040   30.9940   36.9540 H   0  0  0  0  0  0  0  0  0  0  0  0
   36.2380   32.4040   36.3650 H   0  0  0  0  0  0  0  0  0  0  0  0
   34.7870   33.2950   34.5370 N   0  0  0  0  0  0  0  0  0  0  0  0
   35.7060   33.6770   34.8210 H   0  0  0  0  0  0  0  0  0  0  0  0
   34.7550   33.2620   33.4950 H   0  0  0  0  0  0  0  0  0  0  0  0
   36.7240   27.0120   32.5370 C   0  0  0  0  0  0  0  0  0  0  0  0
   36.6210   27.7930   33.7110 C   0  0  0  0  0  0  0  0  0  0  0  0
   37.1510   27.2610   34.8930 C   0  0  0  0  0  0  0  0  0  0  0  0
   37.7240   26.0360   34.8280 N   0  0  0  0  0  0  0  0  0  0  0  0
   37.8080   25.3080   33.6820 C   0  0  0  0  0  0  0  0  0  0  0  0
   37.2910   25.8220   32.5200 N   0  0  0  0  0  0  0  0  0  0  0  0
   36.3180   27.4100   31.6150 H   0  0  0  0  0  0  0  0  0  0  0  0
   37.1060   27.8060   35.8270 H   0  0  0  0  0  0  0  0  0  0  0  0
   38.9910   23.8110   35.2700 C   0  0  1  0  0  3  0  0  0  0  0  0
   38.4840   23.9940   33.8790 C   0  0  1  0  0  3  0  0  0  0  0  0
   37.5910   22.9670   33.7090 O   0  0  0  0  0  0  0  0  0  0  0  0
   37.9720   21.8820   34.4570 C   0  0  0  0  0  2  0  0  0  0  0  0
   39.1330   22.2880   35.3160 C   0  0  2  0  0  3  0  0  0  0  0  0
   40.2690   24.3290   35.4690 O   0  0  0  0  0  0  0  0  0  0  0  0
   40.8030   24.3600   34.6580 H   0  0  0  0  0  0  0  0  0  0  0  0
   39.0410   21.8130   36.6140 O   0  0  0  0  0  0  0  0  0  0  0  0
   38.3640   22.3430   37.0920 H   0  0  0  0  0  0  0  0  0  0  0  0
  1  5  2  0  0  0  0
  2  3  2  0  0  0  0
  2  1  1  0  0  0  0
  3  4  1  0  0  0  0
  4  5  1  0  0  0  0
  4 12  1  0  0  0  0
  6  2  1  0  0  0  0
  7  3  1  0  0  0  0
  8 13  1  0  0  0  0
  8  9  1  0  0  0  0
  9 10  1  0  0  0  0
  9 15  1  0  0  0  0
 10 17  1  0  0  0  0
 11 18  1  0  0  0  0
 11 10  1  0  0  0  0
 12 20  1  6  0  0  0
 12  8  1  0  0  0  0
 12 11  1  0  0  0  0
 14  9  1  0  0  0  0
 16 10  1  0  0  0  0
 19 11  1  0  0  0  0
 20 21  1  0  0  0  0
 22 20  1  0  0  0  0
 23 24  1  0  0  0  0
 24  1  1  0  0  0  0
 24 25  2  0  0  0  0
 25 30  1  0  0  0  0
 26 25  1  0  0  0  0
 27 26  2  0  0  0  0
 28 23  2  0  0  0  0
 28 27  1  0  0  0  0
 29 23  1  0  0  0  0
 31 35  1  0  0  0  0
 31 36  1  6  0  0  0
 32 27  1  1  0  0  0
 32 31  1  0  0  0  0
 33 32  1  0  0  0  0
 33 34  1  0  0  0  0
 34 35  1  0  0  0  0
 35 38  1  1  0  0  0
 37 36  1  0  0  0  0
 38 39  1  0  0  0  0
M  END
>  <minimizedAffinity>
-5.47161818

$$$$
