
 OpenBabel03272504543D

 25 27  0  0  1  0  0  0  0  0999 V2000
   39.9110   23.0500   37.0360 C   0  0  0  0  0  0  0  0  0  0  0  0
   39.0120   23.1680   38.1100 C   0  0  0  0  0  0  0  0  0  0  0  0
   37.9440   24.0460   37.9100 C   0  0  0  0  0  0  0  0  0  0  0  0
   37.8310   24.7210   36.7220 N   0  0  0  0  0  0  0  0  0  0  0  0
   38.7190   24.5750   35.7180 C   0  0  0  0  0  0  0  0  0  0  0  0
   39.7730   23.7280   35.8790 N   0  0  0  0  0  0  0  0  0  0  0  0
   39.1170   22.6320   39.0270 H   0  0  0  0  0  0  0  0  0  0  0  0
   37.1890   24.2160   38.6680 H   0  0  0  0  0  0  0  0  0  0  0  0
   41.0560   22.0900   37.2140 C   0  0  0  0  0  0  0  0  0  0  0  0
   41.7820   21.5610   36.0640 C   0  0  0  0  0  0  0  0  0  0  0  0
   42.4030   22.6880   36.8460 C   0  0  0  0  0  0  0  0  0  0  0  0
   41.0430   21.4870   38.1670 H   0  0  0  0  0  0  0  0  0  0  0  0
   42.2260   20.5670   36.0400 H   0  0  0  0  0  0  0  0  0  0  0  0
   41.3970   21.9180   35.0650 H   0  0  0  0  0  0  0  0  0  0  0  0
   43.2410   22.3720   37.4940 H   0  0  0  0  0  0  0  0  0  0  0  0
   42.4370   23.7030   36.4540 H   0  0  0  0  0  0  0  0  0  0  0  0
   39.3130   26.6130   34.3930 C   0  0  1  0  0  3  0  0  0  0  0  0
   38.5150   25.3480   34.4690 C   0  0  2  0  0  3  0  0  0  0  0  0
   37.2030   25.7670   34.2890 O   0  0  0  0  0  0  0  0  0  0  0  0
   37.0540   26.9800   34.8990 C   0  0  0  0  0  2  0  0  0  0  0  0
   38.3960   27.5980   35.0870 C   0  0  1  0  0  3  0  0  0  0  0  0
   40.5600   26.5380   35.0020 O   0  0  0  0  0  0  0  0  0  0  0  0
   41.2390   26.3850   34.2730 H   0  0  0  0  0  0  0  0  0  0  0  0
   38.7420   27.6110   36.4360 O   0  0  0  0  0  0  0  0  0  0  0  0
   38.0840   28.0740   37.0090 H   0  0  0  0  0  0  0  0  0  0  0  0
  1  9  1  0  0  0  0
  1  2  1  0  0  0  0
  2  7  1  0  0  0  0
  3  2  2  0  0  0  0
  3  8  1  0  0  0  0
  4  3  1  0  0  0  0
  5  6  1  0  0  0  0
  5  4  2  0  0  0  0
  6  1  2  0  0  0  0
  9 12  1  0  0  0  0
 10 11  1  0  0  0  0
 10  9  1  0  0  0  0
 11  9  1  0  0  0  0
 11 15  1  0  0  0  0
 13 10  1  0  0  0  0
 14 10  1  0  0  0  0
 16 11  1  0  0  0  0
 17 18  1  0  0  0  0
 17 22  1  1  0  0  0
 17 21  1  0  0  0  0
 18  5  1  1  0  0  0
 19 18  1  0  0  0  0
 19 20  1  0  0  0  0
 20 21  1  0  0  0  0
 21 24  1  1  0  0  0
 23 22  1  0  0  0  0
 24 25  1  0  0  0  0
M  END
>  <minimizedAffinity>
-4.99174833

$$$$

 OpenBabel03272504543D

 25 27  0  0  1  0  0  0  0  0999 V2000
   36.8060   21.4720   33.8380 C   0  0  0  0  0  0  0  0  0  0  0  0
   35.9590   20.7440   34.6920 C   0  0  0  0  0  0  0  0  0  0  0  0
   36.0230   21.0910   36.0440 C   0  0  0  0  0  0  0  0  0  0  0  0
   36.8740   22.0840   36.4520 N   0  0  0  0  0  0  0  0  0  0  0  0
   37.6690   22.7560   35.5950 C   0  0  0  0  0  0  0  0  0  0  0  0
   37.6340   22.4440   34.2700 N   0  0  0  0  0  0  0  0  0  0  0  0
   35.3020   19.9750   34.3530 H   0  0  0  0  0  0  0  0  0  0  0  0
   35.4160   20.5980   36.7930 H   0  0  0  0  0  0  0  0  0  0  0  0
   36.7380   21.1380   32.3720 C   0  0  0  0  0  0  0  0  0  0  0  0
   35.5410   20.5420   31.7880 C   0  0  0  0  0  0  0  0  0  0  0  0
   35.7710   22.0180   31.6000 C   0  0  0  0  0  0  0  0  0  0  0  0
   37.7310   20.9580   31.8670 H   0  0  0  0  0  0  0  0  0  0  0  0
   35.5630   19.8470   30.9510 H   0  0  0  0  0  0  0  0  0  0  0  0
   34.7100   20.3470   32.5270 H   0  0  0  0  0  0  0  0  0  0  0  0
   36.1060   22.2900   30.5820 H   0  0  0  0  0  0  0  0  0  0  0  0
   35.1890   22.7600   32.1430 H   0  0  0  0  0  0  0  0  0  0  0  0
   40.0190   23.4950   36.0370 C   0  0  1  0  0  3  0  0  0  0  0  0
   38.5590   23.8160   36.1300 C   0  0  2  0  0  3  0  0  0  0  0  0
   38.3570   24.0750   37.4800 O   0  0  0  0  0  0  0  0  0  0  0  0
   39.1550   23.2350   38.2010 C   0  0  0  0  0  2  0  0  0  0  0  0
   40.2490   22.7300   37.3230 C   0  0  1  0  0  3  0  0  0  0  0  0
   40.3690   22.7530   34.9150 O   0  0  0  0  0  0  0  0  0  0  0  0
   40.7450   23.3980   34.2380 H   0  0  0  0  0  0  0  0  0  0  0  0
   40.0640   21.3780   37.0440 O   0  0  0  0  0  0  0  0  0  0  0  0
   40.0030   20.8120   37.8510 H   0  0  0  0  0  0  0  0  0  0  0  0
  1  6  2  0  0  0  0
  1  2  1  0  0  0  0
  2  3  2  0  0  0  0
  3  4  1  0  0  0  0
  3  8  1  0  0  0  0
  5  4  2  0  0  0  0
  6  5  1  0  0  0  0
  7  2  1  0  0  0  0
  9  1  1  0  0  0  0
 10  9  1  0  0  0  0
 10 14  1  0  0  0  0
 11 10  1  0  0  0  0
 11 16  1  0  0  0  0
 11  9  1  0  0  0  0
 12  9  1  0  0  0  0
 13 10  1  0  0  0  0
 15 11  1  0  0  0  0
 17 22  1  6  0  0  0
 17 18  1  0  0  0  0
 17 21  1  0  0  0  0
 18  5  1  1  0  0  0
 18 19  1  0  0  0  0
 19 20  1  0  0  0  0
 21 24  1  6  0  0  0
 21 20  1  0  0  0  0
 23 22  1  0  0  0  0
 24 25  1  0  0  0  0
M  END
>  <minimizedAffinity>
-4.45074177

$$$$

 OpenBabel03272504543D

 25 27  0  0  1  0  0  0  0  0999 V2000
   37.5590   22.3010   32.7630 C   0  0  0  0  0  0  0  0  0  0  0  0
   38.4090   21.3070   32.2490 C   0  0  0  0  0  0  0  0  0  0  0  0
   39.6450   21.1790   32.8880 C   0  0  0  0  0  0  0  0  0  0  0  0
   39.9530   21.9980   33.9440 N   0  0  0  0  0  0  0  0  0  0  0  0
   39.1030   22.9390   34.4030 C   0  0  0  0  0  0  0  0  0  0  0  0
   37.8910   23.0920   33.8040 N   0  0  0  0  0  0  0  0  0  0  0  0
   38.1500   20.6790   31.4260 H   0  0  0  0  0  0  0  0  0  0  0  0
   40.3800   20.4470   32.5780 H   0  0  0  0  0  0  0  0  0  0  0  0
   36.2110   22.4430   32.1110 C   0  0  0  0  0  0  0  0  0  0  0  0
   35.7340   21.4600   31.1430 C   0  0  0  0  0  0  0  0  0  0  0  0
   35.2150   21.3850   32.5550 C   0  0  0  0  0  0  0  0  0  0  0  0
   35.8030   23.4930   32.0570 H   0  0  0  0  0  0  0  0  0  0  0  0
   35.0840   21.7090   30.3060 H   0  0  0  0  0  0  0  0  0  0  0  0
   36.4630   20.6250   30.9290 H   0  0  0  0  0  0  0  0  0  0  0  0
   34.1770   21.7470   32.6670 H   0  0  0  0  0  0  0  0  0  0  0  0
   35.5450   20.6100   33.2440 H   0  0  0  0  0  0  0  0  0  0  0  0
   39.4790   23.0760   36.8740 C   0  0  1  0  0  3  0  0  0  0  0  0
   39.5240   23.7790   35.5520 C   0  0  2  0  0  3  0  0  0  0  0  0
   38.7220   24.8980   35.7390 O   0  0  0  0  0  0  0  0  0  0  0  0
   37.6840   24.5490   36.5540 C   0  0  0  0  0  2  0  0  0  0  0  0
   38.0450   23.3100   37.2990 C   0  0  1  0  0  3  0  0  0  0  0  0
   39.7930   21.7240   36.8110 O   0  0  0  0  0  0  0  0  0  0  0  0
   40.7550   21.6280   37.0990 H   0  0  0  0  0  0  0  0  0  0  0  0
   37.2920   22.2300   36.8430 O   0  0  0  0  0  0  0  0  0  0  0  0
   36.3170   22.3750   36.9000 H   0  0  0  0  0  0  0  0  0  0  0  0
  1  6  1  0  0  0  0
  2  1  2  0  0  0  0
  2  3  1  0  0  0  0
  3  4  2  0  0  0  0
  4  5  1  0  0  0  0
  6  5  2  0  0  0  0
  7  2  1  0  0  0  0
  8  3  1  0  0  0  0
  9 11  1  0  0  0  0
  9  1  1  0  0  0  0
 10  9  1  0  0  0  0
 10 11  1  0  0  0  0
 11 15  1  0  0  0  0
 11 16  1  0  0  0  0
 12  9  1  0  0  0  0
 13 10  1  0  0  0  0
 14 10  1  0  0  0  0
 17 22  1  6  0  0  0
 17 21  1  0  0  0  0
 18  5  1  6  0  0  0
 18 19  1  0  0  0  0
 18 17  1  0  0  0  0
 19 20  1  0  0  0  0
 20 21  1  0  0  0  0
 21 24  1  6  0  0  0
 22 23  1  0  0  0  0
 24 25  1  0  0  0  0
M  END
>  <minimizedAffinity>
-4.40802574

$$$$

 OpenBabel03272504543D

 25 27  0  0  1  0  0  0  0  0999 V2000
   36.8010   28.0080   31.8910 C   0  0  0  0  0  0  0  0  0  0  0  0
   36.0830   29.1290   32.3420 C   0  0  0  0  0  0  0  0  0  0  0  0
   35.8550   29.1860   33.7190 C   0  0  0  0  0  0  0  0  0  0  0  0
   36.3250   28.1860   34.5290 N   0  0  0  0  0  0  0  0  0  0  0  0
   37.0100   27.1270   34.0500 C   0  0  0  0  0  0  0  0  0  0  0  0
   37.2510   27.0390   32.7130 N   0  0  0  0  0  0  0  0  0  0  0  0
   35.7260   29.8980   31.6940 H   0  0  0  0  0  0  0  0  0  0  0  0
   35.3130   30.0040   34.1780 H   0  0  0  0  0  0  0  0  0  0  0  0
   37.0850   27.9340   30.4150 C   0  0  0  0  0  0  0  0  0  0  0  0
   37.2400   29.1440   29.6150 C   0  0  0  0  0  0  0  0  0  0  0  0
   38.4800   28.4080   30.0480 C   0  0  0  0  0  0  0  0  0  0  0  0
   36.7480   26.9880   29.9010 H   0  0  0  0  0  0  0  0  0  0  0  0
   36.9500   29.2130   28.5680 H   0  0  0  0  0  0  0  0  0  0  0  0
   37.1100   30.1050   30.1930 H   0  0  0  0  0  0  0  0  0  0  0  0
   38.9630   27.8340   29.2360 H   0  0  0  0  0  0  0  0  0  0  0  0
   39.1270   28.7930   30.8330 H   0  0  0  0  0  0  0  0  0  0  0  0
   38.6440   26.5170   35.8450 C   0  0  1  0  0  3  0  0  0  0  0  0
   37.4800   26.0930   35.0040 C   0  0  2  0  0  3  0  0  0  0  0  0
   37.9200   24.9300   34.3830 O   0  0  0  0  0  0  0  0  0  0  0  0
   39.2490   25.0730   34.1000 C   0  0  0  0  0  2  0  0  0  0  0  0
   39.8150   26.1520   34.9570 C   0  0  1  0  0  3  0  0  0  0  0  0
   38.6420   27.8660   36.1820 O   0  0  0  0  0  0  0  0  0  0  0  0
   38.2850   27.9370   37.1220 H   0  0  0  0  0  0  0  0  0  0  0  0
   40.1240   27.2730   34.1900 O   0  0  0  0  0  0  0  0  0  0  0  0
   40.7450   27.0850   33.4460 H   0  0  0  0  0  0  0  0  0  0  0  0
  1  2  2  0  0  0  0
  1  6  1  0  0  0  0
  2  3  1  0  0  0  0
  3  8  1  0  0  0  0
  3  4  2  0  0  0  0
  5  4  1  0  0  0  0
  6  5  2  0  0  0  0
  7  2  1  0  0  0  0
  9  1  1  0  0  0  0
 10 11  1  0  0  0  0
 10 14  1  0  0  0  0
 10  9  1  0  0  0  0
 11  9  1  0  0  0  0
 11 16  1  0  0  0  0
 12  9  1  0  0  0  0
 13 10  1  0  0  0  0
 15 11  1  0  0  0  0
 17 22  1  6  0  0  0
 18  5  1  6  0  0  0
 18 17  1  0  0  0  0
 19 18  1  0  0  0  0
 20 19  1  0  0  0  0
 20 21  1  0  0  0  0
 21 24  1  6  0  0  0
 21 17  1  0  0  0  0
 22 23  1  0  0  0  0
 25 24  1  0  0  0  0
M  END
>  <minimizedAffinity>
-4.34677362

$$$$

 OpenBabel03272504543D

 25 27  0  0  1  0  0  0  0  0999 V2000
   36.5030   22.6340   31.5200 C   0  0  0  0  0  0  0  0  0  0  0  0
   37.8320   22.2210   31.7140 C   0  0  0  0  0  0  0  0  0  0  0  0
   38.7170   23.2130   32.1420 C   0  0  0  0  0  0  0  0  0  0  0  0
   38.2610   24.4900   32.3450 N   0  0  0  0  0  0  0  0  0  0  0  0
   36.9740   24.8400   32.1460 C   0  0  0  0  0  0  0  0  0  0  0  0
   36.0840   23.8990   31.7280 N   0  0  0  0  0  0  0  0  0  0  0  0
   38.1660   21.2200   31.5510 H   0  0  0  0  0  0  0  0  0  0  0  0
   39.7650   23.0100   32.3230 H   0  0  0  0  0  0  0  0  0  0  0  0
   35.5220   21.5790   31.0850 C   0  0  0  0  0  0  0  0  0  0  0  0
   35.8070   20.1600   31.2730 C   0  0  0  0  0  0  0  0  0  0  0  0
   34.8800   20.8400   32.2460 C   0  0  0  0  0  0  0  0  0  0  0  0
   34.8150   21.8810   30.2590 H   0  0  0  0  0  0  0  0  0  0  0  0
   35.4570   19.3830   30.5960 H   0  0  0  0  0  0  0  0  0  0  0  0
   36.8100   19.9450   31.7430 H   0  0  0  0  0  0  0  0  0  0  0  0
   33.8150   20.5850   32.0990 H   0  0  0  0  0  0  0  0  0  0  0  0
   35.1950   21.0810   33.2600 H   0  0  0  0  0  0  0  0  0  0  0  0
   36.2090   27.0060   31.1520 C   0  0  1  0  0  3  0  0  0  0  0  0
   36.5730   26.2470   32.3910 C   0  0  2  0  0  3  0  0  0  0  0  0
   37.5760   27.0130   32.9720 O   0  0  0  0  0  0  0  0  0  0  0  0
   38.3360   27.5500   31.9730 C   0  0  0  0  0  2  0  0  0  0  0  0
   37.5580   27.5270   30.7020 C   0  0  1  0  0  3  0  0  0  0  0  0
   35.5910   26.2370   30.1730 O   0  0  0  0  0  0  0  0  0  0  0  0
   34.6000   26.4080   30.2420 H   0  0  0  0  0  0  0  0  0  0  0  0
   38.0940   26.5920   29.8190 O   0  0  0  0  0  0  0  0  0  0  0  0
   39.0490   26.7410   29.6170 H   0  0  0  0  0  0  0  0  0  0  0  0
  1  2  2  0  0  0  0
  1  6  1  0  0  0  0
  2  3  1  0  0  0  0
  3  8  1  0  0  0  0
  3  4  2  0  0  0  0
  5  4  1  0  0  0  0
  6  5  2  0  0  0  0
  7  2  1  0  0  0  0
  9 10  1  0  0  0  0
  9  1  1  0  0  0  0
  9 11  1  0  0  0  0
 10 14  1  0  0  0  0
 10 11  1  0  0  0  0
 11 16  1  0  0  0  0
 12  9  1  0  0  0  0
 13 10  1  0  0  0  0
 15 11  1  0  0  0  0
 17 22  1  6  0  0  0
 17 18  1  0  0  0  0
 18  5  1  6  0  0  0
 18 19  1  0  0  0  0
 20 19  1  0  0  0  0
 21 24  1  6  0  0  0
 21 17  1  0  0  0  0
 21 20  1  0  0  0  0
 22 23  1  0  0  0  0
 25 24  1  0  0  0  0
M  END
>  <minimizedAffinity>
-4.31496048

$$$$

 OpenBabel03272504543D

 25 27  0  0  1  0  0  0  0  0999 V2000
   36.3160   21.3700   33.1040 C   0  0  0  0  0  0  0  0  0  0  0  0
   36.0870   22.3420   32.1150 C   0  0  0  0  0  0  0  0  0  0  0  0
   37.0500   23.3500   32.0240 C   0  0  0  0  0  0  0  0  0  0  0  0
   38.1280   23.3390   32.8710 N   0  0  0  0  0  0  0  0  0  0  0  0
   38.3060   22.3840   33.8060 C   0  0  0  0  0  0  0  0  0  0  0  0
   37.3860   21.3870   33.9230 N   0  0  0  0  0  0  0  0  0  0  0  0
   35.2400   22.3310   31.4650 H   0  0  0  0  0  0  0  0  0  0  0  0
   36.9770   24.1510   31.2990 H   0  0  0  0  0  0  0  0  0  0  0  0
   35.3080   20.2570   33.2070 C   0  0  0  0  0  0  0  0  0  0  0  0
   34.5820   19.7860   32.0320 C   0  0  0  0  0  0  0  0  0  0  0  0
   35.7540   18.9780   32.5220 C   0  0  0  0  0  0  0  0  0  0  0  0
   34.8360   20.1190   34.2220 H   0  0  0  0  0  0  0  0  0  0  0  0
   33.5650   19.4010   32.0680 H   0  0  0  0  0  0  0  0  0  0  0  0
   34.8330   20.3360   31.0780 H   0  0  0  0  0  0  0  0  0  0  0  0
   35.4660   18.0490   33.0460 H   0  0  0  0  0  0  0  0  0  0  0  0
   36.7050   18.9710   31.9910 H   0  0  0  0  0  0  0  0  0  0  0  0
   39.1950   22.6820   36.1260 C   0  0  1  0  0  3  0  0  0  0  0  0
   39.5040   22.4550   34.6780 C   0  0  2  0  0  3  0  0  0  0  0  0
   40.3620   23.4970   34.3500 O   0  0  0  0  0  0  0  0  0  0  0  0
   39.9680   24.6090   35.0370 C   0  0  0  0  0  2  0  0  0  0  0  0
   39.1240   24.1930   36.1930 C   0  0  1  0  0  3  0  0  0  0  0  0
   38.0190   22.0820   36.5590 O   0  0  0  0  0  0  0  0  0  0  0  0
   38.2760   21.2270   37.0270 H   0  0  0  0  0  0  0  0  0  0  0  0
   37.7960   24.5590   35.9840 O   0  0  0  0  0  0  0  0  0  0  0  0
   37.6740   25.5250   35.8190 H   0  0  0  0  0  0  0  0  0  0  0  0
  1  9  1  0  0  0  0
  1  6  1  0  0  0  0
  2  1  2  0  0  0  0
  3  2  1  0  0  0  0
  3  4  2  0  0  0  0
  4  5  1  0  0  0  0
  5  6  2  0  0  0  0
  7  2  1  0  0  0  0
  8  3  1  0  0  0  0
  9 12  1  0  0  0  0
 10 13  1  0  0  0  0
 10 11  1  0  0  0  0
 10  9  1  0  0  0  0
 11 15  1  0  0  0  0
 11  9  1  0  0  0  0
 14 10  1  0  0  0  0
 16 11  1  0  0  0  0
 17 21  1  0  0  0  0
 17 22  1  6  0  0  0
 18  5  1  6  0  0  0
 18 17  1  0  0  0  0
 19 18  1  0  0  0  0
 19 20  1  0  0  0  0
 20 21  1  0  0  0  0
 21 24  1  6  0  0  0
 22 23  1  0  0  0  0
 25 24  1  0  0  0  0
M  END
>  <minimizedAffinity>
-4.30445862

$$$$

 OpenBabel03272504543D

 25 27  0  0  1  0  0  0  0  0999 V2000
   35.9220   28.8910   33.6900 C   0  0  0  0  0  0  0  0  0  0  0  0
   35.9720   28.6730   32.3030 C   0  0  0  0  0  0  0  0  0  0  0  0
   36.6000   27.4920   31.9000 C   0  0  0  0  0  0  0  0  0  0  0  0
   37.1140   26.6390   32.8420 N   0  0  0  0  0  0  0  0  0  0  0  0
   37.0420   26.8910   34.1650 C   0  0  0  0  0  0  0  0  0  0  0  0
   36.4380   28.0330   34.5930 N   0  0  0  0  0  0  0  0  0  0  0  0
   35.5650   29.3500   31.5860 H   0  0  0  0  0  0  0  0  0  0  0  0
   36.6970   27.2190   30.8560 H   0  0  0  0  0  0  0  0  0  0  0  0
   35.2280   30.1430   34.1540 C   0  0  0  0  0  0  0  0  0  0  0  0
   34.0770   30.6790   33.4340 C   0  0  0  0  0  0  0  0  0  0  0  0
   33.8300   29.8900   34.6930 C   0  0  0  0  0  0  0  0  0  0  0  0
   35.8570   30.8520   34.7660 H   0  0  0  0  0  0  0  0  0  0  0  0
   33.8500   31.7420   33.3690 H   0  0  0  0  0  0  0  0  0  0  0  0
   33.7860   30.0890   32.5160 H   0  0  0  0  0  0  0  0  0  0  0  0
   33.5510   30.5140   35.5610 H   0  0  0  0  0  0  0  0  0  0  0  0
   33.4320   28.8780   34.6630 H   0  0  0  0  0  0  0  0  0  0  0  0
   38.8030   26.4250   35.8800 C   0  0  1  0  0  3  0  0  0  0  0  0
   37.6270   25.9090   35.1100 C   0  0  2  0  0  3  0  0  0  0  0  0
   38.1090   24.7640   34.4870 O   0  0  0  0  0  0  0  0  0  0  0  0
   39.4090   24.9870   34.1300 C   0  0  0  0  0  2  0  0  0  0  0  0
   39.9480   26.1170   34.9370 C   0  0  1  0  0  3  0  0  0  0  0  0
   38.7310   27.7770   36.1930 O   0  0  0  0  0  0  0  0  0  0  0  0
   38.4190   27.8440   37.1490 H   0  0  0  0  0  0  0  0  0  0  0  0
   40.1420   27.2400   34.1350 O   0  0  0  0  0  0  0  0  0  0  0  0
   40.7350   27.0760   33.3630 H   0  0  0  0  0  0  0  0  0  0  0  0
  1  9  1  0  0  0  0
  1  6  1  0  0  0  0
  2  1  2  0  0  0  0
  3  2  1  0  0  0  0
  3  4  2  0  0  0  0
  4  5  1  0  0  0  0
  5  6  2  0  0  0  0
  7  2  1  0  0  0  0
  8  3  1  0  0  0  0
  9 11  1  0  0  0  0
  9 12  1  0  0  0  0
 10  9  1  0  0  0  0
 10 11  1  0  0  0  0
 11 15  1  0  0  0  0
 13 10  1  0  0  0  0
 14 10  1  0  0  0  0
 16 11  1  0  0  0  0
 17 22  1  6  0  0  0
 18  5  1  6  0  0  0
 18 17  1  0  0  0  0
 19 18  1  0  0  0  0
 20 19  1  0  0  0  0
 20 21  1  0  0  0  0
 21 24  1  6  0  0  0
 21 17  1  0  0  0  0
 22 23  1  0  0  0  0
 25 24  1  0  0  0  0
M  END
>  <minimizedAffinity>
-4.30351973

$$$$

 OpenBabel03272504543D

 25 27  0  0  1  0  0  0  0  0999 V2000
   36.1050   22.8130   31.6780 C   0  0  0  0  0  0  0  0  0  0  0  0
   35.5470   24.0410   31.2840 C   0  0  0  0  0  0  0  0  0  0  0  0
   36.1540   25.1790   31.8210 C   0  0  0  0  0  0  0  0  0  0  0  0
   37.2220   25.0450   32.6690 N   0  0  0  0  0  0  0  0  0  0  0  0
   37.7240   23.8430   33.0180 C   0  0  0  0  0  0  0  0  0  0  0  0
   37.1570   22.7130   32.5150 N   0  0  0  0  0  0  0  0  0  0  0  0
   34.7150   24.1240   30.6210 H   0  0  0  0  0  0  0  0  0  0  0  0
   35.8090   26.1790   31.5880 H   0  0  0  0  0  0  0  0  0  0  0  0
   35.4880   21.5710   31.0930 C   0  0  0  0  0  0  0  0  0  0  0  0
   36.0210   20.2470   31.3990 C   0  0  0  0  0  0  0  0  0  0  0  0
   34.7850   20.7070   32.1260 C   0  0  0  0  0  0  0  0  0  0  0  0
   34.9260   21.7140   30.1250 H   0  0  0  0  0  0  0  0  0  0  0  0
   35.9980   19.4140   30.6990 H   0  0  0  0  0  0  0  0  0  0  0  0
   36.9230   20.2540   32.0790 H   0  0  0  0  0  0  0  0  0  0  0  0
   33.8550   20.2270   31.7700 H   0  0  0  0  0  0  0  0  0  0  0  0
   34.8160   21.0090   33.1710 H   0  0  0  0  0  0  0  0  0  0  0  0
   39.2310   22.4200   34.4210 C   0  0  1  0  0  3  0  0  0  0  0  0
   38.8830   23.7960   33.9430 C   0  0  2  0  0  3  0  0  0  0  0  0
   38.6820   24.5170   35.1140 O   0  0  0  0  0  0  0  0  0  0  0  0
   38.0950   23.6910   36.0300 C   0  0  0  0  0  2  0  0  0  0  0  0
   38.3300   22.2760   35.6300 C   0  0  1  0  0  3  0  0  0  0  0  0
   39.0130   21.4190   33.4820 O   0  0  0  0  0  0  0  0  0  0  0  0
   39.9040   21.2050   33.0630 H   0  0  0  0  0  0  0  0  0  0  0  0
   37.1430   21.6870   35.1980 O   0  0  0  0  0  0  0  0  0  0  0  0
   36.4180   21.7240   35.8680 H   0  0  0  0  0  0  0  0  0  0  0  0
  1  6  1  0  0  0  0
  2  1  2  0  0  0  0
  2  3  1  0  0  0  0
  3  4  2  0  0  0  0
  4  5  1  0  0  0  0
  6  5  2  0  0  0  0
  7  2  1  0  0  0  0
  8  3  1  0  0  0  0
  9 10  1  0  0  0  0
  9  1  1  0  0  0  0
  9 11  1  0  0  0  0
 10 14  1  0  0  0  0
 10 11  1  0  0  0  0
 11 16  1  0  0  0  0
 12  9  1  0  0  0  0
 13 10  1  0  0  0  0
 15 11  1  0  0  0  0
 17 22  1  6  0  0  0
 17 21  1  0  0  0  0
 18  5  1  6  0  0  0
 18 17  1  0  0  0  0
 18 19  1  0  0  0  0
 19 20  1  0  0  0  0
 21 24  1  6  0  0  0
 21 20  1  0  0  0  0
 23 22  1  0  0  0  0
 24 25  1  0  0  0  0
M  END
>  <minimizedAffinity>
-4.29798508

$$$$

 OpenBabel03272504543D

 25 27  0  0  1  0  0  0  0  0999 V2000
   36.7360   21.3350   33.4230 C   0  0  0  0  0  0  0  0  0  0  0  0
   35.6540   20.7790   34.1280 C   0  0  0  0  0  0  0  0  0  0  0  0
   35.7260   20.8790   35.5190 C   0  0  0  0  0  0  0  0  0  0  0  0
   36.8040   21.4920   36.1030 N   0  0  0  0  0  0  0  0  0  0  0  0
   37.8200   22.0120   35.3850 C   0  0  0  0  0  0  0  0  0  0  0  0
   37.7840   21.9320   34.0260 N   0  0  0  0  0  0  0  0  0  0  0  0
   34.8230   20.3070   33.6530 H   0  0  0  0  0  0  0  0  0  0  0  0
   34.9500   20.4860   36.1650 H   0  0  0  0  0  0  0  0  0  0  0  0
   36.6720   21.2660   31.9210 C   0  0  0  0  0  0  0  0  0  0  0  0
   35.4060   21.0540   31.2280 C   0  0  0  0  0  0  0  0  0  0  0  0
   35.9600   22.4520   31.2950 C   0  0  0  0  0  0  0  0  0  0  0  0
   37.6260   20.9530   31.4070 H   0  0  0  0  0  0  0  0  0  0  0  0
   35.3190   20.5150   30.2860 H   0  0  0  0  0  0  0  0  0  0  0  0
   34.5150   20.9330   31.9120 H   0  0  0  0  0  0  0  0  0  0  0  0
   36.3980   22.8030   30.3420 H   0  0  0  0  0  0  0  0  0  0  0  0
   35.5260   23.2080   31.9470 H   0  0  0  0  0  0  0  0  0  0  0  0
   38.6310   24.0190   36.6400 C   0  0  1  0  0  3  0  0  0  0  0  0
   38.9450   22.6560   36.1050 C   0  0  2  0  0  3  0  0  0  0  0  0
   40.0660   22.8580   35.3080 O   0  0  0  0  0  0  0  0  0  0  0  0
   39.9430   24.0730   34.6980 C   0  0  0  0  0  2  0  0  0  0  0  0
   38.9590   24.8990   35.4520 C   0  0  1  0  0  3  0  0  0  0  0  0
   37.3160   24.1760   37.0620 O   0  0  0  0  0  0  0  0  0  0  0  0
   37.3120   24.0780   38.0650 H   0  0  0  0  0  0  0  0  0  0  0  0
   37.7890   25.0590   34.7140 O   0  0  0  0  0  0  0  0  0  0  0  0
   37.9350   25.4550   33.8220 H   0  0  0  0  0  0  0  0  0  0  0  0
  1  6  2  0  0  0  0
  1  2  1  0  0  0  0
  2  3  2  0  0  0  0
  3  4  1  0  0  0  0
  3  8  1  0  0  0  0
  5  4  2  0  0  0  0
  6  5  1  0  0  0  0
  7  2  1  0  0  0  0
  9  1  1  0  0  0  0
 10 11  1  0  0  0  0
 10 14  1  0  0  0  0
 10  9  1  0  0  0  0
 11  9  1  0  0  0  0
 11 16  1  0  0  0  0
 12  9  1  0  0  0  0
 13 10  1  0  0  0  0
 15 11  1  0  0  0  0
 17 22  1  6  0  0  0
 18  5  1  6  0  0  0
 18 17  1  0  0  0  0
 19 18  1  0  0  0  0
 20 19  1  0  0  0  0
 20 21  1  0  0  0  0
 21 24  1  6  0  0  0
 21 17  1  0  0  0  0
 22 23  1  0  0  0  0
 25 24  1  0  0  0  0
M  END
>  <minimizedAffinity>
-4.29366779

$$$$
