
 OpenBabel03272504153D

 24 25  0  0  1  0  0  0  0  0999 V2000
   37.3000   30.4920   46.6930 C   0  0  0  0  0  0  0  0  0  0  0  0
   37.8510   30.4230   45.4000 C   0  0  0  0  0  0  0  0  0  0  0  0
   36.9470   30.1880   44.3640 C   0  0  0  0  0  0  0  0  0  0  0  0
   35.6210   30.0410   44.6120 N   0  0  0  0  0  0  0  0  0  0  0  0
   35.1340   30.1190   45.8880 C   0  0  0  0  0  0  0  0  0  0  0  0
   35.9790   30.3430   46.9070 N   0  0  0  0  0  0  0  0  0  0  0  0
   37.2960   30.1190   43.3550 H   0  0  0  0  0  0  0  0  0  0  0  0
   34.0830   30.0040   46.0990 H   0  0  0  0  0  0  0  0  0  0  0  0
   39.8860   31.8030   45.8210 C   0  0  2  0  0  0  0  0  0  0  0  0
   39.3020   30.6000   45.2050 C   0  0  2  0  0  0  0  0  0  0  0  0
   39.4740   30.8450   43.8540 O   0  0  0  0  0  0  0  0  0  0  0  0
   39.5820   32.1940   43.6010 C   0  0  0  0  0  0  0  0  0  0  0  0
   39.2900   32.8840   44.9490 C   0  0  2  0  0  0  0  0  0  0  0  0
   41.2560   31.8040   45.5620 O   0  0  0  0  0  0  0  0  0  0  0  0
   41.7840   32.2250   46.2710 H   0  0  0  0  0  0  0  0  0  0  0  0
   39.9060   34.1030   45.0520 O   0  0  0  0  0  0  0  0  0  0  0  0
   39.3220   34.6870   45.6060 H   0  0  0  0  0  0  0  0  0  0  0  0
   38.0530   30.7170   47.8330 O   0  0  0  0  0  0  0  0  0  0  0  0
   36.5180   31.6890   49.8180 O   0  0  0  0  0  0  0  0  0  0  0  0
   37.4240   30.5320   49.4080 P   0  0  0  0  0  0  0  0  0  0  0  0
   36.5450   29.0840   49.3850 O   0  0  0  0  0  0  0  0  0  0  0  0
   36.3130   28.7640   50.2850 H   0  0  0  0  0  0  0  0  0  0  0  0
   38.6660   30.4610   50.5460 O   0  0  0  0  0  0  0  0  0  0  0  0
   39.3560   29.7850   50.2600 H   0  0  0  0  0  0  0  0  0  0  0  0
  1  6  1  0  0  0  0
  1 18  1  0  0  0  0
  2  1  2  0  0  0  0
  3  4  2  0  0  0  0
  3  2  1  0  0  0  0
  4  5  1  0  0  0  0
  5  8  1  0  0  0  0
  5  6  2  0  0  0  0
  7  3  1  0  0  0  0
  9 14  1  6  0  0  0
 10  2  1  6  0  0  0
 10  9  1  0  0  0  0
 11 10  1  0  0  0  0
 12 11  1  0  0  0  0
 12 13  1  0  0  0  0
 13 16  1  6  0  0  0
 13  9  1  0  0  0  0
 14 15  1  0  0  0  0
 16 17  1  0  0  0  0
 18 20  1  0  0  0  0
 20 19  2  0  0  0  0
 20 23  1  0  0  0  0
 21 20  1  0  0  0  0
 21 22  1  0  0  0  0
 24 23  1  0  0  0  0
M  END
>  <minimizedAffinity>
-5.09641647

>  <minimizedRMSD>
7.28281879

$$$$
