
 OpenBabel03272508153D

 28 30  0  0  1  0  0  0  0  0999 V2000
   36.2730   27.9490   34.4500 Cl  0  0  0  0  0  0  0  0  0  0  0  0
   36.2360   29.0240   33.0710 C   0  0  0  0  0  0  0  0  0  0  0  0
   35.6870   30.2600   33.3390 C   0  0  0  0  0  0  0  0  0  0  0  0
   35.6200   31.1850   32.2910 C   0  0  0  0  0  0  0  0  0  0  0  0
   36.0720   30.9010   31.0430 C   0  0  0  0  0  0  0  0  0  0  0  0
   36.6150   29.6600   30.8050 C   0  0  0  0  0  0  0  0  0  0  0  0
   37.2080   29.2570   29.2120 Cl  0  0  0  0  0  0  0  0  0  0  0  0
   36.6930   28.7450   31.8040 C   0  0  0  0  0  0  0  0  0  0  0  0
   35.2040   32.1830   32.4060 H   0  0  0  0  0  0  0  0  0  0  0  0
   36.0270   31.6080   30.2240 H   0  0  0  0  0  0  0  0  0  0  0  0
   33.7460   30.5910   34.8180 C   0  0  0  0  0  0  0  0  0  0  0  0
   35.1370   30.7820   34.5960 C   0  0  0  0  0  0  0  0  0  0  0  0
   35.8820   31.4410   35.5650 C   0  0  0  0  0  0  0  0  0  0  0  0
   35.2370   31.8710   36.6820 N   0  0  0  0  0  0  0  0  0  0  0  0
   33.9170   31.6800   36.8730 C   0  0  0  0  0  0  0  0  0  0  0  0
   33.1670   31.0370   35.9380 N   0  0  0  0  0  0  0  0  0  0  0  0
   33.1720   30.0790   34.0600 H   0  0  0  0  0  0  0  0  0  0  0  0
   36.9390   31.5760   35.3770 H   0  0  0  0  0  0  0  0  0  0  0  0
   33.4010   32.0110   37.7410 H   0  0  0  0  0  0  0  0  0  0  0  0
   36.2320   26.3060   31.4740 C   0  0  2  0  0  3  0  0  0  0  0  0
   37.2610   27.4100   31.6040 C   0  0  2  0  0  3  0  0  0  0  0  0
   38.0050   26.9380   32.6960 O   0  0  0  0  0  0  0  0  0  0  0  0
   38.3550   25.6590   32.2680 C   0  0  0  0  0  2  0  0  0  0  0  0
   37.1430   25.0780   31.5870 C   0  0  2  0  0  3  0  0  0  0  0  0
   35.5440   26.3370   30.2720 O   0  0  0  0  0  0  0  0  0  0  0  0
   36.0590   26.0520   29.5020 H   0  0  0  0  0  0  0  0  0  0  0  0
   37.4830   24.7320   30.2750 O   0  0  0  0  0  0  0  0  0  0  0  0
   38.4400   24.9220   30.0820 H   0  0  0  0  0  0  0  0  0  0  0  0
  2  3  1  0  0  0  0
  2  1  1  0  0  0  0
  3 12  1  0  0  0  0
  4  9  1  0  0  0  0
  4  3  2  0  0  0  0
  5  4  1  0  0  0  0
  6  5  2  0  0  0  0
  6  8  1  0  0  0  0
  7  6  1  0  0  0  0
  8  2  2  0  0  0  0
 10  5  1  0  0  0  0
 11 16  1  0  0  0  0
 12 11  2  0  0  0  0
 12 13  1  0  0  0  0
 13 14  2  0  0  0  0
 14 15  1  0  0  0  0
 15 19  1  0  0  0  0
 16 15  2  0  0  0  0
 17 11  1  0  0  0  0
 18 13  1  0  0  0  0
 20 25  1  6  0  0  0
 20 24  1  0  0  0  0
 20 21  1  0  0  0  0
 21  8  1  1  0  0  0
 21 22  1  0  0  0  0
 23 22  1  0  0  0  0
 24 27  1  6  0  0  0
 24 23  1  0  0  0  0
 26 25  1  0  0  0  0
 28 27  1  0  0  0  0
M  END
>  <minimizedAffinity>
-5.5642457

$$$$

 OpenBabel03272508153D

 28 30  0  0  1  0  0  0  0  0999 V2000
   35.6240   23.4650   31.0400 Cl  0  0  0  0  0  0  0  0  0  0  0  0
   36.7810   23.7610   32.3180 C   0  0  0  0  0  0  0  0  0  0  0  0
   37.1790   22.6250   32.9890 C   0  0  0  0  0  0  0  0  0  0  0  0
   38.1050   22.7710   34.0270 C   0  0  0  0  0  0  0  0  0  0  0  0
   38.6130   23.9790   34.3820 C   0  0  0  0  0  0  0  0  0  0  0  0
   38.1980   25.0950   33.6950 C   0  0  0  0  0  0  0  0  0  0  0  0
   38.8280   26.6670   34.1230 Cl  0  0  0  0  0  0  0  0  0  0  0  0
   37.3000   24.9810   32.6840 C   0  0  0  0  0  0  0  0  0  0  0  0
   38.4780   21.9330   34.6130 H   0  0  0  0  0  0  0  0  0  0  0  0
   39.3310   24.1040   35.1830 H   0  0  0  0  0  0  0  0  0  0  0  0
   37.5620   20.4500   31.9000 C   0  0  0  0  0  0  0  0  0  0  0  0
   36.7680   21.2300   32.7830 C   0  0  0  0  0  0  0  0  0  0  0  0
   35.6680   20.6380   33.3900 C   0  0  0  0  0  0  0  0  0  0  0  0
   35.4070   19.3350   33.1050 N   0  0  0  0  0  0  0  0  0  0  0  0
   36.1710   18.6120   32.2630 C   0  0  0  0  0  0  0  0  0  0  0  0
   37.2540   19.1700   31.6570 N   0  0  0  0  0  0  0  0  0  0  0  0
   38.4150   20.9150   31.4300 H   0  0  0  0  0  0  0  0  0  0  0  0
   35.0780   21.2500   34.0590 H   0  0  0  0  0  0  0  0  0  0  0  0
   35.9780   17.5930   32.0310 H   0  0  0  0  0  0  0  0  0  0  0  0
   37.8880   26.8010   31.0680 C   0  0  2  0  0  3  0  0  0  0  0  0
   36.8260   26.1390   31.9200 C   0  0  2  0  0  3  0  0  0  0  0  0
   36.4270   27.2210   32.7190 O   0  0  0  0  0  0  0  0  0  0  0  0
   36.1010   28.1760   31.7570 C   0  0  0  0  0  2  0  0  0  0  0  0
   37.1520   28.0900   30.6820 C   0  0  2  0  0  3  0  0  0  0  0  0
   38.2470   26.0520   29.9590 O   0  0  0  0  0  0  0  0  0  0  0  0
   37.5840   26.0300   29.2520 H   0  0  0  0  0  0  0  0  0  0  0  0
   36.5280   27.8220   29.4580 O   0  0  0  0  0  0  0  0  0  0  0  0
   35.5390   27.7660   29.5550 H   0  0  0  0  0  0  0  0  0  0  0  0
  1  2  1  0  0  0  0
  2  8  2  0  0  0  0
  2  3  1  0  0  0  0
  3  4  2  0  0  0  0
  4  5  1  0  0  0  0
  4  9  1  0  0  0  0
  5 10  1  0  0  0  0
  6  7  1  0  0  0  0
  6  5  2  0  0  0  0
  8  6  1  0  0  0  0
 11 12  1  0  0  0  0
 12  3  1  0  0  0  0
 12 13  2  0  0  0  0
 13 18  1  0  0  0  0
 14 13  1  0  0  0  0
 15 14  2  0  0  0  0
 16 11  2  0  0  0  0
 16 15  1  0  0  0  0
 17 11  1  0  0  0  0
 19 15  1  0  0  0  0
 20 25  1  6  0  0  0
 20 21  1  0  0  0  0
 21  8  1  1  0  0  0
 21 22  1  0  0  0  0
 23 22  1  0  0  0  0
 24 27  1  6  0  0  0
 24 20  1  0  0  0  0
 24 23  1  0  0  0  0
 26 25  1  0  0  0  0
 27 28  1  0  0  0  0
M  END
>  <minimizedAffinity>
-5.2416296

$$$$

 OpenBabel03272508153D

 28 30  0  0  1  0  0  0  0  0999 V2000
   38.7730   25.6000   34.4740 Cl  0  0  0  0  0  0  0  0  0  0  0  0
   38.0320   24.1760   33.7790 C   0  0  0  0  0  0  0  0  0  0  0  0
   38.4220   22.9940   34.3730 C   0  0  0  0  0  0  0  0  0  0  0  0
   37.8760   21.8050   33.8800 C   0  0  0  0  0  0  0  0  0  0  0  0
   36.9890   21.7850   32.8520 C   0  0  0  0  0  0  0  0  0  0  0  0
   36.6180   22.9790   32.2790 C   0  0  0  0  0  0  0  0  0  0  0  0
   35.4790   22.9940   30.9540 Cl  0  0  0  0  0  0  0  0  0  0  0  0
   37.1330   24.1470   32.7390 C   0  0  0  0  0  0  0  0  0  0  0  0
   38.1230   20.8250   34.2830 H   0  0  0  0  0  0  0  0  0  0  0  0
   36.5580   20.8710   32.4620 H   0  0  0  0  0  0  0  0  0  0  0  0
   40.6810   22.3820   35.1390 C   0  0  0  0  0  0  0  0  0  0  0  0
   39.3590   22.7750   35.4820 C   0  0  0  0  0  0  0  0  0  0  0  0
   39.0360   22.9260   36.8240 C   0  0  0  0  0  0  0  0  0  0  0  0
   40.0070   22.6880   37.7440 N   0  0  0  0  0  0  0  0  0  0  0  0
   41.2550   22.3150   37.3990 C   0  0  0  0  0  0  0  0  0  0  0  0
   41.5950   22.1610   36.0910 N   0  0  0  0  0  0  0  0  0  0  0  0
   40.9260   22.2650   34.0940 H   0  0  0  0  0  0  0  0  0  0  0  0
   38.0240   23.2260   37.0630 H   0  0  0  0  0  0  0  0  0  0  0  0
   42.0230   22.1260   38.1080 H   0  0  0  0  0  0  0  0  0  0  0  0
   37.8150   26.0280   31.2330 C   0  0  2  0  0  3  0  0  0  0  0  0
   36.7710   25.4450   32.1630 C   0  0  2  0  0  3  0  0  0  0  0  0
   36.6660   26.4760   33.1090 O   0  0  0  0  0  0  0  0  0  0  0  0
   36.3890   27.5750   32.2970 C   0  0  0  0  0  2  0  0  0  0  0  0
   37.2670   27.4520   31.0790 C   0  0  2  0  0  3  0  0  0  0  0  0
   37.8980   25.3660   30.0190 O   0  0  0  0  0  0  0  0  0  0  0  0
   37.1580   25.5300   29.4150 H   0  0  0  0  0  0  0  0  0  0  0  0
   36.4570   27.4280   29.9380 O   0  0  0  0  0  0  0  0  0  0  0  0
   35.4940   27.5160   30.1700 H   0  0  0  0  0  0  0  0  0  0  0  0
  2  3  1  0  0  0  0
  2  1  1  0  0  0  0
  3 12  1  0  0  0  0
  4  9  1  0  0  0  0
  4  3  2  0  0  0  0
  5  4  1  0  0  0  0
  6  8  1  0  0  0  0
  6  5  2  0  0  0  0
  7  6  1  0  0  0  0
  8  2  2  0  0  0  0
 10  5  1  0  0  0  0
 11 12  2  0  0  0  0
 11 16  1  0  0  0  0
 12 13  1  0  0  0  0
 13 18  1  0  0  0  0
 13 14  2  0  0  0  0
 15 14  1  0  0  0  0
 15 19  1  0  0  0  0
 16 15  2  0  0  0  0
 17 11  1  0  0  0  0
 20 25  1  6  0  0  0
 20 21  1  0  0  0  0
 21  8  1  1  0  0  0
 21 22  1  0  0  0  0
 23 22  1  0  0  0  0
 24 27  1  6  0  0  0
 24 20  1  0  0  0  0
 24 23  1  0  0  0  0
 26 25  1  0  0  0  0
 27 28  1  0  0  0  0
M  END
>  <minimizedAffinity>
-5.19968462

$$$$

 OpenBabel03272508153D

 28 30  0  0  1  0  0  0  0  0999 V2000
   38.5140   22.4810   33.3040 Cl  0  0  0  0  0  0  0  0  0  0  0  0
   37.2880   23.4320   32.4970 C   0  0  0  0  0  0  0  0  0  0  0  0
   36.2750   22.6820   31.9360 C   0  0  0  0  0  0  0  0  0  0  0  0
   35.2500   23.3640   31.2720 C   0  0  0  0  0  0  0  0  0  0  0  0
   35.2270   24.7170   31.1670 C   0  0  0  0  0  0  0  0  0  0  0  0
   36.2510   25.4390   31.7360 C   0  0  0  0  0  0  0  0  0  0  0  0
   36.2570   27.1820   31.6210 Cl  0  0  0  0  0  0  0  0  0  0  0  0
   37.2570   24.8020   32.3860 C   0  0  0  0  0  0  0  0  0  0  0  0
   34.4110   22.8590   30.7990 H   0  0  0  0  0  0  0  0  0  0  0  0
   34.4390   25.2560   30.6560 H   0  0  0  0  0  0  0  0  0  0  0  0
   35.5750   20.6310   33.1040 C   0  0  0  0  0  0  0  0  0  0  0  0
   36.0940   21.2250   31.9220 C   0  0  0  0  0  0  0  0  0  0  0  0
   36.3950   20.4070   30.8420 C   0  0  0  0  0  0  0  0  0  0  0  0
   36.1760   19.0720   30.9720 N   0  0  0  0  0  0  0  0  0  0  0  0
   35.6840   18.5280   32.1020 C   0  0  0  0  0  0  0  0  0  0  0  0
   35.3810   19.3090   33.1730 N   0  0  0  0  0  0  0  0  0  0  0  0
   35.3440   21.2720   33.9420 H   0  0  0  0  0  0  0  0  0  0  0  0
   36.7890   20.8800   29.9520 H   0  0  0  0  0  0  0  0  0  0  0  0
   35.5080   17.4850   32.2170 H   0  0  0  0  0  0  0  0  0  0  0  0
   37.9770   26.3640   34.2060 C   0  0  2  0  0  3  0  0  0  0  0  0
   38.3700   25.5240   33.0090 C   0  0  2  0  0  3  0  0  0  0  0  0
   38.9420   26.5050   32.1850 O   0  0  0  0  0  0  0  0  0  0  0  0
   39.8990   27.0620   33.0340 C   0  0  0  0  0  2  0  0  0  0  0  0
   39.2630   27.1780   34.3940 C   0  0  2  0  0  3  0  0  0  0  0  0
   37.6670   25.6110   35.3270 O   0  0  0  0  0  0  0  0  0  0  0  0
   38.4290   25.2040   35.7660 H   0  0  0  0  0  0  0  0  0  0  0  0
   40.0350   26.4640   35.3180 O   0  0  0  0  0  0  0  0  0  0  0  0
   40.8350   26.0570   34.8890 H   0  0  0  0  0  0  0  0  0  0  0  0
  2  1  1  0  0  0  0
  3  2  2  0  0  0  0
  4  3  1  0  0  0  0
  5  4  2  0  0  0  0
  5  6  1  0  0  0  0
  6  8  2  0  0  0  0
  7  6  1  0  0  0  0
  8  2  1  0  0  0  0
  9  4  1  0  0  0  0
 10  5  1  0  0  0  0
 11 16  1  0  0  0  0
 11 17  1  0  0  0  0
 12  3  1  0  0  0  0
 12 11  2  0  0  0  0
 13 14  2  0  0  0  0
 13 12  1  0  0  0  0
 14 15  1  0  0  0  0
 15 19  1  0  0  0  0
 15 16  2  0  0  0  0
 18 13  1  0  0  0  0
 20 24  1  0  0  0  0
 20 25  1  1  0  0  0
 21  8  1  6  0  0  0
 21 20  1  0  0  0  0
 22 21  1  0  0  0  0
 22 23  1  0  0  0  0
 23 24  1  0  0  0  0
 24 27  1  1  0  0  0
 25 26  1  0  0  0  0
 28 27  1  0  0  0  0
M  END
>  <minimizedAffinity>
-5.08226967

$$$$

 OpenBabel03272508153D

 28 30  0  0  1  0  0  0  0  0999 V2000
   38.6140   27.0600   33.6810 Cl  0  0  0  0  0  0  0  0  0  0  0  0
   37.6550   25.8420   32.8710 C   0  0  0  0  0  0  0  0  0  0  0  0
   38.1140   24.5550   33.0530 C   0  0  0  0  0  0  0  0  0  0  0  0
   37.4040   23.5170   32.4400 C   0  0  0  0  0  0  0  0  0  0  0  0
   36.2970   23.7400   31.6870 C   0  0  0  0  0  0  0  0  0  0  0  0
   35.8620   25.0340   31.5230 C   0  0  0  0  0  0  0  0  0  0  0  0
   34.4420   25.3620   30.5600 Cl  0  0  0  0  0  0  0  0  0  0  0  0
   36.5320   26.0600   32.1070 C   0  0  0  0  0  0  0  0  0  0  0  0
   37.6900   22.4700   32.5260 H   0  0  0  0  0  0  0  0  0  0  0  0
   35.7390   22.9450   31.2080 H   0  0  0  0  0  0  0  0  0  0  0  0
   40.5020   23.9570   33.1050 C   0  0  0  0  0  0  0  0  0  0  0  0
   39.2760   24.0800   33.8140 C   0  0  0  0  0  0  0  0  0  0  0  0
   39.2500   23.7490   35.1620 C   0  0  0  0  0  0  0  0  0  0  0  0
   40.4060   23.3220   35.7360 N   0  0  0  0  0  0  0  0  0  0  0  0
   41.5580   23.2110   35.0470 C   0  0  0  0  0  0  0  0  0  0  0  0
   41.6080   23.5300   33.7250 N   0  0  0  0  0  0  0  0  0  0  0  0
   40.5160   24.2150   32.0570 H   0  0  0  0  0  0  0  0  0  0  0  0
   38.3080   23.8500   35.6830 H   0  0  0  0  0  0  0  0  0  0  0  0
   42.4680   22.8790   35.4830 H   0  0  0  0  0  0  0  0  0  0  0  0
   36.9260   28.2540   30.9670 C   0  0  2  0  0  3  0  0  0  0  0  0
   36.1110   27.4560   31.9630 C   0  0  2  0  0  3  0  0  0  0  0  0
   36.2960   28.2270   33.1210 O   0  0  0  0  0  0  0  0  0  0  0  0
   35.8880   29.4880   32.6870 C   0  0  0  0  0  2  0  0  0  0  0  0
   36.4330   29.6690   31.2950 C   0  0  2  0  0  3  0  0  0  0  0  0
   36.6740   27.9060   29.6500 O   0  0  0  0  0  0  0  0  0  0  0  0
   35.8190   28.2060   29.3060 H   0  0  0  0  0  0  0  0  0  0  0  0
   35.3690   29.9160   30.4200 O   0  0  0  0  0  0  0  0  0  0  0  0
   34.4980   29.9380   30.9000 H   0  0  0  0  0  0  0  0  0  0  0  0
  2  3  1  0  0  0  0
  2  1  1  0  0  0  0
  3 12  1  0  0  0  0
  4  9  1  0  0  0  0
  4  3  2  0  0  0  0
  5  4  1  0  0  0  0
  6  5  2  0  0  0  0
  6  8  1  0  0  0  0
  7  6  1  0  0  0  0
  8  2  2  0  0  0  0
 10  5  1  0  0  0  0
 11 16  2  0  0  0  0
 11 12  1  0  0  0  0
 12 13  2  0  0  0  0
 13 18  1  0  0  0  0
 13 14  1  0  0  0  0
 15 19  1  0  0  0  0
 15 14  2  0  0  0  0
 16 15  1  0  0  0  0
 17 11  1  0  0  0  0
 20 25  1  6  0  0  0
 20 24  1  0  0  0  0
 20 21  1  0  0  0  0
 21  8  1  1  0  0  0
 21 22  1  0  0  0  0
 23 22  1  0  0  0  0
 24 27  1  6  0  0  0
 24 23  1  0  0  0  0
 26 25  1  0  0  0  0
 27 28  1  0  0  0  0
M  END
>  <minimizedAffinity>
-5.07554817

$$$$

 OpenBabel03272508153D

 28 30  0  0  1  0  0  0  0  0999 V2000
   38.7080   26.2730   33.8270 Cl  0  0  0  0  0  0  0  0  0  0  0  0
   37.7480   25.0390   33.0420 C   0  0  0  0  0  0  0  0  0  0  0  0
   36.8530   25.5300   32.1150 C   0  0  0  0  0  0  0  0  0  0  0  0
   36.0460   24.6100   31.4380 C   0  0  0  0  0  0  0  0  0  0  0  0
   36.1190   23.2740   31.6650 C   0  0  0  0  0  0  0  0  0  0  0  0
   37.0210   22.8130   32.5960 C   0  0  0  0  0  0  0  0  0  0  0  0
   37.1440   21.1000   32.9170 Cl  0  0  0  0  0  0  0  0  0  0  0  0
   37.8160   23.6840   33.2660 C   0  0  0  0  0  0  0  0  0  0  0  0
   35.3110   24.9020   30.6900 H   0  0  0  0  0  0  0  0  0  0  0  0
   35.5000   22.5520   31.1470 H   0  0  0  0  0  0  0  0  0  0  0  0
   37.3230   27.4010   30.5850 C   0  0  0  0  0  0  0  0  0  0  0  0
   36.6000   26.9180   31.7100 C   0  0  0  0  0  0  0  0  0  0  0  0
   35.7130   27.7730   32.3490 C   0  0  0  0  0  0  0  0  0  0  0  0
   35.5810   29.0350   31.8630 N   0  0  0  0  0  0  0  0  0  0  0  0
   36.2750   29.4750   30.7950 C   0  0  0  0  0  0  0  0  0  0  0  0
   37.1500   28.6560   30.1530 N   0  0  0  0  0  0  0  0  0  0  0  0
   38.0120   26.7320   30.0920 H   0  0  0  0  0  0  0  0  0  0  0  0
   35.1730   27.3850   33.2030 H   0  0  0  0  0  0  0  0  0  0  0  0
   36.1820   30.4590   30.4050 H   0  0  0  0  0  0  0  0  0  0  0  0
   38.3840   23.5170   35.7000 C   0  0  2  0  0  3  0  0  0  0  0  0
   38.7930   23.2450   34.2670 C   0  0  2  0  0  3  0  0  0  0  0  0
   40.0120   23.9370   34.2130 O   0  0  0  0  0  0  0  0  0  0  0  0
   40.7010   23.3780   35.2890 C   0  0  0  0  0  2  0  0  0  0  0  0
   39.7100   23.2300   36.4130 C   0  0  2  0  0  3  0  0  0  0  0  0
   37.3620   22.6940   36.1440 O   0  0  0  0  0  0  0  0  0  0  0  0
   37.6250   21.7760   36.3130 H   0  0  0  0  0  0  0  0  0  0  0  0
   39.6550   21.8840   36.7950 O   0  0  0  0  0  0  0  0  0  0  0  0
   40.2860   21.3270   36.2640 H   0  0  0  0  0  0  0  0  0  0  0  0
  2  8  1  0  0  0  0
  2  1  1  0  0  0  0
  3  2  2  0  0  0  0
  4  5  2  0  0  0  0
  4  3  1  0  0  0  0
  5  6  1  0  0  0  0
  6  7  1  0  0  0  0
  6  8  2  0  0  0  0
  9  4  1  0  0  0  0
 10  5  1  0  0  0  0
 11 12  1  0  0  0  0
 12  3  1  0  0  0  0
 12 13  2  0  0  0  0
 13 18  1  0  0  0  0
 14 13  1  0  0  0  0
 15 14  2  0  0  0  0
 16 11  2  0  0  0  0
 16 15  1  0  0  0  0
 17 11  1  0  0  0  0
 19 15  1  0  0  0  0
 20 25  1  1  0  0  0
 20 24  1  0  0  0  0
 21  8  1  6  0  0  0
 21 20  1  0  0  0  0
 22 21  1  0  0  0  0
 22 23  1  0  0  0  0
 23 24  1  0  0  0  0
 24 27  1  6  0  0  0
 25 26  1  0  0  0  0
 28 27  1  0  0  0  0
M  END
>  <minimizedAffinity>
-4.94002247

$$$$

 OpenBabel03272508153D

 28 30  0  0  1  0  0  0  0  0999 V2000
   38.5990   26.6300   34.9380 Cl  0  0  0  0  0  0  0  0  0  0  0  0
   38.3830   25.2040   33.9490 C   0  0  0  0  0  0  0  0  0  0  0  0
   38.3530   24.0250   34.6630 C   0  0  0  0  0  0  0  0  0  0  0  0
   38.1820   22.8350   33.9500 C   0  0  0  0  0  0  0  0  0  0  0  0
   38.0460   22.8110   32.5990 C   0  0  0  0  0  0  0  0  0  0  0  0
   38.0790   24.0020   31.9130 C   0  0  0  0  0  0  0  0  0  0  0  0
   37.9080   24.0130   30.1740 Cl  0  0  0  0  0  0  0  0  0  0  0  0
   38.2440   25.1720   32.5810 C   0  0  0  0  0  0  0  0  0  0  0  0
   38.1460   21.8570   34.4250 H   0  0  0  0  0  0  0  0  0  0  0  0
   37.9120   21.8960   32.0360 H   0  0  0  0  0  0  0  0  0  0  0  0
   39.6510   23.1390   36.5590 C   0  0  0  0  0  0  0  0  0  0  0  0
   38.4810   23.8100   36.1100 C   0  0  0  0  0  0  0  0  0  0  0  0
   37.5440   24.2160   37.0500 C   0  0  0  0  0  0  0  0  0  0  0  0
   37.7960   23.9480   38.3590 N   0  0  0  0  0  0  0  0  0  0  0  0
   38.9110   23.3090   38.7640 C   0  0  0  0  0  0  0  0  0  0  0  0
   39.8440   22.9020   37.8610 N   0  0  0  0  0  0  0  0  0  0  0  0
   40.3770   22.8250   35.8230 H   0  0  0  0  0  0  0  0  0  0  0  0
   36.6620   24.7250   36.6880 H   0  0  0  0  0  0  0  0  0  0  0  0
   39.1200   23.0930   39.7840 H   0  0  0  0  0  0  0  0  0  0  0  0
   36.9990   26.8440   31.1940 C   0  0  2  0  0  3  0  0  0  0  0  0
   38.2860   26.4670   31.8980 C   0  0  2  0  0  3  0  0  0  0  0  0
   39.1880   26.5140   30.8240 O   0  0  0  0  0  0  0  0  0  0  0  0
   38.9730   27.8010   30.3320 C   0  0  0  0  0  2  0  0  0  0  0  0
   37.4870   28.0420   30.3710 C   0  0  2  0  0  3  0  0  0  0  0  0
   35.9790   27.1890   32.0660 O   0  0  0  0  0  0  0  0  0  0  0  0
   36.0860   28.0520   32.4950 H   0  0  0  0  0  0  0  0  0  0  0  0
   37.2320   29.1730   31.1550 O   0  0  0  0  0  0  0  0  0  0  0  0
   38.0740   29.5800   31.4960 H   0  0  0  0  0  0  0  0  0  0  0  0
  2  3  1  0  0  0  0
  2  1  1  0  0  0  0
  3 12  1  0  0  0  0
  4  9  1  0  0  0  0
  4  3  2  0  0  0  0
  5  4  1  0  0  0  0
  6  8  1  0  0  0  0
  6  5  2  0  0  0  0
  7  6  1  0  0  0  0
  8  2  2  0  0  0  0
 10  5  1  0  0  0  0
 11 16  1  0  0  0  0
 12 11  2  0  0  0  0
 12 13  1  0  0  0  0
 13 14  2  0  0  0  0
 14 15  1  0  0  0  0
 15 19  1  0  0  0  0
 16 15  2  0  0  0  0
 17 11  1  0  0  0  0
 18 13  1  0  0  0  0
 20 21  1  0  0  0  0
 20 25  1  1  0  0  0
 21  8  1  6  0  0  0
 22 21  1  0  0  0  0
 23 24  1  0  0  0  0
 23 22  1  0  0  0  0
 24 27  1  1  0  0  0
 24 20  1  0  0  0  0
 25 26  1  0  0  0  0
 27 28  1  0  0  0  0
M  END
>  <minimizedAffinity>
-4.88202238

$$$$

 OpenBabel03272508153D

 28 30  0  0  1  0  0  0  0  0999 V2000
   36.3380   27.7440   34.7240 Cl  0  0  0  0  0  0  0  0  0  0  0  0
   36.2450   28.6670   33.2410 C   0  0  0  0  0  0  0  0  0  0  0  0
   35.6480   29.9010   33.3850 C   0  0  0  0  0  0  0  0  0  0  0  0
   35.5340   30.7070   32.2480 C   0  0  0  0  0  0  0  0  0  0  0  0
   35.9870   30.3130   31.0300 C   0  0  0  0  0  0  0  0  0  0  0  0
   36.5790   29.0760   30.9160 C   0  0  0  0  0  0  0  0  0  0  0  0
   37.1730   28.5330   29.3660 Cl  0  0  0  0  0  0  0  0  0  0  0  0
   36.7020   28.2750   32.0040 C   0  0  0  0  0  0  0  0  0  0  0  0
   35.0790   31.6950   32.2630 H   0  0  0  0  0  0  0  0  0  0  0  0
   35.9050   30.9280   30.1430 H   0  0  0  0  0  0  0  0  0  0  0  0
   35.9630   31.3490   35.3520 C   0  0  0  0  0  0  0  0  0  0  0  0
   35.0880   30.5290   34.5880 C   0  0  0  0  0  0  0  0  0  0  0  0
   33.7770   30.3730   35.0170 C   0  0  0  0  0  0  0  0  0  0  0  0
   33.3970   31.0160   36.1530 N   0  0  0  0  0  0  0  0  0  0  0  0
   34.2420   31.7880   36.8640 C   0  0  0  0  0  0  0  0  0  0  0  0
   35.5310   31.9560   36.4630 N   0  0  0  0  0  0  0  0  0  0  0  0
   36.9820   31.4660   35.0140 H   0  0  0  0  0  0  0  0  0  0  0  0
   33.1280   29.7460   34.4220 H   0  0  0  0  0  0  0  0  0  0  0  0
   33.9580   32.2960   37.7530 H   0  0  0  0  0  0  0  0  0  0  0  0
   38.8040   26.9700   31.6160 C   0  0  2  0  0  3  0  0  0  0  0  0
   37.3230   26.9500   31.9360 C   0  0  2  0  0  3  0  0  0  0  0  0
   36.8460   26.1510   30.8860 O   0  0  0  0  0  0  0  0  0  0  0  0
   37.6380   25.0110   31.0170 C   0  0  0  0  0  2  0  0  0  0  0  0
   39.0340   25.4810   31.3300 C   0  0  2  0  0  3  0  0  0  0  0  0
   39.5850   27.4270   32.6650 O   0  0  0  0  0  0  0  0  0  0  0  0
   39.6750   26.8070   33.4050 H   0  0  0  0  0  0  0  0  0  0  0  0
   39.4410   24.9170   32.5440 O   0  0  0  0  0  0  0  0  0  0  0  0
   38.7410   24.3210   32.9240 H   0  0  0  0  0  0  0  0  0  0  0  0
  2  3  1  0  0  0  0
  2  1  1  0  0  0  0
  3 12  1  0  0  0  0
  4  9  1  0  0  0  0
  4  3  2  0  0  0  0
  5  4  1  0  0  0  0
  6  5  2  0  0  0  0
  6  8  1  0  0  0  0
  7  6  1  0  0  0  0
  8  2  2  0  0  0  0
 10  5  1  0  0  0  0
 11 16  1  0  0  0  0
 12 13  1  0  0  0  0
 12 11  2  0  0  0  0
 13 14  2  0  0  0  0
 14 15  1  0  0  0  0
 15 19  1  0  0  0  0
 16 15  2  0  0  0  0
 17 11  1  0  0  0  0
 18 13  1  0  0  0  0
 20 21  1  0  0  0  0
 20 25  1  1  0  0  0
 21  8  1  6  0  0  0
 22 23  1  0  0  0  0
 22 21  1  0  0  0  0
 23 24  1  0  0  0  0
 24 20  1  0  0  0  0
 24 27  1  1  0  0  0
 25 26  1  0  0  0  0
 27 28  1  0  0  0  0
M  END
>  <minimizedAffinity>
-4.87475014

$$$$

 OpenBabel03272508153D

 28 30  0  0  1  0  0  0  0  0999 V2000
   38.9530   25.3220   34.2440 Cl  0  0  0  0  0  0  0  0  0  0  0  0
   38.1310   23.8330   33.8380 C   0  0  0  0  0  0  0  0  0  0  0  0
   37.9830   22.9660   34.9000 C   0  0  0  0  0  0  0  0  0  0  0  0
   37.3340   21.7500   34.6640 C   0  0  0  0  0  0  0  0  0  0  0  0
   36.8550   21.4080   33.4410 C   0  0  0  0  0  0  0  0  0  0  0  0
   37.0160   22.2920   32.4000 C   0  0  0  0  0  0  0  0  0  0  0  0
   36.4140   21.8880   30.8110 Cl  0  0  0  0  0  0  0  0  0  0  0  0
   37.6420   23.4790   32.6020 C   0  0  0  0  0  0  0  0  0  0  0  0
   37.1710   21.0040   35.4390 H   0  0  0  0  0  0  0  0  0  0  0  0
   36.3500   20.4700   33.2460 H   0  0  0  0  0  0  0  0  0  0  0  0
   37.5250   23.7870   37.1760 C   0  0  0  0  0  0  0  0  0  0  0  0
   38.4180   23.1200   36.2940 C   0  0  0  0  0  0  0  0  0  0  0  0
   39.6290   22.6600   36.7940 C   0  0  0  0  0  0  0  0  0  0  0  0
   39.8980   22.8750   38.1090 N   0  0  0  0  0  0  0  0  0  0  0  0
   39.0380   23.5100   38.9290 C   0  0  0  0  0  0  0  0  0  0  0  0
   37.8460   23.9680   38.4620 N   0  0  0  0  0  0  0  0  0  0  0  0
   36.5850   24.1420   36.7820 H   0  0  0  0  0  0  0  0  0  0  0  0
   40.2940   22.1550   36.1070 H   0  0  0  0  0  0  0  0  0  0  0  0
   39.2370   23.6840   39.9590 H   0  0  0  0  0  0  0  0  0  0  0  0
   39.2910   24.7170   31.1820 C   0  0  2  0  0  3  0  0  0  0  0  0
   37.8400   24.4560   31.5280 C   0  0  2  0  0  3  0  0  0  0  0  0
   37.4170   25.7530   31.8540 O   0  0  0  0  0  0  0  0  0  0  0  0
   37.7790   26.4630   30.7100 C   0  0  0  0  0  2  0  0  0  0  0  0
   39.1320   25.9540   30.2890 C   0  0  2  0  0  3  0  0  0  0  0  0
   39.8940   23.6640   30.5130 O   0  0  0  0  0  0  0  0  0  0  0  0
   39.6140   23.5550   29.5920 H   0  0  0  0  0  0  0  0  0  0  0  0
   39.0460   25.4700   28.9780 O   0  0  0  0  0  0  0  0  0  0  0  0
   38.1310   25.5820   28.6050 H   0  0  0  0  0  0  0  0  0  0  0  0
  2  1  1  0  0  0  0
  2  3  1  0  0  0  0
  3 12  1  0  0  0  0
  4  3  2  0  0  0  0
  4  9  1  0  0  0  0
  5  4  1  0  0  0  0
  6  8  1  0  0  0  0
  6  5  2  0  0  0  0
  7  6  1  0  0  0  0
  8  2  2  0  0  0  0
 10  5  1  0  0  0  0
 11 16  1  0  0  0  0
 12 13  1  0  0  0  0
 12 11  2  0  0  0  0
 13 14  2  0  0  0  0
 14 15  1  0  0  0  0
 15 19  1  0  0  0  0
 16 15  2  0  0  0  0
 17 11  1  0  0  0  0
 18 13  1  0  0  0  0
 20 25  1  6  0  0  0
 20 21  1  0  0  0  0
 21 22  1  0  0  0  0
 21  8  1  1  0  0  0
 23 22  1  0  0  0  0
 24 27  1  6  0  0  0
 24 23  1  0  0  0  0
 24 20  1  0  0  0  0
 26 25  1  0  0  0  0
 28 27  1  0  0  0  0
M  END
>  <minimizedAffinity>
-4.8290267

$$$$
