
 OpenBabel03272509213D

 46 50  0  0  1  0  0  0  0  0999 V2000
   38.0960   31.3500   47.8230 C   0  0  0  0  0  0  0  0  0  0  0  0
   37.1040   31.3340   48.7910 C   0  0  0  0  0  0  0  0  0  0  0  0
   37.1410   32.4510   49.6460 C   0  0  0  0  0  0  0  0  0  0  0  0
   38.0940   33.4580   49.5050 C   0  0  0  0  0  0  0  0  0  0  0  0
   39.0560   33.3620   48.4780 C   0  0  0  0  0  0  0  0  0  0  0  0
   39.0450   32.2810   47.6260 C   0  0  0  0  0  0  0  0  0  0  0  0
   36.4180   32.5600   50.4480 H   0  0  0  0  0  0  0  0  0  0  0  0
   38.0950   34.3090   50.1820 H   0  0  0  0  0  0  0  0  0  0  0  0
   39.7540   34.1690   48.4290 H   0  0  0  0  0  0  0  0  0  0  0  0
   35.0000   30.3010   48.1280 C   0  0  0  0  0  0  0  0  0  0  0  0
   36.1310   30.3070   48.9360 C   0  0  0  0  0  0  0  0  0  0  0  0
   36.2630   29.2760   49.8810 C   0  0  0  0  0  0  0  0  0  0  0  0
   35.2860   28.3370   49.9490 N   0  0  0  0  0  0  0  0  0  0  0  0
   34.1960   28.3750   49.1350 C   0  0  0  0  0  0  0  0  0  0  0  0
   34.0550   29.3490   48.2320 N   0  0  0  0  0  0  0  0  0  0  0  0
   34.8860   31.0890   47.3980 H   0  0  0  0  0  0  0  0  0  0  0  0
   33.4630   27.5830   49.2590 H   0  0  0  0  0  0  0  0  0  0  0  0
   37.4550   29.2350   50.7720 C   0  0  0  0  0  0  0  0  0  0  0  0
   38.3740   29.1490   50.1560 H   0  0  0  0  0  0  0  0  0  0  0  0
   37.4910   30.0580   51.5040 H   0  0  0  0  0  0  0  0  0  0  0  0
   37.4030   28.2920   51.3470 H   0  0  0  0  0  0  0  0  0  0  0  0
   38.1420   30.2680   46.9140 O   0  0  0  0  0  0  0  0  0  0  0  0
   38.3890   29.3900   47.3300 H   0  0  0  0  0  0  0  0  0  0  0  0
   40.0080   32.2470   46.6460 O   0  0  0  0  0  0  0  0  0  0  0  0
   40.5200   31.1080   44.4900 C   0  0  0  0  0  0  0  0  0  0  0  0
   39.8240   31.9750   45.3220 C   0  0  0  0  0  0  0  0  0  0  0  0
   38.7750   32.7020   44.7920 C   0  0  0  0  0  0  0  0  0  0  0  0
   38.4140   32.5700   43.4360 C   0  0  0  0  0  0  0  0  0  0  0  0
   37.4730   33.1220   42.6510 N   0  0  0  0  0  0  0  0  0  0  0  0
   37.5700   32.6330   41.3970 C   0  0  0  0  0  0  0  0  0  0  0  0
   38.6040   31.7520   41.4160 N   0  0  0  0  0  0  0  0  0  0  0  0
   39.1290   31.7030   42.6540 C   0  0  0  0  0  0  0  0  0  0  0  0
   40.1730   30.9720   43.1570 C   0  0  0  0  0  0  0  0  0  0  0  0
   41.3200   30.5910   45.0100 H   0  0  0  0  0  0  0  0  0  0  0  0
   38.1470   33.4100   45.3140 H   0  0  0  0  0  0  0  0  0  0  0  0
   36.7730   33.8210   42.9570 H   0  0  0  0  0  0  0  0  0  0  0  0
   37.0120   32.8230   40.5140 H   0  0  0  0  0  0  0  0  0  0  0  0
   40.4510   28.6220   42.3480 C   0  0  2  0  0  3  0  0  0  0  0  0
   40.9890   30.0110   42.3490 C   0  0  1  0  0  3  0  0  0  0  0  0
   41.0570   30.4960   41.0720 O   0  0  0  0  0  0  0  0  0  0  0  0
   40.7530   29.4680   40.1940 C   0  0  0  0  0  2  0  0  0  0  0  0
   39.9300   28.4670   40.9360 C   0  0  2  0  0  3  0  0  0  0  0  0
   39.4480   28.4190   43.2930 O   0  0  0  0  0  0  0  0  0  0  0  0
   38.5880   28.4670   42.8140 H   0  0  0  0  0  0  0  0  0  0  0  0
   38.5560   28.6680   40.8430 O   0  0  0  0  0  0  0  0  0  0  0  0
   38.2810   29.1320   40.0130 H   0  0  0  0  0  0  0  0  0  0  0  0
  1  2  1  0  0  0  0
  2 11  1  0  0  0  0
  2  3  2  0  0  0  0
  3  7  1  0  0  0  0
  4  3  1  0  0  0  0
  4  8  1  0  0  0  0
  5  4  2  0  0  0  0
  6  1  2  0  0  0  0
  6  5  1  0  0  0  0
  9  5  1  0  0  0  0
 10 15  2  0  0  0  0
 10 11  1  0  0  0  0
 11 12  2  0  0  0  0
 12 13  1  0  0  0  0
 12 18  1  0  0  0  0
 14 17  1  0  0  0  0
 14 13  2  0  0  0  0
 15 14  1  0  0  0  0
 16 10  1  0  0  0  0
 18 21  1  0  0  0  0
 18 20  1  0  0  0  0
 19 18  1  0  0  0  0
 22 23  1  0  0  0  0
 22  1  1  0  0  0  0
 24  6  1  0  0  0  0
 25 34  1  0  0  0  0
 25 26  1  0  0  0  0
 26 24  1  0  0  0  0
 27 35  1  0  0  0  0
 27 26  2  0  0  0  0
 28 27  1  0  0  0  0
 29 36  1  0  0  0  0
 29 28  1  0  0  0  0
 30 31  2  0  0  0  0
 30 29  1  0  0  0  0
 31 32  1  0  0  0  0
 32 33  1  0  0  0  0
 32 28  2  0  0  0  0
 33 25  2  0  0  0  0
 37 30  1  0  0  0  0
 38 39  1  0  0  0  0
 38 43  1  1  0  0  0
 39 33  1  1  0  0  0
 40 39  1  0  0  0  0
 41 42  1  0  0  0  0
 41 40  1  0  0  0  0
 42 45  1  1  0  0  0
 42 38  1  0  0  0  0
 44 43  1  0  0  0  0
 46 45  1  0  0  0  0
M  END
>  <minimizedAffinity>
-7.85375261

>  <minimizedRMSD>
0.412462264

$$$$
