
 OpenBabel03272508553D

 38 41  0  0  1  0  0  0  0  0999 V2000
   37.3080   26.0410   32.3830 C   0  0  0  0  0  0  0  0  0  0  0  0
   36.3990   25.3700   31.8300 O   0  0  0  0  0  0  0  0  0  0  0  0
   37.3350   27.4740   32.2440 N   0  0  0  0  0  0  0  0  0  0  0  0
   38.1420   28.0530   32.5060 H   0  0  0  0  0  0  0  0  0  0  0  0
   38.3650   25.3910   33.1820 C   0  0  0  0  0  0  0  0  0  0  0  0
   39.6650   25.7530   32.9600 C   0  0  0  0  0  0  0  0  0  0  0  0
   40.6450   25.1300   33.7160 C   0  0  0  0  0  0  0  0  0  0  0  0
   40.2550   24.1890   34.6420 C   0  0  0  0  0  0  0  0  0  0  0  0
   38.9250   23.8170   34.8700 C   0  0  0  0  0  0  0  0  0  0  0  0
   38.0200   24.4620   34.1010 N   0  0  0  0  0  0  0  0  0  0  0  0
   39.9800   26.4850   32.2410 H   0  0  0  0  0  0  0  0  0  0  0  0
   41.6800   25.3640   33.5950 H   0  0  0  0  0  0  0  0  0  0  0  0
   40.9920   23.6800   35.2520 H   0  0  0  0  0  0  0  0  0  0  0  0
   37.8600   23.3430   37.0770 C   0  0  1  0  0  3  0  0  0  0  0  0
   38.5870   22.8040   35.8770 C   0  0  2  0  0  3  0  0  0  0  0  0
   39.7000   22.1220   36.3490 O   0  0  0  0  0  0  0  0  0  0  0  0
   40.0610   22.6840   37.5490 C   0  0  0  0  0  2  0  0  0  0  0  0
   38.8420   23.2560   38.2020 C   0  0  2  0  0  3  0  0  0  0  0  0
   37.5560   24.6950   36.8710 O   0  0  0  0  0  0  0  0  0  0  0  0
   38.2260   25.3030   37.3030 H   0  0  0  0  0  0  0  0  0  0  0  0
   38.3670   22.4450   39.2490 O   0  0  0  0  0  0  0  0  0  0  0  0
   38.9100   21.6070   39.2690 H   0  0  0  0  0  0  0  0  0  0  0  0
   35.8850   29.4900   32.0590 C   0  0  2  0  0  0  0  0  0  0  0  0
   36.4940   29.2840   30.7340 C   0  0  0  0  0  0  0  0  0  0  0  0
   36.1520   28.1190   31.7020 C   0  0  1  0  0  0  0  0  0  0  0  0
   36.5550   30.0400   32.7640 H   0  0  0  0  0  0  0  0  0  0  0  0
   35.9090   29.2580   29.8100 H   0  0  0  0  0  0  0  0  0  0  0  0
   37.5560   29.5200   30.5750 H   0  0  0  0  0  0  0  0  0  0  0  0
   35.3130   27.4670   31.3790 H   0  0  0  0  0  0  0  0  0  0  0  0
   32.6930   31.2400   31.4120 C   0  0  0  0  0  0  0  0  0  0  0  0
   31.8590   30.7610   32.4720 C   0  0  0  0  0  0  0  0  0  0  0  0
   32.4480   29.8260   33.4040 C   0  0  0  0  0  0  0  0  0  0  0  0
   33.7360   29.4560   33.2350 N   0  0  0  0  0  0  0  0  0  0  0  0
   34.4720   29.9530   32.2030 C   0  0  0  0  0  0  0  0  0  0  0  0
   33.9780   30.8470   31.2750 N   0  0  0  0  0  0  0  0  0  0  0  0
   32.2010   31.9320   30.7500 H   0  0  0  0  0  0  0  0  0  0  0  0
   30.8480   31.0790   32.5700 H   0  0  0  0  0  0  0  0  0  0  0  0
   31.8490   29.4480   34.2090 H   0  0  0  0  0  0  0  0  0  0  0  0
  1  5  1  0  0  0  0
  2  1  2  0  0  0  0
  3  1  1  0  0  0  0
  3  4  1  0  0  0  0
  5 10  1  0  0  0  0
  6  5  2  0  0  0  0
  6  7  1  0  0  0  0
  7  8  2  0  0  0  0
  8  9  1  0  0  0  0
  8 13  1  0  0  0  0
 10  9  2  0  0  0  0
 11  6  1  0  0  0  0
 12  7  1  0  0  0  0
 14 19  1  6  0  0  0
 14 18  1  0  0  0  0
 15  9  1  6  0  0  0
 15 16  1  0  0  0  0
 15 14  1  0  0  0  0
 16 17  1  0  0  0  0
 17 18  1  0  0  0  0
 18 21  1  1  0  0  0
 19 20  1  0  0  0  0
 21 22  1  0  0  0  0
 23 34  1  0  0  0  0
 23 26  1  1  0  0  0
 24 25  1  0  0  0  0
 24 23  1  0  0  0  0
 25 29  1  6  0  0  0
 25 23  1  0  0  0  0
 25  3  1  0  0  0  0
 27 24  1  0  0  0  0
 28 24  1  0  0  0  0
 30 31  1  0  0  0  0
 31 37  1  0  0  0  0
 31 32  2  0  0  0  0
 32 38  1  0  0  0  0
 33 32  1  0  0  0  0
 34 33  2  0  0  0  0
 35 30  2  0  0  0  0
 35 34  1  0  0  0  0
 36 30  1  0  0  0  0
M  END
>  <minimizedAffinity>
-5.80752373

$$$$

 OpenBabel03272508553D

 38 41  0  0  1  0  0  0  0  0999 V2000
   37.3140   27.5200   32.9680 C   0  0  0  0  0  0  0  0  0  0  0  0
   37.1760   27.8330   31.7580 O   0  0  0  0  0  0  0  0  0  0  0  0
   36.5920   28.2380   33.9860 N   0  0  0  0  0  0  0  0  0  0  0  0
   36.8000   28.1610   34.9890 H   0  0  0  0  0  0  0  0  0  0  0  0
   38.2070   26.4210   33.3810 C   0  0  0  0  0  0  0  0  0  0  0  0
   39.4650   26.3680   32.8460 C   0  0  0  0  0  0  0  0  0  0  0  0
   40.2890   25.3270   33.2410 C   0  0  0  0  0  0  0  0  0  0  0  0
   39.7980   24.4130   34.1460 C   0  0  0  0  0  0  0  0  0  0  0  0
   38.5120   24.4660   34.6940 C   0  0  0  0  0  0  0  0  0  0  0  0
   37.7600   25.5040   34.2670 N   0  0  0  0  0  0  0  0  0  0  0  0
   39.8580   27.0760   32.1400 H   0  0  0  0  0  0  0  0  0  0  0  0
   41.2830   25.2250   32.8630 H   0  0  0  0  0  0  0  0  0  0  0  0
   40.4130   23.5860   34.4780 H   0  0  0  0  0  0  0  0  0  0  0  0
   37.9030   23.9590   37.0600 C   0  0  1  0  0  3  0  0  0  0  0  0
   38.0600   23.4520   35.6540 C   0  0  2  0  0  3  0  0  0  0  0  0
   38.9020   22.3510   35.7120 O   0  0  0  0  0  0  0  0  0  0  0  0
   39.7250   22.5060   36.8010 C   0  0  0  0  0  2  0  0  0  0  0  0
   39.0120   23.3200   37.8340 C   0  0  2  0  0  3  0  0  0  0  0  0
   38.1030   25.3460   37.0820 O   0  0  0  0  0  0  0  0  0  0  0  0
   39.0370   25.5890   37.3550 H   0  0  0  0  0  0  0  0  0  0  0  0
   38.5250   22.5310   38.8920 O   0  0  0  0  0  0  0  0  0  0  0  0
   38.6920   21.5720   38.6720 H   0  0  0  0  0  0  0  0  0  0  0  0
   34.5010   29.4860   34.5080 C   0  0  2  0  0  0  0  0  0  0  0  0
   35.5460   30.4950   34.2690 C   0  0  0  0  0  0  0  0  0  0  0  0
   35.5170   29.1160   33.5560 C   0  0  1  0  0  0  0  0  0  0  0  0
   34.5180   29.0820   35.5510 H   0  0  0  0  0  0  0  0  0  0  0  0
   35.4130   31.3350   33.5820 H   0  0  0  0  0  0  0  0  0  0  0  0
   36.3290   30.6630   35.0220 H   0  0  0  0  0  0  0  0  0  0  0  0
   35.2840   29.1500   32.4710 H   0  0  0  0  0  0  0  0  0  0  0  0
   30.8130   29.3040   34.3260 C   0  0  0  0  0  0  0  0  0  0  0  0
   30.5200   30.1240   33.1900 C   0  0  0  0  0  0  0  0  0  0  0  0
   31.6410   30.7250   32.5030 C   0  0  0  0  0  0  0  0  0  0  0  0
   32.8910   30.4870   32.9570 N   0  0  0  0  0  0  0  0  0  0  0  0
   33.0960   29.6950   34.0450 C   0  0  0  0  0  0  0  0  0  0  0  0
   32.0770   29.0890   34.7500 N   0  0  0  0  0  0  0  0  0  0  0  0
   29.9400   28.8850   34.7970 H   0  0  0  0  0  0  0  0  0  0  0  0
   29.5190   30.2860   32.8660 H   0  0  0  0  0  0  0  0  0  0  0  0
   31.4550   31.3460   31.6490 H   0  0  0  0  0  0  0  0  0  0  0  0
  1  5  1  0  0  0  0
  1  3  1  0  0  0  0
  2  1  2  0  0  0  0
  3  4  1  0  0  0  0
  5 10  1  0  0  0  0
  6  7  1  0  0  0  0
  6  5  2  0  0  0  0
  7  8  2  0  0  0  0
  8 13  1  0  0  0  0
  8  9  1  0  0  0  0
 10  9  2  0  0  0  0
 11  6  1  0  0  0  0
 12  7  1  0  0  0  0
 14 19  1  6  0  0  0
 14 18  1  0  0  0  0
 15  9  1  6  0  0  0
 15 16  1  0  0  0  0
 15 14  1  0  0  0  0
 16 17  1  0  0  0  0
 17 18  1  0  0  0  0
 18 21  1  1  0  0  0
 19 20  1  0  0  0  0
 22 21  1  0  0  0  0
 23 26  1  1  0  0  0
 24 23  1  0  0  0  0
 24 28  1  0  0  0  0
 25 29  1  6  0  0  0
 25  3  1  0  0  0  0
 25 24  1  0  0  0  0
 25 23  1  0  0  0  0
 27 24  1  0  0  0  0
 30 35  1  0  0  0  0
 30 36  1  0  0  0  0
 31 30  2  0  0  0  0
 32 33  2  0  0  0  0
 32 31  1  0  0  0  0
 33 34  1  0  0  0  0
 34 23  1  0  0  0  0
 34 35  2  0  0  0  0
 37 31  1  0  0  0  0
 38 32  1  0  0  0  0
M  END
>  <minimizedAffinity>
-5.69492674

$$$$

 OpenBabel03272508553D

 38 41  0  0  1  0  0  0  0  0999 V2000
   37.1070   27.9520   34.0990 C   0  0  0  0  0  0  0  0  0  0  0  0
   37.2650   28.0780   35.3410 O   0  0  0  0  0  0  0  0  0  0  0  0
   37.9140   27.0150   33.3600 N   0  0  0  0  0  0  0  0  0  0  0  0
   37.9680   27.0000   32.3340 H   0  0  0  0  0  0  0  0  0  0  0  0
   36.1050   28.7480   33.3680 C   0  0  0  0  0  0  0  0  0  0  0  0
   36.3750   29.1090   32.0760 C   0  0  0  0  0  0  0  0  0  0  0  0
   35.4240   29.8610   31.4050 C   0  0  0  0  0  0  0  0  0  0  0  0
   34.2690   30.1980   32.0720 C   0  0  0  0  0  0  0  0  0  0  0  0
   33.9900   29.8300   33.3930 C   0  0  0  0  0  0  0  0  0  0  0  0
   34.9570   29.0990   33.9900 N   0  0  0  0  0  0  0  0  0  0  0  0
   37.2730   28.8520   31.5460 H   0  0  0  0  0  0  0  0  0  0  0  0
   35.5710   30.1770   30.3950 H   0  0  0  0  0  0  0  0  0  0  0  0
   33.5020   30.7850   31.5810 H   0  0  0  0  0  0  0  0  0  0  0  0
   32.9080   31.0940   35.2540 C   0  0  1  0  0  3  0  0  0  0  0  0
   32.7330   30.2280   34.0370 C   0  0  2  0  0  3  0  0  0  0  0  0
   31.9560   29.1440   34.4200 O   0  0  0  0  0  0  0  0  0  0  0  0
   32.1630   28.9280   35.7610 C   0  0  0  0  0  2  0  0  0  0  0  0
   32.5190   30.2280   36.4100 C   0  0  2  0  0  3  0  0  0  0  0  0
   34.2620   31.4270   35.3990 O   0  0  0  0  0  0  0  0  0  0  0  0
   34.7300   30.8290   36.0530 H   0  0  0  0  0  0  0  0  0  0  0  0
   31.4440   30.7760   37.1330 O   0  0  0  0  0  0  0  0  0  0  0  0
   30.6380   30.2060   36.9790 H   0  0  0  0  0  0  0  0  0  0  0  0
   38.0330   24.8560   34.5940 C   0  0  2  0  0  0  0  0  0  0  0  0
   38.8480   24.6930   33.3790 C   0  0  0  0  0  0  0  0  0  0  0  0
   38.6880   26.0480   34.1200 C   0  0  1  0  0  0  0  0  0  0  0  0
   36.9420   24.6890   34.4120 H   0  0  0  0  0  0  0  0  0  0  0  0
   39.8730   24.3130   33.3990 H   0  0  0  0  0  0  0  0  0  0  0  0
   38.3580   24.5860   32.4000 H   0  0  0  0  0  0  0  0  0  0  0  0
   39.5980   26.4130   34.6400 H   0  0  0  0  0  0  0  0  0  0  0  0
   38.0890   23.9860   38.1880 C   0  0  0  0  0  0  0  0  0  0  0  0
   39.2160   23.1080   38.2740 C   0  0  0  0  0  0  0  0  0  0  0  0
   39.9410   22.8420   37.0520 C   0  0  0  0  0  0  0  0  0  0  0  0
   39.5300   23.4270   35.9060 N   0  0  0  0  0  0  0  0  0  0  0  0
   38.4480   24.2540   35.8970 C   0  0  0  0  0  0  0  0  0  0  0  0
   37.7080   24.5540   37.0220 N   0  0  0  0  0  0  0  0  0  0  0  0
   37.5890   24.1460   39.1270 H   0  0  0  0  0  0  0  0  0  0  0  0
   39.5060   22.6660   39.1980 H   0  0  0  0  0  0  0  0  0  0  0  0
   40.7890   22.1860   37.0830 H   0  0  0  0  0  0  0  0  0  0  0  0
  1  2  2  0  0  0  0
  3  1  1  0  0  0  0
  3 25  1  0  0  0  0
  4  3  1  0  0  0  0
  5 10  1  0  0  0  0
  5  1  1  0  0  0  0
  6  5  2  0  0  0  0
  7  8  2  0  0  0  0
  7  6  1  0  0  0  0
  8  9  1  0  0  0  0
  9 10  2  0  0  0  0
 11  6  1  0  0  0  0
 12  7  1  0  0  0  0
 13  8  1  0  0  0  0
 14 19  1  1  0  0  0
 14 18  1  0  0  0  0
 15  9  1  1  0  0  0
 15 16  1  0  0  0  0
 15 14  1  0  0  0  0
 16 17  1  0  0  0  0
 17 18  1  0  0  0  0
 18 21  1  6  0  0  0
 19 20  1  0  0  0  0
 22 21  1  0  0  0  0
 23 26  1  6  0  0  0
 23 34  1  0  0  0  0
 24 27  1  0  0  0  0
 24 25  1  0  0  0  0
 24 23  1  0  0  0  0
 25 23  1  0  0  0  0
 25 29  1  1  0  0  0
 28 24  1  0  0  0  0
 30 31  1  0  0  0  0
 30 36  1  0  0  0  0
 31 37  1  0  0  0  0
 32 38  1  0  0  0  0
 32 31  2  0  0  0  0
 33 32  1  0  0  0  0
 34 33  2  0  0  0  0
 34 35  1  0  0  0  0
 35 30  2  0  0  0  0
M  END
>  <minimizedAffinity>
-5.43084908

$$$$

 OpenBabel03272508553D

 38 41  0  0  1  0  0  0  0  0999 V2000
   35.4190   29.0050   33.8710 C   0  0  0  0  0  0  0  0  0  0  0  0
   36.3390   28.5980   34.6260 O   0  0  0  0  0  0  0  0  0  0  0  0
   35.3940   28.6100   32.4860 N   0  0  0  0  0  0  0  0  0  0  0  0
   34.7900   29.0520   31.7820 H   0  0  0  0  0  0  0  0  0  0  0  0
   34.3490   29.8880   34.3700 C   0  0  0  0  0  0  0  0  0  0  0  0
   33.0700   29.4040   34.4110 C   0  0  0  0  0  0  0  0  0  0  0  0
   32.0760   30.2490   34.8790 C   0  0  0  0  0  0  0  0  0  0  0  0
   32.4310   31.5190   35.2740 C   0  0  0  0  0  0  0  0  0  0  0  0
   33.7390   32.0150   35.2330 C   0  0  0  0  0  0  0  0  0  0  0  0
   34.6590   31.1430   34.7670 N   0  0  0  0  0  0  0  0  0  0  0  0
   32.7820   28.4160   34.1050 H   0  0  0  0  0  0  0  0  0  0  0  0
   31.0560   29.9360   34.9370 H   0  0  0  0  0  0  0  0  0  0  0  0
   31.6820   32.2070   35.6450 H   0  0  0  0  0  0  0  0  0  0  0  0
   34.7400   33.4670   36.9990 C   0  0  1  0  0  3  0  0  0  0  0  0
   34.0390   33.3830   35.6720 C   0  0  2  0  0  3  0  0  0  0  0  0
   32.9080   34.1820   35.7600 O   0  0  0  0  0  0  0  0  0  0  0  0
   32.5200   34.2220   37.0770 C   0  0  0  0  0  2  0  0  0  0  0  0
   33.7270   34.0370   37.9420 C   0  0  2  0  0  3  0  0  0  0  0  0
   35.0620   32.1760   37.4390 O   0  0  0  0  0  0  0  0  0  0  0  0
   34.3870   31.8180   38.0890 H   0  0  0  0  0  0  0  0  0  0  0  0
   34.1660   35.2450   38.5120 O   0  0  0  0  0  0  0  0  0  0  0  0
   33.6140   35.9890   38.1370 H   0  0  0  0  0  0  0  0  0  0  0  0
   35.8300   26.6180   31.0570 C   0  0  2  0  0  0  0  0  0  0  0  0
   36.7570   27.6700   30.6080 C   0  0  0  0  0  0  0  0  0  0  0  0
   36.2770   27.5300   32.0780 C   0  0  1  0  0  0  0  0  0  0  0  0
   34.8110   26.7150   30.6070 H   0  0  0  0  0  0  0  0  0  0  0  0
   37.8310   27.5030   30.4910 H   0  0  0  0  0  0  0  0  0  0  0  0
   36.3780   28.5230   30.0270 H   0  0  0  0  0  0  0  0  0  0  0  0
   37.0550   27.2020   32.8000 H   0  0  0  0  0  0  0  0  0  0  0  0
   35.7100   22.9540   31.5410 C   0  0  0  0  0  0  0  0  0  0  0  0
   37.0350   22.5520   31.1790 C   0  0  0  0  0  0  0  0  0  0  0  0
   37.9520   23.5930   30.7720 C   0  0  0  0  0  0  0  0  0  0  0  0
   37.5240   24.8740   30.7550 N   0  0  0  0  0  0  0  0  0  0  0  0
   36.2480   25.1840   31.1150 C   0  0  0  0  0  0  0  0  0  0  0  0
   35.3180   24.2470   31.5130 N   0  0  0  0  0  0  0  0  0  0  0  0
   35.0720   22.1380   31.8340 H   0  0  0  0  0  0  0  0  0  0  0  0
   37.3320   21.5310   31.2050 H   0  0  0  0  0  0  0  0  0  0  0  0
   38.9520   23.3240   30.4930 H   0  0  0  0  0  0  0  0  0  0  0  0
  1  5  1  0  0  0  0
  1  2  2  0  0  0  0
  3  1  1  0  0  0  0
  4  3  1  0  0  0  0
  5  6  2  0  0  0  0
  5 10  1  0  0  0  0
  6  7  1  0  0  0  0
  7 12  1  0  0  0  0
  7  8  2  0  0  0  0
  8 13  1  0  0  0  0
  9  8  1  0  0  0  0
 10  9  2  0  0  0  0
 11  6  1  0  0  0  0
 14 19  1  1  0  0  0
 14 18  1  0  0  0  0
 15  9  1  1  0  0  0
 15 16  1  0  0  0  0
 15 14  1  0  0  0  0
 16 17  1  0  0  0  0
 17 18  1  0  0  0  0
 18 21  1  6  0  0  0
 19 20  1  0  0  0  0
 22 21  1  0  0  0  0
 23 26  1  6  0  0  0
 23 34  1  0  0  0  0
 23 25  1  0  0  0  0
 24 23  1  0  0  0  0
 24 25  1  0  0  0  0
 25  3  1  0  0  0  0
 25 29  1  1  0  0  0
 27 24  1  0  0  0  0
 28 24  1  0  0  0  0
 30 36  1  0  0  0  0
 31 37  1  0  0  0  0
 31 30  2  0  0  0  0
 32 31  1  0  0  0  0
 33 32  2  0  0  0  0
 33 34  1  0  0  0  0
 34 35  2  0  0  0  0
 35 30  1  0  0  0  0
 38 32  1  0  0  0  0
M  END
>  <minimizedAffinity>
-5.42592859

$$$$

 OpenBabel03272508553D

 38 41  0  0  1  0  0  0  0  0999 V2000
   35.9370   24.8550   31.6310 C   0  0  0  0  0  0  0  0  0  0  0  0
   34.8330   25.0090   31.0470 O   0  0  0  0  0  0  0  0  0  0  0  0
   36.7070   26.0030   32.0340 N   0  0  0  0  0  0  0  0  0  0  0  0
   37.6870   25.9490   32.3380 H   0  0  0  0  0  0  0  0  0  0  0  0
   36.4730   23.5110   31.9190 C   0  0  0  0  0  0  0  0  0  0  0  0
   35.9400   22.4410   31.2530 C   0  0  0  0  0  0  0  0  0  0  0  0
   36.4530   21.1850   31.5390 C   0  0  0  0  0  0  0  0  0  0  0  0
   37.4620   21.0890   32.4690 C   0  0  0  0  0  0  0  0  0  0  0  0
   38.0080   22.1830   33.1510 C   0  0  0  0  0  0  0  0  0  0  0  0
   37.4650   23.3760   32.8270 N   0  0  0  0  0  0  0  0  0  0  0  0
   35.1530   22.5050   30.5260 H   0  0  0  0  0  0  0  0  0  0  0  0
   36.0830   20.3070   31.0570 H   0  0  0  0  0  0  0  0  0  0  0  0
   37.8880   20.1240   32.7190 H   0  0  0  0  0  0  0  0  0  0  0  0
   38.6290   22.0160   35.5620 C   0  0  1  0  0  3  0  0  0  0  0  0
   39.0850   21.9990   34.1300 C   0  0  2  0  0  3  0  0  0  0  0  0
   40.0890   22.9500   34.0130 O   0  0  0  0  0  0  0  0  0  0  0  0
   39.8680   23.9160   34.9650 C   0  0  0  0  0  2  0  0  0  0  0  0
   39.1590   23.2960   36.1280 C   0  0  2  0  0  3  0  0  0  0  0  0
   37.2290   22.0710   35.6060 O   0  0  0  0  0  0  0  0  0  0  0  0
   36.8910   23.0060   35.7380 H   0  0  0  0  0  0  0  0  0  0  0  0
   40.0180   23.0690   37.2180 O   0  0  0  0  0  0  0  0  0  0  0  0
   40.9490   23.2980   36.9380 H   0  0  0  0  0  0  0  0  0  0  0  0
   36.3800   28.2680   33.0140 C   0  0  2  0  0  0  0  0  0  0  0  0
   37.0350   28.4630   31.7100 C   0  0  0  0  0  0  0  0  0  0  0  0
   36.0500   27.2980   32.0010 C   0  0  1  0  0  0  0  0  0  0  0  0
   37.1040   28.0220   33.8310 H   0  0  0  0  0  0  0  0  0  0  0  0
   36.6600   29.1620   30.9570 H   0  0  0  0  0  0  0  0  0  0  0  0
   38.0980   28.2130   31.5870 H   0  0  0  0  0  0  0  0  0  0  0  0
   35.0710   27.3660   31.4810 H   0  0  0  0  0  0  0  0  0  0  0  0
   33.1850   30.1080   33.2950 C   0  0  0  0  0  0  0  0  0  0  0  0
   33.4000   30.9220   34.4520 C   0  0  0  0  0  0  0  0  0  0  0  0
   34.6810   30.8080   35.1120 C   0  0  0  0  0  0  0  0  0  0  0  0
   35.6010   29.9530   34.6130 N   0  0  0  0  0  0  0  0  0  0  0  0
   35.3290   29.2090   33.5060 C   0  0  0  0  0  0  0  0  0  0  0  0
   34.1300   29.2640   32.8250 N   0  0  0  0  0  0  0  0  0  0  0  0
   32.2150   30.2350   32.8470 H   0  0  0  0  0  0  0  0  0  0  0  0
   32.6480   31.5830   34.8130 H   0  0  0  0  0  0  0  0  0  0  0  0
   34.8730   31.4040   35.9820 H   0  0  0  0  0  0  0  0  0  0  0  0
  1  5  1  0  0  0  0
  1  3  1  0  0  0  0
  2  1  2  0  0  0  0
  3  4  1  0  0  0  0
  5 10  1  0  0  0  0
  6  7  1  0  0  0  0
  6  5  2  0  0  0  0
  7  8  2  0  0  0  0
  8 13  1  0  0  0  0
  8  9  1  0  0  0  0
 10  9  2  0  0  0  0
 11  6  1  0  0  0  0
 12  7  1  0  0  0  0
 14 19  1  6  0  0  0
 14 18  1  0  0  0  0
 15  9  1  6  0  0  0
 15 14  1  0  0  0  0
 16 15  1  0  0  0  0
 16 17  1  0  0  0  0
 17 18  1  0  0  0  0
 18 21  1  1  0  0  0
 19 20  1  0  0  0  0
 22 21  1  0  0  0  0
 23 34  1  0  0  0  0
 23 26  1  1  0  0  0
 24 25  1  0  0  0  0
 24 23  1  0  0  0  0
 25 29  1  6  0  0  0
 25  3  1  0  0  0  0
 25 23  1  0  0  0  0
 27 24  1  0  0  0  0
 28 24  1  0  0  0  0
 30 31  1  0  0  0  0
 31 37  1  0  0  0  0
 31 32  2  0  0  0  0
 32 38  1  0  0  0  0
 33 32  1  0  0  0  0
 34 33  2  0  0  0  0
 35 30  2  0  0  0  0
 35 34  1  0  0  0  0
 36 30  1  0  0  0  0
M  END
>  <minimizedAffinity>
-5.36162996

$$$$

 OpenBabel03272508553D

 38 41  0  0  1  0  0  0  0  0999 V2000
   36.4300   28.1550   33.2780 C   0  0  0  0  0  0  0  0  0  0  0  0
   36.6140   27.2250   32.4510 O   0  0  0  0  0  0  0  0  0  0  0  0
   36.8310   27.9900   34.6510 N   0  0  0  0  0  0  0  0  0  0  0  0
   36.5410   28.6250   35.4060 H   0  0  0  0  0  0  0  0  0  0  0  0
   35.8050   29.4280   32.8740 C   0  0  0  0  0  0  0  0  0  0  0  0
   35.7680   29.7440   31.5440 C   0  0  0  0  0  0  0  0  0  0  0  0
   35.1810   30.9460   31.1830 C   0  0  0  0  0  0  0  0  0  0  0  0
   34.6710   31.7480   32.1790 C   0  0  0  0  0  0  0  0  0  0  0  0
   34.7080   31.4270   33.5400 C   0  0  0  0  0  0  0  0  0  0  0  0
   35.2920   30.2430   33.8240 N   0  0  0  0  0  0  0  0  0  0  0  0
   36.1630   29.1260   30.7590 H   0  0  0  0  0  0  0  0  0  0  0  0
   35.1190   31.2550   30.1620 H   0  0  0  0  0  0  0  0  0  0  0  0
   34.2050   32.6950   31.9360 H   0  0  0  0  0  0  0  0  0  0  0  0
   35.1340   32.8370   35.5550 C   0  0  1  0  0  3  0  0  0  0  0  0
   34.1410   32.3350   34.5440 C   0  0  2  0  0  3  0  0  0  0  0  0
   33.0910   31.7680   35.2540 O   0  0  0  0  0  0  0  0  0  0  0  0
   33.5870   31.3200   36.4540 C   0  0  0  0  0  2  0  0  0  0  0  0
   34.7610   32.1650   36.8380 C   0  0  2  0  0  3  0  0  0  0  0  0
   36.4200   32.4070   35.2000 O   0  0  0  0  0  0  0  0  0  0  0  0
   36.6930   31.5810   35.6970 H   0  0  0  0  0  0  0  0  0  0  0  0
   34.4410   33.0970   37.8420 O   0  0  0  0  0  0  0  0  0  0  0  0
   33.4590   33.0450   38.0190 H   0  0  0  0  0  0  0  0  0  0  0  0
   39.1080   27.0810   35.0860 C   0  0  2  0  0  0  0  0  0  0  0  0
   38.3710   27.0020   36.3590 C   0  0  0  0  0  0  0  0  0  0  0  0
   37.6880   26.8620   34.9710 C   0  0  1  0  0  0  0  0  0  0  0  0
   39.5490   28.0920   34.9010 H   0  0  0  0  0  0  0  0  0  0  0  0
   38.3170   26.0880   36.9560 H   0  0  0  0  0  0  0  0  0  0  0  0
   38.1720   27.9170   36.9350 H   0  0  0  0  0  0  0  0  0  0  0  0
   37.3120   25.8450   34.7300 H   0  0  0  0  0  0  0  0  0  0  0  0
   40.4090   23.8800   33.7690 C   0  0  0  0  0  0  0  0  0  0  0  0
   41.8250   24.0580   33.8730 C   0  0  0  0  0  0  0  0  0  0  0  0
   42.2950   25.3130   34.4140 C   0  0  0  0  0  0  0  0  0  0  0  0
   41.3910   26.2430   34.7930 N   0  0  0  0  0  0  0  0  0  0  0  0
   40.0560   26.0060   34.6670 C   0  0  0  0  0  0  0  0  0  0  0  0
   39.5340   24.8340   34.1590 N   0  0  0  0  0  0  0  0  0  0  0  0
   40.1180   22.9280   33.3590 H   0  0  0  0  0  0  0  0  0  0  0  0
   42.5040   23.3000   33.5620 H   0  0  0  0  0  0  0  0  0  0  0  0
   43.3510   25.4780   34.5040 H   0  0  0  0  0  0  0  0  0  0  0  0
  1  3  1  0  0  0  0
  2  1  2  0  0  0  0
  3 25  1  0  0  0  0
  3  4  1  0  0  0  0
  5  1  1  0  0  0  0
  5 10  1  0  0  0  0
  6  5  2  0  0  0  0
  7  6  1  0  0  0  0
  7  8  2  0  0  0  0
  8  9  1  0  0  0  0
  9 10  2  0  0  0  0
 11  6  1  0  0  0  0
 12  7  1  0  0  0  0
 13  8  1  0  0  0  0
 14 19  1  6  0  0  0
 14 18  1  0  0  0  0
 15  9  1  6  0  0  0
 15 16  1  0  0  0  0
 15 14  1  0  0  0  0
 16 17  1  0  0  0  0
 17 18  1  0  0  0  0
 18 21  1  1  0  0  0
 19 20  1  0  0  0  0
 21 22  1  0  0  0  0
 23 26  1  6  0  0  0
 23 24  1  0  0  0  0
 24 28  1  0  0  0  0
 24 27  1  0  0  0  0
 25 29  1  6  0  0  0
 25 23  1  0  0  0  0
 25 24  1  0  0  0  0
 30 31  2  0  0  0  0
 30 35  1  0  0  0  0
 31 32  1  0  0  0  0
 32 38  1  0  0  0  0
 32 33  2  0  0  0  0
 34 33  1  0  0  0  0
 34 23  1  0  0  0  0
 35 34  2  0  0  0  0
 36 30  1  0  0  0  0
 37 31  1  0  0  0  0
M  END
>  <minimizedAffinity>
-5.26694202

$$$$

 OpenBabel03272508553D

 38 41  0  0  1  0  0  0  0  0999 V2000
   36.5040   27.7630   33.1230 C   0  0  0  0  0  0  0  0  0  0  0  0
   37.0010   26.9760   32.2780 O   0  0  0  0  0  0  0  0  0  0  0  0
   36.7680   27.5780   34.5260 N   0  0  0  0  0  0  0  0  0  0  0  0
   36.2470   28.0610   35.2690 H   0  0  0  0  0  0  0  0  0  0  0  0
   35.6440   28.8880   32.7110 C   0  0  0  0  0  0  0  0  0  0  0  0
   35.9470   29.5500   31.5530 C   0  0  0  0  0  0  0  0  0  0  0  0
   35.1310   30.6080   31.1830 C   0  0  0  0  0  0  0  0  0  0  0  0
   34.0680   30.9280   31.9970 C   0  0  0  0  0  0  0  0  0  0  0  0
   33.7560   30.2510   33.1820 C   0  0  0  0  0  0  0  0  0  0  0  0
   34.5900   29.2320   33.4850 N   0  0  0  0  0  0  0  0  0  0  0  0
   36.7730   29.3090   30.9110 H   0  0  0  0  0  0  0  0  0  0  0  0
   35.3100   31.1690   30.2920 H   0  0  0  0  0  0  0  0  0  0  0  0
   33.4080   31.7480   31.7410 H   0  0  0  0  0  0  0  0  0  0  0  0
   32.9570   31.1080   35.3850 C   0  0  1  0  0  3  0  0  0  0  0  0
   32.6040   30.6520   33.9980 C   0  0  2  0  0  3  0  0  0  0  0  0
   31.6600   29.6430   34.1310 O   0  0  0  0  0  0  0  0  0  0  0  0
   31.8610   29.0350   35.3460 C   0  0  0  0  0  2  0  0  0  0  0  0
   32.4530   30.0310   36.2930 C   0  0  2  0  0  3  0  0  0  0  0  0
   34.3510   31.1670   35.5170 O   0  0  0  0  0  0  0  0  0  0  0  0
   34.7250   30.3450   35.9510 H   0  0  0  0  0  0  0  0  0  0  0  0
   31.5070   30.5220   37.2110 O   0  0  0  0  0  0  0  0  0  0  0  0
   30.6120   30.1540   36.9680 H   0  0  0  0  0  0  0  0  0  0  0  0
   39.1450   27.1770   35.1510 C   0  0  2  0  0  0  0  0  0  0  0  0
   38.3370   26.8740   36.3450 C   0  0  0  0  0  0  0  0  0  0  0  0
   37.8270   26.6540   34.8950 C   0  0  1  0  0  0  0  0  0  0  0  0
   39.3600   28.2680   35.0380 H   0  0  0  0  0  0  0  0  0  0  0  0
   38.4400   25.9430   36.9090 H   0  0  0  0  0  0  0  0  0  0  0  0
   37.8880   27.6930   36.9250 H   0  0  0  0  0  0  0  0  0  0  0  0
   37.7120   25.5920   34.5910 H   0  0  0  0  0  0  0  0  0  0  0  0
   42.4960   26.2450   33.8990 C   0  0  0  0  0  0  0  0  0  0  0  0
   42.5510   24.8430   34.1810 C   0  0  0  0  0  0  0  0  0  0  0  0
   41.3920   24.2500   34.8090 C   0  0  0  0  0  0  0  0  0  0  0  0
   40.3280   25.0330   35.0930 N   0  0  0  0  0  0  0  0  0  0  0  0
   40.3440   26.3610   34.7950 C   0  0  0  0  0  0  0  0  0  0  0  0
   41.4130   26.9960   34.1970 N   0  0  0  0  0  0  0  0  0  0  0  0
   43.3870   26.6310   33.4330 H   0  0  0  0  0  0  0  0  0  0  0  0
   43.4100   24.2620   33.9410 H   0  0  0  0  0  0  0  0  0  0  0  0
   41.4020   23.2020   35.0340 H   0  0  0  0  0  0  0  0  0  0  0  0
  1  3  1  0  0  0  0
  2  1  2  0  0  0  0
  3 25  1  0  0  0  0
  3  4  1  0  0  0  0
  5  1  1  0  0  0  0
  5 10  1  0  0  0  0
  6  5  2  0  0  0  0
  7  6  1  0  0  0  0
  7  8  2  0  0  0  0
  8  9  1  0  0  0  0
  9 10  2  0  0  0  0
 11  6  1  0  0  0  0
 12  7  1  0  0  0  0
 13  8  1  0  0  0  0
 14 19  1  6  0  0  0
 14 18  1  0  0  0  0
 15  9  1  1  0  0  0
 15 16  1  0  0  0  0
 15 14  1  0  0  0  0
 16 17  1  0  0  0  0
 17 18  1  0  0  0  0
 18 21  1  1  0  0  0
 19 20  1  0  0  0  0
 22 21  1  0  0  0  0
 23 26  1  6  0  0  0
 23 24  1  0  0  0  0
 24 27  1  0  0  0  0
 24 28  1  0  0  0  0
 25 29  1  6  0  0  0
 25 23  1  0  0  0  0
 25 24  1  0  0  0  0
 30 31  2  0  0  0  0
 30 35  1  0  0  0  0
 31 32  1  0  0  0  0
 32 38  1  0  0  0  0
 32 33  2  0  0  0  0
 34 33  1  0  0  0  0
 34 23  1  0  0  0  0
 35 34  2  0  0  0  0
 36 30  1  0  0  0  0
 37 31  1  0  0  0  0
M  END
>  <minimizedAffinity>
-5.26683378

$$$$

 OpenBabel03272508553D

 38 41  0  0  1  0  0  0  0  0999 V2000
   36.2260   25.2510   31.0670 C   0  0  0  0  0  0  0  0  0  0  0  0
   34.9910   25.0830   30.8970 O   0  0  0  0  0  0  0  0  0  0  0  0
   36.7490   26.5710   31.3080 N   0  0  0  0  0  0  0  0  0  0  0  0
   37.7500   26.7990   31.2670 H   0  0  0  0  0  0  0  0  0  0  0  0
   37.1680   24.1160   31.0270 C   0  0  0  0  0  0  0  0  0  0  0  0
   38.3570   24.2800   30.3710 C   0  0  0  0  0  0  0  0  0  0  0  0
   39.2280   23.2020   30.3390 C   0  0  0  0  0  0  0  0  0  0  0  0
   38.8490   22.0380   30.9680 C   0  0  0  0  0  0  0  0  0  0  0  0
   37.6330   21.8690   31.6400 C   0  0  0  0  0  0  0  0  0  0  0  0
   36.8300   22.9560   31.6330 N   0  0  0  0  0  0  0  0  0  0  0  0
   38.6620   25.1830   29.8770 H   0  0  0  0  0  0  0  0  0  0  0  0
   40.1730   23.2600   29.8440 H   0  0  0  0  0  0  0  0  0  0  0  0
   39.5030   21.1740   30.9640 H   0  0  0  0  0  0  0  0  0  0  0  0
   36.4290   19.6910   31.4610 C   0  0  1  0  0  3  0  0  0  0  0  0
   37.3000   20.5950   32.2870 C   0  0  2  0  0  3  0  0  0  0  0  0
   36.6670   20.7600   33.5110 O   0  0  0  0  0  0  0  0  0  0  0  0
   35.3160   20.6060   33.3110 C   0  0  0  0  0  2  0  0  0  0  0  0
   35.1010   19.6890   32.1490 C   0  0  2  0  0  3  0  0  0  0  0  0
   36.2550   20.2470   30.1860 O   0  0  0  0  0  0  0  0  0  0  0  0
   35.3920   20.7510   30.1080 H   0  0  0  0  0  0  0  0  0  0  0  0
   34.7230   18.3960   32.5530 O   0  0  0  0  0  0  0  0  0  0  0  0
   34.7670   18.3520   33.5500 H   0  0  0  0  0  0  0  0  0  0  0  0
   36.2300   28.7210   32.4520 C   0  0  2  0  0  0  0  0  0  0  0  0
   36.1940   28.9920   31.0050 C   0  0  0  0  0  0  0  0  0  0  0  0
   35.7990   27.6240   31.6230 C   0  0  1  0  0  0  0  0  0  0  0  0
   37.2650   28.7490   32.8730 H   0  0  0  0  0  0  0  0  0  0  0  0
   35.3560   29.5000   30.5170 H   0  0  0  0  0  0  0  0  0  0  0  0
   37.1310   29.0420   30.4320 H   0  0  0  0  0  0  0  0  0  0  0  0
   34.7180   27.3740   31.5680 H   0  0  0  0  0  0  0  0  0  0  0  0
   34.8590   30.7770   35.2020 C   0  0  0  0  0  0  0  0  0  0  0  0
   33.4500   30.5570   35.0780 C   0  0  0  0  0  0  0  0  0  0  0  0
   33.0100   29.6760   34.0190 C   0  0  0  0  0  0  0  0  0  0  0  0
   33.9330   29.1100   33.2120 N   0  0  0  0  0  0  0  0  0  0  0  0
   35.2600   29.3630   33.3890 C   0  0  0  0  0  0  0  0  0  0  0  0
   35.7530   30.1910   34.3750 N   0  0  0  0  0  0  0  0  0  0  0  0
   35.1270   31.4410   36.0060 H   0  0  0  0  0  0  0  0  0  0  0  0
   32.7550   31.0240   35.7350 H   0  0  0  0  0  0  0  0  0  0  0  0
   31.9610   29.4920   33.8990 H   0  0  0  0  0  0  0  0  0  0  0  0
  1  3  1  0  0  0  0
  2  1  2  0  0  0  0
  3 25  1  0  0  0  0
  4  3  1  0  0  0  0
  5  1  1  0  0  0  0
  5 10  1  0  0  0  0
  6  5  2  0  0  0  0
  7  6  1  0  0  0  0
  7  8  2  0  0  0  0
  8  9  1  0  0  0  0
 10  9  2  0  0  0  0
 11  6  1  0  0  0  0
 12  7  1  0  0  0  0
 13  8  1  0  0  0  0
 14 19  1  6  0  0  0
 14 18  1  0  0  0  0
 14 15  1  0  0  0  0
 15  9  1  6  0  0  0
 15 16  1  0  0  0  0
 17 16  1  0  0  0  0
 18 21  1  1  0  0  0
 18 17  1  0  0  0  0
 20 19  1  0  0  0  0
 21 22  1  0  0  0  0
 23 26  1  1  0  0  0
 23 34  1  0  0  0  0
 24 25  1  0  0  0  0
 24 23  1  0  0  0  0
 25 29  1  1  0  0  0
 25 23  1  0  0  0  0
 27 24  1  0  0  0  0
 28 24  1  0  0  0  0
 30 36  1  0  0  0  0
 31 30  1  0  0  0  0
 31 37  1  0  0  0  0
 32 31  2  0  0  0  0
 33 34  2  0  0  0  0
 33 32  1  0  0  0  0
 34 35  1  0  0  0  0
 35 30  2  0  0  0  0
 38 32  1  0  0  0  0
M  END
>  <minimizedAffinity>
-5.26498652

$$$$

 OpenBabel03272508553D

 38 41  0  0  1  0  0  0  0  0999 V2000
   36.4930   27.9530   33.5630 C   0  0  0  0  0  0  0  0  0  0  0  0
   36.4870   27.6390   34.7810 O   0  0  0  0  0  0  0  0  0  0  0  0
   36.9920   27.0260   32.5800 N   0  0  0  0  0  0  0  0  0  0  0  0
   37.1980   27.2880   31.6080 H   0  0  0  0  0  0  0  0  0  0  0  0
   35.9980   29.2650   33.1060 C   0  0  0  0  0  0  0  0  0  0  0  0
   36.1550   29.5980   31.7880 C   0  0  0  0  0  0  0  0  0  0  0  0
   35.6880   30.8360   31.3770 C   0  0  0  0  0  0  0  0  0  0  0  0
   35.0940   31.6530   32.3120 C   0  0  0  0  0  0  0  0  0  0  0  0
   34.9320   31.3140   33.6600 C   0  0  0  0  0  0  0  0  0  0  0  0
   35.4090   30.0950   33.9950 N   0  0  0  0  0  0  0  0  0  0  0  0
   36.6160   28.9680   31.0510 H   0  0  0  0  0  0  0  0  0  0  0  0
   35.7780   31.1600   30.3630 H   0  0  0  0  0  0  0  0  0  0  0  0
   34.7170   32.6280   32.0280 H   0  0  0  0  0  0  0  0  0  0  0  0
   35.1650   32.6760   35.7380 C   0  0  1  0  0  3  0  0  0  0  0  0
   34.2880   32.2410   34.5980 C   0  0  2  0  0  3  0  0  0  0  0  0
   33.1260   31.7240   35.1540 O   0  0  0  0  0  0  0  0  0  0  0  0
   33.4360   31.2360   36.4000 C   0  0  0  0  0  2  0  0  0  0  0  0
   34.5920   32.0110   36.9500 C   0  0  2  0  0  3  0  0  0  0  0  0
   36.4620   32.1800   35.5460 O   0  0  0  0  0  0  0  0  0  0  0  0
   36.6230   31.3350   36.0590 H   0  0  0  0  0  0  0  0  0  0  0  0
   34.1930   32.9480   37.9200 O   0  0  0  0  0  0  0  0  0  0  0  0
   33.1950   32.9480   37.9670 H   0  0  0  0  0  0  0  0  0  0  0  0
   37.3400   24.6310   31.9930 C   0  0  2  0  0  0  0  0  0  0  0  0
   38.6030   25.1100   32.5800 C   0  0  0  0  0  0  0  0  0  0  0  0
   37.2100   25.6520   33.0010 C   0  0  1  0  0  0  0  0  0  0  0  0
   37.2430   24.8810   30.9070 H   0  0  0  0  0  0  0  0  0  0  0  0
   39.1190   24.5830   33.3870 H   0  0  0  0  0  0  0  0  0  0  0  0
   39.2570   25.7790   32.0020 H   0  0  0  0  0  0  0  0  0  0  0  0
   36.8820   25.3700   34.0230 H   0  0  0  0  0  0  0  0  0  0  0  0
   36.8660   21.3240   33.5760 C   0  0  0  0  0  0  0  0  0  0  0  0
   35.8400   20.7390   32.7670 C   0  0  0  0  0  0  0  0  0  0  0  0
   35.3360   21.5310   31.6670 C   0  0  0  0  0  0  0  0  0  0  0  0
   35.8490   22.7620   31.4560 N   0  0  0  0  0  0  0  0  0  0  0  0
   36.8260   23.2550   32.2660 C   0  0  0  0  0  0  0  0  0  0  0  0
   37.3560   22.5600   33.3340 N   0  0  0  0  0  0  0  0  0  0  0  0
   37.2010   20.6900   34.3790 H   0  0  0  0  0  0  0  0  0  0  0  0
   35.4620   19.7650   32.9680 H   0  0  0  0  0  0  0  0  0  0  0  0
   34.5660   21.1210   31.0430 H   0  0  0  0  0  0  0  0  0  0  0  0
  1  2  2  0  0  0  0
  3 25  1  0  0  0  0
  3  1  1  0  0  0  0
  4  3  1  0  0  0  0
  5  1  1  0  0  0  0
  5 10  1  0  0  0  0
  6  5  2  0  0  0  0
  7  6  1  0  0  0  0
  7  8  2  0  0  0  0
  8  9  1  0  0  0  0
  9 10  2  0  0  0  0
 11  6  1  0  0  0  0
 12  7  1  0  0  0  0
 13  8  1  0  0  0  0
 14 19  1  6  0  0  0
 14 18  1  0  0  0  0
 15  9  1  1  0  0  0
 15 16  1  0  0  0  0
 15 14  1  0  0  0  0
 16 17  1  0  0  0  0
 17 18  1  0  0  0  0
 18 21  1  1  0  0  0
 19 20  1  0  0  0  0
 21 22  1  0  0  0  0
 23 26  1  6  0  0  0
 23 34  1  0  0  0  0
 23 24  1  0  0  0  0
 23 25  1  0  0  0  0
 24 25  1  0  0  0  0
 24 27  1  0  0  0  0
 25 29  1  1  0  0  0
 28 24  1  0  0  0  0
 30 36  1  0  0  0  0
 31 37  1  0  0  0  0
 31 30  2  0  0  0  0
 32 31  1  0  0  0  0
 33 32  2  0  0  0  0
 33 34  1  0  0  0  0
 34 35  2  0  0  0  0
 35 30  1  0  0  0  0
 38 32  1  0  0  0  0
M  END
>  <minimizedAffinity>
-5.21989775

$$$$
