
 OpenBabel03272500413D

 40 43  0  0  1  0  0  0  0  0999 V2000
   37.1450   25.6110   32.6700 C   0  0  1  0  0  0  0  0  0  0  0  0
   37.9620   26.0410   31.5780 C   0  0  0  0  0  0  0  0  0  0  0  0
   37.7710   24.5730   31.8450 C   0  0  2  0  0  0  0  0  0  0  0  0
   36.1040   25.9110   32.6890 H   0  0  0  0  0  0  0  0  0  0  0  0
   38.9530   26.5190   31.8270 H   0  0  0  0  0  0  0  0  0  0  0  0
   37.5120   26.4910   30.6910 H   0  0  0  0  0  0  0  0  0  0  0  0
   38.6750   24.0770   32.1990 H   0  0  0  0  0  0  0  0  0  0  0  0
   37.3890   22.3530   30.7970 C   0  0  2  0  0  0  0  0  0  0  0  0
   37.0130   23.7710   30.8370 C   0  0  1  0  0  0  0  0  0  0  0  0
   35.5690   23.7610   31.2110 C   0  0  0  0  0  0  0  0  0  0  0  0
   35.3030   22.5570   31.8680 O   0  0  0  0  0  0  0  0  0  0  0  0
   35.9580   21.6680   31.0760 C   0  0  0  0  0  0  0  0  0  0  0  0
   37.5790   21.7360   29.9400 H   0  0  0  0  0  0  0  0  0  0  0  0
   37.2090   24.2280   29.8290 H   0  0  0  0  0  0  0  0  0  0  0  0
   35.0820   23.5630   30.2160 H   0  0  0  0  0  0  0  0  0  0  0  0
   35.0700   24.6320   31.5420 H   0  0  0  0  0  0  0  0  0  0  0  0
   36.0700   20.6600   31.3780 H   0  0  0  0  0  0  0  0  0  0  0  0
   35.4800   21.7500   30.0480 H   0  0  0  0  0  0  0  0  0  0  0  0
   38.0700   21.9780   31.9460 O   0  0  0  0  0  0  0  0  0  0  0  0
   38.2960   20.7520   32.2060 C   0  0  0  0  0  0  0  0  0  0  0  0
   38.8620   20.1300   31.4500 H   0  0  0  0  0  0  0  0  0  0  0  0
   37.4380   20.1730   32.6360 H   0  0  0  0  0  0  0  0  0  0  0  0
   39.0280   20.7040   33.1170 H   0  0  0  0  0  0  0  0  0  0  0  0
   37.6200   25.6080   34.1100 C   0  0  0  0  0  0  0  0  0  0  0  0
   37.7040   26.8220   34.7710 C   0  0  0  0  0  0  0  0  0  0  0  0
   38.1580   26.7760   36.0760 C   0  0  0  0  0  0  0  0  0  0  0  0
   38.4930   25.5730   36.6310 N   0  0  0  0  0  0  0  0  0  0  0  0
   38.4030   24.3940   35.9650 C   0  0  0  0  0  0  0  0  0  0  0  0
   37.9580   24.4200   34.6830 N   0  0  0  0  0  0  0  0  0  0  0  0
   37.4350   27.7550   34.3090 H   0  0  0  0  0  0  0  0  0  0  0  0
   38.2640   27.6630   36.6860 H   0  0  0  0  0  0  0  0  0  0  0  0
   39.4820   23.3060   37.9080 C   0  0  2  0  0  3  0  0  0  0  0  0
   38.7770   23.1060   36.6070 C   0  0  2  0  0  3  0  0  0  0  0  0
   39.6660   22.4590   35.7500 O   0  0  0  0  0  0  0  0  0  0  0  0
   40.9470   22.8840   36.1470 C   0  0  0  0  0  2  0  0  0  0  0  0
   40.8300   22.6360   37.6440 C   0  0  2  0  0  3  0  0  0  0  0  0
   38.8620   22.6550   38.9700 O   0  0  0  0  0  0  0  0  0  0  0  0
   38.5380   21.7870   38.6120 H   0  0  0  0  0  0  0  0  0  0  0  0
   40.6780   21.2910   37.8860 O   0  0  0  0  0  0  0  0  0  0  0  0
   40.9390   20.7940   37.0700 H   0  0  0  0  0  0  0  0  0  0  0  0
  1  4  1  6  0  0  0
  1 24  1  0  0  0  0
  2  5  1  0  0  0  0
  2  3  1  0  0  0  0
  2  1  1  0  0  0  0
  3  7  1  1  0  0  0
  3  1  1  0  0  0  0
  6  2  1  0  0  0  0
  8 13  1  6  0  0  0
  8  9  1  0  0  0  0
  8 12  1  0  0  0  0
  8 19  1  0  0  0  0
  9 14  1  6  0  0  0
  9 10  1  0  0  0  0
  9  3  1  0  0  0  0
 10 16  1  0  0  0  0
 10 11  1  0  0  0  0
 12 17  1  0  0  0  0
 12 11  1  0  0  0  0
 15 10  1  0  0  0  0
 18 12  1  0  0  0  0
 19 20  1  0  0  0  0
 20 22  1  0  0  0  0
 20 23  1  0  0  0  0
 21 20  1  0  0  0  0
 24 29  2  0  0  0  0
 24 25  1  0  0  0  0
 25 26  2  0  0  0  0
 26 27  1  0  0  0  0
 26 31  1  0  0  0  0
 28 27  2  0  0  0  0
 29 28  1  0  0  0  0
 30 25  1  0  0  0  0
 32 37  1  1  0  0  0
 33 28  1  6  0  0  0
 33 32  1  0  0  0  0
 34 35  1  0  0  0  0
 34 33  1  0  0  0  0
 35 36  1  0  0  0  0
 36 39  1  6  0  0  0
 36 32  1  0  0  0  0
 38 37  1  0  0  0  0
 40 39  1  0  0  0  0
M  END
>  <minimizedAffinity>
-5.79924345

$$$$

 OpenBabel03272500413D

 40 43  0  0  1  0  0  0  0  0999 V2000
   36.7590   23.7770   32.0100 C   0  0  1  0  0  0  0  0  0  0  0  0
   37.4350   23.5680   30.7670 C   0  0  0  0  0  0  0  0  0  0  0  0
   37.0290   22.3910   31.6110 C   0  0  2  0  0  0  0  0  0  0  0  0
   35.8110   24.3000   32.0030 H   0  0  0  0  0  0  0  0  0  0  0  0
   38.5250   23.8540   30.7130 H   0  0  0  0  0  0  0  0  0  0  0  0
   36.9260   23.7530   29.8190 H   0  0  0  0  0  0  0  0  0  0  0  0
   37.8750   21.8610   32.0490 H   0  0  0  0  0  0  0  0  0  0  0  0
   36.4370   20.1140   30.8150 C   0  0  2  0  0  0  0  0  0  0  0  0
   35.9710   21.4800   31.0800 C   0  0  1  0  0  0  0  0  0  0  0  0
   34.9080   21.3150   32.1130 C   0  0  0  0  0  0  0  0  0  0  0  0
   35.1370   20.1070   32.7770 O   0  0  0  0  0  0  0  0  0  0  0  0
   35.4160   19.2770   31.7370 C   0  0  0  0  0  0  0  0  0  0  0  0
   36.2520   19.4990   29.9560 H   0  0  0  0  0  0  0  0  0  0  0  0
   35.5940   21.9280   30.1190 H   0  0  0  0  0  0  0  0  0  0  0  0
   34.0220   21.0340   31.4780 H   0  0  0  0  0  0  0  0  0  0  0  0
   34.5400   22.1310   32.6740 H   0  0  0  0  0  0  0  0  0  0  0  0
   35.7750   18.2980   31.9130 H   0  0  0  0  0  0  0  0  0  0  0  0
   34.4900   19.2750   31.0790 H   0  0  0  0  0  0  0  0  0  0  0  0
   37.6320   19.8510   31.4700 O   0  0  0  0  0  0  0  0  0  0  0  0
   38.1210   18.6760   31.5010 C   0  0  0  0  0  0  0  0  0  0  0  0
   38.3310   18.1470   30.5240 H   0  0  0  0  0  0  0  0  0  0  0  0
   37.6650   17.9720   32.2450 H   0  0  0  0  0  0  0  0  0  0  0  0
   39.2000   18.7440   31.9470 H   0  0  0  0  0  0  0  0  0  0  0  0
   37.4720   24.1910   33.2820 C   0  0  0  0  0  0  0  0  0  0  0  0
   37.6890   25.5420   33.4980 C   0  0  0  0  0  0  0  0  0  0  0  0
   38.3570   25.8740   34.6610 C   0  0  0  0  0  0  0  0  0  0  0  0
   38.7610   24.8840   35.5130 N   0  0  0  0  0  0  0  0  0  0  0  0
   38.5390   23.5650   35.2820 C   0  0  0  0  0  0  0  0  0  0  0  0
   37.8830   23.2200   34.1450 N   0  0  0  0  0  0  0  0  0  0  0  0
   37.3600   26.3000   32.8100 H   0  0  0  0  0  0  0  0  0  0  0  0
   38.5800   26.8970   34.9320 H   0  0  0  0  0  0  0  0  0  0  0  0
   39.5860   23.1030   37.4760 C   0  0  2  0  0  3  0  0  0  0  0  0
   38.9960   22.5200   36.2350 C   0  0  2  0  0  3  0  0  0  0  0  0
   40.0020   21.7920   35.6020 O   0  0  0  0  0  0  0  0  0  0  0  0
   41.2030   22.4420   35.9350 C   0  0  0  0  0  2  0  0  0  0  0  0
   41.0100   22.5480   37.4410 C   0  0  2  0  0  3  0  0  0  0  0  0
   38.9640   22.6590   38.6380 O   0  0  0  0  0  0  0  0  0  0  0  0
   38.7530   21.7010   38.4900 H   0  0  0  0  0  0  0  0  0  0  0  0
   40.9770   21.2920   37.9990 O   0  0  0  0  0  0  0  0  0  0  0  0
   41.3410   20.6470   37.3420 H   0  0  0  0  0  0  0  0  0  0  0  0
  1  4  1  6  0  0  0
  1 24  1  0  0  0  0
  2  3  1  0  0  0  0
  2  1  1  0  0  0  0
  3  1  1  0  0  0  0
  3  7  1  1  0  0  0
  5  2  1  0  0  0  0
  6  2  1  0  0  0  0
  8 13  1  6  0  0  0
  8  9  1  0  0  0  0
  8 19  1  0  0  0  0
  8 12  1  0  0  0  0
  9 14  1  6  0  0  0
  9  3  1  0  0  0  0
  9 10  1  0  0  0  0
 10 16  1  0  0  0  0
 10 11  1  0  0  0  0
 12 17  1  0  0  0  0
 12 11  1  0  0  0  0
 15 10  1  0  0  0  0
 18 12  1  0  0  0  0
 19 20  1  0  0  0  0
 20 23  1  0  0  0  0
 20 22  1  0  0  0  0
 21 20  1  0  0  0  0
 24 25  2  0  0  0  0
 24 29  1  0  0  0  0
 25 26  1  0  0  0  0
 26 31  1  0  0  0  0
 26 27  2  0  0  0  0
 28 27  1  0  0  0  0
 29 28  2  0  0  0  0
 30 25  1  0  0  0  0
 32 37  1  1  0  0  0
 33 28  1  6  0  0  0
 33 32  1  0  0  0  0
 34 35  1  0  0  0  0
 34 33  1  0  0  0  0
 35 36  1  0  0  0  0
 36 32  1  0  0  0  0
 36 39  1  1  0  0  0
 38 37  1  0  0  0  0
 40 39  1  0  0  0  0
M  END
>  <minimizedAffinity>
-5.70318174

$$$$

 OpenBabel03272500413D

 40 43  0  0  1  0  0  0  0  0999 V2000
   39.1270   26.5720   33.7770 C   0  0  1  0  0  0  0  0  0  0  0  0
   40.0550   26.8490   34.8290 C   0  0  0  0  0  0  0  0  0  0  0  0
   39.0200   25.7720   35.0020 C   0  0  2  0  0  0  0  0  0  0  0  0
   39.5120   26.2660   32.8120 H   0  0  0  0  0  0  0  0  0  0  0  0
   39.9330   27.8230   35.3880 H   0  0  0  0  0  0  0  0  0  0  0  0
   41.1070   26.5760   34.7290 H   0  0  0  0  0  0  0  0  0  0  0  0
   38.2580   26.0190   35.7410 H   0  0  0  0  0  0  0  0  0  0  0  0
   39.1540   23.6920   36.3540 C   0  0  2  0  0  0  0  0  0  0  0  0
   39.4910   24.3570   35.0900 C   0  0  1  0  0  0  0  0  0  0  0  0
   38.7930   23.5470   34.0490 C   0  0  0  0  0  0  0  0  0  0  0  0
   37.7340   22.8760   34.6640 O   0  0  0  0  0  0  0  0  0  0  0  0
   38.3250   22.4270   35.8020 C   0  0  0  0  0  0  0  0  0  0  0  0
   39.7800   23.0820   36.9760 H   0  0  0  0  0  0  0  0  0  0  0  0
   40.6090   24.3670   34.9710 H   0  0  0  0  0  0  0  0  0  0  0  0
   39.5180   22.6980   33.9050 H   0  0  0  0  0  0  0  0  0  0  0  0
   38.6550   23.9020   33.0630 H   0  0  0  0  0  0  0  0  0  0  0  0
   37.7460   21.9850   36.5700 H   0  0  0  0  0  0  0  0  0  0  0  0
   39.1730   21.7470   35.4700 H   0  0  0  0  0  0  0  0  0  0  0  0
   38.1490   24.3700   37.0290 O   0  0  0  0  0  0  0  0  0  0  0  0
   37.9500   24.1820   38.2730 C   0  0  0  0  0  0  0  0  0  0  0  0
   38.8020   24.3590   38.9940 H   0  0  0  0  0  0  0  0  0  0  0  0
   37.3820   23.2550   38.5470 H   0  0  0  0  0  0  0  0  0  0  0  0
   37.1840   24.9850   38.6420 H   0  0  0  0  0  0  0  0  0  0  0  0
   37.9040   27.4260   33.5040 C   0  0  0  0  0  0  0  0  0  0  0  0
   37.0520   27.7030   34.5610 C   0  0  0  0  0  0  0  0  0  0  0  0
   35.9420   28.4690   34.2640 C   0  0  0  0  0  0  0  0  0  0  0  0
   35.7440   28.9020   32.9830 N   0  0  0  0  0  0  0  0  0  0  0  0
   36.5900   28.6200   31.9620 C   0  0  0  0  0  0  0  0  0  0  0  0
   37.6880   27.8680   32.2340 N   0  0  0  0  0  0  0  0  0  0  0  0
   37.2330   27.3480   35.5600 H   0  0  0  0  0  0  0  0  0  0  0  0
   35.2110   28.7460   35.0120 H   0  0  0  0  0  0  0  0  0  0  0  0
   37.5640   29.0690   29.7310 C   0  0  2  0  0  3  0  0  0  0  0  0
   36.3370   29.1100   30.5810 C   0  0  2  0  0  3  0  0  0  0  0  0
   35.9460   30.4450   30.6800 O   0  0  0  0  0  0  0  0  0  0  0  0
   37.1350   31.1910   30.5920 C   0  0  0  0  0  2  0  0  0  0  0  0
   37.7370   30.5410   29.3550 C   0  0  2  0  0  3  0  0  0  0  0  0
   37.3960   28.3290   28.5660 O   0  0  0  0  0  0  0  0  0  0  0  0
   36.4750   28.5170   28.2470 H   0  0  0  0  0  0  0  0  0  0  0  0
   36.9390   30.7840   28.2620 O   0  0  0  0  0  0  0  0  0  0  0  0
   36.3210   31.5250   28.4840 H   0  0  0  0  0  0  0  0  0  0  0  0
  1  4  1  6  0  0  0
  1  2  1  0  0  0  0
  1  3  1  0  0  0  0
  2  3  1  0  0  0  0
  2  5  1  0  0  0  0
  3  9  1  0  0  0  0
  3  7  1  1  0  0  0
  6  2  1  0  0  0  0
  8 13  1  1  0  0  0
  8 19  1  0  0  0  0
  9 14  1  6  0  0  0
  9  8  1  0  0  0  0
 10 11  1  0  0  0  0
 10  9  1  0  0  0  0
 11 12  1  0  0  0  0
 12  8  1  0  0  0  0
 12 17  1  0  0  0  0
 15 10  1  0  0  0  0
 16 10  1  0  0  0  0
 18 12  1  0  0  0  0
 19 20  1  0  0  0  0
 20 22  1  0  0  0  0
 20 23  1  0  0  0  0
 20 21  1  0  0  0  0
 24  1  1  0  0  0  0
 24 25  1  0  0  0  0
 25 30  1  0  0  0  0
 26 25  2  0  0  0  0
 26 31  1  0  0  0  0
 27 26  1  0  0  0  0
 28 29  1  0  0  0  0
 28 27  2  0  0  0  0
 29 24  2  0  0  0  0
 32 37  1  6  0  0  0
 32 33  1  0  0  0  0
 33 34  1  0  0  0  0
 33 28  1  1  0  0  0
 35 34  1  0  0  0  0
 36 39  1  6  0  0  0
 36 32  1  0  0  0  0
 36 35  1  0  0  0  0
 38 37  1  0  0  0  0
 39 40  1  0  0  0  0
M  END
>  <minimizedAffinity>
-5.43743944

$$$$

 OpenBabel03272500413D

 40 43  0  0  1  0  0  0  0  0999 V2000
   37.2100   25.5960   32.3750 C   0  0  1  0  0  0  0  0  0  0  0  0
   36.0340   26.2500   31.8900 C   0  0  0  0  0  0  0  0  0  0  0  0
   37.3790   26.9020   31.7290 C   0  0  2  0  0  0  0  0  0  0  0  0
   37.4600   24.6190   31.9800 H   0  0  0  0  0  0  0  0  0  0  0  0
   35.3140   26.6600   32.6570 H   0  0  0  0  0  0  0  0  0  0  0  0
   35.5090   25.8710   31.0120 H   0  0  0  0  0  0  0  0  0  0  0  0
   37.5040   27.7940   32.3430 H   0  0  0  0  0  0  0  0  0  0  0  0
   37.6660   28.3750   29.7480 C   0  0  2  0  0  0  0  0  0  0  0  0
   37.9200   27.0580   30.3450 C   0  0  1  0  0  0  0  0  0  0  0  0
   39.4080   26.9530   30.3900 C   0  0  0  0  0  0  0  0  0  0  0  0
   39.9310   28.2480   30.3760 O   0  0  0  0  0  0  0  0  0  0  0  0
   39.1720   28.8340   29.4120 C   0  0  0  0  0  0  0  0  0  0  0  0
   37.3160   28.6050   28.7610 H   0  0  0  0  0  0  0  0  0  0  0  0
   37.4370   26.2700   29.7050 H   0  0  0  0  0  0  0  0  0  0  0  0
   39.6400   26.6270   29.3380 H   0  0  0  0  0  0  0  0  0  0  0  0
   39.9000   26.2210   30.9720 H   0  0  0  0  0  0  0  0  0  0  0  0
   39.2250   29.8780   29.2470 H   0  0  0  0  0  0  0  0  0  0  0  0
   39.3650   28.2460   28.4590 H   0  0  0  0  0  0  0  0  0  0  0  0
   37.3330   29.3120   30.7160 O   0  0  0  0  0  0  0  0  0  0  0  0
   36.8260   30.4350   30.3970 C   0  0  0  0  0  0  0  0  0  0  0  0
   35.8690   30.4500   29.7950 H   0  0  0  0  0  0  0  0  0  0  0  0
   37.5440   31.2120   30.0240 H   0  0  0  0  0  0  0  0  0  0  0  0
   36.4720   30.9650   31.3780 H   0  0  0  0  0  0  0  0  0  0  0  0
   37.6110   25.5880   33.8370 C   0  0  0  0  0  0  0  0  0  0  0  0
   37.6170   26.7940   34.5190 C   0  0  0  0  0  0  0  0  0  0  0  0
   38.0050   26.7440   35.8440 C   0  0  0  0  0  0  0  0  0  0  0  0
   38.3540   25.5450   36.3990 N   0  0  0  0  0  0  0  0  0  0  0  0
   38.3410   24.3740   35.7140 C   0  0  0  0  0  0  0  0  0  0  0  0
   37.9620   24.4030   34.4110 N   0  0  0  0  0  0  0  0  0  0  0  0
   37.3380   27.7240   34.0550 H   0  0  0  0  0  0  0  0  0  0  0  0
   38.0470   27.6240   36.4710 H   0  0  0  0  0  0  0  0  0  0  0  0
   39.2960   23.2900   37.7230 C   0  0  2  0  0  3  0  0  0  0  0  0
   38.7290   23.0900   36.3560 C   0  0  2  0  0  3  0  0  0  0  0  0
   39.7300   22.5190   35.5720 O   0  0  0  0  0  0  0  0  0  0  0  0
   40.9410   23.0030   36.0980 C   0  0  0  0  0  2  0  0  0  0  0  0
   40.7000   22.7050   37.5710 C   0  0  2  0  0  3  0  0  0  0  0  0
   38.6200   22.5740   38.7050 O   0  0  0  0  0  0  0  0  0  0  0  0
   38.3820   21.7010   38.2970 H   0  0  0  0  0  0  0  0  0  0  0  0
   40.6050   21.3470   37.7650 O   0  0  0  0  0  0  0  0  0  0  0  0
   40.9690   20.8900   36.9650 H   0  0  0  0  0  0  0  0  0  0  0  0
  1  4  1  6  0  0  0
  1 24  1  0  0  0  0
  2  1  1  0  0  0  0
  2  5  1  0  0  0  0
  3  2  1  0  0  0  0
  3  7  1  1  0  0  0
  3  1  1  0  0  0  0
  6  2  1  0  0  0  0
  8 13  1  6  0  0  0
  8  9  1  0  0  0  0
  8 19  1  0  0  0  0
  9 14  1  6  0  0  0
  9 10  1  0  0  0  0
  9  3  1  0  0  0  0
 10 16  1  0  0  0  0
 11 10  1  0  0  0  0
 12  8  1  0  0  0  0
 12 11  1  0  0  0  0
 15 10  1  0  0  0  0
 17 12  1  0  0  0  0
 18 12  1  0  0  0  0
 20 19  1  0  0  0  0
 20 23  1  0  0  0  0
 21 20  1  0  0  0  0
 22 20  1  0  0  0  0
 24 29  2  0  0  0  0
 24 25  1  0  0  0  0
 25 26  2  0  0  0  0
 26 27  1  0  0  0  0
 26 31  1  0  0  0  0
 28 27  2  0  0  0  0
 29 28  1  0  0  0  0
 30 25  1  0  0  0  0
 32 37  1  1  0  0  0
 33 28  1  6  0  0  0
 33 32  1  0  0  0  0
 34 35  1  0  0  0  0
 34 33  1  0  0  0  0
 35 36  1  0  0  0  0
 36 32  1  0  0  0  0
 36 39  1  6  0  0  0
 38 37  1  0  0  0  0
 40 39  1  0  0  0  0
M  END
>  <minimizedAffinity>
-5.43033314

$$$$

 OpenBabel03272500413D

 40 43  0  0  1  0  0  0  0  0999 V2000
   37.2330   26.0390   32.6380 C   0  0  1  0  0  0  0  0  0  0  0  0
   36.7540   27.2530   32.0520 C   0  0  0  0  0  0  0  0  0  0  0  0
   38.1710   26.8080   31.8130 C   0  0  2  0  0  0  0  0  0  0  0  0
   36.7330   25.1110   32.3900 H   0  0  0  0  0  0  0  0  0  0  0  0
   36.5620   28.1230   32.7450 H   0  0  0  0  0  0  0  0  0  0  0  0
   36.0360   27.2280   31.2320 H   0  0  0  0  0  0  0  0  0  0  0  0
   38.9120   27.4460   32.2950 H   0  0  0  0  0  0  0  0  0  0  0  0
   39.7680   27.0550   29.9260 C   0  0  2  0  0  0  0  0  0  0  0  0
   38.5530   26.4020   30.4270 C   0  0  1  0  0  0  0  0  0  0  0  0
   38.8840   24.9470   30.4200 C   0  0  0  0  0  0  0  0  0  0  0  0
   40.2750   24.8230   30.4750 O   0  0  0  0  0  0  0  0  0  0  0  0
   40.6640   25.7650   29.5750 C   0  0  0  0  0  0  0  0  0  0  0  0
   39.9390   27.5040   28.9670 H   0  0  0  0  0  0  0  0  0  0  0  0
   37.6930   26.6660   29.7520 H   0  0  0  0  0  0  0  0  0  0  0  0
   38.6980   24.6810   29.3430 H   0  0  0  0  0  0  0  0  0  0  0  0
   38.2990   24.2370   30.9380 H   0  0  0  0  0  0  0  0  0  0  0  0
   41.6860   26.0240   29.4780 H   0  0  0  0  0  0  0  0  0  0  0  0
   40.2110   25.4560   28.5800 H   0  0  0  0  0  0  0  0  0  0  0  0
   40.5130   27.5990   30.9630 O   0  0  0  0  0  0  0  0  0  0  0  0
   41.6750   28.0770   30.7560 C   0  0  0  0  0  0  0  0  0  0  0  0
   41.7970   28.9040   29.9940 H   0  0  0  0  0  0  0  0  0  0  0  0
   42.5080   27.3310   30.6720 H   0  0  0  0  0  0  0  0  0  0  0  0
   42.0180   28.6290   31.7290 H   0  0  0  0  0  0  0  0  0  0  0  0
   37.6550   25.9290   34.0910 C   0  0  0  0  0  0  0  0  0  0  0  0
   37.7270   27.0930   34.8390 C   0  0  0  0  0  0  0  0  0  0  0  0
   38.1310   26.9500   36.1520 C   0  0  0  0  0  0  0  0  0  0  0  0
   38.4320   25.7070   36.6330 N   0  0  0  0  0  0  0  0  0  0  0  0
   38.3550   24.5780   35.8830 C   0  0  0  0  0  0  0  0  0  0  0  0
   37.9590   24.6990   34.5910 N   0  0  0  0  0  0  0  0  0  0  0  0
   37.4840   28.0590   34.4330 H   0  0  0  0  0  0  0  0  0  0  0  0
   38.2220   27.7900   36.8270 H   0  0  0  0  0  0  0  0  0  0  0  0
   39.2920   23.3400   37.8110 C   0  0  2  0  0  3  0  0  0  0  0  0
   38.6930   23.2440   36.4460 C   0  0  2  0  0  3  0  0  0  0  0  0
   39.6520   22.6730   35.6120 O   0  0  0  0  0  0  0  0  0  0  0  0
   40.8940   23.0700   36.1410 C   0  0  0  0  0  2  0  0  0  0  0  0
   40.6640   22.7000   37.5990 C   0  0  2  0  0  3  0  0  0  0  0  0
   38.5990   22.6020   38.7640 O   0  0  0  0  0  0  0  0  0  0  0  0
   38.3130   21.7650   38.3130 H   0  0  0  0  0  0  0  0  0  0  0  0
   40.5080   21.3390   37.7190 O   0  0  0  0  0  0  0  0  0  0  0  0
   40.8370   20.9120   36.8890 H   0  0  0  0  0  0  0  0  0  0  0  0
  1  4  1  6  0  0  0
  1 24  1  0  0  0  0
  2  1  1  0  0  0  0
  2  5  1  0  0  0  0
  3  2  1  0  0  0  0
  3  7  1  1  0  0  0
  3  1  1  0  0  0  0
  6  2  1  0  0  0  0
  8 13  1  6  0  0  0
  8  9  1  0  0  0  0
  8 19  1  0  0  0  0
  9 14  1  6  0  0  0
  9  3  1  0  0  0  0
 10  9  1  0  0  0  0
 10 11  1  0  0  0  0
 10 16  1  0  0  0  0
 12  8  1  0  0  0  0
 12 11  1  0  0  0  0
 15 10  1  0  0  0  0
 17 12  1  0  0  0  0
 18 12  1  0  0  0  0
 20 19  1  0  0  0  0
 20 23  1  0  0  0  0
 21 20  1  0  0  0  0
 22 20  1  0  0  0  0
 24 29  2  0  0  0  0
 24 25  1  0  0  0  0
 25 26  2  0  0  0  0
 26 27  1  0  0  0  0
 26 31  1  0  0  0  0
 28 27  2  0  0  0  0
 29 28  1  0  0  0  0
 30 25  1  0  0  0  0
 32 37  1  1  0  0  0
 33 28  1  6  0  0  0
 33 32  1  0  0  0  0
 34 35  1  0  0  0  0
 34 33  1  0  0  0  0
 35 36  1  0  0  0  0
 36 39  1  6  0  0  0
 36 32  1  0  0  0  0
 38 37  1  0  0  0  0
 40 39  1  0  0  0  0
M  END
>  <minimizedAffinity>
-5.25549507

$$$$

 OpenBabel03272500413D

 40 43  0  0  1  0  0  0  0  0999 V2000
   37.8420   25.9770   35.6470 C   0  0  1  0  0  0  0  0  0  0  0  0
   38.2560   27.3380   35.7990 C   0  0  0  0  0  0  0  0  0  0  0  0
   38.8060   26.5040   34.6750 C   0  0  2  0  0  0  0  0  0  0  0  0
   36.7900   25.7680   35.4970 H   0  0  0  0  0  0  0  0  0  0  0  0
   38.9210   27.5830   36.6770 H   0  0  0  0  0  0  0  0  0  0  0  0
   37.5680   28.1550   35.5780 H   0  0  0  0  0  0  0  0  0  0  0  0
   39.8650   26.2710   34.7880 H   0  0  0  0  0  0  0  0  0  0  0  0
   39.5660   27.2590   32.4340 C   0  0  2  0  0  0  0  0  0  0  0  0
   38.4290   26.8760   33.2780 C   0  0  1  0  0  0  0  0  0  0  0  0
   37.8480   25.6820   32.5980 C   0  0  0  0  0  0  0  0  0  0  0  0
   38.8490   25.1050   31.8130 O   0  0  0  0  0  0  0  0  0  0  0  0
   39.3990   26.2030   31.2300 C   0  0  0  0  0  0  0  0  0  0  0  0
   39.6510   28.0930   31.7650 H   0  0  0  0  0  0  0  0  0  0  0  0
   37.7150   27.7430   33.3430 H   0  0  0  0  0  0  0  0  0  0  0  0
   37.2160   26.1650   31.8010 H   0  0  0  0  0  0  0  0  0  0  0  0
   37.1600   25.0410   33.0810 H   0  0  0  0  0  0  0  0  0  0  0  0
   40.2920   26.1220   30.6670 H   0  0  0  0  0  0  0  0  0  0  0  0
   38.5670   26.6930   30.6320 H   0  0  0  0  0  0  0  0  0  0  0  0
   40.7680   26.8260   32.9770 O   0  0  0  0  0  0  0  0  0  0  0  0
   41.8260   27.5260   32.8730 C   0  0  0  0  0  0  0  0  0  0  0  0
   41.8200   28.5850   33.2700 H   0  0  0  0  0  0  0  0  0  0  0  0
   42.3580   27.4720   31.8880 H   0  0  0  0  0  0  0  0  0  0  0  0
   42.6470   27.0450   33.5540 H   0  0  0  0  0  0  0  0  0  0  0  0
   38.3920   24.8440   36.4910 C   0  0  0  0  0  0  0  0  0  0  0  0
   37.9220   24.7090   37.7880 C   0  0  0  0  0  0  0  0  0  0  0  0
   38.4620   23.6750   38.5270 C   0  0  0  0  0  0  0  0  0  0  0  0
   39.4040   22.8610   37.9620 N   0  0  0  0  0  0  0  0  0  0  0  0
   39.8510   23.0100   36.6900 C   0  0  0  0  0  0  0  0  0  0  0  0
   39.3310   24.0210   35.9470 N   0  0  0  0  0  0  0  0  0  0  0  0
   37.1800   25.3650   38.2070 H   0  0  0  0  0  0  0  0  0  0  0  0
   38.1690   23.4770   39.5490 H   0  0  0  0  0  0  0  0  0  0  0  0
   41.8880   21.6740   37.1260 C   0  0  2  0  0  3  0  0  0  0  0  0
   40.8780   22.1030   36.1130 C   0  0  2  0  0  3  0  0  0  0  0  0
   41.5570   22.8170   35.1280 O   0  0  0  0  0  0  0  0  0  0  0  0
   42.6430   23.4230   35.7850 C   0  0  0  0  0  2  0  0  0  0  0  0
   43.1870   22.2090   36.5220 C   0  0  2  0  0  3  0  0  0  0  0  0
   41.9880   20.2930   37.2460 O   0  0  0  0  0  0  0  0  0  0  0  0
   41.8950   19.9270   36.3280 H   0  0  0  0  0  0  0  0  0  0  0  0
   43.6370   21.2740   35.6190 O   0  0  0  0  0  0  0  0  0  0  0  0
   43.7390   21.7140   34.7380 H   0  0  0  0  0  0  0  0  0  0  0  0
  1  4  1  6  0  0  0
  1  2  1  0  0  0  0
  1 24  1  0  0  0  0
  2  5  1  0  0  0  0
  3  7  1  1  0  0  0
  3  1  1  0  0  0  0
  3  2  1  0  0  0  0
  6  2  1  0  0  0  0
  8 13  1  6  0  0  0
  8 19  1  0  0  0  0
  8  9  1  0  0  0  0
  9 14  1  1  0  0  0
  9  3  1  0  0  0  0
 10 16  1  0  0  0  0
 10  9  1  0  0  0  0
 11 10  1  0  0  0  0
 12 11  1  0  0  0  0
 12  8  1  0  0  0  0
 15 10  1  0  0  0  0
 17 12  1  0  0  0  0
 18 12  1  0  0  0  0
 20 19  1  0  0  0  0
 20 21  1  0  0  0  0
 20 23  1  0  0  0  0
 22 20  1  0  0  0  0
 24 25  1  0  0  0  0
 25 30  1  0  0  0  0
 25 26  2  0  0  0  0
 26 31  1  0  0  0  0
 27 26  1  0  0  0  0
 28 27  2  0  0  0  0
 29 24  2  0  0  0  0
 29 28  1  0  0  0  0
 32 37  1  6  0  0  0
 33 28  1  1  0  0  0
 33 32  1  0  0  0  0
 34 35  1  0  0  0  0
 34 33  1  0  0  0  0
 35 36  1  0  0  0  0
 36 39  1  6  0  0  0
 36 32  1  0  0  0  0
 38 37  1  0  0  0  0
 40 39  1  0  0  0  0
M  END
>  <minimizedAffinity>
-5.22958755

$$$$

 OpenBabel03272500413D

 40 43  0  0  1  0  0  0  0  0999 V2000
   38.5240   26.9890   34.2870 C   0  0  1  0  0  0  0  0  0  0  0  0
   38.8810   27.1600   35.6620 C   0  0  0  0  0  0  0  0  0  0  0  0
   38.2710   25.8670   35.1960 C   0  0  2  0  0  0  0  0  0  0  0  0
   39.2990   27.0770   33.5360 H   0  0  0  0  0  0  0  0  0  0  0  0
   38.2560   27.8710   36.2770 H   0  0  0  0  0  0  0  0  0  0  0  0
   39.9280   27.1840   35.9660 H   0  0  0  0  0  0  0  0  0  0  0  0
   37.2630   25.7010   35.5780 H   0  0  0  0  0  0  0  0  0  0  0  0
   39.0120   23.8670   36.4700 C   0  0  2  0  0  0  0  0  0  0  0  0
   39.1220   24.6400   35.2270 C   0  0  1  0  0  0  0  0  0  0  0  0
   38.6600   23.7000   34.1640 C   0  0  0  0  0  0  0  0  0  0  0  0
   37.8450   22.7380   34.7660 O   0  0  0  0  0  0  0  0  0  0  0  0
   38.5620   22.4370   35.8810 C   0  0  0  0  0  0  0  0  0  0  0  0
   39.7970   23.4380   37.0620 H   0  0  0  0  0  0  0  0  0  0  0  0
   40.1900   24.9690   35.0970 H   0  0  0  0  0  0  0  0  0  0  0  0
   39.5910   23.0950   33.9820 H   0  0  0  0  0  0  0  0  0  0  0  0
   38.4070   24.0330   33.1940 H   0  0  0  0  0  0  0  0  0  0  0  0
   38.1460   21.8260   36.6380 H   0  0  0  0  0  0  0  0  0  0  0  0
   39.5600   22.0350   35.5140 H   0  0  0  0  0  0  0  0  0  0  0  0
   37.8710   24.2110   37.1800 O   0  0  0  0  0  0  0  0  0  0  0  0
   37.8500   24.1680   38.4520 C   0  0  0  0  0  0  0  0  0  0  0  0
   38.6110   24.7730   39.0300 H   0  0  0  0  0  0  0  0  0  0  0  0
   37.7160   23.1540   38.9100 H   0  0  0  0  0  0  0  0  0  0  0  0
   36.8570   24.6680   38.8150 H   0  0  0  0  0  0  0  0  0  0  0  0
   37.2640   27.5730   33.6790 C   0  0  0  0  0  0  0  0  0  0  0  0
   36.9130   27.1750   32.4000 C   0  0  0  0  0  0  0  0  0  0  0  0
   35.7670   27.7430   31.8770 C   0  0  0  0  0  0  0  0  0  0  0  0
   35.0600   28.6430   32.6240 N   0  0  0  0  0  0  0  0  0  0  0  0
   35.4210   29.0190   33.8760 C   0  0  0  0  0  0  0  0  0  0  0  0
   36.5430   28.4710   34.4070 N   0  0  0  0  0  0  0  0  0  0  0  0
   37.4900   26.4650   31.8340 H   0  0  0  0  0  0  0  0  0  0  0  0
   35.4000   27.5060   30.8880 H   0  0  0  0  0  0  0  0  0  0  0  0
   33.6040   30.6990   33.8140 C   0  0  2  0  0  3  0  0  0  0  0  0
   34.6220   30.0020   34.6550 C   0  0  2  0  0  3  0  0  0  0  0  0
   35.5040   30.9730   35.1260 O   0  0  0  0  0  0  0  0  0  0  0  0
   35.5300   31.9700   34.1340 C   0  0  0  0  0  2  0  0  0  0  0  0
   34.0320   32.1600   33.9450 C   0  0  2  0  0  3  0  0  0  0  0  0
   32.3090   30.5680   34.3040 O   0  0  0  0  0  0  0  0  0  0  0  0
   32.3800   30.6220   35.2930 H   0  0  0  0  0  0  0  0  0  0  0  0
   33.4720   32.6520   35.1010 O   0  0  0  0  0  0  0  0  0  0  0  0
   34.1980   33.0040   35.6750 H   0  0  0  0  0  0  0  0  0  0  0  0
  1  4  1  6  0  0  0
  1  3  1  0  0  0  0
  1  2  1  0  0  0  0
  2  6  1  0  0  0  0
  2  5  1  0  0  0  0
  3  9  1  0  0  0  0
  3  7  1  1  0  0  0
  3  2  1  0  0  0  0
  8 13  1  1  0  0  0
  8 19  1  0  0  0  0
  9 14  1  6  0  0  0
  9  8  1  0  0  0  0
 10 11  1  0  0  0  0
 10  9  1  0  0  0  0
 11 12  1  0  0  0  0
 12  8  1  0  0  0  0
 12 17  1  0  0  0  0
 15 10  1  0  0  0  0
 16 10  1  0  0  0  0
 18 12  1  0  0  0  0
 19 20  1  0  0  0  0
 20 23  1  0  0  0  0
 20 22  1  0  0  0  0
 20 21  1  0  0  0  0
 24  1  1  0  0  0  0
 24 29  1  0  0  0  0
 25 24  2  0  0  0  0
 26 25  1  0  0  0  0
 26 27  2  0  0  0  0
 27 28  1  0  0  0  0
 28 29  2  0  0  0  0
 30 25  1  0  0  0  0
 31 26  1  0  0  0  0
 32 36  1  0  0  0  0
 32 37  1  1  0  0  0
 32 33  1  0  0  0  0
 33 28  1  6  0  0  0
 33 34  1  0  0  0  0
 35 34  1  0  0  0  0
 36 35  1  0  0  0  0
 36 39  1  1  0  0  0
 37 38  1  0  0  0  0
 39 40  1  0  0  0  0
M  END
>  <minimizedAffinity>
-5.22575855

$$$$

 OpenBabel03272500413D

 40 43  0  0  1  0  0  0  0  0999 V2000
   36.7290   24.1530   31.5440 C   0  0  1  0  0  0  0  0  0  0  0  0
   37.6570   23.6120   30.5990 C   0  0  0  0  0  0  0  0  0  0  0  0
   37.1130   22.7460   31.7020 C   0  0  2  0  0  0  0  0  0  0  0  0
   35.7900   24.5520   31.1800 H   0  0  0  0  0  0  0  0  0  0  0  0
   38.7260   23.9690   30.6580 H   0  0  0  0  0  0  0  0  0  0  0  0
   37.3540   23.4260   29.5680 H   0  0  0  0  0  0  0  0  0  0  0  0
   37.8620   22.4730   32.4460 H   0  0  0  0  0  0  0  0  0  0  0  0
   36.8620   20.2970   31.3710 C   0  0  2  0  0  0  0  0  0  0  0  0
   36.2150   21.6140   31.3240 C   0  0  1  0  0  0  0  0  0  0  0  0
   35.1080   21.5190   32.3190 C   0  0  0  0  0  0  0  0  0  0  0  0
   35.4330   20.5110   33.2300 O   0  0  0  0  0  0  0  0  0  0  0  0
   35.8850   19.5340   32.4000 C   0  0  0  0  0  0  0  0  0  0  0  0
   36.8150   19.5030   30.6520 H   0  0  0  0  0  0  0  0  0  0  0  0
   35.8570   21.8050   30.2750 H   0  0  0  0  0  0  0  0  0  0  0  0
   34.3100   21.0000   31.7170 H   0  0  0  0  0  0  0  0  0  0  0  0
   34.6040   22.3750   32.6800 H   0  0  0  0  0  0  0  0  0  0  0  0
   36.3470   18.6670   32.7930 H   0  0  0  0  0  0  0  0  0  0  0  0
   35.0160   19.2750   31.7150 H   0  0  0  0  0  0  0  0  0  0  0  0
   38.0290   20.3340   32.1210 O   0  0  0  0  0  0  0  0  0  0  0  0
   39.0100   19.5700   31.8480 C   0  0  0  0  0  0  0  0  0  0  0  0
   39.4600   19.6120   30.8110 H   0  0  0  0  0  0  0  0  0  0  0  0
   38.9250   18.5110   32.2030 H   0  0  0  0  0  0  0  0  0  0  0  0
   39.9250   19.9100   32.4940 H   0  0  0  0  0  0  0  0  0  0  0  0
   37.1480   25.0290   32.7090 C   0  0  0  0  0  0  0  0  0  0  0  0
   36.8040   26.3700   32.6740 C   0  0  0  0  0  0  0  0  0  0  0  0
   37.2210   27.1350   33.7470 C   0  0  0  0  0  0  0  0  0  0  0  0
   37.9300   26.5490   34.7570 N   0  0  0  0  0  0  0  0  0  0  0  0
   38.2570   25.2330   34.7730 C   0  0  0  0  0  0  0  0  0  0  0  0
   37.8560   24.4650   33.7280 N   0  0  0  0  0  0  0  0  0  0  0  0
   36.2450   26.8050   31.8640 H   0  0  0  0  0  0  0  0  0  0  0  0
   37.0080   28.1930   33.8230 H   0  0  0  0  0  0  0  0  0  0  0  0
   39.1740   23.1550   35.7570 C   0  0  2  0  0  3  0  0  0  0  0  0
   39.0320   24.6360   35.8930 C   0  0  2  0  0  3  0  0  0  0  0  0
   38.3180   24.8770   37.0660 O   0  0  0  0  0  0  0  0  0  0  0  0
   37.4710   23.7650   37.2250 C   0  0  0  0  0  2  0  0  0  0  0  0
   38.4930   22.6540   37.0300 C   0  0  2  0  0  3  0  0  0  0  0  0
   40.4990   22.7320   35.7640 O   0  0  0  0  0  0  0  0  0  0  0  0
   40.9690   23.3020   36.4280 H   0  0  0  0  0  0  0  0  0  0  0  0
   39.4250   22.6920   38.0400 O   0  0  0  0  0  0  0  0  0  0  0  0
   39.0680   23.2500   38.7750 H   0  0  0  0  0  0  0  0  0  0  0  0
  1  4  1  6  0  0  0
  1  3  1  0  0  0  0
  1 24  1  0  0  0  0
  2  5  1  0  0  0  0
  2  1  1  0  0  0  0
  2  3  1  0  0  0  0
  3  7  1  1  0  0  0
  6  2  1  0  0  0  0
  8 13  1  6  0  0  0
  8 19  1  0  0  0  0
  8 12  1  0  0  0  0
  9 14  1  6  0  0  0
  9  8  1  0  0  0  0
  9  3  1  0  0  0  0
  9 10  1  0  0  0  0
 10 16  1  0  0  0  0
 10 11  1  0  0  0  0
 12 17  1  0  0  0  0
 12 11  1  0  0  0  0
 15 10  1  0  0  0  0
 18 12  1  0  0  0  0
 20 19  1  0  0  0  0
 20 22  1  0  0  0  0
 20 23  1  0  0  0  0
 21 20  1  0  0  0  0
 24 29  1  0  0  0  0
 25 24  2  0  0  0  0
 25 26  1  0  0  0  0
 26 31  1  0  0  0  0
 26 27  2  0  0  0  0
 27 28  1  0  0  0  0
 29 28  2  0  0  0  0
 30 25  1  0  0  0  0
 32 37  1  1  0  0  0
 32 33  1  0  0  0  0
 32 36  1  0  0  0  0
 33 28  1  6  0  0  0
 33 34  1  0  0  0  0
 34 35  1  0  0  0  0
 36 35  1  0  0  0  0
 36 39  1  1  0  0  0
 37 38  1  0  0  0  0
 39 40  1  0  0  0  0
M  END
>  <minimizedAffinity>
-5.17135334

$$$$

 OpenBabel03272500413D

 40 43  0  0  1  0  0  0  0  0999 V2000
   38.6340   23.1580   34.6310 C   0  0  1  0  0  0  0  0  0  0  0  0
   37.9580   22.1240   35.3530 C   0  0  0  0  0  0  0  0  0  0  0  0
   37.7150   22.2960   33.8790 C   0  0  2  0  0  0  0  0  0  0  0  0
   39.7160   23.1540   34.6120 H   0  0  0  0  0  0  0  0  0  0  0  0
   37.1560   22.4390   36.0820 H   0  0  0  0  0  0  0  0  0  0  0  0
   38.5030   21.2500   35.7110 H   0  0  0  0  0  0  0  0  0  0  0  0
   36.7120   22.6550   33.6450 H   0  0  0  0  0  0  0  0  0  0  0  0
   37.1010   20.4940   32.2830 C   0  0  2  0  0  0  0  0  0  0  0  0
   38.1850   21.2150   32.9610 C   0  0  1  0  0  0  0  0  0  0  0  0
   38.9730   21.8280   31.8520 C   0  0  0  0  0  0  0  0  0  0  0  0
   38.1350   21.9410   30.7400 O   0  0  0  0  0  0  0  0  0  0  0  0
   37.5170   20.7300   30.7450 C   0  0  0  0  0  0  0  0  0  0  0  0
   36.9840   19.4370   32.1470 H   0  0  0  0  0  0  0  0  0  0  0  0
   38.7770   20.4850   33.5780 H   0  0  0  0  0  0  0  0  0  0  0  0
   39.6200   20.9630   31.5340 H   0  0  0  0  0  0  0  0  0  0  0  0
   39.6800   22.5930   32.0240 H   0  0  0  0  0  0  0  0  0  0  0  0
   36.7040   20.5390   30.0960 H   0  0  0  0  0  0  0  0  0  0  0  0
   38.3410   19.9560   30.6270 H   0  0  0  0  0  0  0  0  0  0  0  0
   35.9120   21.2090   32.3290 O   0  0  0  0  0  0  0  0  0  0  0  0
   34.7900   20.6290   32.1680 C   0  0  0  0  0  0  0  0  0  0  0  0
   34.5150   19.7760   32.8570 H   0  0  0  0  0  0  0  0  0  0  0  0
   34.5020   20.3960   31.1100 H   0  0  0  0  0  0  0  0  0  0  0  0
   33.9460   21.3960   32.4260 H   0  0  0  0  0  0  0  0  0  0  0  0
   38.2050   24.6120   34.6690 C   0  0  0  0  0  0  0  0  0  0  0  0
   38.4260   25.3260   35.8350 C   0  0  0  0  0  0  0  0  0  0  0  0
   38.0060   26.6420   35.8330 C   0  0  0  0  0  0  0  0  0  0  0  0
   37.4100   27.1580   34.7160 N   0  0  0  0  0  0  0  0  0  0  0  0
   37.2020   26.4400   33.5830 C   0  0  0  0  0  0  0  0  0  0  0  0
   37.6100   25.1460   33.5670 N   0  0  0  0  0  0  0  0  0  0  0  0
   38.8980   24.8940   36.7000 H   0  0  0  0  0  0  0  0  0  0  0  0
   38.1280   27.2930   36.6880 H   0  0  0  0  0  0  0  0  0  0  0  0
   36.7740   26.2320   31.1550 C   0  0  2  0  0  3  0  0  0  0  0  0
   36.5490   27.0400   32.3900 C   0  0  2  0  0  3  0  0  0  0  0  0
   37.1340   28.2880   32.1800 O   0  0  0  0  0  0  0  0  0  0  0  0
   38.2170   28.0540   31.3140 C   0  0  0  0  0  2  0  0  0  0  0  0
   37.5030   27.2280   30.2530 C   0  0  2  0  0  3  0  0  0  0  0  0
   35.5930   25.8490   30.5300 O   0  0  0  0  0  0  0  0  0  0  0  0
   34.9720   26.6190   30.6150 H   0  0  0  0  0  0  0  0  0  0  0  0
   36.5480   27.9940   29.6270 O   0  0  0  0  0  0  0  0  0  0  0  0
   36.7290   28.9460   29.8280 H   0  0  0  0  0  0  0  0  0  0  0  0
  1  4  1  6  0  0  0
  1 24  1  0  0  0  0
  1  2  1  0  0  0  0
  2  6  1  0  0  0  0
  2  5  1  0  0  0  0
  3  7  1  6  0  0  0
  3  1  1  0  0  0  0
  3  2  1  0  0  0  0
  8 13  1  1  0  0  0
  8 19  1  0  0  0  0
  8  9  1  0  0  0  0
  9 14  1  1  0  0  0
  9  3  1  0  0  0  0
 10 16  1  0  0  0  0
 10  9  1  0  0  0  0
 11 12  1  0  0  0  0
 11 10  1  0  0  0  0
 12  8  1  0  0  0  0
 15 10  1  0  0  0  0
 17 12  1  0  0  0  0
 18 12  1  0  0  0  0
 20 19  1  0  0  0  0
 20 23  1  0  0  0  0
 20 21  1  0  0  0  0
 22 20  1  0  0  0  0
 24 25  1  0  0  0  0
 25 30  1  0  0  0  0
 26 25  2  0  0  0  0
 26 31  1  0  0  0  0
 27 26  1  0  0  0  0
 28 27  2  0  0  0  0
 29 28  1  0  0  0  0
 29 24  2  0  0  0  0
 32 37  1  6  0  0  0
 32 33  1  0  0  0  0
 33 28  1  1  0  0  0
 34 33  1  0  0  0  0
 35 34  1  0  0  0  0
 36 39  1  1  0  0  0
 36 32  1  0  0  0  0
 36 35  1  0  0  0  0
 37 38  1  0  0  0  0
 39 40  1  0  0  0  0
M  END
>  <minimizedAffinity>
-4.98791552

$$$$
