
 OpenBabel03272509213D

 46 50  0  0  1  0  0  0  0  0999 V2000
   38.0960   31.3510   47.8220 C   0  0  0  0  0  0  0  0  0  0  0  0
   37.1040   31.3340   48.7900 C   0  0  0  0  0  0  0  0  0  0  0  0
   37.1410   32.4510   49.6450 C   0  0  0  0  0  0  0  0  0  0  0  0
   38.0950   33.4580   49.5050 C   0  0  0  0  0  0  0  0  0  0  0  0
   39.0560   33.3620   48.4780 C   0  0  0  0  0  0  0  0  0  0  0  0
   39.0450   32.2810   47.6250 C   0  0  0  0  0  0  0  0  0  0  0  0
   36.4180   32.5600   50.4480 H   0  0  0  0  0  0  0  0  0  0  0  0
   38.0950   34.3080   50.1820 H   0  0  0  0  0  0  0  0  0  0  0  0
   39.7550   34.1680   48.4300 H   0  0  0  0  0  0  0  0  0  0  0  0
   35.0000   30.3010   48.1260 C   0  0  0  0  0  0  0  0  0  0  0  0
   36.1300   30.3080   48.9350 C   0  0  0  0  0  0  0  0  0  0  0  0
   36.2620   29.2760   49.8800 C   0  0  0  0  0  0  0  0  0  0  0  0
   35.2850   28.3380   49.9480 N   0  0  0  0  0  0  0  0  0  0  0  0
   34.1950   28.3760   49.1330 C   0  0  0  0  0  0  0  0  0  0  0  0
   34.0550   29.3490   48.2300 N   0  0  0  0  0  0  0  0  0  0  0  0
   34.8860   31.0900   47.3960 H   0  0  0  0  0  0  0  0  0  0  0  0
   33.4620   27.5840   49.2560 H   0  0  0  0  0  0  0  0  0  0  0  0
   37.4540   29.2350   50.7710 C   0  0  0  0  0  0  0  0  0  0  0  0
   38.3730   29.1490   50.1550 H   0  0  0  0  0  0  0  0  0  0  0  0
   37.4900   30.0580   51.5030 H   0  0  0  0  0  0  0  0  0  0  0  0
   37.4020   28.2920   51.3460 H   0  0  0  0  0  0  0  0  0  0  0  0
   38.1420   30.2680   46.9130 O   0  0  0  0  0  0  0  0  0  0  0  0
   38.3890   29.3900   47.3290 H   0  0  0  0  0  0  0  0  0  0  0  0
   40.0090   32.2470   46.6460 O   0  0  0  0  0  0  0  0  0  0  0  0
   40.5200   31.1080   44.4900 C   0  0  0  0  0  0  0  0  0  0  0  0
   39.8250   31.9750   45.3220 C   0  0  0  0  0  0  0  0  0  0  0  0
   38.7770   32.7030   44.7920 C   0  0  0  0  0  0  0  0  0  0  0  0
   38.4160   32.5710   43.4350 C   0  0  0  0  0  0  0  0  0  0  0  0
   37.4760   33.1240   42.6500 N   0  0  0  0  0  0  0  0  0  0  0  0
   37.5720   32.6340   41.3960 C   0  0  0  0  0  0  0  0  0  0  0  0
   38.6060   31.7530   41.4160 N   0  0  0  0  0  0  0  0  0  0  0  0
   39.1310   31.7040   42.6540 C   0  0  0  0  0  0  0  0  0  0  0  0
   40.1740   30.9720   43.1570 C   0  0  0  0  0  0  0  0  0  0  0  0
   41.3200   30.5900   45.0100 H   0  0  0  0  0  0  0  0  0  0  0  0
   38.1490   33.4120   45.3130 H   0  0  0  0  0  0  0  0  0  0  0  0
   36.7760   33.8240   42.9560 H   0  0  0  0  0  0  0  0  0  0  0  0
   37.0150   32.8250   40.5120 H   0  0  0  0  0  0  0  0  0  0  0  0
   40.4510   28.6210   42.3480 C   0  0  2  0  0  3  0  0  0  0  0  0
   40.9890   30.0100   42.3490 C   0  0  1  0  0  3  0  0  0  0  0  0
   41.0590   30.4960   41.0730 O   0  0  0  0  0  0  0  0  0  0  0  0
   40.7540   29.4670   40.1930 C   0  0  0  0  0  2  0  0  0  0  0  0
   39.9290   28.4680   40.9350 C   0  0  2  0  0  3  0  0  0  0  0  0
   39.4480   28.4190   43.2920 O   0  0  0  0  0  0  0  0  0  0  0  0
   38.5870   28.4680   42.8130 H   0  0  0  0  0  0  0  0  0  0  0  0
   38.5550   28.6690   40.8430 O   0  0  0  0  0  0  0  0  0  0  0  0
   38.2810   29.1330   40.0130 H   0  0  0  0  0  0  0  0  0  0  0  0
  1  2  1  0  0  0  0
  2 11  1  0  0  0  0
  2  3  2  0  0  0  0
  3  7  1  0  0  0  0
  4  3  1  0  0  0  0
  4  8  1  0  0  0  0
  5  4  2  0  0  0  0
  6  1  2  0  0  0  0
  6  5  1  0  0  0  0
  9  5  1  0  0  0  0
 10 15  2  0  0  0  0
 10 11  1  0  0  0  0
 11 12  2  0  0  0  0
 12 13  1  0  0  0  0
 12 18  1  0  0  0  0
 14 17  1  0  0  0  0
 14 13  2  0  0  0  0
 15 14  1  0  0  0  0
 16 10  1  0  0  0  0
 18 21  1  0  0  0  0
 18 20  1  0  0  0  0
 19 18  1  0  0  0  0
 22 23  1  0  0  0  0
 22  1  1  0  0  0  0
 24  6  1  0  0  0  0
 25 34  1  0  0  0  0
 25 26  1  0  0  0  0
 26 24  1  0  0  0  0
 27 35  1  0  0  0  0
 27 26  2  0  0  0  0
 28 27  1  0  0  0  0
 29 36  1  0  0  0  0
 29 28  1  0  0  0  0
 30 31  2  0  0  0  0
 30 29  1  0  0  0  0
 31 32  1  0  0  0  0
 32 33  1  0  0  0  0
 32 28  2  0  0  0  0
 33 25  2  0  0  0  0
 37 30  1  0  0  0  0
 38 39  1  0  0  0  0
 38 43  1  1  0  0  0
 39 33  1  1  0  0  0
 40 39  1  0  0  0  0
 41 42  1  0  0  0  0
 41 40  1  0  0  0  0
 42 45  1  1  0  0  0
 42 38  1  0  0  0  0
 44 43  1  0  0  0  0
 46 45  1  0  0  0  0
M  END
>  <minimizedAffinity>
-7.85381174

>  <minimizedRMSD>
0.638662219

$$$$
