
 OpenBabel03272507363D

 19 20  0  0  1  0  0  0  0  0999 V2000
   36.8380   30.8970   49.4270 C   0  0  0  0  0  0  0  0  0  0  0  0
   35.7290   30.3020   48.7970 C   0  0  0  0  0  0  0  0  0  0  0  0
   35.0110   29.3340   49.5090 C   0  0  0  0  0  0  0  0  0  0  0  0
   35.4230   29.0210   50.7660 N   0  0  0  0  0  0  0  0  0  0  0  0
   36.5050   29.6160   51.3540 C   0  0  0  0  0  0  0  0  0  0  0  0
   37.2000   30.5420   50.6860 N   0  0  0  0  0  0  0  0  0  0  0  0
   34.1570   28.8540   49.0650 H   0  0  0  0  0  0  0  0  0  0  0  0
   36.8110   29.3500   52.3570 H   0  0  0  0  0  0  0  0  0  0  0  0
   33.9350   30.0400   47.0810 C   0  0  2  0  0  0  0  0  0  0  0  0
   35.2610   30.6160   47.4450 C   0  0  2  0  0  0  0  0  0  0  0  0
   36.2000   30.1970   46.5270 O   0  0  0  0  0  0  0  0  0  0  0  0
   35.5460   29.8470   45.3650 C   0  0  0  0  0  0  0  0  0  0  0  0
   34.1630   29.3870   45.7420 C   0  0  1  0  0  0  0  0  0  0  0  0
   32.9850   31.0450   46.8960 O   0  0  0  0  0  0  0  0  0  0  0  0
   33.1060   31.3990   45.9780 H   0  0  0  0  0  0  0  0  0  0  0  0
   34.1540   28.0030   45.8750 O   0  0  0  0  0  0  0  0  0  0  0  0
   35.0350   27.5920   45.6710 H   0  0  0  0  0  0  0  0  0  0  0  0
   37.4490   31.8340   48.6010 O   0  0  0  0  0  0  0  0  0  0  0  0
   38.1710   31.5300   47.9420 H   0  0  0  0  0  0  0  0  0  0  0  0
  1  6  1  0  0  0  0
  2  1  2  0  0  0  0
  2  3  1  0  0  0  0
  3  4  2  0  0  0  0
  4  5  1  0  0  0  0
  5  8  1  0  0  0  0
  6  5  2  0  0  0  0
  7  3  1  0  0  0  0
  9 14  1  6  0  0  0
  9 10  1  0  0  0  0
 10  2  1  1  0  0  0
 11 10  1  0  0  0  0
 12 13  1  0  0  0  0
 12 11  1  0  0  0  0
 13 16  1  1  0  0  0
 13  9  1  0  0  0  0
 15 14  1  0  0  0  0
 17 16  1  0  0  0  0
 18  1  1  0  0  0  0
 19 18  1  0  0  0  0
M  END
>  <minimizedAffinity>
-4.08955479

>  <minimizedRMSD>
6.04846001

$$$$
