
 OpenBabel03272502333D

 36 38  0  0  1  0  0  0  0  0999 V2000
   35.5380   29.5700   48.3890 C   0  0  0  0  0  0  0  0  0  0  0  0
   36.4100   30.4310   47.9760 C   0  0  0  0  0  0  0  0  0  0  0  0
   32.8450   29.8500   45.8300 C   0  0  0  0  0  0  0  0  0  0  0  0
   34.0280   30.0100   46.5280 C   0  0  0  0  0  0  0  0  0  0  0  0
   34.2950   29.3570   47.7020 C   0  0  0  0  0  0  0  0  0  0  0  0
   33.3170   28.5270   48.1540 N   0  0  0  0  0  0  0  0  0  0  0  0
   32.1780   28.3660   47.4930 C   0  0  0  0  0  0  0  0  0  0  0  0
   31.9280   29.0160   46.3370 N   0  0  0  0  0  0  0  0  0  0  0  0
   32.6060   30.3520   44.9020 H   0  0  0  0  0  0  0  0  0  0  0  0
   34.6900   30.7020   46.0270 H   0  0  0  0  0  0  0  0  0  0  0  0
   29.8370   27.5820   47.3960 C   0  0  2  0  0  0  0  0  0  0  0  0
   31.1650   27.4380   48.0640 C   0  0  2  0  0  0  0  0  0  0  0  0
   30.9940   27.7160   49.4080 O   0  0  0  0  0  0  0  0  0  0  0  0
   29.6810   27.3900   49.7270 C   0  0  0  0  0  0  0  0  0  0  0  0
   28.9230   27.9560   48.5440 C   0  0  1  0  0  0  0  0  0  0  0  0
   29.4390   26.3550   46.8550 O   0  0  0  0  0  0  0  0  0  0  0  0
   30.2190   25.7850   46.6500 H   0  0  0  0  0  0  0  0  0  0  0  0
   28.8500   29.3500   48.6450 O   0  0  0  0  0  0  0  0  0  0  0  0
   29.5670   29.7160   49.2140 H   0  0  0  0  0  0  0  0  0  0  0  0
   37.6730   30.5850   48.7720 C   0  0  1  0  0  0  0  0  0  0  0  0
   38.2460   29.6240   48.7610 H   0  0  0  0  0  0  0  0  0  0  0  0
   38.4570   31.7090   48.2410 C   0  0  0  0  0  0  0  0  0  0  0  0
   38.6040   32.7740   49.1690 C   0  0  0  0  0  0  0  0  0  0  0  0
   39.2980   33.9320   48.8940 C   0  0  0  0  0  0  0  0  0  0  0  0
   39.9110   34.1160   47.6420 C   0  0  0  0  0  0  0  0  0  0  0  0
   39.7180   33.0290   46.7980 C   0  0  0  0  0  0  0  0  0  0  0  0
   39.0500   31.8970   47.0420 N   0  0  0  0  0  0  0  0  0  0  0  0
   38.2270   32.8700   50.1960 H   0  0  0  0  0  0  0  0  0  0  0  0
   39.4470   34.7750   49.5480 H   0  0  0  0  0  0  0  0  0  0  0  0
   40.4770   34.9590   47.2950 H   0  0  0  0  0  0  0  0  0  0  0  0
   40.1350   33.0230   45.7880 H   0  0  0  0  0  0  0  0  0  0  0  0
   37.1830   31.0650   50.4650 S   0  0  0  0  0  0  0  0  0  0  0  0
   37.0880   29.6400   51.5330 C   0  0  0  0  0  0  0  0  0  0  0  0
   37.7500   29.8170   52.7400 F   0  0  0  0  0  0  0  0  0  0  0  0
   35.7820   29.2310   51.7240 F   0  0  0  0  0  0  0  0  0  0  0  0
   37.7280   28.5870   50.8500 F   0  0  0  0  0  0  0  0  0  0  0  0
  2  1  2  0  0  0  0
  2 20  1  0  0  0  0
  3  8  2  0  0  0  0
  3  4  1  0  0  0  0
  4  5  2  0  0  0  0
  5  6  1  0  0  0  0
  5  1  1  0  0  0  0
  7  6  2  0  0  0  0
  8  7  1  0  0  0  0
  9  3  1  0  0  0  0
 10  4  1  0  0  0  0
 11 16  1  1  0  0  0
 11 12  1  0  0  0  0
 11 15  1  0  0  0  0
 12  7  1  6  0  0  0
 12 13  1  0  0  0  0
 13 14  1  0  0  0  0
 15 18  1  1  0  0  0
 15 14  1  0  0  0  0
 17 16  1  0  0  0  0
 18 19  1  0  0  0  0
 20 21  1  1  0  0  0
 20 32  1  0  0  0  0
 22 20  1  0  0  0  0
 22 23  1  0  0  0  0
 23 28  1  0  0  0  0
 24 23  2  0  0  0  0
 24 29  1  0  0  0  0
 25 24  1  0  0  0  0
 26 27  1  0  0  0  0
 26 25  2  0  0  0  0
 27 22  2  0  0  0  0
 30 25  1  0  0  0  0
 31 26  1  0  0  0  0
 32 33  1  0  0  0  0
 33 35  1  0  0  0  0
 33 34  1  0  0  0  0
 36 33  1  0  0  0  0
M  END
>  <minimizedAffinity>
-7.01196623

>  <minimizedRMSD>
1.26192069

$$$$
