
 OpenBabel03272507573D

 32 34  0  0  1  0  0  0  0  0999 V2000
   36.7880   31.0770   48.5760 C   0  0  0  0  0  0  0  0  0  0  0  0
   37.0650   32.0080   49.5870 C   0  0  0  0  0  0  0  0  0  0  0  0
   37.9800   33.0180   49.3510 C   0  0  0  0  0  0  0  0  0  0  0  0
   38.6130   33.1010   48.1220 C   0  0  0  0  0  0  0  0  0  0  0  0
   38.3160   32.1690   47.1560 C   0  0  0  0  0  0  0  0  0  0  0  0
   37.4210   31.1890   47.4000 N   0  0  0  0  0  0  0  0  0  0  0  0
   36.6450   32.0620   50.5900 H   0  0  0  0  0  0  0  0  0  0  0  0
   38.2480   33.7740   50.0760 H   0  0  0  0  0  0  0  0  0  0  0  0
   39.3260   33.8600   47.8880 H   0  0  0  0  0  0  0  0  0  0  0  0
   35.0750   28.3270   50.4820 C   0  0  0  0  0  0  0  0  0  0  0  0
   36.0600   29.2840   50.1010 C   0  0  0  0  0  0  0  0  0  0  0  0
   35.8110   30.0910   48.9940 C   0  0  0  0  0  0  0  0  0  0  0  0
   34.6210   29.9120   48.3300 N   0  0  0  0  0  0  0  0  0  0  0  0
   33.7150   28.9870   48.7310 C   0  0  0  0  0  0  0  0  0  0  0  0
   33.9300   28.2010   49.7910 N   0  0  0  0  0  0  0  0  0  0  0  0
   32.5710   28.9980   47.8830 N   0  0  0  0  0  0  0  0  0  0  0  0
   35.2530   27.6880   51.3450 H   0  0  0  0  0  0  0  0  0  0  0  0
   32.6950   28.8370   46.8530 H   0  0  0  0  0  0  0  0  0  0  0  0
   31.6020   29.1670   48.2880 H   0  0  0  0  0  0  0  0  0  0  0  0
   37.3070   29.3840   50.8990 C   0  0  0  0  0  0  0  0  0  0  0  0
   38.4000   29.6900   50.1010 F   0  0  0  0  0  0  0  0  0  0  0  0
   37.1570   30.3710   51.8310 F   0  0  0  0  0  0  0  0  0  0  0  0
   37.6130   28.2100   51.5720 F   0  0  0  0  0  0  0  0  0  0  0  0
   40.1790   33.1100   45.8030 C   0  0  1  0  0  3  0  0  0  0  0  0
   38.9740   32.2230   45.8240 C   0  0  2  0  0  3  0  0  0  0  0  0
   38.1220   32.7840   44.8460 O   0  0  0  0  0  0  0  0  0  0  0  0
   39.0070   32.8200   43.7680 C   0  0  0  0  0  2  0  0  0  0  0  0
   40.1790   33.5640   44.3440 C   0  0  2  0  0  3  0  0  0  0  0  0
   40.0190   34.2500   46.5900 O   0  0  0  0  0  0  0  0  0  0  0  0
   40.7950   34.8480   46.3490 H   0  0  0  0  0  0  0  0  0  0  0  0
   41.3870   33.1680   43.7460 O   0  0  0  0  0  0  0  0  0  0  0  0
   41.3780   33.4550   42.8050 H   0  0  0  0  0  0  0  0  0  0  0  0
  1 12  1  0  0  0  0
  1  2  1  0  0  0  0
  2  7  1  0  0  0  0
  3  2  2  0  0  0  0
  3  8  1  0  0  0  0
  4  3  1  0  0  0  0
  5  6  1  0  0  0  0
  5  4  2  0  0  0  0
  6  1  2  0  0  0  0
  9  4  1  0  0  0  0
 10 17  1  0  0  0  0
 11 10  1  0  0  0  0
 11 20  1  0  0  0  0
 12 11  2  0  0  0  0
 13 14  2  0  0  0  0
 13 12  1  0  0  0  0
 14 15  1  0  0  0  0
 15 10  2  0  0  0  0
 16 19  1  0  0  0  0
 16 14  1  0  0  0  0
 18 16  1  0  0  0  0
 20 23  1  0  0  0  0
 20 22  1  0  0  0  0
 21 20  1  0  0  0  0
 24 25  1  0  0  0  0
 24 29  1  1  0  0  0
 25  5  1  1  0  0  0
 26 25  1  0  0  0  0
 27 28  1  0  0  0  0
 27 26  1  0  0  0  0
 28 31  1  6  0  0  0
 28 24  1  0  0  0  0
 30 29  1  0  0  0  0
 32 31  1  0  0  0  0
M  END
>  <minimizedAffinity>
-5.49478292

>  <minimizedRMSD>
1.27681887

$$$$
