
 OpenBabel03262520533D

 25 27  0  0  1  0  0  0  0  0999 V2000
   37.4250   26.6190   35.0540 C   0  0  2  0  0  0  0  0  0  0  0  0
   38.5510   26.9560   35.9360 C   0  0  0  0  0  0  0  0  0  0  0  0
   38.0500   25.5330   35.8300 C   0  0  2  0  0  0  0  0  0  0  0  0
   36.4270   27.0650   35.3280 H   0  0  0  0  0  0  0  0  0  0  0  0
   39.5560   27.2360   35.5850 H   0  0  0  0  0  0  0  0  0  0  0  0
   38.2890   27.4880   36.8730 H   0  0  0  0  0  0  0  0  0  0  0  0
   37.4190   25.1710   36.6950 H   0  0  0  0  0  0  0  0  0  0  0  0
   36.8960   25.9270   31.4530 C   0  0  0  0  0  0  0  0  0  0  0  0
   37.9400   26.6320   30.8510 C   0  0  0  0  0  0  0  0  0  0  0  0
   38.8330   27.3390   31.6930 C   0  0  0  0  0  0  0  0  0  0  0  0
   38.6140   27.2840   33.0450 N   0  0  0  0  0  0  0  0  0  0  0  0
   37.5740   26.5750   33.5730 C   0  0  0  0  0  0  0  0  0  0  0  0
   36.7030   25.8880   32.7730 N   0  0  0  0  0  0  0  0  0  0  0  0
   36.1750   25.3640   30.8800 H   0  0  0  0  0  0  0  0  0  0  0  0
   38.0280   26.6150   29.7910 H   0  0  0  0  0  0  0  0  0  0  0  0
   39.6380   27.8850   31.2530 H   0  0  0  0  0  0  0  0  0  0  0  0
   39.9470   23.8860   36.1790 C   0  0  1  0  0  3  0  0  0  0  0  0
   38.9170   24.4690   35.2820 C   0  0  1  0  0  3  0  0  0  0  0  0
   38.0930   23.3500   35.0190 O   0  0  0  0  0  0  0  0  0  0  0  0
   37.8880   22.7580   36.2660 C   0  0  0  0  0  2  0  0  0  0  0  0
   39.3270   22.6000   36.7300 C   0  0  2  0  0  3  0  0  0  0  0  0
   41.1050   23.4800   35.5010 O   0  0  0  0  0  0  0  0  0  0  0  0
   41.4880   22.6370   35.8460 H   0  0  0  0  0  0  0  0  0  0  0  0
   39.4200   22.5400   38.1070 O   0  0  0  0  0  0  0  0  0  0  0  0
   40.0330   21.8600   38.4390 H   0  0  0  0  0  0  0  0  0  0  0  0
  1  4  1  1  0  0  0
  1  3  1  0  0  0  0
  1  2  1  0  0  0  0
  2  6  1  0  0  0  0
  3  2  1  0  0  0  0
  3  7  1  1  0  0  0
  5  2  1  0  0  0  0
  8 13  1  0  0  0  0
  9  8  2  0  0  0  0
  9 10  1  0  0  0  0
 10 11  2  0  0  0  0
 11 12  1  0  0  0  0
 12  1  1  0  0  0  0
 13 12  2  0  0  0  0
 14  8  1  0  0  0  0
 15  9  1  0  0  0  0
 16 10  1  0  0  0  0
 17 22  1  6  0  0  0
 17 21  1  0  0  0  0
 18 19  1  1  0  0  0
 18  3  1  0  0  0  0
 18 17  1  0  0  0  0
 19 20  1  0  0  0  0
 20 21  1  0  0  0  0
 21 24  1  1  0  0  0
 22 23  1  0  0  0  0
 24 25  1  0  0  0  0
M  END
>  <minimizedAffinity>
-4.56297731

$$$$

 OpenBabel03262520533D

 25 27  0  0  1  0  0  0  0  0999 V2000
   39.8200   26.0880   34.6750 C   0  0  2  0  0  0  0  0  0  0  0  0
   40.5170   24.8460   34.3100 C   0  0  0  0  0  0  0  0  0  0  0  0
   39.6730   24.9200   35.5640 C   0  0  2  0  0  0  0  0  0  0  0  0
   40.4730   26.9680   34.9310 H   0  0  0  0  0  0  0  0  0  0  0  0
   40.2320   24.1960   33.4680 H   0  0  0  0  0  0  0  0  0  0  0  0
   41.6140   24.8420   34.4690 H   0  0  0  0  0  0  0  0  0  0  0  0
   40.2470   25.0130   36.5330 H   0  0  0  0  0  0  0  0  0  0  0  0
   36.6950   27.8470   33.7420 C   0  0  0  0  0  0  0  0  0  0  0  0
   36.4380   27.3520   32.4620 C   0  0  0  0  0  0  0  0  0  0  0  0
   37.3400   26.4010   31.9260 C   0  0  0  0  0  0  0  0  0  0  0  0
   38.4090   26.0290   32.7000 N   0  0  0  0  0  0  0  0  0  0  0  0
   38.6050   26.5490   33.9460 C   0  0  0  0  0  0  0  0  0  0  0  0
   37.7420   27.4680   34.4780 N   0  0  0  0  0  0  0  0  0  0  0  0
   36.0540   28.5720   34.2200 H   0  0  0  0  0  0  0  0  0  0  0  0
   35.5810   27.7020   31.9380 H   0  0  0  0  0  0  0  0  0  0  0  0
   37.1620   26.0100   30.9490 H   0  0  0  0  0  0  0  0  0  0  0  0
   38.5780   22.8150   36.4570 C   0  0  1  0  0  3  0  0  0  0  0  0
   38.4590   24.0900   35.7040 C   0  0  1  0  0  3  0  0  0  0  0  0
   37.5440   24.8150   36.5020 O   0  0  0  0  0  0  0  0  0  0  0  0
   38.0010   24.6470   37.8090 C   0  0  0  0  0  2  0  0  0  0  0  0
   38.0890   23.1310   37.8730 C   0  0  2  0  0  3  0  0  0  0  0  0
   37.7200   21.8120   35.9840 O   0  0  0  0  0  0  0  0  0  0  0  0
   37.3230   21.2620   36.7020 H   0  0  0  0  0  0  0  0  0  0  0  0
   38.9930   22.7070   38.8280 O   0  0  0  0  0  0  0  0  0  0  0  0
   38.6850   21.9580   39.3680 H   0  0  0  0  0  0  0  0  0  0  0  0
  1  4  1  1  0  0  0
  1  3  1  0  0  0  0
  2  6  1  0  0  0  0
  2  1  1  0  0  0  0
  2  3  1  0  0  0  0
  3 18  1  0  0  0  0
  3  7  1  1  0  0  0
  5  2  1  0  0  0  0
  8 14  1  0  0  0  0
  8 13  1  0  0  0  0
  9  8  2  0  0  0  0
 10  9  1  0  0  0  0
 10 11  2  0  0  0  0
 11 12  1  0  0  0  0
 12 13  2  0  0  0  0
 12  1  1  0  0  0  0
 15  9  1  0  0  0  0
 16 10  1  0  0  0  0
 17 22  1  6  0  0  0
 17 21  1  0  0  0  0
 18 17  1  0  0  0  0
 18 19  1  1  0  0  0
 19 20  1  0  0  0  0
 20 21  1  0  0  0  0
 21 24  1  1  0  0  0
 22 23  1  0  0  0  0
 24 25  1  0  0  0  0
M  END
>  <minimizedAffinity>
-4.52214289

$$$$

 OpenBabel03262520533D

 25 27  0  0  1  0  0  0  0  0999 V2000
   39.8410   25.6620   34.2060 C   0  0  2  0  0  0  0  0  0  0  0  0
   40.5040   24.3520   34.1260 C   0  0  0  0  0  0  0  0  0  0  0  0
   39.6340   24.7090   35.3110 C   0  0  2  0  0  0  0  0  0  0  0  0
   40.5190   26.5580   34.2960 H   0  0  0  0  0  0  0  0  0  0  0  0
   40.2180   23.5510   33.4280 H   0  0  0  0  0  0  0  0  0  0  0  0
   41.5960   24.3500   34.3170 H   0  0  0  0  0  0  0  0  0  0  0  0
   40.1860   24.9830   36.2580 H   0  0  0  0  0  0  0  0  0  0  0  0
   37.2130   25.5990   31.5960 C   0  0  0  0  0  0  0  0  0  0  0  0
   36.4260   26.7040   31.9300 C   0  0  0  0  0  0  0  0  0  0  0  0
   36.8120   27.4760   33.0530 C   0  0  0  0  0  0  0  0  0  0  0  0
   37.9330   27.0890   33.7390 N   0  0  0  0  0  0  0  0  0  0  0  0
   38.6620   25.9980   33.3610 C   0  0  0  0  0  0  0  0  0  0  0  0
   38.3020   25.2420   32.2790 N   0  0  0  0  0  0  0  0  0  0  0  0
   36.9850   24.9620   30.7550 H   0  0  0  0  0  0  0  0  0  0  0  0
   35.5720   26.9250   31.3360 H   0  0  0  0  0  0  0  0  0  0  0  0
   36.2240   28.3240   33.3260 H   0  0  0  0  0  0  0  0  0  0  0  0
   38.4840   22.7440   36.4290 C   0  0  1  0  0  3  0  0  0  0  0  0
   38.3880   23.9600   35.5820 C   0  0  1  0  0  3  0  0  0  0  0  0
   37.5580   24.7960   36.3660 O   0  0  0  0  0  0  0  0  0  0  0  0
   38.0800   24.7050   37.6570 C   0  0  0  0  0  2  0  0  0  0  0  0
   38.0940   23.1960   37.8380 C   0  0  2  0  0  3  0  0  0  0  0  0
   37.5510   21.7560   36.0850 O   0  0  0  0  0  0  0  0  0  0  0  0
   37.1680   21.2870   36.8660 H   0  0  0  0  0  0  0  0  0  0  0  0
   39.0270   22.7990   38.7760 O   0  0  0  0  0  0  0  0  0  0  0  0
   38.7130   22.1130   39.3910 H   0  0  0  0  0  0  0  0  0  0  0  0
  1  4  1  1  0  0  0
  1  3  1  0  0  0  0
  2  1  1  0  0  0  0
  2  6  1  0  0  0  0
  2  3  1  0  0  0  0
  3 18  1  0  0  0  0
  3  7  1  1  0  0  0
  5  2  1  0  0  0  0
  8  9  2  0  0  0  0
  8 13  1  0  0  0  0
  9 10  1  0  0  0  0
 10 16  1  0  0  0  0
 10 11  2  0  0  0  0
 12 11  1  0  0  0  0
 12  1  1  0  0  0  0
 13 12  2  0  0  0  0
 14  8  1  0  0  0  0
 15  9  1  0  0  0  0
 17 22  1  6  0  0  0
 17 21  1  0  0  0  0
 18 19  1  1  0  0  0
 18 17  1  0  0  0  0
 19 20  1  0  0  0  0
 20 21  1  0  0  0  0
 21 24  1  1  0  0  0
 22 23  1  0  0  0  0
 24 25  1  0  0  0  0
M  END
>  <minimizedAffinity>
-4.42302418

$$$$

 OpenBabel03262520533D

 25 27  0  0  1  0  0  0  0  0999 V2000
   39.2360   24.3020   33.4630 C   0  0  2  0  0  0  0  0  0  0  0  0
   39.6550   22.9370   33.8150 C   0  0  0  0  0  0  0  0  0  0  0  0
   39.1000   23.8720   34.8670 C   0  0  2  0  0  0  0  0  0  0  0  0
   40.0500   24.9990   33.1180 H   0  0  0  0  0  0  0  0  0  0  0  0
   39.1150   22.0240   33.5200 H   0  0  0  0  0  0  0  0  0  0  0  0
   40.7490   22.7630   33.8570 H   0  0  0  0  0  0  0  0  0  0  0  0
   39.8630   24.3360   35.5600 H   0  0  0  0  0  0  0  0  0  0  0  0
   36.2780   25.9520   31.9620 C   0  0  0  0  0  0  0  0  0  0  0  0
   35.7050   24.9240   31.2110 C   0  0  0  0  0  0  0  0  0  0  0  0
   36.3370   23.6560   31.2330 C   0  0  0  0  0  0  0  0  0  0  0  0
   37.4710   23.5220   31.9910 N   0  0  0  0  0  0  0  0  0  0  0  0
   37.9820   24.5670   32.7040 C   0  0  0  0  0  0  0  0  0  0  0  0
   37.3830   25.7970   32.6940 N   0  0  0  0  0  0  0  0  0  0  0  0
   35.8560   26.9450   31.9970 H   0  0  0  0  0  0  0  0  0  0  0  0
   34.8220   25.1260   30.6530 H   0  0  0  0  0  0  0  0  0  0  0  0
   35.9150   22.8570   30.6650 H   0  0  0  0  0  0  0  0  0  0  0  0
   37.8590   22.5370   36.6300 C   0  0  1  0  0  3  0  0  0  0  0  0
   37.8300   23.5610   35.5550 C   0  0  1  0  0  3  0  0  0  0  0  0
   37.4430   24.7200   36.2670 O   0  0  0  0  0  0  0  0  0  0  0  0
   38.2440   24.7190   37.4090 C   0  0  0  0  0  2  0  0  0  0  0  0
   37.9590   23.3230   37.9400 C   0  0  2  0  0  3  0  0  0  0  0  0
   36.6680   21.8030   36.7280 O   0  0  0  0  0  0  0  0  0  0  0  0
   36.4020   21.6060   37.6590 H   0  0  0  0  0  0  0  0  0  0  0  0
   38.9850   22.8560   38.7360 O   0  0  0  0  0  0  0  0  0  0  0  0
   38.6910   22.4050   39.5480 H   0  0  0  0  0  0  0  0  0  0  0  0
  1  4  1  6  0  0  0
  1  2  1  0  0  0  0
  1  3  1  0  0  0  0
  2  6  1  0  0  0  0
  2  3  1  0  0  0  0
  3 18  1  0  0  0  0
  3  7  1  1  0  0  0
  5  2  1  0  0  0  0
  8 14  1  0  0  0  0
  8 13  1  0  0  0  0
  9 10  1  0  0  0  0
  9  8  2  0  0  0  0
 10 11  2  0  0  0  0
 11 12  1  0  0  0  0
 12  1  1  0  0  0  0
 13 12  2  0  0  0  0
 15  9  1  0  0  0  0
 16 10  1  0  0  0  0
 17 22  1  1  0  0  0
 17 21  1  0  0  0  0
 18 19  1  1  0  0  0
 18 17  1  0  0  0  0
 19 20  1  0  0  0  0
 20 21  1  0  0  0  0
 21 24  1  1  0  0  0
 22 23  1  0  0  0  0
 24 25  1  0  0  0  0
M  END
>  <minimizedAffinity>
-4.351686

$$$$

 OpenBabel03262520533D

 25 27  0  0  1  0  0  0  0  0999 V2000
   38.4290   26.9490   35.0780 C   0  0  2  0  0  0  0  0  0  0  0  0
   37.0370   27.4040   34.9470 C   0  0  0  0  0  0  0  0  0  0  0  0
   37.8580   27.0600   33.7230 C   0  0  2  0  0  0  0  0  0  0  0  0
   39.1600   27.6990   35.4920 H   0  0  0  0  0  0  0  0  0  0  0  0
   36.1560   26.8070   35.2310 H   0  0  0  0  0  0  0  0  0  0  0  0
   36.8630   28.4860   35.1190 H   0  0  0  0  0  0  0  0  0  0  0  0
   38.2510   27.9410   33.1350 H   0  0  0  0  0  0  0  0  0  0  0  0
   40.1660   23.7450   35.7450 C   0  0  0  0  0  0  0  0  0  0  0  0
   39.2770   23.0900   36.6000 C   0  0  0  0  0  0  0  0  0  0  0  0
   38.0720   23.7530   36.9370 C   0  0  0  0  0  0  0  0  0  0  0  0
   37.8560   24.9960   36.4010 N   0  0  0  0  0  0  0  0  0  0  0  0
   38.7650   25.5840   35.5700 C   0  0  0  0  0  0  0  0  0  0  0  0
   39.9330   24.9560   35.2350 N   0  0  0  0  0  0  0  0  0  0  0  0
   41.1040   23.3060   35.4410 H   0  0  0  0  0  0  0  0  0  0  0  0
   39.5340   22.1250   36.9650 H   0  0  0  0  0  0  0  0  0  0  0  0
   37.3790   23.2690   37.5890 H   0  0  0  0  0  0  0  0  0  0  0  0
   36.3260   26.1230   31.9320 C   0  0  1  0  0  3  0  0  0  0  0  0
   37.4730   25.9280   32.8540 C   0  0  1  0  0  3  0  0  0  0  0  0
   38.5400   25.7120   31.9500 O   0  0  0  0  0  0  0  0  0  0  0  0
   38.3940   26.7080   30.9840 C   0  0  0  0  0  2  0  0  0  0  0  0
   36.9460   26.4840   30.5800 C   0  0  2  0  0  3  0  0  0  0  0  0
   35.5940   24.9500   31.7040 O   0  0  0  0  0  0  0  0  0  0  0  0
   35.2860   24.8530   30.7690 H   0  0  0  0  0  0  0  0  0  0  0  0
   36.3780   27.6250   30.0480 O   0  0  0  0  0  0  0  0  0  0  0  0
   35.8330   27.4710   29.2560 H   0  0  0  0  0  0  0  0  0  0  0  0
  1  4  1  1  0  0  0
  1 12  1  0  0  0  0
  2  1  1  0  0  0  0
  2  6  1  0  0  0  0
  2  5  1  0  0  0  0
  3  7  1  6  0  0  0
  3  2  1  0  0  0  0
  3  1  1  0  0  0  0
  8  9  1  0  0  0  0
  9 10  2  0  0  0  0
  9 15  1  0  0  0  0
 10 16  1  0  0  0  0
 11 10  1  0  0  0  0
 12 11  2  0  0  0  0
 13 12  1  0  0  0  0
 13  8  2  0  0  0  0
 14  8  1  0  0  0  0
 17 22  1  6  0  0  0
 17 18  1  0  0  0  0
 18 19  1  6  0  0  0
 18  3  1  0  0  0  0
 20 19  1  0  0  0  0
 21 24  1  1  0  0  0
 21 20  1  0  0  0  0
 21 17  1  0  0  0  0
 23 22  1  0  0  0  0
 25 24  1  0  0  0  0
M  END
>  <minimizedAffinity>
-4.29172421

$$$$

 OpenBabel03262520533D

 25 27  0  0  1  0  0  0  0  0999 V2000
   39.5870   25.4200   33.7620 C   0  0  2  0  0  0  0  0  0  0  0  0
   39.7730   26.8780   33.7720 C   0  0  0  0  0  0  0  0  0  0  0  0
   38.7380   26.2350   32.8740 C   0  0  2  0  0  0  0  0  0  0  0  0
   40.4540   24.8100   33.3820 H   0  0  0  0  0  0  0  0  0  0  0  0
   39.4770   27.5380   34.6020 H   0  0  0  0  0  0  0  0  0  0  0  0
   40.6830   27.2530   33.2620 H   0  0  0  0  0  0  0  0  0  0  0  0
   39.0190   26.1600   31.7820 H   0  0  0  0  0  0  0  0  0  0  0  0
   37.9940   24.6180   37.0100 C   0  0  0  0  0  0  0  0  0  0  0  0
   37.6220   23.2820   36.8440 C   0  0  0  0  0  0  0  0  0  0  0  0
   37.9310   22.6560   35.6120 C   0  0  0  0  0  0  0  0  0  0  0  0
   38.5770   23.4040   34.6610 N   0  0  0  0  0  0  0  0  0  0  0  0
   38.9160   24.7070   34.8840 C   0  0  0  0  0  0  0  0  0  0  0  0
   38.6240   25.3250   36.0690 N   0  0  0  0  0  0  0  0  0  0  0  0
   37.7940   25.1640   37.9190 H   0  0  0  0  0  0  0  0  0  0  0  0
   37.1230   22.7850   37.6410 H   0  0  0  0  0  0  0  0  0  0  0  0
   37.6550   21.6360   35.4650 H   0  0  0  0  0  0  0  0  0  0  0  0
   36.6950   27.6160   32.2850 C   0  0  1  0  0  3  0  0  0  0  0  0
   37.2990   26.5090   33.0690 C   0  0  1  0  0  3  0  0  0  0  0  0
   36.5890   25.3870   32.5830 O   0  0  0  0  0  0  0  0  0  0  0  0
   36.5910   25.5380   31.1960 C   0  0  0  0  0  2  0  0  0  0  0  0
   36.0360   26.9480   31.0750 C   0  0  2  0  0  3  0  0  0  0  0  0
   35.6540   28.2680   32.9610 O   0  0  0  0  0  0  0  0  0  0  0  0
   34.9000   28.5210   32.3730 H   0  0  0  0  0  0  0  0  0  0  0  0
   36.4160   27.5510   29.8920 O   0  0  0  0  0  0  0  0  0  0  0  0
   35.7040   28.0440   29.4460 H   0  0  0  0  0  0  0  0  0  0  0  0
  1  4  1  6  0  0  0
  1  2  1  0  0  0  0
  1 12  1  0  0  0  0
  2  5  1  0  0  0  0
  3  7  1  6  0  0  0
  3 18  1  0  0  0  0
  3  1  1  0  0  0  0
  3  2  1  0  0  0  0
  6  2  1  0  0  0  0
  8 14  1  0  0  0  0
  9  8  1  0  0  0  0
  9 15  1  0  0  0  0
 10  9  2  0  0  0  0
 11 12  2  0  0  0  0
 11 10  1  0  0  0  0
 12 13  1  0  0  0  0
 13  8  2  0  0  0  0
 16 10  1  0  0  0  0
 17 22  1  1  0  0  0
 17 18  1  0  0  0  0
 18 19  1  6  0  0  0
 20 19  1  0  0  0  0
 21 24  1  6  0  0  0
 21 20  1  0  0  0  0
 21 17  1  0  0  0  0
 23 22  1  0  0  0  0
 25 24  1  0  0  0  0
M  END
>  <minimizedAffinity>
-4.27323771

$$$$

 OpenBabel03262520533D

 25 27  0  0  1  0  0  0  0  0999 V2000
   36.8860   23.3340   31.1690 C   0  0  2  0  0  0  0  0  0  0  0  0
   35.4760   23.3560   31.5820 C   0  0  0  0  0  0  0  0  0  0  0  0
   36.2360   22.0510   31.4940 C   0  0  2  0  0  0  0  0  0  0  0  0
   37.1000   23.6550   30.1110 H   0  0  0  0  0  0  0  0  0  0  0  0
   35.1160   23.7430   32.5480 H   0  0  0  0  0  0  0  0  0  0  0  0
   34.7380   23.5370   30.7750 H   0  0  0  0  0  0  0  0  0  0  0  0
   36.0090   21.4140   30.5880 H   0  0  0  0  0  0  0  0  0  0  0  0
   40.1950   23.9000   32.7380 C   0  0  0  0  0  0  0  0  0  0  0  0
   39.8900   24.7770   33.7800 C   0  0  0  0  0  0  0  0  0  0  0  0
   38.5380   25.1640   33.9470 C   0  0  0  0  0  0  0  0  0  0  0  0
   37.6160   24.6520   33.0720 N   0  0  0  0  0  0  0  0  0  0  0  0
   37.9760   23.7960   32.0720 C   0  0  0  0  0  0  0  0  0  0  0  0
   39.2780   23.4130   31.8990 N   0  0  0  0  0  0  0  0  0  0  0  0
   41.2000   23.5580   32.5460 H   0  0  0  0  0  0  0  0  0  0  0  0
   40.6770   25.1220   34.4080 H   0  0  0  0  0  0  0  0  0  0  0  0
   38.2840   25.8340   34.7380 H   0  0  0  0  0  0  0  0  0  0  0  0
   35.3700   20.3990   33.2120 C   0  0  1  0  0  3  0  0  0  0  0  0
   36.4830   21.2410   32.7050 C   0  0  1  0  0  3  0  0  0  0  0  0
   37.4540   20.2690   32.3700 O   0  0  0  0  0  0  0  0  0  0  0  0
   36.7490   19.2910   31.6670 C   0  0  0  0  0  2  0  0  0  0  0  0
   35.6340   18.9970   32.6580 C   0  0  2  0  0  3  0  0  0  0  0  0
   35.3770   20.2540   34.6070 O   0  0  0  0  0  0  0  0  0  0  0  0
   35.1270   19.3470   34.9100 H   0  0  0  0  0  0  0  0  0  0  0  0
   34.5160   18.4780   32.0350 O   0  0  0  0  0  0  0  0  0  0  0  0
   34.1040   17.7310   32.5040 H   0  0  0  0  0  0  0  0  0  0  0  0
  1  4  1  6  0  0  0
  1  3  1  0  0  0  0
  1  2  1  0  0  0  0
  1 12  1  0  0  0  0
  2  5  1  0  0  0  0
  3  7  1  6  0  0  0
  3  2  1  0  0  0  0
  3 18  1  0  0  0  0
  6  2  1  0  0  0  0
  8  9  1  0  0  0  0
  9 10  2  0  0  0  0
  9 15  1  0  0  0  0
 10 16  1  0  0  0  0
 11 10  1  0  0  0  0
 12 11  2  0  0  0  0
 13 12  1  0  0  0  0
 13  8  2  0  0  0  0
 14  8  1  0  0  0  0
 17 22  1  1  0  0  0
 18 19  1  6  0  0  0
 18 17  1  0  0  0  0
 20 19  1  0  0  0  0
 20 21  1  0  0  0  0
 21 24  1  6  0  0  0
 21 17  1  0  0  0  0
 22 23  1  0  0  0  0
 24 25  1  0  0  0  0
M  END
>  <minimizedAffinity>
-4.26752234

$$$$

 OpenBabel03262520533D

 25 27  0  0  1  0  0  0  0  0999 V2000
   37.7870   26.3290   35.0170 C   0  0  2  0  0  0  0  0  0  0  0  0
   38.4420   27.4900   35.6360 C   0  0  0  0  0  0  0  0  0  0  0  0
   39.2600   26.3510   35.0680 C   0  0  2  0  0  0  0  0  0  0  0  0
   37.1650   25.6860   35.7000 H   0  0  0  0  0  0  0  0  0  0  0  0
   38.4780   28.4970   35.1910 H   0  0  0  0  0  0  0  0  0  0  0  0
   38.3930   27.5400   36.7420 H   0  0  0  0  0  0  0  0  0  0  0  0
   39.6990   25.6390   35.8280 H   0  0  0  0  0  0  0  0  0  0  0  0
   36.3810   25.4770   31.6960 C   0  0  0  0  0  0  0  0  0  0  0  0
   35.8960   26.7070   31.2470 C   0  0  0  0  0  0  0  0  0  0  0  0
   36.0650   27.8330   32.0890 C   0  0  0  0  0  0  0  0  0  0  0  0
   36.6940   27.6420   33.2910 N   0  0  0  0  0  0  0  0  0  0  0  0
   37.1480   26.4130   33.6740 C   0  0  0  0  0  0  0  0  0  0  0  0
   36.9920   25.3160   32.8720 N   0  0  0  0  0  0  0  0  0  0  0  0
   36.2920   24.5740   31.1130 H   0  0  0  0  0  0  0  0  0  0  0  0
   35.4210   26.7550   30.2960 H   0  0  0  0  0  0  0  0  0  0  0  0
   35.7010   28.7830   31.7640 H   0  0  0  0  0  0  0  0  0  0  0  0
   41.5130   27.1170   34.1930 C   0  0  1  0  0  3  0  0  0  0  0  0
   40.1600   26.5720   33.9170 C   0  0  1  0  0  3  0  0  0  0  0  0
   40.4630   25.3030   33.3710 O   0  0  0  0  0  0  0  0  0  0  0  0
   41.4290   24.7700   34.2260 C   0  0  0  0  0  2  0  0  0  0  0  0
   42.4440   25.9020   34.2270 C   0  0  2  0  0  3  0  0  0  0  0  0
   42.0030   27.9310   33.1610 O   0  0  0  0  0  0  0  0  0  0  0  0
   42.9700   27.8110   32.9910 H   0  0  0  0  0  0  0  0  0  0  0  0
   43.2240   25.8920   35.3670 O   0  0  0  0  0  0  0  0  0  0  0  0
   44.1710   26.0540   35.2070 H   0  0  0  0  0  0  0  0  0  0  0  0
  1  3  1  0  0  0  0
  1  2  1  0  0  0  0
  1  4  1  1  0  0  0
  2  6  1  0  0  0  0
  3  2  1  0  0  0  0
  3  7  1  1  0  0  0
  5  2  1  0  0  0  0
  8 13  1  0  0  0  0
  9  8  2  0  0  0  0
  9 10  1  0  0  0  0
 10 11  2  0  0  0  0
 11 12  1  0  0  0  0
 12  1  1  0  0  0  0
 13 12  2  0  0  0  0
 14  8  1  0  0  0  0
 15  9  1  0  0  0  0
 16 10  1  0  0  0  0
 17 22  1  6  0  0  0
 17 21  1  0  0  0  0
 18 19  1  1  0  0  0
 18 17  1  0  0  0  0
 18  3  1  0  0  0  0
 19 20  1  0  0  0  0
 20 21  1  0  0  0  0
 21 24  1  1  0  0  0
 23 22  1  0  0  0  0
 25 24  1  0  0  0  0
M  END
>  <minimizedAffinity>
-4.2352767

$$$$

 OpenBabel03262520533D

 25 27  0  0  1  0  0  0  0  0999 V2000
   38.3330   26.8540   34.6780 C   0  0  2  0  0  0  0  0  0  0  0  0
   38.4510   26.9330   36.1410 C   0  0  0  0  0  0  0  0  0  0  0  0
   38.2140   25.6060   35.4540 C   0  0  2  0  0  0  0  0  0  0  0  0
   37.4440   27.3720   34.2210 H   0  0  0  0  0  0  0  0  0  0  0  0
   39.3880   27.1370   36.6810 H   0  0  0  0  0  0  0  0  0  0  0  0
   37.5770   27.3590   36.6740 H   0  0  0  0  0  0  0  0  0  0  0  0
   37.1590   25.2060   35.5130 H   0  0  0  0  0  0  0  0  0  0  0  0
   41.7810   27.3320   33.4070 C   0  0  0  0  0  0  0  0  0  0  0  0
   41.6220   27.1690   32.0300 C   0  0  0  0  0  0  0  0  0  0  0  0
   40.3200   26.9050   31.5390 C   0  0  0  0  0  0  0  0  0  0  0  0
   39.2990   26.8250   32.4510 N   0  0  0  0  0  0  0  0  0  0  0  0
   39.5190   26.9940   33.7870 C   0  0  0  0  0  0  0  0  0  0  0  0
   40.7710   27.2510   34.2760 N   0  0  0  0  0  0  0  0  0  0  0  0
   42.7400   27.5370   33.8570 H   0  0  0  0  0  0  0  0  0  0  0  0
   42.4760   27.2490   31.4010 H   0  0  0  0  0  0  0  0  0  0  0  0
   40.1770   26.7760   30.4900 H   0  0  0  0  0  0  0  0  0  0  0  0
   39.0310   23.4600   36.5310 C   0  0  1  0  0  3  0  0  0  0  0  0
   39.2280   24.5320   35.5230 C   0  0  1  0  0  3  0  0  0  0  0  0
   39.1550   23.8080   34.3100 O   0  0  0  0  0  0  0  0  0  0  0  0
   38.0400   22.9820   34.4560 C   0  0  0  0  0  2  0  0  0  0  0  0
   38.3770   22.3020   35.7730 C   0  0  2  0  0  3  0  0  0  0  0  0
   40.2340   22.9440   37.0320 O   0  0  0  0  0  0  0  0  0  0  0  0
   40.2150   21.9660   37.1730 H   0  0  0  0  0  0  0  0  0  0  0  0
   37.2460   21.8440   36.4200 O   0  0  0  0  0  0  0  0  0  0  0  0
   37.3360   20.9550   36.8060 H   0  0  0  0  0  0  0  0  0  0  0  0
  1  4  1  6  0  0  0
  1  3  1  0  0  0  0
  1  2  1  0  0  0  0
  2  6  1  0  0  0  0
  2  5  1  0  0  0  0
  3  7  1  1  0  0  0
  3 18  1  0  0  0  0
  3  2  1  0  0  0  0
  8 14  1  0  0  0  0
  8 13  1  0  0  0  0
  9  8  2  0  0  0  0
 10  9  1  0  0  0  0
 10 11  2  0  0  0  0
 11 12  1  0  0  0  0
 12 13  2  0  0  0  0
 12  1  1  0  0  0  0
 15  9  1  0  0  0  0
 16 10  1  0  0  0  0
 17 22  1  6  0  0  0
 18 19  1  6  0  0  0
 18 17  1  0  0  0  0
 19 20  1  0  0  0  0
 20 21  1  0  0  0  0
 21 24  1  1  0  0  0
 21 17  1  0  0  0  0
 22 23  1  0  0  0  0
 24 25  1  0  0  0  0
M  END
>  <minimizedAffinity>
-4.20307302

$$$$
