
 OpenBabel03272500143D

 31 33  0  0  1  0  0  0  0  0999 V2000
   32.8530   30.6880   46.3420 Cl  0  0  0  0  0  0  0  0  0  0  0  0
   32.9660   29.0350   46.9180 C   0  0  0  0  0  0  0  0  0  0  0  0
   34.0290   28.6520   47.7450 C   0  0  0  0  0  0  0  0  0  0  0  0
   34.1380   27.3500   48.2110 C   0  0  0  0  0  0  0  0  0  0  0  0
   33.1710   26.4300   47.8420 C   0  0  0  0  0  0  0  0  0  0  0  0
   32.1070   26.7860   47.0230 C   0  0  0  0  0  0  0  0  0  0  0  0
   30.9110   25.5990   46.5820 Cl  0  0  0  0  0  0  0  0  0  0  0  0
   32.0200   28.0900   46.5700 C   0  0  0  0  0  0  0  0  0  0  0  0
   34.9690   27.0660   48.8520 H   0  0  0  0  0  0  0  0  0  0  0  0
   33.3040   25.4300   48.2330 H   0  0  0  0  0  0  0  0  0  0  0  0
   35.9920   31.0280   49.7460 C   0  0  0  0  0  0  0  0  0  0  0  0
   36.9770   31.4420   48.8170 C   0  0  0  0  0  0  0  0  0  0  0  0
   36.9390   30.8970   47.5340 C   0  0  0  0  0  0  0  0  0  0  0  0
   35.9550   29.9970   47.2490 N   0  0  0  0  0  0  0  0  0  0  0  0
   35.0400   29.6170   48.1300 C   0  0  0  0  0  0  0  0  0  0  0  0
   35.0580   30.1280   49.3700 N   0  0  0  0  0  0  0  0  0  0  0  0
   35.9640   31.4180   50.7740 H   0  0  0  0  0  0  0  0  0  0  0  0
   37.6840   31.2100   46.8260 H   0  0  0  0  0  0  0  0  0  0  0  0
   37.9930   32.4360   49.2640 C   0  0  0  0  0  0  0  0  0  0  0  0
   38.7490   32.8690   48.1570 F   0  0  0  0  0  0  0  0  0  0  0  0
   37.3480   33.5230   49.7810 F   0  0  0  0  0  0  0  0  0  0  0  0
   38.8650   31.9250   50.2070 F   0  0  0  0  0  0  0  0  0  0  0  0
   30.1850   29.7220   46.2020 C   0  0  1  0  0  0  0  0  0  0  0  0
   30.9020   28.5180   45.6930 C   0  0  1  0  0  0  0  0  0  0  0  0
   31.3550   28.9360   44.4410 O   0  0  0  0  0  0  0  0  0  0  0  0
   30.1540   29.4110   43.8730 C   0  0  0  0  0  0  0  0  0  0  0  0
   29.5280   30.2820   44.9580 C   0  0  2  0  0  0  0  0  0  0  0  0
   29.2600   29.4560   47.2030 O   0  0  0  0  0  0  0  0  0  0  0  0
   29.6400   29.4880   48.1050 H   0  0  0  0  0  0  0  0  0  0  0  0
   29.8350   31.6220   44.7430 O   0  0  0  0  0  0  0  0  0  0  0  0
   28.9940   32.1630   44.7250 H   0  0  0  0  0  0  0  0  0  0  0  0
  1  2  1  0  0  0  0
  2  3  1  0  0  0  0
  3 15  1  0  0  0  0
  3  4  2  0  0  0  0
  4  9  1  0  0  0  0
  5  4  1  0  0  0  0
  5 10  1  0  0  0  0
  6  5  2  0  0  0  0
  7  6  1  0  0  0  0
  8  2  2  0  0  0  0
  8  6  1  0  0  0  0
 11 17  1  0  0  0  0
 12 19  1  0  0  0  0
 12 11  2  0  0  0  0
 13 12  1  0  0  0  0
 14 13  2  0  0  0  0
 14 15  1  0  0  0  0
 15 16  2  0  0  0  0
 16 11  1  0  0  0  0
 18 13  1  0  0  0  0
 19 21  1  0  0  0  0
 19 22  1  0  0  0  0
 20 19  1  0  0  0  0
 23 28  1  1  0  0  0
 24 23  1  0  0  0  0
 24  8  1  1  0  0  0
 25 24  1  0  0  0  0
 26 25  1  0  0  0  0
 26 27  1  0  0  0  0
 27 30  1  6  0  0  0
 27 23  1  0  0  0  0
 28 29  1  0  0  0  0
 31 30  1  0  0  0  0
M  END
>  <minimizedAffinity>
-5.9229641

>  <minimizedRMSD>
1.65387893

$$$$
