
 OpenBabel03262523453D

 28 30  0  0  1  0  0  0  0  0999 V2000
   36.0190   23.5030   31.1670 Cl  0  0  0  0  0  0  0  0  0  0  0  0
   37.0380   23.6030   32.5840 C   0  0  0  0  0  0  0  0  0  0  0  0
   37.4380   22.4570   33.2470 C   0  0  0  0  0  0  0  0  0  0  0  0
   38.2410   22.6050   34.3570 C   0  0  0  0  0  0  0  0  0  0  0  0
   38.6380   23.8540   34.7990 C   0  0  0  0  0  0  0  0  0  0  0  0
   38.2160   24.9830   34.1040 C   0  0  0  0  0  0  0  0  0  0  0  0
   38.7600   26.5220   34.7240 Cl  0  0  0  0  0  0  0  0  0  0  0  0
   37.4140   24.8660   32.9940 C   0  0  0  0  0  0  0  0  0  0  0  0
   38.5480   21.7070   34.8690 H   0  0  0  0  0  0  0  0  0  0  0  0
   37.1170   25.7680   32.4970 H   0  0  0  0  0  0  0  0  0  0  0  0
   35.3470   19.3480   32.6620 C   0  0  0  0  0  0  0  0  0  0  0  0
   35.7890   20.5760   33.1820 C   0  0  0  0  0  0  0  0  0  0  0  0
   36.9690   21.1710   32.7100 C   0  0  0  0  0  0  0  0  0  0  0  0
   37.6540   20.5090   31.7390 N   0  0  0  0  0  0  0  0  0  0  0  0
   37.2050   19.3330   31.2610 C   0  0  0  0  0  0  0  0  0  0  0  0
   36.0890   18.7630   31.7030 N   0  0  0  0  0  0  0  0  0  0  0  0
   34.4260   19.0460   33.1420 H   0  0  0  0  0  0  0  0  0  0  0  0
   35.2800   21.1490   33.9570 H   0  0  0  0  0  0  0  0  0  0  0  0
   37.7430   18.7940   30.4870 H   0  0  0  0  0  0  0  0  0  0  0  0
   39.2630   22.7330   36.8420 C   0  0  1  0  0  3  0  0  0  0  0  0
   39.5110   23.9700   36.0100 C   0  0  1  0  0  3  0  0  0  0  0  0
   40.8520   24.0090   35.6830 O   0  0  0  0  0  0  0  0  0  0  0  0
   41.5270   23.0340   36.3850 C   0  0  0  0  0  2  0  0  0  0  0  0
   40.6330   22.5890   37.5140 C   0  0  2  0  0  3  0  0  0  0  0  0
   38.2610   22.9230   37.7880 O   0  0  0  0  0  0  0  0  0  0  0  0
   37.5550   22.2650   37.5940 H   0  0  0  0  0  0  0  0  0  0  0  0
   40.8650   21.2670   37.8820 O   0  0  0  0  0  0  0  0  0  0  0  0
   40.3040   21.0890   38.6780 H   0  0  0  0  0  0  0  0  0  0  0  0
  1  2  1  0  0  0  0
  2  8  2  0  0  0  0
  2  3  1  0  0  0  0
  3  4  2  0  0  0  0
  4  5  1  0  0  0  0
  4  9  1  0  0  0  0
  6  7  1  0  0  0  0
  6  5  2  0  0  0  0
  8  6  1  0  0  0  0
 10  8  1  0  0  0  0
 11 17  1  0  0  0  0
 11 12  1  0  0  0  0
 12 18  1  0  0  0  0
 13 12  2  0  0  0  0
 13  3  1  0  0  0  0
 14 13  1  0  0  0  0
 15 16  1  0  0  0  0
 15 14  2  0  0  0  0
 16 11  2  0  0  0  0
 19 15  1  0  0  0  0
 20 24  1  0  0  0  0
 20 25  1  1  0  0  0
 21  5  1  6  0  0  0
 21 20  1  0  0  0  0
 22 21  1  0  0  0  0
 22 23  1  0  0  0  0
 23 24  1  0  0  0  0
 24 27  1  6  0  0  0
 26 25  1  0  0  0  0
 27 28  1  0  0  0  0
M  END
>  <minimizedAffinity>
-5.69877911

$$$$

 OpenBabel03262523453D

 28 30  0  0  1  0  0  0  0  0999 V2000
   34.5660   30.5780   31.6940 Cl  0  0  0  0  0  0  0  0  0  0  0  0
   35.6630   29.4290   32.4230 C   0  0  0  0  0  0  0  0  0  0  0  0
   35.5500   29.0980   33.7620 C   0  0  0  0  0  0  0  0  0  0  0  0
   36.4470   28.1860   34.2750 C   0  0  0  0  0  0  0  0  0  0  0  0
   37.4280   27.6160   33.4850 C   0  0  0  0  0  0  0  0  0  0  0  0
   37.5080   27.9740   32.1430 C   0  0  0  0  0  0  0  0  0  0  0  0
   38.7740   27.2090   31.2130 Cl  0  0  0  0  0  0  0  0  0  0  0  0
   36.6290   28.8810   31.6040 C   0  0  0  0  0  0  0  0  0  0  0  0
   36.3520   27.9340   35.3200 H   0  0  0  0  0  0  0  0  0  0  0  0
   36.7360   29.1210   30.5650 H   0  0  0  0  0  0  0  0  0  0  0  0
   33.7040   31.5210   36.0190 C   0  0  0  0  0  0  0  0  0  0  0  0
   34.7330   30.9020   35.2920 C   0  0  0  0  0  0  0  0  0  0  0  0
   34.4790   29.7520   34.5280 C   0  0  0  0  0  0  0  0  0  0  0  0
   33.2060   29.2740   34.5280 N   0  0  0  0  0  0  0  0  0  0  0  0
   32.2400   29.8910   35.2370 C   0  0  0  0  0  0  0  0  0  0  0  0
   32.4730   30.9790   35.9620 N   0  0  0  0  0  0  0  0  0  0  0  0
   34.0830   32.3880   36.5440 H   0  0  0  0  0  0  0  0  0  0  0  0
   35.7680   31.2410   35.2550 H   0  0  0  0  0  0  0  0  0  0  0  0
   31.2200   29.5180   35.2460 H   0  0  0  0  0  0  0  0  0  0  0  0
   38.1720   26.6760   35.5790 C   0  0  1  0  0  3  0  0  0  0  0  0
   38.3810   26.6280   34.0830 C   0  0  1  0  0  3  0  0  0  0  0  0
   38.1350   25.3390   33.6540 O   0  0  0  0  0  0  0  0  0  0  0  0
   37.9830   24.5100   34.7440 C   0  0  0  0  0  2  0  0  0  0  0  0
   38.5400   25.2340   35.9430 C   0  0  2  0  0  3  0  0  0  0  0  0
   39.0230   27.5810   36.2050 O   0  0  0  0  0  0  0  0  0  0  0  0
   38.4540   28.2450   36.6570 H   0  0  0  0  0  0  0  0  0  0  0  0
   37.9190   24.8490   37.1270 O   0  0  0  0  0  0  0  0  0  0  0  0
   38.4010   25.3030   37.8640 H   0  0  0  0  0  0  0  0  0  0  0  0
  1  2  1  0  0  0  0
  2  3  1  0  0  0  0
  3  4  2  0  0  0  0
  3 13  1  0  0  0  0
  4  9  1  0  0  0  0
  5  4  1  0  0  0  0
  6  5  2  0  0  0  0
  7  6  1  0  0  0  0
  8  6  1  0  0  0  0
  8  2  2  0  0  0  0
 10  8  1  0  0  0  0
 11 17  1  0  0  0  0
 12 11  2  0  0  0  0
 13 14  2  0  0  0  0
 13 12  1  0  0  0  0
 14 15  1  0  0  0  0
 15 19  1  0  0  0  0
 15 16  2  0  0  0  0
 16 11  1  0  0  0  0
 18 12  1  0  0  0  0
 20 24  1  0  0  0  0
 20 25  1  1  0  0  0
 21  5  1  6  0  0  0
 21 20  1  0  0  0  0
 22 21  1  0  0  0  0
 22 23  1  0  0  0  0
 23 24  1  0  0  0  0
 24 27  1  1  0  0  0
 25 26  1  0  0  0  0
 27 28  1  0  0  0  0
M  END
>  <minimizedAffinity>
-5.41577053

$$$$

 OpenBabel03262523453D

 28 30  0  0  1  0  0  0  0  0999 V2000
   37.7840   27.8250   31.5590 Cl  0  0  0  0  0  0  0  0  0  0  0  0
   36.4830   28.6420   32.3930 C   0  0  0  0  0  0  0  0  0  0  0  0
   36.2370   28.3920   33.7320 C   0  0  0  0  0  0  0  0  0  0  0  0
   35.1960   29.0690   34.3300 C   0  0  0  0  0  0  0  0  0  0  0  0
   34.4210   29.9700   33.6240 C   0  0  0  0  0  0  0  0  0  0  0  0
   34.7010   30.1950   32.2800 C   0  0  0  0  0  0  0  0  0  0  0  0
   33.6760   31.3460   31.4580 Cl  0  0  0  0  0  0  0  0  0  0  0  0
   35.7310   29.5340   31.6560 C   0  0  0  0  0  0  0  0  0  0  0  0
   35.0100   28.8680   35.3740 H   0  0  0  0  0  0  0  0  0  0  0  0
   35.9030   29.7440   30.6190 H   0  0  0  0  0  0  0  0  0  0  0  0
   38.7710   26.8720   36.1070 C   0  0  0  0  0  0  0  0  0  0  0  0
   37.9410   27.8070   35.4670 C   0  0  0  0  0  0  0  0  0  0  0  0
   37.1100   27.4190   34.4060 C   0  0  0  0  0  0  0  0  0  0  0  0
   37.1470   26.1130   34.0320 N   0  0  0  0  0  0  0  0  0  0  0  0
   37.9540   25.2390   34.6650 C   0  0  0  0  0  0  0  0  0  0  0  0
   38.7440   25.5980   35.6700 N   0  0  0  0  0  0  0  0  0  0  0  0
   39.3370   27.3480   36.8960 H   0  0  0  0  0  0  0  0  0  0  0  0
   37.8710   28.8640   35.7250 H   0  0  0  0  0  0  0  0  0  0  0  0
   37.9930   24.1930   34.3750 H   0  0  0  0  0  0  0  0  0  0  0  0
   32.7060   29.7070   35.3000 C   0  0  1  0  0  3  0  0  0  0  0  0
   33.3000   30.6850   34.3130 C   0  0  1  0  0  3  0  0  0  0  0  0
   33.7390   31.7920   35.0120 O   0  0  0  0  0  0  0  0  0  0  0  0
   33.3090   31.7130   36.3180 C   0  0  0  0  0  2  0  0  0  0  0  0
   32.2090   30.6840   36.3710 C   0  0  2  0  0  3  0  0  0  0  0  0
   31.6490   28.9820   34.7580 O   0  0  0  0  0  0  0  0  0  0  0  0
   31.9000   28.0310   34.8050 H   0  0  0  0  0  0  0  0  0  0  0  0
   32.1300   30.0580   37.6110 O   0  0  0  0  0  0  0  0  0  0  0  0
   31.3340   29.4690   37.5850 H   0  0  0  0  0  0  0  0  0  0  0  0
  1  2  1  0  0  0  0
  2  3  1  0  0  0  0
  3  4  2  0  0  0  0
  3 13  1  0  0  0  0
  4  9  1  0  0  0  0
  5  4  1  0  0  0  0
  6  5  2  0  0  0  0
  7  6  1  0  0  0  0
  8  6  1  0  0  0  0
  8  2  2  0  0  0  0
 10  8  1  0  0  0  0
 11 17  1  0  0  0  0
 12 18  1  0  0  0  0
 12 11  2  0  0  0  0
 13 12  1  0  0  0  0
 14 13  2  0  0  0  0
 14 15  1  0  0  0  0
 15 16  2  0  0  0  0
 16 11  1  0  0  0  0
 19 15  1  0  0  0  0
 20 25  1  6  0  0  0
 20 24  1  0  0  0  0
 21  5  1  1  0  0  0
 21 22  1  0  0  0  0
 21 20  1  0  0  0  0
 22 23  1  0  0  0  0
 23 24  1  0  0  0  0
 24 27  1  1  0  0  0
 25 26  1  0  0  0  0
 28 27  1  0  0  0  0
M  END
>  <minimizedAffinity>
-5.26264715

$$$$

 OpenBabel03262523453D

 28 30  0  0  1  0  0  0  0  0999 V2000
   35.8140   20.7620   36.2920 Cl  0  0  0  0  0  0  0  0  0  0  0  0
   36.4290   21.3060   34.7480 C   0  0  0  0  0  0  0  0  0  0  0  0
   37.5090   22.1680   34.6830 C   0  0  0  0  0  0  0  0  0  0  0  0
   37.9430   22.5580   33.4350 C   0  0  0  0  0  0  0  0  0  0  0  0
   37.3270   22.1070   32.2820 C   0  0  0  0  0  0  0  0  0  0  0  0
   36.2440   21.2400   32.3900 C   0  0  0  0  0  0  0  0  0  0  0  0
   35.5210   20.7160   30.8890 Cl  0  0  0  0  0  0  0  0  0  0  0  0
   35.7880   20.8340   33.6200 C   0  0  0  0  0  0  0  0  0  0  0  0
   38.7850   23.2310   33.3930 H   0  0  0  0  0  0  0  0  0  0  0  0
   34.9500   20.1660   33.6460 H   0  0  0  0  0  0  0  0  0  0  0  0
   39.9700   22.6370   37.5290 C   0  0  0  0  0  0  0  0  0  0  0  0
   39.4080   22.2210   36.3100 C   0  0  0  0  0  0  0  0  0  0  0  0
   38.1040   22.5980   35.9570 C   0  0  0  0  0  0  0  0  0  0  0  0
   37.4200   23.3740   36.8390 N   0  0  0  0  0  0  0  0  0  0  0  0
   37.9860   23.7570   38.0010 C   0  0  0  0  0  0  0  0  0  0  0  0
   39.2200   23.4040   38.3430 N   0  0  0  0  0  0  0  0  0  0  0  0
   40.9760   22.2530   37.6300 H   0  0  0  0  0  0  0  0  0  0  0  0
   39.9100   21.6010   35.5670 H   0  0  0  0  0  0  0  0  0  0  0  0
   37.4500   24.3760   38.7150 H   0  0  0  0  0  0  0  0  0  0  0  0
   37.7580   24.0650   30.9410 C   0  0  1  0  0  3  0  0  0  0  0  0
   37.8310   22.5560   30.9460 C   0  0  1  0  0  3  0  0  0  0  0  0
   39.1450   22.1860   30.7340 O   0  0  0  0  0  0  0  0  0  0  0  0
   39.8880   23.2960   30.3950 C   0  0  0  0  0  2  0  0  0  0  0  0
   38.9220   24.3810   29.9950 C   0  0  2  0  0  3  0  0  0  0  0  0
   36.5550   24.5360   30.4260 O   0  0  0  0  0  0  0  0  0  0  0  0
   36.1260   25.0660   31.1360 H   0  0  0  0  0  0  0  0  0  0  0  0
   39.4260   25.6550   30.2430 O   0  0  0  0  0  0  0  0  0  0  0  0
   38.7710   26.2990   29.8730 H   0  0  0  0  0  0  0  0  0  0  0  0
  2  1  1  0  0  0  0
  3  2  1  0  0  0  0
  3 13  1  0  0  0  0
  4  3  2  0  0  0  0
  5  6  2  0  0  0  0
  5  4  1  0  0  0  0
  6  8  1  0  0  0  0
  7  6  1  0  0  0  0
  8 10  1  0  0  0  0
  8  2  2  0  0  0  0
  9  4  1  0  0  0  0
 11 17  1  0  0  0  0
 11 16  1  0  0  0  0
 12 11  2  0  0  0  0
 13 12  1  0  0  0  0
 13 14  2  0  0  0  0
 14 15  1  0  0  0  0
 15 16  2  0  0  0  0
 15 19  1  0  0  0  0
 18 12  1  0  0  0  0
 20 25  1  6  0  0  0
 20 21  1  0  0  0  0
 21  5  1  1  0  0  0
 22 21  1  0  0  0  0
 23 22  1  0  0  0  0
 24 27  1  1  0  0  0
 24 23  1  0  0  0  0
 24 20  1  0  0  0  0
 25 26  1  0  0  0  0
 28 27  1  0  0  0  0
M  END
>  <minimizedAffinity>
-5.24193144

$$$$

 OpenBabel03262523453D

 28 30  0  0  1  0  0  0  0  0999 V2000
   38.8560   27.1090   35.9190 Cl  0  0  0  0  0  0  0  0  0  0  0  0
   38.3840   26.0700   34.5940 C   0  0  0  0  0  0  0  0  0  0  0  0
   38.2410   24.7070   34.7830 C   0  0  0  0  0  0  0  0  0  0  0  0
   37.8670   23.9450   33.6970 C   0  0  0  0  0  0  0  0  0  0  0  0
   37.6400   24.5160   32.4590 C   0  0  0  0  0  0  0  0  0  0  0  0
   37.7930   25.8900   32.3100 C   0  0  0  0  0  0  0  0  0  0  0  0
   37.4880   26.5340   30.7150 Cl  0  0  0  0  0  0  0  0  0  0  0  0
   38.1660   26.6760   33.3730 C   0  0  0  0  0  0  0  0  0  0  0  0
   37.7580   22.8830   33.8530 H   0  0  0  0  0  0  0  0  0  0  0  0
   38.2700   27.7290   33.2030 H   0  0  0  0  0  0  0  0  0  0  0  0
   39.9080   22.9540   37.7030 C   0  0  0  0  0  0  0  0  0  0  0  0
   39.6650   23.4490   36.4110 C   0  0  0  0  0  0  0  0  0  0  0  0
   38.5020   24.1840   36.1320 C   0  0  0  0  0  0  0  0  0  0  0  0
   37.6360   24.3910   37.1590 N   0  0  0  0  0  0  0  0  0  0  0  0
   37.8970   23.9030   38.3880 C   0  0  0  0  0  0  0  0  0  0  0  0
   38.9940   23.2060   38.6590 N   0  0  0  0  0  0  0  0  0  0  0  0
   40.8450   22.4150   37.7290 H   0  0  0  0  0  0  0  0  0  0  0  0
   40.3230   23.3140   35.5530 H   0  0  0  0  0  0  0  0  0  0  0  0
   37.2120   24.0600   39.2160 H   0  0  0  0  0  0  0  0  0  0  0  0
   37.9800   22.3450   31.4620 C   0  0  1  0  0  3  0  0  0  0  0  0
   37.2350   23.6500   31.3060 C   0  0  1  0  0  3  0  0  0  0  0  0
   35.8810   23.3780   31.3090 O   0  0  0  0  0  0  0  0  0  0  0  0
   35.6840   22.0160   31.2510 C   0  0  0  0  0  2  0  0  0  0  0  0
   36.9800   21.3910   30.8010 C   0  0  2  0  0  3  0  0  0  0  0  0
   39.1940   22.3430   30.7830 O   0  0  0  0  0  0  0  0  0  0  0  0
   39.8980   22.1920   31.4540 H   0  0  0  0  0  0  0  0  0  0  0  0
   37.1380   20.0960   31.2870 O   0  0  0  0  0  0  0  0  0  0  0  0
   37.9630   19.7350   30.8750 H   0  0  0  0  0  0  0  0  0  0  0  0
  2  3  1  0  0  0  0
  2  1  1  0  0  0  0
  3 13  1  0  0  0  0
  4  9  1  0  0  0  0
  4  3  2  0  0  0  0
  5  4  1  0  0  0  0
  6  5  2  0  0  0  0
  6  8  1  0  0  0  0
  7  6  1  0  0  0  0
  8  2  2  0  0  0  0
 10  8  1  0  0  0  0
 11 17  1  0  0  0  0
 11 16  1  0  0  0  0
 12 11  2  0  0  0  0
 13 12  1  0  0  0  0
 13 14  2  0  0  0  0
 14 15  1  0  0  0  0
 15 16  2  0  0  0  0
 15 19  1  0  0  0  0
 18 12  1  0  0  0  0
 20 25  1  6  0  0  0
 21 22  1  0  0  0  0
 21 20  1  0  0  0  0
 21  5  1  1  0  0  0
 23 22  1  0  0  0  0
 24 23  1  0  0  0  0
 24 27  1  1  0  0  0
 24 20  1  0  0  0  0
 25 26  1  0  0  0  0
 28 27  1  0  0  0  0
M  END
>  <minimizedAffinity>
-5.23919964

$$$$

 OpenBabel03262523453D

 28 30  0  0  1  0  0  0  0  0999 V2000
   40.0720   25.7450   34.7300 Cl  0  0  0  0  0  0  0  0  0  0  0  0
   39.1320   24.5440   33.8750 C   0  0  0  0  0  0  0  0  0  0  0  0
   38.4960   23.5250   34.5630 C   0  0  0  0  0  0  0  0  0  0  0  0
   37.7710   22.6110   33.8290 C   0  0  0  0  0  0  0  0  0  0  0  0
   37.6780   22.7020   32.4530 C   0  0  0  0  0  0  0  0  0  0  0  0
   38.3300   23.7420   31.7980 C   0  0  0  0  0  0  0  0  0  0  0  0
   38.1630   23.7880   30.0600 Cl  0  0  0  0  0  0  0  0  0  0  0  0
   39.0610   24.6680   32.5020 C   0  0  0  0  0  0  0  0  0  0  0  0
   37.2790   21.8200   34.3730 H   0  0  0  0  0  0  0  0  0  0  0  0
   39.5440   25.4470   31.9480 H   0  0  0  0  0  0  0  0  0  0  0  0
   37.8860   24.1380   38.2550 C   0  0  0  0  0  0  0  0  0  0  0  0
   37.7330   24.1650   36.8580 C   0  0  0  0  0  0  0  0  0  0  0  0
   38.6490   23.5040   36.0250 C   0  0  0  0  0  0  0  0  0  0  0  0
   39.6760   22.8470   36.6270 N   0  0  0  0  0  0  0  0  0  0  0  0
   39.7960   22.8400   37.9690 C   0  0  0  0  0  0  0  0  0  0  0  0
   38.9340   23.4630   38.7640 N   0  0  0  0  0  0  0  0  0  0  0  0
   37.0920   24.6980   38.7300 H   0  0  0  0  0  0  0  0  0  0  0  0
   36.9310   24.6740   36.3240 H   0  0  0  0  0  0  0  0  0  0  0  0
   40.6120   22.3200   38.4620 H   0  0  0  0  0  0  0  0  0  0  0  0
   37.0930   20.3630   32.3890 C   0  0  1  0  0  3  0  0  0  0  0  0
   36.8790   21.6880   31.6940 C   0  0  1  0  0  3  0  0  0  0  0  0
   35.5280   21.9710   31.7090 O   0  0  0  0  0  0  0  0  0  0  0  0
   34.8310   20.8720   32.1640 C   0  0  0  0  0  2  0  0  0  0  0  0
   35.7540   19.6840   32.0770 C   0  0  2  0  0  3  0  0  0  0  0  0
   38.1540   19.6450   31.8460 O   0  0  0  0  0  0  0  0  0  0  0  0
   38.8060   19.5050   32.5710 H   0  0  0  0  0  0  0  0  0  0  0  0
   35.4590   18.7150   33.0320 O   0  0  0  0  0  0  0  0  0  0  0  0
   36.0500   17.9420   32.8470 H   0  0  0  0  0  0  0  0  0  0  0  0
  2  3  1  0  0  0  0
  2  1  1  0  0  0  0
  3 13  1  0  0  0  0
  4  9  1  0  0  0  0
  4  3  2  0  0  0  0
  5  4  1  0  0  0  0
  6  5  2  0  0  0  0
  6  8  1  0  0  0  0
  7  6  1  0  0  0  0
  8  2  2  0  0  0  0
 10  8  1  0  0  0  0
 11 17  1  0  0  0  0
 11 16  1  0  0  0  0
 12 11  2  0  0  0  0
 13 14  2  0  0  0  0
 13 12  1  0  0  0  0
 14 15  1  0  0  0  0
 15 19  1  0  0  0  0
 15 16  2  0  0  0  0
 18 12  1  0  0  0  0
 20 25  1  6  0  0  0
 21 22  1  0  0  0  0
 21 20  1  0  0  0  0
 21  5  1  1  0  0  0
 22 23  1  0  0  0  0
 24 23  1  0  0  0  0
 24 20  1  0  0  0  0
 24 27  1  1  0  0  0
 25 26  1  0  0  0  0
 28 27  1  0  0  0  0
M  END
>  <minimizedAffinity>
-5.19702387

$$$$

 OpenBabel03262523453D

 28 30  0  0  1  0  0  0  0  0999 V2000
   38.1980   21.8910   34.8730 Cl  0  0  0  0  0  0  0  0  0  0  0  0
   38.0340   23.4880   34.1810 C   0  0  0  0  0  0  0  0  0  0  0  0
   37.4990   23.6570   32.9170 C   0  0  0  0  0  0  0  0  0  0  0  0
   37.3980   24.9420   32.4300 C   0  0  0  0  0  0  0  0  0  0  0  0
   37.8150   26.0310   33.1740 C   0  0  0  0  0  0  0  0  0  0  0  0
   38.3460   25.8190   34.4420 C   0  0  0  0  0  0  0  0  0  0  0  0
   38.8490   27.2450   35.3180 Cl  0  0  0  0  0  0  0  0  0  0  0  0
   38.4600   24.5500   34.9540 C   0  0  0  0  0  0  0  0  0  0  0  0
   36.9800   25.0660   31.4430 H   0  0  0  0  0  0  0  0  0  0  0  0
   38.8770   24.4430   35.9350 H   0  0  0  0  0  0  0  0  0  0  0  0
   35.3690   20.8240   31.5700 C   0  0  0  0  0  0  0  0  0  0  0  0
   35.7600   21.9820   32.2630 C   0  0  0  0  0  0  0  0  0  0  0  0
   37.0820   22.4460   32.1950 C   0  0  0  0  0  0  0  0  0  0  0  0
   37.9550   21.7290   31.4370 N   0  0  0  0  0  0  0  0  0  0  0  0
   37.5500   20.6220   30.7840 C   0  0  0  0  0  0  0  0  0  0  0  0
   36.3000   20.1770   30.8440 N   0  0  0  0  0  0  0  0  0  0  0  0
   34.3200   20.6210   31.7380 H   0  0  0  0  0  0  0  0  0  0  0  0
   35.1040   22.5930   32.8830 H   0  0  0  0  0  0  0  0  0  0  0  0
   38.2370   20.0410   30.1760 H   0  0  0  0  0  0  0  0  0  0  0  0
   37.9880   27.3000   31.1300 C   0  0  1  0  0  3  0  0  0  0  0  0
   37.6860   27.4110   32.6070 C   0  0  1  0  0  3  0  0  0  0  0  0
   36.4100   27.9170   32.7500 O   0  0  0  0  0  0  0  0  0  0  0  0
   35.9360   28.3290   31.5240 C   0  0  0  0  0  2  0  0  0  0  0  0
   37.1200   28.4460   30.5980 C   0  0  2  0  0  3  0  0  0  0  0  0
   39.3320   27.5210   30.8460 O   0  0  0  0  0  0  0  0  0  0  0  0
   39.6720   26.7030   30.4160 H   0  0  0  0  0  0  0  0  0  0  0  0
   36.7730   28.2260   29.2690 O   0  0  0  0  0  0  0  0  0  0  0  0
   37.5830   28.4070   28.7280 H   0  0  0  0  0  0  0  0  0  0  0  0
  2  1  1  0  0  0  0
  2  8  1  0  0  0  0
  3  2  2  0  0  0  0
  4  3  1  0  0  0  0
  4  5  2  0  0  0  0
  5  6  1  0  0  0  0
  6  8  2  0  0  0  0
  6  7  1  0  0  0  0
  8 10  1  0  0  0  0
  9  4  1  0  0  0  0
 11 17  1  0  0  0  0
 11 12  1  0  0  0  0
 12 18  1  0  0  0  0
 13 12  2  0  0  0  0
 13  3  1  0  0  0  0
 14 13  1  0  0  0  0
 15 16  1  0  0  0  0
 15 14  2  0  0  0  0
 16 11  2  0  0  0  0
 19 15  1  0  0  0  0
 20 25  1  1  0  0  0
 20 21  1  0  0  0  0
 21 22  1  0  0  0  0
 21  5  1  6  0  0  0
 23 22  1  0  0  0  0
 24 27  1  6  0  0  0
 24 20  1  0  0  0  0
 24 23  1  0  0  0  0
 26 25  1  0  0  0  0
 28 27  1  0  0  0  0
M  END
>  <minimizedAffinity>
-5.11314058

$$$$

 OpenBabel03262523453D

 28 30  0  0  1  0  0  0  0  0999 V2000
   38.9610   26.1180   35.0220 Cl  0  0  0  0  0  0  0  0  0  0  0  0
   38.1470   24.9160   34.0500 C   0  0  0  0  0  0  0  0  0  0  0  0
   38.2740   23.5690   34.3410 C   0  0  0  0  0  0  0  0  0  0  0  0
   37.6060   22.6720   33.5350 C   0  0  0  0  0  0  0  0  0  0  0  0
   36.8330   23.0970   32.4700 C   0  0  0  0  0  0  0  0  0  0  0  0
   36.7290   24.4600   32.2110 C   0  0  0  0  0  0  0  0  0  0  0  0
   35.7330   24.9140   30.8490 Cl  0  0  0  0  0  0  0  0  0  0  0  0
   37.3830   25.3770   32.9960 C   0  0  0  0  0  0  0  0  0  0  0  0
   37.7110   21.6250   33.7680 H   0  0  0  0  0  0  0  0  0  0  0  0
   37.2700   26.4140   32.7510 H   0  0  0  0  0  0  0  0  0  0  0  0
   41.2390   22.4340   36.4140 C   0  0  0  0  0  0  0  0  0  0  0  0
   40.4400   22.7770   35.3110 C   0  0  0  0  0  0  0  0  0  0  0  0
   39.1160   23.2060   35.4900 C   0  0  0  0  0  0  0  0  0  0  0  0
   38.6510   23.2720   36.7660 N   0  0  0  0  0  0  0  0  0  0  0  0
   39.4410   22.9350   37.8040 C   0  0  0  0  0  0  0  0  0  0  0  0
   40.6950   22.5280   37.6430 N   0  0  0  0  0  0  0  0  0  0  0  0
   42.2220   22.1280   36.0860 H   0  0  0  0  0  0  0  0  0  0  0  0
   40.7600   22.7440   34.2690 H   0  0  0  0  0  0  0  0  0  0  0  0
   39.0810   22.9830   38.8280 H   0  0  0  0  0  0  0  0  0  0  0  0
   37.0600   20.9120   31.4730 C   0  0  1  0  0  3  0  0  0  0  0  0
   36.1230   22.0890   31.6200 C   0  0  1  0  0  3  0  0  0  0  0  0
   34.9550   21.6420   32.2060 O   0  0  0  0  0  0  0  0  0  0  0  0
   34.9680   20.2650   32.2680 C   0  0  0  0  0  2  0  0  0  0  0  0
   36.0370   19.7800   31.3230 C   0  0  2  0  0  3  0  0  0  0  0  0
   37.8630   21.0110   30.3410 O   0  0  0  0  0  0  0  0  0  0  0  0
   38.7970   21.0130   30.6510 H   0  0  0  0  0  0  0  0  0  0  0  0
   36.5840   18.5650   31.7250 O   0  0  0  0  0  0  0  0  0  0  0  0
   37.2070   18.2810   31.0090 H   0  0  0  0  0  0  0  0  0  0  0  0
  2  3  1  0  0  0  0
  2  1  1  0  0  0  0
  3 13  1  0  0  0  0
  4  9  1  0  0  0  0
  4  3  2  0  0  0  0
  5  4  1  0  0  0  0
  6  5  2  0  0  0  0
  6  8  1  0  0  0  0
  7  6  1  0  0  0  0
  8  2  2  0  0  0  0
 10  8  1  0  0  0  0
 11 16  1  0  0  0  0
 12 13  1  0  0  0  0
 12 11  2  0  0  0  0
 13 14  2  0  0  0  0
 14 15  1  0  0  0  0
 15 19  1  0  0  0  0
 16 15  2  0  0  0  0
 17 11  1  0  0  0  0
 18 12  1  0  0  0  0
 20 25  1  6  0  0  0
 20 21  1  0  0  0  0
 21 22  1  0  0  0  0
 21  5  1  1  0  0  0
 22 23  1  0  0  0  0
 24 20  1  0  0  0  0
 24 27  1  1  0  0  0
 24 23  1  0  0  0  0
 25 26  1  0  0  0  0
 28 27  1  0  0  0  0
M  END
>  <minimizedAffinity>
-5.06078672

$$$$

 OpenBabel03262523453D

 28 30  0  0  1  0  0  0  0  0999 V2000
   42.0930   25.3620   35.2990 Cl  0  0  0  0  0  0  0  0  0  0  0  0
   40.8240   25.7290   34.1540 C   0  0  0  0  0  0  0  0  0  0  0  0
   39.5230   25.3200   34.3890 C   0  0  0  0  0  0  0  0  0  0  0  0
   38.5700   25.6410   33.4470 C   0  0  0  0  0  0  0  0  0  0  0  0
   38.8940   26.3490   32.3040 C   0  0  0  0  0  0  0  0  0  0  0  0
   40.2140   26.7430   32.1050 C   0  0  0  0  0  0  0  0  0  0  0  0
   40.5420   27.6320   30.6380 Cl  0  0  0  0  0  0  0  0  0  0  0  0
   41.1860   26.4370   33.0260 C   0  0  0  0  0  0  0  0  0  0  0  0
   37.5580   25.3180   33.6370 H   0  0  0  0  0  0  0  0  0  0  0  0
   42.1860   26.7640   32.8220 H   0  0  0  0  0  0  0  0  0  0  0  0
   38.0780   24.3010   37.7430 C   0  0  0  0  0  0  0  0  0  0  0  0
   38.3190   25.0210   36.5620 C   0  0  0  0  0  0  0  0  0  0  0  0
   39.2660   24.5730   35.6290 C   0  0  0  0  0  0  0  0  0  0  0  0
   39.9310   23.4240   35.9220 N   0  0  0  0  0  0  0  0  0  0  0  0
   39.6790   22.7550   37.0640 C   0  0  0  0  0  0  0  0  0  0  0  0
   38.7840   23.1730   37.9520 N   0  0  0  0  0  0  0  0  0  0  0  0
   37.3210   24.7940   38.3370 H   0  0  0  0  0  0  0  0  0  0  0  0
   37.8160   25.9460   36.2760 H   0  0  0  0  0  0  0  0  0  0  0  0
   40.2040   21.8360   37.3100 H   0  0  0  0  0  0  0  0  0  0  0  0
   36.9710   25.4400   31.1660 C   0  0  1  0  0  3  0  0  0  0  0  0
   37.8270   26.6770   31.3060 C   0  0  1  0  0  3  0  0  0  0  0  0
   37.0200   27.7150   31.7290 O   0  0  0  0  0  0  0  0  0  0  0  0
   35.7010   27.3220   31.6820 C   0  0  0  0  0  2  0  0  0  0  0  0
   35.6260   26.0890   30.8190 C   0  0  2  0  0  3  0  0  0  0  0  0
   37.4040   24.6100   30.1370 O   0  0  0  0  0  0  0  0  0  0  0  0
   37.6260   23.7410   30.5430 H   0  0  0  0  0  0  0  0  0  0  0  0
   34.5700   25.2570   31.1790 O   0  0  0  0  0  0  0  0  0  0  0  0
   34.5440   24.5240   30.5120 H   0  0  0  0  0  0  0  0  0  0  0  0
  2  3  1  0  0  0  0
  2  1  1  0  0  0  0
  3 13  1  0  0  0  0
  4  9  1  0  0  0  0
  4  3  2  0  0  0  0
  5  4  1  0  0  0  0
  6  5  2  0  0  0  0
  6  8  1  0  0  0  0
  7  6  1  0  0  0  0
  8  2  2  0  0  0  0
 10  8  1  0  0  0  0
 11 16  1  0  0  0  0
 11 17  1  0  0  0  0
 12 11  2  0  0  0  0
 13 14  2  0  0  0  0
 13 12  1  0  0  0  0
 14 15  1  0  0  0  0
 15 19  1  0  0  0  0
 15 16  2  0  0  0  0
 18 12  1  0  0  0  0
 20 25  1  6  0  0  0
 20 21  1  0  0  0  0
 21 22  1  0  0  0  0
 21  5  1  1  0  0  0
 23 22  1  0  0  0  0
 24 20  1  0  0  0  0
 24 27  1  1  0  0  0
 24 23  1  0  0  0  0
 25 26  1  0  0  0  0
 28 27  1  0  0  0  0
M  END
>  <minimizedAffinity>
-5.05020094

$$$$
