
 OpenBabel03272506113D

 44 47  0  0  1  0  0  0  0  0999 V2000
   36.0330   30.4440   47.1960 C   0  0  1  0  0  0  0  0  0  0  0  0
   35.5380   29.1110   47.8860 C   0  0  0  0  0  0  0  0  0  0  0  0
   35.1060   29.3600   49.3250 C   0  0  0  0  0  0  0  0  0  0  0  0
   36.1280   30.2190   50.0110 C   0  0  0  0  0  0  0  0  0  0  0  0
   37.4180   30.0890   49.2660 C   0  0  0  0  0  0  0  0  0  0  0  0
   37.2790   30.7880   47.9420 C   0  0  2  0  0  0  0  0  0  0  0  0
   35.4020   31.2200   47.5080 H   0  0  0  0  0  0  0  0  0  0  0  0
   34.8140   28.5960   47.2720 H   0  0  0  0  0  0  0  0  0  0  0  0
   36.4510   28.4910   47.9060 H   0  0  0  0  0  0  0  0  0  0  0  0
   34.0680   29.7380   49.3900 H   0  0  0  0  0  0  0  0  0  0  0  0
   35.0970   28.3690   49.8070 H   0  0  0  0  0  0  0  0  0  0  0  0
   35.8050   31.2600   49.9450 H   0  0  0  0  0  0  0  0  0  0  0  0
   36.2990   29.9060   51.0720 H   0  0  0  0  0  0  0  0  0  0  0  0
   38.1470   30.7070   49.8510 H   0  0  0  0  0  0  0  0  0  0  0  0
   37.8660   29.0980   49.2360 H   0  0  0  0  0  0  0  0  0  0  0  0
   38.2360   30.6030   47.4380 H   0  0  0  0  0  0  0  0  0  0  0  0
   35.0990   29.7610   45.0650 C   0  0  0  0  0  0  0  0  0  0  0  0
   35.3460   29.5150   43.7010 C   0  0  0  0  0  0  0  0  0  0  0  0
   36.5670   29.5380   43.1020 C   0  0  0  0  0  0  0  0  0  0  0  0
   37.6920   29.8210   43.8670 C   0  0  0  0  0  0  0  0  0  0  0  0
   37.4670   30.0620   45.2080 C   0  0  0  0  0  0  0  0  0  0  0  0
   36.2200   30.0430   45.8120 C   0  0  0  0  0  0  0  0  0  0  0  0
   34.5680   29.2870   42.9450 H   0  0  0  0  0  0  0  0  0  0  0  0
   36.7050   29.3510   42.0690 H   0  0  0  0  0  0  0  0  0  0  0  0
   38.6620   29.8380   43.3930 H   0  0  0  0  0  0  0  0  0  0  0  0
   38.4010   30.2540   45.7200 H   0  0  0  0  0  0  0  0  0  0  0  0
   33.2250   28.3500   45.6470 C   0  0  0  0  0  0  0  0  0  0  0  0
   33.7440   29.6510   45.4520 C   0  0  0  0  0  0  0  0  0  0  0  0
   32.8740   30.7170   45.6390 C   0  0  0  0  0  0  0  0  0  0  0  0
   31.5770   30.4440   45.9960 N   0  0  0  0  0  0  0  0  0  0  0  0
   31.1080   29.2110   46.1730 C   0  0  0  0  0  0  0  0  0  0  0  0
   31.9400   28.1750   45.9960 N   0  0  0  0  0  0  0  0  0  0  0  0
   33.7050   27.3860   45.5730 H   0  0  0  0  0  0  0  0  0  0  0  0
   32.9710   31.7240   45.5360 H   0  0  0  0  0  0  0  0  0  0  0  0
   30.0610   29.0310   46.4590 H   0  0  0  0  0  0  0  0  0  0  0  0
   37.8820   32.6730   49.4890 C   0  0  1  0  0  0  0  0  0  0  0  0
   37.4030   32.3240   48.1450 C   0  0  1  0  0  0  0  0  0  0  0  0
   38.3180   32.7290   47.1930 O   0  0  0  0  0  0  0  0  0  0  0  0
   39.4500   33.1730   47.8720 C   0  0  0  0  0  0  0  0  0  0  0  0
   38.9000   33.7710   49.1720 C   0  0  2  0  0  0  0  0  0  0  0  0
   36.8610   33.2670   50.2140 O   0  0  0  0  0  0  0  0  0  0  0  0
   36.5370   34.0240   49.6280 H   0  0  0  0  0  0  0  0  0  0  0  0
   39.8270   33.8130   50.1820 O   0  0  0  0  0  0  0  0  0  0  0  0
   40.6390   34.3110   49.9990 H   0  0  0  0  0  0  0  0  0  0  0  0
  1  7  1  1  0  0  0
  1  2  1  0  0  0  0
  1  6  1  0  0  0  0
  2  9  1  0  0  0  0
  2  3  1  0  0  0  0
  3 10  1  0  0  0  0
  3 11  1  0  0  0  0
  3  4  1  0  0  0  0
  4 13  1  0  0  0  0
  5 14  1  0  0  0  0
  5  4  1  0  0  0  0
  6 16  1  6  0  0  0
  6 37  1  0  0  0  0
  6  5  1  0  0  0  0
  8  2  1  0  0  0  0
 12  4  1  0  0  0  0
 15  5  1  0  0  0  0
 17 28  1  0  0  0  0
 17 22  1  0  0  0  0
 18 17  2  0  0  0  0
 19 18  1  0  0  0  0
 19 20  2  0  0  0  0
 20 21  1  0  0  0  0
 21 26  1  0  0  0  0
 21 22  2  0  0  0  0
 22  1  1  0  0  0  0
 23 18  1  0  0  0  0
 24 19  1  0  0  0  0
 25 20  1  0  0  0  0
 27 32  1  0  0  0  0
 28 29  1  0  0  0  0
 28 27  2  0  0  0  0
 29 30  2  0  0  0  0
 30 31  1  0  0  0  0
 31 35  1  0  0  0  0
 32 31  2  0  0  0  0
 33 27  1  0  0  0  0
 34 29  1  0  0  0  0
 36 41  1  1  0  0  0
 37 38  1  6  0  0  0
 37 36  1  0  0  0  0
 38 39  1  0  0  0  0
 39 40  1  0  0  0  0
 40 36  1  0  0  0  0
 40 43  1  1  0  0  0
 42 41  1  0  0  0  0
 44 43  1  0  0  0  0
M  END
>  <minimizedAffinity>
-5.06441736

>  <minimizedRMSD>
3.67260742

$$$$
