
 OpenBabel03272506093D

 44 47  0  0  1  0  0  0  0  0999 V2000
   35.2180   28.8390   48.8820 C   0  0  0  0  0  0  0  0  0  0  0  0
   35.3190   28.0230   49.6390 H   0  0  0  0  0  0  0  0  0  0  0  0
   36.1120   28.7680   48.2140 H   0  0  0  0  0  0  0  0  0  0  0  0
   33.9610   28.6230   48.0730 C   0  0  0  0  0  0  0  0  0  0  0  0
   33.9800   28.8910   46.6490 C   0  0  0  0  0  0  0  0  0  0  0  0
   32.3160   28.4870   46.2170 S   0  0  0  0  0  0  0  0  0  0  0  0
   31.8040   28.0130   47.9730 C   0  0  0  0  0  0  0  0  0  0  0  0
   32.8270   28.2040   48.5470 N   0  0  0  0  0  0  0  0  0  0  0  0
   30.5390   27.5470   48.4980 N   0  0  0  0  0  0  0  0  0  0  0  0
   29.7160   26.7840   47.6190 C   0  0  0  0  0  0  0  0  0  0  0  0
   28.2860   26.7030   48.0370 C   0  0  0  0  0  0  0  0  0  0  0  0
   27.9610   27.5360   49.1960 N   0  0  0  0  0  0  0  0  0  0  0  0
   28.9130   27.1900   50.2290 C   0  0  0  0  0  0  0  0  0  0  0  0
   30.1970   27.8830   49.8630 C   0  0  0  0  0  0  0  0  0  0  0  0
   34.7950   29.2320   46.0940 H   0  0  0  0  0  0  0  0  0  0  0  0
   30.1100   25.7320   47.5030 H   0  0  0  0  0  0  0  0  0  0  0  0
   29.7860   27.2110   46.5960 H   0  0  0  0  0  0  0  0  0  0  0  0
   28.0110   25.6560   48.3230 H   0  0  0  0  0  0  0  0  0  0  0  0
   27.5610   26.9860   47.2420 H   0  0  0  0  0  0  0  0  0  0  0  0
   26.9840   27.3500   49.4420 H   0  0  0  0  0  0  0  0  0  0  0  0
   28.5140   27.5700   51.2010 H   0  0  0  0  0  0  0  0  0  0  0  0
   29.0790   26.1160   50.3140 H   0  0  0  0  0  0  0  0  0  0  0  0
   31.0040   27.4780   50.5090 H   0  0  0  0  0  0  0  0  0  0  0  0
   30.1730   28.9770   50.0390 H   0  0  0  0  0  0  0  0  0  0  0  0
   35.2050   30.1370   49.5870 C   0  0  0  0  0  0  0  0  0  0  0  0
   35.3270   30.0100   50.6910 H   0  0  0  0  0  0  0  0  0  0  0  0
   34.3060   30.7470   49.4410 H   0  0  0  0  0  0  0  0  0  0  0  0
   37.8890   32.7040   49.4340 C   0  0  0  0  0  0  0  0  0  0  0  0
   38.4630   32.4890   48.1780 C   0  0  0  0  0  0  0  0  0  0  0  0
   37.9130   31.4650   47.4110 C   0  0  0  0  0  0  0  0  0  0  0  0
   36.8720   30.7490   47.9190 N   0  0  0  0  0  0  0  0  0  0  0  0
   36.3580   31.0020   49.1400 C   0  0  0  0  0  0  0  0  0  0  0  0
   36.8580   31.9680   49.8930 N   0  0  0  0  0  0  0  0  0  0  0  0
   38.3390   33.5100   50.0120 H   0  0  0  0  0  0  0  0  0  0  0  0
   39.2770   33.0480   47.7820 H   0  0  0  0  0  0  0  0  0  0  0  0
   38.3250   32.3190   45.1100 C   0  0  1  0  0  0  0  0  0  0  0  0
   38.4320   31.1480   46.0800 C   0  0  1  0  0  0  0  0  0  0  0  0
   39.7740   30.8520   46.0160 O   0  0  0  0  0  0  0  0  0  0  0  0
   39.9900   30.7360   44.6380 C   0  0  0  0  0  0  0  0  0  0  0  0
   39.1140   31.7240   43.9400 C   0  0  2  0  0  0  0  0  0  0  0  0
   36.9960   32.5270   44.7640 O   0  0  0  0  0  0  0  0  0  0  0  0
   36.4780   32.4480   45.6280 H   0  0  0  0  0  0  0  0  0  0  0  0
   39.7790   32.6880   43.2110 O   0  0  0  0  0  0  0  0  0  0  0  0
   39.2290   32.8490   42.3810 H   0  0  0  0  0  0  0  0  0  0  0  0
  1 25  1  0  0  0  0
  1  2  1  0  0  0  0
  3  1  1  0  0  0  0
  4  8  1  0  0  0  0
  4  1  1  0  0  0  0
  5  4  2  0  0  0  0
  6  5  1  0  0  0  0
  6  7  1  0  0  0  0
  7  9  1  0  0  0  0
  7  8  2  0  0  0  0
  9 14  1  0  0  0  0
 10 11  1  0  0  0  0
 10  9  1  0  0  0  0
 11 18  1  0  0  0  0
 11 12  1  0  0  0  0
 12 20  1  0  0  0  0
 12 13  1  0  0  0  0
 13 22  1  0  0  0  0
 13 21  1  0  0  0  0
 14 24  1  0  0  0  0
 14 13  1  0  0  0  0
 14 23  1  0  0  0  0
 15  5  1  0  0  0  0
 16 10  1  0  0  0  0
 17 10  1  0  0  0  0
 19 11  1  0  0  0  0
 25 26  1  0  0  0  0
 27 25  1  0  0  0  0
 28 33  1  0  0  0  0
 28 34  1  0  0  0  0
 29 28  2  0  0  0  0
 30 31  2  0  0  0  0
 30 29  1  0  0  0  0
 31 32  1  0  0  0  0
 32 25  1  0  0  0  0
 32 33  2  0  0  0  0
 35 29  1  0  0  0  0
 36 41  1  6  0  0  0
 36 37  1  0  0  0  0
 37 30  1  1  0  0  0
 38 37  1  0  0  0  0
 39 38  1  0  0  0  0
 40 43  1  1  0  0  0
 40 39  1  0  0  0  0
 40 36  1  0  0  0  0
 41 42  1  0  0  0  0
 44 43  1  0  0  0  0
M  END
>  <minimizedAffinity>
-6.87504148

>  <minimizedRMSD>
1.27000999

$$$$
