
 OpenBabel03262523143D

 29 31  0  0  1  0  0  0  0  0999 V2000
   37.9070   23.4760   34.4840 C   0  0  0  0  0  0  0  0  0  0  0  0
   38.0650   24.6400   33.7720 C   0  0  0  0  0  0  0  0  0  0  0  0
   37.6480   24.5560   32.4580 C   0  0  0  0  0  0  0  0  0  0  0  0
   37.1210   23.4230   31.8910 C   0  0  0  0  0  0  0  0  0  0  0  0
   37.0020   22.3030   32.6870 C   0  0  0  0  0  0  0  0  0  0  0  0
   37.3960   22.3360   33.9760 N   0  0  0  0  0  0  0  0  0  0  0  0
   38.4790   25.5350   34.2140 H   0  0  0  0  0  0  0  0  0  0  0  0
   37.7310   25.4220   31.8110 H   0  0  0  0  0  0  0  0  0  0  0  0
   36.7940   23.3550   30.8630 H   0  0  0  0  0  0  0  0  0  0  0  0
   39.6930   22.6210   37.5800 C   0  0  0  0  0  0  0  0  0  0  0  0
   39.0440   23.4220   38.5490 C   0  0  0  0  0  0  0  0  0  0  0  0
   38.0070   24.2360   38.1090 C   0  0  0  0  0  0  0  0  0  0  0  0
   37.6840   24.2130   36.7890 N   0  0  0  0  0  0  0  0  0  0  0  0
   38.3170   23.4440   35.8970 C   0  0  0  0  0  0  0  0  0  0  0  0
   39.3200   22.6540   36.3050 N   0  0  0  0  0  0  0  0  0  0  0  0
   39.3680   23.3740   39.5670 H   0  0  0  0  0  0  0  0  0  0  0  0
   37.4830   24.8630   38.8100 H   0  0  0  0  0  0  0  0  0  0  0  0
   40.7740   21.7460   37.9230 N   0  0  0  0  0  0  0  0  0  0  0  0
   41.7270   22.1660   37.8600 H   0  0  0  0  0  0  0  0  0  0  0  0
   40.3040   20.8430   38.1650 H   0  0  0  0  0  0  0  0  0  0  0  0
   35.2840   20.4970   32.9130 C   0  0  1  0  0  3  0  0  0  0  0  0
   36.4550   21.0480   32.1800 C   0  0  2  0  0  3  0  0  0  0  0  0
   37.3170   19.9700   32.1580 O   0  0  0  0  0  0  0  0  0  0  0  0
   36.5130   18.9790   31.5950 C   0  0  0  0  0  2  0  0  0  0  0  0
   35.1080   19.1840   32.1340 C   0  0  1  0  0  3  0  0  0  0  0  0
   35.5110   20.1150   34.2160 O   0  0  0  0  0  0  0  0  0  0  0  0
   34.6810   20.2410   34.7780 H   0  0  0  0  0  0  0  0  0  0  0  0
   34.7330   18.1340   32.9350 O   0  0  0  0  0  0  0  0  0  0  0  0
   34.9500   18.2990   33.8980 H   0  0  0  0  0  0  0  0  0  0  0  0
  1 14  1  0  0  0  0
  2  7  1  0  0  0  0
  2  1  2  0  0  0  0
  3  2  1  0  0  0  0
  4  3  2  0  0  0  0
  4  5  1  0  0  0  0
  5  6  2  0  0  0  0
  6  1  1  0  0  0  0
  8  3  1  0  0  0  0
  9  4  1  0  0  0  0
 10 18  1  0  0  0  0
 10 11  1  0  0  0  0
 11 16  1  0  0  0  0
 12 11  2  0  0  0  0
 12 17  1  0  0  0  0
 13 12  1  0  0  0  0
 14 15  1  0  0  0  0
 14 13  2  0  0  0  0
 15 10  2  0  0  0  0
 18 20  1  0  0  0  0
 19 18  1  0  0  0  0
 21 26  1  1  0  0  0
 22  5  1  1  0  0  0
 22 21  1  0  0  0  0
 23 22  1  0  0  0  0
 24 25  1  0  0  0  0
 24 23  1  0  0  0  0
 25 21  1  0  0  0  0
 25 28  1  1  0  0  0
 26 27  1  0  0  0  0
 28 29  1  0  0  0  0
M  END
>  <minimizedAffinity>
-6.09052849

$$$$

 OpenBabel03262523143D

 29 31  0  0  1  0  0  0  0  0999 V2000
   38.0090   23.1840   34.3320 C   0  0  0  0  0  0  0  0  0  0  0  0
   37.5390   22.0140   33.7870 C   0  0  0  0  0  0  0  0  0  0  0  0
   37.2110   22.1100   32.4490 C   0  0  0  0  0  0  0  0  0  0  0  0
   37.3320   23.2590   31.7090 C   0  0  0  0  0  0  0  0  0  0  0  0
   37.8140   24.3840   32.3460 C   0  0  0  0  0  0  0  0  0  0  0  0
   38.1470   24.3400   33.6510 N   0  0  0  0  0  0  0  0  0  0  0  0
   37.4420   21.1070   34.3660 H   0  0  0  0  0  0  0  0  0  0  0  0
   36.8310   21.2400   31.9250 H   0  0  0  0  0  0  0  0  0  0  0  0
   37.0760   23.3360   30.6620 H   0  0  0  0  0  0  0  0  0  0  0  0
   39.7470   22.4610   37.4890 C   0  0  0  0  0  0  0  0  0  0  0  0
   39.0670   23.2840   38.4180 C   0  0  0  0  0  0  0  0  0  0  0  0
   38.0270   24.0660   37.9310 C   0  0  0  0  0  0  0  0  0  0  0  0
   37.7300   23.9940   36.6070 N   0  0  0  0  0  0  0  0  0  0  0  0
   38.3910   23.2060   35.7530 C   0  0  0  0  0  0  0  0  0  0  0  0
   39.3990   22.4460   36.2070 N   0  0  0  0  0  0  0  0  0  0  0  0
   39.3730   23.2750   39.4430 H   0  0  0  0  0  0  0  0  0  0  0  0
   37.4800   24.7080   38.6010 H   0  0  0  0  0  0  0  0  0  0  0  0
   40.8340   21.6150   37.8810 N   0  0  0  0  0  0  0  0  0  0  0  0
   41.7820   22.0480   37.8220 H   0  0  0  0  0  0  0  0  0  0  0  0
   40.3740   20.7140   38.1450 H   0  0  0  0  0  0  0  0  0  0  0  0
   36.7330   26.4090   31.3470 C   0  0  1  0  0  3  0  0  0  0  0  0
   37.9800   25.6560   31.6480 C   0  0  2  0  0  3  0  0  0  0  0  0
   38.5900   25.5980   30.4110 O   0  0  0  0  0  0  0  0  0  0  0  0
   38.6300   26.9460   30.0540 C   0  0  0  0  0  2  0  0  0  0  0  0
   37.3440   27.5780   30.5570 C   0  0  1  0  0  3  0  0  0  0  0  0
   35.8570   25.8050   30.4740 O   0  0  0  0  0  0  0  0  0  0  0  0
   34.9030   26.0570   30.6890 H   0  0  0  0  0  0  0  0  0  0  0  0
   36.5550   27.9850   29.5100 O   0  0  0  0  0  0  0  0  0  0  0  0
   35.9050   27.2770   29.2320 H   0  0  0  0  0  0  0  0  0  0  0  0
  1 14  1  0  0  0  0
  2  1  1  0  0  0  0
  2  7  1  0  0  0  0
  3  2  2  0  0  0  0
  4  5  2  0  0  0  0
  4  3  1  0  0  0  0
  5  6  1  0  0  0  0
  6  1  2  0  0  0  0
  8  3  1  0  0  0  0
  9  4  1  0  0  0  0
 10 18  1  0  0  0  0
 10 11  1  0  0  0  0
 11 16  1  0  0  0  0
 12 11  2  0  0  0  0
 12 17  1  0  0  0  0
 13 12  1  0  0  0  0
 14 15  1  0  0  0  0
 14 13  2  0  0  0  0
 15 10  2  0  0  0  0
 18 20  1  0  0  0  0
 19 18  1  0  0  0  0
 21 26  1  6  0  0  0
 21 22  1  0  0  0  0
 22  5  1  6  0  0  0
 23 22  1  0  0  0  0
 24 23  1  0  0  0  0
 24 25  1  0  0  0  0
 25 28  1  6  0  0  0
 25 21  1  0  0  0  0
 26 27  1  0  0  0  0
 29 28  1  0  0  0  0
M  END
>  <minimizedAffinity>
-5.91885662

$$$$

 OpenBabel03262523143D

 29 31  0  0  1  0  0  0  0  0999 V2000
   37.0650   25.2840   32.4420 C   0  0  0  0  0  0  0  0  0  0  0  0
   36.3090   26.2710   31.8580 C   0  0  0  0  0  0  0  0  0  0  0  0
   35.2980   25.7980   31.0450 C   0  0  0  0  0  0  0  0  0  0  0  0
   35.0500   24.4660   30.8240 C   0  0  0  0  0  0  0  0  0  0  0  0
   35.8640   23.5490   31.4550 C   0  0  0  0  0  0  0  0  0  0  0  0
   36.8650   23.9620   32.2580 N   0  0  0  0  0  0  0  0  0  0  0  0
   36.5010   27.3200   32.0290 H   0  0  0  0  0  0  0  0  0  0  0  0
   34.6440   26.4980   30.5380 H   0  0  0  0  0  0  0  0  0  0  0  0
   34.2590   24.0940   30.1890 H   0  0  0  0  0  0  0  0  0  0  0  0
   38.9670   26.8250   35.1840 C   0  0  0  0  0  0  0  0  0  0  0  0
   40.2810   26.3490   34.9610 C   0  0  0  0  0  0  0  0  0  0  0  0
   40.4760   25.5090   33.8710 C   0  0  0  0  0  0  0  0  0  0  0  0
   39.4050   25.2000   33.0940 N   0  0  0  0  0  0  0  0  0  0  0  0
   38.1740   25.6660   33.3300 C   0  0  0  0  0  0  0  0  0  0  0  0
   37.9690   26.4760   34.3790 N   0  0  0  0  0  0  0  0  0  0  0  0
   41.0630   26.6460   35.6270 H   0  0  0  0  0  0  0  0  0  0  0  0
   41.4590   25.1220   33.6610 H   0  0  0  0  0  0  0  0  0  0  0  0
   38.6530   27.6950   36.2760 N   0  0  0  0  0  0  0  0  0  0  0  0
   38.3690   27.2180   37.1610 H   0  0  0  0  0  0  0  0  0  0  0  0
   38.7950   28.6550   35.8870 H   0  0  0  0  0  0  0  0  0  0  0  0
   35.2020   21.3620   32.4780 C   0  0  1  0  0  3  0  0  0  0  0  0
   35.6840   22.1100   31.2860 C   0  0  2  0  0  3  0  0  0  0  0  0
   36.8070   21.3920   30.9270 O   0  0  0  0  0  0  0  0  0  0  0  0
   36.2900   20.1020   30.8100 C   0  0  0  0  0  2  0  0  0  0  0  0
   35.2490   19.9370   31.9030 C   0  0  1  0  0  3  0  0  0  0  0  0
   36.0500   21.3410   33.5620 O   0  0  0  0  0  0  0  0  0  0  0  0
   35.5300   21.2970   34.4260 H   0  0  0  0  0  0  0  0  0  0  0  0
   35.6490   19.0030   32.8250 O   0  0  0  0  0  0  0  0  0  0  0  0
   36.1470   19.4170   33.5890 H   0  0  0  0  0  0  0  0  0  0  0  0
  1 14  1  0  0  0  0
  2  7  1  0  0  0  0
  2  1  2  0  0  0  0
  3  2  1  0  0  0  0
  4  3  2  0  0  0  0
  4  5  1  0  0  0  0
  5  6  2  0  0  0  0
  6  1  1  0  0  0  0
  8  3  1  0  0  0  0
  9  4  1  0  0  0  0
 10 18  1  0  0  0  0
 11 10  1  0  0  0  0
 11 16  1  0  0  0  0
 12 11  2  0  0  0  0
 13 14  2  0  0  0  0
 13 12  1  0  0  0  0
 14 15  1  0  0  0  0
 15 10  2  0  0  0  0
 17 12  1  0  0  0  0
 18 19  1  0  0  0  0
 20 18  1  0  0  0  0
 21 26  1  1  0  0  0
 22  5  1  1  0  0  0
 22 21  1  0  0  0  0
 23 22  1  0  0  0  0
 24 23  1  0  0  0  0
 24 25  1  0  0  0  0
 25 21  1  0  0  0  0
 25 28  1  1  0  0  0
 26 27  1  0  0  0  0
 28 29  1  0  0  0  0
M  END
>  <minimizedAffinity>
-5.62020111

$$$$

 OpenBabel03262523143D

 29 31  0  0  1  0  0  0  0  0999 V2000
   37.0550   24.7410   32.4390 C   0  0  0  0  0  0  0  0  0  0  0  0
   36.2590   23.8240   31.7970 C   0  0  0  0  0  0  0  0  0  0  0  0
   36.4950   22.5160   32.1710 C   0  0  0  0  0  0  0  0  0  0  0  0
   37.4350   22.1390   33.0980 C   0  0  0  0  0  0  0  0  0  0  0  0
   38.1860   23.1340   33.6900 C   0  0  0  0  0  0  0  0  0  0  0  0
   37.9920   24.4250   33.3570 N   0  0  0  0  0  0  0  0  0  0  0  0
   35.5180   24.1150   31.0670 H   0  0  0  0  0  0  0  0  0  0  0  0
   35.9180   21.7150   31.7210 H   0  0  0  0  0  0  0  0  0  0  0  0
   37.6210   21.1170   33.3930 H   0  0  0  0  0  0  0  0  0  0  0  0
   36.8240   27.8950   30.5660 C   0  0  0  0  0  0  0  0  0  0  0  0
   36.5890   28.8490   31.5840 C   0  0  0  0  0  0  0  0  0  0  0  0
   36.5160   28.3790   32.8900 C   0  0  0  0  0  0  0  0  0  0  0  0
   36.6740   27.0460   33.1070 N   0  0  0  0  0  0  0  0  0  0  0  0
   36.8950   26.1690   32.1230 C   0  0  0  0  0  0  0  0  0  0  0  0
   36.9670   26.6060   30.8570 N   0  0  0  0  0  0  0  0  0  0  0  0
   36.4770   29.8780   31.3180 H   0  0  0  0  0  0  0  0  0  0  0  0
   36.3390   29.0680   33.6990 H   0  0  0  0  0  0  0  0  0  0  0  0
   36.9180   28.2680   29.1870 N   0  0  0  0  0  0  0  0  0  0  0  0
   36.0180   28.2520   28.6570 H   0  0  0  0  0  0  0  0  0  0  0  0
   37.9330   28.4760   29.0470 H   0  0  0  0  0  0  0  0  0  0  0  0
   38.7480   22.1490   35.9210 C   0  0  1  0  0  3  0  0  0  0  0  0
   39.2100   22.8390   34.6870 C   0  0  2  0  0  3  0  0  0  0  0  0
   39.8930   23.9230   35.2000 O   0  0  0  0  0  0  0  0  0  0  0  0
   40.7980   23.3040   36.0630 C   0  0  0  0  0  2  0  0  0  0  0  0
   40.0750   22.1280   36.6970 C   0  0  1  0  0  3  0  0  0  0  0  0
   37.8760   22.8550   36.7180 O   0  0  0  0  0  0  0  0  0  0  0  0
   37.2410   22.2330   37.1980 H   0  0  0  0  0  0  0  0  0  0  0  0
   39.9080   22.3240   38.0450 O   0  0  0  0  0  0  0  0  0  0  0  0
   39.0340   22.7640   38.2560 H   0  0  0  0  0  0  0  0  0  0  0  0
  1  6  1  0  0  0  0
  2  3  1  0  0  0  0
  2  1  2  0  0  0  0
  3  4  2  0  0  0  0
  4  9  1  0  0  0  0
  4  5  1  0  0  0  0
  6  5  2  0  0  0  0
  7  2  1  0  0  0  0
  8  3  1  0  0  0  0
 10 15  2  0  0  0  0
 10 11  1  0  0  0  0
 11 12  2  0  0  0  0
 12 13  1  0  0  0  0
 12 17  1  0  0  0  0
 14  1  1  0  0  0  0
 14 13  2  0  0  0  0
 15 14  1  0  0  0  0
 16 11  1  0  0  0  0
 18 10  1  0  0  0  0
 19 18  1  0  0  0  0
 20 18  1  0  0  0  0
 21 25  1  0  0  0  0
 21 26  1  1  0  0  0
 22  5  1  6  0  0  0
 22 23  1  0  0  0  0
 22 21  1  0  0  0  0
 23 24  1  0  0  0  0
 24 25  1  0  0  0  0
 25 28  1  1  0  0  0
 26 27  1  0  0  0  0
 28 29  1  0  0  0  0
M  END
>  <minimizedAffinity>
-5.57878113

$$$$

 OpenBabel03262523143D

 29 31  0  0  1  0  0  0  0  0999 V2000
   36.2380   23.1390   31.8630 C   0  0  0  0  0  0  0  0  0  0  0  0
   35.4050   23.8280   31.0160 C   0  0  0  0  0  0  0  0  0  0  0  0
   35.5580   25.1990   31.0710 C   0  0  0  0  0  0  0  0  0  0  0  0
   36.4530   25.8400   31.8900 C   0  0  0  0  0  0  0  0  0  0  0  0
   37.2470   25.0620   32.7060 C   0  0  0  0  0  0  0  0  0  0  0  0
   37.1340   23.7190   32.6880 N   0  0  0  0  0  0  0  0  0  0  0  0
   34.6990   23.3270   30.3690 H   0  0  0  0  0  0  0  0  0  0  0  0
   34.9460   25.8340   30.4390 H   0  0  0  0  0  0  0  0  0  0  0  0
   36.5740   26.9130   31.9340 H   0  0  0  0  0  0  0  0  0  0  0  0
   37.2180   19.5960   31.8230 C   0  0  0  0  0  0  0  0  0  0  0  0
   35.9790   18.9260   31.9580 C   0  0  0  0  0  0  0  0  0  0  0  0
   34.8380   19.7130   32.0590 C   0  0  0  0  0  0  0  0  0  0  0  0
   34.9810   21.0650   32.0230 N   0  0  0  0  0  0  0  0  0  0  0  0
   36.1670   21.6690   31.8940 C   0  0  0  0  0  0  0  0  0  0  0  0
   37.2770   20.9240   31.7970 N   0  0  0  0  0  0  0  0  0  0  0  0
   35.9650   17.8570   31.9780 H   0  0  0  0  0  0  0  0  0  0  0  0
   33.8730   19.2480   32.1630 H   0  0  0  0  0  0  0  0  0  0  0  0
   38.4550   18.8850   31.7110 N   0  0  0  0  0  0  0  0  0  0  0  0
   38.9390   18.6830   32.6140 H   0  0  0  0  0  0  0  0  0  0  0  0
   38.5720   18.7350   30.6830 H   0  0  0  0  0  0  0  0  0  0  0  0
   37.7390   26.0100   34.9690 C   0  0  1  0  0  3  0  0  0  0  0  0
   38.2300   25.6460   33.6130 C   0  0  2  0  0  3  0  0  0  0  0  0
   38.8250   26.8190   33.1950 O   0  0  0  0  0  0  0  0  0  0  0  0
   39.7130   27.0720   34.2410 C   0  0  0  0  0  2  0  0  0  0  0  0
   39.0210   26.6500   35.5260 C   0  0  1  0  0  3  0  0  0  0  0  0
   36.7890   27.0050   35.0210 O   0  0  0  0  0  0  0  0  0  0  0  0
   36.1630   26.8640   35.8020 H   0  0  0  0  0  0  0  0  0  0  0  0
   38.7720   27.7360   36.3270 O   0  0  0  0  0  0  0  0  0  0  0  0
   37.8650   28.1260   36.1600 H   0  0  0  0  0  0  0  0  0  0  0  0
  1 14  1  0  0  0  0
  1  6  1  0  0  0  0
  2  3  1  0  0  0  0
  2  1  2  0  0  0  0
  3  4  2  0  0  0  0
  4  9  1  0  0  0  0
  4  5  1  0  0  0  0
  6  5  2  0  0  0  0
  7  2  1  0  0  0  0
  8  3  1  0  0  0  0
 10 11  1  0  0  0  0
 11 16  1  0  0  0  0
 11 12  2  0  0  0  0
 12 17  1  0  0  0  0
 13 12  1  0  0  0  0
 14 13  2  0  0  0  0
 15 10  2  0  0  0  0
 15 14  1  0  0  0  0
 18 10  1  0  0  0  0
 18 19  1  0  0  0  0
 20 18  1  0  0  0  0
 21 26  1  6  0  0  0
 21 25  1  0  0  0  0
 22  5  1  6  0  0  0
 22 21  1  0  0  0  0
 23 22  1  0  0  0  0
 23 24  1  0  0  0  0
 24 25  1  0  0  0  0
 25 28  1  1  0  0  0
 26 27  1  0  0  0  0
 29 28  1  0  0  0  0
M  END
>  <minimizedAffinity>
-5.47096968

$$$$

 OpenBabel03262523143D

 29 31  0  0  1  0  0  0  0  0999 V2000
   37.1480   23.0590   32.4510 C   0  0  0  0  0  0  0  0  0  0  0  0
   36.8580   24.1930   31.7320 C   0  0  0  0  0  0  0  0  0  0  0  0
   37.1010   25.3680   32.4140 C   0  0  0  0  0  0  0  0  0  0  0  0
   37.5860   25.4260   33.6960 C   0  0  0  0  0  0  0  0  0  0  0  0
   37.8460   24.2330   34.3380 C   0  0  0  0  0  0  0  0  0  0  0  0
   37.6250   23.0600   33.7130 N   0  0  0  0  0  0  0  0  0  0  0  0
   36.4760   24.1520   30.7220 H   0  0  0  0  0  0  0  0  0  0  0  0
   36.9050   26.3200   31.9320 H   0  0  0  0  0  0  0  0  0  0  0  0
   37.7770   26.3450   34.2320 H   0  0  0  0  0  0  0  0  0  0  0  0
   35.6600   19.8100   31.5900 C   0  0  0  0  0  0  0  0  0  0  0  0
   36.5670   19.2930   30.6350 C   0  0  0  0  0  0  0  0  0  0  0  0
   37.6670   20.0780   30.3130 C   0  0  0  0  0  0  0  0  0  0  0  0
   37.8030   21.2820   30.9290 N   0  0  0  0  0  0  0  0  0  0  0  0
   36.9290   21.7440   31.8290 C   0  0  0  0  0  0  0  0  0  0  0  0
   35.8610   20.9990   32.1500 N   0  0  0  0  0  0  0  0  0  0  0  0
   36.3760   18.3340   30.2010 H   0  0  0  0  0  0  0  0  0  0  0  0
   38.3840   19.7270   29.5900 H   0  0  0  0  0  0  0  0  0  0  0  0
   34.4940   19.0860   31.9960 N   0  0  0  0  0  0  0  0  0  0  0  0
   33.6320   19.2740   31.4360 H   0  0  0  0  0  0  0  0  0  0  0  0
   34.8190   18.5110   32.8070 H   0  0  0  0  0  0  0  0  0  0  0  0
   39.2610   23.0440   36.0260 C   0  0  1  0  0  3  0  0  0  0  0  0
   38.3640   24.1860   35.7020 C   0  0  2  0  0  3  0  0  0  0  0  0
   37.4230   24.1110   36.7090 O   0  0  0  0  0  0  0  0  0  0  0  0
   38.2290   24.1270   37.8480 C   0  0  0  0  0  2  0  0  0  0  0  0
   39.4780   23.3260   37.5220 C   0  0  1  0  0  3  0  0  0  0  0  0
   38.6900   21.7930   35.9750 O   0  0  0  0  0  0  0  0  0  0  0  0
   39.3690   21.0980   35.7020 H   0  0  0  0  0  0  0  0  0  0  0  0
   39.5380   22.1820   38.2770 O   0  0  0  0  0  0  0  0  0  0  0  0
   39.1160   21.4020   37.8130 H   0  0  0  0  0  0  0  0  0  0  0  0
  1  6  1  0  0  0  0
  2  3  1  0  0  0  0
  2  1  2  0  0  0  0
  3  4  2  0  0  0  0
  4  9  1  0  0  0  0
  4  5  1  0  0  0  0
  6  5  2  0  0  0  0
  7  2  1  0  0  0  0
  8  3  1  0  0  0  0
 10 18  1  0  0  0  0
 10 15  1  0  0  0  0
 11 10  2  0  0  0  0
 12 11  1  0  0  0  0
 12 13  2  0  0  0  0
 13 14  1  0  0  0  0
 14 15  2  0  0  0  0
 14  1  1  0  0  0  0
 16 11  1  0  0  0  0
 17 12  1  0  0  0  0
 18 20  1  0  0  0  0
 19 18  1  0  0  0  0
 21 26  1  1  0  0  0
 21 25  1  0  0  0  0
 22  5  1  6  0  0  0
 22 21  1  0  0  0  0
 22 23  1  0  0  0  0
 23 24  1  0  0  0  0
 25 24  1  0  0  0  0
 25 28  1  1  0  0  0
 27 26  1  0  0  0  0
 29 28  1  0  0  0  0
M  END
>  <minimizedAffinity>
-5.44015741

$$$$

 OpenBabel03262523143D

 29 31  0  0  1  0  0  0  0  0999 V2000
   38.4920   25.4940   34.8300 C   0  0  0  0  0  0  0  0  0  0  0  0
   37.4530   26.1580   35.4330 C   0  0  0  0  0  0  0  0  0  0  0  0
   36.9570   27.2140   34.6950 C   0  0  0  0  0  0  0  0  0  0  0  0
   37.4420   27.5870   33.4660 C   0  0  0  0  0  0  0  0  0  0  0  0
   38.4890   26.8580   32.9420 C   0  0  0  0  0  0  0  0  0  0  0  0
   39.0070   25.8180   33.6250 N   0  0  0  0  0  0  0  0  0  0  0  0
   37.0670   25.8680   36.4000 H   0  0  0  0  0  0  0  0  0  0  0  0
   36.1340   27.8030   35.0840 H   0  0  0  0  0  0  0  0  0  0  0  0
   37.0550   28.4130   32.8860 H   0  0  0  0  0  0  0  0  0  0  0  0
   39.3340   23.0270   37.4210 C   0  0  0  0  0  0  0  0  0  0  0  0
   40.2760   22.1960   36.7700 C   0  0  0  0  0  0  0  0  0  0  0  0
   40.5970   22.5080   35.4550 C   0  0  0  0  0  0  0  0  0  0  0  0
   39.9920   23.5820   34.8800 N   0  0  0  0  0  0  0  0  0  0  0  0
   39.1040   24.3480   35.5220 C   0  0  0  0  0  0  0  0  0  0  0  0
   38.7830   24.0600   36.7920 N   0  0  0  0  0  0  0  0  0  0  0  0
   40.7000   21.3720   37.3030 H   0  0  0  0  0  0  0  0  0  0  0  0
   41.3090   21.9050   34.9180 H   0  0  0  0  0  0  0  0  0  0  0  0
   38.9310   22.7970   38.7760 N   0  0  0  0  0  0  0  0  0  0  0  0
   38.1010   22.1740   38.8970 H   0  0  0  0  0  0  0  0  0  0  0  0
   39.6150   23.3490   39.3430 H   0  0  0  0  0  0  0  0  0  0  0  0
   38.1560   27.7520   30.6280 C   0  0  1  0  0  3  0  0  0  0  0  0
   39.0760   27.1730   31.6430 C   0  0  2  0  0  3  0  0  0  0  0  0
   39.6400   26.1170   30.9550 O   0  0  0  0  0  0  0  0  0  0  0  0
   40.1310   26.7540   29.8160 C   0  0  0  0  0  2  0  0  0  0  0  0
   39.1280   27.8310   29.4400 C   0  0  1  0  0  3  0  0  0  0  0  0
   37.1330   26.9350   30.2020 O   0  0  0  0  0  0  0  0  0  0  0  0
   36.3180   27.4770   29.9560 H   0  0  0  0  0  0  0  0  0  0  0  0
   38.5280   27.5440   28.2390 O   0  0  0  0  0  0  0  0  0  0  0  0
   37.6800   27.0260   28.3560 H   0  0  0  0  0  0  0  0  0  0  0  0
  1  2  1  0  0  0  0
  1 14  1  0  0  0  0
  2  7  1  0  0  0  0
  3  8  1  0  0  0  0
  3  2  2  0  0  0  0
  4  3  1  0  0  0  0
  5  4  2  0  0  0  0
  5  6  1  0  0  0  0
  6  1  2  0  0  0  0
  9  4  1  0  0  0  0
 10 18  1  0  0  0  0
 11 16  1  0  0  0  0
 11 10  2  0  0  0  0
 12 11  1  0  0  0  0
 13 12  2  0  0  0  0
 13 14  1  0  0  0  0
 14 15  2  0  0  0  0
 15 10  1  0  0  0  0
 17 12  1  0  0  0  0
 18 19  1  0  0  0  0
 18 20  1  0  0  0  0
 21 26  1  6  0  0  0
 21 22  1  0  0  0  0
 22  5  1  1  0  0  0
 23 22  1  0  0  0  0
 24 23  1  0  0  0  0
 25 28  1  6  0  0  0
 25 24  1  0  0  0  0
 25 21  1  0  0  0  0
 27 26  1  0  0  0  0
 28 29  1  0  0  0  0
M  END
>  <minimizedAffinity>
-5.40786839

$$$$

 OpenBabel03262523143D

 29 31  0  0  1  0  0  0  0  0999 V2000
   39.9470   23.1730   36.9490 C   0  0  0  0  0  0  0  0  0  0  0  0
   39.3440   23.0410   38.1770 C   0  0  0  0  0  0  0  0  0  0  0  0
   38.1750   23.7620   38.3100 C   0  0  0  0  0  0  0  0  0  0  0  0
   37.6410   24.5490   37.3200 C   0  0  0  0  0  0  0  0  0  0  0  0
   38.3190   24.6190   36.1210 C   0  0  0  0  0  0  0  0  0  0  0  0
   39.4650   23.9330   35.9440 N   0  0  0  0  0  0  0  0  0  0  0  0
   39.7610   22.4220   38.9590 H   0  0  0  0  0  0  0  0  0  0  0  0
   37.6230   23.7240   39.2430 H   0  0  0  0  0  0  0  0  0  0  0  0
   36.7260   25.1140   37.4220 H   0  0  0  0  0  0  0  0  0  0  0  0
   42.6060   20.6400   37.0820 C   0  0  0  0  0  0  0  0  0  0  0  0
   43.5620   21.1390   36.1660 C   0  0  0  0  0  0  0  0  0  0  0  0
   43.2640   22.3360   35.5260 C   0  0  0  0  0  0  0  0  0  0  0  0
   42.0850   22.9480   35.8170 N   0  0  0  0  0  0  0  0  0  0  0  0
   41.2020   22.4510   36.6890 C   0  0  0  0  0  0  0  0  0  0  0  0
   41.4740   21.2960   37.3140 N   0  0  0  0  0  0  0  0  0  0  0  0
   44.4630   20.5870   36.0000 H   0  0  0  0  0  0  0  0  0  0  0  0
   43.9600   22.7560   34.8200 H   0  0  0  0  0  0  0  0  0  0  0  0
   42.8100   19.4160   37.7960 N   0  0  0  0  0  0  0  0  0  0  0  0
   42.4480   18.5570   37.3260 H   0  0  0  0  0  0  0  0  0  0  0  0
   43.3040   19.7090   38.6710 H   0  0  0  0  0  0  0  0  0  0  0  0
   38.7760   25.6080   33.8670 C   0  0  1  0  0  3  0  0  0  0  0  0
   37.8350   25.4270   35.0050 C   0  0  2  0  0  3  0  0  0  0  0  0
   37.4850   26.7290   35.3020 O   0  0  0  0  0  0  0  0  0  0  0  0
   37.0390   27.1890   34.0630 C   0  0  0  0  0  2  0  0  0  0  0  0
   37.9310   26.5600   33.0060 C   0  0  1  0  0  3  0  0  0  0  0  0
   39.9330   26.3010   34.1430 O   0  0  0  0  0  0  0  0  0  0  0  0
   40.6940   25.9750   33.5660 H   0  0  0  0  0  0  0  0  0  0  0  0
   38.6850   27.5150   32.3700 O   0  0  0  0  0  0  0  0  0  0  0  0
   39.5750   27.6460   32.8090 H   0  0  0  0  0  0  0  0  0  0  0  0
  1  2  1  0  0  0  0
  2  3  2  0  0  0  0
  2  7  1  0  0  0  0
  3  8  1  0  0  0  0
  4  9  1  0  0  0  0
  4  3  1  0  0  0  0
  5  4  2  0  0  0  0
  6  5  1  0  0  0  0
  6  1  2  0  0  0  0
 10 15  1  0  0  0  0
 10 18  1  0  0  0  0
 11 10  2  0  0  0  0
 12 13  2  0  0  0  0
 12 11  1  0  0  0  0
 13 14  1  0  0  0  0
 14  1  1  0  0  0  0
 14 15  2  0  0  0  0
 16 11  1  0  0  0  0
 17 12  1  0  0  0  0
 18 20  1  0  0  0  0
 19 18  1  0  0  0  0
 21 26  1  1  0  0  0
 21 22  1  0  0  0  0
 22 23  1  0  0  0  0
 22  5  1  1  0  0  0
 24 23  1  0  0  0  0
 25 28  1  1  0  0  0
 25 21  1  0  0  0  0
 25 24  1  0  0  0  0
 27 26  1  0  0  0  0
 28 29  1  0  0  0  0
M  END
>  <minimizedAffinity>
-5.35589933

$$$$

 OpenBabel03262523143D

 29 31  0  0  1  0  0  0  0  0999 V2000
   35.2420   30.3950   33.4120 C   0  0  0  0  0  0  0  0  0  0  0  0
   35.3960   31.4100   32.4990 C   0  0  0  0  0  0  0  0  0  0  0  0
   36.1690   31.0710   31.4070 C   0  0  0  0  0  0  0  0  0  0  0  0
   36.7450   29.8390   31.2260 C   0  0  0  0  0  0  0  0  0  0  0  0
   36.5340   28.8830   32.1990 C   0  0  0  0  0  0  0  0  0  0  0  0
   35.7860   29.1670   33.2830 N   0  0  0  0  0  0  0  0  0  0  0  0
   34.9440   32.3820   32.6380 H   0  0  0  0  0  0  0  0  0  0  0  0
   36.3500   31.8040   30.6290 H   0  0  0  0  0  0  0  0  0  0  0  0
   37.3500   29.5720   30.3720 H   0  0  0  0  0  0  0  0  0  0  0  0
   34.1620   31.6630   36.6890 C   0  0  0  0  0  0  0  0  0  0  0  0
   32.8940   31.0580   36.8570 C   0  0  0  0  0  0  0  0  0  0  0  0
   32.4450   30.2290   35.8360 C   0  0  0  0  0  0  0  0  0  0  0  0
   33.2430   30.0510   34.7500 N   0  0  0  0  0  0  0  0  0  0  0  0
   34.4380   30.6370   34.6200 C   0  0  0  0  0  0  0  0  0  0  0  0
   34.8850   31.4410   35.5960 N   0  0  0  0  0  0  0  0  0  0  0  0
   32.3360   31.2570   37.7470 H   0  0  0  0  0  0  0  0  0  0  0  0
   31.4860   29.7460   35.9190 H   0  0  0  0  0  0  0  0  0  0  0  0
   34.7220   32.5340   37.6770 N   0  0  0  0  0  0  0  0  0  0  0  0
   34.4940   33.5470   37.5610 H   0  0  0  0  0  0  0  0  0  0  0  0
   35.2550   31.8950   38.3090 H   0  0  0  0  0  0  0  0  0  0  0  0
   37.1080   26.9270   30.7460 C   0  0  1  0  0  3  0  0  0  0  0  0
   37.1030   27.5420   32.1010 C   0  0  2  0  0  3  0  0  0  0  0  0
   36.4940   26.5650   32.8610 O   0  0  0  0  0  0  0  0  0  0  0  0
   37.2870   25.4520   32.5760 C   0  0  0  0  0  2  0  0  0  0  0  0
   37.6770   25.5470   31.1120 C   0  0  1  0  0  3  0  0  0  0  0  0
   35.8730   26.6730   30.1930 O   0  0  0  0  0  0  0  0  0  0  0  0
   35.9070   26.7520   29.1870 H   0  0  0  0  0  0  0  0  0  0  0  0
   37.1110   24.5280   30.3870 O   0  0  0  0  0  0  0  0  0  0  0  0
   36.2260   24.7880   29.9990 H   0  0  0  0  0  0  0  0  0  0  0  0
  1 14  1  0  0  0  0
  2  7  1  0  0  0  0
  2  1  2  0  0  0  0
  3  2  1  0  0  0  0
  4  3  2  0  0  0  0
  4  5  1  0  0  0  0
  5  6  2  0  0  0  0
  6  1  1  0  0  0  0
  8  3  1  0  0  0  0
  9  4  1  0  0  0  0
 10 11  1  0  0  0  0
 10 18  1  0  0  0  0
 11 16  1  0  0  0  0
 12 17  1  0  0  0  0
 12 11  2  0  0  0  0
 13 12  1  0  0  0  0
 14 13  2  0  0  0  0
 14 15  1  0  0  0  0
 15 10  2  0  0  0  0
 18 20  1  0  0  0  0
 19 18  1  0  0  0  0
 21 26  1  1  0  0  0
 21 25  1  0  0  0  0
 21 22  1  0  0  0  0
 22  5  1  6  0  0  0
 22 23  1  0  0  0  0
 24 23  1  0  0  0  0
 25 28  1  6  0  0  0
 25 24  1  0  0  0  0
 27 26  1  0  0  0  0
 29 28  1  0  0  0  0
M  END
>  <minimizedAffinity>
-5.35545111

$$$$
