
 OpenBabel03272507583D

 32 34  0  0  1  0  0  0  0  0999 V2000
   36.8680   31.2150   48.4580 C   0  0  0  0  0  0  0  0  0  0  0  0
   37.1660   32.0730   49.5260 C   0  0  0  0  0  0  0  0  0  0  0  0
   38.0770   33.0970   49.3430 C   0  0  0  0  0  0  0  0  0  0  0  0
   38.6860   33.2670   48.1100 C   0  0  0  0  0  0  0  0  0  0  0  0
   38.3680   32.4050   47.0870 C   0  0  0  0  0  0  0  0  0  0  0  0
   37.4770   31.4100   47.2800 N   0  0  0  0  0  0  0  0  0  0  0  0
   36.7660   32.0560   50.5390 H   0  0  0  0  0  0  0  0  0  0  0  0
   38.3610   33.8010   50.1140 H   0  0  0  0  0  0  0  0  0  0  0  0
   39.3950   34.0410   47.9160 H   0  0  0  0  0  0  0  0  0  0  0  0
   35.1830   28.3480   50.2110 C   0  0  0  0  0  0  0  0  0  0  0  0
   36.1610   29.3300   49.8780 C   0  0  0  0  0  0  0  0  0  0  0  0
   35.8980   30.2020   48.8250 C   0  0  0  0  0  0  0  0  0  0  0  0
   34.7010   30.0600   48.1640 N   0  0  0  0  0  0  0  0  0  0  0  0
   33.8020   29.1080   48.5170 C   0  0  0  0  0  0  0  0  0  0  0  0
   34.0320   28.2600   49.5250 N   0  0  0  0  0  0  0  0  0  0  0  0
   32.6500   29.1670   47.6840 N   0  0  0  0  0  0  0  0  0  0  0  0
   35.3730   27.6590   51.0310 H   0  0  0  0  0  0  0  0  0  0  0  0
   32.7630   29.0700   46.6450 H   0  0  0  0  0  0  0  0  0  0  0  0
   31.6840   29.3080   48.1080 H   0  0  0  0  0  0  0  0  0  0  0  0
   37.4170   29.3860   50.6670 C   0  0  0  0  0  0  0  0  0  0  0  0
   38.4880   29.8070   49.8930 F   0  0  0  0  0  0  0  0  0  0  0  0
   37.2510   30.2660   51.6990 F   0  0  0  0  0  0  0  0  0  0  0  0
   37.7670   28.1590   51.2120 F   0  0  0  0  0  0  0  0  0  0  0  0
   39.5490   31.2670   45.2190 C   0  0  1  0  0  3  0  0  0  0  0  0
   38.9990   32.5520   45.7490 C   0  0  2  0  0  3  0  0  0  0  0  0
   40.1220   33.4090   45.7970 O   0  0  0  0  0  0  0  0  0  0  0  0
   40.5680   33.2710   44.4810 C   0  0  0  0  0  2  0  0  0  0  0  0
   40.6910   31.7790   44.3430 C   0  0  2  0  0  3  0  0  0  0  0  0
   40.1170   30.4740   46.2160 O   0  0  0  0  0  0  0  0  0  0  0  0
   40.6130   29.7460   45.7230 H   0  0  0  0  0  0  0  0  0  0  0  0
   40.4710   31.3620   43.0200 O   0  0  0  0  0  0  0  0  0  0  0  0
   41.2030   31.7020   42.4590 H   0  0  0  0  0  0  0  0  0  0  0  0
  1 12  1  0  0  0  0
  1  2  1  0  0  0  0
  2  7  1  0  0  0  0
  3  2  2  0  0  0  0
  3  8  1  0  0  0  0
  4  3  1  0  0  0  0
  5  6  1  0  0  0  0
  5  4  2  0  0  0  0
  6  1  2  0  0  0  0
  9  4  1  0  0  0  0
 10 17  1  0  0  0  0
 11 10  1  0  0  0  0
 11 20  1  0  0  0  0
 12 11  2  0  0  0  0
 13 14  2  0  0  0  0
 13 12  1  0  0  0  0
 14 15  1  0  0  0  0
 15 10  2  0  0  0  0
 16 19  1  0  0  0  0
 16 14  1  0  0  0  0
 18 16  1  0  0  0  0
 20 23  1  0  0  0  0
 20 22  1  0  0  0  0
 21 20  1  0  0  0  0
 24 25  1  0  0  0  0
 24 29  1  1  0  0  0
 25 26  1  0  0  0  0
 25  5  1  1  0  0  0
 27 26  1  0  0  0  0
 28 31  1  6  0  0  0
 28 27  1  0  0  0  0
 28 24  1  0  0  0  0
 30 29  1  0  0  0  0
 32 31  1  0  0  0  0
M  END
>  <minimizedAffinity>
-7.30736065

>  <minimizedRMSD>
1.21299839

$$$$
