
 OpenBabel03272508503D

 40 44  0  0  1  0  0  0  0  0999 V2000
   36.9100   27.2600   32.1510 C   0  0  0  0  0  0  0  0  0  0  0  0
   37.0230   28.3230   31.2750 C   0  0  0  0  0  0  0  0  0  0  0  0
   36.3570   29.3640   31.9240 C   0  0  0  0  0  0  0  0  0  0  0  0
   35.8860   28.8960   33.1260 C   0  0  0  0  0  0  0  0  0  0  0  0
   36.2350   27.6290   33.2310 O   0  0  0  0  0  0  0  0  0  0  0  0
   37.5030   28.3890   30.3040 H   0  0  0  0  0  0  0  0  0  0  0  0
   36.2150   30.3940   31.5630 H   0  0  0  0  0  0  0  0  0  0  0  0
   33.7720   29.4130   34.2600 C   0  0  0  0  0  0  0  0  0  0  0  0
   35.1300   29.6470   34.1260 C   0  0  0  0  0  0  0  0  0  0  0  0
   35.7990   30.5780   34.9140 C   0  0  0  0  0  0  0  0  0  0  0  0
   35.1020   31.2990   35.8670 C   0  0  0  0  0  0  0  0  0  0  0  0
   35.4450   32.2510   36.7690 N   0  0  0  0  0  0  0  0  0  0  0  0
   34.3440   32.5830   37.4260 N   0  0  0  0  0  0  0  0  0  0  0  0
   33.2950   31.8620   36.9640 C   0  0  0  0  0  0  0  0  0  0  0  0
   33.7540   31.0310   35.9630 C   0  0  0  0  0  0  0  0  0  0  0  0
   33.0440   30.1310   35.2180 C   0  0  0  0  0  0  0  0  0  0  0  0
   33.2360   28.6890   33.6510 H   0  0  0  0  0  0  0  0  0  0  0  0
   36.8730   30.7360   34.7800 H   0  0  0  0  0  0  0  0  0  0  0  0
   36.4270   32.5970   36.8580 H   0  0  0  0  0  0  0  0  0  0  0  0
   32.2750   31.9520   37.3430 H   0  0  0  0  0  0  0  0  0  0  0  0
   31.9770   29.9800   35.3590 H   0  0  0  0  0  0  0  0  0  0  0  0
   37.4590   25.9410   31.9000 C   0  0  0  0  0  0  0  0  0  0  0  0
   37.1250   25.3410   30.8650 O   0  0  0  0  0  0  0  0  0  0  0  0
   40.6010   25.1070   33.5610 C   0  0  0  0  0  0  0  0  0  0  0  0
   40.2060   24.3230   34.6240 C   0  0  0  0  0  0  0  0  0  0  0  0
   38.8690   24.0650   34.7940 C   0  0  0  0  0  0  0  0  0  0  0  0
   37.9870   24.5810   33.9230 N   0  0  0  0  0  0  0  0  0  0  0  0
   38.3860   25.3600   32.8690 C   0  0  0  0  0  0  0  0  0  0  0  0
   39.7060   25.6140   32.7020 N   0  0  0  0  0  0  0  0  0  0  0  0
   41.6580   25.3120   33.4260 H   0  0  0  0  0  0  0  0  0  0  0  0
   40.9390   23.9310   35.2940 H   0  0  0  0  0  0  0  0  0  0  0  0
   37.9840   24.0070   37.1330 C   0  0  1  0  0  3  0  0  0  0  0  0
   38.3630   23.2240   35.9210 C   0  0  2  0  0  3  0  0  0  0  0  0
   39.2550   22.2370   36.3070 O   0  0  0  0  0  0  0  0  0  0  0  0
   39.9400   22.6960   37.4200 C   0  0  0  0  0  2  0  0  0  0  0  0
   38.8780   23.4510   38.1980 C   0  0  2  0  0  3  0  0  0  0  0  0
   38.0850   25.3870   36.9840 O   0  0  0  0  0  0  0  0  0  0  0  0
   37.1720   25.7930   36.8360 H   0  0  0  0  0  0  0  0  0  0  0  0
   38.2090   22.5200   39.0010 O   0  0  0  0  0  0  0  0  0  0  0  0
   37.5000   22.0390   38.5020 H   0  0  0  0  0  0  0  0  0  0  0  0
  1  5  1  0  0  0  0
  2  3  1  0  0  0  0
  2  1  2  0  0  0  0
  3  4  2  0  0  0  0
  4  5  1  0  0  0  0
  4  9  1  0  0  0  0
  6  2  1  0  0  0  0
  7  3  1  0  0  0  0
  8 16  1  0  0  0  0
  9  8  2  0  0  0  0
  9 10  1  0  0  0  0
 10 11  2  0  0  0  0
 11 15  1  0  0  0  0
 11 12  1  0  0  0  0
 12 19  1  0  0  0  0
 12 13  1  0  0  0  0
 14 20  1  0  0  0  0
 14 13  2  0  0  0  0
 15 14  1  0  0  0  0
 16 21  1  0  0  0  0
 16 15  2  0  0  0  0
 17  8  1  0  0  0  0
 18 10  1  0  0  0  0
 22  1  1  0  0  0  0
 22 28  1  0  0  0  0
 23 22  2  0  0  0  0
 24 25  1  0  0  0  0
 25 26  2  0  0  0  0
 25 31  1  0  0  0  0
 27 26  1  0  0  0  0
 28 27  2  0  0  0  0
 29 28  1  0  0  0  0
 29 24  2  0  0  0  0
 30 24  1  0  0  0  0
 32 37  1  6  0  0  0
 32 36  1  0  0  0  0
 33 26  1  6  0  0  0
 33 34  1  0  0  0  0
 33 32  1  0  0  0  0
 34 35  1  0  0  0  0
 35 36  1  0  0  0  0
 36 39  1  1  0  0  0
 38 37  1  0  0  0  0
 40 39  1  0  0  0  0
M  END
>  <minimizedAffinity>
-7.09376955

$$$$

 OpenBabel03272508503D

 40 44  0  0  1  0  0  0  0  0999 V2000
   36.7010   27.5360   33.0110 C   0  0  0  0  0  0  0  0  0  0  0  0
   36.6790   28.4270   31.9550 C   0  0  0  0  0  0  0  0  0  0  0  0
   36.0820   29.5680   32.4930 C   0  0  0  0  0  0  0  0  0  0  0  0
   35.7810   29.3210   33.8100 C   0  0  0  0  0  0  0  0  0  0  0  0
   36.1660   28.0920   34.0890 O   0  0  0  0  0  0  0  0  0  0  0  0
   37.0270   28.3190   30.9330 H   0  0  0  0  0  0  0  0  0  0  0  0
   35.8740   30.5190   31.9790 H   0  0  0  0  0  0  0  0  0  0  0  0
   35.9440   31.0520   35.5410 C   0  0  0  0  0  0  0  0  0  0  0  0
   35.1470   30.2400   34.7530 C   0  0  0  0  0  0  0  0  0  0  0  0
   33.7580   30.2700   34.8320 C   0  0  0  0  0  0  0  0  0  0  0  0
   33.1380   31.1330   35.7190 C   0  0  0  0  0  0  0  0  0  0  0  0
   31.8460   31.3990   36.0300 N   0  0  0  0  0  0  0  0  0  0  0  0
   31.8540   32.3340   36.9680 N   0  0  0  0  0  0  0  0  0  0  0  0
   33.1300   32.6770   37.2680 C   0  0  0  0  0  0  0  0  0  0  0  0
   33.9740   31.9210   36.4810 C   0  0  0  0  0  0  0  0  0  0  0  0
   35.3400   31.9340   36.4470 C   0  0  0  0  0  0  0  0  0  0  0  0
   37.0300   31.0400   35.4910 H   0  0  0  0  0  0  0  0  0  0  0  0
   33.1610   29.6130   34.1930 H   0  0  0  0  0  0  0  0  0  0  0  0
   31.0540   30.9050   35.5620 H   0  0  0  0  0  0  0  0  0  0  0  0
   33.4040   33.4270   38.0110 H   0  0  0  0  0  0  0  0  0  0  0  0
   35.9250   32.5910   37.0850 H   0  0  0  0  0  0  0  0  0  0  0  0
   37.2400   26.1910   32.9260 C   0  0  0  0  0  0  0  0  0  0  0  0
   36.6030   25.3310   32.2940 O   0  0  0  0  0  0  0  0  0  0  0  0
   40.6210   26.6550   34.2190 C   0  0  0  0  0  0  0  0  0  0  0  0
   40.9210   25.4340   34.7870 C   0  0  0  0  0  0  0  0  0  0  0  0
   39.9810   24.4360   34.7390 C   0  0  0  0  0  0  0  0  0  0  0  0
   38.8010   24.6740   34.1440 N   0  0  0  0  0  0  0  0  0  0  0  0
   38.5100   25.8900   33.5820 C   0  0  0  0  0  0  0  0  0  0  0  0
   39.4390   26.8750   33.6300 N   0  0  0  0  0  0  0  0  0  0  0  0
   41.3640   27.4450   34.2560 H   0  0  0  0  0  0  0  0  0  0  0  0
   41.8700   25.2840   35.2510 H   0  0  0  0  0  0  0  0  0  0  0  0
   39.5650   22.8750   36.6500 C   0  0  1  0  0  3  0  0  0  0  0  0
   40.2300   23.0860   35.3300 C   0  0  2  0  0  3  0  0  0  0  0  0
   41.5770   22.7960   35.4760 O   0  0  0  0  0  0  0  0  0  0  0  0
   41.9260   23.0510   36.7920 C   0  0  0  0  0  2  0  0  0  0  0  0
   40.7100   22.5910   37.5730 C   0  0  2  0  0  3  0  0  0  0  0  0
   38.7610   23.9310   37.0660 O   0  0  0  0  0  0  0  0  0  0  0  0
   37.7870   23.7160   36.9080 H   0  0  0  0  0  0  0  0  0  0  0  0
   40.8580   21.2190   37.8060 O   0  0  0  0  0  0  0  0  0  0  0  0
   40.5640   20.6760   37.0310 H   0  0  0  0  0  0  0  0  0  0  0  0
  1  5  1  0  0  0  0
  2  3  1  0  0  0  0
  2  1  2  0  0  0  0
  3  4  2  0  0  0  0
  4  5  1  0  0  0  0
  4  9  1  0  0  0  0
  6  2  1  0  0  0  0
  7  3  1  0  0  0  0
  8 16  1  0  0  0  0
  9 10  1  0  0  0  0
  9  8  2  0  0  0  0
 10 11  2  0  0  0  0
 11 12  1  0  0  0  0
 11 15  1  0  0  0  0
 12 13  1  0  0  0  0
 13 14  2  0  0  0  0
 14 20  1  0  0  0  0
 15 14  1  0  0  0  0
 16 15  2  0  0  0  0
 16 21  1  0  0  0  0
 17  8  1  0  0  0  0
 18 10  1  0  0  0  0
 19 12  1  0  0  0  0
 22  1  1  0  0  0  0
 22 28  1  0  0  0  0
 23 22  2  0  0  0  0
 24 30  1  0  0  0  0
 24 25  1  0  0  0  0
 25 31  1  0  0  0  0
 26 25  2  0  0  0  0
 27 26  1  0  0  0  0
 28 29  1  0  0  0  0
 28 27  2  0  0  0  0
 29 24  2  0  0  0  0
 32 37  1  1  0  0  0
 32 36  1  0  0  0  0
 33 26  1  1  0  0  0
 33 34  1  0  0  0  0
 33 32  1  0  0  0  0
 34 35  1  0  0  0  0
 35 36  1  0  0  0  0
 36 39  1  6  0  0  0
 38 37  1  0  0  0  0
 40 39  1  0  0  0  0
M  END
>  <minimizedAffinity>
-6.99573946

$$$$

 OpenBabel03272508503D

 40 44  0  0  1  0  0  0  0  0999 V2000
   37.3880   27.5560   32.7950 C   0  0  0  0  0  0  0  0  0  0  0  0
   36.8590   28.1240   31.6520 C   0  0  0  0  0  0  0  0  0  0  0  0
   35.9040   29.0200   32.1340 C   0  0  0  0  0  0  0  0  0  0  0  0
   35.9000   28.9540   33.5060 C   0  0  0  0  0  0  0  0  0  0  0  0
   36.8030   28.0660   33.8700 O   0  0  0  0  0  0  0  0  0  0  0  0
   37.0920   27.9520   30.6060 H   0  0  0  0  0  0  0  0  0  0  0  0
   35.2490   29.6800   31.5450 H   0  0  0  0  0  0  0  0  0  0  0  0
   33.6870   29.5050   34.4130 C   0  0  0  0  0  0  0  0  0  0  0  0
   35.0550   29.7210   34.4200 C   0  0  0  0  0  0  0  0  0  0  0  0
   35.6520   30.6460   35.2700 C   0  0  0  0  0  0  0  0  0  0  0  0
   34.8700   31.3820   36.1420 C   0  0  0  0  0  0  0  0  0  0  0  0
   35.1310   32.3330   37.0720 N   0  0  0  0  0  0  0  0  0  0  0  0
   33.9720   32.6840   37.6100 N   0  0  0  0  0  0  0  0  0  0  0  0
   32.9670   31.9750   37.0440 C   0  0  0  0  0  0  0  0  0  0  0  0
   33.5150   31.1320   36.0990 C   0  0  0  0  0  0  0  0  0  0  0  0
   32.8740   30.2380   35.2880 C   0  0  0  0  0  0  0  0  0  0  0  0
   33.2070   28.7860   33.7550 H   0  0  0  0  0  0  0  0  0  0  0  0
   36.7360   30.7890   35.2470 H   0  0  0  0  0  0  0  0  0  0  0  0
   36.1030   32.6670   37.2610 H   0  0  0  0  0  0  0  0  0  0  0  0
   31.9150   32.0800   37.3150 H   0  0  0  0  0  0  0  0  0  0  0  0
   31.7960   30.1030   35.3180 H   0  0  0  0  0  0  0  0  0  0  0  0
   38.4340   26.5500   32.7920 C   0  0  0  0  0  0  0  0  0  0  0  0
   39.6110   26.9120   32.6320 O   0  0  0  0  0  0  0  0  0  0  0  0
   36.8750   23.3060   32.1820 C   0  0  0  0  0  0  0  0  0  0  0  0
   37.3290   22.5280   33.2270 C   0  0  0  0  0  0  0  0  0  0  0  0
   38.1710   23.0910   34.1530 C   0  0  0  0  0  0  0  0  0  0  0  0
   38.5260   24.3790   34.0170 N   0  0  0  0  0  0  0  0  0  0  0  0
   38.0710   25.1460   32.9770 C   0  0  0  0  0  0  0  0  0  0  0  0
   37.2410   24.5890   32.0630 N   0  0  0  0  0  0  0  0  0  0  0  0
   36.2100   22.8610   31.4500 H   0  0  0  0  0  0  0  0  0  0  0  0
   37.0240   21.5080   33.3000 H   0  0  0  0  0  0  0  0  0  0  0  0
   38.3270   22.8810   36.6410 C   0  0  1  0  0  3  0  0  0  0  0  0
   38.7050   22.3150   35.3130 C   0  0  2  0  0  3  0  0  0  0  0  0
   40.0820   22.1700   35.2830 O   0  0  0  0  0  0  0  0  0  0  0  0
   40.6290   23.1270   36.1210 C   0  0  0  0  0  2  0  0  0  0  0  0
   39.6500   23.1790   37.2780 C   0  0  2  0  0  3  0  0  0  0  0  0
   37.4780   23.9810   36.5790 O   0  0  0  0  0  0  0  0  0  0  0  0
   36.5290   23.7050   36.7920 H   0  0  0  0  0  0  0  0  0  0  0  0
   40.0230   22.1810   38.1850 O   0  0  0  0  0  0  0  0  0  0  0  0
   39.6690   21.2910   37.9270 H   0  0  0  0  0  0  0  0  0  0  0  0
  1  5  1  0  0  0  0
  2  3  1  0  0  0  0
  2  1  2  0  0  0  0
  3  4  2  0  0  0  0
  4  5  1  0  0  0  0
  4  9  1  0  0  0  0
  6  2  1  0  0  0  0
  7  3  1  0  0  0  0
  8  9  2  0  0  0  0
  8 16  1  0  0  0  0
  9 10  1  0  0  0  0
 10 11  2  0  0  0  0
 11 12  1  0  0  0  0
 12 19  1  0  0  0  0
 12 13  1  0  0  0  0
 14 20  1  0  0  0  0
 14 13  2  0  0  0  0
 15 11  1  0  0  0  0
 15 14  1  0  0  0  0
 16 21  1  0  0  0  0
 16 15  2  0  0  0  0
 17  8  1  0  0  0  0
 18 10  1  0  0  0  0
 22  1  1  0  0  0  0
 22 28  1  0  0  0  0
 23 22  2  0  0  0  0
 24 25  1  0  0  0  0
 25 31  1  0  0  0  0
 25 26  2  0  0  0  0
 27 26  1  0  0  0  0
 28 27  2  0  0  0  0
 29 24  2  0  0  0  0
 29 28  1  0  0  0  0
 30 24  1  0  0  0  0
 32 37  1  6  0  0  0
 32 36  1  0  0  0  0
 33 26  1  6  0  0  0
 33 32  1  0  0  0  0
 34 33  1  0  0  0  0
 34 35  1  0  0  0  0
 35 36  1  0  0  0  0
 36 39  1  1  0  0  0
 37 38  1  0  0  0  0
 40 39  1  0  0  0  0
M  END
>  <minimizedAffinity>
-6.98531294

$$$$

 OpenBabel03272508503D

 40 44  0  0  1  0  0  0  0  0999 V2000
   37.1730   26.9230   33.6500 C   0  0  0  0  0  0  0  0  0  0  0  0
   37.1420   27.5220   32.4060 C   0  0  0  0  0  0  0  0  0  0  0  0
   36.3630   28.6630   32.6040 C   0  0  0  0  0  0  0  0  0  0  0  0
   35.9710   28.6990   33.9200 C   0  0  0  0  0  0  0  0  0  0  0  0
   36.4750   27.6400   34.5200 O   0  0  0  0  0  0  0  0  0  0  0  0
   37.5950   27.2230   31.4670 H   0  0  0  0  0  0  0  0  0  0  0  0
   36.0890   29.4240   31.8570 H   0  0  0  0  0  0  0  0  0  0  0  0
   33.8270   29.8680   34.1620 C   0  0  0  0  0  0  0  0  0  0  0  0
   35.1440   29.7180   34.5630 C   0  0  0  0  0  0  0  0  0  0  0  0
   35.7050   30.5080   35.5600 C   0  0  0  0  0  0  0  0  0  0  0  0
   34.9380   31.4790   36.1810 C   0  0  0  0  0  0  0  0  0  0  0  0
   35.1760   32.3870   37.1590 N   0  0  0  0  0  0  0  0  0  0  0  0
   34.0520   33.0630   37.3470 N   0  0  0  0  0  0  0  0  0  0  0  0
   33.0920   32.6060   36.5070 C   0  0  0  0  0  0  0  0  0  0  0  0
   33.6350   31.5900   35.7480 C   0  0  0  0  0  0  0  0  0  0  0  0
   33.0300   30.8430   34.7760 C   0  0  0  0  0  0  0  0  0  0  0  0
   33.3750   29.2570   33.3840 H   0  0  0  0  0  0  0  0  0  0  0  0
   36.7490   30.3610   35.8500 H   0  0  0  0  0  0  0  0  0  0  0  0
   36.1080   32.4660   37.6220 H   0  0  0  0  0  0  0  0  0  0  0  0
   32.0750   33.0000   36.4670 H   0  0  0  0  0  0  0  0  0  0  0  0
   31.9920   30.9960   34.4940 H   0  0  0  0  0  0  0  0  0  0  0  0
   37.8780   25.6860   33.9370 C   0  0  0  0  0  0  0  0  0  0  0  0
   38.4550   25.5670   35.0310 O   0  0  0  0  0  0  0  0  0  0  0  0
   39.0640   23.5310   31.2410 C   0  0  0  0  0  0  0  0  0  0  0  0
   38.0090   22.6670   31.0300 C   0  0  0  0  0  0  0  0  0  0  0  0
   36.8810   22.8030   31.7990 C   0  0  0  0  0  0  0  0  0  0  0  0
   36.8350   23.7690   32.7310 N   0  0  0  0  0  0  0  0  0  0  0  0
   37.8860   24.6230   32.9350 C   0  0  0  0  0  0  0  0  0  0  0  0
   39.0000   24.4890   32.1750 N   0  0  0  0  0  0  0  0  0  0  0  0
   39.9560   23.4240   30.6330 H   0  0  0  0  0  0  0  0  0  0  0  0
   38.0840   21.9120   30.2790 H   0  0  0  0  0  0  0  0  0  0  0  0
   35.4550   21.0050   32.7960 C   0  0  1  0  0  3  0  0  0  0  0  0
   35.6970   21.9060   31.6310 C   0  0  2  0  0  3  0  0  0  0  0  0
   35.7630   21.1260   30.4890 O   0  0  0  0  0  0  0  0  0  0  0  0
   36.2200   19.8710   30.8570 C   0  0  0  0  0  2  0  0  0  0  0  0
   35.5510   19.6350   32.1980 C   0  0  2  0  0  3  0  0  0  0  0  0
   36.3150   21.2060   33.8700 O   0  0  0  0  0  0  0  0  0  0  0  0
   35.8520   21.7330   34.5980 H   0  0  0  0  0  0  0  0  0  0  0  0
   34.2870   19.0920   31.9430 O   0  0  0  0  0  0  0  0  0  0  0  0
   33.6160   19.7920   31.7330 H   0  0  0  0  0  0  0  0  0  0  0  0
  1 22  1  0  0  0  0
  1  5  1  0  0  0  0
  2  3  1  0  0  0  0
  2  1  2  0  0  0  0
  3  4  2  0  0  0  0
  4  5  1  0  0  0  0
  4  9  1  0  0  0  0
  6  2  1  0  0  0  0
  7  3  1  0  0  0  0
  8  9  2  0  0  0  0
  8 16  1  0  0  0  0
  9 10  1  0  0  0  0
 10 18  1  0  0  0  0
 10 11  2  0  0  0  0
 11 12  1  0  0  0  0
 12 13  1  0  0  0  0
 12 19  1  0  0  0  0
 14 13  2  0  0  0  0
 15 11  1  0  0  0  0
 15 14  1  0  0  0  0
 16 15  2  0  0  0  0
 17  8  1  0  0  0  0
 20 14  1  0  0  0  0
 21 16  1  0  0  0  0
 22 23  2  0  0  0  0
 24 29  1  0  0  0  0
 25 24  2  0  0  0  0
 25 26  1  0  0  0  0
 26 27  2  0  0  0  0
 27 28  1  0  0  0  0
 28 22  1  0  0  0  0
 29 28  2  0  0  0  0
 30 24  1  0  0  0  0
 31 25  1  0  0  0  0
 32 37  1  1  0  0  0
 33 26  1  1  0  0  0
 33 32  1  0  0  0  0
 34 35  1  0  0  0  0
 34 33  1  0  0  0  0
 35 36  1  0  0  0  0
 36 39  1  6  0  0  0
 36 32  1  0  0  0  0
 37 38  1  0  0  0  0
 40 39  1  0  0  0  0
M  END
>  <minimizedAffinity>
-6.41892815

$$$$

 OpenBabel03272508503D

 40 44  0  0  1  0  0  0  0  0999 V2000
   37.5060   27.6000   32.5950 C   0  0  0  0  0  0  0  0  0  0  0  0
   37.4770   28.4120   31.4770 C   0  0  0  0  0  0  0  0  0  0  0  0
   36.3270   29.1830   31.6540 C   0  0  0  0  0  0  0  0  0  0  0  0
   35.7320   28.8120   32.8350 C   0  0  0  0  0  0  0  0  0  0  0  0
   36.4660   27.8600   33.3750 O   0  0  0  0  0  0  0  0  0  0  0  0
   38.1570   28.4770   30.6350 H   0  0  0  0  0  0  0  0  0  0  0  0
   35.9350   29.9620   30.9830 H   0  0  0  0  0  0  0  0  0  0  0  0
   34.5660   30.0010   34.6370 C   0  0  0  0  0  0  0  0  0  0  0  0
   34.5060   29.3600   33.4110 C   0  0  0  0  0  0  0  0  0  0  0  0
   33.3130   29.2200   32.7100 C   0  0  0  0  0  0  0  0  0  0  0  0
   32.1410   29.7310   33.2380 C   0  0  0  0  0  0  0  0  0  0  0  0
   30.8510   29.7610   32.8210 N   0  0  0  0  0  0  0  0  0  0  0  0
   30.1530   30.3950   33.7530 N   0  0  0  0  0  0  0  0  0  0  0  0
   30.9700   30.7740   34.7640 C   0  0  0  0  0  0  0  0  0  0  0  0
   32.2510   30.3600   34.4590 C   0  0  0  0  0  0  0  0  0  0  0  0
   33.3920   30.5280   35.1930 C   0  0  0  0  0  0  0  0  0  0  0  0
   35.4900   30.1190   35.1960 H   0  0  0  0  0  0  0  0  0  0  0  0
   33.3050   28.7060   31.7440 H   0  0  0  0  0  0  0  0  0  0  0  0
   30.5550   29.3360   31.9140 H   0  0  0  0  0  0  0  0  0  0  0  0
   30.6360   31.3130   35.6520 H   0  0  0  0  0  0  0  0  0  0  0  0
   33.3910   31.0400   36.1510 H   0  0  0  0  0  0  0  0  0  0  0  0
   38.5390   26.6140   32.8540 C   0  0  0  0  0  0  0  0  0  0  0  0
   39.7190   26.9930   32.9440 O   0  0  0  0  0  0  0  0  0  0  0  0
   36.9260   23.4110   32.1710 C   0  0  0  0  0  0  0  0  0  0  0  0
   37.3900   22.5940   33.1810 C   0  0  0  0  0  0  0  0  0  0  0  0
   38.2570   23.1170   34.1080 C   0  0  0  0  0  0  0  0  0  0  0  0
   38.6270   24.4040   34.0060 N   0  0  0  0  0  0  0  0  0  0  0  0
   38.1620   25.2100   33.0010 C   0  0  0  0  0  0  0  0  0  0  0  0
   37.3060   24.6930   32.0860 N   0  0  0  0  0  0  0  0  0  0  0  0
   36.2410   22.9990   31.4380 H   0  0  0  0  0  0  0  0  0  0  0  0
   37.0720   21.5760   33.2270 H   0  0  0  0  0  0  0  0  0  0  0  0
   38.4430   22.8130   36.5840 C   0  0  1  0  0  3  0  0  0  0  0  0
   38.8030   22.2960   35.2310 C   0  0  2  0  0  3  0  0  0  0  0  0
   40.1800   22.1490   35.1790 O   0  0  0  0  0  0  0  0  0  0  0  0
   40.7390   23.0740   36.0450 C   0  0  0  0  0  2  0  0  0  0  0  0
   39.7740   23.0840   37.2160 C   0  0  2  0  0  3  0  0  0  0  0  0
   37.5950   23.9160   36.5740 O   0  0  0  0  0  0  0  0  0  0  0  0
   36.6490   23.6340   36.7880 H   0  0  0  0  0  0  0  0  0  0  0  0
   40.1560   22.0520   38.0800 O   0  0  0  0  0  0  0  0  0  0  0  0
   39.7960   21.1740   37.7930 H   0  0  0  0  0  0  0  0  0  0  0  0
  1 22  1  0  0  0  0
  1  5  1  0  0  0  0
  2  3  1  0  0  0  0
  2  1  2  0  0  0  0
  3  4  2  0  0  0  0
  4  5  1  0  0  0  0
  4  9  1  0  0  0  0
  6  2  1  0  0  0  0
  7  3  1  0  0  0  0
  8 16  1  0  0  0  0
  8 17  1  0  0  0  0
  9  8  2  0  0  0  0
 10 11  2  0  0  0  0
 10  9  1  0  0  0  0
 11 15  1  0  0  0  0
 12 11  1  0  0  0  0
 12 13  1  0  0  0  0
 13 14  2  0  0  0  0
 14 20  1  0  0  0  0
 15 14  1  0  0  0  0
 15 16  2  0  0  0  0
 16 21  1  0  0  0  0
 18 10  1  0  0  0  0
 19 12  1  0  0  0  0
 22 23  2  0  0  0  0
 22 28  1  0  0  0  0
 24 25  1  0  0  0  0
 25 31  1  0  0  0  0
 25 26  2  0  0  0  0
 27 26  1  0  0  0  0
 28 27  2  0  0  0  0
 29 24  2  0  0  0  0
 29 28  1  0  0  0  0
 30 24  1  0  0  0  0
 32 37  1  6  0  0  0
 32 36  1  0  0  0  0
 33 26  1  6  0  0  0
 33 32  1  0  0  0  0
 34 33  1  0  0  0  0
 34 35  1  0  0  0  0
 35 36  1  0  0  0  0
 36 39  1  1  0  0  0
 37 38  1  0  0  0  0
 40 39  1  0  0  0  0
M  END
>  <minimizedAffinity>
-6.3797822

$$$$

 OpenBabel03272508503D

 40 44  0  0  1  0  0  0  0  0999 V2000
   37.2530   26.1400   33.4900 C   0  0  0  0  0  0  0  0  0  0  0  0
   37.1590   26.8780   34.6550 C   0  0  0  0  0  0  0  0  0  0  0  0
   38.1450   26.3310   35.4780 C   0  0  0  0  0  0  0  0  0  0  0  0
   38.7700   25.3180   34.7930 C   0  0  0  0  0  0  0  0  0  0  0  0
   38.2110   25.2300   33.6020 O   0  0  0  0  0  0  0  0  0  0  0  0
   36.4980   27.6960   34.9200 H   0  0  0  0  0  0  0  0  0  0  0  0
   38.4020   26.6330   36.5040 H   0  0  0  0  0  0  0  0  0  0  0  0
   41.1560   24.7510   34.8700 C   0  0  0  0  0  0  0  0  0  0  0  0
   39.8610   24.4740   35.2750 C   0  0  0  0  0  0  0  0  0  0  0  0
   39.5660   23.4160   36.1280 C   0  0  0  0  0  0  0  0  0  0  0  0
   40.5850   22.6050   36.5960 C   0  0  0  0  0  0  0  0  0  0  0  0
   40.6330   21.5260   37.4150 N   0  0  0  0  0  0  0  0  0  0  0  0
   41.9030   21.1600   37.5060 N   0  0  0  0  0  0  0  0  0  0  0  0
   42.6760   21.9840   36.7600 C   0  0  0  0  0  0  0  0  0  0  0  0
   41.8560   22.9210   36.1660 C   0  0  0  0  0  0  0  0  0  0  0  0
   42.2050   23.9450   35.3310 C   0  0  0  0  0  0  0  0  0  0  0  0
   41.4020   25.5740   34.2040 H   0  0  0  0  0  0  0  0  0  0  0  0
   38.5310   23.2280   36.4270 H   0  0  0  0  0  0  0  0  0  0  0  0
   39.7720   21.1260   37.8500 H   0  0  0  0  0  0  0  0  0  0  0  0
   43.7600   21.8920   36.6690 H   0  0  0  0  0  0  0  0  0  0  0  0
   43.2370   24.1240   35.0400 H   0  0  0  0  0  0  0  0  0  0  0  0
   36.4140   26.3530   32.3250 C   0  0  0  0  0  0  0  0  0  0  0  0
   35.9430   25.3630   31.7390 O   0  0  0  0  0  0  0  0  0  0  0  0
   36.7460   29.4720   30.4580 C   0  0  0  0  0  0  0  0  0  0  0  0
   35.7390   30.2630   30.9700 C   0  0  0  0  0  0  0  0  0  0  0  0
   34.9320   29.7510   31.9540 C   0  0  0  0  0  0  0  0  0  0  0  0
   35.1450   28.4990   32.3910 N   0  0  0  0  0  0  0  0  0  0  0  0
   36.1480   27.7180   31.8790 C   0  0  0  0  0  0  0  0  0  0  0  0
   36.9440   28.2250   30.9060 N   0  0  0  0  0  0  0  0  0  0  0  0
   37.3840   29.8760   29.6800 H   0  0  0  0  0  0  0  0  0  0  0  0
   35.6010   31.2530   30.5960 H   0  0  0  0  0  0  0  0  0  0  0  0
   33.9650   30.7620   34.0290 C   0  0  1  0  0  3  0  0  0  0  0  0
   33.8200   30.5450   32.5590 C   0  0  2  0  0  3  0  0  0  0  0  0
   32.5690   29.9960   32.3260 O   0  0  0  0  0  0  0  0  0  0  0  0
   32.2030   29.2800   33.4540 C   0  0  0  0  0  2  0  0  0  0  0  0
   32.7300   30.1310   34.5950 C   0  0  2  0  0  3  0  0  0  0  0  0
   35.1450   30.2640   34.5710 O   0  0  0  0  0  0  0  0  0  0  0  0
   35.8050   31.0130   34.7260 H   0  0  0  0  0  0  0  0  0  0  0  0
   31.7500   31.0850   34.8890 O   0  0  0  0  0  0  0  0  0  0  0  0
   31.7990   31.8690   34.2840 H   0  0  0  0  0  0  0  0  0  0  0  0
  1  5  1  0  0  0  0
  1  2  2  0  0  0  0
  2  6  1  0  0  0  0
  2  3  1  0  0  0  0
  3  7  1  0  0  0  0
  4  9  1  0  0  0  0
  4  3  2  0  0  0  0
  5  4  1  0  0  0  0
  8  9  2  0  0  0  0
  8 16  1  0  0  0  0
  9 10  1  0  0  0  0
 10 18  1  0  0  0  0
 10 11  2  0  0  0  0
 11 12  1  0  0  0  0
 12 13  1  0  0  0  0
 12 19  1  0  0  0  0
 14 13  2  0  0  0  0
 15 11  1  0  0  0  0
 15 14  1  0  0  0  0
 16 15  2  0  0  0  0
 17  8  1  0  0  0  0
 20 14  1  0  0  0  0
 21 16  1  0  0  0  0
 22  1  1  0  0  0  0
 23 22  2  0  0  0  0
 24 29  2  0  0  0  0
 24 25  1  0  0  0  0
 25 26  2  0  0  0  0
 26 27  1  0  0  0  0
 28 22  1  0  0  0  0
 28 27  2  0  0  0  0
 29 28  1  0  0  0  0
 30 24  1  0  0  0  0
 31 25  1  0  0  0  0
 32 37  1  1  0  0  0
 32 36  1  0  0  0  0
 33 26  1  1  0  0  0
 33 32  1  0  0  0  0
 34 33  1  0  0  0  0
 34 35  1  0  0  0  0
 35 36  1  0  0  0  0
 36 39  1  6  0  0  0
 37 38  1  0  0  0  0
 40 39  1  0  0  0  0
M  END
>  <minimizedAffinity>
-6.3516407

$$$$

 OpenBabel03272508503D

 40 44  0  0  1  0  0  0  0  0999 V2000
   37.0210   27.5930   32.7590 C   0  0  0  0  0  0  0  0  0  0  0  0
   36.1700   27.8630   31.7040 C   0  0  0  0  0  0  0  0  0  0  0  0
   35.2300   28.7380   32.2480 C   0  0  0  0  0  0  0  0  0  0  0  0
   35.5460   28.9510   33.5670 C   0  0  0  0  0  0  0  0  0  0  0  0
   36.6270   28.2490   33.8420 O   0  0  0  0  0  0  0  0  0  0  0  0
   36.1840   27.5080   30.6790 H   0  0  0  0  0  0  0  0  0  0  0  0
   34.3700   29.1970   31.7370 H   0  0  0  0  0  0  0  0  0  0  0  0
   33.4690   29.6040   34.7000 C   0  0  0  0  0  0  0  0  0  0  0  0
   34.8280   29.7980   34.5170 C   0  0  0  0  0  0  0  0  0  0  0  0
   35.5320   30.7770   35.2100 C   0  0  0  0  0  0  0  0  0  0  0  0
   34.8710   31.5900   36.1140 C   0  0  0  0  0  0  0  0  0  0  0  0
   35.2530   32.6060   36.9250 N   0  0  0  0  0  0  0  0  0  0  0  0
   34.1730   33.0150   37.5760 N   0  0  0  0  0  0  0  0  0  0  0  0
   33.1000   32.2790   37.1990 C   0  0  0  0  0  0  0  0  0  0  0  0
   33.5200   31.3580   36.2610 C   0  0  0  0  0  0  0  0  0  0  0  0
   32.7770   30.4140   35.6100 C   0  0  0  0  0  0  0  0  0  0  0  0
   32.9060   28.8430   34.1660 H   0  0  0  0  0  0  0  0  0  0  0  0
   36.6050   30.9010   35.0400 H   0  0  0  0  0  0  0  0  0  0  0  0
   36.2420   32.9390   36.9640 H   0  0  0  0  0  0  0  0  0  0  0  0
   32.0920   32.4210   37.5910 H   0  0  0  0  0  0  0  0  0  0  0  0
   31.7110   30.2970   35.7860 H   0  0  0  0  0  0  0  0  0  0  0  0
   38.1740   26.7160   32.6680 C   0  0  0  0  0  0  0  0  0  0  0  0
   39.2060   27.1400   32.1230 O   0  0  0  0  0  0  0  0  0  0  0  0
   38.2610   23.9950   35.1000 C   0  0  0  0  0  0  0  0  0  0  0  0
   37.9460   22.8810   34.3500 C   0  0  0  0  0  0  0  0  0  0  0  0
   37.6990   23.0360   33.0090 C   0  0  0  0  0  0  0  0  0  0  0  0
   37.7720   24.2630   32.4670 N   0  0  0  0  0  0  0  0  0  0  0  0
   38.0850   25.3650   33.2180 C   0  0  0  0  0  0  0  0  0  0  0  0
   38.3280   25.2110   34.5420 N   0  0  0  0  0  0  0  0  0  0  0  0
   38.4560   23.8740   36.1600 H   0  0  0  0  0  0  0  0  0  0  0  0
   37.8990   21.9230   34.8180 H   0  0  0  0  0  0  0  0  0  0  0  0
   36.0060   21.9870   31.4960 C   0  0  1  0  0  3  0  0  0  0  0  0
   37.3530   21.8790   32.1300 C   0  0  2  0  0  3  0  0  0  0  0  0
   37.4250   20.6580   32.7820 O   0  0  0  0  0  0  0  0  0  0  0  0
   36.1410   20.3040   33.1630 C   0  0  0  0  0  2  0  0  0  0  0  0
   35.2890   20.7710   31.9980 C   0  0  2  0  0  3  0  0  0  0  0  0
   35.3370   23.1770   31.7610 O   0  0  0  0  0  0  0  0  0  0  0  0
   35.4010   23.8000   30.9680 H   0  0  0  0  0  0  0  0  0  0  0  0
   35.2840   19.7440   31.0470 O   0  0  0  0  0  0  0  0  0  0  0  0
   36.0880   19.7690   30.4680 H   0  0  0  0  0  0  0  0  0  0  0  0
  1  5  1  0  0  0  0
  2  3  1  0  0  0  0
  2  1  2  0  0  0  0
  3  4  2  0  0  0  0
  4  5  1  0  0  0  0
  4  9  1  0  0  0  0
  6  2  1  0  0  0  0
  7  3  1  0  0  0  0
  8 16  1  0  0  0  0
  9  8  2  0  0  0  0
  9 10  1  0  0  0  0
 10 11  2  0  0  0  0
 11 15  1  0  0  0  0
 11 12  1  0  0  0  0
 12 19  1  0  0  0  0
 12 13  1  0  0  0  0
 14 13  2  0  0  0  0
 14 20  1  0  0  0  0
 15 14  1  0  0  0  0
 16 21  1  0  0  0  0
 16 15  2  0  0  0  0
 17  8  1  0  0  0  0
 18 10  1  0  0  0  0
 22  1  1  0  0  0  0
 22 28  1  0  0  0  0
 23 22  2  0  0  0  0
 24 30  1  0  0  0  0
 25 31  1  0  0  0  0
 25 24  2  0  0  0  0
 26 25  1  0  0  0  0
 27 26  2  0  0  0  0
 27 28  1  0  0  0  0
 28 29  2  0  0  0  0
 29 24  1  0  0  0  0
 32 37  1  1  0  0  0
 32 36  1  0  0  0  0
 32 33  1  0  0  0  0
 33 34  1  0  0  0  0
 33 26  1  1  0  0  0
 34 35  1  0  0  0  0
 36 39  1  6  0  0  0
 36 35  1  0  0  0  0
 38 37  1  0  0  0  0
 40 39  1  0  0  0  0
M  END
>  <minimizedAffinity>
-6.33750105

$$$$

 OpenBabel03272508503D

 40 44  0  0  1  0  0  0  0  0999 V2000
   38.2160   24.8970   36.0300 C   0  0  0  0  0  0  0  0  0  0  0  0
   38.3870   26.0050   36.8380 C   0  0  0  0  0  0  0  0  0  0  0  0
   38.1540   27.0820   35.9810 C   0  0  0  0  0  0  0  0  0  0  0  0
   37.8620   26.5900   34.7330 C   0  0  0  0  0  0  0  0  0  0  0  0
   37.9070   25.2740   34.7970 O   0  0  0  0  0  0  0  0  0  0  0  0
   38.6410   26.0780   37.8900 H   0  0  0  0  0  0  0  0  0  0  0  0
   38.1900   28.1530   36.2300 H   0  0  0  0  0  0  0  0  0  0  0  0
   38.3500   27.2150   32.4110 C   0  0  0  0  0  0  0  0  0  0  0  0
   37.5530   27.3650   33.5330 C   0  0  0  0  0  0  0  0  0  0  0  0
   36.4660   28.2320   33.5550 C   0  0  0  0  0  0  0  0  0  0  0  0
   36.1560   28.9750   32.4290 C   0  0  0  0  0  0  0  0  0  0  0  0
   35.1940   29.8820   32.1310 N   0  0  0  0  0  0  0  0  0  0  0  0
   35.3940   30.2690   30.8800 N   0  0  0  0  0  0  0  0  0  0  0  0
   36.4700   29.6280   30.3650 C   0  0  0  0  0  0  0  0  0  0  0  0
   36.9780   28.7920   31.3380 C   0  0  0  0  0  0  0  0  0  0  0  0
   38.0570   27.9560   31.2590 C   0  0  0  0  0  0  0  0  0  0  0  0
   39.2030   26.5420   32.3790 H   0  0  0  0  0  0  0  0  0  0  0  0
   35.8590   28.3240   34.4600 H   0  0  0  0  0  0  0  0  0  0  0  0
   34.4670   30.1620   32.8270 H   0  0  0  0  0  0  0  0  0  0  0  0
   36.8420   29.7730   29.3490 H   0  0  0  0  0  0  0  0  0  0  0  0
   38.6540   27.8710   30.3550 H   0  0  0  0  0  0  0  0  0  0  0  0
   38.3590   23.5280   36.4900 C   0  0  0  0  0  0  0  0  0  0  0  0
   39.2520   23.2640   37.3120 O   0  0  0  0  0  0  0  0  0  0  0  0
   35.5680   21.1790   36.3530 C   0  0  0  0  0  0  0  0  0  0  0  0
   35.6960   20.5980   35.1080 C   0  0  0  0  0  0  0  0  0  0  0  0
   36.7290   20.9940   34.2970 C   0  0  0  0  0  0  0  0  0  0  0  0
   37.5850   21.9320   34.7370 N   0  0  0  0  0  0  0  0  0  0  0  0
   37.4520   22.5050   35.9740 C   0  0  0  0  0  0  0  0  0  0  0  0
   36.4310   22.1140   36.7740 N   0  0  0  0  0  0  0  0  0  0  0  0
   34.7510   20.8670   36.9950 H   0  0  0  0  0  0  0  0  0  0  0  0
   34.9950   19.8560   34.7960 H   0  0  0  0  0  0  0  0  0  0  0  0
   36.7600   21.3970   31.8280 C   0  0  1  0  0  3  0  0  0  0  0  0
   36.9350   20.4120   32.9370 C   0  0  2  0  0  3  0  0  0  0  0  0
   36.1150   19.3250   32.6800 O   0  0  0  0  0  0  0  0  0  0  0  0
   35.0330   19.7750   31.9420 C   0  0  0  0  0  2  0  0  0  0  0  0
   35.6450   20.8110   31.0180 C   0  0  2  0  0  3  0  0  0  0  0  0
   36.5200   22.7010   32.2480 O   0  0  0  0  0  0  0  0  0  0  0  0
   37.3610   23.2560   32.1710 H   0  0  0  0  0  0  0  0  0  0  0  0
   36.1250   20.1340   29.8920 O   0  0  0  0  0  0  0  0  0  0  0  0
   37.0220   19.7430   30.0460 H   0  0  0  0  0  0  0  0  0  0  0  0
  1 22  1  0  0  0  0
  1  2  2  0  0  0  0
  2  6  1  0  0  0  0
  3  7  1  0  0  0  0
  3  2  1  0  0  0  0
  4  5  1  0  0  0  0
  4  3  2  0  0  0  0
  5  1  1  0  0  0  0
  8  9  1  0  0  0  0
  9 10  2  0  0  0  0
  9  4  1  0  0  0  0
 10 18  1  0  0  0  0
 11 10  1  0  0  0  0
 12 11  1  0  0  0  0
 12 19  1  0  0  0  0
 13 12  1  0  0  0  0
 14 13  2  0  0  0  0
 14 15  1  0  0  0  0
 15 11  2  0  0  0  0
 16 15  1  0  0  0  0
 16  8  2  0  0  0  0
 17  8  1  0  0  0  0
 20 14  1  0  0  0  0
 21 16  1  0  0  0  0
 22 23  2  0  0  0  0
 24 29  1  0  0  0  0
 24 30  1  0  0  0  0
 25 24  2  0  0  0  0
 26 27  2  0  0  0  0
 26 25  1  0  0  0  0
 27 28  1  0  0  0  0
 28 22  1  0  0  0  0
 28 29  2  0  0  0  0
 31 25  1  0  0  0  0
 32 37  1  1  0  0  0
 32 33  1  0  0  0  0
 33 26  1  1  0  0  0
 34 33  1  0  0  0  0
 35 34  1  0  0  0  0
 36 39  1  6  0  0  0
 36 32  1  0  0  0  0
 36 35  1  0  0  0  0
 38 37  1  0  0  0  0
 39 40  1  0  0  0  0
M  END
>  <minimizedAffinity>
-6.29431391

$$$$

 OpenBabel03272508503D

 40 44  0  0  1  0  0  0  0  0999 V2000
   36.3470   27.2800   31.7960 C   0  0  0  0  0  0  0  0  0  0  0  0
   36.7980   28.0440   30.7360 C   0  0  0  0  0  0  0  0  0  0  0  0
   36.5780   29.3570   31.1550 C   0  0  0  0  0  0  0  0  0  0  0  0
   36.0210   29.3270   32.4090 C   0  0  0  0  0  0  0  0  0  0  0  0
   35.8960   28.0640   32.7650 O   0  0  0  0  0  0  0  0  0  0  0  0
   37.2290   27.7480   29.7860 H   0  0  0  0  0  0  0  0  0  0  0  0
   36.8000   30.2820   30.5990 H   0  0  0  0  0  0  0  0  0  0  0  0
   35.1540   31.6140   32.5980 C   0  0  0  0  0  0  0  0  0  0  0  0
   35.6280   30.4740   33.2250 C   0  0  0  0  0  0  0  0  0  0  0  0
   35.7430   30.3870   34.6080 C   0  0  0  0  0  0  0  0  0  0  0  0
   35.3760   31.4630   35.3980 C   0  0  0  0  0  0  0  0  0  0  0  0
   35.3660   31.6930   36.7330 N   0  0  0  0  0  0  0  0  0  0  0  0
   34.9050   32.9220   36.9150 N   0  0  0  0  0  0  0  0  0  0  0  0
   34.6170   33.4890   35.7190 C   0  0  0  0  0  0  0  0  0  0  0  0
   34.9100   32.5740   34.7290 C   0  0  0  0  0  0  0  0  0  0  0  0
   34.7760   32.7170   33.3760 C   0  0  0  0  0  0  0  0  0  0  0  0
   35.0580   31.6970   31.5190 H   0  0  0  0  0  0  0  0  0  0  0  0
   36.1220   29.4700   35.0670 H   0  0  0  0  0  0  0  0  0  0  0  0
   35.6830   30.9730   37.4200 H   0  0  0  0  0  0  0  0  0  0  0  0
   34.2220   34.4990   35.5990 H   0  0  0  0  0  0  0  0  0  0  0  0
   34.3970   33.6320   32.9280 H   0  0  0  0  0  0  0  0  0  0  0  0
   36.3750   25.8290   31.8180 C   0  0  0  0  0  0  0  0  0  0  0  0
   35.3450   25.2060   31.5080 O   0  0  0  0  0  0  0  0  0  0  0  0
   39.6850   24.3170   31.5340 C   0  0  0  0  0  0  0  0  0  0  0  0
   39.9510   23.8800   32.8150 C   0  0  0  0  0  0  0  0  0  0  0  0
   39.0130   24.0920   33.7930 C   0  0  0  0  0  0  0  0  0  0  0  0
   37.8660   24.7150   33.4780 N   0  0  0  0  0  0  0  0  0  0  0  0
   37.6080   25.1460   32.2030 C   0  0  0  0  0  0  0  0  0  0  0  0
   38.5350   24.9380   31.2380 N   0  0  0  0  0  0  0  0  0  0  0  0
   40.4260   24.1500   30.7600 H   0  0  0  0  0  0  0  0  0  0  0  0
   40.8750   23.3880   33.0250 H   0  0  0  0  0  0  0  0  0  0  0  0
   38.3320   22.5300   35.6260 C   0  0  1  0  0  3  0  0  0  0  0  0
   39.2280   23.6470   35.2040 C   0  0  2  0  0  3  0  0  0  0  0  0
   39.0960   24.6750   36.1240 O   0  0  0  0  0  0  0  0  0  0  0  0
   37.8230   24.6020   36.6640 C   0  0  0  0  0  2  0  0  0  0  0  0
   37.5780   23.1090   36.7830 C   0  0  2  0  0  3  0  0  0  0  0  0
   37.5120   22.0360   34.6170 O   0  0  0  0  0  0  0  0  0  0  0  0
   37.8830   21.1680   34.2550 H   0  0  0  0  0  0  0  0  0  0  0  0
   38.1150   22.6960   38.0080 O   0  0  0  0  0  0  0  0  0  0  0  0
   39.0900   22.5310   37.9510 H   0  0  0  0  0  0  0  0  0  0  0  0
  1 22  1  0  0  0  0
  1  5  1  0  0  0  0
  2  3  1  0  0  0  0
  2  1  2  0  0  0  0
  3  4  2  0  0  0  0
  4  5  1  0  0  0  0
  4  9  1  0  0  0  0
  6  2  1  0  0  0  0
  7  3  1  0  0  0  0
  8  9  2  0  0  0  0
  8 16  1  0  0  0  0
  9 10  1  0  0  0  0
 10 18  1  0  0  0  0
 10 11  2  0  0  0  0
 11 12  1  0  0  0  0
 12 13  1  0  0  0  0
 12 19  1  0  0  0  0
 14 13  2  0  0  0  0
 15 11  1  0  0  0  0
 15 14  1  0  0  0  0
 16 15  2  0  0  0  0
 17  8  1  0  0  0  0
 20 14  1  0  0  0  0
 21 16  1  0  0  0  0
 22 28  1  0  0  0  0
 23 22  2  0  0  0  0
 24 25  1  0  0  0  0
 25 31  1  0  0  0  0
 25 26  2  0  0  0  0
 27 26  1  0  0  0  0
 28 27  2  0  0  0  0
 29 24  2  0  0  0  0
 29 28  1  0  0  0  0
 30 24  1  0  0  0  0
 32 37  1  6  0  0  0
 32 36  1  0  0  0  0
 33 26  1  6  0  0  0
 33 32  1  0  0  0  0
 33 34  1  0  0  0  0
 34 35  1  0  0  0  0
 35 36  1  0  0  0  0
 36 39  1  1  0  0  0
 38 37  1  0  0  0  0
 40 39  1  0  0  0  0
M  END
>  <minimizedAffinity>
-6.28515482

$$$$
