
 OpenBabel03272509043D

 33 35  0  0  1  0  0  0  0  0999 V2000
   37.5220   31.2430   50.6700 C   0  0  0  0  0  0  0  0  0  0  0  0
   38.3200   31.7240   49.6090 C   0  0  0  0  0  0  0  0  0  0  0  0
   38.1270   31.1400   48.3390 C   0  0  0  0  0  0  0  0  0  0  0  0
   37.1870   30.1520   48.2090 N   0  0  0  0  0  0  0  0  0  0  0  0
   36.4610   29.7440   49.2680 C   0  0  0  0  0  0  0  0  0  0  0  0
   36.6170   30.2770   50.5000 N   0  0  0  0  0  0  0  0  0  0  0  0
   37.7290   31.7400   51.6160 H   0  0  0  0  0  0  0  0  0  0  0  0
   39.0560   32.4920   49.6920 H   0  0  0  0  0  0  0  0  0  0  0  0
   39.3280   30.5350   46.2770 C   0  0  1  0  0  3  0  0  0  0  0  0
   38.9510   31.6270   47.2080 C   0  0  1  0  0  3  0  0  0  0  0  0
   38.3350   32.6300   46.4890 O   0  0  0  0  0  0  0  0  0  0  0  0
   37.8340   32.0900   45.3250 C   0  0  0  0  0  2  0  0  0  0  0  0
   38.3650   30.7130   45.1310 C   0  0  1  0  0  3  0  0  0  0  0  0
   40.6350   30.6670   45.8260 O   0  0  0  0  0  0  0  0  0  0  0  0
   40.6480   30.3390   44.8890 H   0  0  0  0  0  0  0  0  0  0  0  0
   39.0020   30.5520   43.9060 O   0  0  0  0  0  0  0  0  0  0  0  0
   38.3440   30.6100   43.1890 H   0  0  0  0  0  0  0  0  0  0  0  0
   35.5130   28.6890   48.9980 C   0  0  0  0  0  3  0  0  0  0  0  0
   34.3380   28.9830   48.5630 C   0  0  0  0  0  3  0  0  0  0  0  0
   33.2180   28.1000   48.2090 C   0  0  0  0  0  0  0  0  0  0  0  0
   32.8830   27.5780   49.1360 H   0  0  0  0  0  0  0  0  0  0  0  0
   32.3500   28.6660   47.8420 H   0  0  0  0  0  0  0  0  0  0  0  0
   33.5760   27.0750   47.1760 C   0  0  0  0  0  0  0  0  0  0  0  0
   33.7530   25.7220   47.4250 C   0  0  0  0  0  0  0  0  0  0  0  0
   34.0820   24.8730   46.3770 C   0  0  0  0  0  0  0  0  0  0  0  0
   34.2390   25.3480   45.0760 C   0  0  0  0  0  0  0  0  0  0  0  0
   34.0620   26.6990   44.8310 C   0  0  0  0  0  0  0  0  0  0  0  0
   33.7330   27.5480   45.8810 C   0  0  0  0  0  0  0  0  0  0  0  0
   33.6200   25.4070   48.4480 H   0  0  0  0  0  0  0  0  0  0  0  0
   34.2060   23.8330   46.6290 H   0  0  0  0  0  0  0  0  0  0  0  0
   34.4940   24.6020   44.3380 H   0  0  0  0  0  0  0  0  0  0  0  0
   34.1910   27.0320   43.8160 H   0  0  0  0  0  0  0  0  0  0  0  0
   33.6170   28.5790   45.5900 H   0  0  0  0  0  0  0  0  0  0  0  0
  1  7  1  0  0  0  0
  2  8  1  0  0  0  0
  2  1  2  0  0  0  0
  3  2  1  0  0  0  0
  4  3  2  0  0  0  0
  4  5  1  0  0  0  0
  5  6  2  0  0  0  0
  6  1  1  0  0  0  0
  9 14  1  6  0  0  0
  9 10  1  0  0  0  0
 10  3  1  1  0  0  0
 11 10  1  0  0  0  0
 12 11  1  0  0  0  0
 13 16  1  6  0  0  0
 13 12  1  0  0  0  0
 13  9  1  0  0  0  0
 15 14  1  0  0  0  0
 17 16  1  0  0  0  0
 18  5  1  0  0  0  0
 19 18  2  0  0  0  0
 20 19  1  0  0  0  0
 20 21  1  0  0  0  0
 22 20  1  0  0  0  0
 23 24  1  0  0  0  0
 23 20  1  0  0  0  0
 24 29  1  0  0  0  0
 25 30  1  0  0  0  0
 25 24  2  0  0  0  0
 26 25  1  0  0  0  0
 27 26  2  0  0  0  0
 27 28  1  0  0  0  0
 28 23  2  0  0  0  0
 31 26  1  0  0  0  0
 32 27  1  0  0  0  0
 33 28  1  0  0  0  0
M  END
>  <minimizedAffinity>
-5.70355034

>  <minimizedRMSD>
1.09523034

$$$$
