
 OpenBabel03262520563D

 46 49  0  0  1  0  0  0  0  0999 V2000
   35.4460   28.7620   49.6340 C   0  0  0  0  0  0  0  0  0  0  0  0
   36.2060   28.1580   50.1490 H   0  0  0  0  0  0  0  0  0  0  0  0
   34.7020   29.1830   50.3390 H   0  0  0  0  0  0  0  0  0  0  0  0
   35.9420   29.8610   48.8590 N   0  0  0  0  0  0  0  0  0  0  0  0
   35.5400   31.1420   49.3420 C   0  0  0  0  0  0  0  0  0  0  0  0
   36.4350   31.7860   50.3310 C   0  0  0  0  0  0  0  0  0  0  0  0
   37.8520   31.6460   49.9950 N   0  0  0  0  0  0  0  0  0  0  0  0
   38.0920   30.2330   49.7730 C   0  0  0  0  0  0  0  0  0  0  0  0
   37.3110   29.8940   48.5230 C   0  0  2  0  0  0  0  0  0  0  0  0
   35.2670   31.8050   48.4960 H   0  0  0  0  0  0  0  0  0  0  0  0
   34.5540   30.9710   49.8740 H   0  0  0  0  0  0  0  0  0  0  0  0
   36.2400   31.4160   51.3650 H   0  0  0  0  0  0  0  0  0  0  0  0
   36.2250   32.8720   50.3670 H   0  0  0  0  0  0  0  0  0  0  0  0
   38.3840   31.9340   50.8220 H   0  0  0  0  0  0  0  0  0  0  0  0
   39.1250   29.9150   49.7910 H   0  0  0  0  0  0  0  0  0  0  0  0
   37.6070   29.7110   50.6530 H   0  0  0  0  0  0  0  0  0  0  0  0
   37.7240   28.9920   48.0570 H   0  0  0  0  0  0  0  0  0  0  0  0
   37.1980   30.7790   46.2680 C   0  0  2  0  0  0  0  0  0  0  0  0
   37.6450   31.0370   47.6130 C   0  0  2  0  0  0  0  0  0  0  0  0
   38.9280   31.4580   47.4320 O   0  0  0  0  0  0  0  0  0  0  0  0
   38.7640   32.4490   46.4470 C   0  0  0  0  0  0  0  0  0  0  0  0
   37.9430   31.7180   45.3680 C   0  0  2  0  0  0  0  0  0  0  0  0
   35.8560   30.6840   46.0110 O   0  0  0  0  0  0  0  0  0  0  0  0
   35.6040   30.8740   45.0940 H   0  0  0  0  0  0  0  0  0  0  0  0
   37.1570   32.5710   44.6360 O   0  0  0  0  0  0  0  0  0  0  0  0
   37.7180   33.3220   44.3150 H   0  0  0  0  0  0  0  0  0  0  0  0
   34.6720   27.8360   48.7140 C   0  0  0  0  0  0  0  0  0  0  0  0
   35.1190   27.7960   47.7050 H   0  0  0  0  0  0  0  0  0  0  0  0
   34.6980   26.8220   49.1510 H   0  0  0  0  0  0  0  0  0  0  0  0
   32.9160   28.3520   48.6370 S   0  0  0  0  0  0  0  0  0  0  0  0
   31.7080   26.5690   46.8090 C   0  0  2  0  0  0  0  0  0  0  0  0
   30.6000   26.9570   47.6740 C   0  0  0  0  0  0  0  0  0  0  0  0
   31.9530   26.8750   48.2630 C   0  0  2  0  0  0  0  0  0  0  0  0
   31.8380   25.5240   46.4790 H   0  0  0  0  0  0  0  0  0  0  0  0
   30.1320   27.9690   47.6310 H   0  0  0  0  0  0  0  0  0  0  0  0
   29.8390   26.1710   47.9490 H   0  0  0  0  0  0  0  0  0  0  0  0
   32.1330   25.9510   48.8830 H   0  0  0  0  0  0  0  0  0  0  0  0
   32.2070   29.4940   44.5350 C   0  0  0  0  0  0  0  0  0  0  0  0
   33.4610   29.1730   43.9760 C   0  0  0  0  0  0  0  0  0  0  0  0
   34.0920   27.9810   44.4010 C   0  0  0  0  0  0  0  0  0  0  0  0
   33.4890   27.1930   45.3210 N   0  0  0  0  0  0  0  0  0  0  0  0
   32.2800   27.5510   45.8260 C   0  0  0  0  0  0  0  0  0  0  0  0
   31.6080   28.6860   45.4620 N   0  0  0  0  0  0  0  0  0  0  0  0
   31.6310   30.3720   44.2900 H   0  0  0  0  0  0  0  0  0  0  0  0
   33.8580   29.8690   43.2520 H   0  0  0  0  0  0  0  0  0  0  0  0
   35.0110   27.8700   43.9020 H   0  0  0  0  0  0  0  0  0  0  0  0
  1  2  1  0  0  0  0
  1  3  1  0  0  0  0
  4  5  1  0  0  0  0
  4  1  1  0  0  0  0
  5 11  1  0  0  0  0
  5  6  1  0  0  0  0
  6 13  1  0  0  0  0
  6 12  1  0  0  0  0
  7  6  1  0  0  0  0
  7 14  1  0  0  0  0
  8 15  1  0  0  0  0
  8  7  1  0  0  0  0
  8 16  1  0  0  0  0
  9 17  1  6  0  0  0
  9  4  1  0  0  0  0
  9  8  1  0  0  0  0
 10  5  1  0  0  0  0
 18 23  1  1  0  0  0
 18 19  1  0  0  0  0
 19 20  1  6  0  0  0
 19  9  1  0  0  0  0
 21 20  1  0  0  0  0
 22 25  1  1  0  0  0
 22 18  1  0  0  0  0
 22 21  1  0  0  0  0
 24 23  1  0  0  0  0
 26 25  1  0  0  0  0
 27 29  1  0  0  0  0
 27  1  1  0  0  0  0
 28 27  1  0  0  0  0
 30 27  1  0  0  0  0
 31 34  1  6  0  0  0
 31 32  1  0  0  0  0
 31 33  1  0  0  0  0
 32 36  1  0  0  0  0
 32 33  1  0  0  0  0
 33 30  1  0  0  0  0
 33 37  1  1  0  0  0
 35 32  1  0  0  0  0
 38 43  1  0  0  0  0
 39 40  1  0  0  0  0
 39 38  2  0  0  0  0
 40 41  2  0  0  0  0
 41 42  1  0  0  0  0
 42 31  1  0  0  0  0
 43 42  2  0  0  0  0
 44 38  1  0  0  0  0
 45 39  1  0  0  0  0
 46 40  1  0  0  0  0
M  END
>  <minimizedAffinity>
-4.47179127

>  <minimizedRMSD>
5.36253881

$$$$
