
 OpenBabel03272501323D

 27 29  0  0  1  0  0  0  0  0999 V2000
   38.3440   32.0710   46.7520 C   0  0  2  0  0  0  0  0  0  0  0  0
   39.6500   31.2550   46.4000 C   0  0  0  0  0  0  0  0  0  0  0  0
   39.3630   32.6230   45.8700 C   0  0  1  0  0  0  0  0  0  0  0  0
   37.4990   31.3960   46.4450 H   0  0  0  0  0  0  0  0  0  0  0  0
   40.4250   31.2010   47.1900 H   0  0  0  0  0  0  0  0  0  0  0  0
   39.5410   30.3420   45.8380 H   0  0  0  0  0  0  0  0  0  0  0  0
   39.9630   33.4580   46.3530 H   0  0  0  0  0  0  0  0  0  0  0  0
   37.9210   32.0840   43.9380 C   0  0  2  0  0  0  0  0  0  0  0  0
   39.1420   32.7750   44.4190 C   0  0  2  0  0  0  0  0  0  0  0  0
   40.1930   32.3520   43.6220 O   0  0  0  0  0  0  0  0  0  0  0  0
   39.6750   32.0310   42.3810 C   0  0  0  0  0  0  0  0  0  0  0  0
   38.1720   32.0900   42.4260 C   0  0  2  0  0  0  0  0  0  0  0  0
   36.7650   32.7880   44.2450 O   0  0  0  0  0  0  0  0  0  0  0  0
   36.7260   33.6510   43.7690 H   0  0  0  0  0  0  0  0  0  0  0  0
   37.6780   33.2800   41.9330 O   0  0  0  0  0  0  0  0  0  0  0  0
   37.3200   33.2390   41.0180 H   0  0  0  0  0  0  0  0  0  0  0  0
   38.3320   32.3430   48.2200 C   0  0  0  0  0  0  0  0  0  0  0  0
   39.0010   33.3510   48.6400 O   0  0  0  0  0  0  0  0  0  0  0  0
   37.4490   30.1830   51.1380 C   0  0  0  0  0  0  0  0  0  0  0  0
   38.1500   31.0440   50.3080 C   0  0  0  0  0  0  0  0  0  0  0  0
   37.5900   31.4720   49.0990 C   0  0  0  0  0  0  0  0  0  0  0  0
   36.3740   31.0200   48.7920 N   0  0  0  0  0  0  0  0  0  0  0  0
   35.7050   30.1740   49.6290 C   0  0  0  0  0  0  0  0  0  0  0  0
   36.2210   29.7540   50.7850 N   0  0  0  0  0  0  0  0  0  0  0  0
   37.8590   29.8360   52.0780 H   0  0  0  0  0  0  0  0  0  0  0  0
   39.1210   31.3640   50.6220 H   0  0  0  0  0  0  0  0  0  0  0  0
   34.7310   29.8820   49.2680 H   0  0  0  0  0  0  0  0  0  0  0  0
  1  4  1  6  0  0  0
  1 17  1  0  0  0  0
  2  1  1  0  0  0  0
  2  5  1  0  0  0  0
  3  7  1  1  0  0  0
  3  2  1  0  0  0  0
  3  1  1  0  0  0  0
  6  2  1  0  0  0  0
  8 13  1  6  0  0  0
  8  9  1  0  0  0  0
  9 10  1  6  0  0  0
  9  3  1  0  0  0  0
 11 12  1  0  0  0  0
 11 10  1  0  0  0  0
 12 15  1  1  0  0  0
 12  8  1  0  0  0  0
 14 13  1  0  0  0  0
 16 15  1  0  0  0  0
 17 18  2  0  0  0  0
 17 21  1  0  0  0  0
 19 25  1  0  0  0  0
 20 26  1  0  0  0  0
 20 19  2  0  0  0  0
 21 20  1  0  0  0  0
 22 21  2  0  0  0  0
 22 23  1  0  0  0  0
 23 24  2  0  0  0  0
 24 19  1  0  0  0  0
 27 23  1  0  0  0  0
M  END
>  <minimizedAffinity>
-5.9431262

>  <minimizedRMSD>
0.822198868

$$$$
