
 OpenBabel03272506343D

 19 20  0  0  1  0  0  0  0  0999 V2000
   37.4020   29.8990   50.9640 C   0  0  0  0  0  0  0  0  0  0  0  0
   37.9700   30.9840   50.2950 C   0  0  0  0  0  0  0  0  0  0  0  0
   37.5320   31.2610   49.0040 C   0  0  0  0  0  0  0  0  0  0  0  0
   36.5790   30.4620   48.4640 N   0  0  0  0  0  0  0  0  0  0  0  0
   36.0440   29.4090   49.1410 C   0  0  0  0  0  0  0  0  0  0  0  0
   36.4610   29.1430   50.3730 N   0  0  0  0  0  0  0  0  0  0  0  0
   38.7330   31.6490   50.6870 H   0  0  0  0  0  0  0  0  0  0  0  0
   37.9150   32.0680   48.4310 H   0  0  0  0  0  0  0  0  0  0  0  0
   34.2140   29.3180   47.4390 C   0  0  1  0  0  0  0  0  0  0  0  0
   35.0160   28.5870   48.4960 C   0  0  2  0  0  0  0  0  0  0  0  0
   34.0980   28.0150   49.3660 O   0  0  0  0  0  0  0  0  0  0  0  0
   32.8370   28.0990   48.7930 C   0  0  0  0  0  0  0  0  0  0  0  0
   33.0900   28.2800   47.2890 C   0  0  2  0  0  0  0  0  0  0  0  0
   33.6020   30.4590   47.9140 O   0  0  0  0  0  0  0  0  0  0  0  0
   34.2100   31.0520   48.4230 H   0  0  0  0  0  0  0  0  0  0  0  0
   33.5700   27.0700   46.8220 O   0  0  0  0  0  0  0  0  0  0  0  0
   33.9850   27.1160   45.9340 H   0  0  0  0  0  0  0  0  0  0  0  0
   37.9360   29.7420   52.2470 O   0  0  0  0  0  0  0  0  0  0  0  0
   38.4760   28.8990   52.3910 H   0  0  0  0  0  0  0  0  0  0  0  0
  1 18  1  0  0  0  0
  2  7  1  0  0  0  0
  2  1  2  0  0  0  0
  3  2  1  0  0  0  0
  4  3  2  0  0  0  0
  4  5  1  0  0  0  0
  5  6  2  0  0  0  0
  6  1  1  0  0  0  0
  8  3  1  0  0  0  0
  9 14  1  1  0  0  0
  9 10  1  0  0  0  0
 10  5  1  1  0  0  0
 10 11  1  0  0  0  0
 12 11  1  0  0  0  0
 13 16  1  1  0  0  0
 13  9  1  0  0  0  0
 13 12  1  0  0  0  0
 14 15  1  0  0  0  0
 17 16  1  0  0  0  0
 18 19  1  0  0  0  0
M  END
>  <minimizedAffinity>
-4.86812115

>  <minimizedRMSD>
1.58524895

$$$$
