
 OpenBabel03272509203D

 46 50  0  0  1  0  0  0  0  0999 V2000
   38.0960   31.3450   47.8040 C   0  0  0  0  0  0  0  0  0  0  0  0
   37.1020   31.3320   48.7700 C   0  0  0  0  0  0  0  0  0  0  0  0
   37.1420   32.4470   49.6260 C   0  0  0  0  0  0  0  0  0  0  0  0
   38.1020   33.4500   49.4900 C   0  0  0  0  0  0  0  0  0  0  0  0
   39.0650   33.3500   48.4640 C   0  0  0  0  0  0  0  0  0  0  0  0
   39.0500   32.2700   47.6100 C   0  0  0  0  0  0  0  0  0  0  0  0
   36.4190   32.5590   50.4270 H   0  0  0  0  0  0  0  0  0  0  0  0
   38.1050   34.2990   50.1680 H   0  0  0  0  0  0  0  0  0  0  0  0
   39.7680   34.1530   48.4190 H   0  0  0  0  0  0  0  0  0  0  0  0
   34.9950   30.3090   48.0980 C   0  0  0  0  0  0  0  0  0  0  0  0
   36.1230   30.3100   48.9110 C   0  0  0  0  0  0  0  0  0  0  0  0
   36.2450   29.2780   49.8560 C   0  0  0  0  0  0  0  0  0  0  0  0
   35.2640   28.3450   49.9210 N   0  0  0  0  0  0  0  0  0  0  0  0
   34.1780   28.3880   49.1020 C   0  0  0  0  0  0  0  0  0  0  0  0
   34.0460   29.3620   48.1980 N   0  0  0  0  0  0  0  0  0  0  0  0
   34.8880   31.0980   47.3670 H   0  0  0  0  0  0  0  0  0  0  0  0
   33.4400   27.5990   49.2230 H   0  0  0  0  0  0  0  0  0  0  0  0
   37.4340   29.2320   50.7520 C   0  0  0  0  0  0  0  0  0  0  0  0
   38.3550   29.1410   50.1410 H   0  0  0  0  0  0  0  0  0  0  0  0
   37.4710   30.0550   51.4840 H   0  0  0  0  0  0  0  0  0  0  0  0
   37.3750   28.2900   51.3280 H   0  0  0  0  0  0  0  0  0  0  0  0
   38.1390   30.2630   46.8930 O   0  0  0  0  0  0  0  0  0  0  0  0
   38.3800   29.3840   47.3080 H   0  0  0  0  0  0  0  0  0  0  0  0
   40.0160   32.2330   46.6320 O   0  0  0  0  0  0  0  0  0  0  0  0
   40.4930   31.0620   44.4860 C   0  0  0  0  0  0  0  0  0  0  0  0
   39.8330   31.9670   45.3080 C   0  0  0  0  0  0  0  0  0  0  0  0
   38.8290   32.7450   44.7640 C   0  0  0  0  0  0  0  0  0  0  0  0
   38.4770   32.6280   43.4030 C   0  0  0  0  0  0  0  0  0  0  0  0
   37.5750   33.2250   42.6060 N   0  0  0  0  0  0  0  0  0  0  0  0
   37.6600   32.7280   41.3550 C   0  0  0  0  0  0  0  0  0  0  0  0
   38.6470   31.7950   41.3880 N   0  0  0  0  0  0  0  0  0  0  0  0
   39.1560   31.7230   42.6330 C   0  0  0  0  0  0  0  0  0  0  0  0
   40.1540   30.9400   43.1490 C   0  0  0  0  0  0  0  0  0  0  0  0
   41.2590   30.5060   45.0160 H   0  0  0  0  0  0  0  0  0  0  0  0
   38.2330   33.4870   45.2760 H   0  0  0  0  0  0  0  0  0  0  0  0
   36.9090   33.9610   42.9020 H   0  0  0  0  0  0  0  0  0  0  0  0
   37.1230   32.9440   40.4650 H   0  0  0  0  0  0  0  0  0  0  0  0
   40.2730   28.6020   42.2730 C   0  0  2  0  0  3  0  0  0  0  0  0
   40.9280   29.9360   42.3530 C   0  0  1  0  0  3  0  0  0  0  0  0
   41.1150   30.4520   41.1000 O   0  0  0  0  0  0  0  0  0  0  0  0
   40.7730   29.4830   40.1700 C   0  0  0  0  0  2  0  0  0  0  0  0
   39.8230   28.5380   40.8280 C   0  0  2  0  0  3  0  0  0  0  0  0
   39.2020   28.4590   43.1510 O   0  0  0  0  0  0  0  0  0  0  0  0
   38.3780   28.6000   42.6270 H   0  0  0  0  0  0  0  0  0  0  0  0
   38.4800   28.8640   40.6660 O   0  0  0  0  0  0  0  0  0  0  0  0
   38.2970   29.3760   39.8400 H   0  0  0  0  0  0  0  0  0  0  0  0
  1  2  1  0  0  0  0
  2 11  1  0  0  0  0
  2  3  2  0  0  0  0
  3  7  1  0  0  0  0
  4  3  1  0  0  0  0
  4  8  1  0  0  0  0
  5  4  2  0  0  0  0
  6  1  2  0  0  0  0
  6  5  1  0  0  0  0
  9  5  1  0  0  0  0
 10 15  2  0  0  0  0
 10 11  1  0  0  0  0
 11 12  2  0  0  0  0
 12 13  1  0  0  0  0
 12 18  1  0  0  0  0
 14 17  1  0  0  0  0
 14 13  2  0  0  0  0
 15 14  1  0  0  0  0
 16 10  1  0  0  0  0
 18 21  1  0  0  0  0
 18 20  1  0  0  0  0
 19 18  1  0  0  0  0
 22 23  1  0  0  0  0
 22  1  1  0  0  0  0
 24  6  1  0  0  0  0
 25 34  1  0  0  0  0
 25 26  1  0  0  0  0
 26 24  1  0  0  0  0
 27 35  1  0  0  0  0
 27 26  2  0  0  0  0
 28 27  1  0  0  0  0
 29 36  1  0  0  0  0
 29 28  1  0  0  0  0
 30 31  2  0  0  0  0
 30 29  1  0  0  0  0
 31 32  1  0  0  0  0
 32 33  1  0  0  0  0
 32 28  2  0  0  0  0
 33 25  2  0  0  0  0
 37 30  1  0  0  0  0
 38 39  1  0  0  0  0
 38 43  1  1  0  0  0
 39 33  1  1  0  0  0
 40 39  1  0  0  0  0
 41 42  1  0  0  0  0
 41 40  1  0  0  0  0
 42 45  1  1  0  0  0
 42 38  1  0  0  0  0
 44 43  1  0  0  0  0
 46 45  1  0  0  0  0
M  END
>  <minimizedAffinity>
-7.75285721

>  <minimizedRMSD>
1.18714178

$$$$
