
 OpenBabel03272503543D

 44 47  0  0  1  0  0  0  0  0999 V2000
   40.2290   25.2540   34.5210 C   0  0  1  0  0  0  0  0  0  0  0  0
   41.5690   26.0220   34.6090 C   0  0  0  0  0  0  0  0  0  0  0  0
   42.6230   24.9590   34.2510 C   0  0  0  0  0  0  0  0  0  0  0  0
   42.6930   24.0490   35.4180 C   0  0  0  0  0  0  0  0  0  0  0  0
   41.3510   23.3740   35.6410 C   0  0  0  0  0  0  0  0  0  0  0  0
   40.2190   24.3680   35.7410 C   0  0  2  0  0  0  0  0  0  0  0  0
   40.3230   24.7140   33.5580 H   0  0  0  0  0  0  0  0  0  0  0  0
   41.5920   26.8820   33.9360 H   0  0  0  0  0  0  0  0  0  0  0  0
   41.7250   26.2610   35.6800 H   0  0  0  0  0  0  0  0  0  0  0  0
   43.5680   25.4820   34.0740 H   0  0  0  0  0  0  0  0  0  0  0  0
   42.2870   24.4170   33.3380 H   0  0  0  0  0  0  0  0  0  0  0  0
   43.4440   23.2680   35.2700 H   0  0  0  0  0  0  0  0  0  0  0  0
   42.9650   24.6760   36.3040 H   0  0  0  0  0  0  0  0  0  0  0  0
   41.4480   22.9030   36.6660 H   0  0  0  0  0  0  0  0  0  0  0  0
   41.2200   22.5920   34.8960 H   0  0  0  0  0  0  0  0  0  0  0  0
   40.4370   24.9930   36.6310 H   0  0  0  0  0  0  0  0  0  0  0  0
   38.1350   26.1610   33.4740 C   0  0  0  0  0  0  0  0  0  0  0  0
   37.0490   27.0250   33.5230 C   0  0  0  0  0  0  0  0  0  0  0  0
   36.9080   27.9280   34.5840 C   0  0  0  0  0  0  0  0  0  0  0  0
   37.8910   27.9150   35.5650 C   0  0  0  0  0  0  0  0  0  0  0  0
   38.9650   27.0650   35.5250 C   0  0  0  0  0  0  0  0  0  0  0  0
   39.0850   26.1660   34.4470 C   0  0  0  0  0  0  0  0  0  0  0  0
   36.2820   27.0360   32.7590 H   0  0  0  0  0  0  0  0  0  0  0  0
   36.0670   28.6150   34.6470 H   0  0  0  0  0  0  0  0  0  0  0  0
   37.7540   28.6260   36.3760 H   0  0  0  0  0  0  0  0  0  0  0  0
   39.6550   27.1580   36.3450 H   0  0  0  0  0  0  0  0  0  0  0  0
   37.6760   23.3050   31.0360 C   0  0  0  0  0  0  0  0  0  0  0  0
   37.5650   24.0470   32.2340 C   0  0  0  0  0  0  0  0  0  0  0  0
   38.1770   25.2950   32.3100 C   0  0  0  0  0  0  0  0  0  0  0  0
   38.8390   25.7030   31.2100 N   0  0  0  0  0  0  0  0  0  0  0  0
   38.9430   24.9980   30.0740 C   0  0  0  0  0  0  0  0  0  0  0  0
   38.3650   23.8090   29.9930 N   0  0  0  0  0  0  0  0  0  0  0  0
   37.1500   22.3470   31.1160 H   0  0  0  0  0  0  0  0  0  0  0  0
   37.0420   23.7320   33.1160 H   0  0  0  0  0  0  0  0  0  0  0  0
   39.4930   25.3980   29.2370 H   0  0  0  0  0  0  0  0  0  0  0  0
   38.4810   23.5630   37.4020 C   0  0  1  0  0  3  0  0  0  0  0  0
   38.9300   23.6830   35.9590 C   0  0  2  0  0  3  0  0  0  0  0  0
   38.8910   22.3330   35.5960 O   0  0  0  0  0  0  0  0  0  0  0  0
   37.6430   21.8980   36.0170 C   0  0  0  0  0  2  0  0  0  0  0  0
   37.1530   22.8240   37.1110 C   0  0  1  0  0  3  0  0  0  0  0  0
   39.2480   22.6190   38.1040 O   0  0  0  0  0  0  0  0  0  0  0  0
   39.3660   22.8540   39.0540 H   0  0  0  0  0  0  0  0  0  0  0  0
   36.6780   22.1680   38.2240 O   0  0  0  0  0  0  0  0  0  0  0  0
   37.3930   21.9190   38.8630 H   0  0  0  0  0  0  0  0  0  0  0  0
  1  7  1  6  0  0  0
  1  2  1  0  0  0  0
  1  6  1  0  0  0  0
  2  9  1  0  0  0  0
  3  2  1  0  0  0  0
  3  4  1  0  0  0  0
  4  5  1  0  0  0  0
  4 13  1  0  0  0  0
  5  6  1  0  0  0  0
  5 14  1  0  0  0  0
  6 37  1  0  0  0  0
  6 16  1  1  0  0  0
  8  2  1  0  0  0  0
 10  3  1  0  0  0  0
 11  3  1  0  0  0  0
 12  4  1  0  0  0  0
 15  5  1  0  0  0  0
 17 18  2  0  0  0  0
 17 22  1  0  0  0  0
 18 19  1  0  0  0  0
 19 24  1  0  0  0  0
 19 20  2  0  0  0  0
 20 25  1  0  0  0  0
 21 20  1  0  0  0  0
 21 26  1  0  0  0  0
 22  1  1  0  0  0  0
 22 21  2  0  0  0  0
 23 18  1  0  0  0  0
 27 33  1  0  0  0  0
 27 28  1  0  0  0  0
 28 29  2  0  0  0  0
 28 34  1  0  0  0  0
 29 17  1  0  0  0  0
 30 29  1  0  0  0  0
 31 30  2  0  0  0  0
 32 31  1  0  0  0  0
 32 27  2  0  0  0  0
 35 31  1  0  0  0  0
 36 41  1  1  0  0  0
 37 38  1  1  0  0  0
 37 36  1  0  0  0  0
 38 39  1  0  0  0  0
 39 40  1  0  0  0  0
 40 36  1  0  0  0  0
 40 43  1  1  0  0  0
 41 42  1  0  0  0  0
 43 44  1  0  0  0  0
M  END
>  <minimizedAffinity>
-6.17807388

$$$$

 OpenBabel03272503543D

 44 47  0  0  1  0  0  0  0  0999 V2000
   39.2330   22.5770   33.3700 C   0  0  1  0  0  0  0  0  0  0  0  0
   40.3960   21.6140   33.0280 C   0  0  0  0  0  0  0  0  0  0  0  0
   41.6470   22.5070   33.1170 C   0  0  0  0  0  0  0  0  0  0  0  0
   41.5970   23.3920   31.9300 C   0  0  0  0  0  0  0  0  0  0  0  0
   40.3530   24.2620   31.9720 C   0  0  0  0  0  0  0  0  0  0  0  0
   39.0920   23.4500   32.1500 C   0  0  2  0  0  0  0  0  0  0  0  0
   39.6110   23.1000   34.2710 H   0  0  0  0  0  0  0  0  0  0  0  0
   40.4360   20.7640   33.7100 H   0  0  0  0  0  0  0  0  0  0  0  0
   40.2810   21.3510   31.9570 H   0  0  0  0  0  0  0  0  0  0  0  0
   42.5200   21.8480   33.1080 H   0  0  0  0  0  0  0  0  0  0  0  0
   41.5980   23.0970   34.0590 H   0  0  0  0  0  0  0  0  0  0  0  0
   42.4690   24.0520   31.8870 H   0  0  0  0  0  0  0  0  0  0  0  0
   41.5780   22.7290   31.0280 H   0  0  0  0  0  0  0  0  0  0  0  0
   40.2960   24.7100   30.9330 H   0  0  0  0  0  0  0  0  0  0  0  0
   40.5010   25.0570   32.6990 H   0  0  0  0  0  0  0  0  0  0  0  0
   39.0200   22.7960   31.2560 H   0  0  0  0  0  0  0  0  0  0  0  0
   37.4640   21.7750   34.9600 C   0  0  0  0  0  0  0  0  0  0  0  0
   36.2640   21.1120   35.1800 C   0  0  0  0  0  0  0  0  0  0  0  0
   35.5850   20.4990   34.1190 C   0  0  0  0  0  0  0  0  0  0  0  0
   36.1640   20.5880   32.8590 C   0  0  0  0  0  0  0  0  0  0  0  0
   37.3480   21.2410   32.6330 C   0  0  0  0  0  0  0  0  0  0  0  0
   38.0110   21.8480   33.7170 C   0  0  0  0  0  0  0  0  0  0  0  0
   35.8110   21.0420   36.1610 H   0  0  0  0  0  0  0  0  0  0  0  0
   34.6450   19.9750   34.2640 H   0  0  0  0  0  0  0  0  0  0  0  0
   35.6150   20.1040   32.0560 H   0  0  0  0  0  0  0  0  0  0  0  0
   37.6890   21.2340   31.6130 H   0  0  0  0  0  0  0  0  0  0  0  0
   39.8840   22.7830   37.6870 C   0  0  0  0  0  0  0  0  0  0  0  0
   39.4100   22.1680   36.5060 C   0  0  0  0  0  0  0  0  0  0  0  0
   38.0760   22.3430   36.1460 C   0  0  0  0  0  0  0  0  0  0  0  0
   37.3300   23.1010   36.9730 N   0  0  0  0  0  0  0  0  0  0  0  0
   37.7820   23.6850   38.0930 C   0  0  0  0  0  0  0  0  0  0  0  0
   39.0490   23.5240   38.4430 N   0  0  0  0  0  0  0  0  0  0  0  0
   40.9460   22.5630   37.8460 H   0  0  0  0  0  0  0  0  0  0  0  0
   39.9940   21.5620   35.8410 H   0  0  0  0  0  0  0  0  0  0  0  0
   37.1170   24.2780   38.7000 H   0  0  0  0  0  0  0  0  0  0  0  0
   37.1480   24.4640   30.8780 C   0  0  1  0  0  3  0  0  0  0  0  0
   37.9010   24.3210   32.1850 C   0  0  2  0  0  3  0  0  0  0  0  0
   38.1450   25.6720   32.4550 O   0  0  0  0  0  0  0  0  0  0  0  0
   36.9100   26.2830   32.3010 C   0  0  0  0  0  2  0  0  0  0  0  0
   36.0470   25.4110   31.4130 C   0  0  1  0  0  3  0  0  0  0  0  0
   37.8560   25.2530   29.9570 O   0  0  0  0  0  0  0  0  0  0  0  0
   37.7110   24.9720   29.0230 H   0  0  0  0  0  0  0  0  0  0  0  0
   35.4240   26.0980   30.3960 O   0  0  0  0  0  0  0  0  0  0  0  0
   35.9960   26.2110   29.5950 H   0  0  0  0  0  0  0  0  0  0  0  0
  1 22  1  0  0  0  0
  1  7  1  1  0  0  0
  2  3  1  0  0  0  0
  2  1  1  0  0  0  0
  2  8  1  0  0  0  0
  3 11  1  0  0  0  0
  4  5  1  0  0  0  0
  4  3  1  0  0  0  0
  5  6  1  0  0  0  0
  5 15  1  0  0  0  0
  6 16  1  6  0  0  0
  6 37  1  0  0  0  0
  6  1  1  0  0  0  0
  9  2  1  0  0  0  0
 10  3  1  0  0  0  0
 12  4  1  0  0  0  0
 13  4  1  0  0  0  0
 14  5  1  0  0  0  0
 17 18  1  0  0  0  0
 17 29  1  0  0  0  0
 18 23  1  0  0  0  0
 19 24  1  0  0  0  0
 19 18  2  0  0  0  0
 20 19  1  0  0  0  0
 21 20  2  0  0  0  0
 21 22  1  0  0  0  0
 22 17  2  0  0  0  0
 25 20  1  0  0  0  0
 26 21  1  0  0  0  0
 27 33  1  0  0  0  0
 27 32  1  0  0  0  0
 28 27  2  0  0  0  0
 29 28  1  0  0  0  0
 29 30  2  0  0  0  0
 30 31  1  0  0  0  0
 31 32  2  0  0  0  0
 31 35  1  0  0  0  0
 34 28  1  0  0  0  0
 36 41  1  6  0  0  0
 36 40  1  0  0  0  0
 36 37  1  0  0  0  0
 37 38  1  6  0  0  0
 39 38  1  0  0  0  0
 40 43  1  6  0  0  0
 40 39  1  0  0  0  0
 42 41  1  0  0  0  0
 44 43  1  0  0  0  0
M  END
>  <minimizedAffinity>
-5.74651003

$$$$

 OpenBabel03272503543D

 44 47  0  0  1  0  0  0  0  0999 V2000
   38.3870   26.5940   34.1930 C   0  0  1  0  0  0  0  0  0  0  0  0
   38.1090   27.9020   34.9700 C   0  0  0  0  0  0  0  0  0  0  0  0
   36.5740   28.0240   34.9430 C   0  0  0  0  0  0  0  0  0  0  0  0
   36.2210   28.3900   33.5520 C   0  0  0  0  0  0  0  0  0  0  0  0
   36.6580   27.2970   32.5920 C   0  0  0  0  0  0  0  0  0  0  0  0
   38.1170   26.9420   32.7520 C   0  0  2  0  0  0  0  0  0  0  0  0
   37.6590   25.8880   34.6420 H   0  0  0  0  0  0  0  0  0  0  0  0
   38.5110   27.8690   35.9840 H   0  0  0  0  0  0  0  0  0  0  0  0
   38.4930   28.7290   34.3390 H   0  0  0  0  0  0  0  0  0  0  0  0
   36.2950   28.8000   35.6610 H   0  0  0  0  0  0  0  0  0  0  0  0
   36.1340   27.0400   35.2230 H   0  0  0  0  0  0  0  0  0  0  0  0
   35.1420   28.5290   33.4370 H   0  0  0  0  0  0  0  0  0  0  0  0
   36.7550   29.3460   33.3200 H   0  0  0  0  0  0  0  0  0  0  0  0
   36.5590   27.7740   31.5700 H   0  0  0  0  0  0  0  0  0  0  0  0
   35.9640   26.4610   32.6680 H   0  0  0  0  0  0  0  0  0  0  0  0
   38.6850   27.8620   32.5010 H   0  0  0  0  0  0  0  0  0  0  0  0
   40.0610   24.8480   34.8680 C   0  0  0  0  0  0  0  0  0  0  0  0
   41.3830   24.4480   35.0060 C   0  0  0  0  0  0  0  0  0  0  0  0
   42.4280   25.3300   34.7000 C   0  0  0  0  0  0  0  0  0  0  0  0
   42.0780   26.6000   34.2600 C   0  0  0  0  0  0  0  0  0  0  0  0
   40.7760   27.0020   34.1200 C   0  0  0  0  0  0  0  0  0  0  0  0
   39.7440   26.0980   34.4340 C   0  0  0  0  0  0  0  0  0  0  0  0
   41.6570   23.4580   35.3490 H   0  0  0  0  0  0  0  0  0  0  0  0
   43.4710   25.0420   34.7990 H   0  0  0  0  0  0  0  0  0  0  0  0
   42.9100   27.2610   34.0310 H   0  0  0  0  0  0  0  0  0  0  0  0
   40.6420   28.0120   33.7730 H   0  0  0  0  0  0  0  0  0  0  0  0
   37.5330   22.7390   36.7310 C   0  0  0  0  0  0  0  0  0  0  0  0
   38.4850   23.7570   36.4980 C   0  0  0  0  0  0  0  0  0  0  0  0
   39.0760   23.8500   35.2410 C   0  0  0  0  0  0  0  0  0  0  0  0
   38.6830   22.9410   34.3280 N   0  0  0  0  0  0  0  0  0  0  0  0
   37.7780   21.9750   34.5510 C   0  0  0  0  0  0  0  0  0  0  0  0
   37.2110   21.8790   35.7440 N   0  0  0  0  0  0  0  0  0  0  0  0
   37.1520   22.7840   37.7580 H   0  0  0  0  0  0  0  0  0  0  0  0
   38.8080   24.4860   37.2170 H   0  0  0  0  0  0  0  0  0  0  0  0
   37.5170   21.2860   33.7640 H   0  0  0  0  0  0  0  0  0  0  0  0
   39.0430   26.3510   30.4670 C   0  0  1  0  0  3  0  0  0  0  0  0
   38.5110   25.8810   31.8060 C   0  0  2  0  0  3  0  0  0  0  0  0
   37.4770   25.0510   31.3600 O   0  0  0  0  0  0  0  0  0  0  0  0
   38.0720   24.2440   30.4010 C   0  0  0  0  0  2  0  0  0  0  0  0
   39.3090   24.9450   29.8800 C   0  0  1  0  0  3  0  0  0  0  0  0
   38.0200   26.8700   29.6580 O   0  0  0  0  0  0  0  0  0  0  0  0
   38.3290   27.6030   29.0750 H   0  0  0  0  0  0  0  0  0  0  0  0
   39.3960   24.9720   28.5060 O   0  0  0  0  0  0  0  0  0  0  0  0
   38.8950   25.7230   28.1000 H   0  0  0  0  0  0  0  0  0  0  0  0
  1 22  1  0  0  0  0
  1  7  1  1  0  0  0
  1  2  1  0  0  0  0
  2  8  1  0  0  0  0
  3  2  1  0  0  0  0
  3 11  1  0  0  0  0
  3 10  1  0  0  0  0
  4  3  1  0  0  0  0
  5 15  1  0  0  0  0
  5  6  1  0  0  0  0
  5  4  1  0  0  0  0
  6 16  1  6  0  0  0
  6  1  1  0  0  0  0
  9  2  1  0  0  0  0
 12  4  1  0  0  0  0
 13  4  1  0  0  0  0
 14  5  1  0  0  0  0
 17 18  1  0  0  0  0
 17 29  1  0  0  0  0
 18 23  1  0  0  0  0
 19 24  1  0  0  0  0
 19 18  2  0  0  0  0
 20 19  1  0  0  0  0
 21 20  2  0  0  0  0
 21 22  1  0  0  0  0
 22 17  2  0  0  0  0
 25 20  1  0  0  0  0
 26 21  1  0  0  0  0
 27 33  1  0  0  0  0
 28 27  1  0  0  0  0
 28 34  1  0  0  0  0
 29 28  2  0  0  0  0
 30 31  2  0  0  0  0
 30 29  1  0  0  0  0
 31 32  1  0  0  0  0
 32 27  2  0  0  0  0
 35 31  1  0  0  0  0
 36 41  1  6  0  0  0
 36 37  1  0  0  0  0
 37 38  1  6  0  0  0
 37  6  1  0  0  0  0
 39 38  1  0  0  0  0
 40 43  1  6  0  0  0
 40 39  1  0  0  0  0
 40 36  1  0  0  0  0
 42 41  1  0  0  0  0
 44 43  1  0  0  0  0
M  END
>  <minimizedAffinity>
-5.7379961

$$$$

 OpenBabel03272503543D

 44 47  0  0  1  0  0  0  0  0999 V2000
   39.0420   23.8450   33.0870 C   0  0  1  0  0  0  0  0  0  0  0  0
   39.4190   23.0870   31.7910 C   0  0  0  0  0  0  0  0  0  0  0  0
   38.0690   22.5680   31.2660 C   0  0  0  0  0  0  0  0  0  0  0  0
   37.6730   21.4720   32.1810 C   0  0  0  0  0  0  0  0  0  0  0  0
   37.4960   22.0010   33.5930 C   0  0  0  0  0  0  0  0  0  0  0  0
   38.7080   22.7590   34.0780 C   0  0  2  0  0  0  0  0  0  0  0  0
   38.1780   24.4580   32.7640 H   0  0  0  0  0  0  0  0  0  0  0  0
   39.9300   23.7320   31.0740 H   0  0  0  0  0  0  0  0  0  0  0  0
   39.9920   22.1910   32.1060 H   0  0  0  0  0  0  0  0  0  0  0  0
   38.2290   22.2180   30.2420 H   0  0  0  0  0  0  0  0  0  0  0  0
   37.3300   23.4010   31.2960 H   0  0  0  0  0  0  0  0  0  0  0  0
   36.7300   21.0140   31.8710 H   0  0  0  0  0  0  0  0  0  0  0  0
   38.4930   20.7100   32.1520 H   0  0  0  0  0  0  0  0  0  0  0  0
   37.4320   21.0670   34.2300 H   0  0  0  0  0  0  0  0  0  0  0  0
   36.5540   22.5420   33.6520 H   0  0  0  0  0  0  0  0  0  0  0  0
   39.5420   22.0280   34.0910 H   0  0  0  0  0  0  0  0  0  0  0  0
   39.9700   26.0360   33.8860 C   0  0  0  0  0  0  0  0  0  0  0  0
   41.0430   26.7830   34.3540 C   0  0  0  0  0  0  0  0  0  0  0  0
   42.3140   26.2060   34.4680 C   0  0  0  0  0  0  0  0  0  0  0  0
   42.4420   24.8740   34.0960 C   0  0  0  0  0  0  0  0  0  0  0  0
   41.3880   24.1300   33.6340 C   0  0  0  0  0  0  0  0  0  0  0  0
   40.1200   24.7330   33.5280 C   0  0  0  0  0  0  0  0  0  0  0  0
   40.9440   27.8220   34.6450 H   0  0  0  0  0  0  0  0  0  0  0  0
   43.1700   26.7670   34.8320 H   0  0  0  0  0  0  0  0  0  0  0  0
   43.4390   24.4530   34.1950 H   0  0  0  0  0  0  0  0  0  0  0  0
   41.6220   23.1120   33.3770 H   0  0  0  0  0  0  0  0  0  0  0  0
   36.6770   27.7400   34.6410 C   0  0  0  0  0  0  0  0  0  0  0  0
   37.8700   27.0160   34.8670 C   0  0  0  0  0  0  0  0  0  0  0  0
   38.7150   26.7600   33.7920 C   0  0  0  0  0  0  0  0  0  0  0  0
   38.3180   27.2340   32.5940 N   0  0  0  0  0  0  0  0  0  0  0  0
   37.1860   27.9220   32.3820 C   0  0  0  0  0  0  0  0  0  0  0  0
   36.3760   28.1690   33.3990 N   0  0  0  0  0  0  0  0  0  0  0  0
   36.1110   27.8670   35.5710 H   0  0  0  0  0  0  0  0  0  0  0  0
   38.1960   26.6320   35.8150 H   0  0  0  0  0  0  0  0  0  0  0  0
   36.9410   28.2670   31.3900 H   0  0  0  0  0  0  0  0  0  0  0  0
   39.5850   22.8960   36.4520 C   0  0  1  0  0  3  0  0  0  0  0  0
   38.5070   23.2590   35.4520 C   0  0  2  0  0  3  0  0  0  0  0  0
   37.3920   22.7500   36.1250 O   0  0  0  0  0  0  0  0  0  0  0  0
   37.5020   23.2610   37.4100 C   0  0  0  0  0  2  0  0  0  0  0  0
   38.9510   23.6210   37.6640 C   0  0  1  0  0  3  0  0  0  0  0  0
   39.5300   21.5380   36.8010 O   0  0  0  0  0  0  0  0  0  0  0  0
   40.4180   21.1560   36.9940 H   0  0  0  0  0  0  0  0  0  0  0  0
   39.4420   23.1440   38.8590 O   0  0  0  0  0  0  0  0  0  0  0  0
   39.7650   22.2100   38.8020 H   0  0  0  0  0  0  0  0  0  0  0  0
  1  7  1  6  0  0  0
  1 22  1  0  0  0  0
  1  6  1  0  0  0  0
  2  9  1  0  0  0  0
  2  1  1  0  0  0  0
  3 11  1  0  0  0  0
  3  2  1  0  0  0  0
  3  4  1  0  0  0  0
  4  5  1  0  0  0  0
  5 15  1  0  0  0  0
  5  6  1  0  0  0  0
  5 14  1  0  0  0  0
  6 16  1  1  0  0  0
  6 37  1  0  0  0  0
  8  2  1  0  0  0  0
 10  3  1  0  0  0  0
 12  4  1  0  0  0  0
 13  4  1  0  0  0  0
 17 18  1  0  0  0  0
 18 19  2  0  0  0  0
 18 23  1  0  0  0  0
 19 24  1  0  0  0  0
 20 25  1  0  0  0  0
 20 19  1  0  0  0  0
 21 20  2  0  0  0  0
 22 21  1  0  0  0  0
 22 17  2  0  0  0  0
 26 21  1  0  0  0  0
 27 28  1  0  0  0  0
 27 33  1  0  0  0  0
 28 34  1  0  0  0  0
 29 17  1  0  0  0  0
 29 28  2  0  0  0  0
 30 29  1  0  0  0  0
 31 30  2  0  0  0  0
 31 32  1  0  0  0  0
 32 27  2  0  0  0  0
 35 31  1  0  0  0  0
 36 41  1  1  0  0  0
 36 40  1  0  0  0  0
 37 38  1  1  0  0  0
 37 36  1  0  0  0  0
 38 39  1  0  0  0  0
 39 40  1  0  0  0  0
 40 43  1  1  0  0  0
 41 42  1  0  0  0  0
 44 43  1  0  0  0  0
M  END
>  <minimizedAffinity>
-5.66002607

$$$$

 OpenBabel03272503543D

 44 47  0  0  1  0  0  0  0  0999 V2000
   40.1140   24.8950   33.9410 C   0  0  1  0  0  0  0  0  0  0  0  0
   41.6420   24.6560   33.9580 C   0  0  0  0  0  0  0  0  0  0  0  0
   42.1960   25.8890   34.6960 C   0  0  0  0  0  0  0  0  0  0  0  0
   42.0540   27.0220   33.7530 C   0  0  0  0  0  0  0  0  0  0  0  0
   40.5900   27.2500   33.4180 C   0  0  0  0  0  0  0  0  0  0  0  0
   39.9120   25.9940   32.9290 C   0  0  2  0  0  0  0  0  0  0  0  0
   39.9040   25.1890   34.9890 H   0  0  0  0  0  0  0  0  0  0  0  0
   41.9040   23.7180   34.4500 H   0  0  0  0  0  0  0  0  0  0  0  0
   41.9860   24.7470   32.9080 H   0  0  0  0  0  0  0  0  0  0  0  0
   43.2410   25.6800   34.9420 H   0  0  0  0  0  0  0  0  0  0  0  0
   41.5920   26.0540   35.6170 H   0  0  0  0  0  0  0  0  0  0  0  0
   42.4510   27.9480   34.1790 H   0  0  0  0  0  0  0  0  0  0  0  0
   42.6270   26.7530   32.8300 H   0  0  0  0  0  0  0  0  0  0  0  0
   40.6180   27.9590   32.5360 H   0  0  0  0  0  0  0  0  0  0  0  0
   40.1080   27.7430   34.2600 H   0  0  0  0  0  0  0  0  0  0  0  0
   40.4340   25.7080   31.9930 H   0  0  0  0  0  0  0  0  0  0  0  0
   38.6930   22.9120   34.5320 C   0  0  0  0  0  0  0  0  0  0  0  0
   37.9690   21.7960   34.1330 C   0  0  0  0  0  0  0  0  0  0  0  0
   37.9270   21.4220   32.7840 C   0  0  0  0  0  0  0  0  0  0  0  0
   38.6330   22.2100   31.8840 C   0  0  0  0  0  0  0  0  0  0  0  0
   39.3500   23.3120   32.2700 C   0  0  0  0  0  0  0  0  0  0  0  0
   39.3760   23.6680   33.6320 C   0  0  0  0  0  0  0  0  0  0  0  0
   37.4170   21.1810   34.8340 H   0  0  0  0  0  0  0  0  0  0  0  0
   37.3670   20.5540   32.4450 H   0  0  0  0  0  0  0  0  0  0  0  0
   38.5810   21.8950   30.8450 H   0  0  0  0  0  0  0  0  0  0  0  0
   39.8530   23.8340   31.4750 H   0  0  0  0  0  0  0  0  0  0  0  0
   37.7950   24.0950   38.0110 C   0  0  0  0  0  0  0  0  0  0  0  0
   37.6980   23.9200   36.6120 C   0  0  0  0  0  0  0  0  0  0  0  0
   38.6760   23.1740   35.9590 C   0  0  0  0  0  0  0  0  0  0  0  0
   39.6570   22.6700   36.7320 N   0  0  0  0  0  0  0  0  0  0  0  0
   39.7470   22.8370   38.0610 C   0  0  0  0  0  0  0  0  0  0  0  0
   38.8210   23.5450   38.6900 N   0  0  0  0  0  0  0  0  0  0  0  0
   36.9630   24.7000   38.3910 H   0  0  0  0  0  0  0  0  0  0  0  0
   36.9230   24.3170   35.9860 H   0  0  0  0  0  0  0  0  0  0  0  0
   40.5660   22.3980   38.6070 H   0  0  0  0  0  0  0  0  0  0  0  0
   38.1530   26.3430   31.1370 C   0  0  1  0  0  3  0  0  0  0  0  0
   38.4930   26.2470   32.6100 C   0  0  2  0  0  3  0  0  0  0  0  0
   37.9850   27.4760   33.0410 O   0  0  0  0  0  0  0  0  0  0  0  0
   36.7030   27.5240   32.5120 C   0  0  0  0  0  2  0  0  0  0  0  0
   36.6370   26.5890   31.3220 C   0  0  1  0  0  3  0  0  0  0  0  0
   38.6260   27.5390   30.5750 O   0  0  0  0  0  0  0  0  0  0  0  0
   38.8940   27.4380   29.6310 H   0  0  0  0  0  0  0  0  0  0  0  0
   36.0700   27.1540   30.2020 O   0  0  0  0  0  0  0  0  0  0  0  0
   36.7150   27.6730   29.6590 H   0  0  0  0  0  0  0  0  0  0  0  0
  1  2  1  0  0  0  0
  1  7  1  1  0  0  0
  2  8  1  0  0  0  0
  2  3  1  0  0  0  0
  3 10  1  0  0  0  0
  3 11  1  0  0  0  0
  4 12  1  0  0  0  0
  4  3  1  0  0  0  0
  5  4  1  0  0  0  0
  5 15  1  0  0  0  0
  6 16  1  6  0  0  0
  6  5  1  0  0  0  0
  6  1  1  0  0  0  0
  9  2  1  0  0  0  0
 13  4  1  0  0  0  0
 14  5  1  0  0  0  0
 17 29  1  0  0  0  0
 18 17  1  0  0  0  0
 18 23  1  0  0  0  0
 19 18  2  0  0  0  0
 20 21  2  0  0  0  0
 20 19  1  0  0  0  0
 21 22  1  0  0  0  0
 22  1  1  0  0  0  0
 22 17  2  0  0  0  0
 24 19  1  0  0  0  0
 25 20  1  0  0  0  0
 26 21  1  0  0  0  0
 27 33  1  0  0  0  0
 27 32  1  0  0  0  0
 28 27  2  0  0  0  0
 29 28  1  0  0  0  0
 29 30  2  0  0  0  0
 30 31  1  0  0  0  0
 31 35  1  0  0  0  0
 31 32  2  0  0  0  0
 34 28  1  0  0  0  0
 36 41  1  1  0  0  0
 36 40  1  0  0  0  0
 36 37  1  0  0  0  0
 37  6  1  0  0  0  0
 37 38  1  1  0  0  0
 39 38  1  0  0  0  0
 40 43  1  6  0  0  0
 40 39  1  0  0  0  0
 42 41  1  0  0  0  0
 44 43  1  0  0  0  0
M  END
>  <minimizedAffinity>
-5.64544868

$$$$

 OpenBabel03272503543D

 44 47  0  0  1  0  0  0  0  0999 V2000
   40.2370   24.8120   34.3070 C   0  0  1  0  0  0  0  0  0  0  0  0
   41.6060   25.5310   34.2360 C   0  0  0  0  0  0  0  0  0  0  0  0
   42.6140   24.3810   34.0670 C   0  0  0  0  0  0  0  0  0  0  0  0
   42.6730   23.6980   35.3800 C   0  0  0  0  0  0  0  0  0  0  0  0
   41.3120   23.1270   35.7400 C   0  0  0  0  0  0  0  0  0  0  0  0
   40.2180   24.1650   35.6680 C   0  0  2  0  0  0  0  0  0  0  0  0
   40.2950   24.1020   33.4580 H   0  0  0  0  0  0  0  0  0  0  0  0
   41.6470   26.2510   33.4170 H   0  0  0  0  0  0  0  0  0  0  0  0
   41.7900   25.9560   35.2440 H   0  0  0  0  0  0  0  0  0  0  0  0
   43.5730   24.8260   33.7860 H   0  0  0  0  0  0  0  0  0  0  0  0
   42.2420   23.6940   33.2740 H   0  0  0  0  0  0  0  0  0  0  0  0
   43.3930   22.8740   35.3700 H   0  0  0  0  0  0  0  0  0  0  0  0
   42.9840   24.4650   36.1340 H   0  0  0  0  0  0  0  0  0  0  0  0
   41.4120   22.8480   36.8330 H   0  0  0  0  0  0  0  0  0  0  0  0
   41.1400   22.2280   35.1520 H   0  0  0  0  0  0  0  0  0  0  0  0
   40.4750   24.9340   36.4260 H   0  0  0  0  0  0  0  0  0  0  0  0
   38.1370   25.5720   33.1610 C   0  0  0  0  0  0  0  0  0  0  0  0
   37.0860   26.4750   33.0630 C   0  0  0  0  0  0  0  0  0  0  0  0
   37.0220   27.5850   33.9140 C   0  0  0  0  0  0  0  0  0  0  0  0
   38.0430   27.7330   34.8440 C   0  0  0  0  0  0  0  0  0  0  0  0
   39.0830   26.8470   34.9470 C   0  0  0  0  0  0  0  0  0  0  0  0
   39.1260   25.7390   34.0800 C   0  0  0  0  0  0  0  0  0  0  0  0
   36.2890   26.3610   32.3390 H   0  0  0  0  0  0  0  0  0  0  0  0
   36.2110   28.3060   33.8590 H   0  0  0  0  0  0  0  0  0  0  0  0
   37.9660   28.6040   35.4900 H   0  0  0  0  0  0  0  0  0  0  0  0
   39.8100   27.0780   35.7070 H   0  0  0  0  0  0  0  0  0  0  0  0
   38.3380   23.4610   30.0280 C   0  0  0  0  0  0  0  0  0  0  0  0
   38.4080   24.6070   30.8530 C   0  0  0  0  0  0  0  0  0  0  0  0
   38.0990   24.4820   32.2050 C   0  0  0  0  0  0  0  0  0  0  0  0
   37.7500   23.2500   32.6260 N   0  0  0  0  0  0  0  0  0  0  0  0
   37.6850   22.1640   31.8410 C   0  0  0  0  0  0  0  0  0  0  0  0
   37.9760   22.2740   30.5540 N   0  0  0  0  0  0  0  0  0  0  0  0
   38.6050   23.7050   28.9930 H   0  0  0  0  0  0  0  0  0  0  0  0
   38.6820   25.5920   30.5300 H   0  0  0  0  0  0  0  0  0  0  0  0
   37.3970   21.2120   32.2580 H   0  0  0  0  0  0  0  0  0  0  0  0
   38.5880   23.5340   37.5040 C   0  0  1  0  0  3  0  0  0  0  0  0
   38.9100   23.5820   36.0240 C   0  0  2  0  0  3  0  0  0  0  0  0
   38.7440   22.2290   35.7110 O   0  0  0  0  0  0  0  0  0  0  0  0
   37.5120   21.8980   36.2560 C   0  0  0  0  0  2  0  0  0  0  0  0
   37.1900   22.8860   37.3580 C   0  0  1  0  0  3  0  0  0  0  0  0
   39.3480   22.5560   38.1660 O   0  0  0  0  0  0  0  0  0  0  0  0
   39.5690   22.8070   39.0930 H   0  0  0  0  0  0  0  0  0  0  0  0
   36.7750   22.2960   38.5300 O   0  0  0  0  0  0  0  0  0  0  0  0
   37.5250   22.0130   39.1110 H   0  0  0  0  0  0  0  0  0  0  0  0
  1  7  1  6  0  0  0
  1  6  1  0  0  0  0
  2  1  1  0  0  0  0
  2  9  1  0  0  0  0
  3  2  1  0  0  0  0
  3  4  1  0  0  0  0
  4  5  1  0  0  0  0
  4 13  1  0  0  0  0
  5 14  1  0  0  0  0
  6  5  1  0  0  0  0
  6 37  1  0  0  0  0
  6 16  1  1  0  0  0
  8  2  1  0  0  0  0
 10  3  1  0  0  0  0
 11  3  1  0  0  0  0
 12  4  1  0  0  0  0
 15  5  1  0  0  0  0
 17 22  1  0  0  0  0
 18 17  2  0  0  0  0
 18 19  1  0  0  0  0
 19 20  2  0  0  0  0
 20 21  1  0  0  0  0
 20 25  1  0  0  0  0
 21 26  1  0  0  0  0
 22  1  1  0  0  0  0
 22 21  2  0  0  0  0
 23 18  1  0  0  0  0
 24 19  1  0  0  0  0
 27 32  2  0  0  0  0
 27 28  1  0  0  0  0
 28 29  2  0  0  0  0
 29 30  1  0  0  0  0
 29 17  1  0  0  0  0
 31 35  1  0  0  0  0
 31 30  2  0  0  0  0
 32 31  1  0  0  0  0
 33 27  1  0  0  0  0
 34 28  1  0  0  0  0
 36 41  1  1  0  0  0
 37 38  1  1  0  0  0
 37 36  1  0  0  0  0
 38 39  1  0  0  0  0
 39 40  1  0  0  0  0
 40 36  1  0  0  0  0
 40 43  1  1  0  0  0
 41 42  1  0  0  0  0
 43 44  1  0  0  0  0
M  END
>  <minimizedAffinity>
-5.64355326

$$$$

 OpenBabel03272503543D

 44 47  0  0  1  0  0  0  0  0999 V2000
   38.0480   26.4310   33.1860 C   0  0  1  0  0  0  0  0  0  0  0  0
   38.1440   25.9150   34.6410 C   0  0  0  0  0  0  0  0  0  0  0  0
   38.9290   27.0220   35.3700 C   0  0  0  0  0  0  0  0  0  0  0  0
   40.3260   26.9090   34.8910 C   0  0  0  0  0  0  0  0  0  0  0  0
   40.3920   27.1470   33.3920 C   0  0  0  0  0  0  0  0  0  0  0  0
   39.4380   26.2600   32.6290 C   0  0  2  0  0  0  0  0  0  0  0  0
   37.7320   27.4840   33.3240 H   0  0  0  0  0  0  0  0  0  0  0  0
   37.1600   25.7390   35.0790 H   0  0  0  0  0  0  0  0  0  0  0  0
   38.8120   25.0300   34.6170 H   0  0  0  0  0  0  0  0  0  0  0  0
   38.8400   26.8330   36.4430 H   0  0  0  0  0  0  0  0  0  0  0  0
   38.4900   28.0080   35.0980 H   0  0  0  0  0  0  0  0  0  0  0  0
   40.9750   27.6430   35.3780 H   0  0  0  0  0  0  0  0  0  0  0  0
   40.6730   25.8730   35.1360 H   0  0  0  0  0  0  0  0  0  0  0  0
   41.4340   26.8110   33.1070 H   0  0  0  0  0  0  0  0  0  0  0  0
   40.2910   28.2130   33.1990 H   0  0  0  0  0  0  0  0  0  0  0  0
   39.7680   25.2180   32.8220 H   0  0  0  0  0  0  0  0  0  0  0  0
   36.0890   26.3020   31.6220 C   0  0  0  0  0  0  0  0  0  0  0  0
   35.1900   25.5390   30.8880 C   0  0  0  0  0  0  0  0  0  0  0  0
   35.2220   24.1400   30.9620 C   0  0  0  0  0  0  0  0  0  0  0  0
   36.1790   23.5690   31.7900 C   0  0  0  0  0  0  0  0  0  0  0  0
   37.0700   24.3150   32.5160 C   0  0  0  0  0  0  0  0  0  0  0  0
   37.0180   25.7190   32.4260 C   0  0  0  0  0  0  0  0  0  0  0  0
   34.4430   25.9830   30.2420 H   0  0  0  0  0  0  0  0  0  0  0  0
   34.5300   23.5190   30.3980 H   0  0  0  0  0  0  0  0  0  0  0  0
   36.1790   22.4820   31.8260 H   0  0  0  0  0  0  0  0  0  0  0  0
   37.7580   23.7500   33.1200 H   0  0  0  0  0  0  0  0  0  0  0  0
   36.3320   29.8990   30.4730 C   0  0  0  0  0  0  0  0  0  0  0  0
   36.5760   28.5070   30.5110 C   0  0  0  0  0  0  0  0  0  0  0  0
   35.9330   27.7380   31.4770 C   0  0  0  0  0  0  0  0  0  0  0  0
   35.1120   28.3980   32.3160 N   0  0  0  0  0  0  0  0  0  0  0  0
   34.8800   29.7190   32.2780 C   0  0  0  0  0  0  0  0  0  0  0  0
   35.4880   30.4590   31.3630 N   0  0  0  0  0  0  0  0  0  0  0  0
   36.9010   30.3760   29.6670 H   0  0  0  0  0  0  0  0  0  0  0  0
   37.2280   27.9700   29.8490 H   0  0  0  0  0  0  0  0  0  0  0  0
   34.2060   30.1710   32.9880 H   0  0  0  0  0  0  0  0  0  0  0  0
   40.1710   25.4170   30.3530 C   0  0  1  0  0  3  0  0  0  0  0  0
   39.5260   26.5120   31.1780 C   0  0  2  0  0  3  0  0  0  0  0  0
   40.3340   27.5880   30.7970 O   0  0  0  0  0  0  0  0  0  0  0  0
   40.3550   27.5300   29.4110 C   0  0  0  0  0  2  0  0  0  0  0  0
   40.0200   26.1170   28.9820 C   0  0  1  0  0  3  0  0  0  0  0  0
   41.5590   25.3660   30.5580 O   0  0  0  0  0  0  0  0  0  0  0  0
   41.9210   24.4510   30.4930 H   0  0  0  0  0  0  0  0  0  0  0  0
   40.8860   25.6000   28.0450 O   0  0  0  0  0  0  0  0  0  0  0  0
   41.7000   25.2020   28.4460 H   0  0  0  0  0  0  0  0  0  0  0  0
  1  7  1  1  0  0  0
  1  2  1  0  0  0  0
  2  8  1  0  0  0  0
  2  3  1  0  0  0  0
  3 10  1  0  0  0  0
  4 13  1  0  0  0  0
  4  3  1  0  0  0  0
  4 12  1  0  0  0  0
  5  4  1  0  0  0  0
  6 16  1  1  0  0  0
  6  1  1  0  0  0  0
  6  5  1  0  0  0  0
  9  2  1  0  0  0  0
 11  3  1  0  0  0  0
 14  5  1  0  0  0  0
 15  5  1  0  0  0  0
 17 22  1  0  0  0  0
 18 19  1  0  0  0  0
 18 17  2  0  0  0  0
 19 20  2  0  0  0  0
 20 25  1  0  0  0  0
 20 21  1  0  0  0  0
 21 26  1  0  0  0  0
 22 21  2  0  0  0  0
 22  1  1  0  0  0  0
 23 18  1  0  0  0  0
 24 19  1  0  0  0  0
 27 28  2  0  0  0  0
 27 32  1  0  0  0  0
 28 29  1  0  0  0  0
 29 17  1  0  0  0  0
 29 30  2  0  0  0  0
 31 30  1  0  0  0  0
 31 35  1  0  0  0  0
 32 31  2  0  0  0  0
 33 27  1  0  0  0  0
 34 28  1  0  0  0  0
 36 41  1  1  0  0  0
 36 37  1  0  0  0  0
 37 38  1  1  0  0  0
 37  6  1  0  0  0  0
 39 38  1  0  0  0  0
 40 43  1  6  0  0  0
 40 39  1  0  0  0  0
 40 36  1  0  0  0  0
 42 41  1  0  0  0  0
 43 44  1  0  0  0  0
M  END
>  <minimizedAffinity>
-5.52471828

$$$$

 OpenBabel03272503543D

 44 47  0  0  1  0  0  0  0  0999 V2000
   37.7430   25.6560   34.5140 C   0  0  1  0  0  0  0  0  0  0  0  0
   38.1640   27.1250   34.7600 C   0  0  0  0  0  0  0  0  0  0  0  0
   36.9020   27.9310   34.4050 C   0  0  0  0  0  0  0  0  0  0  0  0
   36.7840   27.8690   32.9290 C   0  0  0  0  0  0  0  0  0  0  0  0
   36.6090   26.4300   32.4740 C   0  0  0  0  0  0  0  0  0  0  0  0
   37.6880   25.5230   33.0130 C   0  0  2  0  0  0  0  0  0  0  0  0
   36.7580   25.6000   35.0190 H   0  0  0  0  0  0  0  0  0  0  0  0
   38.4930   27.2890   35.7880 H   0  0  0  0  0  0  0  0  0  0  0  0
   38.9150   27.3700   33.9820 H   0  0  0  0  0  0  0  0  0  0  0  0
   37.0530   28.9510   34.7680 H   0  0  0  0  0  0  0  0  0  0  0  0
   36.0240   27.4550   34.8980 H   0  0  0  0  0  0  0  0  0  0  0  0
   35.9240   28.4430   32.5730 H   0  0  0  0  0  0  0  0  0  0  0  0
   37.7280   28.2980   32.5080 H   0  0  0  0  0  0  0  0  0  0  0  0
   36.7660   26.4770   31.3540 H   0  0  0  0  0  0  0  0  0  0  0  0
   35.5880   26.1150   32.6820 H   0  0  0  0  0  0  0  0  0  0  0  0
   38.6440   25.8990   32.5930 H   0  0  0  0  0  0  0  0  0  0  0  0
   40.0080   24.6710   34.9610 C   0  0  0  0  0  0  0  0  0  0  0  0
   40.8090   23.7810   35.6650 C   0  0  0  0  0  0  0  0  0  0  0  0
   40.2440   22.9010   36.5960 C   0  0  0  0  0  0  0  0  0  0  0  0
   38.8680   22.9640   36.7760 C   0  0  0  0  0  0  0  0  0  0  0  0
   38.0710   23.8390   36.0860 C   0  0  0  0  0  0  0  0  0  0  0  0
   38.6630   24.7140   35.1550 C   0  0  0  0  0  0  0  0  0  0  0  0
   41.8820   23.7310   35.5260 H   0  0  0  0  0  0  0  0  0  0  0  0
   40.8480   22.1950   37.1610 H   0  0  0  0  0  0  0  0  0  0  0  0
   38.4590   22.2690   37.5050 H   0  0  0  0  0  0  0  0  0  0  0  0
   37.0220   23.7840   36.3170 H   0  0  0  0  0  0  0  0  0  0  0  0
   41.8200   27.5170   33.2500 C   0  0  0  0  0  0  0  0  0  0  0  0
   41.1350   26.8110   34.2640 C   0  0  0  0  0  0  0  0  0  0  0  0
   40.7140   25.5080   34.0090 C   0  0  0  0  0  0  0  0  0  0  0  0
   41.0010   25.0170   32.7880 N   0  0  0  0  0  0  0  0  0  0  0  0
   41.6520   25.6890   31.8270 C   0  0  0  0  0  0  0  0  0  0  0  0
   42.0560   26.9290   32.0610 N   0  0  0  0  0  0  0  0  0  0  0  0
   42.0910   28.5250   33.5870 H   0  0  0  0  0  0  0  0  0  0  0  0
   40.8990   27.1910   35.2400 H   0  0  0  0  0  0  0  0  0  0  0  0
   41.8440   25.2220   30.8740 H   0  0  0  0  0  0  0  0  0  0  0  0
   38.3470   23.7010   31.3790 C   0  0  1  0  0  3  0  0  0  0  0  0
   37.4930   24.1350   32.5530 C   0  0  2  0  0  3  0  0  0  0  0  0
   36.2280   23.8400   32.0350 O   0  0  0  0  0  0  0  0  0  0  0  0
   36.3430   22.5410   31.5600 C   0  0  0  0  0  2  0  0  0  0  0  0
   37.8060   22.2540   31.2940 C   0  0  1  0  0  3  0  0  0  0  0  0
   37.9170   24.2940   30.1810 O   0  0  0  0  0  0  0  0  0  0  0  0
   38.6580   24.4730   29.5560 H   0  0  0  0  0  0  0  0  0  0  0  0
   38.0470   21.6890   30.0620 O   0  0  0  0  0  0  0  0  0  0  0  0
   38.1280   22.3580   29.3370 H   0  0  0  0  0  0  0  0  0  0  0  0
  1  2  1  0  0  0  0
  1  7  1  1  0  0  0
  1 22  1  0  0  0  0
  2  8  1  0  0  0  0
  3  2  1  0  0  0  0
  3 10  1  0  0  0  0
  3 11  1  0  0  0  0
  4  3  1  0  0  0  0
  5 15  1  0  0  0  0
  5  4  1  0  0  0  0
  5  6  1  0  0  0  0
  6 16  1  6  0  0  0
  6  1  1  0  0  0  0
  9  2  1  0  0  0  0
 12  4  1  0  0  0  0
 13  4  1  0  0  0  0
 14  5  1  0  0  0  0
 17 22  2  0  0  0  0
 17 18  1  0  0  0  0
 18 19  2  0  0  0  0
 19 20  1  0  0  0  0
 19 24  1  0  0  0  0
 20 25  1  0  0  0  0
 21 26  1  0  0  0  0
 21 20  2  0  0  0  0
 22 21  1  0  0  0  0
 23 18  1  0  0  0  0
 27 33  1  0  0  0  0
 27 28  1  0  0  0  0
 28 34  1  0  0  0  0
 29 28  2  0  0  0  0
 29 17  1  0  0  0  0
 30 29  1  0  0  0  0
 31 32  1  0  0  0  0
 31 30  2  0  0  0  0
 32 27  2  0  0  0  0
 35 31  1  0  0  0  0
 36 41  1  6  0  0  0
 36 37  1  0  0  0  0
 37 38  1  6  0  0  0
 37  6  1  0  0  0  0
 39 38  1  0  0  0  0
 40 43  1  6  0  0  0
 40 36  1  0  0  0  0
 40 39  1  0  0  0  0
 42 41  1  0  0  0  0
 44 43  1  0  0  0  0
M  END
>  <minimizedAffinity>
-5.41865301

$$$$

 OpenBabel03272503543D

 44 47  0  0  1  0  0  0  0  0999 V2000
   39.4110   26.3190   34.3260 C   0  0  1  0  0  0  0  0  0  0  0  0
   39.0610   27.4730   35.2950 C   0  0  0  0  0  0  0  0  0  0  0  0
   37.6050   27.1810   35.6990 C   0  0  0  0  0  0  0  0  0  0  0  0
   36.7830   27.4960   34.5070 C   0  0  0  0  0  0  0  0  0  0  0  0
   37.1740   26.6000   33.3450 C   0  0  0  0  0  0  0  0  0  0  0  0
   38.6560   26.6420   33.0620 C   0  0  2  0  0  0  0  0  0  0  0  0
   39.0420   25.4270   34.8700 H   0  0  0  0  0  0  0  0  0  0  0  0
   39.7370   27.5070   36.1510 H   0  0  0  0  0  0  0  0  0  0  0  0
   39.0310   28.3980   34.6840 H   0  0  0  0  0  0  0  0  0  0  0  0
   37.3670   27.8250   36.5510 H   0  0  0  0  0  0  0  0  0  0  0  0
   37.5190   26.1050   35.9720 H   0  0  0  0  0  0  0  0  0  0  0  0
   35.7180   27.3470   34.7060 H   0  0  0  0  0  0  0  0  0  0  0  0
   36.9760   28.5690   34.2520 H   0  0  0  0  0  0  0  0  0  0  0  0
   36.6680   27.0750   32.4500 H   0  0  0  0  0  0  0  0  0  0  0  0
   36.7590   25.6070   33.5090 H   0  0  0  0  0  0  0  0  0  0  0  0
   38.8840   27.6890   32.7750 H   0  0  0  0  0  0  0  0  0  0  0  0
   41.6110   25.1190   34.4860 C   0  0  0  0  0  0  0  0  0  0  0  0
   42.9690   25.0650   34.2030 C   0  0  0  0  0  0  0  0  0  0  0  0
   43.5980   26.1260   33.5400 C   0  0  0  0  0  0  0  0  0  0  0  0
   42.8080   27.2130   33.1880 C   0  0  0  0  0  0  0  0  0  0  0  0
   41.4680   27.2740   33.4640 C   0  0  0  0  0  0  0  0  0  0  0  0
   40.8580   26.1940   34.1310 C   0  0  0  0  0  0  0  0  0  0  0  0
   43.5860   24.2180   34.4760 H   0  0  0  0  0  0  0  0  0  0  0  0
   44.6590   26.1100   33.3050 H   0  0  0  0  0  0  0  0  0  0  0  0
   43.3240   28.0210   32.6750 H   0  0  0  0  0  0  0  0  0  0  0  0
   40.9720   28.1720   33.1400 H   0  0  0  0  0  0  0  0  0  0  0  0
   39.5040   22.2010   35.6550 C   0  0  0  0  0  0  0  0  0  0  0  0
   39.8980   23.3190   34.8840 C   0  0  0  0  0  0  0  0  0  0  0  0
   41.0880   23.9680   35.1990 C   0  0  0  0  0  0  0  0  0  0  0  0
   41.7840   23.4660   36.2380 N   0  0  0  0  0  0  0  0  0  0  0  0
   41.4100   22.4050   36.9680 C   0  0  0  0  0  0  0  0  0  0  0  0
   40.2780   21.7820   36.6750 N   0  0  0  0  0  0  0  0  0  0  0  0
   38.5530   21.7920   35.2970 H   0  0  0  0  0  0  0  0  0  0  0  0
   39.3520   23.7280   34.0550 H   0  0  0  0  0  0  0  0  0  0  0  0
   42.0260   22.0650   37.7850 H   0  0  0  0  0  0  0  0  0  0  0  0
   39.1430   26.4450   30.5820 C   0  0  1  0  0  3  0  0  0  0  0  0
   39.0040   25.7640   31.9280 C   0  0  2  0  0  3  0  0  0  0  0  0
   38.0510   24.7960   31.5950 O   0  0  0  0  0  0  0  0  0  0  0  0
   38.5470   24.2060   30.4420 C   0  0  0  0  0  2  0  0  0  0  0  0
   39.5040   25.1730   29.7780 C   0  0  1  0  0  3  0  0  0  0  0  0
   37.8960   26.8300   30.0670 O   0  0  0  0  0  0  0  0  0  0  0  0
   37.9420   27.6580   29.5330 H   0  0  0  0  0  0  0  0  0  0  0  0
   39.2810   25.3400   28.4300 O   0  0  0  0  0  0  0  0  0  0  0  0
   38.5850   26.0150   28.2310 H   0  0  0  0  0  0  0  0  0  0  0  0
  1  7  1  1  0  0  0
  1  2  1  0  0  0  0
  2  3  1  0  0  0  0
  2  8  1  0  0  0  0
  3 11  1  0  0  0  0
  3 10  1  0  0  0  0
  4 12  1  0  0  0  0
  4  3  1  0  0  0  0
  5 15  1  0  0  0  0
  5  4  1  0  0  0  0
  6 16  1  6  0  0  0
  6  5  1  0  0  0  0
  6  1  1  0  0  0  0
  9  2  1  0  0  0  0
 13  4  1  0  0  0  0
 14  5  1  0  0  0  0
 17 29  1  0  0  0  0
 18 23  1  0  0  0  0
 18 17  1  0  0  0  0
 19 18  2  0  0  0  0
 20 21  2  0  0  0  0
 20 19  1  0  0  0  0
 21 22  1  0  0  0  0
 22  1  1  0  0  0  0
 22 17  2  0  0  0  0
 24 19  1  0  0  0  0
 25 20  1  0  0  0  0
 26 21  1  0  0  0  0
 27 32  1  0  0  0  0
 28 29  1  0  0  0  0
 28 27  2  0  0  0  0
 29 30  2  0  0  0  0
 30 31  1  0  0  0  0
 31 35  1  0  0  0  0
 32 31  2  0  0  0  0
 33 27  1  0  0  0  0
 34 28  1  0  0  0  0
 36 41  1  6  0  0  0
 36 37  1  0  0  0  0
 37 38  1  6  0  0  0
 37  6  1  0  0  0  0
 39 38  1  0  0  0  0
 40 43  1  6  0  0  0
 40 39  1  0  0  0  0
 40 36  1  0  0  0  0
 42 41  1  0  0  0  0
 44 43  1  0  0  0  0
M  END
>  <minimizedAffinity>
-5.39965916

$$$$
