
 OpenBabel03272508143D

 28 30  0  0  1  0  0  0  0  0999 V2000
   36.3450   31.7090   49.1730 Cl  0  0  0  0  0  0  0  0  0  0  0  0
   37.1460   31.2390   47.6900 C   0  0  0  0  0  0  0  0  0  0  0  0
   36.4350   30.3320   46.9330 C   0  0  0  0  0  0  0  0  0  0  0  0
   37.0020   29.9020   45.7280 C   0  0  0  0  0  0  0  0  0  0  0  0
   38.2100   30.3460   45.2950 C   0  0  0  0  0  0  0  0  0  0  0  0
   38.8960   31.2510   46.0720 C   0  0  0  0  0  0  0  0  0  0  0  0
   40.4530   31.8460   45.5490 Cl  0  0  0  0  0  0  0  0  0  0  0  0
   38.3680   31.6840   47.2440 C   0  0  0  0  0  0  0  0  0  0  0  0
   36.5180   29.1900   45.0640 H   0  0  0  0  0  0  0  0  0  0  0  0
   38.6590   30.0220   44.3650 H   0  0  0  0  0  0  0  0  0  0  0  0
   35.0550   28.8120   48.2920 C   0  0  0  0  0  0  0  0  0  0  0  0
   35.1280   29.7180   47.1990 C   0  0  0  0  0  0  0  0  0  0  0  0
   33.9790   29.9650   46.4600 C   0  0  0  0  0  0  0  0  0  0  0  0
   32.8380   29.3230   46.8220 N   0  0  0  0  0  0  0  0  0  0  0  0
   32.7880   28.4670   47.8610 C   0  0  0  0  0  0  0  0  0  0  0  0
   33.9010   28.2090   48.6000 N   0  0  0  0  0  0  0  0  0  0  0  0
   35.9510   28.6230   48.8630 H   0  0  0  0  0  0  0  0  0  0  0  0
   34.0570   30.6580   45.6330 H   0  0  0  0  0  0  0  0  0  0  0  0
   31.9020   27.9580   48.1550 H   0  0  0  0  0  0  0  0  0  0  0  0
   38.4820   32.7560   49.5040 C   0  0  2  0  0  3  0  0  0  0  0  0
   39.0580   32.6460   48.1080 C   0  0  2  0  0  3  0  0  0  0  0  0
   38.9450   33.9770   47.6780 O   0  0  0  0  0  0  0  0  0  0  0  0
   39.6150   34.6580   48.6940 C   0  0  0  0  0  2  0  0  0  0  0  0
   39.2110   34.0140   49.9930 C   0  0  2  0  0  3  0  0  0  0  0  0
   38.7510   31.6530   50.2970 O   0  0  0  0  0  0  0  0  0  0  0  0
   39.6700   31.5840   50.5990 H   0  0  0  0  0  0  0  0  0  0  0  0
   40.3600   33.5570   50.6490 O   0  0  0  0  0  0  0  0  0  0  0  0
   41.1850   33.7690   50.1340 H   0  0  0  0  0  0  0  0  0  0  0  0
  2  1  1  0  0  0  0
  3 12  1  0  0  0  0
  3  2  2  0  0  0  0
  4  3  1  0  0  0  0
  5  4  2  0  0  0  0
  5  6  1  0  0  0  0
  6  8  2  0  0  0  0
  7  6  1  0  0  0  0
  8  2  1  0  0  0  0
  9  4  1  0  0  0  0
 10  5  1  0  0  0  0
 11 16  1  0  0  0  0
 11 17  1  0  0  0  0
 12 11  2  0  0  0  0
 13 14  2  0  0  0  0
 13 12  1  0  0  0  0
 14 15  1  0  0  0  0
 15 19  1  0  0  0  0
 15 16  2  0  0  0  0
 18 13  1  0  0  0  0
 20 24  1  0  0  0  0
 20 25  1  1  0  0  0
 21  8  1  6  0  0  0
 21 20  1  0  0  0  0
 22 21  1  0  0  0  0
 22 23  1  0  0  0  0
 23 24  1  0  0  0  0
 24 27  1  1  0  0  0
 25 26  1  0  0  0  0
 28 27  1  0  0  0  0
M  END
>  <minimizedAffinity>
-2.94961715

>  <minimizedRMSD>
2.87077951

$$$$
