
 OpenBabel03262522443D

 35 38  0  0  1  0  0  0  0  0999 V2000
   39.0030   26.3720   35.2670 C   0  0  1  0  0  0  0  0  0  0  0  0
   38.2570   26.1820   36.5250 C   0  0  0  0  0  0  0  0  0  0  0  0
   38.4220   24.9950   35.7170 C   0  0  2  0  0  0  0  0  0  0  0  0
   40.0830   26.2570   35.1530 H   0  0  0  0  0  0  0  0  0  0  0  0
   37.2440   26.7030   36.5400 H   0  0  0  0  0  0  0  0  0  0  0  0
   38.8580   26.5240   37.3810 H   0  0  0  0  0  0  0  0  0  0  0  0
   37.8140   24.7120   34.8200 H   0  0  0  0  0  0  0  0  0  0  0  0
   38.0140   23.5430   38.4540 Cl  0  0  0  0  0  0  0  0  0  0  0  0
   39.3580   23.2370   37.3820 C   0  0  0  0  0  0  0  0  0  0  0  0
   39.3090   23.9370   36.1900 C   0  0  0  0  0  0  0  0  0  0  0  0
   40.3040   23.6690   35.2980 C   0  0  0  0  0  0  0  0  0  0  0  0
   41.3290   22.7310   35.5680 C   0  0  0  0  0  0  0  0  0  0  0  0
   41.3330   22.0510   36.7850 C   0  0  0  0  0  0  0  0  0  0  0  0
   42.5290   20.8430   37.2330 Cl  0  0  0  0  0  0  0  0  0  0  0  0
   40.3180   22.3270   37.6920 C   0  0  0  0  0  0  0  0  0  0  0  0
   40.4430   24.1080   34.3190 H   0  0  0  0  0  0  0  0  0  0  0  0
   42.1290   22.5010   34.8780 H   0  0  0  0  0  0  0  0  0  0  0  0
   40.2320   21.8570   38.6610 H   0  0  0  0  0  0  0  0  0  0  0  0
   37.0100   27.6700   34.3150 C   0  0  0  0  0  0  0  0  0  0  0  0
   38.3020   27.0420   34.1250 C   0  0  0  0  0  0  0  0  0  0  0  0
   38.8540   27.0430   32.8450 C   0  0  0  0  0  0  0  0  0  0  0  0
   38.1480   27.6380   31.8210 N   0  0  0  0  0  0  0  0  0  0  0  0
   36.9450   28.2090   32.0530 C   0  0  0  0  0  0  0  0  0  0  0  0
   36.3820   28.2280   33.2760 N   0  0  0  0  0  0  0  0  0  0  0  0
   36.5960   27.6610   35.3180 H   0  0  0  0  0  0  0  0  0  0  0  0
   39.8180   26.5740   32.7110 H   0  0  0  0  0  0  0  0  0  0  0  0
   37.2970   29.0400   29.7460 C   0  0  2  0  0  3  0  0  0  0  0  0
   36.3130   28.8070   30.8390 C   0  0  2  0  0  3  0  0  0  0  0  0
   35.6300   29.9680   31.1130 O   0  0  0  0  0  0  0  0  0  0  0  0
   36.2480   31.0130   30.4600 C   0  0  0  0  0  2  0  0  0  0  0  0
   37.1110   30.4840   29.3720 C   0  0  1  0  0  3  0  0  0  0  0  0
   37.0650   28.1920   28.6550 O   0  0  0  0  0  0  0  0  0  0  0  0
   37.1170   27.2700   29.0430 H   0  0  0  0  0  0  0  0  0  0  0  0
   38.3730   31.1000   29.4690 O   0  0  0  0  0  0  0  0  0  0  0  0
   39.1120   30.4410   29.4350 H   0  0  0  0  0  0  0  0  0  0  0  0
  1  4  1  1  0  0  0
  1  3  1  0  0  0  0
  1  2  1  0  0  0  0
  2  5  1  0  0  0  0
  2  6  1  0  0  0  0
  3  7  1  6  0  0  0
  3 10  1  0  0  0  0
  3  2  1  0  0  0  0
  9 15  1  0  0  0  0
  9  8  1  0  0  0  0
 10  9  2  0  0  0  0
 11 12  2  0  0  0  0
 11 10  1  0  0  0  0
 12 13  1  0  0  0  0
 13 14  1  0  0  0  0
 13 15  2  0  0  0  0
 15 18  1  0  0  0  0
 16 11  1  0  0  0  0
 17 12  1  0  0  0  0
 19 25  1  0  0  0  0
 20 19  1  0  0  0  0
 20  1  1  0  0  0  0
 21 20  2  0  0  0  0
 22 23  2  0  0  0  0
 22 21  1  0  0  0  0
 23 24  1  0  0  0  0
 24 19  2  0  0  0  0
 26 21  1  0  0  0  0
 27 32  1  6  0  0  0
 27 28  1  0  0  0  0
 28 29  1  0  0  0  0
 28 23  1  1  0  0  0
 30 29  1  0  0  0  0
 31 34  1  1  0  0  0
 31 27  1  0  0  0  0
 31 30  1  0  0  0  0
 32 33  1  0  0  0  0
 35 34  1  0  0  0  0
M  END
>  <minimizedAffinity>
-6.43415356

$$$$

 OpenBabel03262522443D

 35 38  0  0  1  0  0  0  0  0999 V2000
   36.7310   28.6360   33.8710 C   0  0  1  0  0  0  0  0  0  0  0  0
   35.5610   28.7090   32.9770 C   0  0  0  0  0  0  0  0  0  0  0  0
   35.2950   28.9900   34.3690 C   0  0  2  0  0  0  0  0  0  0  0  0
   37.3860   29.4750   34.1200 H   0  0  0  0  0  0  0  0  0  0  0  0
   35.2500   27.7010   32.5480 H   0  0  0  0  0  0  0  0  0  0  0  0
   35.7530   29.4140   32.1530 H   0  0  0  0  0  0  0  0  0  0  0  0
   35.1550   28.2350   35.1840 H   0  0  0  0  0  0  0  0  0  0  0  0
   32.6790   30.4290   33.4460 Cl  0  0  0  0  0  0  0  0  0  0  0  0
   33.9220   31.1930   34.4050 C   0  0  0  0  0  0  0  0  0  0  0  0
   34.9650   30.3560   34.7620 C   0  0  0  0  0  0  0  0  0  0  0  0
   35.9170   30.8980   35.5710 C   0  0  0  0  0  0  0  0  0  0  0  0
   35.8520   32.2390   36.0230 C   0  0  0  0  0  0  0  0  0  0  0  0
   34.7810   33.0420   35.6330 C   0  0  0  0  0  0  0  0  0  0  0  0
   34.5650   34.7100   36.1460 Cl  0  0  0  0  0  0  0  0  0  0  0  0
   33.8120   32.4860   34.8090 C   0  0  0  0  0  0  0  0  0  0  0  0
   36.8040   30.4140   35.9580 H   0  0  0  0  0  0  0  0  0  0  0  0
   36.5940   32.6930   36.6640 H   0  0  0  0  0  0  0  0  0  0  0  0
   32.9460   33.0230   34.4500 H   0  0  0  0  0  0  0  0  0  0  0  0
   37.8720   27.0630   35.5400 C   0  0  0  0  0  0  0  0  0  0  0  0
   37.2460   27.2820   34.2520 C   0  0  0  0  0  0  0  0  0  0  0  0
   37.1760   26.2100   33.3620 C   0  0  0  0  0  0  0  0  0  0  0  0
   37.7020   24.9960   33.7470 N   0  0  0  0  0  0  0  0  0  0  0  0
   38.2770   24.8460   34.9610 C   0  0  0  0  0  0  0  0  0  0  0  0
   38.3610   25.8570   35.8460 N   0  0  0  0  0  0  0  0  0  0  0  0
   37.9170   27.9070   36.2200 H   0  0  0  0  0  0  0  0  0  0  0  0
   36.7070   26.3810   32.4030 H   0  0  0  0  0  0  0  0  0  0  0  0
   38.3340   22.9280   36.5280 C   0  0  2  0  0  3  0  0  0  0  0  0
   38.7970   23.4710   35.2210 C   0  0  2  0  0  3  0  0  0  0  0  0
   40.1670   23.3970   35.1400 O   0  0  0  0  0  0  0  0  0  0  0  0
   40.6710   23.0760   36.3830 C   0  0  0  0  0  2  0  0  0  0  0  0
   39.5930   22.4930   37.2230 C   0  0  1  0  0  3  0  0  0  0  0  0
   37.4450   21.8580   36.3550 O   0  0  0  0  0  0  0  0  0  0  0  0
   36.7030   22.2410   35.8010 H   0  0  0  0  0  0  0  0  0  0  0  0
   39.6150   23.1340   38.4770 O   0  0  0  0  0  0  0  0  0  0  0  0
   38.7130   23.4410   38.7520 H   0  0  0  0  0  0  0  0  0  0  0  0
  1  4  1  6  0  0  0
  1 20  1  0  0  0  0
  1  3  1  0  0  0  0
  2  1  1  0  0  0  0
  2  3  1  0  0  0  0
  3 10  1  0  0  0  0
  3  7  1  1  0  0  0
  5  2  1  0  0  0  0
  6  2  1  0  0  0  0
  8  9  1  0  0  0  0
  9 10  2  0  0  0  0
  9 15  1  0  0  0  0
 10 11  1  0  0  0  0
 11 16  1  0  0  0  0
 11 12  2  0  0  0  0
 12 17  1  0  0  0  0
 13 12  1  0  0  0  0
 13 14  1  0  0  0  0
 15 13  2  0  0  0  0
 18 15  1  0  0  0  0
 19 24  1  0  0  0  0
 19 25  1  0  0  0  0
 20 19  2  0  0  0  0
 21 22  2  0  0  0  0
 21 20  1  0  0  0  0
 22 23  1  0  0  0  0
 23 24  2  0  0  0  0
 26 21  1  0  0  0  0
 27 32  1  6  0  0  0
 27 31  1  0  0  0  0
 28 23  1  1  0  0  0
 28 27  1  0  0  0  0
 29 28  1  0  0  0  0
 29 30  1  0  0  0  0
 30 31  1  0  0  0  0
 31 34  1  1  0  0  0
 33 32  1  0  0  0  0
 34 35  1  0  0  0  0
M  END
>  <minimizedAffinity>
-6.04493666

$$$$

 OpenBabel03262522443D

 35 38  0  0  1  0  0  0  0  0999 V2000
   37.2890   28.1460   34.0980 C   0  0  1  0  0  0  0  0  0  0  0  0
   36.3990   28.1790   32.9230 C   0  0  0  0  0  0  0  0  0  0  0  0
   35.7940   28.5860   34.1710 C   0  0  2  0  0  0  0  0  0  0  0  0
   37.9000   28.9820   34.4490 H   0  0  0  0  0  0  0  0  0  0  0  0
   36.1580   27.1480   32.5020 H   0  0  0  0  0  0  0  0  0  0  0  0
   36.8370   28.8060   32.1300 H   0  0  0  0  0  0  0  0  0  0  0  0
   35.4060   27.9070   34.9720 H   0  0  0  0  0  0  0  0  0  0  0  0
   33.7830   30.0950   32.3140 Cl  0  0  0  0  0  0  0  0  0  0  0  0
   34.6590   30.8550   33.6190 C   0  0  0  0  0  0  0  0  0  0  0  0
   35.4450   29.9900   34.3610 C   0  0  0  0  0  0  0  0  0  0  0  0
   36.0860   30.5340   35.4320 C   0  0  0  0  0  0  0  0  0  0  0  0
   35.9620   31.9030   35.7720 C   0  0  0  0  0  0  0  0  0  0  0  0
   35.1580   32.7330   34.9920 C   0  0  0  0  0  0  0  0  0  0  0  0
   34.8960   34.4400   35.3220 Cl  0  0  0  0  0  0  0  0  0  0  0  0
   34.5060   32.1750   33.9010 C   0  0  0  0  0  0  0  0  0  0  0  0
   36.7410   30.0310   36.1310 H   0  0  0  0  0  0  0  0  0  0  0  0
   36.4600   32.3590   36.6160 H   0  0  0  0  0  0  0  0  0  0  0  0
   33.8630   32.7310   33.2340 H   0  0  0  0  0  0  0  0  0  0  0  0
   38.0110   26.7050   36.0900 C   0  0  0  0  0  0  0  0  0  0  0  0
   37.6150   26.8130   34.7000 C   0  0  0  0  0  0  0  0  0  0  0  0
   37.5860   25.6510   33.9310 C   0  0  0  0  0  0  0  0  0  0  0  0
   37.9340   24.4570   34.5240 N   0  0  0  0  0  0  0  0  0  0  0  0
   38.2980   24.4120   35.8240 C   0  0  0  0  0  0  0  0  0  0  0  0
   38.3360   25.5130   36.5980 N   0  0  0  0  0  0  0  0  0  0  0  0
   38.0270   27.6190   36.6740 H   0  0  0  0  0  0  0  0  0  0  0  0
   37.2890   25.7390   32.8950 H   0  0  0  0  0  0  0  0  0  0  0  0
   39.5890   23.0750   37.4630 C   0  0  2  0  0  3  0  0  0  0  0  0
   38.6460   23.0430   36.3110 C   0  0  2  0  0  3  0  0  0  0  0  0
   39.1450   22.2370   35.3160 O   0  0  0  0  0  0  0  0  0  0  0  0
   40.4550   21.9240   35.6110 C   0  0  0  0  0  2  0  0  0  0  0  0
   40.7150   22.1670   37.0540 C   0  0  1  0  0  3  0  0  0  0  0  0
   38.9750   22.6340   38.6430 O   0  0  0  0  0  0  0  0  0  0  0  0
   38.1900   23.2470   38.7570 H   0  0  0  0  0  0  0  0  0  0  0  0
   41.9050   22.9100   37.1700 O   0  0  0  0  0  0  0  0  0  0  0  0
   41.7980   23.6940   37.7670 H   0  0  0  0  0  0  0  0  0  0  0  0
  1  3  1  0  0  0  0
  1  4  1  1  0  0  0
  1 20  1  0  0  0  0
  2  1  1  0  0  0  0
  2  3  1  0  0  0  0
  3 10  1  0  0  0  0
  3  7  1  1  0  0  0
  5  2  1  0  0  0  0
  6  2  1  0  0  0  0
  8  9  1  0  0  0  0
  9 15  2  0  0  0  0
  9 10  1  0  0  0  0
 10 11  2  0  0  0  0
 11 12  1  0  0  0  0
 11 16  1  0  0  0  0
 12 17  1  0  0  0  0
 13 14  1  0  0  0  0
 13 12  2  0  0  0  0
 15 13  1  0  0  0  0
 18 15  1  0  0  0  0
 19 24  1  0  0  0  0
 19 25  1  0  0  0  0
 20 19  2  0  0  0  0
 21 22  2  0  0  0  0
 21 20  1  0  0  0  0
 22 23  1  0  0  0  0
 23 24  2  0  0  0  0
 26 21  1  0  0  0  0
 27 32  1  1  0  0  0
 28 23  1  6  0  0  0
 28 27  1  0  0  0  0
 29 30  1  0  0  0  0
 29 28  1  0  0  0  0
 30 31  1  0  0  0  0
 31 34  1  6  0  0  0
 31 27  1  0  0  0  0
 32 33  1  0  0  0  0
 34 35  1  0  0  0  0
M  END
>  <minimizedAffinity>
-6.02443933

$$$$

 OpenBabel03262522443D

 35 38  0  0  1  0  0  0  0  0999 V2000
   38.9470   26.2150   35.1860 C   0  0  1  0  0  0  0  0  0  0  0  0
   38.1090   25.6350   36.2510 C   0  0  0  0  0  0  0  0  0  0  0  0
   38.6440   24.6880   35.3000 C   0  0  2  0  0  0  0  0  0  0  0  0
   40.0300   26.3450   35.2380 H   0  0  0  0  0  0  0  0  0  0  0  0
   37.0100   25.9280   36.1810 H   0  0  0  0  0  0  0  0  0  0  0  0
   38.5000   25.9170   37.2410 H   0  0  0  0  0  0  0  0  0  0  0  0
   38.2370   24.4700   34.2800 H   0  0  0  0  0  0  0  0  0  0  0  0
   41.0490   23.8630   33.4830 Cl  0  0  0  0  0  0  0  0  0  0  0  0
   40.7640   23.2060   35.0750 C   0  0  0  0  0  0  0  0  0  0  0  0
   39.6820   23.7600   35.7370 C   0  0  0  0  0  0  0  0  0  0  0  0
   39.4720   23.3230   37.0100 C   0  0  0  0  0  0  0  0  0  0  0  0
   40.3070   22.3600   37.6260 C   0  0  0  0  0  0  0  0  0  0  0  0
   41.3850   21.8320   36.9160 C   0  0  0  0  0  0  0  0  0  0  0  0
   42.5130   20.6540   37.5730 Cl  0  0  0  0  0  0  0  0  0  0  0  0
   41.5950   22.2790   35.6180 C   0  0  0  0  0  0  0  0  0  0  0  0
   38.6870   23.6290   37.6880 H   0  0  0  0  0  0  0  0  0  0  0  0
   40.1620   21.9960   38.6330 H   0  0  0  0  0  0  0  0  0  0  0  0
   42.3990   21.9330   34.9850 H   0  0  0  0  0  0  0  0  0  0  0  0
   37.0070   27.6270   34.2880 C   0  0  0  0  0  0  0  0  0  0  0  0
   38.2640   26.9410   34.0670 C   0  0  0  0  0  0  0  0  0  0  0  0
   38.7970   26.9400   32.7790 C   0  0  0  0  0  0  0  0  0  0  0  0
   38.1070   27.5890   31.7770 N   0  0  0  0  0  0  0  0  0  0  0  0
   36.9370   28.2120   32.0370 C   0  0  0  0  0  0  0  0  0  0  0  0
   36.3930   28.2350   33.2680 N   0  0  0  0  0  0  0  0  0  0  0  0
   36.6080   27.6190   35.2960 H   0  0  0  0  0  0  0  0  0  0  0  0
   39.7360   26.4270   32.6220 H   0  0  0  0  0  0  0  0  0  0  0  0
   37.2950   29.0570   29.7360 C   0  0  2  0  0  3  0  0  0  0  0  0
   36.3190   28.8640   30.8450 C   0  0  2  0  0  3  0  0  0  0  0  0
   35.7090   30.0580   31.1480 O   0  0  0  0  0  0  0  0  0  0  0  0
   36.3750   31.0770   30.4980 C   0  0  0  0  0  2  0  0  0  0  0  0
   37.1850   30.5150   29.3860 C   0  0  1  0  0  3  0  0  0  0  0  0
   36.9940   28.2410   28.6370 O   0  0  0  0  0  0  0  0  0  0  0  0
   36.9990   27.3110   29.0120 H   0  0  0  0  0  0  0  0  0  0  0  0
   38.4820   31.0560   29.4680 O   0  0  0  0  0  0  0  0  0  0  0  0
   39.1820   30.3560   29.4100 H   0  0  0  0  0  0  0  0  0  0  0  0
  1  4  1  1  0  0  0
  1  3  1  0  0  0  0
  1  2  1  0  0  0  0
  2  6  1  0  0  0  0
  3  7  1  6  0  0  0
  3 10  1  0  0  0  0
  3  2  1  0  0  0  0
  5  2  1  0  0  0  0
  8  9  1  0  0  0  0
  9 15  2  0  0  0  0
  9 10  1  0  0  0  0
 10 11  2  0  0  0  0
 11 12  1  0  0  0  0
 11 16  1  0  0  0  0
 12 17  1  0  0  0  0
 13 14  1  0  0  0  0
 13 12  2  0  0  0  0
 15 13  1  0  0  0  0
 18 15  1  0  0  0  0
 19 25  1  0  0  0  0
 20 19  1  0  0  0  0
 20  1  1  0  0  0  0
 21 20  2  0  0  0  0
 22 23  2  0  0  0  0
 22 21  1  0  0  0  0
 23 24  1  0  0  0  0
 24 19  2  0  0  0  0
 26 21  1  0  0  0  0
 27 32  1  6  0  0  0
 27 28  1  0  0  0  0
 28 29  1  0  0  0  0
 28 23  1  1  0  0  0
 30 29  1  0  0  0  0
 31 34  1  1  0  0  0
 31 27  1  0  0  0  0
 31 30  1  0  0  0  0
 32 33  1  0  0  0  0
 35 34  1  0  0  0  0
M  END
>  <minimizedAffinity>
-5.98048353

$$$$

 OpenBabel03262522443D

 35 38  0  0  1  0  0  0  0  0999 V2000
   36.8250   27.5790   32.4210 C   0  0  1  0  0  0  0  0  0  0  0  0
   38.1040   27.1040   32.9810 C   0  0  0  0  0  0  0  0  0  0  0  0
   36.9750   26.2230   33.1790 C   0  0  2  0  0  0  0  0  0  0  0  0
   36.4580   27.3600   31.4160 H   0  0  0  0  0  0  0  0  0  0  0  0
   38.4800   27.7270   33.8580 H   0  0  0  0  0  0  0  0  0  0  0  0
   38.8760   27.0730   32.1960 H   0  0  0  0  0  0  0  0  0  0  0  0
   36.1850   26.3250   33.9660 H   0  0  0  0  0  0  0  0  0  0  0  0
   34.7360   25.5460   31.1080 Cl  0  0  0  0  0  0  0  0  0  0  0  0
   36.0000   24.4340   31.5710 C   0  0  0  0  0  0  0  0  0  0  0  0
   36.9300   24.9600   32.4510 C   0  0  0  0  0  0  0  0  0  0  0  0
   37.9710   24.1450   32.7780 C   0  0  0  0  0  0  0  0  0  0  0  0
   38.1010   22.8360   32.2530 C   0  0  0  0  0  0  0  0  0  0  0  0
   37.1360   22.3530   31.3700 C   0  0  0  0  0  0  0  0  0  0  0  0
   37.1930   20.7610   30.6260 Cl  0  0  0  0  0  0  0  0  0  0  0  0
   36.0750   23.1870   31.0390 C   0  0  0  0  0  0  0  0  0  0  0  0
   38.7950   24.3660   33.4440 H   0  0  0  0  0  0  0  0  0  0  0  0
   38.9160   22.1700   32.4970 H   0  0  0  0  0  0  0  0  0  0  0  0
   35.2770   22.9070   30.3670 H   0  0  0  0  0  0  0  0  0  0  0  0
   35.0640   29.4390   32.4880 C   0  0  0  0  0  0  0  0  0  0  0  0
   36.0950   28.6650   33.1510 C   0  0  0  0  0  0  0  0  0  0  0  0
   36.4170   28.9880   34.4690 C   0  0  0  0  0  0  0  0  0  0  0  0
   35.7430   30.0230   35.0790 N   0  0  0  0  0  0  0  0  0  0  0  0
   34.7900   30.7140   34.4150 C   0  0  0  0  0  0  0  0  0  0  0  0
   34.4520   30.4300   33.1430 N   0  0  0  0  0  0  0  0  0  0  0  0
   34.8260   29.1740   31.4640 H   0  0  0  0  0  0  0  0  0  0  0  0
   37.1860   28.4060   34.9570 H   0  0  0  0  0  0  0  0  0  0  0  0
   34.1370   31.4920   36.6750 C   0  0  2  0  0  3  0  0  0  0  0  0
   34.1580   31.8030   35.2180 C   0  0  2  0  0  3  0  0  0  0  0  0
   32.8920   32.1160   34.7850 O   0  0  0  0  0  0  0  0  0  0  0  0
   31.9900   31.8020   35.7800 C   0  0  0  0  0  2  0  0  0  0  0  0
   32.7020   31.6790   37.0790 C   0  0  1  0  0  3  0  0  0  0  0  0
   34.9890   32.3400   37.3940 O   0  0  0  0  0  0  0  0  0  0  0  0
   35.8880   32.2030   36.9740 H   0  0  0  0  0  0  0  0  0  0  0  0
   32.2890   30.4830   37.6970 O   0  0  0  0  0  0  0  0  0  0  0  0
   33.0580   29.9430   38.0130 H   0  0  0  0  0  0  0  0  0  0  0  0
  1  4  1  6  0  0  0
  1  2  1  0  0  0  0
  1 20  1  0  0  0  0
  1  3  1  0  0  0  0
  2  3  1  0  0  0  0
  2  5  1  0  0  0  0
  3  7  1  1  0  0  0
  6  2  1  0  0  0  0
  8  9  1  0  0  0  0
  9 10  1  0  0  0  0
 10 11  2  0  0  0  0
 10  3  1  0  0  0  0
 11 16  1  0  0  0  0
 12 17  1  0  0  0  0
 12 11  1  0  0  0  0
 13 12  2  0  0  0  0
 14 13  1  0  0  0  0
 15 13  1  0  0  0  0
 15  9  2  0  0  0  0
 18 15  1  0  0  0  0
 19 24  2  0  0  0  0
 19 20  1  0  0  0  0
 20 21  2  0  0  0  0
 21 26  1  0  0  0  0
 21 22  1  0  0  0  0
 23 22  2  0  0  0  0
 24 23  1  0  0  0  0
 25 19  1  0  0  0  0
 27 31  1  0  0  0  0
 27 32  1  1  0  0  0
 28 23  1  6  0  0  0
 28 27  1  0  0  0  0
 29 28  1  0  0  0  0
 29 30  1  0  0  0  0
 30 31  1  0  0  0  0
 31 34  1  6  0  0  0
 33 32  1  0  0  0  0
 34 35  1  0  0  0  0
M  END
>  <minimizedAffinity>
-5.77313375

$$$$

 OpenBabel03262522443D

 35 38  0  0  1  0  0  0  0  0999 V2000
   34.7190   29.9990   33.6050 C   0  0  1  0  0  0  0  0  0  0  0  0
   33.2540   29.8790   33.7190 C   0  0  0  0  0  0  0  0  0  0  0  0
   33.9650   29.9990   34.9710 C   0  0  2  0  0  0  0  0  0  0  0  0
   35.2690   30.9400   33.5280 H   0  0  0  0  0  0  0  0  0  0  0  0
   32.8530   28.8590   33.4070 H   0  0  0  0  0  0  0  0  0  0  0  0
   32.7590   30.6640   33.1270 H   0  0  0  0  0  0  0  0  0  0  0  0
   34.4980   29.1770   35.5130 H   0  0  0  0  0  0  0  0  0  0  0  0
   36.4280   31.6630   35.9390 Cl  0  0  0  0  0  0  0  0  0  0  0  0
   34.7730   32.0580   36.3310 C   0  0  0  0  0  0  0  0  0  0  0  0
   33.8320   31.2300   35.7420 C   0  0  0  0  0  0  0  0  0  0  0  0
   32.5280   31.5530   35.9670 C   0  0  0  0  0  0  0  0  0  0  0  0
   32.1500   32.6670   36.7550 C   0  0  0  0  0  0  0  0  0  0  0  0
   33.1360   33.4690   37.3260 C   0  0  0  0  0  0  0  0  0  0  0  0
   32.8020   34.8960   38.2990 Cl  0  0  0  0  0  0  0  0  0  0  0  0
   34.4650   33.1380   37.0950 C   0  0  0  0  0  0  0  0  0  0  0  0
   31.6510   31.0360   35.6010 H   0  0  0  0  0  0  0  0  0  0  0  0
   31.1230   32.9440   36.9490 H   0  0  0  0  0  0  0  0  0  0  0  0
   35.3020   33.6930   37.4920 H   0  0  0  0  0  0  0  0  0  0  0  0
   36.4400   28.2130   34.2470 C   0  0  0  0  0  0  0  0  0  0  0  0
   35.5060   28.7650   33.2860 C   0  0  0  0  0  0  0  0  0  0  0  0
   35.3940   28.1420   32.0440 C   0  0  0  0  0  0  0  0  0  0  0  0
   36.1710   27.0330   31.7870 N   0  0  0  0  0  0  0  0  0  0  0  0
   37.0280   26.5600   32.7190 C   0  0  0  0  0  0  0  0  0  0  0  0
   37.1620   27.1340   33.9290 N   0  0  0  0  0  0  0  0  0  0  0  0
   36.5140   28.7100   35.2080 H   0  0  0  0  0  0  0  0  0  0  0  0
   34.6950   28.5580   31.3320 H   0  0  0  0  0  0  0  0  0  0  0  0
   37.0530   24.5460   31.2770 C   0  0  2  0  0  3  0  0  0  0  0  0
   37.7950   25.3560   32.2820 C   0  0  2  0  0  3  0  0  0  0  0  0
   38.1800   24.5600   33.3350 O   0  0  0  0  0  0  0  0  0  0  0  0
   37.5450   23.3410   33.2290 C   0  0  0  0  0  2  0  0  0  0  0  0
   37.0550   23.1520   31.8390 C   0  0  1  0  0  3  0  0  0  0  0  0
   37.6700   24.5950   30.0190 O   0  0  0  0  0  0  0  0  0  0  0  0
   37.7000   25.5710   29.7970 H   0  0  0  0  0  0  0  0  0  0  0  0
   35.7130   22.7290   31.8970 O   0  0  0  0  0  0  0  0  0  0  0  0
   35.1310   23.2570   31.2940 H   0  0  0  0  0  0  0  0  0  0  0  0
  1  4  1  6  0  0  0
  1  2  1  0  0  0  0
  1  3  1  0  0  0  0
  2  3  1  0  0  0  0
  3  7  1  1  0  0  0
  3 10  1  0  0  0  0
  5  2  1  0  0  0  0
  6  2  1  0  0  0  0
  8  9  1  0  0  0  0
  9 15  1  0  0  0  0
 10 11  1  0  0  0  0
 10  9  2  0  0  0  0
 11 12  2  0  0  0  0
 12 17  1  0  0  0  0
 12 13  1  0  0  0  0
 13 14  1  0  0  0  0
 15 13  2  0  0  0  0
 15 18  1  0  0  0  0
 16 11  1  0  0  0  0
 19 25  1  0  0  0  0
 20  1  1  0  0  0  0
 20 19  2  0  0  0  0
 21 20  1  0  0  0  0
 22 21  2  0  0  0  0
 22 23  1  0  0  0  0
 23 24  2  0  0  0  0
 24 19  1  0  0  0  0
 26 21  1  0  0  0  0
 27 32  1  6  0  0  0
 27 31  1  0  0  0  0
 27 28  1  0  0  0  0
 28 23  1  1  0  0  0
 28 29  1  0  0  0  0
 30 29  1  0  0  0  0
 31 34  1  1  0  0  0
 31 30  1  0  0  0  0
 33 32  1  0  0  0  0
 35 34  1  0  0  0  0
M  END
>  <minimizedAffinity>
-5.64290905

$$$$

 OpenBabel03262522443D

 35 38  0  0  1  0  0  0  0  0999 V2000
   38.5570   26.5790   35.2900 C   0  0  1  0  0  0  0  0  0  0  0  0
   38.3380   26.5550   36.7470 C   0  0  0  0  0  0  0  0  0  0  0  0
   38.1010   25.3040   36.0640 C   0  0  2  0  0  0  0  0  0  0  0  0
   39.5020   26.3470   34.7910 H   0  0  0  0  0  0  0  0  0  0  0  0
   37.4460   27.1760   37.0870 H   0  0  0  0  0  0  0  0  0  0  0  0
   39.2430   26.8930   37.2760 H   0  0  0  0  0  0  0  0  0  0  0  0
   37.1780   25.0230   35.4960 H   0  0  0  0  0  0  0  0  0  0  0  0
   38.0090   23.4850   38.6040 Cl  0  0  0  0  0  0  0  0  0  0  0  0
   39.2110   23.3390   37.3470 C   0  0  0  0  0  0  0  0  0  0  0  0
   39.0270   24.1970   36.2770 C   0  0  0  0  0  0  0  0  0  0  0  0
   39.9050   24.0610   35.2440 C   0  0  0  0  0  0  0  0  0  0  0  0
   40.9460   23.1010   35.2570 C   0  0  0  0  0  0  0  0  0  0  0  0
   41.0890   22.2600   36.3600 C   0  0  0  0  0  0  0  0  0  0  0  0
   42.3180   21.0090   36.4900 Cl  0  0  0  0  0  0  0  0  0  0  0  0
   40.1930   22.4020   37.4120 C   0  0  0  0  0  0  0  0  0  0  0  0
   39.9310   24.6310   34.3250 H   0  0  0  0  0  0  0  0  0  0  0  0
   41.6550   22.9740   34.4510 H   0  0  0  0  0  0  0  0  0  0  0  0
   40.2190   21.8020   38.3100 H   0  0  0  0  0  0  0  0  0  0  0  0
   37.2880   26.7830   33.0740 C   0  0  0  0  0  0  0  0  0  0  0  0
   37.5200   27.2360   34.4310 C   0  0  0  0  0  0  0  0  0  0  0  0
   36.7830   28.3240   34.8980 C   0  0  0  0  0  0  0  0  0  0  0  0
   35.8710   28.9160   34.0520 N   0  0  0  0  0  0  0  0  0  0  0  0
   35.6940   28.4550   32.7940 C   0  0  0  0  0  0  0  0  0  0  0  0
   36.3860   27.4070   32.3100 N   0  0  0  0  0  0  0  0  0  0  0  0
   37.8680   25.9350   32.7280 H   0  0  0  0  0  0  0  0  0  0  0  0
   36.9620   28.6560   35.9110 H   0  0  0  0  0  0  0  0  0  0  0  0
   35.0600   30.6290   31.7900 C   0  0  2  0  0  3  0  0  0  0  0  0
   34.6710   29.2080   32.0090 C   0  0  2  0  0  3  0  0  0  0  0  0
   33.4180   29.1440   32.5700 O   0  0  0  0  0  0  0  0  0  0  0  0
   33.0420   30.4100   32.9670 C   0  0  0  0  0  2  0  0  0  0  0  0
   33.8750   31.4220   32.2670 C   0  0  1  0  0  3  0  0  0  0  0  0
   35.3410   30.8840   30.4410 O   0  0  0  0  0  0  0  0  0  0  0  0
   36.0700   30.2350   30.2140 H   0  0  0  0  0  0  0  0  0  0  0  0
   34.3520   32.3390   33.2230 O   0  0  0  0  0  0  0  0  0  0  0  0
   35.3280   32.4900   33.1390 H   0  0  0  0  0  0  0  0  0  0  0  0
  1  4  1  6  0  0  0
  1  3  1  0  0  0  0
  1  2  1  0  0  0  0
  2  5  1  0  0  0  0
  2  6  1  0  0  0  0
  3  7  1  6  0  0  0
  3 10  1  0  0  0  0
  3  2  1  0  0  0  0
  9 15  1  0  0  0  0
  9  8  1  0  0  0  0
 10  9  2  0  0  0  0
 11 12  2  0  0  0  0
 11 10  1  0  0  0  0
 12 13  1  0  0  0  0
 13 14  1  0  0  0  0
 13 15  2  0  0  0  0
 15 18  1  0  0  0  0
 16 11  1  0  0  0  0
 17 12  1  0  0  0  0
 19 20  1  0  0  0  0
 20 21  2  0  0  0  0
 20  1  1  0  0  0  0
 21 26  1  0  0  0  0
 22 21  1  0  0  0  0
 23 22  2  0  0  0  0
 24 23  1  0  0  0  0
 24 19  2  0  0  0  0
 25 19  1  0  0  0  0
 27 32  1  6  0  0  0
 27 28  1  0  0  0  0
 27 31  1  0  0  0  0
 28 29  1  0  0  0  0
 28 23  1  1  0  0  0
 29 30  1  0  0  0  0
 31 30  1  0  0  0  0
 31 34  1  1  0  0  0
 33 32  1  0  0  0  0
 35 34  1  0  0  0  0
M  END
>  <minimizedAffinity>
-5.60694408

$$$$

 OpenBabel03262522443D

 35 38  0  0  1  0  0  0  0  0999 V2000
   37.2470   27.9020   32.7850 C   0  0  1  0  0  0  0  0  0  0  0  0
   36.3460   27.7860   31.6240 C   0  0  0  0  0  0  0  0  0  0  0  0
   35.7770   28.4240   32.7890 C   0  0  2  0  0  0  0  0  0  0  0  0
   37.9030   28.7520   32.9900 H   0  0  0  0  0  0  0  0  0  0  0  0
   36.0480   26.7130   31.3810 H   0  0  0  0  0  0  0  0  0  0  0  0
   36.8050   28.2490   30.7370 H   0  0  0  0  0  0  0  0  0  0  0  0
   35.3650   27.9090   33.6940 H   0  0  0  0  0  0  0  0  0  0  0  0
   36.0360   30.2760   35.2940 Cl  0  0  0  0  0  0  0  0  0  0  0  0
   35.4720   30.8230   33.7350 C   0  0  0  0  0  0  0  0  0  0  0  0
   35.5000   29.8560   32.7440 C   0  0  0  0  0  0  0  0  0  0  0  0
   35.1360   30.2670   31.4970 C   0  0  0  0  0  0  0  0  0  0  0  0
   34.7490   31.6010   31.2230 C   0  0  0  0  0  0  0  0  0  0  0  0
   34.7370   32.5370   32.2560 C   0  0  0  0  0  0  0  0  0  0  0  0
   34.3060   34.2290   32.0450 Cl  0  0  0  0  0  0  0  0  0  0  0  0
   35.1090   32.1150   33.5260 C   0  0  0  0  0  0  0  0  0  0  0  0
   35.0920   29.6690   30.5960 H   0  0  0  0  0  0  0  0  0  0  0  0
   34.4550   31.9510   30.2440 H   0  0  0  0  0  0  0  0  0  0  0  0
   35.1310   32.7600   34.3920 H   0  0  0  0  0  0  0  0  0  0  0  0
   37.6720   26.7570   35.0370 C   0  0  0  0  0  0  0  0  0  0  0  0
   37.5130   26.6730   33.5990 C   0  0  0  0  0  0  0  0  0  0  0  0
   37.6550   25.4260   32.9920 C   0  0  0  0  0  0  0  0  0  0  0  0
   37.9400   24.3340   33.7830 N   0  0  0  0  0  0  0  0  0  0  0  0
   38.0800   24.4680   35.1200 C   0  0  0  0  0  0  0  0  0  0  0  0
   37.9480   25.6550   35.7410 N   0  0  0  0  0  0  0  0  0  0  0  0
   37.5570   27.7340   35.4930 H   0  0  0  0  0  0  0  0  0  0  0  0
   37.5350   25.3710   31.9190 H   0  0  0  0  0  0  0  0  0  0  0  0
   37.8080   23.1500   37.2010 C   0  0  2  0  0  3  0  0  0  0  0  0
   38.3880   23.1900   35.8290 C   0  0  2  0  0  3  0  0  0  0  0  0
   39.7360   22.9220   35.8800 O   0  0  0  0  0  0  0  0  0  0  0  0
   40.1460   22.9480   37.1970 C   0  0  0  0  0  2  0  0  0  0  0  0
   38.9680   22.8010   38.0910 C   0  0  1  0  0  3  0  0  0  0  0  0
   36.7810   22.2020   37.2980 O   0  0  0  0  0  0  0  0  0  0  0  0
   36.1210   22.4800   36.5970 H   0  0  0  0  0  0  0  0  0  0  0  0
   39.0400   23.7970   39.0830 O   0  0  0  0  0  0  0  0  0  0  0  0
   38.1840   24.2860   39.1820 H   0  0  0  0  0  0  0  0  0  0  0  0
  1  3  1  0  0  0  0
  1  4  1  6  0  0  0
  1 20  1  0  0  0  0
  2  1  1  0  0  0  0
  2  3  1  0  0  0  0
  3  7  1  1  0  0  0
  5  2  1  0  0  0  0
  6  2  1  0  0  0  0
  9  8  1  0  0  0  0
 10  3  1  0  0  0  0
 10  9  2  0  0  0  0
 11 10  1  0  0  0  0
 12 11  2  0  0  0  0
 12 13  1  0  0  0  0
 13 15  2  0  0  0  0
 14 13  1  0  0  0  0
 15  9  1  0  0  0  0
 15 18  1  0  0  0  0
 16 11  1  0  0  0  0
 17 12  1  0  0  0  0
 19 25  1  0  0  0  0
 19 24  1  0  0  0  0
 20 19  2  0  0  0  0
 21 20  1  0  0  0  0
 21 22  2  0  0  0  0
 22 23  1  0  0  0  0
 23 24  2  0  0  0  0
 26 21  1  0  0  0  0
 27 32  1  6  0  0  0
 27 31  1  0  0  0  0
 28 23  1  1  0  0  0
 28 29  1  0  0  0  0
 28 27  1  0  0  0  0
 29 30  1  0  0  0  0
 30 31  1  0  0  0  0
 31 34  1  1  0  0  0
 33 32  1  0  0  0  0
 34 35  1  0  0  0  0
M  END
>  <minimizedAffinity>
-5.50973654

$$$$

 OpenBabel03262522443D

 35 38  0  0  1  0  0  0  0  0999 V2000
   36.2340   27.9620   31.0320 C   0  0  1  0  0  0  0  0  0  0  0  0
   37.4580   27.8280   30.2210 C   0  0  0  0  0  0  0  0  0  0  0  0
   37.4160   27.0190   31.4190 C   0  0  2  0  0  0  0  0  0  0  0  0
   35.3370   27.3460   30.9250 H   0  0  0  0  0  0  0  0  0  0  0  0
   38.1050   28.7650   30.2100 H   0  0  0  0  0  0  0  0  0  0  0  0
   37.2030   27.5460   29.1880 H   0  0  0  0  0  0  0  0  0  0  0  0
   37.6380   27.3650   32.4600 H   0  0  0  0  0  0  0  0  0  0  0  0
   39.7720   25.1750   30.5150 Cl  0  0  0  0  0  0  0  0  0  0  0  0
   38.1540   24.6000   30.8320 C   0  0  0  0  0  0  0  0  0  0  0  0
   37.2810   25.5730   31.2890 C   0  0  0  0  0  0  0  0  0  0  0  0
   36.0290   25.1460   31.6160 C   0  0  0  0  0  0  0  0  0  0  0  0
   35.6370   23.7910   31.4980 C   0  0  0  0  0  0  0  0  0  0  0  0
   36.5550   22.8500   31.0330 C   0  0  0  0  0  0  0  0  0  0  0  0
   36.2060   21.1340   30.8680 Cl  0  0  0  0  0  0  0  0  0  0  0  0
   37.8300   23.2880   30.7000 C   0  0  0  0  0  0  0  0  0  0  0  0
   35.2080   25.7440   31.9880 H   0  0  0  0  0  0  0  0  0  0  0  0
   34.6510   23.4270   31.7510 H   0  0  0  0  0  0  0  0  0  0  0  0
   38.6110   22.6410   30.3290 H   0  0  0  0  0  0  0  0  0  0  0  0
   35.5340   29.1130   33.2110 C   0  0  0  0  0  0  0  0  0  0  0  0
   36.0720   29.1940   31.8680 C   0  0  0  0  0  0  0  0  0  0  0  0
   36.3940   30.4530   31.3620 C   0  0  0  0  0  0  0  0  0  0  0  0
   36.1880   31.5590   32.1590 N   0  0  0  0  0  0  0  0  0  0  0  0
   35.6810   31.4270   33.4050 C   0  0  0  0  0  0  0  0  0  0  0  0
   35.3600   30.2280   33.9270 N   0  0  0  0  0  0  0  0  0  0  0  0
   35.2900   28.1260   33.5890 H   0  0  0  0  0  0  0  0  0  0  0  0
   36.7960   30.5060   30.3600 H   0  0  0  0  0  0  0  0  0  0  0  0
   36.1910   32.7090   35.4630 C   0  0  2  0  0  3  0  0  0  0  0  0
   35.5180   32.7200   34.1340 C   0  0  2  0  0  3  0  0  0  0  0  0
   34.2020   33.0880   34.2760 O   0  0  0  0  0  0  0  0  0  0  0  0
   33.8810   33.0850   35.6170 C   0  0  0  0  0  2  0  0  0  0  0  0
   35.1240   33.1390   36.4290 C   0  0  1  0  0  3  0  0  0  0  0  0
   37.2910   33.5770   35.4900 O   0  0  0  0  0  0  0  0  0  0  0  0
   37.8790   33.2540   34.7460 H   0  0  0  0  0  0  0  0  0  0  0  0
   35.0450   32.1460   37.4240 O   0  0  0  0  0  0  0  0  0  0  0  0
   35.8670   31.5930   37.4640 H   0  0  0  0  0  0  0  0  0  0  0  0
  1  4  1  6  0  0  0
  1  3  1  0  0  0  0
  1 20  1  0  0  0  0
  2  1  1  0  0  0  0
  2  3  1  0  0  0  0
  3  7  1  1  0  0  0
  5  2  1  0  0  0  0
  6  2  1  0  0  0  0
  8  9  1  0  0  0  0
  9 10  1  0  0  0  0
 10  3  1  0  0  0  0
 10 11  2  0  0  0  0
 11 16  1  0  0  0  0
 12 11  1  0  0  0  0
 12 17  1  0  0  0  0
 13 12  2  0  0  0  0
 14 13  1  0  0  0  0
 15  9  2  0  0  0  0
 15 13  1  0  0  0  0
 18 15  1  0  0  0  0
 19 25  1  0  0  0  0
 19 24  1  0  0  0  0
 20 19  2  0  0  0  0
 21 20  1  0  0  0  0
 21 22  2  0  0  0  0
 22 23  1  0  0  0  0
 23 24  2  0  0  0  0
 26 21  1  0  0  0  0
 27 32  1  6  0  0  0
 27 31  1  0  0  0  0
 28 23  1  1  0  0  0
 28 29  1  0  0  0  0
 28 27  1  0  0  0  0
 29 30  1  0  0  0  0
 30 31  1  0  0  0  0
 31 34  1  1  0  0  0
 33 32  1  0  0  0  0
 34 35  1  0  0  0  0
M  END
>  <minimizedAffinity>
-5.50744152

$$$$
