
 OpenBabel03272504513D

 42 45  0  0  1  0  0  0  0  0999 V2000
   36.6430   28.4860   32.4540 N   0  0  0  0  0  0  0  0  0  0  0  0
   36.9830   28.1970   31.0650 C   0  0  0  0  0  0  0  0  0  0  0  0
   36.6150   29.2890   30.1220 C   0  0  0  0  0  0  0  0  0  0  0  0
   36.7740   30.6470   30.7530 C   0  0  0  0  0  0  0  0  0  0  0  0
   35.7760   30.7070   31.8740 C   0  0  0  0  0  0  0  0  0  0  0  0
   35.9120   29.6230   32.9030 C   0  0  1  0  0  0  0  0  0  0  0  0
   38.0980   28.1040   31.0540 H   0  0  0  0  0  0  0  0  0  0  0  0
   36.5660   27.2210   30.7960 H   0  0  0  0  0  0  0  0  0  0  0  0
   37.2820   29.2400   29.2290 H   0  0  0  0  0  0  0  0  0  0  0  0
   35.5750   29.1550   29.7980 H   0  0  0  0  0  0  0  0  0  0  0  0
   37.8000   30.8730   31.0480 H   0  0  0  0  0  0  0  0  0  0  0  0
   36.4500   31.3910   30.0020 H   0  0  0  0  0  0  0  0  0  0  0  0
   35.9240   31.6890   32.3670 H   0  0  0  0  0  0  0  0  0  0  0  0
   34.7740   30.7610   31.3960 H   0  0  0  0  0  0  0  0  0  0  0  0
   36.3280   30.0480   33.8490 H   0  0  0  0  0  0  0  0  0  0  0  0
   37.3620   27.8820   34.7200 C   0  0  0  0  0  0  0  0  0  0  0  0
   37.0950   27.5290   33.4030 C   0  0  0  0  0  0  0  0  0  0  0  0
   37.2920   26.2050   33.0580 C   0  0  0  0  0  0  0  0  0  0  0  0
   37.7280   25.3330   34.0130 N   0  0  0  0  0  0  0  0  0  0  0  0
   37.9750   25.6990   35.2660 C   0  0  0  0  0  0  0  0  0  0  0  0
   37.7900   26.9830   35.6180 N   0  0  0  0  0  0  0  0  0  0  0  0
   37.2310   28.8940   35.0570 H   0  0  0  0  0  0  0  0  0  0  0  0
   37.1240   25.8130   32.0920 H   0  0  0  0  0  0  0  0  0  0  0  0
   38.4370   24.7460   36.2470 C   0  0  0  0  0  0  0  0  0  0  0  0
   37.8730   24.7150   37.5070 C   0  0  0  0  0  0  0  0  0  0  0  0
   38.2560   23.8400   38.4940 C   0  0  0  0  0  0  0  0  0  0  0  0
   39.2540   22.9830   38.1370 C   0  0  0  0  0  0  0  0  0  0  0  0
   39.8720   22.9660   36.8610 C   0  0  0  0  0  0  0  0  0  0  0  0
   39.4240   23.8790   35.9360 N   0  0  0  0  0  0  0  0  0  0  0  0
   37.0750   25.4450   37.7010 H   0  0  0  0  0  0  0  0  0  0  0  0
   37.8110   23.8280   39.4620 H   0  0  0  0  0  0  0  0  0  0  0  0
   39.6450   22.2410   38.8360 H   0  0  0  0  0  0  0  0  0  0  0  0
   40.6600   22.2640   36.6300 H   0  0  0  0  0  0  0  0  0  0  0  0
   33.9400   29.6360   34.4800 C   0  0  2  0  0  3  0  0  0  0  0  0
   34.4830   29.1580   33.1850 C   0  0  1  0  0  3  0  0  0  0  0  0
   33.7100   29.6260   32.1420 O   0  0  0  0  0  0  0  0  0  0  0  0
   32.6290   30.3140   32.6240 C   0  0  0  0  0  2  0  0  0  0  0  0
   32.6770   30.3660   34.1100 C   0  0  2  0  0  3  0  0  0  0  0  0
   34.7860   30.3900   35.2550 O   0  0  0  0  0  0  0  0  0  0  0  0
   35.3270   29.8370   35.8630 H   0  0  0  0  0  0  0  0  0  0  0  0
   32.7240   31.6600   34.6410 O   0  0  0  0  0  0  0  0  0  0  0  0
   32.8690   31.5400   35.6080 H   0  0  0  0  0  0  0  0  0  0  0  0
  1  6  1  0  0  0  0
  1 17  1  0  0  0  0
  2  1  1  0  0  0  0
  3  4  1  0  0  0  0
  3  2  1  0  0  0  0
  4 11  1  0  0  0  0
  4  5  1  0  0  0  0
  5 13  1  0  0  0  0
  5  6  1  0  0  0  0
  6 35  1  0  0  0  0
  6 15  1  1  0  0  0
  7  2  1  0  0  0  0
  8  2  1  0  0  0  0
  9  3  1  0  0  0  0
 10  3  1  0  0  0  0
 12  4  1  0  0  0  0
 14  5  1  0  0  0  0
 16 22  1  0  0  0  0
 16 21  1  0  0  0  0
 17 16  2  0  0  0  0
 18 17  1  0  0  0  0
 18 19  2  0  0  0  0
 19 20  1  0  0  0  0
 20 21  2  0  0  0  0
 20 24  1  0  0  0  0
 23 18  1  0  0  0  0
 24 25  1  0  0  0  0
 25 30  1  0  0  0  0
 25 26  2  0  0  0  0
 26 31  1  0  0  0  0
 27 26  1  0  0  0  0
 27 32  1  0  0  0  0
 28 27  2  0  0  0  0
 29 24  2  0  0  0  0
 29 28  1  0  0  0  0
 33 28  1  0  0  0  0
 34 39  1  6  0  0  0
 35 36  1  6  0  0  0
 35 34  1  0  0  0  0
 36 37  1  0  0  0  0
 37 38  1  0  0  0  0
 38 34  1  0  0  0  0
 38 41  1  6  0  0  0
 39 40  1  0  0  0  0
 41 42  1  0  0  0  0
M  END
>  <minimizedAffinity>
-5.82731104

$$$$

 OpenBabel03272504513D

 42 45  0  0  1  0  0  0  0  0999 V2000
   36.2680   28.3080   33.5760 N   0  0  0  0  0  0  0  0  0  0  0  0
   35.7020   29.2900   34.4950 C   0  0  0  0  0  0  0  0  0  0  0  0
   34.7840   30.2600   33.8380 C   0  0  0  0  0  0  0  0  0  0  0  0
   34.0040   29.6190   32.7200 C   0  0  0  0  0  0  0  0  0  0  0  0
   35.0120   29.2250   31.6780 C   0  0  0  0  0  0  0  0  0  0  0  0
   36.0980   28.3100   32.1620 C   0  0  1  0  0  0  0  0  0  0  0  0
   35.0970   28.6910   35.2200 H   0  0  0  0  0  0  0  0  0  0  0  0
   36.5180   29.7610   35.0530 H   0  0  0  0  0  0  0  0  0  0  0  0
   34.0570   30.6430   34.5930 H   0  0  0  0  0  0  0  0  0  0  0  0
   35.3640   31.1020   33.4420 H   0  0  0  0  0  0  0  0  0  0  0  0
   33.3540   28.8070   33.0510 H   0  0  0  0  0  0  0  0  0  0  0  0
   33.3770   30.4110   32.2690 H   0  0  0  0  0  0  0  0  0  0  0  0
   34.4430   28.7130   30.8760 H   0  0  0  0  0  0  0  0  0  0  0  0
   35.3780   30.1720   31.2260 H   0  0  0  0  0  0  0  0  0  0  0  0
   35.9390   27.2820   31.7520 H   0  0  0  0  0  0  0  0  0  0  0  0
   37.7530   27.5090   35.3570 C   0  0  0  0  0  0  0  0  0  0  0  0
   37.0450   27.2840   34.1830 C   0  0  0  0  0  0  0  0  0  0  0  0
   37.1330   26.0180   33.6330 C   0  0  0  0  0  0  0  0  0  0  0  0
   37.8960   25.0780   34.2610 N   0  0  0  0  0  0  0  0  0  0  0  0
   38.5630   25.3220   35.3840 C   0  0  0  0  0  0  0  0  0  0  0  0
   38.4890   26.5470   35.9320 N   0  0  0  0  0  0  0  0  0  0  0  0
   37.7310   28.4700   35.8390 H   0  0  0  0  0  0  0  0  0  0  0  0
   36.6430   25.7230   32.7450 H   0  0  0  0  0  0  0  0  0  0  0  0
   39.3600   24.2990   36.0180 C   0  0  0  0  0  0  0  0  0  0  0  0
   38.9490   23.7340   37.2090 C   0  0  0  0  0  0  0  0  0  0  0  0
   39.6500   22.7580   37.8740 C   0  0  0  0  0  0  0  0  0  0  0  0
   40.8070   22.3750   37.2640 C   0  0  0  0  0  0  0  0  0  0  0  0
   41.2820   22.9170   36.0420 C   0  0  0  0  0  0  0  0  0  0  0  0
   40.5140   23.8900   35.4480 N   0  0  0  0  0  0  0  0  0  0  0  0
   38.0030   24.1080   37.6240 H   0  0  0  0  0  0  0  0  0  0  0  0
   39.3190   22.3310   38.7920 H   0  0  0  0  0  0  0  0  0  0  0  0
   41.4510   21.6060   37.6960 H   0  0  0  0  0  0  0  0  0  0  0  0
   42.2070   22.5760   35.6010 H   0  0  0  0  0  0  0  0  0  0  0  0
   37.9990   27.9780   30.5340 C   0  0  2  0  0  3  0  0  0  0  0  0
   37.3870   28.8630   31.5540 C   0  0  1  0  0  3  0  0  0  0  0  0
   37.0590   30.0810   30.9930 O   0  0  0  0  0  0  0  0  0  0  0  0
   37.4790   30.1320   29.6910 C   0  0  0  0  0  2  0  0  0  0  0  0
   38.1050   28.8400   29.3040 C   0  0  2  0  0  3  0  0  0  0  0  0
   37.3600   26.7870   30.2980 O   0  0  0  0  0  0  0  0  0  0  0  0
   37.6810   26.0680   30.8890 H   0  0  0  0  0  0  0  0  0  0  0  0
   37.4780   28.1910   28.2350 O   0  0  0  0  0  0  0  0  0  0  0  0
   37.9180   27.3120   28.1680 H   0  0  0  0  0  0  0  0  0  0  0  0
  1 17  1  0  0  0  0
  1  2  1  0  0  0  0
  2  8  1  0  0  0  0
  2  7  1  0  0  0  0
  3  2  1  0  0  0  0
  3  9  1  0  0  0  0
  4 11  1  0  0  0  0
  4  3  1  0  0  0  0
  5  6  1  0  0  0  0
  5  4  1  0  0  0  0
  6 15  1  6  0  0  0
  6  1  1  0  0  0  0
 10  3  1  0  0  0  0
 12  4  1  0  0  0  0
 13  5  1  0  0  0  0
 14  5  1  0  0  0  0
 16 22  1  0  0  0  0
 16 21  1  0  0  0  0
 17 16  2  0  0  0  0
 18 17  1  0  0  0  0
 18 19  2  0  0  0  0
 19 20  1  0  0  0  0
 20 21  2  0  0  0  0
 20 24  1  0  0  0  0
 23 18  1  0  0  0  0
 24 25  1  0  0  0  0
 25 30  1  0  0  0  0
 25 26  2  0  0  0  0
 26 31  1  0  0  0  0
 27 32  1  0  0  0  0
 27 26  1  0  0  0  0
 28 27  2  0  0  0  0
 29 24  2  0  0  0  0
 29 28  1  0  0  0  0
 33 28  1  0  0  0  0
 34 39  1  6  0  0  0
 34 35  1  0  0  0  0
 35 36  1  6  0  0  0
 35  6  1  0  0  0  0
 37 36  1  0  0  0  0
 38 41  1  6  0  0  0
 38 37  1  0  0  0  0
 38 34  1  0  0  0  0
 39 40  1  0  0  0  0
 42 41  1  0  0  0  0
M  END
>  <minimizedAffinity>
-5.74424553

$$$$

 OpenBabel03272504513D

 42 45  0  0  1  0  0  0  0  0999 V2000
   35.9210   28.6630   32.0440 N   0  0  0  0  0  0  0  0  0  0  0  0
   35.6050   29.2270   33.3520 C   0  0  0  0  0  0  0  0  0  0  0  0
   35.2690   30.6770   33.3110 C   0  0  0  0  0  0  0  0  0  0  0  0
   34.5350   31.0420   32.0460 C   0  0  0  0  0  0  0  0  0  0  0  0
   35.4990   30.8020   30.9190 C   0  0  0  0  0  0  0  0  0  0  0  0
   36.0410   29.4050   30.8350 C   0  0  1  0  0  0  0  0  0  0  0  0
   34.6900   28.6780   33.6900 H   0  0  0  0  0  0  0  0  0  0  0  0
   36.4150   28.9800   34.0470 H   0  0  0  0  0  0  0  0  0  0  0  0
   34.6120   30.9240   34.1780 H   0  0  0  0  0  0  0  0  0  0  0  0
   36.1910   31.2670   33.3820 H   0  0  0  0  0  0  0  0  0  0  0  0
   33.5760   30.5340   31.9370 H   0  0  0  0  0  0  0  0  0  0  0  0
   34.3560   32.1320   32.0820 H   0  0  0  0  0  0  0  0  0  0  0  0
   34.9440   31.0280   29.9860 H   0  0  0  0  0  0  0  0  0  0  0  0
   36.2770   31.5910   31.0020 H   0  0  0  0  0  0  0  0  0  0  0  0
   35.5860   28.8730   29.9640 H   0  0  0  0  0  0  0  0  0  0  0  0
   35.4260   26.4390   31.1340 C   0  0  0  0  0  0  0  0  0  0  0  0
   36.1180   27.2550   32.0200 C   0  0  0  0  0  0  0  0  0  0  0  0
   37.0080   26.6340   32.8780 C   0  0  0  0  0  0  0  0  0  0  0  0
   37.1540   25.2790   32.8080 N   0  0  0  0  0  0  0  0  0  0  0  0
   36.4770   24.5240   31.9500 C   0  0  0  0  0  0  0  0  0  0  0  0
   35.6080   25.1110   31.1090 N   0  0  0  0  0  0  0  0  0  0  0  0
   34.7180   26.8550   30.4400 H   0  0  0  0  0  0  0  0  0  0  0  0
   37.5930   27.1430   33.5940 H   0  0  0  0  0  0  0  0  0  0  0  0
   36.6600   23.0920   31.9080 C   0  0  0  0  0  0  0  0  0  0  0  0
   35.7620   22.2960   31.2250 C   0  0  0  0  0  0  0  0  0  0  0  0
   35.8650   20.9290   31.1390 C   0  0  0  0  0  0  0  0  0  0  0  0
   36.9400   20.3990   31.7880 C   0  0  0  0  0  0  0  0  0  0  0  0
   37.8960   21.1640   32.5050 C   0  0  0  0  0  0  0  0  0  0  0  0
   37.7110   22.5250   32.5380 N   0  0  0  0  0  0  0  0  0  0  0  0
   34.9270   22.8140   30.7340 H   0  0  0  0  0  0  0  0  0  0  0  0
   35.1650   20.3270   30.6080 H   0  0  0  0  0  0  0  0  0  0  0  0
   37.1310   19.3240   31.7910 H   0  0  0  0  0  0  0  0  0  0  0  0
   38.7310   20.6920   33.0010 H   0  0  0  0  0  0  0  0  0  0  0  0
   37.9980   28.8770   29.3290 C   0  0  2  0  0  3  0  0  0  0  0  0
   37.5340   29.5720   30.5550 C   0  0  1  0  0  3  0  0  0  0  0  0
   37.7590   30.9300   30.4460 O   0  0  0  0  0  0  0  0  0  0  0  0
   38.4200   31.2100   29.2810 C   0  0  0  0  0  2  0  0  0  0  0  0
   38.6320   29.9620   28.5000 C   0  0  2  0  0  3  0  0  0  0  0  0
   37.0510   28.1620   28.6400 O   0  0  0  0  0  0  0  0  0  0  0  0
   36.9840   27.2320   28.9540 H   0  0  0  0  0  0  0  0  0  0  0  0
   38.0460   29.9690   27.2300 O   0  0  0  0  0  0  0  0  0  0  0  0
   38.1640   29.0550   26.8820 H   0  0  0  0  0  0  0  0  0  0  0  0
  1  2  1  0  0  0  0
  2  7  1  0  0  0  0
  2  8  1  0  0  0  0
  3  2  1  0  0  0  0
  3 10  1  0  0  0  0
  3  9  1  0  0  0  0
  4 12  1  0  0  0  0
  4  3  1  0  0  0  0
  5 14  1  0  0  0  0
  5  4  1  0  0  0  0
  6 15  1  6  0  0  0
  6  5  1  0  0  0  0
  6  1  1  0  0  0  0
 11  4  1  0  0  0  0
 13  5  1  0  0  0  0
 16 17  1  0  0  0  0
 17  1  1  0  0  0  0
 17 18  2  0  0  0  0
 18 23  1  0  0  0  0
 19 18  1  0  0  0  0
 20 19  2  0  0  0  0
 21 16  2  0  0  0  0
 21 20  1  0  0  0  0
 22 16  1  0  0  0  0
 24 20  1  0  0  0  0
 24 29  1  0  0  0  0
 25 24  2  0  0  0  0
 26 25  1  0  0  0  0
 26 27  2  0  0  0  0
 27 32  1  0  0  0  0
 27 28  1  0  0  0  0
 28 29  2  0  0  0  0
 28 33  1  0  0  0  0
 30 25  1  0  0  0  0
 31 26  1  0  0  0  0
 34 39  1  6  0  0  0
 34 35  1  0  0  0  0
 35 36  1  6  0  0  0
 35  6  1  0  0  0  0
 37 36  1  0  0  0  0
 38 41  1  6  0  0  0
 38 37  1  0  0  0  0
 38 34  1  0  0  0  0
 39 40  1  0  0  0  0
 42 41  1  0  0  0  0
M  END
>  <minimizedAffinity>
-5.53950214

$$$$

 OpenBabel03272504513D

 42 45  0  0  1  0  0  0  0  0999 V2000
   37.9760   25.0430   33.9080 N   0  0  0  0  0  0  0  0  0  0  0  0
   37.1860   26.2000   33.5020 C   0  0  0  0  0  0  0  0  0  0  0  0
   37.3180   27.3640   34.4210 C   0  0  0  0  0  0  0  0  0  0  0  0
   38.7070   27.4640   34.9950 C   0  0  0  0  0  0  0  0  0  0  0  0
   38.8990   26.2380   35.8420 C   0  0  0  0  0  0  0  0  0  0  0  0
   38.7150   24.9350   35.1210 C   0  0  1  0  0  0  0  0  0  0  0  0
   37.6060   26.5030   32.5100 H   0  0  0  0  0  0  0  0  0  0  0  0
   36.1510   25.8790   33.3400 H   0  0  0  0  0  0  0  0  0  0  0  0
   37.1080   28.3020   33.8540 H   0  0  0  0  0  0  0  0  0  0  0  0
   36.5910   27.2690   35.2360 H   0  0  0  0  0  0  0  0  0  0  0  0
   39.4810   27.6190   34.2420 H   0  0  0  0  0  0  0  0  0  0  0  0
   38.7080   28.3270   35.6860 H   0  0  0  0  0  0  0  0  0  0  0  0
   39.9370   26.2890   36.2280 H   0  0  0  0  0  0  0  0  0  0  0  0
   38.2430   26.3670   36.7300 H   0  0  0  0  0  0  0  0  0  0  0  0
   39.7060   24.4400   34.9720 H   0  0  0  0  0  0  0  0  0  0  0  0
   36.8010   23.3750   32.5470 C   0  0  0  0  0  0  0  0  0  0  0  0
   37.9820   23.9570   32.9900 C   0  0  0  0  0  0  0  0  0  0  0  0
   39.1620   23.4320   32.4960 C   0  0  0  0  0  0  0  0  0  0  0  0
   39.1030   22.3890   31.6180 N   0  0  0  0  0  0  0  0  0  0  0  0
   37.9580   21.8520   31.2120 C   0  0  0  0  0  0  0  0  0  0  0  0
   36.8010   22.3500   31.6820 N   0  0  0  0  0  0  0  0  0  0  0  0
   35.8470   23.7320   32.8890 H   0  0  0  0  0  0  0  0  0  0  0  0
   40.1220   23.7870   32.7550 H   0  0  0  0  0  0  0  0  0  0  0  0
   37.9380   20.7480   30.2810 C   0  0  0  0  0  0  0  0  0  0  0  0
   36.8330   19.9240   30.2030 C   0  0  0  0  0  0  0  0  0  0  0  0
   36.7370   18.8550   29.3450 C   0  0  0  0  0  0  0  0  0  0  0  0
   37.8320   18.6590   28.5580 C   0  0  0  0  0  0  0  0  0  0  0  0
   38.9950   19.4700   28.5920 C   0  0  0  0  0  0  0  0  0  0  0  0
   39.0020   20.5170   29.4820 N   0  0  0  0  0  0  0  0  0  0  0  0
   36.0000   20.1610   30.8780 H   0  0  0  0  0  0  0  0  0  0  0  0
   35.8770   18.2280   29.2950 H   0  0  0  0  0  0  0  0  0  0  0  0
   37.8750   17.8410   27.8350 H   0  0  0  0  0  0  0  0  0  0  0  0
   39.8360   19.2700   27.9450 H   0  0  0  0  0  0  0  0  0  0  0  0
   38.5350   22.7700   36.4070 C   0  0  2  0  0  3  0  0  0  0  0  0
   37.8940   24.0640   36.0720 C   0  0  1  0  0  3  0  0  0  0  0  0
   37.7050   24.8130   37.2160 O   0  0  0  0  0  0  0  0  0  0  0  0
   38.0850   24.0980   38.3200 C   0  0  0  0  0  2  0  0  0  0  0  0
   38.6190   22.7710   37.9100 C   0  0  2  0  0  3  0  0  0  0  0  0
   39.7410   22.5130   35.8050 O   0  0  0  0  0  0  0  0  0  0  0  0
   39.6370   22.0590   34.9380 H   0  0  0  0  0  0  0  0  0  0  0  0
   39.9430   22.5370   38.2950 O   0  0  0  0  0  0  0  0  0  0  0  0
   40.1950   21.6890   37.8640 H   0  0  0  0  0  0  0  0  0  0  0  0
  1  6  1  0  0  0  0
  2  1  1  0  0  0  0
  2  3  1  0  0  0  0
  3  4  1  0  0  0  0
  3 10  1  0  0  0  0
  4 12  1  0  0  0  0
  4  5  1  0  0  0  0
  5 13  1  0  0  0  0
  5 14  1  0  0  0  0
  6 15  1  6  0  0  0
  6  5  1  0  0  0  0
  6 35  1  0  0  0  0
  7  2  1  0  0  0  0
  8  2  1  0  0  0  0
  9  3  1  0  0  0  0
 11  4  1  0  0  0  0
 16 22  1  0  0  0  0
 16 17  1  0  0  0  0
 17  1  1  0  0  0  0
 18 23  1  0  0  0  0
 18 17  2  0  0  0  0
 19 18  1  0  0  0  0
 20 19  2  0  0  0  0
 20 21  1  0  0  0  0
 21 16  2  0  0  0  0
 24 20  1  0  0  0  0
 25 24  1  0  0  0  0
 25 30  1  0  0  0  0
 26 25  2  0  0  0  0
 27 28  2  0  0  0  0
 27 26  1  0  0  0  0
 28 29  1  0  0  0  0
 29 24  2  0  0  0  0
 31 26  1  0  0  0  0
 32 27  1  0  0  0  0
 33 28  1  0  0  0  0
 34 39  1  6  0  0  0
 34 38  1  0  0  0  0
 35 34  1  0  0  0  0
 35 36  1  1  0  0  0
 36 37  1  0  0  0  0
 38 41  1  6  0  0  0
 38 37  1  0  0  0  0
 40 39  1  0  0  0  0
 42 41  1  0  0  0  0
M  END
>  <minimizedAffinity>
-5.48688364

$$$$

 OpenBabel03272504513D

 42 45  0  0  1  0  0  0  0  0999 V2000
   37.1840   27.7430   33.8160 N   0  0  0  0  0  0  0  0  0  0  0  0
   37.4260   27.8580   35.2500 C   0  0  0  0  0  0  0  0  0  0  0  0
   38.5930   27.0640   35.7230 C   0  0  0  0  0  0  0  0  0  0  0  0
   39.6910   27.0220   34.6930 C   0  0  0  0  0  0  0  0  0  0  0  0
   39.1310   26.2820   33.5120 C   0  0  0  0  0  0  0  0  0  0  0  0
   37.8790   26.8700   32.9310 C   0  0  1  0  0  0  0  0  0  0  0  0
   37.6630   28.9380   35.4170 H   0  0  0  0  0  0  0  0  0  0  0  0
   36.4950   27.6370   35.7830 H   0  0  0  0  0  0  0  0  0  0  0  0
   39.0020   27.5320   36.6490 H   0  0  0  0  0  0  0  0  0  0  0  0
   38.2690   26.0410   35.9530 H   0  0  0  0  0  0  0  0  0  0  0  0
   40.1050   28.0040   34.4570 H   0  0  0  0  0  0  0  0  0  0  0  0
   40.4980   26.3900   35.1080 H   0  0  0  0  0  0  0  0  0  0  0  0
   39.9250   26.2910   32.7380 H   0  0  0  0  0  0  0  0  0  0  0  0
   39.0350   25.2200   33.8280 H   0  0  0  0  0  0  0  0  0  0  0  0
   38.1080   27.3550   31.9500 H   0  0  0  0  0  0  0  0  0  0  0  0
   36.2470   29.1400   32.0300 C   0  0  0  0  0  0  0  0  0  0  0  0
   36.1620   28.5870   33.3020 C   0  0  0  0  0  0  0  0  0  0  0  0
   35.0370   28.8960   34.0440 C   0  0  0  0  0  0  0  0  0  0  0  0
   34.0900   29.7130   33.4970 N   0  0  0  0  0  0  0  0  0  0  0  0
   34.1990   30.2280   32.2770 C   0  0  0  0  0  0  0  0  0  0  0  0
   35.2860   29.9370   31.5420 N   0  0  0  0  0  0  0  0  0  0  0  0
   37.0940   28.9420   31.3980 H   0  0  0  0  0  0  0  0  0  0  0  0
   34.8550   28.5390   35.0210 H   0  0  0  0  0  0  0  0  0  0  0  0
   33.1750   31.0880   31.7340 C   0  0  0  0  0  0  0  0  0  0  0  0
   31.8700   30.9800   32.1730 C   0  0  0  0  0  0  0  0  0  0  0  0
   30.8400   31.7610   31.7070 C   0  0  0  0  0  0  0  0  0  0  0  0
   31.2020   32.6710   30.7590 C   0  0  0  0  0  0  0  0  0  0  0  0
   32.5240   32.8300   30.2690 C   0  0  0  0  0  0  0  0  0  0  0  0
   33.4890   32.0040   30.7930 N   0  0  0  0  0  0  0  0  0  0  0  0
   31.6750   30.2170   32.9380 H   0  0  0  0  0  0  0  0  0  0  0  0
   29.8380   31.6660   32.0550 H   0  0  0  0  0  0  0  0  0  0  0  0
   30.4720   33.3490   30.3120 H   0  0  0  0  0  0  0  0  0  0  0  0
   32.7560   33.5690   29.5160 H   0  0  0  0  0  0  0  0  0  0  0  0
   36.6470   25.4720   31.2280 C   0  0  2  0  0  3  0  0  0  0  0  0
   36.9630   25.6770   32.6620 C   0  0  1  0  0  3  0  0  0  0  0  0
   37.6120   24.5690   33.1690 O   0  0  0  0  0  0  0  0  0  0  0  0
   37.6860   23.5860   32.2190 C   0  0  0  0  0  2  0  0  0  0  0  0
   37.0850   24.0600   30.9440 C   0  0  2  0  0  3  0  0  0  0  0  0
   37.1790   26.3830   30.3500 O   0  0  0  0  0  0  0  0  0  0  0  0
   36.5870   27.1570   30.2110 H   0  0  0  0  0  0  0  0  0  0  0  0
   37.9650   24.0640   29.8570 O   0  0  0  0  0  0  0  0  0  0  0  0
   37.4740   24.5030   29.1250 H   0  0  0  0  0  0  0  0  0  0  0  0
  1  2  1  0  0  0  0
  2  7  1  0  0  0  0
  2  3  1  0  0  0  0
  2  8  1  0  0  0  0
  3 10  1  0  0  0  0
  3  9  1  0  0  0  0
  4 12  1  0  0  0  0
  4  3  1  0  0  0  0
  5 14  1  0  0  0  0
  5  4  1  0  0  0  0
  6 15  1  6  0  0  0
  6  5  1  0  0  0  0
  6  1  1  0  0  0  0
 11  4  1  0  0  0  0
 13  5  1  0  0  0  0
 16 17  1  0  0  0  0
 17  1  1  0  0  0  0
 17 18  2  0  0  0  0
 18 23  1  0  0  0  0
 19 18  1  0  0  0  0
 20 19  2  0  0  0  0
 21 16  2  0  0  0  0
 21 20  1  0  0  0  0
 22 16  1  0  0  0  0
 24 25  1  0  0  0  0
 24 20  1  0  0  0  0
 25 30  1  0  0  0  0
 26 31  1  0  0  0  0
 26 25  2  0  0  0  0
 27 26  1  0  0  0  0
 28 27  2  0  0  0  0
 28 29  1  0  0  0  0
 29 24  2  0  0  0  0
 32 27  1  0  0  0  0
 33 28  1  0  0  0  0
 34 39  1  6  0  0  0
 34 35  1  0  0  0  0
 35  6  1  0  0  0  0
 35 36  1  6  0  0  0
 37 36  1  0  0  0  0
 38 41  1  6  0  0  0
 38 34  1  0  0  0  0
 38 37  1  0  0  0  0
 40 39  1  0  0  0  0
 42 41  1  0  0  0  0
M  END
>  <minimizedAffinity>
-5.40025139

$$$$

 OpenBabel03272504513D

 42 45  0  0  1  0  0  0  0  0999 V2000
   36.8230   26.9960   31.5100 N   0  0  0  0  0  0  0  0  0  0  0  0
   36.2310   27.8210   32.5580 C   0  0  0  0  0  0  0  0  0  0  0  0
   36.3310   29.2820   32.2920 C   0  0  0  0  0  0  0  0  0  0  0  0
   36.2120   29.5900   30.8220 C   0  0  0  0  0  0  0  0  0  0  0  0
   37.4080   28.9630   30.1650 C   0  0  0  0  0  0  0  0  0  0  0  0
   37.5530   27.4860   30.3890 C   0  0  1  0  0  0  0  0  0  0  0  0
   35.1460   27.5510   32.5590 H   0  0  0  0  0  0  0  0  0  0  0  0
   36.6500   27.5170   33.5230 H   0  0  0  0  0  0  0  0  0  0  0  0
   35.5020   29.8070   32.8250 H   0  0  0  0  0  0  0  0  0  0  0  0
   37.2900   29.6570   32.6680 H   0  0  0  0  0  0  0  0  0  0  0  0
   35.2530   29.2970   30.3910 H   0  0  0  0  0  0  0  0  0  0  0  0
   36.3290   30.6840   30.7120 H   0  0  0  0  0  0  0  0  0  0  0  0
   37.2970   29.1500   29.0780 H   0  0  0  0  0  0  0  0  0  0  0  0
   38.2880   29.5630   30.4830 H   0  0  0  0  0  0  0  0  0  0  0  0
   37.3070   26.9330   29.4490 H   0  0  0  0  0  0  0  0  0  0  0  0
   35.6880   24.9050   30.9120 C   0  0  0  0  0  0  0  0  0  0  0  0
   36.6340   25.5950   31.6600 C   0  0  0  0  0  0  0  0  0  0  0  0
   37.3830   24.8540   32.5560 C   0  0  0  0  0  0  0  0  0  0  0  0
   37.1550   23.5130   32.6560 N   0  0  0  0  0  0  0  0  0  0  0  0
   36.2420   22.8800   31.9280 C   0  0  0  0  0  0  0  0  0  0  0  0
   35.5050   23.5840   31.0510 N   0  0  0  0  0  0  0  0  0  0  0  0
   35.0700   25.4170   30.1970 H   0  0  0  0  0  0  0  0  0  0  0  0
   38.1320   25.2610   33.1800 H   0  0  0  0  0  0  0  0  0  0  0  0
   36.0310   21.4580   32.0630 C   0  0  0  0  0  0  0  0  0  0  0  0
   35.6870   20.9190   33.2870 C   0  0  0  0  0  0  0  0  0  0  0  0
   35.4690   19.5790   33.4970 C   0  0  0  0  0  0  0  0  0  0  0  0
   35.6200   18.7990   32.3900 C   0  0  0  0  0  0  0  0  0  0  0  0
   35.9720   19.2930   31.1070 C   0  0  0  0  0  0  0  0  0  0  0  0
   36.1710   20.6480   30.9920 N   0  0  0  0  0  0  0  0  0  0  0  0
   35.5890   21.6270   34.1210 H   0  0  0  0  0  0  0  0  0  0  0  0
   35.2030   19.1780   34.4470 H   0  0  0  0  0  0  0  0  0  0  0  0
   35.4730   17.7170   32.4300 H   0  0  0  0  0  0  0  0  0  0  0  0
   36.0770   18.6300   30.2620 H   0  0  0  0  0  0  0  0  0  0  0  0
   39.6540   26.1740   29.9020 C   0  0  2  0  0  3  0  0  0  0  0  0
   39.0360   27.2700   30.6870 C   0  0  1  0  0  3  0  0  0  0  0  0
   39.6650   28.4670   30.4100 O   0  0  0  0  0  0  0  0  0  0  0  0
   40.7220   28.2630   29.5640 C   0  0  0  0  0  2  0  0  0  0  0  0
   40.8080   26.8260   29.1910 C   0  0  2  0  0  3  0  0  0  0  0  0
   38.8210   25.4880   29.0530 O   0  0  0  0  0  0  0  0  0  0  0  0
   38.3900   24.7200   29.4930 H   0  0  0  0  0  0  0  0  0  0  0  0
   40.6990   26.5790   27.8180 O   0  0  0  0  0  0  0  0  0  0  0  0
   40.6550   25.5990   27.7310 H   0  0  0  0  0  0  0  0  0  0  0  0
  1 17  1  0  0  0  0
  1  2  1  0  0  0  0
  2  7  1  0  0  0  0
  2  8  1  0  0  0  0
  3  2  1  0  0  0  0
  3 10  1  0  0  0  0
  3  9  1  0  0  0  0
  4  3  1  0  0  0  0
  5  6  1  0  0  0  0
  5 14  1  0  0  0  0
  5  4  1  0  0  0  0
  6 15  1  6  0  0  0
  6 35  1  0  0  0  0
  6  1  1  0  0  0  0
 11  4  1  0  0  0  0
 12  4  1  0  0  0  0
 13  5  1  0  0  0  0
 16 21  2  0  0  0  0
 16 17  1  0  0  0  0
 17 18  2  0  0  0  0
 18 19  1  0  0  0  0
 18 23  1  0  0  0  0
 20 24  1  0  0  0  0
 20 19  2  0  0  0  0
 21 20  1  0  0  0  0
 22 16  1  0  0  0  0
 24 25  1  0  0  0  0
 25 26  2  0  0  0  0
 25 30  1  0  0  0  0
 26 31  1  0  0  0  0
 27 32  1  0  0  0  0
 27 26  1  0  0  0  0
 28 27  2  0  0  0  0
 29 28  1  0  0  0  0
 29 24  2  0  0  0  0
 33 28  1  0  0  0  0
 34 39  1  6  0  0  0
 34 35  1  0  0  0  0
 35 36  1  6  0  0  0
 37 36  1  0  0  0  0
 38 41  1  6  0  0  0
 38 37  1  0  0  0  0
 38 34  1  0  0  0  0
 39 40  1  0  0  0  0
 42 41  1  0  0  0  0
M  END
>  <minimizedAffinity>
-5.39147806

$$$$

 OpenBabel03272504513D

 42 45  0  0  1  0  0  0  0  0999 V2000
   38.6250   24.3630   34.7420 N   0  0  0  0  0  0  0  0  0  0  0  0
   37.9180   23.0860   34.7190 C   0  0  0  0  0  0  0  0  0  0  0  0
   38.6180   22.0040   35.4630 C   0  0  0  0  0  0  0  0  0  0  0  0
   39.3360   22.5370   36.6760 C   0  0  0  0  0  0  0  0  0  0  0  0
   40.4090   23.4520   36.1590 C   0  0  0  0  0  0  0  0  0  0  0  0
   39.9210   24.5760   35.2930 C   0  0  1  0  0  0  0  0  0  0  0  0
   36.9490   23.2830   35.2420 H   0  0  0  0  0  0  0  0  0  0  0  0
   37.6880   22.8310   33.6790 H   0  0  0  0  0  0  0  0  0  0  0  0
   37.8670   21.2520   35.8060 H   0  0  0  0  0  0  0  0  0  0  0  0
   39.3390   21.5110   34.7990 H   0  0  0  0  0  0  0  0  0  0  0  0
   38.6700   22.9910   37.4120 H   0  0  0  0  0  0  0  0  0  0  0  0
   39.8510   21.6800   37.1470 H   0  0  0  0  0  0  0  0  0  0  0  0
   40.9080   23.8790   37.0530 H   0  0  0  0  0  0  0  0  0  0  0  0
   41.1680   22.7990   35.6770 H   0  0  0  0  0  0  0  0  0  0  0  0
   39.9910   25.5420   35.8510 H   0  0  0  0  0  0  0  0  0  0  0  0
   37.6400   26.6050   34.8790 C   0  0  0  0  0  0  0  0  0  0  0  0
   37.9290   25.4540   34.1560 C   0  0  0  0  0  0  0  0  0  0  0  0
   37.5060   25.4210   32.8390 C   0  0  0  0  0  0  0  0  0  0  0  0
   36.8420   26.5000   32.3330 N   0  0  0  0  0  0  0  0  0  0  0  0
   36.5790   27.5870   33.0490 C   0  0  0  0  0  0  0  0  0  0  0  0
   36.9830   27.6370   34.3310 N   0  0  0  0  0  0  0  0  0  0  0  0
   37.9390   26.6990   35.9080 H   0  0  0  0  0  0  0  0  0  0  0  0
   37.6650   24.6060   32.1870 H   0  0  0  0  0  0  0  0  0  0  0  0
   35.8720   28.7080   32.4760 C   0  0  0  0  0  0  0  0  0  0  0  0
   36.4350   29.4320   31.4430 C   0  0  0  0  0  0  0  0  0  0  0  0
   35.8270   30.5090   30.8450 C   0  0  0  0  0  0  0  0  0  0  0  0
   34.6020   30.8230   31.3530 C   0  0  0  0  0  0  0  0  0  0  0  0
   33.9730   30.1200   32.4120 C   0  0  0  0  0  0  0  0  0  0  0  0
   34.6560   29.0550   32.9490 N   0  0  0  0  0  0  0  0  0  0  0  0
   37.4260   29.1030   31.1020 H   0  0  0  0  0  0  0  0  0  0  0  0
   36.2740   31.0570   30.0490 H   0  0  0  0  0  0  0  0  0  0  0  0
   34.0200   31.6600   30.9610 H   0  0  0  0  0  0  0  0  0  0  0  0
   32.9990   30.4110   32.7770 H   0  0  0  0  0  0  0  0  0  0  0  0
   41.5640   25.9540   33.9610 C   0  0  2  0  0  3  0  0  0  0  0  0
   40.9040   24.6360   34.1240 C   0  0  1  0  0  3  0  0  0  0  0  0
   41.8470   23.6560   34.3600 O   0  0  0  0  0  0  0  0  0  0  0  0
   43.1080   24.1830   34.2840 C   0  0  0  0  0  2  0  0  0  0  0  0
   43.0360   25.6450   34.0190 C   0  0  2  0  0  3  0  0  0  0  0  0
   41.1890   26.9370   34.8420 O   0  0  0  0  0  0  0  0  0  0  0  0
   40.4200   27.4570   34.5160 H   0  0  0  0  0  0  0  0  0  0  0  0
   43.6320   26.4410   35.0040 O   0  0  0  0  0  0  0  0  0  0  0  0
   43.4100   27.3680   34.7610 H   0  0  0  0  0  0  0  0  0  0  0  0
  1  6  1  0  0  0  0
  2  1  1  0  0  0  0
  2  7  1  0  0  0  0
  2  3  1  0  0  0  0
  3  9  1  0  0  0  0
  3  4  1  0  0  0  0
  4 12  1  0  0  0  0
  4 11  1  0  0  0  0
  5  4  1  0  0  0  0
  5 13  1  0  0  0  0
  6 15  1  1  0  0  0
  6  5  1  0  0  0  0
  8  2  1  0  0  0  0
 10  3  1  0  0  0  0
 14  5  1  0  0  0  0
 16 22  1  0  0  0  0
 17  1  1  0  0  0  0
 17 16  2  0  0  0  0
 18 17  1  0  0  0  0
 19 18  2  0  0  0  0
 19 20  1  0  0  0  0
 20 21  2  0  0  0  0
 21 16  1  0  0  0  0
 23 18  1  0  0  0  0
 24 29  1  0  0  0  0
 24 20  1  0  0  0  0
 25 24  2  0  0  0  0
 26 27  2  0  0  0  0
 26 25  1  0  0  0  0
 27 28  1  0  0  0  0
 28 33  1  0  0  0  0
 28 29  2  0  0  0  0
 30 25  1  0  0  0  0
 31 26  1  0  0  0  0
 32 27  1  0  0  0  0
 34 38  1  0  0  0  0
 34 35  1  0  0  0  0
 34 39  1  1  0  0  0
 35 36  1  1  0  0  0
 35  6  1  0  0  0  0
 37 36  1  0  0  0  0
 38 37  1  0  0  0  0
 38 41  1  1  0  0  0
 40 39  1  0  0  0  0
 42 41  1  0  0  0  0
M  END
>  <minimizedAffinity>
-5.31265497

$$$$

 OpenBabel03272504513D

 42 45  0  0  1  0  0  0  0  0999 V2000
   35.0190   30.7540   34.7160 N   0  0  0  0  0  0  0  0  0  0  0  0
   35.7100   31.9970   34.3920 C   0  0  0  0  0  0  0  0  0  0  0  0
   35.3270   33.1380   35.2680 C   0  0  0  0  0  0  0  0  0  0  0  0
   35.0430   32.6860   36.6770 C   0  0  0  0  0  0  0  0  0  0  0  0
   33.8350   31.7960   36.5960 C   0  0  0  0  0  0  0  0  0  0  0  0
   33.9770   30.6180   35.6780 C   0  0  1  0  0  0  0  0  0  0  0  0
   36.7930   31.7810   34.5720 H   0  0  0  0  0  0  0  0  0  0  0  0
   35.5860   32.1990   33.3220 H   0  0  0  0  0  0  0  0  0  0  0  0
   36.1680   33.8710   35.3010 H   0  0  0  0  0  0  0  0  0  0  0  0
   34.4390   33.6320   34.8560 H   0  0  0  0  0  0  0  0  0  0  0  0
   35.9040   32.2350   37.1720 H   0  0  0  0  0  0  0  0  0  0  0  0
   34.7370   33.5830   37.2470 H   0  0  0  0  0  0  0  0  0  0  0  0
   33.6540   31.4280   37.6260 H   0  0  0  0  0  0  0  0  0  0  0  0
   32.9760   32.4600   36.3600 H   0  0  0  0  0  0  0  0  0  0  0  0
   34.0730   29.6790   36.2770 H   0  0  0  0  0  0  0  0  0  0  0  0
   36.2570   28.6410   34.5740 C   0  0  0  0  0  0  0  0  0  0  0  0
   35.4510   29.6100   33.9910 C   0  0  0  0  0  0  0  0  0  0  0  0
   35.0890   29.4110   32.6710 C   0  0  0  0  0  0  0  0  0  0  0  0
   35.5360   28.2940   32.0260 N   0  0  0  0  0  0  0  0  0  0  0  0
   36.3060   27.3830   32.6100 C   0  0  0  0  0  0  0  0  0  0  0  0
   36.6670   27.5610   33.8930 N   0  0  0  0  0  0  0  0  0  0  0  0
   36.5760   28.7310   35.5970 H   0  0  0  0  0  0  0  0  0  0  0  0
   34.4820   30.0730   32.1170 H   0  0  0  0  0  0  0  0  0  0  0  0
   36.7590   26.2150   31.8930 C   0  0  0  0  0  0  0  0  0  0  0  0
   35.8750   25.1970   31.5930 C   0  0  0  0  0  0  0  0  0  0  0  0
   36.2270   24.0550   30.9150 C   0  0  0  0  0  0  0  0  0  0  0  0
   37.5390   23.9930   30.5510 C   0  0  0  0  0  0  0  0  0  0  0  0
   38.4940   25.0050   30.8300 C   0  0  0  0  0  0  0  0  0  0  0  0
   38.0510   26.1120   31.5130 N   0  0  0  0  0  0  0  0  0  0  0  0
   34.8390   25.3370   31.9290 H   0  0  0  0  0  0  0  0  0  0  0  0
   35.5340   23.2780   30.6900 H   0  0  0  0  0  0  0  0  0  0  0  0
   37.9390   23.1350   30.0070 H   0  0  0  0  0  0  0  0  0  0  0  0
   39.5220   24.9050   30.5170 H   0  0  0  0  0  0  0  0  0  0  0  0
   31.7620   29.4540   35.3440 C   0  0  2  0  0  3  0  0  0  0  0  0
   32.6590   30.5510   34.9070 C   0  0  1  0  0  3  0  0  0  0  0  0
   32.0410   31.7720   35.0880 O   0  0  0  0  0  0  0  0  0  0  0  0
   30.7590   31.5940   35.5330 C   0  0  0  0  0  2  0  0  0  0  0  0
   30.4770   30.1450   35.7160 C   0  0  2  0  0  3  0  0  0  0  0  0
   32.2370   28.6380   36.3400 O   0  0  0  0  0  0  0  0  0  0  0  0
   32.7440   27.8720   35.9860 H   0  0  0  0  0  0  0  0  0  0  0  0
   30.1250   29.7860   37.0220 O   0  0  0  0  0  0  0  0  0  0  0  0
   30.0840   28.8020   37.0200 H   0  0  0  0  0  0  0  0  0  0  0  0
  1  6  1  0  0  0  0
  2  7  1  0  0  0  0
  2  1  1  0  0  0  0
  2  3  1  0  0  0  0
  3  9  1  0  0  0  0
  3  4  1  0  0  0  0
  4 11  1  0  0  0  0
  4 12  1  0  0  0  0
  5  4  1  0  0  0  0
  5 13  1  0  0  0  0
  6 15  1  1  0  0  0
  6  5  1  0  0  0  0
  8  2  1  0  0  0  0
 10  3  1  0  0  0  0
 14  5  1  0  0  0  0
 16 22  1  0  0  0  0
 17 16  1  0  0  0  0
 17  1  1  0  0  0  0
 18 17  2  0  0  0  0
 19 20  2  0  0  0  0
 19 18  1  0  0  0  0
 20 21  1  0  0  0  0
 21 16  2  0  0  0  0
 23 18  1  0  0  0  0
 24 20  1  0  0  0  0
 25 24  1  0  0  0  0
 25 30  1  0  0  0  0
 26 25  2  0  0  0  0
 27 28  2  0  0  0  0
 27 26  1  0  0  0  0
 28 29  1  0  0  0  0
 29 24  2  0  0  0  0
 31 26  1  0  0  0  0
 32 27  1  0  0  0  0
 33 28  1  0  0  0  0
 34 38  1  0  0  0  0
 34 39  1  1  0  0  0
 35 36  1  1  0  0  0
 35 34  1  0  0  0  0
 35  6  1  0  0  0  0
 36 37  1  0  0  0  0
 37 38  1  0  0  0  0
 38 41  1  1  0  0  0
 40 39  1  0  0  0  0
 42 41  1  0  0  0  0
M  END
>  <minimizedAffinity>
-5.22027826

$$$$

 OpenBabel03272504513D

 42 45  0  0  1  0  0  0  0  0999 V2000
   37.3670   27.2680   33.0900 N   0  0  0  0  0  0  0  0  0  0  0  0
   36.6820   28.2300   33.9480 C   0  0  0  0  0  0  0  0  0  0  0  0
   35.7230   29.1030   33.2180 C   0  0  0  0  0  0  0  0  0  0  0  0
   35.0500   28.3670   32.0890 C   0  0  0  0  0  0  0  0  0  0  0  0
   36.1340   28.0230   31.1080 C   0  0  0  0  0  0  0  0  0  0  0  0
   37.2650   27.2130   31.6710 C   0  0  1  0  0  0  0  0  0  0  0  0
   36.0930   27.6080   34.6670 H   0  0  0  0  0  0  0  0  0  0  0  0
   37.4320   28.7820   34.5250 H   0  0  0  0  0  0  0  0  0  0  0  0
   34.9340   29.4500   33.9260 H   0  0  0  0  0  0  0  0  0  0  0  0
   36.2550   29.9760   32.8200 H   0  0  0  0  0  0  0  0  0  0  0  0
   34.4510   27.5170   32.4190 H   0  0  0  0  0  0  0  0  0  0  0  0
   34.3850   29.0920   31.5840 H   0  0  0  0  0  0  0  0  0  0  0  0
   35.6450   27.4420   30.2990 H   0  0  0  0  0  0  0  0  0  0  0  0
   36.4460   28.9820   30.6400 H   0  0  0  0  0  0  0  0  0  0  0  0
   37.2060   26.1640   31.2900 H   0  0  0  0  0  0  0  0  0  0  0  0
   38.0130   24.9600   33.6130 C   0  0  0  0  0  0  0  0  0  0  0  0
   38.1920   26.3290   33.7670 C   0  0  0  0  0  0  0  0  0  0  0  0
   39.2110   26.7350   34.6090 C   0  0  0  0  0  0  0  0  0  0  0  0
   39.9690   25.7870   35.2310 N   0  0  0  0  0  0  0  0  0  0  0  0
   39.7750   24.4840   35.0650 C   0  0  0  0  0  0  0  0  0  0  0  0
   38.7880   24.0710   34.2490 N   0  0  0  0  0  0  0  0  0  0  0  0
   37.2400   24.5740   32.9740 H   0  0  0  0  0  0  0  0  0  0  0  0
   39.4480   27.7450   34.8080 H   0  0  0  0  0  0  0  0  0  0  0  0
   40.5990   23.5110   35.7420 C   0  0  0  0  0  0  0  0  0  0  0  0
   41.9070   23.3120   35.3470 C   0  0  0  0  0  0  0  0  0  0  0  0
   42.7550   22.4080   35.9400 C   0  0  0  0  0  0  0  0  0  0  0  0
   42.2030   21.7030   36.9680 C   0  0  0  0  0  0  0  0  0  0  0  0
   40.8680   21.8620   37.4190 C   0  0  0  0  0  0  0  0  0  0  0  0
   40.0930   22.7900   36.7660 N   0  0  0  0  0  0  0  0  0  0  0  0
   42.2620   23.9260   34.5090 H   0  0  0  0  0  0  0  0  0  0  0  0
   43.7620   22.2650   35.6250 H   0  0  0  0  0  0  0  0  0  0  0  0
   42.7780   20.9540   37.5180 H   0  0  0  0  0  0  0  0  0  0  0  0
   40.4810   21.2770   38.2410 H   0  0  0  0  0  0  0  0  0  0  0  0
   39.2800   26.9700   30.1700 C   0  0  2  0  0  3  0  0  0  0  0  0
   38.5330   27.8480   31.1020 C   0  0  1  0  0  3  0  0  0  0  0  0
   38.1330   29.0000   30.4550 O   0  0  0  0  0  0  0  0  0  0  0  0
   38.6230   29.0200   29.1770 C   0  0  0  0  0  2  0  0  0  0  0  0
   39.3820   27.7720   28.9000 C   0  0  2  0  0  3  0  0  0  0  0  0
   38.7630   25.7140   29.9690 O   0  0  0  0  0  0  0  0  0  0  0  0
   39.1100   25.0600   30.6170 H   0  0  0  0  0  0  0  0  0  0  0  0
   38.8780   27.0130   27.8380 O   0  0  0  0  0  0  0  0  0  0  0  0
   39.3960   26.1760   27.8450 H   0  0  0  0  0  0  0  0  0  0  0  0
  1 17  1  0  0  0  0
  1  2  1  0  0  0  0
  2  8  1  0  0  0  0
  2  7  1  0  0  0  0
  3  9  1  0  0  0  0
  3  2  1  0  0  0  0
  4 11  1  0  0  0  0
  4  3  1  0  0  0  0
  5  6  1  0  0  0  0
  5  4  1  0  0  0  0
  6 15  1  6  0  0  0
  6  1  1  0  0  0  0
 10  3  1  0  0  0  0
 12  4  1  0  0  0  0
 13  5  1  0  0  0  0
 14  5  1  0  0  0  0
 16 17  2  0  0  0  0
 16 21  1  0  0  0  0
 17 18  1  0  0  0  0
 18 23  1  0  0  0  0
 18 19  2  0  0  0  0
 20 19  1  0  0  0  0
 20 24  1  0  0  0  0
 21 20  2  0  0  0  0
 22 16  1  0  0  0  0
 24 29  1  0  0  0  0
 25 24  2  0  0  0  0
 25 26  1  0  0  0  0
 26 27  2  0  0  0  0
 27 28  1  0  0  0  0
 27 32  1  0  0  0  0
 28 33  1  0  0  0  0
 29 28  2  0  0  0  0
 30 25  1  0  0  0  0
 31 26  1  0  0  0  0
 34 39  1  6  0  0  0
 34 35  1  0  0  0  0
 35 36  1  6  0  0  0
 35  6  1  0  0  0  0
 37 36  1  0  0  0  0
 38 41  1  6  0  0  0
 38 37  1  0  0  0  0
 38 34  1  0  0  0  0
 39 40  1  0  0  0  0
 41 42  1  0  0  0  0
M  END
>  <minimizedAffinity>
-5.18739176

$$$$
