
 OpenBabel03272509203D

 46 50  0  0  1  0  0  0  0  0999 V2000
   38.0960   31.3500   47.8230 C   0  0  0  0  0  0  0  0  0  0  0  0
   37.1040   31.3340   48.7910 C   0  0  0  0  0  0  0  0  0  0  0  0
   37.1400   32.4510   49.6460 C   0  0  0  0  0  0  0  0  0  0  0  0
   38.0940   33.4580   49.5060 C   0  0  0  0  0  0  0  0  0  0  0  0
   39.0560   33.3620   48.4780 C   0  0  0  0  0  0  0  0  0  0  0  0
   39.0450   32.2810   47.6260 C   0  0  0  0  0  0  0  0  0  0  0  0
   36.4180   32.5600   50.4480 H   0  0  0  0  0  0  0  0  0  0  0  0
   38.0950   34.3080   50.1830 H   0  0  0  0  0  0  0  0  0  0  0  0
   39.7540   34.1680   48.4300 H   0  0  0  0  0  0  0  0  0  0  0  0
   35.0000   30.3010   48.1280 C   0  0  0  0  0  0  0  0  0  0  0  0
   36.1300   30.3070   48.9360 C   0  0  0  0  0  0  0  0  0  0  0  0
   36.2620   29.2760   49.8810 C   0  0  0  0  0  0  0  0  0  0  0  0
   35.2850   28.3380   49.9490 N   0  0  0  0  0  0  0  0  0  0  0  0
   34.1960   28.3760   49.1340 C   0  0  0  0  0  0  0  0  0  0  0  0
   34.0550   29.3490   48.2310 N   0  0  0  0  0  0  0  0  0  0  0  0
   34.8860   31.0890   47.3970 H   0  0  0  0  0  0  0  0  0  0  0  0
   33.4620   27.5830   49.2580 H   0  0  0  0  0  0  0  0  0  0  0  0
   37.4540   29.2350   50.7720 C   0  0  0  0  0  0  0  0  0  0  0  0
   38.3730   29.1490   50.1560 H   0  0  0  0  0  0  0  0  0  0  0  0
   37.4900   30.0580   51.5040 H   0  0  0  0  0  0  0  0  0  0  0  0
   37.4020   28.2920   51.3470 H   0  0  0  0  0  0  0  0  0  0  0  0
   38.1420   30.2680   46.9140 O   0  0  0  0  0  0  0  0  0  0  0  0
   38.3890   29.3900   47.3290 H   0  0  0  0  0  0  0  0  0  0  0  0
   40.0080   32.2470   46.6460 O   0  0  0  0  0  0  0  0  0  0  0  0
   40.5200   31.1080   44.4900 C   0  0  0  0  0  0  0  0  0  0  0  0
   39.8240   31.9750   45.3230 C   0  0  0  0  0  0  0  0  0  0  0  0
   38.7750   32.7020   44.7920 C   0  0  0  0  0  0  0  0  0  0  0  0
   38.4150   32.5700   43.4360 C   0  0  0  0  0  0  0  0  0  0  0  0
   37.4730   33.1230   42.6510 N   0  0  0  0  0  0  0  0  0  0  0  0
   37.5700   32.6330   41.3970 C   0  0  0  0  0  0  0  0  0  0  0  0
   38.6040   31.7530   41.4160 N   0  0  0  0  0  0  0  0  0  0  0  0
   39.1300   31.7040   42.6550 C   0  0  0  0  0  0  0  0  0  0  0  0
   40.1730   30.9720   43.1570 C   0  0  0  0  0  0  0  0  0  0  0  0
   41.3200   30.5910   45.0100 H   0  0  0  0  0  0  0  0  0  0  0  0
   38.1470   33.4110   45.3140 H   0  0  0  0  0  0  0  0  0  0  0  0
   36.7740   33.8220   42.9570 H   0  0  0  0  0  0  0  0  0  0  0  0
   37.0120   32.8240   40.5140 H   0  0  0  0  0  0  0  0  0  0  0  0
   40.4510   28.6230   42.3480 C   0  0  2  0  0  3  0  0  0  0  0  0
   40.9880   30.0110   42.3490 C   0  0  1  0  0  3  0  0  0  0  0  0
   41.0580   30.4960   41.0720 O   0  0  0  0  0  0  0  0  0  0  0  0
   40.7540   29.4670   40.1940 C   0  0  0  0  0  2  0  0  0  0  0  0
   39.9290   28.4680   40.9360 C   0  0  2  0  0  3  0  0  0  0  0  0
   39.4480   28.4190   43.2930 O   0  0  0  0  0  0  0  0  0  0  0  0
   38.5880   28.4680   42.8130 H   0  0  0  0  0  0  0  0  0  0  0  0
   38.5550   28.6690   40.8430 O   0  0  0  0  0  0  0  0  0  0  0  0
   38.2820   29.1320   40.0130 H   0  0  0  0  0  0  0  0  0  0  0  0
  1  2  1  0  0  0  0
  2 11  1  0  0  0  0
  2  3  2  0  0  0  0
  3  7  1  0  0  0  0
  4  3  1  0  0  0  0
  4  8  1  0  0  0  0
  5  4  2  0  0  0  0
  6  1  2  0  0  0  0
  6  5  1  0  0  0  0
  9  5  1  0  0  0  0
 10 15  2  0  0  0  0
 10 11  1  0  0  0  0
 11 12  2  0  0  0  0
 12 13  1  0  0  0  0
 12 18  1  0  0  0  0
 14 17  1  0  0  0  0
 14 13  2  0  0  0  0
 15 14  1  0  0  0  0
 16 10  1  0  0  0  0
 18 21  1  0  0  0  0
 18 20  1  0  0  0  0
 19 18  1  0  0  0  0
 22 23  1  0  0  0  0
 22  1  1  0  0  0  0
 24  6  1  0  0  0  0
 25 34  1  0  0  0  0
 25 26  1  0  0  0  0
 26 24  1  0  0  0  0
 27 35  1  0  0  0  0
 27 26  2  0  0  0  0
 28 27  1  0  0  0  0
 29 36  1  0  0  0  0
 29 28  1  0  0  0  0
 30 31  2  0  0  0  0
 30 29  1  0  0  0  0
 31 32  1  0  0  0  0
 32 33  1  0  0  0  0
 32 28  2  0  0  0  0
 33 25  2  0  0  0  0
 37 30  1  0  0  0  0
 38 39  1  0  0  0  0
 38 43  1  1  0  0  0
 39 33  1  1  0  0  0
 40 39  1  0  0  0  0
 41 42  1  0  0  0  0
 41 40  1  0  0  0  0
 42 45  1  1  0  0  0
 42 38  1  0  0  0  0
 44 43  1  0  0  0  0
 46 45  1  0  0  0  0
M  END
>  <minimizedAffinity>
-7.85399914

>  <minimizedRMSD>
0.175493568

$$$$
