
 OpenBabel03272508533D

 38 41  0  0  1  0  0  0  0  0999 V2000
   38.0010   31.5050   45.1230 C   0  0  0  0  0  0  0  0  0  0  0  0
   36.9170   30.8950   45.3040 O   0  0  0  0  0  0  0  0  0  0  0  0
   38.5160   32.3820   46.1430 N   0  0  0  0  0  0  0  0  0  0  0  0
   39.2840   33.0460   45.9850 H   0  0  0  0  0  0  0  0  0  0  0  0
   38.7730   31.3460   43.8760 C   0  0  0  0  0  0  0  0  0  0  0  0
   39.9820   30.7080   43.9350 C   0  0  0  0  0  0  0  0  0  0  0  0
   40.6960   30.5710   42.7560 C   0  0  0  0  0  0  0  0  0  0  0  0
   40.1500   31.0810   41.5990 C   0  0  0  0  0  0  0  0  0  0  0  0
   38.9140   31.7350   41.5380 C   0  0  0  0  0  0  0  0  0  0  0  0
   38.2700   31.8350   42.7210 N   0  0  0  0  0  0  0  0  0  0  0  0
   40.4170   30.3070   44.8310 H   0  0  0  0  0  0  0  0  0  0  0  0
   41.6470   30.0840   42.7290 H   0  0  0  0  0  0  0  0  0  0  0  0
   40.6790   30.9940   40.6580 H   0  0  0  0  0  0  0  0  0  0  0  0
   38.2820   33.7490   40.2070 C   0  0  1  0  0  3  0  0  0  0  0  0
   38.3980   32.2520   40.2650 C   0  0  2  0  0  3  0  0  0  0  0  0
   37.1520   31.7350   39.9380 O   0  0  0  0  0  0  0  0  0  0  0  0
   36.2040   32.6640   40.2930 C   0  0  0  0  0  2  0  0  0  0  0  0
   36.8120   34.0290   40.2180 C   0  0  2  0  0  3  0  0  0  0  0  0
   38.8360   34.3060   41.3680 O   0  0  0  0  0  0  0  0  0  0  0  0
   38.1390   34.5180   42.0560 H   0  0  0  0  0  0  0  0  0  0  0  0
   36.4060   34.7310   39.0680 O   0  0  0  0  0  0  0  0  0  0  0  0
   35.8580   34.1180   38.5020 H   0  0  0  0  0  0  0  0  0  0  0  0
   38.5060   31.4700   48.4600 C   0  0  2  0  0  0  0  0  0  0  0  0
   38.8100   32.9060   48.5730 C   0  0  0  0  0  0  0  0  0  0  0  0
   37.9040   32.3140   47.4590 C   0  0  1  0  0  0  0  0  0  0  0  0
   39.4070   30.8520   48.2230 H   0  0  0  0  0  0  0  0  0  0  0  0
   38.2730   33.5750   49.2520 H   0  0  0  0  0  0  0  0  0  0  0  0
   39.8010   33.2820   48.2790 H   0  0  0  0  0  0  0  0  0  0  0  0
   36.8270   32.5720   47.5400 H   0  0  0  0  0  0  0  0  0  0  0  0
   35.6800   29.6020   49.9420 C   0  0  0  0  0  0  0  0  0  0  0  0
   36.0770   29.4790   51.3110 C   0  0  0  0  0  0  0  0  0  0  0  0
   37.3430   30.0670   51.6870 C   0  0  0  0  0  0  0  0  0  0  0  0
   38.0780   30.6960   50.7450 N   0  0  0  0  0  0  0  0  0  0  0  0
   37.6380   30.7770   49.4590 C   0  0  0  0  0  0  0  0  0  0  0  0
   36.4430   30.2400   49.0270 N   0  0  0  0  0  0  0  0  0  0  0  0
   34.7300   29.1450   49.7210 H   0  0  0  0  0  0  0  0  0  0  0  0
   35.4680   28.9740   52.0230 H   0  0  0  0  0  0  0  0  0  0  0  0
   37.6690   29.9900   52.7060 H   0  0  0  0  0  0  0  0  0  0  0  0
  1  2  2  0  0  0  0
  1  3  1  0  0  0  0
  3 25  1  0  0  0  0
  4  3  1  0  0  0  0
  5  6  1  0  0  0  0
  5  1  1  0  0  0  0
  6 11  1  0  0  0  0
  7  6  2  0  0  0  0
  8  7  1  0  0  0  0
  9  8  2  0  0  0  0
  9 10  1  0  0  0  0
 10  5  2  0  0  0  0
 12  7  1  0  0  0  0
 13  8  1  0  0  0  0
 14 18  1  0  0  0  0
 14 15  1  0  0  0  0
 14 19  1  1  0  0  0
 15  9  1  1  0  0  0
 16 15  1  0  0  0  0
 16 17  1  0  0  0  0
 18 21  1  6  0  0  0
 18 17  1  0  0  0  0
 19 20  1  0  0  0  0
 22 21  1  0  0  0  0
 23 26  1  6  0  0  0
 23 24  1  0  0  0  0
 23 34  1  0  0  0  0
 24 27  1  0  0  0  0
 25 29  1  1  0  0  0
 25 23  1  0  0  0  0
 25 24  1  0  0  0  0
 28 24  1  0  0  0  0
 30 31  1  0  0  0  0
 31 32  2  0  0  0  0
 31 37  1  0  0  0  0
 32 38  1  0  0  0  0
 33 32  1  0  0  0  0
 34 33  2  0  0  0  0
 35 34  1  0  0  0  0
 35 30  2  0  0  0  0
 36 30  1  0  0  0  0
M  END
>  <minimizedAffinity>
-5.78948689

>  <minimizedRMSD>
1.22600472

$$$$
