
 OpenBabel03272507063D

 31 34  0  0  1  0  0  0  0  0999 V2000
   37.3640   23.8650   32.5060 C   0  0  0  0  0  0  0  0  0  0  0  0
   38.1860   23.5270   33.6070 C   0  0  0  0  0  0  0  0  0  0  0  0
   38.4550   24.5550   34.5260 C   0  0  0  0  0  0  0  0  0  0  0  0
   37.9340   25.7950   34.3300 N   0  0  0  0  0  0  0  0  0  0  0  0
   37.1550   26.0740   33.2690 C   0  0  0  0  0  0  0  0  0  0  0  0
   36.8820   25.1130   32.3770 N   0  0  0  0  0  0  0  0  0  0  0  0
   37.1610   23.0710   31.8040 H   0  0  0  0  0  0  0  0  0  0  0  0
   38.6000   22.5410   33.7590 H   0  0  0  0  0  0  0  0  0  0  0  0
   36.3730   28.1840   34.2550 C   0  0  0  0  0  0  0  0  0  0  0  0
   36.6250   27.4160   33.1130 C   0  0  0  0  0  0  0  0  0  0  0  0
   36.3730   27.9250   31.8620 C   0  0  0  0  0  0  0  0  0  0  0  0
   35.8700   29.2020   31.7170 C   0  0  0  0  0  0  0  0  0  0  0  0
   35.5400   29.9240   30.6130 N   0  0  0  0  0  0  0  0  0  0  0  0
   35.1000   31.1090   31.1280 C   0  0  0  0  0  0  0  0  0  0  0  0
   35.1590   31.1030   32.4680 N   0  0  0  0  0  0  0  0  0  0  0  0
   35.6390   29.9170   32.8700 C   0  0  0  0  0  0  0  0  0  0  0  0
   35.8680   29.4670   34.1350 C   0  0  0  0  0  0  0  0  0  0  0  0
   36.5790   27.7620   35.2310 H   0  0  0  0  0  0  0  0  0  0  0  0
   36.5510   27.3680   30.9420 H   0  0  0  0  0  0  0  0  0  0  0  0
   35.6030   29.6550   29.6070 H   0  0  0  0  0  0  0  0  0  0  0  0
   34.7480   31.9470   30.5260 H   0  0  0  0  0  0  0  0  0  0  0  0
   35.6870   30.0270   35.0250 H   0  0  0  0  0  0  0  0  0  0  0  0
   38.5980   24.2730   36.9870 C   0  0  2  0  0  3  0  0  0  0  0  0
   39.3170   24.2060   35.6810 C   0  0  1  0  0  3  0  0  0  0  0  0
   39.7930   22.9020   35.5450 O   0  0  0  0  0  0  0  0  0  0  0  0
   40.2030   22.5660   36.8520 C   0  0  0  0  0  2  0  0  0  0  0  0
   38.9860   22.9710   37.6550 C   0  0  1  0  0  3  0  0  0  0  0  0
   37.2250   24.4120   36.8640 O   0  0  0  0  0  0  0  0  0  0  0  0
   36.8270   23.7140   37.4380 H   0  0  0  0  0  0  0  0  0  0  0  0
   39.3090   23.2070   38.9890 O   0  0  0  0  0  0  0  0  0  0  0  0
   39.6210   22.3240   39.3470 H   0  0  0  0  0  0  0  0  0  0  0  0
  1  2  1  0  0  0  0
  2  8  1  0  0  0  0
  2  3  2  0  0  0  0
  4  3  1  0  0  0  0
  5  4  2  0  0  0  0
  6  1  2  0  0  0  0
  6  5  1  0  0  0  0
  7  1  1  0  0  0  0
  9 18  1  0  0  0  0
 10  5  1  0  0  0  0
 10  9  2  0  0  0  0
 11 10  1  0  0  0  0
 12 11  2  0  0  0  0
 12 16  1  0  0  0  0
 13 14  1  0  0  0  0
 13 12  1  0  0  0  0
 14 15  2  0  0  0  0
 15 16  1  0  0  0  0
 16 17  2  0  0  0  0
 17  9  1  0  0  0  0
 17 22  1  0  0  0  0
 19 11  1  0  0  0  0
 20 13  1  0  0  0  0
 21 14  1  0  0  0  0
 23 28  1  6  0  0  0
 23 27  1  0  0  0  0
 24  3  1  6  0  0  0
 24 23  1  0  0  0  0
 25 24  1  0  0  0  0
 25 26  1  0  0  0  0
 26 27  1  0  0  0  0
 27 30  1  1  0  0  0
 28 29  1  0  0  0  0
 30 31  1  0  0  0  0
M  END
>  <minimizedAffinity>
-5.72195721

$$$$

 OpenBabel03272507063D

 31 34  0  0  1  0  0  0  0  0999 V2000
   36.0030   30.2910   31.8450 C   0  0  0  0  0  0  0  0  0  0  0  0
   35.2520   31.0250   32.7940 C   0  0  0  0  0  0  0  0  0  0  0  0
   35.0940   30.4360   34.0590 C   0  0  0  0  0  0  0  0  0  0  0  0
   35.6500   29.2230   34.3170 N   0  0  0  0  0  0  0  0  0  0  0  0
   36.3580   28.5570   33.3860 C   0  0  0  0  0  0  0  0  0  0  0  0
   36.5250   29.0960   32.1710 N   0  0  0  0  0  0  0  0  0  0  0  0
   36.1210   30.7490   30.8760 H   0  0  0  0  0  0  0  0  0  0  0  0
   34.8110   31.9890   32.5850 H   0  0  0  0  0  0  0  0  0  0  0  0
   37.1940   26.3540   32.6940 C   0  0  0  0  0  0  0  0  0  0  0  0
   36.9300   27.2660   33.7200 C   0  0  0  0  0  0  0  0  0  0  0  0
   37.2060   26.9440   35.0280 C   0  0  0  0  0  0  0  0  0  0  0  0
   37.7490   25.7160   35.3430 C   0  0  0  0  0  0  0  0  0  0  0  0
   38.1070   25.1640   36.5330 N   0  0  0  0  0  0  0  0  0  0  0  0
   38.5790   23.9320   36.1830 C   0  0  0  0  0  0  0  0  0  0  0  0
   38.5090   23.7480   34.8560 N   0  0  0  0  0  0  0  0  0  0  0  0
   37.9910   24.8530   34.2980 C   0  0  0  0  0  0  0  0  0  0  0  0
   37.7390   25.1150   32.9850 C   0  0  0  0  0  0  0  0  0  0  0  0
   36.9680   26.6290   31.6710 H   0  0  0  0  0  0  0  0  0  0  0  0
   37.0180   27.6190   35.8630 H   0  0  0  0  0  0  0  0  0  0  0  0
   38.0450   25.5690   37.4920 H   0  0  0  0  0  0  0  0  0  0  0  0
   38.9610   23.1960   36.8910 H   0  0  0  0  0  0  0  0  0  0  0  0
   37.9290   24.4410   32.1800 H   0  0  0  0  0  0  0  0  0  0  0  0
   35.0830   31.5230   36.2900 C   0  0  2  0  0  3  0  0  0  0  0  0
   34.3070   31.2010   35.0560 C   0  0  1  0  0  3  0  0  0  0  0  0
   33.8930   32.4150   34.5080 O   0  0  0  0  0  0  0  0  0  0  0  0
   33.5630   33.1890   35.6390 C   0  0  0  0  0  2  0  0  0  0  0  0
   34.7940   32.9950   36.4980 C   0  0  1  0  0  3  0  0  0  0  0  0
   36.4400   31.2640   36.1810 O   0  0  0  0  0  0  0  0  0  0  0  0
   36.8990   32.0850   36.4800 H   0  0  0  0  0  0  0  0  0  0  0  0
   34.5240   33.2330   37.8430 O   0  0  0  0  0  0  0  0  0  0  0  0
   34.2750   34.2020   37.8960 H   0  0  0  0  0  0  0  0  0  0  0  0
  1  6  2  0  0  0  0
  1  2  1  0  0  0  0
  2  3  2  0  0  0  0
  3  4  1  0  0  0  0
  5 10  1  0  0  0  0
  5  4  2  0  0  0  0
  6  5  1  0  0  0  0
  7  1  1  0  0  0  0
  8  2  1  0  0  0  0
  9 17  2  0  0  0  0
  9 10  1  0  0  0  0
 10 11  2  0  0  0  0
 11 12  1  0  0  0  0
 11 19  1  0  0  0  0
 12 13  1  0  0  0  0
 13 20  1  0  0  0  0
 14 13  1  0  0  0  0
 14 21  1  0  0  0  0
 15 14  2  0  0  0  0
 16 15  1  0  0  0  0
 16 12  2  0  0  0  0
 17 16  1  0  0  0  0
 18  9  1  0  0  0  0
 22 17  1  0  0  0  0
 23 28  1  6  0  0  0
 23 27  1  0  0  0  0
 24  3  1  6  0  0  0
 24 23  1  0  0  0  0
 25 24  1  0  0  0  0
 25 26  1  0  0  0  0
 26 27  1  0  0  0  0
 27 30  1  1  0  0  0
 28 29  1  0  0  0  0
 30 31  1  0  0  0  0
M  END
>  <minimizedAffinity>
-5.63325691

$$$$

 OpenBabel03272507063D

 31 34  0  0  1  0  0  0  0  0999 V2000
   36.6880   21.8240   32.3320 C   0  0  0  0  0  0  0  0  0  0  0  0
   36.9900   21.5580   33.6890 C   0  0  0  0  0  0  0  0  0  0  0  0
   37.5910   22.6000   34.4130 C   0  0  0  0  0  0  0  0  0  0  0  0
   37.8520   23.7870   33.8040 N   0  0  0  0  0  0  0  0  0  0  0  0
   37.5480   24.0000   32.5100 C   0  0  0  0  0  0  0  0  0  0  0  0
   36.9740   23.0230   31.7960 N   0  0  0  0  0  0  0  0  0  0  0  0
   36.2260   21.0200   31.7820 H   0  0  0  0  0  0  0  0  0  0  0  0
   36.7820   20.6130   34.1690 H   0  0  0  0  0  0  0  0  0  0  0  0
   39.0790   25.8950   32.1930 C   0  0  0  0  0  0  0  0  0  0  0  0
   37.8500   25.2890   31.9150 C   0  0  0  0  0  0  0  0  0  0  0  0
   36.9390   25.9050   31.0900 C   0  0  0  0  0  0  0  0  0  0  0  0
   37.2280   27.1300   30.5250 C   0  0  0  0  0  0  0  0  0  0  0  0
   36.5140   27.9340   29.6930 N   0  0  0  0  0  0  0  0  0  0  0  0
   37.3390   29.0020   29.4950 C   0  0  0  0  0  0  0  0  0  0  0  0
   38.4890   28.8530   30.1710 N   0  0  0  0  0  0  0  0  0  0  0  0
   38.4510   27.6860   30.8300 C   0  0  0  0  0  0  0  0  0  0  0  0
   39.3920   27.1240   31.6380 C   0  0  0  0  0  0  0  0  0  0  0  0
   39.7810   25.3910   32.8460 H   0  0  0  0  0  0  0  0  0  0  0  0
   35.9680   25.4750   30.8430 H   0  0  0  0  0  0  0  0  0  0  0  0
   35.5620   27.7860   29.2910 H   0  0  0  0  0  0  0  0  0  0  0  0
   37.0940   29.8600   28.8700 H   0  0  0  0  0  0  0  0  0  0  0  0
   40.3380   27.5600   31.8700 H   0  0  0  0  0  0  0  0  0  0  0  0
   39.3510   22.0010   36.0570 C   0  0  2  0  0  3  0  0  0  0  0  0
   37.9110   22.3250   35.8340 C   0  0  1  0  0  3  0  0  0  0  0  0
   37.6220   23.4450   36.6140 O   0  0  0  0  0  0  0  0  0  0  0  0
   38.3520   23.2170   37.7980 C   0  0  0  0  0  2  0  0  0  0  0  0
   39.7160   22.8720   37.2400 C   0  0  1  0  0  3  0  0  0  0  0  0
   40.1560   22.2460   34.9560 O   0  0  0  0  0  0  0  0  0  0  0  0
   40.9140   22.7850   35.2870 H   0  0  0  0  0  0  0  0  0  0  0  0
   40.4690   22.1330   38.1490 O   0  0  0  0  0  0  0  0  0  0  0  0
   40.6140   22.7430   38.9320 H   0  0  0  0  0  0  0  0  0  0  0  0
  1  2  1  0  0  0  0
  2  8  1  0  0  0  0
  2  3  2  0  0  0  0
  4  3  1  0  0  0  0
  5  4  2  0  0  0  0
  6  1  2  0  0  0  0
  6  5  1  0  0  0  0
  7  1  1  0  0  0  0
  9 18  1  0  0  0  0
 10  9  1  0  0  0  0
 10  5  1  0  0  0  0
 11 10  2  0  0  0  0
 12 16  2  0  0  0  0
 12 11  1  0  0  0  0
 13 12  1  0  0  0  0
 14 13  1  0  0  0  0
 14 15  2  0  0  0  0
 15 16  1  0  0  0  0
 16 17  1  0  0  0  0
 17 22  1  0  0  0  0
 17  9  2  0  0  0  0
 19 11  1  0  0  0  0
 20 13  1  0  0  0  0
 21 14  1  0  0  0  0
 23 28  1  6  0  0  0
 23 27  1  0  0  0  0
 24  3  1  6  0  0  0
 24 23  1  0  0  0  0
 24 25  1  0  0  0  0
 25 26  1  0  0  0  0
 27 26  1  0  0  0  0
 27 30  1  1  0  0  0
 28 29  1  0  0  0  0
 30 31  1  0  0  0  0
M  END
>  <minimizedAffinity>
-5.52800322

$$$$

 OpenBabel03272507063D

 31 34  0  0  1  0  0  0  0  0999 V2000
   40.7210   26.5050   33.5930 C   0  0  0  0  0  0  0  0  0  0  0  0
   40.5170   25.3290   34.3530 C   0  0  0  0  0  0  0  0  0  0  0  0
   39.1860   25.0170   34.6780 C   0  0  0  0  0  0  0  0  0  0  0  0
   38.1780   25.8300   34.2640 N   0  0  0  0  0  0  0  0  0  0  0  0
   38.4160   26.9390   33.5410 C   0  0  0  0  0  0  0  0  0  0  0  0
   39.6760   27.2600   33.2160 N   0  0  0  0  0  0  0  0  0  0  0  0
   41.7450   26.7380   33.3460 H   0  0  0  0  0  0  0  0  0  0  0  0
   41.3200   24.6860   34.6810 H   0  0  0  0  0  0  0  0  0  0  0  0
   37.1480   28.0730   31.7690 C   0  0  0  0  0  0  0  0  0  0  0  0
   37.2990   27.7670   33.1260 C   0  0  0  0  0  0  0  0  0  0  0  0
   36.4030   28.2440   34.0530 C   0  0  0  0  0  0  0  0  0  0  0  0
   35.3410   29.0300   33.6550 C   0  0  0  0  0  0  0  0  0  0  0  0
   34.3360   29.6150   34.3590 N   0  0  0  0  0  0  0  0  0  0  0  0
   33.6080   30.2580   33.4000 C   0  0  0  0  0  0  0  0  0  0  0  0
   34.1430   30.0720   32.1840 N   0  0  0  0  0  0  0  0  0  0  0  0
   35.2350   29.3040   32.3100 C   0  0  0  0  0  0  0  0  0  0  0  0
   36.0900   28.8600   31.3470 C   0  0  0  0  0  0  0  0  0  0  0  0
   37.8660   27.6870   31.0570 H   0  0  0  0  0  0  0  0  0  0  0  0
   36.4770   28.0340   35.1200 H   0  0  0  0  0  0  0  0  0  0  0  0
   34.1490   29.5900   35.3850 H   0  0  0  0  0  0  0  0  0  0  0  0
   32.7100   30.8430   33.6000 H   0  0  0  0  0  0  0  0  0  0  0  0
   36.0020   29.0760   30.3050 H   0  0  0  0  0  0  0  0  0  0  0  0
   38.5100   24.0690   36.8690 C   0  0  2  0  0  3  0  0  0  0  0  0
   38.9670   23.7870   35.4760 C   0  0  1  0  0  3  0  0  0  0  0  0
   37.9830   22.9990   34.8780 O   0  0  0  0  0  0  0  0  0  0  0  0
   37.5790   22.1360   35.9180 C   0  0  0  0  0  2  0  0  0  0  0  0
   37.3420   23.1210   37.0420 C   0  0  1  0  0  3  0  0  0  0  0  0
   38.1510   25.3900   37.0840 O   0  0  0  0  0  0  0  0  0  0  0  0
   37.2590   25.3660   37.5080 H   0  0  0  0  0  0  0  0  0  0  0  0
   37.4190   22.5050   38.2880 O   0  0  0  0  0  0  0  0  0  0  0  0
   36.6640   21.8460   38.3060 H   0  0  0  0  0  0  0  0  0  0  0  0
  1  2  1  0  0  0  0
  2  3  2  0  0  0  0
  2  8  1  0  0  0  0
  4  3  1  0  0  0  0
  5  4  2  0  0  0  0
  6  5  1  0  0  0  0
  6  1  2  0  0  0  0
  7  1  1  0  0  0  0
  9 10  1  0  0  0  0
 10  5  1  0  0  0  0
 10 11  2  0  0  0  0
 11 19  1  0  0  0  0
 12 11  1  0  0  0  0
 12 13  1  0  0  0  0
 13 20  1  0  0  0  0
 14 21  1  0  0  0  0
 14 13  1  0  0  0  0
 15 16  1  0  0  0  0
 15 14  2  0  0  0  0
 16 12  2  0  0  0  0
 17  9  2  0  0  0  0
 17 16  1  0  0  0  0
 18  9  1  0  0  0  0
 22 17  1  0  0  0  0
 23 27  1  0  0  0  0
 23 28  1  6  0  0  0
 24  3  1  6  0  0  0
 24 23  1  0  0  0  0
 25 24  1  0  0  0  0
 25 26  1  0  0  0  0
 26 27  1  0  0  0  0
 27 30  1  1  0  0  0
 28 29  1  0  0  0  0
 30 31  1  0  0  0  0
M  END
>  <minimizedAffinity>
-5.42428637

$$$$

 OpenBabel03272507063D

 31 34  0  0  1  0  0  0  0  0999 V2000
   35.9260   29.7740   31.5520 C   0  0  0  0  0  0  0  0  0  0  0  0
   35.4110   30.7350   32.4540 C   0  0  0  0  0  0  0  0  0  0  0  0
   35.4550   30.4010   33.8180 C   0  0  0  0  0  0  0  0  0  0  0  0
   35.9730   29.2060   34.2070 N   0  0  0  0  0  0  0  0  0  0  0  0
   36.4540   28.3200   33.3160 C   0  0  0  0  0  0  0  0  0  0  0  0
   36.4250   28.6130   32.0090 N   0  0  0  0  0  0  0  0  0  0  0  0
   35.8890   30.0370   30.5070 H   0  0  0  0  0  0  0  0  0  0  0  0
   34.9990   31.6830   32.1410 H   0  0  0  0  0  0  0  0  0  0  0  0
   37.2280   26.0310   32.8740 C   0  0  0  0  0  0  0  0  0  0  0  0
   36.9970   27.0610   33.7910 C   0  0  0  0  0  0  0  0  0  0  0  0
   37.2790   26.8840   35.1250 C   0  0  0  0  0  0  0  0  0  0  0  0
   37.7960   25.6860   35.5740 C   0  0  0  0  0  0  0  0  0  0  0  0
   38.1540   25.2650   36.8170 N   0  0  0  0  0  0  0  0  0  0  0  0
   38.5910   23.9890   36.6070 C   0  0  0  0  0  0  0  0  0  0  0  0
   38.5030   23.6570   35.3100 N   0  0  0  0  0  0  0  0  0  0  0  0
   38.0060   24.7030   34.6330 C   0  0  0  0  0  0  0  0  0  0  0  0
   37.7460   24.8200   33.3010 C   0  0  0  0  0  0  0  0  0  0  0  0
   36.9980   26.1930   31.8290 H   0  0  0  0  0  0  0  0  0  0  0  0
   37.1170   27.6550   35.8790 H   0  0  0  0  0  0  0  0  0  0  0  0
   38.1120   25.7790   37.7240 H   0  0  0  0  0  0  0  0  0  0  0  0
   38.9620   23.3300   37.3920 H   0  0  0  0  0  0  0  0  0  0  0  0
   37.9110   24.0540   32.5770 H   0  0  0  0  0  0  0  0  0  0  0  0
   33.5260   31.0930   35.2170 C   0  0  2  0  0  3  0  0  0  0  0  0
   34.9150   31.4040   34.7670 C   0  0  1  0  0  3  0  0  0  0  0  0
   35.7110   31.4550   35.9120 O   0  0  0  0  0  0  0  0  0  0  0  0
   34.8780   32.0820   36.8610 C   0  0  0  0  0  2  0  0  0  0  0  0
   33.6080   31.2710   36.7180 C   0  0  1  0  0  3  0  0  0  0  0  0
   33.0920   29.8260   34.8610 O   0  0  0  0  0  0  0  0  0  0  0  0
   32.7390   29.4160   35.6870 H   0  0  0  0  0  0  0  0  0  0  0  0
   32.4950   31.9790   37.1660 O   0  0  0  0  0  0  0  0  0  0  0  0
   32.6490   32.1210   38.1470 H   0  0  0  0  0  0  0  0  0  0  0  0
  1  6  2  0  0  0  0
  1  2  1  0  0  0  0
  2  3  2  0  0  0  0
  3  4  1  0  0  0  0
  5 10  1  0  0  0  0
  5  4  2  0  0  0  0
  6  5  1  0  0  0  0
  7  1  1  0  0  0  0
  8  2  1  0  0  0  0
  9 17  2  0  0  0  0
  9 10  1  0  0  0  0
 10 11  2  0  0  0  0
 11 12  1  0  0  0  0
 11 19  1  0  0  0  0
 12 13  1  0  0  0  0
 13 20  1  0  0  0  0
 14 13  1  0  0  0  0
 14 21  1  0  0  0  0
 15 14  2  0  0  0  0
 16 15  1  0  0  0  0
 16 12  2  0  0  0  0
 17 16  1  0  0  0  0
 18  9  1  0  0  0  0
 22 17  1  0  0  0  0
 23 28  1  1  0  0  0
 23 27  1  0  0  0  0
 24  3  1  6  0  0  0
 24 23  1  0  0  0  0
 24 25  1  0  0  0  0
 25 26  1  0  0  0  0
 27 26  1  0  0  0  0
 27 30  1  6  0  0  0
 28 29  1  0  0  0  0
 30 31  1  0  0  0  0
M  END
>  <minimizedAffinity>
-5.34743738

$$$$

 OpenBabel03272507063D

 31 34  0  0  1  0  0  0  0  0999 V2000
   37.8850   27.3600   35.0580 C   0  0  0  0  0  0  0  0  0  0  0  0
   37.9200   26.2450   35.9300 C   0  0  0  0  0  0  0  0  0  0  0  0
   38.3230   25.0230   35.3670 C   0  0  0  0  0  0  0  0  0  0  0  0
   38.6520   24.9570   34.0500 N   0  0  0  0  0  0  0  0  0  0  0  0
   38.6050   26.0420   33.2550 C   0  0  0  0  0  0  0  0  0  0  0  0
   38.2260   27.2210   33.7650 N   0  0  0  0  0  0  0  0  0  0  0  0
   37.5750   28.2950   35.4960 H   0  0  0  0  0  0  0  0  0  0  0  0
   37.6570   26.3010   36.9760 H   0  0  0  0  0  0  0  0  0  0  0  0
   39.4560   27.0300   31.1730 C   0  0  0  0  0  0  0  0  0  0  0  0
   38.9700   25.9110   31.8560 C   0  0  0  0  0  0  0  0  0  0  0  0
   38.8380   24.7030   31.2130 C   0  0  0  0  0  0  0  0  0  0  0  0
   39.1870   24.5810   29.8830 C   0  0  0  0  0  0  0  0  0  0  0  0
   39.1520   23.5200   29.0330 N   0  0  0  0  0  0  0  0  0  0  0  0
   39.6210   24.0370   27.8600 C   0  0  0  0  0  0  0  0  0  0  0  0
   39.9220   25.3380   27.9930 N   0  0  0  0  0  0  0  0  0  0  0  0
   39.6600   25.7110   29.2550 C   0  0  0  0  0  0  0  0  0  0  0  0
   39.8110   26.9320   29.8390 C   0  0  0  0  0  0  0  0  0  0  0  0
   39.5510   27.9710   31.7000 H   0  0  0  0  0  0  0  0  0  0  0  0
   38.4650   23.8020   31.7000 H   0  0  0  0  0  0  0  0  0  0  0  0
   38.8450   22.5400   29.2160 H   0  0  0  0  0  0  0  0  0  0  0  0
   39.7350   23.4650   26.9390 H   0  0  0  0  0  0  0  0  0  0  0  0
   40.1790   27.8040   29.3450 H   0  0  0  0  0  0  0  0  0  0  0  0
   39.6790   23.1540   36.2750 C   0  0  2  0  0  3  0  0  0  0  0  0
   38.3600   23.8520   36.2760 C   0  0  1  0  0  3  0  0  0  0  0  0
   38.1170   24.2580   37.5890 O   0  0  0  0  0  0  0  0  0  0  0  0
   38.6010   23.1820   38.3590 C   0  0  0  0  0  2  0  0  0  0  0  0
   39.9710   22.9770   37.7500 C   0  0  1  0  0  3  0  0  0  0  0  0
   40.6820   23.8530   35.6210 O   0  0  0  0  0  0  0  0  0  0  0  0
   41.4470   23.8800   36.2450 H   0  0  0  0  0  0  0  0  0  0  0  0
   40.4470   21.6890   37.9810 O   0  0  0  0  0  0  0  0  0  0  0  0
   40.5500   21.6180   38.9760 H   0  0  0  0  0  0  0  0  0  0  0  0
  1  7  1  0  0  0  0
  1  2  1  0  0  0  0
  2  8  1  0  0  0  0
  3  2  2  0  0  0  0
  4  3  1  0  0  0  0
  5  6  1  0  0  0  0
  5  4  2  0  0  0  0
  6  1  2  0  0  0  0
  9 18  1  0  0  0  0
  9 10  1  0  0  0  0
 10  5  1  0  0  0  0
 11 19  1  0  0  0  0
 11 10  2  0  0  0  0
 12 11  1  0  0  0  0
 13 20  1  0  0  0  0
 13 12  1  0  0  0  0
 14 15  2  0  0  0  0
 14 13  1  0  0  0  0
 15 16  1  0  0  0  0
 16 17  1  0  0  0  0
 16 12  2  0  0  0  0
 17  9  2  0  0  0  0
 21 14  1  0  0  0  0
 22 17  1  0  0  0  0
 23 28  1  1  0  0  0
 23 24  1  0  0  0  0
 23 27  1  0  0  0  0
 24  3  1  6  0  0  0
 24 25  1  0  0  0  0
 25 26  1  0  0  0  0
 27 30  1  6  0  0  0
 27 26  1  0  0  0  0
 28 29  1  0  0  0  0
 30 31  1  0  0  0  0
M  END
>  <minimizedAffinity>
-5.31099653

$$$$

 OpenBabel03272507063D

 31 34  0  0  1  0  0  0  0  0999 V2000
   39.2090   23.9730   29.9120 C   0  0  0  0  0  0  0  0  0  0  0  0
   38.5640   22.7650   30.2690 C   0  0  0  0  0  0  0  0  0  0  0  0
   37.4150   22.8810   31.0700 C   0  0  0  0  0  0  0  0  0  0  0  0
   36.9810   24.1090   31.4590 N   0  0  0  0  0  0  0  0  0  0  0  0
   37.6240   25.2350   31.0970 C   0  0  0  0  0  0  0  0  0  0  0  0
   38.7220   25.1530   30.3330 N   0  0  0  0  0  0  0  0  0  0  0  0
   40.0900   23.8770   29.2970 H   0  0  0  0  0  0  0  0  0  0  0  0
   38.9120   21.7910   29.9580 H   0  0  0  0  0  0  0  0  0  0  0  0
   37.0010   26.7650   32.9140 C   0  0  0  0  0  0  0  0  0  0  0  0
   37.1120   26.5170   31.5420 C   0  0  0  0  0  0  0  0  0  0  0  0
   36.7400   27.4740   30.6280 C   0  0  0  0  0  0  0  0  0  0  0  0
   36.2540   28.6930   31.0540 C   0  0  0  0  0  0  0  0  0  0  0  0
   35.8260   29.7860   30.3680 N   0  0  0  0  0  0  0  0  0  0  0  0
   35.4700   30.6610   31.3520 C   0  0  0  0  0  0  0  0  0  0  0  0
   35.6710   30.1270   32.5670 N   0  0  0  0  0  0  0  0  0  0  0  0
   36.1640   28.8890   32.4140 C   0  0  0  0  0  0  0  0  0  0  0  0
   36.5160   27.9800   33.3650 C   0  0  0  0  0  0  0  0  0  0  0  0
   37.3000   25.9970   33.6160 H   0  0  0  0  0  0  0  0  0  0  0  0
   36.8070   27.3290   29.5490 H   0  0  0  0  0  0  0  0  0  0  0  0
   35.7750   29.9380   29.3360 H   0  0  0  0  0  0  0  0  0  0  0  0
   35.0760   31.6610   31.1720 H   0  0  0  0  0  0  0  0  0  0  0  0
   36.4440   28.1390   34.4180 H   0  0  0  0  0  0  0  0  0  0  0  0
   36.8880   21.2850   32.8940 C   0  0  2  0  0  3  0  0  0  0  0  0
   36.7370   21.6190   31.4470 C   0  0  1  0  0  3  0  0  0  0  0  0
   35.3680   21.7170   31.1940 O   0  0  0  0  0  0  0  0  0  0  0  0
   34.8160   20.6800   31.9730 C   0  0  0  0  0  2  0  0  0  0  0  0
   35.4750   20.9340   33.3110 C   0  0  1  0  0  3  0  0  0  0  0  0
   37.4190   22.3150   33.6540 O   0  0  0  0  0  0  0  0  0  0  0  0
   36.8140   22.4250   34.4270 H   0  0  0  0  0  0  0  0  0  0  0  0
   35.4920   19.7860   34.1000 O   0  0  0  0  0  0  0  0  0  0  0  0
   34.5290   19.5730   34.2780 H   0  0  0  0  0  0  0  0  0  0  0  0
  1  2  2  0  0  0  0
  1  6  1  0  0  0  0
  2  3  1  0  0  0  0
  3  4  2  0  0  0  0
  5  4  1  0  0  0  0
  5 10  1  0  0  0  0
  6  5  2  0  0  0  0
  7  1  1  0  0  0  0
  8  2  1  0  0  0  0
  9 17  1  0  0  0  0
  9 18  1  0  0  0  0
 10  9  2  0  0  0  0
 11 12  2  0  0  0  0
 11 10  1  0  0  0  0
 12 16  1  0  0  0  0
 13 12  1  0  0  0  0
 13 14  1  0  0  0  0
 14 15  2  0  0  0  0
 16 15  1  0  0  0  0
 16 17  2  0  0  0  0
 17 22  1  0  0  0  0
 19 11  1  0  0  0  0
 20 13  1  0  0  0  0
 21 14  1  0  0  0  0
 23 27  1  0  0  0  0
 23 28  1  1  0  0  0
 24  3  1  1  0  0  0
 24 23  1  0  0  0  0
 25 24  1  0  0  0  0
 25 26  1  0  0  0  0
 26 27  1  0  0  0  0
 27 30  1  1  0  0  0
 28 29  1  0  0  0  0
 30 31  1  0  0  0  0
M  END
>  <minimizedAffinity>
-5.21848917

$$$$

 OpenBabel03272507063D

 31 34  0  0  1  0  0  0  0  0999 V2000
   36.7570   28.9100   30.8000 C   0  0  0  0  0  0  0  0  0  0  0  0
   35.7730   29.8620   31.1590 C   0  0  0  0  0  0  0  0  0  0  0  0
   35.3470   29.8480   32.4970 C   0  0  0  0  0  0  0  0  0  0  0  0
   35.8780   28.9510   33.3690 N   0  0  0  0  0  0  0  0  0  0  0  0
   36.8140   28.0620   32.9870 C   0  0  0  0  0  0  0  0  0  0  0  0
   37.2390   28.0540   31.7170 N   0  0  0  0  0  0  0  0  0  0  0  0
   37.0800   28.9270   29.7710 H   0  0  0  0  0  0  0  0  0  0  0  0
   35.3520   30.5730   30.4630 H   0  0  0  0  0  0  0  0  0  0  0  0
   37.7630   27.6140   35.2080 C   0  0  0  0  0  0  0  0  0  0  0  0
   37.3460   27.1300   33.9630 C   0  0  0  0  0  0  0  0  0  0  0  0
   37.4400   25.7910   33.6680 C   0  0  0  0  0  0  0  0  0  0  0  0
   37.9450   24.9060   34.5990 C   0  0  0  0  0  0  0  0  0  0  0  0
   38.1390   23.5610   34.5560 N   0  0  0  0  0  0  0  0  0  0  0  0
   38.6690   23.2770   35.7810 C   0  0  0  0  0  0  0  0  0  0  0  0
   38.7880   24.3870   36.5240 N   0  0  0  0  0  0  0  0  0  0  0  0
   38.3420   25.4310   35.8090 C   0  0  0  0  0  0  0  0  0  0  0  0
   38.2740   26.7460   36.1570 C   0  0  0  0  0  0  0  0  0  0  0  0
   37.6810   28.6720   35.4180 H   0  0  0  0  0  0  0  0  0  0  0  0
   37.1290   25.3650   32.7140 H   0  0  0  0  0  0  0  0  0  0  0  0
   37.9380   22.8910   33.7820 H   0  0  0  0  0  0  0  0  0  0  0  0
   38.9550   22.2770   36.1100 H   0  0  0  0  0  0  0  0  0  0  0  0
   38.5830   27.1450   37.0970 H   0  0  0  0  0  0  0  0  0  0  0  0
   32.9380   30.2670   32.9170 C   0  0  2  0  0  3  0  0  0  0  0  0
   34.3150   30.8420   32.8780 C   0  0  1  0  0  3  0  0  0  0  0  0
   34.5820   31.3440   34.1520 O   0  0  0  0  0  0  0  0  0  0  0  0
   33.3500   31.9050   34.5470 C   0  0  0  0  0  2  0  0  0  0  0  0
   32.3980   30.7690   34.2400 C   0  0  1  0  0  3  0  0  0  0  0  0
   32.9050   28.8840   32.8280 O   0  0  0  0  0  0  0  0  0  0  0  0
   32.3370   28.5750   33.5740 H   0  0  0  0  0  0  0  0  0  0  0  0
   31.0930   31.2260   34.0690 O   0  0  0  0  0  0  0  0  0  0  0  0
   30.8270   31.6060   34.9580 H   0  0  0  0  0  0  0  0  0  0  0  0
  1  2  2  0  0  0  0
  1  6  1  0  0  0  0
  2  3  1  0  0  0  0
  3  4  2  0  0  0  0
  5  4  1  0  0  0  0
  5 10  1  0  0  0  0
  6  5  2  0  0  0  0
  7  1  1  0  0  0  0
  8  2  1  0  0  0  0
  9 18  1  0  0  0  0
  9 17  1  0  0  0  0
 10  9  2  0  0  0  0
 11 10  1  0  0  0  0
 11 12  2  0  0  0  0
 12 16  1  0  0  0  0
 13 12  1  0  0  0  0
 13 14  1  0  0  0  0
 14 21  1  0  0  0  0
 14 15  2  0  0  0  0
 16 17  2  0  0  0  0
 16 15  1  0  0  0  0
 17 22  1  0  0  0  0
 19 11  1  0  0  0  0
 20 13  1  0  0  0  0
 23 28  1  1  0  0  0
 23 27  1  0  0  0  0
 24  3  1  1  0  0  0
 24 23  1  0  0  0  0
 24 25  1  0  0  0  0
 25 26  1  0  0  0  0
 27 30  1  6  0  0  0
 27 26  1  0  0  0  0
 28 29  1  0  0  0  0
 30 31  1  0  0  0  0
M  END
>  <minimizedAffinity>
-5.21332169

$$$$

 OpenBabel03272507063D

 31 34  0  0  1  0  0  0  0  0999 V2000
   37.3130   28.7650   31.0070 C   0  0  0  0  0  0  0  0  0  0  0  0
   37.9560   27.5650   31.3960 C   0  0  0  0  0  0  0  0  0  0  0  0
   37.6800   27.0990   32.6920 C   0  0  0  0  0  0  0  0  0  0  0  0
   36.8350   27.7940   33.4980 N   0  0  0  0  0  0  0  0  0  0  0  0
   36.2430   28.9310   33.0890 C   0  0  0  0  0  0  0  0  0  0  0  0
   36.4880   29.3990   31.8580 N   0  0  0  0  0  0  0  0  0  0  0  0
   37.5290   29.1180   30.0110 H   0  0  0  0  0  0  0  0  0  0  0  0
   38.6280   27.0160   30.7520 H   0  0  0  0  0  0  0  0  0  0  0  0
   33.9690   29.4450   33.8610 C   0  0  0  0  0  0  0  0  0  0  0  0
   35.3490   29.6290   33.9940 C   0  0  0  0  0  0  0  0  0  0  0  0
   35.8510   30.4590   34.9670 C   0  0  0  0  0  0  0  0  0  0  0  0
   34.9980   31.1210   35.8270 C   0  0  0  0  0  0  0  0  0  0  0  0
   35.2360   31.9810   36.8530 N   0  0  0  0  0  0  0  0  0  0  0  0
   33.9870   32.2880   37.3070 C   0  0  0  0  0  0  0  0  0  0  0  0
   33.0450   31.6490   36.5960 N   0  0  0  0  0  0  0  0  0  0  0  0
   33.6490   30.9070   35.6560 C   0  0  0  0  0  0  0  0  0  0  0  0
   33.0930   30.0980   34.7110 C   0  0  0  0  0  0  0  0  0  0  0  0
   33.5960   28.7860   33.0870 H   0  0  0  0  0  0  0  0  0  0  0  0
   36.9170   30.6360   35.1120 H   0  0  0  0  0  0  0  0  0  0  0  0
   36.1470   32.3320   37.2200 H   0  0  0  0  0  0  0  0  0  0  0  0
   33.7840   32.9620   38.1390 H   0  0  0  0  0  0  0  0  0  0  0  0
   32.0460   29.9370   34.5840 H   0  0  0  0  0  0  0  0  0  0  0  0
   39.3640   26.0490   34.1820 C   0  0  2  0  0  3  0  0  0  0  0  0
   38.3520   25.8430   33.1040 C   0  0  1  0  0  3  0  0  0  0  0  0
   37.4130   24.9380   33.5970 O   0  0  0  0  0  0  0  0  0  0  0  0
   38.1950   24.0200   34.3270 C   0  0  0  0  0  2  0  0  0  0  0  0
   39.0320   24.9550   35.1730 C   0  0  1  0  0  3  0  0  0  0  0  0
   39.3210   27.3100   34.7560 O   0  0  0  0  0  0  0  0  0  0  0  0
   39.2900   27.1640   35.7320 H   0  0  0  0  0  0  0  0  0  0  0  0
   40.2060   24.3420   35.6050 O   0  0  0  0  0  0  0  0  0  0  0  0
   39.9100   23.5900   36.1970 H   0  0  0  0  0  0  0  0  0  0  0  0
  1  2  2  0  0  0  0
  1  6  1  0  0  0  0
  2  3  1  0  0  0  0
  3  4  2  0  0  0  0
  5  4  1  0  0  0  0
  5 10  1  0  0  0  0
  6  5  2  0  0  0  0
  7  1  1  0  0  0  0
  8  2  1  0  0  0  0
  9 10  2  0  0  0  0
  9 17  1  0  0  0  0
 10 11  1  0  0  0  0
 11 19  1  0  0  0  0
 11 12  2  0  0  0  0
 12 13  1  0  0  0  0
 13 20  1  0  0  0  0
 13 14  1  0  0  0  0
 14 21  1  0  0  0  0
 15 14  2  0  0  0  0
 16 12  1  0  0  0  0
 16 15  1  0  0  0  0
 17 16  2  0  0  0  0
 18  9  1  0  0  0  0
 22 17  1  0  0  0  0
 23 28  1  1  0  0  0
 23 27  1  0  0  0  0
 24  3  1  1  0  0  0
 24 25  1  0  0  0  0
 24 23  1  0  0  0  0
 25 26  1  0  0  0  0
 26 27  1  0  0  0  0
 27 30  1  6  0  0  0
 28 29  1  0  0  0  0
 30 31  1  0  0  0  0
M  END
>  <minimizedAffinity>
-5.20380592

$$$$
