
 OpenBabel03272507503D

 28 30  0  0  1  0  0  0  0  0999 V2000
   36.2230   30.5400   47.1710 C   0  0  0  0  0  0  0  0  0  0  0  0
   36.7900   30.6250   45.8870 C   0  0  0  0  0  0  0  0  0  0  0  0
   35.9880   30.2030   44.8140 C   0  0  0  0  0  0  0  0  0  0  0  0
   34.7410   29.7480   45.0480 N   0  0  0  0  0  0  0  0  0  0  0  0
   34.2250   29.6810   46.3000 C   0  0  0  0  0  0  0  0  0  0  0  0
   34.9660   30.0770   47.3710 N   0  0  0  0  0  0  0  0  0  0  0  0
   36.4590   30.2830   43.8500 H   0  0  0  0  0  0  0  0  0  0  0  0
   33.2280   29.2970   46.2970 H   0  0  0  0  0  0  0  0  0  0  0  0
   38.1090   31.1210   45.7630 N   0  0  0  0  0  0  0  0  0  0  0  0
   38.4450   32.3560   46.1940 C   0  0  0  0  0  0  0  0  0  0  0  0
   39.7430   32.8200   46.0660 C   0  0  0  0  0  0  0  0  0  0  0  0
   40.5970   31.9050   45.4720 C   0  0  0  0  0  0  0  0  0  0  0  0
   41.8150   32.2900   45.3310 O   0  0  0  0  0  0  0  0  0  0  0  0
   40.3040   30.6770   45.0340 N   0  0  0  0  0  0  0  0  0  0  0  0
   39.0130   30.2980   45.1960 C   0  0  0  0  0  0  0  0  0  0  0  0
   38.7070   29.1350   44.7880 O   0  0  0  0  0  0  0  0  0  0  0  0
   37.7140   33.0220   46.6490 H   0  0  0  0  0  0  0  0  0  0  0  0
   40.0880   33.7880   46.3830 H   0  0  0  0  0  0  0  0  0  0  0  0
   41.0410   30.0790   44.6020 H   0  0  0  0  0  0  0  0  0  0  0  0
   37.3770   29.6940   49.1960 C   0  0  1  0  0  3  0  0  0  0  0  0
   36.9120   30.9260   48.4040 C   0  0  2  0  0  3  0  0  0  0  0  0
   36.1240   31.5620   49.3270 O   0  0  0  0  0  0  0  0  0  0  0  0
   37.0780   31.7500   50.3550 C   0  0  0  0  0  2  0  0  0  0  0  0
   37.7120   30.3650   50.5280 C   0  0  1  0  0  3  0  0  0  0  0  0
   36.3300   28.8080   49.4210 O   0  0  0  0  0  0  0  0  0  0  0  0
   35.8300   28.5680   48.6020 H   0  0  0  0  0  0  0  0  0  0  0  0
   37.1210   29.7230   51.6070 O   0  0  0  0  0  0  0  0  0  0  0  0
   36.4340   29.0680   51.3290 H   0  0  0  0  0  0  0  0  0  0  0  0
  1  6  1  0  0  0  0
  2  1  2  0  0  0  0
  3  4  2  0  0  0  0
  3  2  1  0  0  0  0
  4  5  1  0  0  0  0
  5  6  2  0  0  0  0
  7  3  1  0  0  0  0
  8  5  1  0  0  0  0
  9  2  1  0  0  0  0
  9 10  1  0  0  0  0
 10 17  1  0  0  0  0
 11 10  2  0  0  0  0
 11 18  1  0  0  0  0
 12 11  1  0  0  0  0
 13 12  2  0  0  0  0
 14 15  1  0  0  0  0
 14 12  1  0  0  0  0
 15  9  1  0  0  0  0
 16 15  2  0  0  0  0
 19 14  1  0  0  0  0
 20 25  1  1  0  0  0
 20 24  1  0  0  0  0
 21  1  1  6  0  0  0
 21 20  1  0  0  0  0
 21 22  1  0  0  0  0
 22 23  1  0  0  0  0
 23 24  1  0  0  0  0
 24 27  1  1  0  0  0
 26 25  1  0  0  0  0
 28 27  1  0  0  0  0
M  END
>  <minimizedAffinity>
-5.37413931

>  <minimizedRMSD>
3.04489017

$$$$
