
 OpenBabel03272507573D

 32 34  0  0  1  0  0  0  0  0999 V2000
   36.8940   31.2370   48.4720 C   0  0  0  0  0  0  0  0  0  0  0  0
   37.1510   32.1130   49.5360 C   0  0  0  0  0  0  0  0  0  0  0  0
   38.0670   33.1360   49.3690 C   0  0  0  0  0  0  0  0  0  0  0  0
   38.7200   33.2870   48.1570 C   0  0  0  0  0  0  0  0  0  0  0  0
   38.4420   32.4070   47.1380 C   0  0  0  0  0  0  0  0  0  0  0  0
   37.5460   31.4130   47.3150 N   0  0  0  0  0  0  0  0  0  0  0  0
   36.7150   32.1130   50.5340 H   0  0  0  0  0  0  0  0  0  0  0  0
   38.3210   33.8530   50.1380 H   0  0  0  0  0  0  0  0  0  0  0  0
   39.4350   34.0590   47.9760 H   0  0  0  0  0  0  0  0  0  0  0  0
   35.1670   28.3710   50.1860 C   0  0  0  0  0  0  0  0  0  0  0  0
   36.1560   29.3490   49.8730 C   0  0  0  0  0  0  0  0  0  0  0  0
   35.9120   30.2280   48.8200 C   0  0  0  0  0  0  0  0  0  0  0  0
   34.7240   30.0970   48.1420 N   0  0  0  0  0  0  0  0  0  0  0  0
   33.8140   29.1500   48.4780 C   0  0  0  0  0  0  0  0  0  0  0  0
   34.0250   28.2950   49.4840 N   0  0  0  0  0  0  0  0  0  0  0  0
   32.6740   29.2200   47.6290 N   0  0  0  0  0  0  0  0  0  0  0  0
   35.3410   27.6760   51.0050 H   0  0  0  0  0  0  0  0  0  0  0  0
   32.8010   29.1280   46.5910 H   0  0  0  0  0  0  0  0  0  0  0  0
   31.7030   29.3650   48.0410 H   0  0  0  0  0  0  0  0  0  0  0  0
   37.4010   29.3920   50.6790 C   0  0  0  0  0  0  0  0  0  0  0  0
   38.4860   29.8060   49.9210 F   0  0  0  0  0  0  0  0  0  0  0  0
   37.2280   30.2710   51.7100 F   0  0  0  0  0  0  0  0  0  0  0  0
   37.7340   28.1610   51.2250 F   0  0  0  0  0  0  0  0  0  0  0  0
   39.4630   31.2110   45.2130 C   0  0  1  0  0  3  0  0  0  0  0  0
   39.1210   32.5330   45.8220 C   0  0  2  0  0  3  0  0  0  0  0  0
   40.3690   33.1850   45.9420 O   0  0  0  0  0  0  0  0  0  0  0  0
   40.8170   33.0610   44.6260 C   0  0  0  0  0  2  0  0  0  0  0  0
   40.6950   31.5820   44.3890 C   0  0  2  0  0  3  0  0  0  0  0  0
   39.8680   30.2710   46.1610 O   0  0  0  0  0  0  0  0  0  0  0  0
   40.2470   29.5050   45.6270 H   0  0  0  0  0  0  0  0  0  0  0  0
   40.4420   31.2920   43.0380 O   0  0  0  0  0  0  0  0  0  0  0  0
   41.2350   31.5420   42.5110 H   0  0  0  0  0  0  0  0  0  0  0  0
  1 12  1  0  0  0  0
  1  2  1  0  0  0  0
  2  7  1  0  0  0  0
  3  2  2  0  0  0  0
  3  8  1  0  0  0  0
  4  3  1  0  0  0  0
  5  6  1  0  0  0  0
  5  4  2  0  0  0  0
  6  1  2  0  0  0  0
  9  4  1  0  0  0  0
 10 17  1  0  0  0  0
 11 10  1  0  0  0  0
 11 20  1  0  0  0  0
 12 11  2  0  0  0  0
 13 14  2  0  0  0  0
 13 12  1  0  0  0  0
 14 15  1  0  0  0  0
 15 10  2  0  0  0  0
 16 19  1  0  0  0  0
 16 14  1  0  0  0  0
 18 16  1  0  0  0  0
 20 23  1  0  0  0  0
 20 22  1  0  0  0  0
 21 20  1  0  0  0  0
 24 25  1  0  0  0  0
 24 29  1  1  0  0  0
 25 26  1  0  0  0  0
 25  5  1  1  0  0  0
 27 26  1  0  0  0  0
 28 31  1  6  0  0  0
 28 27  1  0  0  0  0
 28 24  1  0  0  0  0
 30 29  1  0  0  0  0
 32 31  1  0  0  0  0
M  END
>  <minimizedAffinity>
-7.22767305

>  <minimizedRMSD>
1.00666821

$$$$
