
 OpenBabel03272509213D

 46 50  0  0  1  0  0  0  0  0999 V2000
   37.9480   31.2400   47.9860 C   0  0  0  0  0  0  0  0  0  0  0  0
   37.2130   31.5400   49.1230 C   0  0  0  0  0  0  0  0  0  0  0  0
   37.5570   32.7760   49.6990 C   0  0  0  0  0  0  0  0  0  0  0  0
   38.5450   33.5960   49.1550 C   0  0  0  0  0  0  0  0  0  0  0  0
   39.2260   33.1800   47.9920 C   0  0  0  0  0  0  0  0  0  0  0  0
   38.9100   31.9750   47.4050 C   0  0  0  0  0  0  0  0  0  0  0  0
   37.0560   33.1310   50.5940 H   0  0  0  0  0  0  0  0  0  0  0  0
   38.7870   34.5460   49.6250 H   0  0  0  0  0  0  0  0  0  0  0  0
   39.9690   33.8570   47.6310 H   0  0  0  0  0  0  0  0  0  0  0  0
   34.9630   30.6070   49.0620 C   0  0  0  0  0  0  0  0  0  0  0  0
   36.2050   30.7050   49.6790 C   0  0  0  0  0  0  0  0  0  0  0  0
   36.4110   29.9580   50.8510 C   0  0  0  0  0  0  0  0  0  0  0  0
   35.3940   29.1880   51.3100 N   0  0  0  0  0  0  0  0  0  0  0  0
   34.1950   29.1260   50.6690 C   0  0  0  0  0  0  0  0  0  0  0  0
   33.9820   29.8300   49.5550 N   0  0  0  0  0  0  0  0  0  0  0  0
   34.7910   31.1780   48.1610 H   0  0  0  0  0  0  0  0  0  0  0  0
   33.4360   28.4830   51.1080 H   0  0  0  0  0  0  0  0  0  0  0  0
   37.7240   30.0260   51.5510 C   0  0  0  0  0  0  0  0  0  0  0  0
   38.5250   29.6760   50.8690 H   0  0  0  0  0  0  0  0  0  0  0  0
   37.9320   31.0070   52.0100 H   0  0  0  0  0  0  0  0  0  0  0  0
   37.6970   29.2850   52.3720 H   0  0  0  0  0  0  0  0  0  0  0  0
   37.6740   30.0150   47.3330 O   0  0  0  0  0  0  0  0  0  0  0  0
   37.9240   29.2020   47.8620 H   0  0  0  0  0  0  0  0  0  0  0  0
   39.6100   31.6280   46.2740 O   0  0  0  0  0  0  0  0  0  0  0  0
   39.1810   30.3520   44.1780 C   0  0  0  0  0  0  0  0  0  0  0  0
   39.1080   31.4560   45.0180 C   0  0  0  0  0  0  0  0  0  0  0  0
   38.4380   32.5810   44.5770 C   0  0  0  0  0  0  0  0  0  0  0  0
   37.8400   32.6140   43.3000 C   0  0  0  0  0  0  0  0  0  0  0  0
   37.1420   33.5310   42.6080 N   0  0  0  0  0  0  0  0  0  0  0  0
   36.7960   33.0360   41.4010 C   0  0  0  0  0  0  0  0  0  0  0  0
   37.2990   31.7740   41.3540 N   0  0  0  0  0  0  0  0  0  0  0  0
   37.9390   31.5030   42.5070 C   0  0  0  0  0  0  0  0  0  0  0  0
   38.5970   30.3760   42.9230 C   0  0  0  0  0  0  0  0  0  0  0  0
   39.7280   29.5290   44.6250 H   0  0  0  0  0  0  0  0  0  0  0  0
   38.3000   33.5080   45.1150 H   0  0  0  0  0  0  0  0  0  0  0  0
   36.9020   34.4800   42.9440 H   0  0  0  0  0  0  0  0  0  0  0  0
   36.2520   33.4530   40.5900 H   0  0  0  0  0  0  0  0  0  0  0  0
   39.8420   29.1960   41.1030 C   0  0  2  0  0  3  0  0  0  0  0  0
   38.7360   29.1340   42.0980 C   0  0  1  0  0  3  0  0  0  0  0  0
   38.9200   28.0850   42.9540 O   0  0  0  0  0  0  0  0  0  0  0  0
   39.9970   27.3350   42.5040 C   0  0  0  0  0  2  0  0  0  0  0  0
   40.8580   28.2310   41.6760 C   0  0  2  0  0  3  0  0  0  0  0  0
   40.3750   30.4730   40.9490 O   0  0  0  0  0  0  0  0  0  0  0  0
   41.2060   30.5040   41.4790 H   0  0  0  0  0  0  0  0  0  0  0  0
   41.8720   28.8710   42.3830 O   0  0  0  0  0  0  0  0  0  0  0  0
   42.1690   28.3710   43.1830 H   0  0  0  0  0  0  0  0  0  0  0  0
  1  2  1  0  0  0  0
  2 11  1  0  0  0  0
  2  3  2  0  0  0  0
  3  7  1  0  0  0  0
  4  8  1  0  0  0  0
  4  3  1  0  0  0  0
  5  4  2  0  0  0  0
  6  1  2  0  0  0  0
  6  5  1  0  0  0  0
  9  5  1  0  0  0  0
 10 15  2  0  0  0  0
 10 11  1  0  0  0  0
 11 12  2  0  0  0  0
 12 13  1  0  0  0  0
 12 18  1  0  0  0  0
 14 17  1  0  0  0  0
 14 13  2  0  0  0  0
 15 14  1  0  0  0  0
 16 10  1  0  0  0  0
 18 20  1  0  0  0  0
 18 21  1  0  0  0  0
 19 18  1  0  0  0  0
 22 23  1  0  0  0  0
 22  1  1  0  0  0  0
 24  6  1  0  0  0  0
 25 34  1  0  0  0  0
 25 26  1  0  0  0  0
 26 24  1  0  0  0  0
 27 26  2  0  0  0  0
 27 35  1  0  0  0  0
 28 27  1  0  0  0  0
 29 36  1  0  0  0  0
 29 28  1  0  0  0  0
 30 29  1  0  0  0  0
 31 30  2  0  0  0  0
 31 32  1  0  0  0  0
 32 33  1  0  0  0  0
 32 28  2  0  0  0  0
 33 25  2  0  0  0  0
 37 30  1  0  0  0  0
 38 43  1  1  0  0  0
 38 42  1  0  0  0  0
 38 39  1  0  0  0  0
 39 33  1  1  0  0  0
 39 40  1  0  0  0  0
 41 40  1  0  0  0  0
 42 45  1  1  0  0  0
 42 41  1  0  0  0  0
 43 44  1  0  0  0  0
 45 46  1  0  0  0  0
M  END
>  <minimizedAffinity>
-7.57585526

>  <minimizedRMSD>
1.83572578

$$$$
