
 OpenBabel03272500163D

 31 33  0  0  1  0  0  0  0  0999 V2000
   40.2530   26.1210   32.3660 Cl  0  0  0  0  0  0  0  0  0  0  0  0
   38.8130   27.0900   32.1130 C   0  0  0  0  0  0  0  0  0  0  0  0
   37.7960   27.0990   33.0760 C   0  0  0  0  0  0  0  0  0  0  0  0
   36.6490   27.8580   32.8960 C   0  0  0  0  0  0  0  0  0  0  0  0
   36.5270   28.6120   31.7390 C   0  0  0  0  0  0  0  0  0  0  0  0
   37.5220   28.6200   30.7710 C   0  0  0  0  0  0  0  0  0  0  0  0
   37.3300   29.5810   29.3310 Cl  0  0  0  0  0  0  0  0  0  0  0  0
   38.6570   27.8540   30.9730 C   0  0  0  0  0  0  0  0  0  0  0  0
   35.8670   27.8560   33.6500 H   0  0  0  0  0  0  0  0  0  0  0  0
   35.6140   29.1850   31.6500 H   0  0  0  0  0  0  0  0  0  0  0  0
   38.2280   26.1870   36.6090 C   0  0  0  0  0  0  0  0  0  0  0  0
   38.1660   24.7740   36.5510 C   0  0  0  0  0  0  0  0  0  0  0  0
   37.9800   24.1760   35.3050 C   0  0  0  0  0  0  0  0  0  0  0  0
   37.8670   24.9870   34.2150 N   0  0  0  0  0  0  0  0  0  0  0  0
   37.9260   26.3100   34.2840 C   0  0  0  0  0  0  0  0  0  0  0  0
   38.1050   26.9060   35.4720 N   0  0  0  0  0  0  0  0  0  0  0  0
   38.3740   26.7230   37.5580 H   0  0  0  0  0  0  0  0  0  0  0  0
   37.9330   23.1040   35.2580 H   0  0  0  0  0  0  0  0  0  0  0  0
   38.3060   24.0110   37.8230 C   0  0  0  0  0  0  0  0  0  0  0  0
   38.1930   24.8900   38.9170 F   0  0  0  0  0  0  0  0  0  0  0  0
   37.2870   23.1040   37.9070 F   0  0  0  0  0  0  0  0  0  0  0  0
   39.5180   23.3530   37.9240 F   0  0  0  0  0  0  0  0  0  0  0  0
   39.3340   27.2230   28.6680 C   0  0  1  0  0  3  0  0  0  0  0  0
   39.7470   27.8300   29.9670 C   0  0  1  0  0  3  0  0  0  0  0  0
   40.1370   29.1170   29.5940 O   0  0  0  0  0  0  0  0  0  0  0  0
   41.0500   28.8240   28.5590 C   0  0  0  0  0  2  0  0  0  0  0  0
   40.3340   27.7960   27.6870 C   0  0  2  0  0  3  0  0  0  0  0  0
   39.3350   25.8340   28.6600 O   0  0  0  0  0  0  0  0  0  0  0  0
   38.4840   25.4410   28.9430 H   0  0  0  0  0  0  0  0  0  0  0  0
   39.7280   28.4180   26.6000 O   0  0  0  0  0  0  0  0  0  0  0  0
   40.0240   27.9790   25.7510 H   0  0  0  0  0  0  0  0  0  0  0  0
  2  1  1  0  0  0  0
  2  3  1  0  0  0  0
  3 15  1  0  0  0  0
  4  3  2  0  0  0  0
  4  9  1  0  0  0  0
  5  4  1  0  0  0  0
  6  8  1  0  0  0  0
  6  5  2  0  0  0  0
  7  6  1  0  0  0  0
  8  2  2  0  0  0  0
 10  5  1  0  0  0  0
 11 17  1  0  0  0  0
 12 11  1  0  0  0  0
 12 19  1  0  0  0  0
 13 12  2  0  0  0  0
 14 15  2  0  0  0  0
 14 13  1  0  0  0  0
 15 16  1  0  0  0  0
 16 11  2  0  0  0  0
 18 13  1  0  0  0  0
 19 21  1  0  0  0  0
 19 22  1  0  0  0  0
 19 20  1  0  0  0  0
 23 28  1  1  0  0  0
 23 24  1  0  0  0  0
 24  8  1  1  0  0  0
 25 24  1  0  0  0  0
 26 25  1  0  0  0  0
 27 30  1  6  0  0  0
 27 26  1  0  0  0  0
 27 23  1  0  0  0  0
 28 29  1  0  0  0  0
 31 30  1  0  0  0  0
M  END
>  <minimizedAffinity>
-5.80549383

$$$$

 OpenBabel03272500163D

 31 33  0  0  1  0  0  0  0  0999 V2000
   36.5430   27.6980   34.2480 Cl  0  0  0  0  0  0  0  0  0  0  0  0
   36.4960   28.6030   32.7470 C   0  0  0  0  0  0  0  0  0  0  0  0
   35.7590   29.7910   32.6670 C   0  0  0  0  0  0  0  0  0  0  0  0
   35.7090   30.5220   31.4890 C   0  0  0  0  0  0  0  0  0  0  0  0
   36.4050   30.0530   30.3870 C   0  0  0  0  0  0  0  0  0  0  0  0
   37.1420   28.8780   30.4410 C   0  0  0  0  0  0  0  0  0  0  0  0
   38.0030   28.3220   29.0320 Cl  0  0  0  0  0  0  0  0  0  0  0  0
   37.1770   28.1660   31.6270 C   0  0  0  0  0  0  0  0  0  0  0  0
   35.1330   31.4420   31.4410 H   0  0  0  0  0  0  0  0  0  0  0  0
   36.3310   30.6620   29.4950 H   0  0  0  0  0  0  0  0  0  0  0  0
   33.0840   30.3160   35.1300 C   0  0  0  0  0  0  0  0  0  0  0  0
   33.6910   31.2300   36.0240 C   0  0  0  0  0  0  0  0  0  0  0  0
   34.9970   31.6400   35.7580 C   0  0  0  0  0  0  0  0  0  0  0  0
   35.6130   31.1360   34.6500 N   0  0  0  0  0  0  0  0  0  0  0  0
   35.0320   30.2790   33.8220 C   0  0  0  0  0  0  0  0  0  0  0  0
   33.7770   29.8710   34.0590 N   0  0  0  0  0  0  0  0  0  0  0  0
   32.0570   29.9520   35.2810 H   0  0  0  0  0  0  0  0  0  0  0  0
   35.4610   32.3330   36.4340 H   0  0  0  0  0  0  0  0  0  0  0  0
   32.8990   31.7010   37.1950 C   0  0  0  0  0  0  0  0  0  0  0  0
   31.6450   32.1710   36.7590 F   0  0  0  0  0  0  0  0  0  0  0  0
   32.6820   30.6450   38.0340 F   0  0  0  0  0  0  0  0  0  0  0  0
   33.5230   32.7210   37.8900 F   0  0  0  0  0  0  0  0  0  0  0  0
   37.2900   25.7500   31.0610 C   0  0  1  0  0  3  0  0  0  0  0  0
   37.9520   26.9050   31.7340 C   0  0  1  0  0  3  0  0  0  0  0  0
   39.1750   26.9890   31.0680 O   0  0  0  0  0  0  0  0  0  0  0  0
   39.6330   25.6600   31.1940 C   0  0  0  0  0  2  0  0  0  0  0  0
   38.4370   24.7960   30.8060 C   0  0  2  0  0  3  0  0  0  0  0  0
   36.2770   25.1580   31.8060 O   0  0  0  0  0  0  0  0  0  0  0  0
   35.3960   25.5570   31.6550 H   0  0  0  0  0  0  0  0  0  0  0  0
   38.5290   24.4080   29.4730 O   0  0  0  0  0  0  0  0  0  0  0  0
   38.4520   23.4130   29.4040 H   0  0  0  0  0  0  0  0  0  0  0  0
  2  1  1  0  0  0  0
  3  2  1  0  0  0  0
  3 15  1  0  0  0  0
  4  3  2  0  0  0  0
  5  6  2  0  0  0  0
  5  4  1  0  0  0  0
  6  8  1  0  0  0  0
  7  6  1  0  0  0  0
  8  2  2  0  0  0  0
  9  4  1  0  0  0  0
 10  5  1  0  0  0  0
 11 17  1  0  0  0  0
 11 12  1  0  0  0  0
 12 19  1  0  0  0  0
 13 12  2  0  0  0  0
 13 18  1  0  0  0  0
 14 13  1  0  0  0  0
 15 16  1  0  0  0  0
 15 14  2  0  0  0  0
 16 11  2  0  0  0  0
 19 22  1  0  0  0  0
 19 21  1  0  0  0  0
 20 19  1  0  0  0  0
 23 24  1  0  0  0  0
 23 28  1  1  0  0  0
 24  8  1  6  0  0  0
 25 26  1  0  0  0  0
 25 24  1  0  0  0  0
 27 30  1  6  0  0  0
 27 23  1  0  0  0  0
 27 26  1  0  0  0  0
 29 28  1  0  0  0  0
 31 30  1  0  0  0  0
M  END
>  <minimizedAffinity>
-5.68829203

$$$$

 OpenBabel03272500163D

 31 33  0  0  1  0  0  0  0  0999 V2000
   38.9420   26.9990   35.5130 Cl  0  0  0  0  0  0  0  0  0  0  0  0
   38.3880   25.7190   34.4500 C   0  0  0  0  0  0  0  0  0  0  0  0
   37.4430   25.9950   33.4550 C   0  0  0  0  0  0  0  0  0  0  0  0
   36.9910   24.9970   32.6040 C   0  0  0  0  0  0  0  0  0  0  0  0
   37.4950   23.7150   32.7570 C   0  0  0  0  0  0  0  0  0  0  0  0
   38.4320   23.4180   33.7370 C   0  0  0  0  0  0  0  0  0  0  0  0
   39.0410   21.7930   33.8980 Cl  0  0  0  0  0  0  0  0  0  0  0  0
   38.8670   24.4290   34.5750 C   0  0  0  0  0  0  0  0  0  0  0  0
   36.2570   25.2240   31.8350 H   0  0  0  0  0  0  0  0  0  0  0  0
   37.1090   22.9770   32.0670 H   0  0  0  0  0  0  0  0  0  0  0  0
   36.5820   29.2430   31.9690 C   0  0  0  0  0  0  0  0  0  0  0  0
   35.9050   29.8780   33.0380 C   0  0  0  0  0  0  0  0  0  0  0  0
   35.7650   29.1760   34.2350 C   0  0  0  0  0  0  0  0  0  0  0  0
   36.2870   27.9190   34.3060 N   0  0  0  0  0  0  0  0  0  0  0  0
   36.9180   27.3360   33.2960 C   0  0  0  0  0  0  0  0  0  0  0  0
   37.0650   27.9920   32.1360 N   0  0  0  0  0  0  0  0  0  0  0  0
   36.7290   29.7400   30.9990 H   0  0  0  0  0  0  0  0  0  0  0  0
   35.2520   29.6550   35.0480 H   0  0  0  0  0  0  0  0  0  0  0  0
   35.3860   31.2580   32.8220 C   0  0  0  0  0  0  0  0  0  0  0  0
   34.5830   31.2840   31.6650 F   0  0  0  0  0  0  0  0  0  0  0  0
   34.6000   31.6050   33.8840 F   0  0  0  0  0  0  0  0  0  0  0  0
   36.3920   32.1930   32.6680 F   0  0  0  0  0  0  0  0  0  0  0  0
   39.3610   23.2510   36.7040 C   0  0  1  0  0  3  0  0  0  0  0  0
   39.8680   24.1600   35.6360 C   0  0  1  0  0  3  0  0  0  0  0  0
   40.9750   23.4680   35.1430 O   0  0  0  0  0  0  0  0  0  0  0  0
   41.6810   23.2170   36.3380 C   0  0  0  0  0  2  0  0  0  0  0  0
   40.6300   22.6900   37.3100 C   0  0  2  0  0  3  0  0  0  0  0  0
   38.5630   23.8740   37.6550 O   0  0  0  0  0  0  0  0  0  0  0  0
   37.6120   23.8840   37.4210 H   0  0  0  0  0  0  0  0  0  0  0  0
   40.6460   21.2980   37.3350 O   0  0  0  0  0  0  0  0  0  0  0  0
   40.7470   20.9790   38.2780 H   0  0  0  0  0  0  0  0  0  0  0  0
  2  8  1  0  0  0  0
  2  1  1  0  0  0  0
  3  2  2  0  0  0  0
  4  5  2  0  0  0  0
  4  3  1  0  0  0  0
  5  6  1  0  0  0  0
  6  7  1  0  0  0  0
  6  8  2  0  0  0  0
  9  4  1  0  0  0  0
 10  5  1  0  0  0  0
 11 16  2  0  0  0  0
 11 12  1  0  0  0  0
 12 13  2  0  0  0  0
 13 14  1  0  0  0  0
 13 18  1  0  0  0  0
 15  3  1  0  0  0  0
 15 14  2  0  0  0  0
 16 15  1  0  0  0  0
 17 11  1  0  0  0  0
 19 12  1  0  0  0  0
 19 21  1  0  0  0  0
 20 19  1  0  0  0  0
 22 19  1  0  0  0  0
 23 27  1  0  0  0  0
 23 28  1  1  0  0  0
 24  8  1  6  0  0  0
 24 23  1  0  0  0  0
 25 24  1  0  0  0  0
 25 26  1  0  0  0  0
 26 27  1  0  0  0  0
 27 30  1  6  0  0  0
 29 28  1  0  0  0  0
 30 31  1  0  0  0  0
M  END
>  <minimizedAffinity>
-5.68139648

$$$$

 OpenBabel03272500163D

 31 33  0  0  1  0  0  0  0  0999 V2000
   35.7080   28.7830   34.3730 Cl  0  0  0  0  0  0  0  0  0  0  0  0
   36.6850   28.5290   32.9400 C   0  0  0  0  0  0  0  0  0  0  0  0
   37.6250   27.4910   32.9070 C   0  0  0  0  0  0  0  0  0  0  0  0
   38.4090   27.2730   31.7840 C   0  0  0  0  0  0  0  0  0  0  0  0
   38.2430   28.1040   30.6880 C   0  0  0  0  0  0  0  0  0  0  0  0
   37.3180   29.1390   30.6960 C   0  0  0  0  0  0  0  0  0  0  0  0
   37.1410   30.1630   29.2970 Cl  0  0  0  0  0  0  0  0  0  0  0  0
   36.5480   29.3380   31.8290 C   0  0  0  0  0  0  0  0  0  0  0  0
   39.1350   26.4640   31.7720 H   0  0  0  0  0  0  0  0  0  0  0  0
   38.8790   27.8890   29.8390 H   0  0  0  0  0  0  0  0  0  0  0  0
   38.2520   26.3420   36.3410 C   0  0  0  0  0  0  0  0  0  0  0  0
   38.1090   24.9400   36.2050 C   0  0  0  0  0  0  0  0  0  0  0  0
   37.8040   24.4300   34.9440 C   0  0  0  0  0  0  0  0  0  0  0  0
   37.6600   25.3120   33.9140 N   0  0  0  0  0  0  0  0  0  0  0  0
   37.7960   26.6230   34.0550 C   0  0  0  0  0  0  0  0  0  0  0  0
   38.0890   27.1350   35.2590 N   0  0  0  0  0  0  0  0  0  0  0  0
   38.4930   26.8100   37.3060 H   0  0  0  0  0  0  0  0  0  0  0  0
   37.6950   23.3670   34.8380 H   0  0  0  0  0  0  0  0  0  0  0  0
   38.2960   24.0930   37.4170 C   0  0  0  0  0  0  0  0  0  0  0  0
   38.1520   24.8850   38.5730 F   0  0  0  0  0  0  0  0  0  0  0  0
   37.3210   23.1360   37.4410 F   0  0  0  0  0  0  0  0  0  0  0  0
   39.5370   23.4870   37.4620 F   0  0  0  0  0  0  0  0  0  0  0  0
   36.0210   31.6950   31.2520 C   0  0  1  0  0  3  0  0  0  0  0  0
   35.5460   30.4310   31.8850 C   0  0  1  0  0  3  0  0  0  0  0  0
   34.4040   30.1260   31.1440 O   0  0  0  0  0  0  0  0  0  0  0  0
   33.6980   31.3440   31.2390 C   0  0  0  0  0  2  0  0  0  0  0  0
   34.7330   32.4200   30.9240 C   0  0  2  0  0  3  0  0  0  0  0  0
   36.8560   32.4590   32.0570 O   0  0  0  0  0  0  0  0  0  0  0  0
   37.8040   32.2330   31.9620 H   0  0  0  0  0  0  0  0  0  0  0  0
   34.6520   32.7970   29.5870 O   0  0  0  0  0  0  0  0  0  0  0  0
   34.5450   33.7890   29.5220 H   0  0  0  0  0  0  0  0  0  0  0  0
  2  1  1  0  0  0  0
  3  2  1  0  0  0  0
  3 15  1  0  0  0  0
  4  3  2  0  0  0  0
  5  6  2  0  0  0  0
  5  4  1  0  0  0  0
  6  8  1  0  0  0  0
  7  6  1  0  0  0  0
  8  2  2  0  0  0  0
  9  4  1  0  0  0  0
 10  5  1  0  0  0  0
 11 17  1  0  0  0  0
 12 11  1  0  0  0  0
 12 19  1  0  0  0  0
 13 12  2  0  0  0  0
 14 15  2  0  0  0  0
 14 13  1  0  0  0  0
 15 16  1  0  0  0  0
 16 11  2  0  0  0  0
 18 13  1  0  0  0  0
 19 21  1  0  0  0  0
 19 22  1  0  0  0  0
 19 20  1  0  0  0  0
 23 24  1  0  0  0  0
 23 28  1  1  0  0  0
 24  8  1  6  0  0  0
 25 26  1  0  0  0  0
 25 24  1  0  0  0  0
 27 30  1  6  0  0  0
 27 26  1  0  0  0  0
 27 23  1  0  0  0  0
 29 28  1  0  0  0  0
 31 30  1  0  0  0  0
M  END
>  <minimizedAffinity>
-5.68012094

$$$$

 OpenBabel03272500163D

 31 33  0  0  1  0  0  0  0  0999 V2000
   36.7590   27.4720   34.7770 Cl  0  0  0  0  0  0  0  0  0  0  0  0
   36.7580   28.2220   33.1910 C   0  0  0  0  0  0  0  0  0  0  0  0
   35.9730   29.3570   32.9540 C   0  0  0  0  0  0  0  0  0  0  0  0
   35.9570   29.9650   31.7070 C   0  0  0  0  0  0  0  0  0  0  0  0
   36.7350   29.4260   30.6950 C   0  0  0  0  0  0  0  0  0  0  0  0
   37.5210   28.3020   30.9070 C   0  0  0  0  0  0  0  0  0  0  0  0
   38.4870   27.6550   29.6080 Cl  0  0  0  0  0  0  0  0  0  0  0  0
   37.5210   27.7120   32.1590 C   0  0  0  0  0  0  0  0  0  0  0  0
   35.3430   30.8460   31.5360 H   0  0  0  0  0  0  0  0  0  0  0  0
   36.6850   29.9400   29.7450 H   0  0  0  0  0  0  0  0  0  0  0  0
   33.1290   30.0030   35.1890 C   0  0  0  0  0  0  0  0  0  0  0  0
   33.6520   31.0090   36.0360 C   0  0  0  0  0  0  0  0  0  0  0  0
   34.9620   31.4370   35.8170 C   0  0  0  0  0  0  0  0  0  0  0  0
   35.6620   30.8600   34.7990 N   0  0  0  0  0  0  0  0  0  0  0  0
   35.1590   29.9180   34.0140 C   0  0  0  0  0  0  0  0  0  0  0  0
   33.9030   29.4920   34.2060 N   0  0  0  0  0  0  0  0  0  0  0  0
   32.1050   29.6210   35.3060 H   0  0  0  0  0  0  0  0  0  0  0  0
   35.3610   32.2000   36.4580 H   0  0  0  0  0  0  0  0  0  0  0  0
   32.7730   31.5530   37.1100 C   0  0  0  0  0  0  0  0  0  0  0  0
   32.4780   30.5350   38.0390 F   0  0  0  0  0  0  0  0  0  0  0  0
   33.4450   32.5410   37.7710 F   0  0  0  0  0  0  0  0  0  0  0  0
   31.5790   32.0510   36.6240 F   0  0  0  0  0  0  0  0  0  0  0  0
   39.3970   26.7400   33.4640 C   0  0  1  0  0  3  0  0  0  0  0  0
   38.3450   26.5090   32.4330 C   0  0  1  0  0  3  0  0  0  0  0  0
   37.5880   25.4780   32.9920 O   0  0  0  0  0  0  0  0  0  0  0  0
   38.6000   24.5380   33.2810 C   0  0  0  0  0  2  0  0  0  0  0  0
   39.6970   25.3450   33.9690 C   0  0  2  0  0  3  0  0  0  0  0  0
   40.5360   27.3760   32.9860 O   0  0  0  0  0  0  0  0  0  0  0  0
   40.4870   28.3530   33.0330 H   0  0  0  0  0  0  0  0  0  0  0  0
   39.5860   25.2370   35.3520 O   0  0  0  0  0  0  0  0  0  0  0  0
   40.4580   24.9350   35.7380 H   0  0  0  0  0  0  0  0  0  0  0  0
  2  1  1  0  0  0  0
  3  2  1  0  0  0  0
  3 15  1  0  0  0  0
  4  3  2  0  0  0  0
  5  6  2  0  0  0  0
  5  4  1  0  0  0  0
  6  8  1  0  0  0  0
  7  6  1  0  0  0  0
  8  2  2  0  0  0  0
  9  4  1  0  0  0  0
 10  5  1  0  0  0  0
 11 17  1  0  0  0  0
 11 12  1  0  0  0  0
 12 19  1  0  0  0  0
 13 12  2  0  0  0  0
 13 18  1  0  0  0  0
 14 13  1  0  0  0  0
 15 16  1  0  0  0  0
 15 14  2  0  0  0  0
 16 11  2  0  0  0  0
 19 21  1  0  0  0  0
 19 20  1  0  0  0  0
 22 19  1  0  0  0  0
 23 28  1  6  0  0  0
 23 27  1  0  0  0  0
 24  8  1  1  0  0  0
 24 25  1  0  0  0  0
 24 23  1  0  0  0  0
 25 26  1  0  0  0  0
 26 27  1  0  0  0  0
 27 30  1  1  0  0  0
 28 29  1  0  0  0  0
 30 31  1  0  0  0  0
M  END
>  <minimizedAffinity>
-5.67803717

$$$$

 OpenBabel03272500163D

 31 33  0  0  1  0  0  0  0  0999 V2000
   39.6810   24.6740   32.4590 Cl  0  0  0  0  0  0  0  0  0  0  0  0
   38.8500   25.6790   33.6310 C   0  0  0  0  0  0  0  0  0  0  0  0
   39.0190   25.4450   35.0010 C   0  0  0  0  0  0  0  0  0  0  0  0
   38.3710   26.2280   35.9450 C   0  0  0  0  0  0  0  0  0  0  0  0
   37.5480   27.2520   35.5050 C   0  0  0  0  0  0  0  0  0  0  0  0
   37.3650   27.5040   34.1530 C   0  0  0  0  0  0  0  0  0  0  0  0
   36.3210   28.8020   33.6400 Cl  0  0  0  0  0  0  0  0  0  0  0  0
   38.0210   26.7090   33.2300 C   0  0  0  0  0  0  0  0  0  0  0  0
   38.5110   26.0350   37.0060 H   0  0  0  0  0  0  0  0  0  0  0  0
   37.0680   27.8310   36.2830 H   0  0  0  0  0  0  0  0  0  0  0  0
   42.0280   23.4580   35.7110 C   0  0  0  0  0  0  0  0  0  0  0  0
   41.4770   22.3170   36.3430 C   0  0  0  0  0  0  0  0  0  0  0  0
   40.0930   22.2610   36.5060 C   0  0  0  0  0  0  0  0  0  0  0  0
   39.3510   23.3100   36.0470 N   0  0  0  0  0  0  0  0  0  0  0  0
   39.8810   24.3730   35.4590 C   0  0  0  0  0  0  0  0  0  0  0  0
   41.2090   24.4470   35.2910 N   0  0  0  0  0  0  0  0  0  0  0  0
   43.1100   23.5660   35.5510 H   0  0  0  0  0  0  0  0  0  0  0  0
   39.6710   21.3970   36.9840 H   0  0  0  0  0  0  0  0  0  0  0  0
   42.4070   21.2440   36.7940 C   0  0  0  0  0  0  0  0  0  0  0  0
   42.3610   20.1670   35.8860 F   0  0  0  0  0  0  0  0  0  0  0  0
   43.6810   21.7360   36.7950 F   0  0  0  0  0  0  0  0  0  0  0  0
   42.0980   20.7600   38.0510 F   0  0  0  0  0  0  0  0  0  0  0  0
   36.4620   27.3070   31.3910 C   0  0  1  0  0  3  0  0  0  0  0  0
   37.8560   26.9390   31.7730 C   0  0  1  0  0  3  0  0  0  0  0  0
   38.5950   28.0390   31.3350 O   0  0  0  0  0  0  0  0  0  0  0  0
   38.1640   28.1270   29.9940 C   0  0  0  0  0  2  0  0  0  0  0  0
   36.6440   28.0150   30.0660 C   0  0  2  0  0  3  0  0  0  0  0  0
   35.5940   26.2280   31.2900 O   0  0  0  0  0  0  0  0  0  0  0  0
   35.1450   26.0070   32.1310 H   0  0  0  0  0  0  0  0  0  0  0  0
   36.0620   29.2790   30.0440 O   0  0  0  0  0  0  0  0  0  0  0  0
   35.3810   29.3250   29.3140 H   0  0  0  0  0  0  0  0  0  0  0  0
  1  2  1  0  0  0  0
  2  3  1  0  0  0  0
  3 15  1  0  0  0  0
  3  4  2  0  0  0  0
  4  9  1  0  0  0  0
  5  4  1  0  0  0  0
  5 10  1  0  0  0  0
  6  5  2  0  0  0  0
  7  6  1  0  0  0  0
  8  2  2  0  0  0  0
  8  6  1  0  0  0  0
 11 12  1  0  0  0  0
 12 13  2  0  0  0  0
 12 19  1  0  0  0  0
 13 18  1  0  0  0  0
 14 13  1  0  0  0  0
 15 14  2  0  0  0  0
 16 15  1  0  0  0  0
 16 11  2  0  0  0  0
 17 11  1  0  0  0  0
 19 21  1  0  0  0  0
 19 22  1  0  0  0  0
 20 19  1  0  0  0  0
 23 28  1  6  0  0  0
 23 24  1  0  0  0  0
 24  8  1  1  0  0  0
 25 24  1  0  0  0  0
 26 27  1  0  0  0  0
 26 25  1  0  0  0  0
 27 30  1  1  0  0  0
 27 23  1  0  0  0  0
 28 29  1  0  0  0  0
 31 30  1  0  0  0  0
M  END
>  <minimizedAffinity>
-5.58705807

$$$$

 OpenBabel03272500163D

 31 33  0  0  1  0  0  0  0  0999 V2000
   39.1390   26.1990   34.2830 Cl  0  0  0  0  0  0  0  0  0  0  0  0
   38.0650   25.1790   33.3440 C   0  0  0  0  0  0  0  0  0  0  0  0
   38.1630   23.7860   33.4380 C   0  0  0  0  0  0  0  0  0  0  0  0
   37.3240   22.9600   32.7040 C   0  0  0  0  0  0  0  0  0  0  0  0
   36.3810   23.5430   31.8710 C   0  0  0  0  0  0  0  0  0  0  0  0
   36.2660   24.9220   31.7620 C   0  0  0  0  0  0  0  0  0  0  0  0
   35.0680   25.6160   30.7030 Cl  0  0  0  0  0  0  0  0  0  0  0  0
   37.1140   25.7250   32.5030 C   0  0  0  0  0  0  0  0  0  0  0  0
   37.4100   21.8800   32.7850 H   0  0  0  0  0  0  0  0  0  0  0  0
   35.7530   22.8540   31.3230 H   0  0  0  0  0  0  0  0  0  0  0  0
   41.3040   22.3120   34.6460 C   0  0  0  0  0  0  0  0  0  0  0  0
   40.9890   22.0300   35.9970 C   0  0  0  0  0  0  0  0  0  0  0  0
   39.7110   22.3510   36.4530 C   0  0  0  0  0  0  0  0  0  0  0  0
   38.8390   22.9190   35.5720 N   0  0  0  0  0  0  0  0  0  0  0  0
   39.1490   23.1790   34.3090 C   0  0  0  0  0  0  0  0  0  0  0  0
   40.3720   22.8780   33.8480 N   0  0  0  0  0  0  0  0  0  0  0  0
   42.2930   22.0840   34.2210 H   0  0  0  0  0  0  0  0  0  0  0  0
   39.4680   22.1380   37.4770 H   0  0  0  0  0  0  0  0  0  0  0  0
   42.0390   21.4050   36.8490 C   0  0  0  0  0  0  0  0  0  0  0  0
   42.4630   20.1940   36.2660 F   0  0  0  0  0  0  0  0  0  0  0  0
   43.1170   22.2420   36.9060 F   0  0  0  0  0  0  0  0  0  0  0  0
   41.5990   21.1330   38.1310 F   0  0  0  0  0  0  0  0  0  0  0  0
   37.5610   27.7510   31.1390 C   0  0  1  0  0  3  0  0  0  0  0  0
   37.0280   27.2040   32.4200 C   0  0  1  0  0  3  0  0  0  0  0  0
   35.7050   27.6470   32.4170 O   0  0  0  0  0  0  0  0  0  0  0  0
   35.8930   29.0280   32.1900 C   0  0  0  0  0  2  0  0  0  0  0  0
   36.8860   29.1020   31.0350 C   0  0  2  0  0  3  0  0  0  0  0  0
   38.9460   27.8580   31.0950 O   0  0  0  0  0  0  0  0  0  0  0  0
   39.3890   27.0520   30.7600 H   0  0  0  0  0  0  0  0  0  0  0  0
   36.2150   29.2780   29.8280 O   0  0  0  0  0  0  0  0  0  0  0  0
   36.5840   30.0750   29.3490 H   0  0  0  0  0  0  0  0  0  0  0  0
  2  3  1  0  0  0  0
  2  1  1  0  0  0  0
  3 15  1  0  0  0  0
  4  9  1  0  0  0  0
  4  3  2  0  0  0  0
  5  4  1  0  0  0  0
  6  5  2  0  0  0  0
  6  8  1  0  0  0  0
  7  6  1  0  0  0  0
  8  2  2  0  0  0  0
 10  5  1  0  0  0  0
 11 12  1  0  0  0  0
 12 13  2  0  0  0  0
 12 19  1  0  0  0  0
 13 18  1  0  0  0  0
 14 13  1  0  0  0  0
 15 14  2  0  0  0  0
 16 15  1  0  0  0  0
 16 11  2  0  0  0  0
 17 11  1  0  0  0  0
 19 21  1  0  0  0  0
 19 22  1  0  0  0  0
 20 19  1  0  0  0  0
 23 28  1  1  0  0  0
 23 24  1  0  0  0  0
 24  8  1  6  0  0  0
 25 24  1  0  0  0  0
 26 25  1  0  0  0  0
 27 30  1  6  0  0  0
 27 23  1  0  0  0  0
 27 26  1  0  0  0  0
 29 28  1  0  0  0  0
 31 30  1  0  0  0  0
M  END
>  <minimizedAffinity>
-5.50724888

$$$$

 OpenBabel03272500163D

 31 33  0  0  1  0  0  0  0  0999 V2000
   35.7720   28.6850   34.6330 Cl  0  0  0  0  0  0  0  0  0  0  0  0
   36.6640   28.4340   33.1440 C   0  0  0  0  0  0  0  0  0  0  0  0
   37.5810   27.3810   33.0450 C   0  0  0  0  0  0  0  0  0  0  0  0
   38.2970   27.1640   31.8770 C   0  0  0  0  0  0  0  0  0  0  0  0
   38.0860   28.0140   30.8030 C   0  0  0  0  0  0  0  0  0  0  0  0
   37.1830   29.0650   30.8770 C   0  0  0  0  0  0  0  0  0  0  0  0
   36.9470   30.1120   29.5040 Cl  0  0  0  0  0  0  0  0  0  0  0  0
   36.4810   29.2620   32.0530 C   0  0  0  0  0  0  0  0  0  0  0  0
   39.0060   26.3430   31.8130 H   0  0  0  0  0  0  0  0  0  0  0  0
   38.6700   27.8000   29.9180 H   0  0  0  0  0  0  0  0  0  0  0  0
   38.2210   26.1770   36.4570 C   0  0  0  0  0  0  0  0  0  0  0  0
   38.2060   24.7730   36.2750 C   0  0  0  0  0  0  0  0  0  0  0  0
   37.9770   24.2800   34.9900 C   0  0  0  0  0  0  0  0  0  0  0  0
   37.7820   25.1810   33.9840 N   0  0  0  0  0  0  0  0  0  0  0  0
   37.7990   26.4930   34.1700 C   0  0  0  0  0  0  0  0  0  0  0  0
   38.0160   26.9890   35.3970 N   0  0  0  0  0  0  0  0  0  0  0  0
   38.3960   26.6320   37.4430 H   0  0  0  0  0  0  0  0  0  0  0  0
   37.9650   23.2160   34.8480 H   0  0  0  0  0  0  0  0  0  0  0  0
   38.4360   23.9060   37.4640 C   0  0  0  0  0  0  0  0  0  0  0  0
   39.7460   23.3900   37.4270 F   0  0  0  0  0  0  0  0  0  0  0  0
   38.3170   24.6650   38.5940 F   0  0  0  0  0  0  0  0  0  0  0  0
   37.5560   22.8410   37.5310 F   0  0  0  0  0  0  0  0  0  0  0  0
   34.2830   29.9940   32.9490 C   0  0  1  0  0  3  0  0  0  0  0  0
   35.5040   30.3710   32.1800 C   0  0  1  0  0  3  0  0  0  0  0  0
   36.0200   31.4340   32.9230 O   0  0  0  0  0  0  0  0  0  0  0  0
   34.8830   32.2650   33.0150 C   0  0  0  0  0  2  0  0  0  0  0  0
   33.7480   31.3290   33.4210 C   0  0  2  0  0  3  0  0  0  0  0  0
   33.3410   29.2870   32.2150 O   0  0  0  0  0  0  0  0  0  0  0  0
   33.4730   28.3170   32.2400 H   0  0  0  0  0  0  0  0  0  0  0  0
   33.5490   31.3740   34.7980 O   0  0  0  0  0  0  0  0  0  0  0  0
   32.5900   31.5770   34.9950 H   0  0  0  0  0  0  0  0  0  0  0  0
  2  1  1  0  0  0  0
  3  2  1  0  0  0  0
  3 15  1  0  0  0  0
  4  3  2  0  0  0  0
  5  6  2  0  0  0  0
  5  4  1  0  0  0  0
  6  8  1  0  0  0  0
  7  6  1  0  0  0  0
  8  2  2  0  0  0  0
  9  4  1  0  0  0  0
 10  5  1  0  0  0  0
 11 17  1  0  0  0  0
 12 11  1  0  0  0  0
 12 19  1  0  0  0  0
 13 12  2  0  0  0  0
 14 15  2  0  0  0  0
 14 13  1  0  0  0  0
 15 16  1  0  0  0  0
 16 11  2  0  0  0  0
 18 13  1  0  0  0  0
 19 22  1  0  0  0  0
 19 21  1  0  0  0  0
 20 19  1  0  0  0  0
 23 28  1  6  0  0  0
 23 27  1  0  0  0  0
 24  8  1  1  0  0  0
 24 25  1  0  0  0  0
 24 23  1  0  0  0  0
 25 26  1  0  0  0  0
 26 27  1  0  0  0  0
 27 30  1  1  0  0  0
 28 29  1  0  0  0  0
 30 31  1  0  0  0  0
M  END
>  <minimizedAffinity>
-5.4994607

$$$$

 OpenBabel03272500163D

 31 33  0  0  1  0  0  0  0  0999 V2000
   35.3550   28.7570   34.4290 Cl  0  0  0  0  0  0  0  0  0  0  0  0
   35.8720   29.6370   33.0030 C   0  0  0  0  0  0  0  0  0  0  0  0
   36.3030   28.9400   31.8670 C   0  0  0  0  0  0  0  0  0  0  0  0
   36.7160   29.6160   30.7290 C   0  0  0  0  0  0  0  0  0  0  0  0
   36.6960   31.0010   30.7350 C   0  0  0  0  0  0  0  0  0  0  0  0
   36.2730   31.7140   31.8490 C   0  0  0  0  0  0  0  0  0  0  0  0
   36.2620   33.4570   31.8170 Cl  0  0  0  0  0  0  0  0  0  0  0  0
   35.8650   31.0180   32.9730 C   0  0  0  0  0  0  0  0  0  0  0  0
   37.0490   29.0630   29.8540 H   0  0  0  0  0  0  0  0  0  0  0  0
   37.0280   31.4770   29.8220 H   0  0  0  0  0  0  0  0  0  0  0  0
   37.3250   25.4710   32.5170 C   0  0  0  0  0  0  0  0  0  0  0  0
   36.3240   24.7430   31.8300 C   0  0  0  0  0  0  0  0  0  0  0  0
   35.3300   25.4600   31.1650 C   0  0  0  0  0  0  0  0  0  0  0  0
   35.3800   26.8220   31.2150 N   0  0  0  0  0  0  0  0  0  0  0  0
   36.3230   27.4910   31.8630 C   0  0  0  0  0  0  0  0  0  0  0  0
   37.2890   26.8210   32.5090 N   0  0  0  0  0  0  0  0  0  0  0  0
   38.1380   24.9680   33.0610 H   0  0  0  0  0  0  0  0  0  0  0  0
   34.5690   24.9110   30.6430 H   0  0  0  0  0  0  0  0  0  0  0  0
   36.3920   23.2540   31.8570 C   0  0  0  0  0  0  0  0  0  0  0  0
   37.1290   22.8360   32.9830 F   0  0  0  0  0  0  0  0  0  0  0  0
   35.1260   22.7570   31.9770 F   0  0  0  0  0  0  0  0  0  0  0  0
   36.9920   22.7240   30.7300 F   0  0  0  0  0  0  0  0  0  0  0  0
   33.9420   31.5890   34.4370 C   0  0  1  0  0  3  0  0  0  0  0  0
   35.4050   31.7360   34.1870 C   0  0  1  0  0  3  0  0  0  0  0  0
   35.9700   31.2070   35.3480 O   0  0  0  0  0  0  0  0  0  0  0  0
   35.2810   31.9450   36.3340 C   0  0  0  0  0  2  0  0  0  0  0  0
   33.8150   31.8790   35.9170 C   0  0  2  0  0  3  0  0  0  0  0  0
   33.1440   32.4300   33.6720 O   0  0  0  0  0  0  0  0  0  0  0  0
   32.8830   32.0440   32.8110 H   0  0  0  0  0  0  0  0  0  0  0  0
   33.1570   30.8680   36.6110 O   0  0  0  0  0  0  0  0  0  0  0  0
   32.3450   31.2400   37.0610 H   0  0  0  0  0  0  0  0  0  0  0  0
  2  1  1  0  0  0  0
  3  2  2  0  0  0  0
  4  5  2  0  0  0  0
  4  3  1  0  0  0  0
  5  6  1  0  0  0  0
  6  8  2  0  0  0  0
  7  6  1  0  0  0  0
  8  2  1  0  0  0  0
  9  4  1  0  0  0  0
 10  5  1  0  0  0  0
 11 17  1  0  0  0  0
 12 19  1  0  0  0  0
 12 11  2  0  0  0  0
 13 14  2  0  0  0  0
 13 12  1  0  0  0  0
 14 15  1  0  0  0  0
 15  3  1  0  0  0  0
 15 16  2  0  0  0  0
 16 11  1  0  0  0  0
 18 13  1  0  0  0  0
 19 21  1  0  0  0  0
 19 20  1  0  0  0  0
 22 19  1  0  0  0  0
 23 28  1  6  0  0  0
 23 27  1  0  0  0  0
 24  8  1  6  0  0  0
 24 23  1  0  0  0  0
 24 25  1  0  0  0  0
 25 26  1  0  0  0  0
 27 26  1  0  0  0  0
 27 30  1  1  0  0  0
 29 28  1  0  0  0  0
 30 31  1  0  0  0  0
M  END
>  <minimizedAffinity>
-5.43021393

$$$$
