
 OpenBabel03272509033D

 33 35  0  0  1  0  0  0  0  0999 V2000
   37.5760   31.3300   50.6660 C   0  0  0  0  0  0  0  0  0  0  0  0
   38.3570   31.7980   49.5870 C   0  0  0  0  0  0  0  0  0  0  0  0
   38.1730   31.1710   48.3360 C   0  0  0  0  0  0  0  0  0  0  0  0
   37.2580   30.1570   48.2410 N   0  0  0  0  0  0  0  0  0  0  0  0
   36.5460   29.7630   49.3150 C   0  0  0  0  0  0  0  0  0  0  0  0
   36.6930   30.3370   50.5290 N   0  0  0  0  0  0  0  0  0  0  0  0
   37.7740   31.8600   51.5960 H   0  0  0  0  0  0  0  0  0  0  0  0
   39.0740   32.5850   49.6430 H   0  0  0  0  0  0  0  0  0  0  0  0
   39.3440   30.5400   46.2640 C   0  0  1  0  0  3  0  0  0  0  0  0
   38.9810   31.6440   47.1870 C   0  0  1  0  0  3  0  0  0  0  0  0
   38.3560   32.6380   46.4660 O   0  0  0  0  0  0  0  0  0  0  0  0
   37.8360   32.0840   45.3150 C   0  0  0  0  0  2  0  0  0  0  0  0
   38.3640   30.7040   45.1300 C   0  0  1  0  0  3  0  0  0  0  0  0
   40.6430   30.6650   45.7910 O   0  0  0  0  0  0  0  0  0  0  0  0
   40.6430   30.3260   44.8590 H   0  0  0  0  0  0  0  0  0  0  0  0
   38.9820   30.5280   43.8990 O   0  0  0  0  0  0  0  0  0  0  0  0
   38.3130   30.5780   43.1900 H   0  0  0  0  0  0  0  0  0  0  0  0
   35.6230   28.6770   49.0810 C   0  0  0  0  0  3  0  0  0  0  0  0
   34.4160   28.9340   48.7180 C   0  0  0  0  0  3  0  0  0  0  0  0
   33.3110   28.0150   48.4120 C   0  0  0  0  0  0  0  0  0  0  0  0
   33.0840   27.4290   49.3340 H   0  0  0  0  0  0  0  0  0  0  0  0
   32.3880   28.5550   48.1550 H   0  0  0  0  0  0  0  0  0  0  0  0
   33.6210   27.0640   47.2960 C   0  0  0  0  0  0  0  0  0  0  0  0
   33.8040   25.6970   47.4420 C   0  0  0  0  0  0  0  0  0  0  0  0
   34.0860   24.9240   46.3240 C   0  0  0  0  0  0  0  0  0  0  0  0
   34.1910   25.4900   45.0540 C   0  0  0  0  0  0  0  0  0  0  0  0
   34.0080   26.8540   44.9110 C   0  0  0  0  0  0  0  0  0  0  0  0
   33.7260   27.6280   46.0310 C   0  0  0  0  0  0  0  0  0  0  0  0
   33.7130   25.3120   48.4450 H   0  0  0  0  0  0  0  0  0  0  0  0
   34.2170   23.8690   46.4970 H   0  0  0  0  0  0  0  0  0  0  0  0
   34.4120   24.7970   44.2550 H   0  0  0  0  0  0  0  0  0  0  0  0
   34.0950   27.2580   43.9180 H   0  0  0  0  0  0  0  0  0  0  0  0
   33.6010   28.6760   45.8190 H   0  0  0  0  0  0  0  0  0  0  0  0
  1  7  1  0  0  0  0
  2  8  1  0  0  0  0
  2  1  2  0  0  0  0
  3  2  1  0  0  0  0
  4  3  2  0  0  0  0
  4  5  1  0  0  0  0
  5  6  2  0  0  0  0
  6  1  1  0  0  0  0
  9 14  1  6  0  0  0
  9 10  1  0  0  0  0
 10  3  1  1  0  0  0
 11 10  1  0  0  0  0
 12 11  1  0  0  0  0
 13 16  1  6  0  0  0
 13 12  1  0  0  0  0
 13  9  1  0  0  0  0
 15 14  1  0  0  0  0
 17 16  1  0  0  0  0
 18  5  1  0  0  0  0
 19 18  2  0  0  0  0
 20 19  1  0  0  0  0
 20 21  1  0  0  0  0
 22 20  1  0  0  0  0
 23 24  1  0  0  0  0
 23 20  1  0  0  0  0
 24 29  1  0  0  0  0
 25 30  1  0  0  0  0
 25 24  2  0  0  0  0
 26 25  1  0  0  0  0
 27 26  2  0  0  0  0
 27 28  1  0  0  0  0
 28 23  2  0  0  0  0
 31 26  1  0  0  0  0
 32 27  1  0  0  0  0
 33 28  1  0  0  0  0
M  END
>  <minimizedAffinity>
-5.71981287

>  <minimizedRMSD>
1.12355912

$$$$
