
 OpenBabel03272508533D

 38 41  0  0  1  0  0  0  0  0999 V2000
   38.1170   31.2200   44.8770 C   0  0  0  0  0  0  0  0  0  0  0  0
   37.0940   30.5200   45.0940 O   0  0  0  0  0  0  0  0  0  0  0  0
   38.5510   32.1860   45.8530 N   0  0  0  0  0  0  0  0  0  0  0  0
   39.2540   32.9100   45.6600 H   0  0  0  0  0  0  0  0  0  0  0  0
   38.8970   31.0770   43.6330 C   0  0  0  0  0  0  0  0  0  0  0  0
   40.0610   30.3590   43.6730 C   0  0  0  0  0  0  0  0  0  0  0  0
   40.7820   30.2380   42.4960 C   0  0  0  0  0  0  0  0  0  0  0  0
   40.2890   30.8430   41.3620 C   0  0  0  0  0  0  0  0  0  0  0  0
   39.0980   31.5780   41.3210 C   0  0  0  0  0  0  0  0  0  0  0  0
   38.4440   31.6570   42.5000 N   0  0  0  0  0  0  0  0  0  0  0  0
   40.4550   29.8830   44.5510 H   0  0  0  0  0  0  0  0  0  0  0  0
   41.7000   29.6920   42.4550 H   0  0  0  0  0  0  0  0  0  0  0  0
   40.8250   30.7710   40.4240 H   0  0  0  0  0  0  0  0  0  0  0  0
   38.5040   33.6900   40.1320 C   0  0  1  0  0  3  0  0  0  0  0  0
   38.6370   32.1940   40.0710 C   0  0  2  0  0  3  0  0  0  0  0  0
   37.4150   31.6950   39.6420 O   0  0  0  0  0  0  0  0  0  0  0  0
   36.4390   32.5810   40.0270 C   0  0  0  0  0  2  0  0  0  0  0  0
   37.0310   33.9550   40.0940 C   0  0  2  0  0  3  0  0  0  0  0  0
   38.9950   34.1540   41.3600 O   0  0  0  0  0  0  0  0  0  0  0  0
   38.2630   34.3020   42.0280 H   0  0  0  0  0  0  0  0  0  0  0  0
   36.6710   34.7450   38.9890 O   0  0  0  0  0  0  0  0  0  0  0  0
   36.1580   34.1770   38.3460 H   0  0  0  0  0  0  0  0  0  0  0  0
   38.6020   31.3320   48.1920 C   0  0  2  0  0  0  0  0  0  0  0  0
   38.8370   32.7840   48.2670 C   0  0  0  0  0  0  0  0  0  0  0  0
   37.9530   32.1210   47.1760 C   0  0  1  0  0  0  0  0  0  0  0  0
   39.5300   30.7530   47.9630 H   0  0  0  0  0  0  0  0  0  0  0  0
   38.2720   33.4420   48.9340 H   0  0  0  0  0  0  0  0  0  0  0  0
   39.8060   33.2000   47.9560 H   0  0  0  0  0  0  0  0  0  0  0  0
   36.8650   32.3280   47.2590 H   0  0  0  0  0  0  0  0  0  0  0  0
   36.0560   29.1280   49.7180 C   0  0  0  0  0  0  0  0  0  0  0  0
   36.2940   29.3060   51.1180 C   0  0  0  0  0  0  0  0  0  0  0  0
   37.3540   30.2120   51.4970 C   0  0  0  0  0  0  0  0  0  0  0  0
   38.0580   30.8390   50.5290 N   0  0  0  0  0  0  0  0  0  0  0  0
   37.7760   30.6230   49.2150 C   0  0  0  0  0  0  0  0  0  0  0  0
   36.7800   29.7730   48.7780 N   0  0  0  0  0  0  0  0  0  0  0  0
   35.2560   28.4420   49.4960 H   0  0  0  0  0  0  0  0  0  0  0  0
   35.7160   28.7920   51.8490 H   0  0  0  0  0  0  0  0  0  0  0  0
   37.5580   30.3660   52.5390 H   0  0  0  0  0  0  0  0  0  0  0  0
  1  2  2  0  0  0  0
  1  3  1  0  0  0  0
  3 25  1  0  0  0  0
  4  3  1  0  0  0  0
  5  6  1  0  0  0  0
  5  1  1  0  0  0  0
  6 11  1  0  0  0  0
  7  6  2  0  0  0  0
  8  7  1  0  0  0  0
  9  8  2  0  0  0  0
  9 10  1  0  0  0  0
 10  5  2  0  0  0  0
 12  7  1  0  0  0  0
 13  8  1  0  0  0  0
 14 19  1  1  0  0  0
 15 14  1  0  0  0  0
 15  9  1  1  0  0  0
 16 17  1  0  0  0  0
 16 15  1  0  0  0  0
 17 18  1  0  0  0  0
 18 21  1  6  0  0  0
 18 14  1  0  0  0  0
 19 20  1  0  0  0  0
 22 21  1  0  0  0  0
 23 26  1  6  0  0  0
 23 24  1  0  0  0  0
 23 34  1  0  0  0  0
 24 27  1  0  0  0  0
 25 29  1  1  0  0  0
 25 23  1  0  0  0  0
 25 24  1  0  0  0  0
 28 24  1  0  0  0  0
 30 31  1  0  0  0  0
 31 32  2  0  0  0  0
 31 37  1  0  0  0  0
 32 38  1  0  0  0  0
 33 32  1  0  0  0  0
 34 33  2  0  0  0  0
 35 34  1  0  0  0  0
 35 30  2  0  0  0  0
 36 30  1  0  0  0  0
M  END
>  <minimizedAffinity>
-5.74503231

>  <minimizedRMSD>
0.901747048

$$$$
