
 OpenBabel03272507043D

 31 34  0  0  1  0  0  0  0  0999 V2000
   37.9780   32.7350   49.3480 C   0  0  0  0  0  0  0  0  0  0  0  0
   38.8070   32.7860   48.2020 C   0  0  0  0  0  0  0  0  0  0  0  0
   38.5070   31.8790   47.1710 C   0  0  0  0  0  0  0  0  0  0  0  0
   37.4650   31.0170   47.3090 N   0  0  0  0  0  0  0  0  0  0  0  0
   36.7000   31.0020   48.4160 C   0  0  0  0  0  0  0  0  0  0  0  0
   36.9640   31.8560   49.4140 N   0  0  0  0  0  0  0  0  0  0  0  0
   38.2140   33.4340   50.1350 H   0  0  0  0  0  0  0  0  0  0  0  0
   39.6340   33.4720   48.0970 H   0  0  0  0  0  0  0  0  0  0  0  0
   35.6360   29.0650   49.4870 C   0  0  0  0  0  0  0  0  0  0  0  0
   35.6010   30.0590   48.5040 C   0  0  0  0  0  0  0  0  0  0  0  0
   34.5400   30.1420   47.6330 C   0  0  0  0  0  0  0  0  0  0  0  0
   33.4960   29.2440   47.7200 C   0  0  0  0  0  0  0  0  0  0  0  0
   32.3540   29.1130   46.9940 N   0  0  0  0  0  0  0  0  0  0  0  0
   31.7350   28.0400   47.5650 C   0  0  0  0  0  0  0  0  0  0  0  0
   32.4620   27.5480   48.5800 N   0  0  0  0  0  0  0  0  0  0  0  0
   33.5770   28.2840   48.7030 C   0  0  0  0  0  0  0  0  0  0  0  0
   34.6000   28.1530   49.5930 C   0  0  0  0  0  0  0  0  0  0  0  0
   36.4810   29.0180   50.1610 H   0  0  0  0  0  0  0  0  0  0  0  0
   34.4660   30.8980   46.8510 H   0  0  0  0  0  0  0  0  0  0  0  0
   32.0140   29.6860   46.1900 H   0  0  0  0  0  0  0  0  0  0  0  0
   30.7760   27.6370   47.2380 H   0  0  0  0  0  0  0  0  0  0  0  0
   34.6560   27.4060   50.3530 H   0  0  0  0  0  0  0  0  0  0  0  0
   38.6090   32.1570   44.7080 C   0  0  2  0  0  0  0  0  0  0  0  0
   39.3730   31.9270   45.9700 C   0  0  1  0  0  0  0  0  0  0  0  0
   40.2920   32.9710   46.0840 O   0  0  0  0  0  0  0  0  0  0  0  0
   40.7250   33.1720   44.7580 C   0  0  0  0  0  0  0  0  0  0  0  0
   39.4030   33.2510   44.0260 C   0  0  1  0  0  0  0  0  0  0  0  0
   37.2860   32.5160   44.9120 O   0  0  0  0  0  0  0  0  0  0  0  0
   37.1360   33.3250   44.3660 H   0  0  0  0  0  0  0  0  0  0  0  0
   39.5470   32.9510   42.6730 O   0  0  0  0  0  0  0  0  0  0  0  0
   40.1350   33.6720   42.3030 H   0  0  0  0  0  0  0  0  0  0  0  0
  1  6  1  0  0  0  0
  1  7  1  0  0  0  0
  2  1  2  0  0  0  0
  3  4  2  0  0  0  0
  3  2  1  0  0  0  0
  4  5  1  0  0  0  0
  5 10  1  0  0  0  0
  5  6  2  0  0  0  0
  8  2  1  0  0  0  0
  9 17  1  0  0  0  0
  9 18  1  0  0  0  0
 10  9  2  0  0  0  0
 11 12  2  0  0  0  0
 11 10  1  0  0  0  0
 12 16  1  0  0  0  0
 13 14  1  0  0  0  0
 13 12  1  0  0  0  0
 14 15  2  0  0  0  0
 15 16  1  0  0  0  0
 16 17  2  0  0  0  0
 17 22  1  0  0  0  0
 19 11  1  0  0  0  0
 20 13  1  0  0  0  0
 21 14  1  0  0  0  0
 23 28  1  1  0  0  0
 23 24  1  0  0  0  0
 24 25  1  0  0  0  0
 24  3  1  1  0  0  0
 26 25  1  0  0  0  0
 27 30  1  6  0  0  0
 27 23  1  0  0  0  0
 27 26  1  0  0  0  0
 29 28  1  0  0  0  0
 31 30  1  0  0  0  0
M  END
>  <minimizedAffinity>
-7.05099869

>  <minimizedRMSD>
2.16002536

$$$$
