
 OpenBabel03272502403D

 40 43  0  0  1  0  0  0  0  0999 V2000
   38.3040   24.8010   34.5930 N   0  0  0  0  0  0  0  0  0  0  0  0
   37.8530   24.1080   33.3960 C   0  0  0  0  0  0  0  0  0  0  0  0
   37.1540   25.1870   32.6190 C   0  0  0  0  0  0  0  0  0  0  0  0
   37.1190   26.4390   33.6010 C   0  0  1  0  0  0  0  0  0  0  0  0
   38.3980   26.2450   34.2890 C   0  0  0  0  0  0  0  0  0  0  0  0
   38.7290   23.7410   32.8290 H   0  0  0  0  0  0  0  0  0  0  0  0
   37.1790   23.2460   33.6390 H   0  0  0  0  0  0  0  0  0  0  0  0
   37.6940   25.5090   31.7250 H   0  0  0  0  0  0  0  0  0  0  0  0
   36.1040   24.9360   32.4050 H   0  0  0  0  0  0  0  0  0  0  0  0
   36.2210   26.1920   34.1710 H   0  0  0  0  0  0  0  0  0  0  0  0
   38.5300   26.8120   35.2270 H   0  0  0  0  0  0  0  0  0  0  0  0
   39.2770   26.3650   33.6110 H   0  0  0  0  0  0  0  0  0  0  0  0
   38.8650   26.9410   31.4370 F   0  0  0  0  0  0  0  0  0  0  0  0
   37.8610   27.7710   31.7370 C   0  0  0  0  0  0  0  0  0  0  0  0
   36.9970   27.6510   32.7850 C   0  0  0  0  0  0  0  0  0  0  0  0
   35.9890   28.6200   32.9230 C   0  0  0  0  0  0  0  0  0  0  0  0
   35.8530   29.6640   32.0480 C   0  0  0  0  0  0  0  0  0  0  0  0
   36.7560   29.7550   30.9900 C   0  0  0  0  0  0  0  0  0  0  0  0
   37.7810   28.7970   30.8250 C   0  0  0  0  0  0  0  0  0  0  0  0
   35.3500   28.4540   33.7770 H   0  0  0  0  0  0  0  0  0  0  0  0
   35.0640   30.3890   32.1870 H   0  0  0  0  0  0  0  0  0  0  0  0
   36.6250   30.6000   30.3040 H   0  0  0  0  0  0  0  0  0  0  0  0
   38.2200   28.6480   28.3270 C   0  0  2  0  0  3  0  0  0  0  0  0
   38.6640   29.0110   29.6730 C   0  0  2  0  0  3  0  0  0  0  0  0
   39.8870   28.3360   29.8870 O   0  0  0  0  0  0  0  0  0  0  0  0
   40.5180   28.3440   28.6350 C   0  0  0  0  0  2  0  0  0  0  0  0
   39.3780   27.8490   27.7620 C   0  0  1  0  0  3  0  0  0  0  0  0
   38.1110   29.7600   27.4800 O   0  0  0  0  0  0  0  0  0  0  0  0
   38.7720   30.4610   27.7140 H   0  0  0  0  0  0  0  0  0  0  0  0
   39.2890   26.4880   27.9780 O   0  0  0  0  0  0  0  0  0  0  0  0
   38.4140   26.0870   27.8580 H   0  0  0  0  0  0  0  0  0  0  0  0
   38.6020   24.2370   35.8470 C   0  0  0  0  0  0  0  0  0  0  0  0
   39.7460   23.4260   35.8940 C   0  0  0  0  0  0  0  0  0  0  0  0
   40.1060   22.8180   37.1060 C   0  0  0  0  0  0  0  0  0  0  0  0
   39.2800   23.0770   38.1850 N   0  0  0  0  0  0  0  0  0  0  0  0
   38.1960   23.8590   38.1030 C   0  0  0  0  0  0  0  0  0  0  0  0
   37.8560   24.4410   36.9260 N   0  0  0  0  0  0  0  0  0  0  0  0
   40.3800   23.2330   35.0450 H   0  0  0  0  0  0  0  0  0  0  0  0
   40.9680   22.1820   37.2240 H   0  0  0  0  0  0  0  0  0  0  0  0
   37.6110   24.0070   38.9850 H   0  0  0  0  0  0  0  0  0  0  0  0
  1 32  1  0  0  0  0
  2  7  1  0  0  0  0
  2  1  1  0  0  0  0
  3  2  1  0  0  0  0
  3  4  1  0  0  0  0
  4 10  1  1  0  0  0
  4  5  1  0  0  0  0
  5  1  1  0  0  0  0
  5 11  1  0  0  0  0
  6  2  1  0  0  0  0
  8  3  1  0  0  0  0
  9  3  1  0  0  0  0
 12  5  1  0  0  0  0
 13 14  1  0  0  0  0
 14 15  1  0  0  0  0
 15 16  2  0  0  0  0
 15  4  1  0  0  0  0
 16 20  1  0  0  0  0
 17 21  1  0  0  0  0
 17 16  1  0  0  0  0
 18 17  2  0  0  0  0
 19 18  1  0  0  0  0
 19 14  2  0  0  0  0
 22 18  1  0  0  0  0
 23 28  1  6  0  0  0
 23 24  1  0  0  0  0
 24 25  1  0  0  0  0
 24 19  1  1  0  0  0
 26 25  1  0  0  0  0
 27 30  1  1  0  0  0
 27 23  1  0  0  0  0
 27 26  1  0  0  0  0
 28 29  1  0  0  0  0
 31 30  1  0  0  0  0
 32 33  2  0  0  0  0
 32 37  1  0  0  0  0
 33 34  1  0  0  0  0
 34 39  1  0  0  0  0
 34 35  2  0  0  0  0
 36 35  1  0  0  0  0
 36 40  1  0  0  0  0
 37 36  2  0  0  0  0
 38 33  1  0  0  0  0
M  END
>  <minimizedAffinity>
-6.04349041

$$$$

 OpenBabel03272502403D

 40 43  0  0  1  0  0  0  0  0999 V2000
   35.0470   30.2790   33.8500 N   0  0  0  0  0  0  0  0  0  0  0  0
   35.0930   30.2450   32.3970 C   0  0  0  0  0  0  0  0  0  0  0  0
   36.0320   29.1080   32.1110 C   0  0  0  0  0  0  0  0  0  0  0  0
   36.6090   28.6880   33.5330 C   0  0  1  0  0  0  0  0  0  0  0  0
   35.4260   28.9430   34.3600 C   0  0  0  0  0  0  0  0  0  0  0  0
   34.0870   30.0140   32.0000 H   0  0  0  0  0  0  0  0  0  0  0  0
   35.4480   31.2170   31.9660 H   0  0  0  0  0  0  0  0  0  0  0  0
   35.5420   28.2220   31.7000 H   0  0  0  0  0  0  0  0  0  0  0  0
   36.8990   29.4230   31.5090 H   0  0  0  0  0  0  0  0  0  0  0  0
   37.4230   29.4120   33.6160 H   0  0  0  0  0  0  0  0  0  0  0  0
   35.6050   29.0010   35.4480 H   0  0  0  0  0  0  0  0  0  0  0  0
   34.5750   28.2630   34.1200 H   0  0  0  0  0  0  0  0  0  0  0  0
   38.0240   27.4580   35.6470 F   0  0  0  0  0  0  0  0  0  0  0  0
   37.6870   26.7860   34.5420 C   0  0  0  0  0  0  0  0  0  0  0  0
   37.0530   27.2930   33.4470 C   0  0  0  0  0  0  0  0  0  0  0  0
   36.7660   26.4180   32.3850 C   0  0  0  0  0  0  0  0  0  0  0  0
   37.0980   25.0900   32.4210 C   0  0  0  0  0  0  0  0  0  0  0  0
   37.7470   24.6070   33.5570 C   0  0  0  0  0  0  0  0  0  0  0  0
   38.0510   25.4630   34.6400 C   0  0  0  0  0  0  0  0  0  0  0  0
   36.2660   26.8980   31.5570 H   0  0  0  0  0  0  0  0  0  0  0  0
   36.8590   24.4480   31.5860 H   0  0  0  0  0  0  0  0  0  0  0  0
   38.0020   23.5420   33.5610 H   0  0  0  0  0  0  0  0  0  0  0  0
   39.5250   23.6140   35.5670 C   0  0  2  0  0  3  0  0  0  0  0  0
   38.7370   24.8290   35.7710 C   0  0  2  0  0  3  0  0  0  0  0  0
   37.7960   24.5310   36.7830 O   0  0  0  0  0  0  0  0  0  0  0  0
   38.4790   23.6730   37.6570 C   0  0  0  0  0  2  0  0  0  0  0  0
   39.0480   22.6780   36.6600 C   0  0  1  0  0  3  0  0  0  0  0  0
   40.8880   23.8070   35.8370 O   0  0  0  0  0  0  0  0  0  0  0  0
   41.0250   24.4860   36.5450 H   0  0  0  0  0  0  0  0  0  0  0  0
   37.9980   21.8600   36.2890 O   0  0  0  0  0  0  0  0  0  0  0  0
   38.0460   21.4690   35.4030 H   0  0  0  0  0  0  0  0  0  0  0  0
   34.7120   31.3710   34.6710 C   0  0  0  0  0  0  0  0  0  0  0  0
   35.3680   31.4260   35.9100 C   0  0  0  0  0  0  0  0  0  0  0  0
   35.0810   32.4790   36.7920 C   0  0  0  0  0  0  0  0  0  0  0  0
   34.1500   33.4030   36.3540 N   0  0  0  0  0  0  0  0  0  0  0  0
   33.5440   33.3190   35.1620 C   0  0  0  0  0  0  0  0  0  0  0  0
   33.8270   32.2960   34.3180 N   0  0  0  0  0  0  0  0  0  0  0  0
   36.0920   30.6990   36.2380 H   0  0  0  0  0  0  0  0  0  0  0  0
   35.5420   32.5920   37.7600 H   0  0  0  0  0  0  0  0  0  0  0  0
   32.8360   34.0740   34.9000 H   0  0  0  0  0  0  0  0  0  0  0  0
  1  5  1  0  0  0  0
  1 32  1  0  0  0  0
  2  1  1  0  0  0  0
  3  2  1  0  0  0  0
  3  4  1  0  0  0  0
  4 10  1  1  0  0  0
  4  5  1  0  0  0  0
  5 11  1  0  0  0  0
  6  2  1  0  0  0  0
  7  2  1  0  0  0  0
  8  3  1  0  0  0  0
  9  3  1  0  0  0  0
 12  5  1  0  0  0  0
 14 19  1  0  0  0  0
 14 13  1  0  0  0  0
 15  4  1  0  0  0  0
 15 14  2  0  0  0  0
 16 17  2  0  0  0  0
 16 15  1  0  0  0  0
 17 18  1  0  0  0  0
 18 22  1  0  0  0  0
 18 19  2  0  0  0  0
 20 16  1  0  0  0  0
 21 17  1  0  0  0  0
 23 24  1  0  0  0  0
 23 28  1  1  0  0  0
 23 27  1  0  0  0  0
 24 19  1  6  0  0  0
 24 25  1  0  0  0  0
 25 26  1  0  0  0  0
 27 30  1  6  0  0  0
 27 26  1  0  0  0  0
 28 29  1  0  0  0  0
 31 30  1  0  0  0  0
 32 33  1  0  0  0  0
 33 38  1  0  0  0  0
 33 34  2  0  0  0  0
 34 39  1  0  0  0  0
 35 34  1  0  0  0  0
 36 35  2  0  0  0  0
 37 32  2  0  0  0  0
 37 36  1  0  0  0  0
 40 36  1  0  0  0  0
M  END
>  <minimizedAffinity>
-5.93258905

$$$$

 OpenBabel03272502403D

 40 43  0  0  1  0  0  0  0  0999 V2000
   35.9830   29.0570   33.4540 N   0  0  0  0  0  0  0  0  0  0  0  0
   36.5460   29.1200   32.1150 C   0  0  0  0  0  0  0  0  0  0  0  0
   37.4850   27.9470   32.0830 C   0  0  0  0  0  0  0  0  0  0  0  0
   37.4970   27.3940   33.5750 C   0  0  1  0  0  0  0  0  0  0  0  0
   36.1060   27.6680   33.9480 C   0  0  0  0  0  0  0  0  0  0  0  0
   35.7430   28.9810   31.3680 H   0  0  0  0  0  0  0  0  0  0  0  0
   37.0670   30.0940   31.9240 H   0  0  0  0  0  0  0  0  0  0  0  0
   37.1430   27.1240   31.4500 H   0  0  0  0  0  0  0  0  0  0  0  0
   38.5210   28.2450   31.8580 H   0  0  0  0  0  0  0  0  0  0  0  0
   38.2520   28.0560   34.0040 H   0  0  0  0  0  0  0  0  0  0  0  0
   35.8850   27.6400   35.0290 H   0  0  0  0  0  0  0  0  0  0  0  0
   35.3740   27.0620   33.3630 H   0  0  0  0  0  0  0  0  0  0  0  0
   37.8680   25.8930   35.9400 F   0  0  0  0  0  0  0  0  0  0  0  0
   37.9990   25.3420   34.7290 C   0  0  0  0  0  0  0  0  0  0  0  0
   37.8920   25.9830   33.5310 C   0  0  0  0  0  0  0  0  0  0  0  0
   38.0430   25.2220   32.3590 C   0  0  0  0  0  0  0  0  0  0  0  0
   38.2890   23.8750   32.3870 C   0  0  0  0  0  0  0  0  0  0  0  0
   38.3920   23.2540   33.6310 C   0  0  0  0  0  0  0  0  0  0  0  0
   38.2470   23.9930   34.8270 C   0  0  0  0  0  0  0  0  0  0  0  0
   37.9470   25.8040   31.4550 H   0  0  0  0  0  0  0  0  0  0  0  0
   38.3970   23.3240   31.4650 H   0  0  0  0  0  0  0  0  0  0  0  0
   38.5890   22.1760   33.6270 H   0  0  0  0  0  0  0  0  0  0  0  0
   37.2930   23.1950   37.0430 C   0  0  2  0  0  3  0  0  0  0  0  0
   38.3820   23.2180   36.0660 C   0  0  2  0  0  3  0  0  0  0  0  0
   39.5360   23.6440   36.7630 O   0  0  0  0  0  0  0  0  0  0  0  0
   39.4050   23.0790   38.0400 C   0  0  0  0  0  2  0  0  0  0  0  0
   37.9780   23.4860   38.3630 C   0  0  1  0  0  3  0  0  0  0  0  0
   36.7450   21.9140   37.2040 O   0  0  0  0  0  0  0  0  0  0  0  0
   37.4240   21.2080   37.0630 H   0  0  0  0  0  0  0  0  0  0  0  0
   38.0240   24.8260   38.6960 O   0  0  0  0  0  0  0  0  0  0  0  0
   37.2220   25.3430   38.5240 H   0  0  0  0  0  0  0  0  0  0  0  0
   35.4150   30.1100   34.1950 C   0  0  0  0  0  0  0  0  0  0  0  0
   36.1310   30.5100   35.3330 C   0  0  0  0  0  0  0  0  0  0  0  0
   35.6250   31.5470   36.1320 C   0  0  0  0  0  0  0  0  0  0  0  0
   34.4300   32.1060   35.7180 N   0  0  0  0  0  0  0  0  0  0  0  0
   33.7750   31.6990   34.6220 C   0  0  0  0  0  0  0  0  0  0  0  0
   34.2720   30.6950   33.8580 N   0  0  0  0  0  0  0  0  0  0  0  0
   37.0610   30.0640   35.6440 H   0  0  0  0  0  0  0  0  0  0  0  0
   36.1140   31.9100   37.0210 H   0  0  0  0  0  0  0  0  0  0  0  0
   32.8570   32.1850   34.3720 H   0  0  0  0  0  0  0  0  0  0  0  0
  1  5  1  0  0  0  0
  1 32  1  0  0  0  0
  2  1  1  0  0  0  0
  3  2  1  0  0  0  0
  3  4  1  0  0  0  0
  4  5  1  0  0  0  0
  4 10  1  1  0  0  0
  5 11  1  0  0  0  0
  6  2  1  0  0  0  0
  7  2  1  0  0  0  0
  8  3  1  0  0  0  0
  9  3  1  0  0  0  0
 12  5  1  0  0  0  0
 14 19  1  0  0  0  0
 14 13  1  0  0  0  0
 15  4  1  0  0  0  0
 15 14  2  0  0  0  0
 16 17  2  0  0  0  0
 16 15  1  0  0  0  0
 17 18  1  0  0  0  0
 18 19  2  0  0  0  0
 20 16  1  0  0  0  0
 21 17  1  0  0  0  0
 22 18  1  0  0  0  0
 23 28  1  1  0  0  0
 23 27  1  0  0  0  0
 24 19  1  6  0  0  0
 24 25  1  0  0  0  0
 24 23  1  0  0  0  0
 25 26  1  0  0  0  0
 26 27  1  0  0  0  0
 27 30  1  6  0  0  0
 29 28  1  0  0  0  0
 31 30  1  0  0  0  0
 32 33  1  0  0  0  0
 33 38  1  0  0  0  0
 33 34  2  0  0  0  0
 34 39  1  0  0  0  0
 35 34  1  0  0  0  0
 36 35  2  0  0  0  0
 37 32  2  0  0  0  0
 37 36  1  0  0  0  0
 40 36  1  0  0  0  0
M  END
>  <minimizedAffinity>
-5.91146517

$$$$

 OpenBabel03272502403D

 40 43  0  0  1  0  0  0  0  0999 V2000
   38.0720   25.9630   34.5030 N   0  0  0  0  0  0  0  0  0  0  0  0
   38.8750   26.5860   33.4620 C   0  0  0  0  0  0  0  0  0  0  0  0
   37.9500   27.6240   32.8910 C   0  0  0  0  0  0  0  0  0  0  0  0
   36.5500   27.3530   33.5960 C   0  0  1  0  0  0  0  0  0  0  0  0
   37.0190   26.9180   34.9140 C   0  0  0  0  0  0  0  0  0  0  0  0
   39.7570   27.0740   33.9170 H   0  0  0  0  0  0  0  0  0  0  0  0
   39.2160   25.8430   32.6950 H   0  0  0  0  0  0  0  0  0  0  0  0
   38.2300   28.6510   33.1410 H   0  0  0  0  0  0  0  0  0  0  0  0
   37.7830   27.4870   31.8120 H   0  0  0  0  0  0  0  0  0  0  0  0
   36.1670   26.5710   32.9360 H   0  0  0  0  0  0  0  0  0  0  0  0
   36.2750   26.3980   35.5410 H   0  0  0  0  0  0  0  0  0  0  0  0
   37.5370   27.7300   35.4790 H   0  0  0  0  0  0  0  0  0  0  0  0
   36.9440   29.3880   35.5160 F   0  0  0  0  0  0  0  0  0  0  0  0
   36.0800   29.5320   34.5070 C   0  0  0  0  0  0  0  0  0  0  0  0
   35.7770   28.5990   33.5600 C   0  0  0  0  0  0  0  0  0  0  0  0
   34.8520   28.9470   32.5620 C   0  0  0  0  0  0  0  0  0  0  0  0
   34.2570   30.1790   32.5130 C   0  0  0  0  0  0  0  0  0  0  0  0
   34.5900   31.1080   33.4990 C   0  0  0  0  0  0  0  0  0  0  0  0
   35.5160   30.7860   34.5170 C   0  0  0  0  0  0  0  0  0  0  0  0
   34.6660   28.1530   31.8540 H   0  0  0  0  0  0  0  0  0  0  0  0
   33.5510   30.4110   31.7290 H   0  0  0  0  0  0  0  0  0  0  0  0
   34.1000   32.0860   33.4380 H   0  0  0  0  0  0  0  0  0  0  0  0
   34.6930   32.3560   36.3370 C   0  0  2  0  0  3  0  0  0  0  0  0
   35.7750   31.8520   35.4920 C   0  0  2  0  0  3  0  0  0  0  0  0
   36.3210   32.9740   34.8270 O   0  0  0  0  0  0  0  0  0  0  0  0
   36.2420   34.0120   35.7660 C   0  0  0  0  0  2  0  0  0  0  0  0
   34.7950   33.8630   36.2040 C   0  0  1  0  0  3  0  0  0  0  0  0
   34.9140   32.1050   37.6980 O   0  0  0  0  0  0  0  0  0  0  0  0
   35.8800   32.1070   37.9160 H   0  0  0  0  0  0  0  0  0  0  0  0
   34.0270   34.3980   35.1880 O   0  0  0  0  0  0  0  0  0  0  0  0
   33.1350   34.0350   35.0830 H   0  0  0  0  0  0  0  0  0  0  0  0
   38.2280   24.6760   35.0490 C   0  0  0  0  0  0  0  0  0  0  0  0
   38.2620   24.6090   36.4500 C   0  0  0  0  0  0  0  0  0  0  0  0
   38.4260   23.3620   37.0730 C   0  0  0  0  0  0  0  0  0  0  0  0
   38.5410   22.2720   36.2300 N   0  0  0  0  0  0  0  0  0  0  0  0
   38.5020   22.3740   34.8950 C   0  0  0  0  0  0  0  0  0  0  0  0
   38.3450   23.5840   34.3030 N   0  0  0  0  0  0  0  0  0  0  0  0
   38.1720   25.4680   37.0940 H   0  0  0  0  0  0  0  0  0  0  0  0
   38.4630   23.2270   38.1410 H   0  0  0  0  0  0  0  0  0  0  0  0
   38.5980   21.4820   34.3160 H   0  0  0  0  0  0  0  0  0  0  0  0
  1  5  1  0  0  0  0
  1 32  1  0  0  0  0
  2  6  1  0  0  0  0
  2  1  1  0  0  0  0
  3  8  1  0  0  0  0
  3  2  1  0  0  0  0
  3  4  1  0  0  0  0
  4 10  1  6  0  0  0
  4  5  1  0  0  0  0
  5 12  1  0  0  0  0
  5 11  1  0  0  0  0
  7  2  1  0  0  0  0
  9  3  1  0  0  0  0
 14 19  1  0  0  0  0
 14 13  1  0  0  0  0
 15  4  1  0  0  0  0
 15 14  2  0  0  0  0
 16 15  1  0  0  0  0
 17 16  2  0  0  0  0
 17 18  1  0  0  0  0
 18 19  2  0  0  0  0
 20 16  1  0  0  0  0
 21 17  1  0  0  0  0
 22 18  1  0  0  0  0
 23 28  1  1  0  0  0
 24 19  1  6  0  0  0
 24 23  1  0  0  0  0
 25 24  1  0  0  0  0
 25 26  1  0  0  0  0
 26 27  1  0  0  0  0
 27 30  1  6  0  0  0
 27 23  1  0  0  0  0
 28 29  1  0  0  0  0
 31 30  1  0  0  0  0
 32 33  1  0  0  0  0
 33 34  2  0  0  0  0
 33 38  1  0  0  0  0
 34 39  1  0  0  0  0
 35 34  1  0  0  0  0
 36 35  2  0  0  0  0
 37 36  1  0  0  0  0
 37 32  2  0  0  0  0
 40 36  1  0  0  0  0
M  END
>  <minimizedAffinity>
-5.85654783

$$$$

 OpenBabel03272502403D

 40 43  0  0  1  0  0  0  0  0999 V2000
   38.4730   24.7430   34.6740 N   0  0  0  0  0  0  0  0  0  0  0  0
   38.3320   24.0150   33.4240 C   0  0  0  0  0  0  0  0  0  0  0  0
   37.5700   24.9730   32.5530 C   0  0  0  0  0  0  0  0  0  0  0  0
   37.1700   26.1720   33.5200 C   0  0  1  0  0  0  0  0  0  0  0  0
   38.3500   26.1890   34.3880 C   0  0  0  0  0  0  0  0  0  0  0  0
   39.3320   23.8240   32.9910 H   0  0  0  0  0  0  0  0  0  0  0  0
   37.7960   23.0410   33.5650 H   0  0  0  0  0  0  0  0  0  0  0  0
   38.1670   25.4100   31.7480 H   0  0  0  0  0  0  0  0  0  0  0  0
   36.6240   24.5450   32.1870 H   0  0  0  0  0  0  0  0  0  0  0  0
   36.2570   25.7540   33.9520 H   0  0  0  0  0  0  0  0  0  0  0  0
   38.2410   26.7450   35.3360 H   0  0  0  0  0  0  0  0  0  0  0  0
   39.2810   26.4820   33.8470 H   0  0  0  0  0  0  0  0  0  0  0  0
   35.5990   28.3330   34.4410 F   0  0  0  0  0  0  0  0  0  0  0  0
   36.2160   28.3670   33.2560 C   0  0  0  0  0  0  0  0  0  0  0  0
   36.9510   27.3640   32.6960 C   0  0  0  0  0  0  0  0  0  0  0  0
   37.5400   27.5990   31.4420 C   0  0  0  0  0  0  0  0  0  0  0  0
   37.3990   28.7880   30.7780 C   0  0  0  0  0  0  0  0  0  0  0  0
   36.6390   29.7890   31.3800 C   0  0  0  0  0  0  0  0  0  0  0  0
   36.0330   29.5830   32.6400 C   0  0  0  0  0  0  0  0  0  0  0  0
   38.1020   26.7560   31.0680 H   0  0  0  0  0  0  0  0  0  0  0  0
   37.8690   28.9310   29.8150 H   0  0  0  0  0  0  0  0  0  0  0  0
   36.5420   30.7310   30.8290 H   0  0  0  0  0  0  0  0  0  0  0  0
   35.3250   31.0650   34.5790 C   0  0  2  0  0  3  0  0  0  0  0  0
   35.2590   30.7160   33.1600 C   0  0  2  0  0  3  0  0  0  0  0  0
   33.8900   30.5280   32.8570 O   0  0  0  0  0  0  0  0  0  0  0  0
   33.2220   31.4770   33.6430 C   0  0  0  0  0  2  0  0  0  0  0  0
   33.8730   31.2100   34.9890 C   0  0  1  0  0  3  0  0  0  0  0  0
   35.8820   32.3330   34.7940 O   0  0  0  0  0  0  0  0  0  0  0  0
   35.6810   32.9490   34.0450 H   0  0  0  0  0  0  0  0  0  0  0  0
   33.3000   30.0500   35.4720 O   0  0  0  0  0  0  0  0  0  0  0  0
   33.8450   29.5130   36.0680 H   0  0  0  0  0  0  0  0  0  0  0  0
   38.6840   24.2080   35.9580 C   0  0  0  0  0  0  0  0  0  0  0  0
   37.8340   24.6880   36.9660 C   0  0  0  0  0  0  0  0  0  0  0  0
   37.9870   24.2120   38.2770 C   0  0  0  0  0  0  0  0  0  0  0  0
   38.9910   23.2810   38.4720 N   0  0  0  0  0  0  0  0  0  0  0  0
   39.7830   22.8430   37.4840 C   0  0  0  0  0  0  0  0  0  0  0  0
   39.6270   23.3120   36.2210 N   0  0  0  0  0  0  0  0  0  0  0  0
   37.0560   25.4140   36.7990 H   0  0  0  0  0  0  0  0  0  0  0  0
   37.3760   24.5310   39.1050 H   0  0  0  0  0  0  0  0  0  0  0  0
   40.5350   22.1230   37.7200 H   0  0  0  0  0  0  0  0  0  0  0  0
  1 32  1  0  0  0  0
  2  7  1  0  0  0  0
  2  1  1  0  0  0  0
  3  2  1  0  0  0  0
  3  4  1  0  0  0  0
  4 10  1  1  0  0  0
  4  5  1  0  0  0  0
  5  1  1  0  0  0  0
  5 11  1  0  0  0  0
  6  2  1  0  0  0  0
  8  3  1  0  0  0  0
  9  3  1  0  0  0  0
 12  5  1  0  0  0  0
 14 13  1  0  0  0  0
 15 14  1  0  0  0  0
 15  4  1  0  0  0  0
 16 15  2  0  0  0  0
 17 18  2  0  0  0  0
 17 16  1  0  0  0  0
 18 19  1  0  0  0  0
 19 14  2  0  0  0  0
 20 16  1  0  0  0  0
 21 17  1  0  0  0  0
 22 18  1  0  0  0  0
 23 28  1  6  0  0  0
 23 27  1  0  0  0  0
 24 19  1  1  0  0  0
 24 23  1  0  0  0  0
 25 24  1  0  0  0  0
 25 26  1  0  0  0  0
 26 27  1  0  0  0  0
 27 30  1  6  0  0  0
 29 28  1  0  0  0  0
 30 31  1  0  0  0  0
 32 37  2  0  0  0  0
 32 33  1  0  0  0  0
 33 34  2  0  0  0  0
 34 35  1  0  0  0  0
 34 39  1  0  0  0  0
 36 40  1  0  0  0  0
 36 35  2  0  0  0  0
 37 36  1  0  0  0  0
 38 33  1  0  0  0  0
M  END
>  <minimizedAffinity>
-5.83684015

$$$$

 OpenBabel03272502403D

 40 43  0  0  1  0  0  0  0  0999 V2000
   38.4340   24.5150   34.6500 N   0  0  0  0  0  0  0  0  0  0  0  0
   37.9200   23.7570   33.5200 C   0  0  0  0  0  0  0  0  0  0  0  0
   37.3070   24.8160   32.6480 C   0  0  0  0  0  0  0  0  0  0  0  0
   37.3820   26.1500   33.5120 C   0  0  1  0  0  0  0  0  0  0  0  0
   38.6450   25.9130   34.2160 C   0  0  0  0  0  0  0  0  0  0  0  0
   38.7580   23.2690   32.9890 H   0  0  0  0  0  0  0  0  0  0  0  0
   37.1790   22.9790   33.8390 H   0  0  0  0  0  0  0  0  0  0  0  0
   37.8660   25.0110   31.7280 H   0  0  0  0  0  0  0  0  0  0  0  0
   36.2380   24.6340   32.4560 H   0  0  0  0  0  0  0  0  0  0  0  0
   36.4700   26.0300   34.1020 H   0  0  0  0  0  0  0  0  0  0  0  0
   38.8290   26.5490   35.0990 H   0  0  0  0  0  0  0  0  0  0  0  0
   39.5260   25.8990   33.5310 H   0  0  0  0  0  0  0  0  0  0  0  0
   39.3160   26.4420   31.4740 F   0  0  0  0  0  0  0  0  0  0  0  0
   38.3080   27.3080   31.6150 C   0  0  0  0  0  0  0  0  0  0  0  0
   37.3550   27.2890   32.5900 C   0  0  0  0  0  0  0  0  0  0  0  0
   36.3590   28.2800   32.5590 C   0  0  0  0  0  0  0  0  0  0  0  0
   36.3190   29.2480   31.5920 C   0  0  0  0  0  0  0  0  0  0  0  0
   37.3110   29.2360   30.6110 C   0  0  0  0  0  0  0  0  0  0  0  0
   38.3260   28.2530   30.6170 C   0  0  0  0  0  0  0  0  0  0  0  0
   35.6460   28.1960   33.3660 H   0  0  0  0  0  0  0  0  0  0  0  0
   35.5360   29.9920   31.6000 H   0  0  0  0  0  0  0  0  0  0  0  0
   37.2570   30.0210   29.8490 H   0  0  0  0  0  0  0  0  0  0  0  0
   39.7570   29.6690   29.0670 C   0  0  2  0  0  3  0  0  0  0  0  0
   39.3080   28.3570   29.5320 C   0  0  2  0  0  3  0  0  0  0  0  0
   38.8250   27.6720   28.3930 O   0  0  0  0  0  0  0  0  0  0  0  0
   39.6670   28.0840   27.3500 C   0  0  0  0  0  2  0  0  0  0  0  0
   39.6290   29.5880   27.5590 C   0  0  1  0  0  3  0  0  0  0  0  0
   41.1250   29.8810   29.2950 O   0  0  0  0  0  0  0  0  0  0  0  0
   41.6350   29.0330   29.2490 H   0  0  0  0  0  0  0  0  0  0  0  0
   38.4110   30.0150   27.0670 O   0  0  0  0  0  0  0  0  0  0  0  0
   38.0380   30.8150   27.4700 H   0  0  0  0  0  0  0  0  0  0  0  0
   38.6930   24.0440   35.9500 C   0  0  0  0  0  0  0  0  0  0  0  0
   37.8120   24.4890   36.9460 C   0  0  0  0  0  0  0  0  0  0  0  0
   38.0090   24.0720   38.2720 C   0  0  0  0  0  0  0  0  0  0  0  0
   39.0860   23.2330   38.4910 N   0  0  0  0  0  0  0  0  0  0  0  0
   39.9060   22.8270   37.5130 C   0  0  0  0  0  0  0  0  0  0  0  0
   39.7070   23.2360   36.2360 N   0  0  0  0  0  0  0  0  0  0  0  0
   36.9770   25.1430   36.7600 H   0  0  0  0  0  0  0  0  0  0  0  0
   37.3780   24.3700   39.0930 H   0  0  0  0  0  0  0  0  0  0  0  0
   40.7150   22.1780   37.7690 H   0  0  0  0  0  0  0  0  0  0  0  0
  1 32  1  0  0  0  0
  2  7  1  0  0  0  0
  2  1  1  0  0  0  0
  3  4  1  0  0  0  0
  3  2  1  0  0  0  0
  4 10  1  1  0  0  0
  4  5  1  0  0  0  0
  5  1  1  0  0  0  0
  5 11  1  0  0  0  0
  6  2  1  0  0  0  0
  8  3  1  0  0  0  0
  9  3  1  0  0  0  0
 12  5  1  0  0  0  0
 13 14  1  0  0  0  0
 14 15  1  0  0  0  0
 15  4  1  0  0  0  0
 16 15  2  0  0  0  0
 16 20  1  0  0  0  0
 17 21  1  0  0  0  0
 17 16  1  0  0  0  0
 18 19  1  0  0  0  0
 18 17  2  0  0  0  0
 19 14  2  0  0  0  0
 22 18  1  0  0  0  0
 23 28  1  6  0  0  0
 23 24  1  0  0  0  0
 24 19  1  1  0  0  0
 25 24  1  0  0  0  0
 26 27  1  0  0  0  0
 26 25  1  0  0  0  0
 27 30  1  1  0  0  0
 27 23  1  0  0  0  0
 29 28  1  0  0  0  0
 30 31  1  0  0  0  0
 32 37  2  0  0  0  0
 32 33  1  0  0  0  0
 33 34  2  0  0  0  0
 34 35  1  0  0  0  0
 34 39  1  0  0  0  0
 36 40  1  0  0  0  0
 36 35  2  0  0  0  0
 37 36  1  0  0  0  0
 38 33  1  0  0  0  0
M  END
>  <minimizedAffinity>
-5.78593826

$$$$

 OpenBabel03272502403D

 40 43  0  0  1  0  0  0  0  0999 V2000
   38.5570   24.4040   34.7180 N   0  0  0  0  0  0  0  0  0  0  0  0
   38.4300   23.5500   33.5480 C   0  0  0  0  0  0  0  0  0  0  0  0
   37.7050   24.4230   32.5640 C   0  0  0  0  0  0  0  0  0  0  0  0
   37.3060   25.7240   33.3890 C   0  0  1  0  0  0  0  0  0  0  0  0
   38.4680   25.8140   34.2790 C   0  0  0  0  0  0  0  0  0  0  0  0
   39.4350   23.2980   33.1620 H   0  0  0  0  0  0  0  0  0  0  0  0
   37.8730   22.6050   33.7780 H   0  0  0  0  0  0  0  0  0  0  0  0
   38.3280   24.7630   31.7320 H   0  0  0  0  0  0  0  0  0  0  0  0
   36.7600   23.9750   32.2220 H   0  0  0  0  0  0  0  0  0  0  0  0
   36.3770   25.3690   33.8420 H   0  0  0  0  0  0  0  0  0  0  0  0
   38.3480   26.4680   35.1600 H   0  0  0  0  0  0  0  0  0  0  0  0
   39.4160   26.0320   33.7320 H   0  0  0  0  0  0  0  0  0  0  0  0
   35.9760   28.1040   34.1270 F   0  0  0  0  0  0  0  0  0  0  0  0
   36.5130   27.9460   32.9140 C   0  0  0  0  0  0  0  0  0  0  0  0
   37.1280   26.8260   32.4400 C   0  0  0  0  0  0  0  0  0  0  0  0
   37.6500   26.8610   31.1350 C   0  0  0  0  0  0  0  0  0  0  0  0
   37.5590   27.9720   30.3400 C   0  0  0  0  0  0  0  0  0  0  0  0
   36.9220   29.0990   30.8580 C   0  0  0  0  0  0  0  0  0  0  0  0
   36.3860   29.0930   32.1660 C   0  0  0  0  0  0  0  0  0  0  0  0
   38.1180   25.9350   30.8360 H   0  0  0  0  0  0  0  0  0  0  0  0
   37.9740   27.9610   29.3430 H   0  0  0  0  0  0  0  0  0  0  0  0
   36.8620   29.9740   30.2020 H   0  0  0  0  0  0  0  0  0  0  0  0
   34.2900   30.4980   32.4650 C   0  0  2  0  0  3  0  0  0  0  0  0
   35.7390   30.3420   32.5860 C   0  0  2  0  0  3  0  0  0  0  0  0
   36.3190   31.4280   31.8900 O   0  0  0  0  0  0  0  0  0  0  0  0
   35.4470   32.5010   32.1240 C   0  0  0  0  0  2  0  0  0  0  0  0
   34.1210   31.8420   31.7850 C   0  0  1  0  0  3  0  0  0  0  0  0
   33.6610   30.6490   33.7090 O   0  0  0  0  0  0  0  0  0  0  0  0
   34.2500   31.1060   34.3600 H   0  0  0  0  0  0  0  0  0  0  0  0
   34.0620   31.7800   30.4070 O   0  0  0  0  0  0  0  0  0  0  0  0
   33.5370   31.0580   30.0280 H   0  0  0  0  0  0  0  0  0  0  0  0
   38.7300   24.0040   36.0560 C   0  0  0  0  0  0  0  0  0  0  0  0
   37.8440   24.5740   36.9820 C   0  0  0  0  0  0  0  0  0  0  0  0
   37.9580   24.2350   38.3390 C   0  0  0  0  0  0  0  0  0  0  0  0
   38.9610   23.3390   38.6590 N   0  0  0  0  0  0  0  0  0  0  0  0
   39.7890   22.8120   37.7460 C   0  0  0  0  0  0  0  0  0  0  0  0
   39.6710   23.1490   36.4380 N   0  0  0  0  0  0  0  0  0  0  0  0
   37.0670   25.2710   36.7170 H   0  0  0  0  0  0  0  0  0  0  0  0
   37.3170   24.6300   39.1100 H   0  0  0  0  0  0  0  0  0  0  0  0
   40.5380   22.1270   38.0790 H   0  0  0  0  0  0  0  0  0  0  0  0
  1 32  1  0  0  0  0
  2  7  1  0  0  0  0
  2  1  1  0  0  0  0
  3  4  1  0  0  0  0
  3  2  1  0  0  0  0
  4 10  1  1  0  0  0
  4  5  1  0  0  0  0
  5  1  1  0  0  0  0
  5 11  1  0  0  0  0
  6  2  1  0  0  0  0
  8  3  1  0  0  0  0
  9  3  1  0  0  0  0
 12  5  1  0  0  0  0
 14 13  1  0  0  0  0
 15 14  1  0  0  0  0
 15  4  1  0  0  0  0
 16 15  2  0  0  0  0
 17 18  2  0  0  0  0
 17 16  1  0  0  0  0
 18 19  1  0  0  0  0
 19 14  2  0  0  0  0
 20 16  1  0  0  0  0
 21 17  1  0  0  0  0
 22 18  1  0  0  0  0
 23 24  1  0  0  0  0
 23 28  1  1  0  0  0
 24 19  1  6  0  0  0
 25 26  1  0  0  0  0
 25 24  1  0  0  0  0
 27 30  1  6  0  0  0
 27 26  1  0  0  0  0
 27 23  1  0  0  0  0
 28 29  1  0  0  0  0
 31 30  1  0  0  0  0
 32 37  2  0  0  0  0
 32 33  1  0  0  0  0
 33 34  2  0  0  0  0
 34 35  1  0  0  0  0
 34 39  1  0  0  0  0
 36 40  1  0  0  0  0
 36 35  2  0  0  0  0
 37 36  1  0  0  0  0
 38 33  1  0  0  0  0
M  END
>  <minimizedAffinity>
-5.7851696

$$$$

 OpenBabel03272502403D

 40 43  0  0  1  0  0  0  0  0999 V2000
   35.0850   31.5940   35.5000 N   0  0  0  0  0  0  0  0  0  0  0  0
   33.8350   30.9030   35.2250 C   0  0  0  0  0  0  0  0  0  0  0  0
   34.2860   29.6210   34.5830 C   0  0  0  0  0  0  0  0  0  0  0  0
   35.8550   29.7970   34.3810 C   0  0  1  0  0  0  0  0  0  0  0  0
   36.1680   30.5880   35.5740 C   0  0  0  0  0  0  0  0  0  0  0  0
   33.3150   30.6860   36.1760 H   0  0  0  0  0  0  0  0  0  0  0  0
   33.1620   31.5040   34.5610 H   0  0  0  0  0  0  0  0  0  0  0  0
   34.1520   28.7390   35.2150 H   0  0  0  0  0  0  0  0  0  0  0  0
   33.8610   29.4840   33.5770 H   0  0  0  0  0  0  0  0  0  0  0  0
   35.8520   30.3360   33.4300 H   0  0  0  0  0  0  0  0  0  0  0  0
   37.1460   31.0980   35.5690 H   0  0  0  0  0  0  0  0  0  0  0  0
   36.0050   30.0230   36.5230 H   0  0  0  0  0  0  0  0  0  0  0  0
   35.5920   28.1820   32.0770 F   0  0  0  0  0  0  0  0  0  0  0  0
   36.3060   27.7860   33.1360 C   0  0  0  0  0  0  0  0  0  0  0  0
   36.4540   28.4610   34.3110 C   0  0  0  0  0  0  0  0  0  0  0  0
   37.2650   27.8860   35.3050 C   0  0  0  0  0  0  0  0  0  0  0  0
   37.9010   26.6870   35.1270 C   0  0  0  0  0  0  0  0  0  0  0  0
   37.7250   26.0250   33.9120 C   0  0  0  0  0  0  0  0  0  0  0  0
   36.9150   26.5770   32.8950 C   0  0  0  0  0  0  0  0  0  0  0  0
   37.3280   28.4810   36.2030 H   0  0  0  0  0  0  0  0  0  0  0  0
   38.5180   26.2780   35.9140 H   0  0  0  0  0  0  0  0  0  0  0  0
   38.2450   25.0680   33.7950 H   0  0  0  0  0  0  0  0  0  0  0  0
   35.6190   24.9690   31.4140 C   0  0  2  0  0  3  0  0  0  0  0  0
   36.8120   25.7770   31.6690 C   0  0  2  0  0  3  0  0  0  0  0  0
   37.9160   24.8980   31.5880 O   0  0  0  0  0  0  0  0  0  0  0  0
   37.5710   23.9910   30.5750 C   0  0  0  0  0  2  0  0  0  0  0  0
   36.1710   23.6110   31.0280 C   0  0  1  0  0  3  0  0  0  0  0  0
   34.9130   25.3990   30.2810 O   0  0  0  0  0  0  0  0  0  0  0  0
   35.5190   25.7850   29.6000 H   0  0  0  0  0  0  0  0  0  0  0  0
   36.3310   22.7400   32.0880 O   0  0  0  0  0  0  0  0  0  0  0  0
   35.6190   22.7240   32.7460 H   0  0  0  0  0  0  0  0  0  0  0  0
   35.2800   32.9770   35.6660 C   0  0  0  0  0  0  0  0  0  0  0  0
   36.5250   33.4710   35.2500 C   0  0  0  0  0  0  0  0  0  0  0  0
   36.8020   34.8390   35.3920 C   0  0  0  0  0  0  0  0  0  0  0  0
   35.7960   35.6090   35.9460 N   0  0  0  0  0  0  0  0  0  0  0  0
   34.6170   35.1020   36.3320 C   0  0  0  0  0  0  0  0  0  0  0  0
   34.3610   33.7780   36.1910 N   0  0  0  0  0  0  0  0  0  0  0  0
   37.3000   32.8590   34.8190 H   0  0  0  0  0  0  0  0  0  0  0  0
   37.7330   35.2950   35.0970 H   0  0  0  0  0  0  0  0  0  0  0  0
   33.8940   35.7660   36.7510 H   0  0  0  0  0  0  0  0  0  0  0  0
  1  5  1  0  0  0  0
  1 32  1  0  0  0  0
  2  1  1  0  0  0  0
  2  6  1  0  0  0  0
  3  8  1  0  0  0  0
  3  2  1  0  0  0  0
  4 10  1  6  0  0  0
  4  3  1  0  0  0  0
  4  5  1  0  0  0  0
  5 12  1  0  0  0  0
  7  2  1  0  0  0  0
  9  3  1  0  0  0  0
 11  5  1  0  0  0  0
 13 14  1  0  0  0  0
 14 15  1  0  0  0  0
 15  4  1  0  0  0  0
 15 16  2  0  0  0  0
 16 20  1  0  0  0  0
 17 16  1  0  0  0  0
 17 21  1  0  0  0  0
 18 17  2  0  0  0  0
 19 14  2  0  0  0  0
 19 18  1  0  0  0  0
 22 18  1  0  0  0  0
 23 28  1  6  0  0  0
 23 24  1  0  0  0  0
 24 19  1  1  0  0  0
 25 24  1  0  0  0  0
 26 27  1  0  0  0  0
 26 25  1  0  0  0  0
 27 23  1  0  0  0  0
 27 30  1  1  0  0  0
 29 28  1  0  0  0  0
 30 31  1  0  0  0  0
 32 37  1  0  0  0  0
 33 34  1  0  0  0  0
 33 32  2  0  0  0  0
 34 35  2  0  0  0  0
 35 36  1  0  0  0  0
 36 40  1  0  0  0  0
 37 36  2  0  0  0  0
 38 33  1  0  0  0  0
 39 34  1  0  0  0  0
M  END
>  <minimizedAffinity>
-5.70453501

$$$$

 OpenBabel03272502403D

 40 43  0  0  1  0  0  0  0  0999 V2000
   39.5080   23.6300   35.8710 N   0  0  0  0  0  0  0  0  0  0  0  0
   38.5310   24.1010   36.8400 C   0  0  0  0  0  0  0  0  0  0  0  0
   37.7390   25.1140   36.0620 C   0  0  0  0  0  0  0  0  0  0  0  0
   38.5100   25.2590   34.6780 C   0  0  1  0  0  0  0  0  0  0  0  0
   38.9770   23.8790   34.5130 C   0  0  0  0  0  0  0  0  0  0  0  0
   37.8770   23.2630   37.1440 H   0  0  0  0  0  0  0  0  0  0  0  0
   39.0190   24.5410   37.7480 H   0  0  0  0  0  0  0  0  0  0  0  0
   36.7230   24.7900   35.8190 H   0  0  0  0  0  0  0  0  0  0  0  0
   37.7590   26.1100   36.5300 H   0  0  0  0  0  0  0  0  0  0  0  0
   39.2640   25.9930   34.9710 H   0  0  0  0  0  0  0  0  0  0  0  0
   39.7780   23.7290   33.7700 H   0  0  0  0  0  0  0  0  0  0  0  0
   38.1400   23.1540   34.3660 H   0  0  0  0  0  0  0  0  0  0  0  0
   37.5800   27.9270   34.7040 F   0  0  0  0  0  0  0  0  0  0  0  0
   37.2090   27.0620   33.7550 C   0  0  0  0  0  0  0  0  0  0  0  0
   37.5560   25.7460   33.6780 C   0  0  0  0  0  0  0  0  0  0  0  0
   37.0780   25.0000   32.5860 C   0  0  0  0  0  0  0  0  0  0  0  0
   36.2870   25.5510   31.6140 C   0  0  0  0  0  0  0  0  0  0  0  0
   35.9520   26.9000   31.7260 C   0  0  0  0  0  0  0  0  0  0  0  0
   36.4160   27.6750   32.8130 C   0  0  0  0  0  0  0  0  0  0  0  0
   37.3950   23.9680   32.6010 H   0  0  0  0  0  0  0  0  0  0  0  0
   35.9410   24.9460   30.7880 H   0  0  0  0  0  0  0  0  0  0  0  0
   35.3190   27.3170   30.9360 H   0  0  0  0  0  0  0  0  0  0  0  0
   35.0250   29.5560   33.8060 C   0  0  2  0  0  3  0  0  0  0  0  0
   35.9880   29.0790   32.8130 C   0  0  2  0  0  3  0  0  0  0  0  0
   35.4530   29.4070   31.5460 O   0  0  0  0  0  0  0  0  0  0  0  0
   34.8090   30.6370   31.7440 C   0  0  0  0  0  2  0  0  0  0  0  0
   33.9990   30.3130   32.9870 C   0  0  1  0  0  3  0  0  0  0  0  0
   35.5730   30.5190   34.6650 O   0  0  0  0  0  0  0  0  0  0  0  0
   36.2650   31.0610   34.2090 H   0  0  0  0  0  0  0  0  0  0  0  0
   32.9310   29.5460   32.5640 O   0  0  0  0  0  0  0  0  0  0  0  0
   32.5640   28.9210   33.2080 H   0  0  0  0  0  0  0  0  0  0  0  0
   40.7580   23.0400   36.1340 C   0  0  0  0  0  0  0  0  0  0  0  0
   40.7320   21.8850   36.9290 C   0  0  0  0  0  0  0  0  0  0  0  0
   41.9380   21.2430   37.2460 C   0  0  0  0  0  0  0  0  0  0  0  0
   43.0860   21.8170   36.7310 N   0  0  0  0  0  0  0  0  0  0  0  0
   43.0730   22.9210   35.9720 C   0  0  0  0  0  0  0  0  0  0  0  0
   41.9000   23.5350   35.6740 N   0  0  0  0  0  0  0  0  0  0  0  0
   39.8290   21.4490   37.3240 H   0  0  0  0  0  0  0  0  0  0  0  0
   42.0020   20.3530   37.8510 H   0  0  0  0  0  0  0  0  0  0  0  0
   44.0050   23.3010   35.6140 H   0  0  0  0  0  0  0  0  0  0  0  0
  1 32  1  0  0  0  0
  1  2  1  0  0  0  0
  2  6  1  0  0  0  0
  2  7  1  0  0  0  0
  3  9  1  0  0  0  0
  3  2  1  0  0  0  0
  4 10  1  1  0  0  0
  4  3  1  0  0  0  0
  5  4  1  0  0  0  0
  5  1  1  0  0  0  0
  8  3  1  0  0  0  0
 11  5  1  0  0  0  0
 12  5  1  0  0  0  0
 14 13  1  0  0  0  0
 15 14  1  0  0  0  0
 15  4  1  0  0  0  0
 16 20  1  0  0  0  0
 16 15  2  0  0  0  0
 17 18  2  0  0  0  0
 17 16  1  0  0  0  0
 18 19  1  0  0  0  0
 19 14  2  0  0  0  0
 21 17  1  0  0  0  0
 22 18  1  0  0  0  0
 23 28  1  1  0  0  0
 24 19  1  6  0  0  0
 24 23  1  0  0  0  0
 25 26  1  0  0  0  0
 25 24  1  0  0  0  0
 26 27  1  0  0  0  0
 27 30  1  6  0  0  0
 27 23  1  0  0  0  0
 29 28  1  0  0  0  0
 30 31  1  0  0  0  0
 32 33  1  0  0  0  0
 33 34  2  0  0  0  0
 33 38  1  0  0  0  0
 34 39  1  0  0  0  0
 35 34  1  0  0  0  0
 36 35  2  0  0  0  0
 37 36  1  0  0  0  0
 37 32  2  0  0  0  0
 40 36  1  0  0  0  0
M  END
>  <minimizedAffinity>
-5.63191175

$$$$
