
 OpenBabel03272507573D

 32 34  0  0  1  0  0  0  0  0999 V2000
   36.7890   31.0770   48.5770 C   0  0  0  0  0  0  0  0  0  0  0  0
   37.0650   32.0080   49.5880 C   0  0  0  0  0  0  0  0  0  0  0  0
   37.9800   33.0190   49.3500 C   0  0  0  0  0  0  0  0  0  0  0  0
   38.6130   33.1020   48.1220 C   0  0  0  0  0  0  0  0  0  0  0  0
   38.3160   32.1690   47.1560 C   0  0  0  0  0  0  0  0  0  0  0  0
   37.4220   31.1890   47.4010 N   0  0  0  0  0  0  0  0  0  0  0  0
   36.6450   32.0630   50.5900 H   0  0  0  0  0  0  0  0  0  0  0  0
   38.2480   33.7750   50.0760 H   0  0  0  0  0  0  0  0  0  0  0  0
   39.3260   33.8610   47.8880 H   0  0  0  0  0  0  0  0  0  0  0  0
   35.0760   28.3270   50.4840 C   0  0  0  0  0  0  0  0  0  0  0  0
   36.0610   29.2840   50.1020 C   0  0  0  0  0  0  0  0  0  0  0  0
   35.8110   30.0910   48.9940 C   0  0  0  0  0  0  0  0  0  0  0  0
   34.6210   29.9120   48.3310 N   0  0  0  0  0  0  0  0  0  0  0  0
   33.7150   28.9860   48.7320 C   0  0  0  0  0  0  0  0  0  0  0  0
   33.9310   28.2010   49.7920 N   0  0  0  0  0  0  0  0  0  0  0  0
   32.5720   28.9970   47.8850 N   0  0  0  0  0  0  0  0  0  0  0  0
   35.2550   27.6890   51.3460 H   0  0  0  0  0  0  0  0  0  0  0  0
   32.6960   28.8360   46.8550 H   0  0  0  0  0  0  0  0  0  0  0  0
   31.6020   29.1660   48.2890 H   0  0  0  0  0  0  0  0  0  0  0  0
   37.3080   29.3840   50.8990 C   0  0  0  0  0  0  0  0  0  0  0  0
   38.4010   29.6910   50.1010 F   0  0  0  0  0  0  0  0  0  0  0  0
   37.1580   30.3720   51.8310 F   0  0  0  0  0  0  0  0  0  0  0  0
   37.6140   28.2110   51.5730 F   0  0  0  0  0  0  0  0  0  0  0  0
   40.1780   33.1100   45.8030 C   0  0  1  0  0  3  0  0  0  0  0  0
   38.9740   32.2230   45.8240 C   0  0  2  0  0  3  0  0  0  0  0  0
   38.1220   32.7840   44.8460 O   0  0  0  0  0  0  0  0  0  0  0  0
   39.0070   32.8200   43.7680 C   0  0  0  0  0  2  0  0  0  0  0  0
   40.1790   33.5630   44.3440 C   0  0  2  0  0  3  0  0  0  0  0  0
   40.0190   34.2510   46.5900 O   0  0  0  0  0  0  0  0  0  0  0  0
   40.7950   34.8480   46.3480 H   0  0  0  0  0  0  0  0  0  0  0  0
   41.3880   33.1690   43.7460 O   0  0  0  0  0  0  0  0  0  0  0  0
   41.3780   33.4550   42.8050 H   0  0  0  0  0  0  0  0  0  0  0  0
  1 12  1  0  0  0  0
  1  2  1  0  0  0  0
  2  7  1  0  0  0  0
  3  2  2  0  0  0  0
  3  8  1  0  0  0  0
  4  3  1  0  0  0  0
  5  6  1  0  0  0  0
  5  4  2  0  0  0  0
  6  1  2  0  0  0  0
  9  4  1  0  0  0  0
 10 17  1  0  0  0  0
 11 10  1  0  0  0  0
 11 20  1  0  0  0  0
 12 11  2  0  0  0  0
 13 14  2  0  0  0  0
 13 12  1  0  0  0  0
 14 15  1  0  0  0  0
 15 10  2  0  0  0  0
 16 19  1  0  0  0  0
 16 14  1  0  0  0  0
 18 16  1  0  0  0  0
 20 23  1  0  0  0  0
 20 22  1  0  0  0  0
 21 20  1  0  0  0  0
 24 25  1  0  0  0  0
 24 29  1  1  0  0  0
 25  5  1  1  0  0  0
 26 25  1  0  0  0  0
 27 28  1  0  0  0  0
 27 26  1  0  0  0  0
 28 31  1  6  0  0  0
 28 24  1  0  0  0  0
 30 29  1  0  0  0  0
 32 31  1  0  0  0  0
M  END
>  <minimizedAffinity>
-5.49188471

>  <minimizedRMSD>
1.06188881

$$$$
