
 OpenBabel03272509213D

 46 50  0  0  1  0  0  0  0  0999 V2000
   37.9650   31.2050   47.5920 C   0  0  0  0  0  0  0  0  0  0  0  0
   37.1160   31.2540   48.6870 C   0  0  0  0  0  0  0  0  0  0  0  0
   37.3470   32.3620   49.5220 C   0  0  0  0  0  0  0  0  0  0  0  0
   38.3410   33.3010   49.2470 C   0  0  0  0  0  0  0  0  0  0  0  0
   39.1440   33.1410   48.0980 C   0  0  0  0  0  0  0  0  0  0  0  0
   38.9400   32.0670   47.2620 C   0  0  0  0  0  0  0  0  0  0  0  0
   36.7510   32.5190   50.4150 H   0  0  0  0  0  0  0  0  0  0  0  0
   38.4940   34.1460   49.9130 H   0  0  0  0  0  0  0  0  0  0  0  0
   39.8840   33.8970   47.9500 H   0  0  0  0  0  0  0  0  0  0  0  0
   34.9120   30.3120   48.2520 C   0  0  0  0  0  0  0  0  0  0  0  0
   36.1020   30.2980   48.9700 C   0  0  0  0  0  0  0  0  0  0  0  0
   36.2520   29.3160   49.9640 C   0  0  0  0  0  0  0  0  0  0  0  0
   35.2330   28.4440   50.1650 N   0  0  0  0  0  0  0  0  0  0  0  0
   34.0860   28.5000   49.4350 C   0  0  0  0  0  0  0  0  0  0  0  0
   33.9270   29.4260   48.4870 N   0  0  0  0  0  0  0  0  0  0  0  0
   34.7830   31.0630   47.4850 H   0  0  0  0  0  0  0  0  0  0  0  0
   33.3220   27.7610   49.6640 H   0  0  0  0  0  0  0  0  0  0  0  0
   37.5080   29.2560   50.7620 C   0  0  0  0  0  0  0  0  0  0  0  0
   38.3680   29.0790   50.0840 H   0  0  0  0  0  0  0  0  0  0  0  0
   37.6480   30.1160   51.4360 H   0  0  0  0  0  0  0  0  0  0  0  0
   37.4500   28.3530   51.3970 H   0  0  0  0  0  0  0  0  0  0  0  0
   37.8100   30.1250   46.6910 O   0  0  0  0  0  0  0  0  0  0  0  0
   38.0490   29.2310   47.0750 H   0  0  0  0  0  0  0  0  0  0  0  0
   39.7560   31.9690   46.1590 O   0  0  0  0  0  0  0  0  0  0  0  0
   39.9690   31.2410   43.7870 C   0  0  0  0  0  0  0  0  0  0  0  0
   39.3670   31.8940   44.8550 C   0  0  0  0  0  0  0  0  0  0  0  0
   38.1960   32.5910   44.6290 C   0  0  0  0  0  0  0  0  0  0  0  0
   37.6180   32.6410   43.3440 C   0  0  0  0  0  0  0  0  0  0  0  0
   36.5210   33.2180   42.8230 N   0  0  0  0  0  0  0  0  0  0  0  0
   36.4350   32.9440   41.5050 C   0  0  0  0  0  0  0  0  0  0  0  0
   37.5150   32.1760   41.2090 N   0  0  0  0  0  0  0  0  0  0  0  0
   38.2470   31.9820   42.3230 C   0  0  0  0  0  0  0  0  0  0  0  0
   39.4090   31.2850   42.5210 C   0  0  0  0  0  0  0  0  0  0  0  0
   40.8800   30.7280   44.0770 H   0  0  0  0  0  0  0  0  0  0  0  0
   37.6180   33.1440   45.3570 H   0  0  0  0  0  0  0  0  0  0  0  0
   35.8370   33.7890   43.3510 H   0  0  0  0  0  0  0  0  0  0  0  0
   35.7220   33.2180   40.7660 H   0  0  0  0  0  0  0  0  0  0  0  0
   41.1870   29.6220   41.9520 C   0  0  2  0  0  3  0  0  0  0  0  0
   40.1390   30.5470   41.4420 C   0  0  1  0  0  3  0  0  0  0  0  0
   39.2100   29.8610   40.7080 O   0  0  0  0  0  0  0  0  0  0  0  0
   39.6510   28.5550   40.5550 C   0  0  0  0  0  2  0  0  0  0  0  0
   40.5880   28.2580   41.6780 C   0  0  2  0  0  3  0  0  0  0  0  0
   41.4680   29.7980   43.3040 O   0  0  0  0  0  0  0  0  0  0  0  0
   40.9830   29.0920   43.7920 H   0  0  0  0  0  0  0  0  0  0  0  0
   39.9860   27.6980   42.8000 O   0  0  0  0  0  0  0  0  0  0  0  0
   39.1640   27.1880   42.5920 H   0  0  0  0  0  0  0  0  0  0  0  0
  1  2  1  0  0  0  0
  2 11  1  0  0  0  0
  2  3  2  0  0  0  0
  3  7  1  0  0  0  0
  4  3  1  0  0  0  0
  4  8  1  0  0  0  0
  5  4  2  0  0  0  0
  6  1  2  0  0  0  0
  6  5  1  0  0  0  0
  9  5  1  0  0  0  0
 10 15  2  0  0  0  0
 10 11  1  0  0  0  0
 11 12  2  0  0  0  0
 12 13  1  0  0  0  0
 12 18  1  0  0  0  0
 14 17  1  0  0  0  0
 14 13  2  0  0  0  0
 15 14  1  0  0  0  0
 16 10  1  0  0  0  0
 18 21  1  0  0  0  0
 18 20  1  0  0  0  0
 19 18  1  0  0  0  0
 22 23  1  0  0  0  0
 22  1  1  0  0  0  0
 24  6  1  0  0  0  0
 25 34  1  0  0  0  0
 25 26  1  0  0  0  0
 26 24  1  0  0  0  0
 27 26  2  0  0  0  0
 27 35  1  0  0  0  0
 28 27  1  0  0  0  0
 29 28  1  0  0  0  0
 29 36  1  0  0  0  0
 30 29  1  0  0  0  0
 31 30  2  0  0  0  0
 31 32  1  0  0  0  0
 32 33  1  0  0  0  0
 32 28  2  0  0  0  0
 33 25  2  0  0  0  0
 37 30  1  0  0  0  0
 38 43  1  1  0  0  0
 39 38  1  0  0  0  0
 39 33  1  1  0  0  0
 40 39  1  0  0  0  0
 41 40  1  0  0  0  0
 41 42  1  0  0  0  0
 42 38  1  0  0  0  0
 42 45  1  1  0  0  0
 43 44  1  0  0  0  0
 46 45  1  0  0  0  0
M  END
>  <minimizedAffinity>
-7.98386192

>  <minimizedRMSD>
0.914163589

$$$$
