
 OpenBabel03272501173D

 35 38  0  0  1  0  0  0  0  0999 V2000
   37.3060   27.4680   33.6230 C   0  0  0  0  0  0  0  0  0  0  0  0
   37.2420   26.8990   32.6840 H   0  0  0  0  0  0  0  0  0  0  0  0
   38.2090   28.1350   33.5340 H   0  0  0  0  0  0  0  0  0  0  0  0
   36.2550   29.7110   34.1370 C   0  0  1  0  0  0  0  0  0  0  0  0
   36.0990   28.3170   33.8700 C   0  0  1  0  0  0  0  0  0  0  0  0
   35.5680   29.2700   32.8300 C   0  0  0  0  0  0  0  0  0  0  0  0
   37.2160   30.2570   33.9960 H   0  0  0  0  0  0  0  0  0  0  0  0
   35.2700   27.7790   34.4170 H   0  0  0  0  0  0  0  0  0  0  0  0
   36.1670   29.3210   31.9110 H   0  0  0  0  0  0  0  0  0  0  0  0
   34.4950   29.4260   32.7080 H   0  0  0  0  0  0  0  0  0  0  0  0
   35.2960   30.4590   35.0440 C   0  0  0  0  0  0  0  0  0  0  0  0
   35.8770   31.4150   35.8590 C   0  0  0  0  0  0  0  0  0  0  0  0
   34.9780   32.0850   36.7190 C   0  0  0  0  0  0  0  0  0  0  0  0
   33.6660   31.7830   36.7090 N   0  0  0  0  0  0  0  0  0  0  0  0
   33.1380   30.8240   35.8790 C   0  0  0  0  0  0  0  0  0  0  0  0
   33.9780   30.1480   35.0290 N   0  0  0  0  0  0  0  0  0  0  0  0
   36.9380   31.6100   35.8170 H   0  0  0  0  0  0  0  0  0  0  0  0
   35.3860   32.8420   37.3750 H   0  0  0  0  0  0  0  0  0  0  0  0
   32.0850   30.5990   35.8900 H   0  0  0  0  0  0  0  0  0  0  0  0
   37.6090   26.5580   34.7660 C   0  0  0  0  0  0  0  0  0  0  0  0
   38.2080   27.0110   35.9270 C   0  0  0  0  0  0  0  0  0  0  0  0
   38.3870   26.0270   36.8200 N   0  0  0  0  0  0  0  0  0  0  0  0
   37.8880   24.9310   36.2030 C   0  0  0  0  0  0  0  0  0  0  0  0
   37.4230   25.2470   34.9780 N   0  0  0  0  0  0  0  0  0  0  0  0
   38.5180   28.0390   36.1380 H   0  0  0  0  0  0  0  0  0  0  0  0
   38.8170   26.1130   37.7650 H   0  0  0  0  0  0  0  0  0  0  0  0
   38.8880   23.3580   37.8650 C   0  0  2  0  0  3  0  0  0  0  0  0
   37.8430   23.5560   36.7690 C   0  0  2  0  0  3  0  0  0  0  0  0
   38.1370   22.5920   35.8350 O   0  0  0  0  0  0  0  0  0  0  0  0
   39.4820   22.3220   35.8520 C   0  0  0  0  0  2  0  0  0  0  0  0
   40.0600   22.7530   37.1630 C   0  0  2  0  0  3  0  0  0  0  0  0
   38.4150   22.5860   38.9180 O   0  0  0  0  0  0  0  0  0  0  0  0
   37.6750   23.0910   39.3390 H   0  0  0  0  0  0  0  0  0  0  0  0
   40.5340   21.6980   37.9420 O   0  0  0  0  0  0  0  0  0  0  0  0
   40.6750   22.0860   38.8440 H   0  0  0  0  0  0  0  0  0  0  0  0
  1  5  1  0  0  0  0
  1 20  1  0  0  0  0
  2  1  1  0  0  0  0
  3  1  1  0  0  0  0
  4  7  1  6  0  0  0
  4 11  1  0  0  0  0
  5  4  1  0  0  0  0
  5  8  1  1  0  0  0
  6  5  1  0  0  0  0
  6  4  1  0  0  0  0
  9  6  1  0  0  0  0
 10  6  1  0  0  0  0
 11 12  1  0  0  0  0
 12 13  2  0  0  0  0
 13 18  1  0  0  0  0
 14 13  1  0  0  0  0
 15 19  1  0  0  0  0
 15 14  2  0  0  0  0
 16 11  2  0  0  0  0
 16 15  1  0  0  0  0
 17 12  1  0  0  0  0
 20 24  1  0  0  0  0
 20 21  2  0  0  0  0
 21 25  1  0  0  0  0
 21 22  1  0  0  0  0
 22 26  1  0  0  0  0
 23 22  1  0  0  0  0
 24 23  2  0  0  0  0
 27 32  1  1  0  0  0
 28 23  1  6  0  0  0
 28 27  1  0  0  0  0
 29 30  1  0  0  0  0
 29 28  1  0  0  0  0
 30 31  1  0  0  0  0
 31 27  1  0  0  0  0
 31 34  1  1  0  0  0
 32 33  1  0  0  0  0
 34 35  1  0  0  0  0
M  END
>  <minimizedAffinity>
-6.26035881

$$$$

 OpenBabel03272501173D

 35 38  0  0  1  0  0  0  0  0999 V2000
   38.2450   27.1520   33.1910 C   0  0  0  0  0  0  0  0  0  0  0  0
   38.9060   26.6770   32.4510 H   0  0  0  0  0  0  0  0  0  0  0  0
   38.7420   28.1180   33.4910 H   0  0  0  0  0  0  0  0  0  0  0  0
   36.6590   28.6780   31.9450 C   0  0  1  0  0  0  0  0  0  0  0  0
   36.8860   27.4540   32.6440 C   0  0  1  0  0  0  0  0  0  0  0  0
   36.5750   27.3470   31.1730 C   0  0  0  0  0  0  0  0  0  0  0  0
   37.4800   29.3560   31.6160 H   0  0  0  0  0  0  0  0  0  0  0  0
   36.0420   27.0650   33.2870 H   0  0  0  0  0  0  0  0  0  0  0  0
   37.4360   27.0810   30.5450 H   0  0  0  0  0  0  0  0  0  0  0  0
   35.6050   26.9840   30.8300 H   0  0  0  0  0  0  0  0  0  0  0  0
   35.3150   29.3800   31.9880 C   0  0  0  0  0  0  0  0  0  0  0  0
   35.2140   30.5150   31.2010 C   0  0  0  0  0  0  0  0  0  0  0  0
   33.9670   31.1750   31.2710 C   0  0  0  0  0  0  0  0  0  0  0  0
   32.9820   30.6990   32.0560 N   0  0  0  0  0  0  0  0  0  0  0  0
   33.1320   29.5670   32.8190 C   0  0  0  0  0  0  0  0  0  0  0  0
   34.3290   28.8960   32.7810 N   0  0  0  0  0  0  0  0  0  0  0  0
   36.0430   30.8430   30.5930 H   0  0  0  0  0  0  0  0  0  0  0  0
   33.8410   32.0670   30.6730 H   0  0  0  0  0  0  0  0  0  0  0  0
   32.3310   29.2060   33.4400 H   0  0  0  0  0  0  0  0  0  0  0  0
   38.1920   26.3410   34.4420 C   0  0  0  0  0  0  0  0  0  0  0  0
   38.2520   26.9200   35.6960 C   0  0  0  0  0  0  0  0  0  0  0  0
   38.1880   26.0080   36.6770 N   0  0  0  0  0  0  0  0  0  0  0  0
   38.0850   24.8290   36.0210 C   0  0  0  0  0  0  0  0  0  0  0  0
   38.0870   25.0270   34.6880 N   0  0  0  0  0  0  0  0  0  0  0  0
   38.3420   27.9890   35.9130 H   0  0  0  0  0  0  0  0  0  0  0  0
   38.2150   26.1920   37.7020 H   0  0  0  0  0  0  0  0  0  0  0  0
   38.9760   23.3190   37.8010 C   0  0  2  0  0  3  0  0  0  0  0  0
   37.9820   23.4850   36.6520 C   0  0  2  0  0  3  0  0  0  0  0  0
   38.2910   22.4690   35.7800 O   0  0  0  0  0  0  0  0  0  0  0  0
   39.6270   22.1700   35.8680 C   0  0  0  0  0  2  0  0  0  0  0  0
   40.1600   22.6540   37.1800 C   0  0  2  0  0  3  0  0  0  0  0  0
   38.4400   22.6120   38.8690 O   0  0  0  0  0  0  0  0  0  0  0  0
   37.6950   23.1550   39.2320 H   0  0  0  0  0  0  0  0  0  0  0  0
   40.5750   21.6290   38.0300 O   0  0  0  0  0  0  0  0  0  0  0  0
   40.6870   22.0590   38.9170 H   0  0  0  0  0  0  0  0  0  0  0  0
  1  3  1  0  0  0  0
  1 20  1  0  0  0  0
  2  1  1  0  0  0  0
  4  7  1  6  0  0  0
  4 11  1  0  0  0  0
  4  5  1  0  0  0  0
  5  1  1  0  0  0  0
  5  8  1  1  0  0  0
  6  4  1  0  0  0  0
  6  5  1  0  0  0  0
  9  6  1  0  0  0  0
 10  6  1  0  0  0  0
 11 16  1  0  0  0  0
 12 13  1  0  0  0  0
 12 11  2  0  0  0  0
 13 14  2  0  0  0  0
 14 15  1  0  0  0  0
 15 19  1  0  0  0  0
 16 15  2  0  0  0  0
 17 12  1  0  0  0  0
 18 13  1  0  0  0  0
 20 24  1  0  0  0  0
 20 21  2  0  0  0  0
 21 25  1  0  0  0  0
 21 22  1  0  0  0  0
 22 26  1  0  0  0  0
 23 22  1  0  0  0  0
 24 23  2  0  0  0  0
 27 32  1  1  0  0  0
 28 23  1  6  0  0  0
 28 27  1  0  0  0  0
 29 30  1  0  0  0  0
 29 28  1  0  0  0  0
 30 31  1  0  0  0  0
 31 27  1  0  0  0  0
 31 34  1  1  0  0  0
 32 33  1  0  0  0  0
 34 35  1  0  0  0  0
M  END
>  <minimizedAffinity>
-6.08330631

$$$$

 OpenBabel03272501173D

 35 38  0  0  1  0  0  0  0  0999 V2000
   37.2340   26.1450   33.1310 C   0  0  0  0  0  0  0  0  0  0  0  0
   36.4050   26.8610   33.0250 H   0  0  0  0  0  0  0  0  0  0  0  0
   38.0830   26.5450   32.5080 H   0  0  0  0  0  0  0  0  0  0  0  0
   38.7930   25.1340   34.8470 C   0  0  1  0  0  0  0  0  0  0  0  0
   37.6960   25.9980   34.5460 C   0  0  1  0  0  0  0  0  0  0  0  0
   38.9580   26.6540   35.0450 C   0  0  0  0  0  0  0  0  0  0  0  0
   39.4550   24.6920   34.0680 H   0  0  0  0  0  0  0  0  0  0  0  0
   36.8600   26.0510   35.3040 H   0  0  0  0  0  0  0  0  0  0  0  0
   39.5230   27.1980   34.2760 H   0  0  0  0  0  0  0  0  0  0  0  0
   39.0160   27.0610   36.0550 H   0  0  0  0  0  0  0  0  0  0  0  0
   38.8790   24.3900   36.1660 C   0  0  0  0  0  0  0  0  0  0  0  0
   37.8790   24.6820   37.0770 C   0  0  0  0  0  0  0  0  0  0  0  0
   37.9860   24.0030   38.3110 C   0  0  0  0  0  0  0  0  0  0  0  0
   39.0010   23.1470   38.5370 N   0  0  0  0  0  0  0  0  0  0  0  0
   39.9700   22.8900   37.5980 C   0  0  0  0  0  0  0  0  0  0  0  0
   39.9030   23.5300   36.3860 N   0  0  0  0  0  0  0  0  0  0  0  0
   37.0930   25.3800   36.8330 H   0  0  0  0  0  0  0  0  0  0  0  0
   37.2270   24.2000   39.0560 H   0  0  0  0  0  0  0  0  0  0  0  0
   40.7710   22.2020   37.8020 H   0  0  0  0  0  0  0  0  0  0  0  0
   36.8790   24.8380   32.5050 C   0  0  0  0  0  0  0  0  0  0  0  0
   35.9550   24.7390   31.4820 C   0  0  0  0  0  0  0  0  0  0  0  0
   35.7910   23.4740   31.0710 N   0  0  0  0  0  0  0  0  0  0  0  0
   36.6320   22.7620   31.8560 C   0  0  0  0  0  0  0  0  0  0  0  0
   37.2820   23.5750   32.7120 N   0  0  0  0  0  0  0  0  0  0  0  0
   35.3990   25.5660   31.0280 H   0  0  0  0  0  0  0  0  0  0  0  0
   35.1530   23.1400   30.3170 H   0  0  0  0  0  0  0  0  0  0  0  0
   35.7140   20.5860   31.0440 C   0  0  2  0  0  3  0  0  0  0  0  0
   36.8350   21.2890   31.8070 C   0  0  2  0  0  3  0  0  0  0  0  0
   36.8160   20.7140   33.0550 O   0  0  0  0  0  0  0  0  0  0  0  0
   35.5410   20.3100   33.3620 C   0  0  0  0  0  2  0  0  0  0  0  0
   34.7490   20.1590   32.1010 C   0  0  2  0  0  3  0  0  0  0  0  0
   36.1800   19.5360   30.2640 O   0  0  0  0  0  0  0  0  0  0  0  0
   36.7730   19.9280   29.5730 H   0  0  0  0  0  0  0  0  0  0  0  0
   34.3660   18.8450   31.8330 O   0  0  0  0  0  0  0  0  0  0  0  0
   34.0580   18.8540   30.8900 H   0  0  0  0  0  0  0  0  0  0  0  0
  1  5  1  0  0  0  0
  2  1  1  0  0  0  0
  3  1  1  0  0  0  0
  4  7  1  6  0  0  0
  4  6  1  0  0  0  0
  4 11  1  0  0  0  0
  5  4  1  0  0  0  0
  5  6  1  0  0  0  0
  5  8  1  1  0  0  0
  6 10  1  0  0  0  0
  9  6  1  0  0  0  0
 11 16  2  0  0  0  0
 11 12  1  0  0  0  0
 12 13  2  0  0  0  0
 13 14  1  0  0  0  0
 13 18  1  0  0  0  0
 15 19  1  0  0  0  0
 15 14  2  0  0  0  0
 16 15  1  0  0  0  0
 17 12  1  0  0  0  0
 20 24  1  0  0  0  0
 20  1  1  0  0  0  0
 21 20  2  0  0  0  0
 22 21  1  0  0  0  0
 22 23  1  0  0  0  0
 23 24  2  0  0  0  0
 25 21  1  0  0  0  0
 26 22  1  0  0  0  0
 27 32  1  1  0  0  0
 27 28  1  0  0  0  0
 27 31  1  0  0  0  0
 28 23  1  1  0  0  0
 28 29  1  0  0  0  0
 29 30  1  0  0  0  0
 31 34  1  6  0  0  0
 31 30  1  0  0  0  0
 33 32  1  0  0  0  0
 35 34  1  0  0  0  0
M  END
>  <minimizedAffinity>
-5.98158693

$$$$

 OpenBabel03272501173D

 35 38  0  0  1  0  0  0  0  0999 V2000
   39.9910   27.1110   33.5580 C   0  0  0  0  0  0  0  0  0  0  0  0
   40.9400   26.6580   33.2370 H   0  0  0  0  0  0  0  0  0  0  0  0
   40.2500   28.1060   34.0190 H   0  0  0  0  0  0  0  0  0  0  0  0
   39.5410   27.4250   31.0880 C   0  0  1  0  0  0  0  0  0  0  0  0
   39.0420   27.3350   32.4230 C   0  0  1  0  0  0  0  0  0  0  0  0
   38.6530   26.2280   31.4780 C   0  0  0  0  0  0  0  0  0  0  0  0
   40.5860   27.1580   30.8070 H   0  0  0  0  0  0  0  0  0  0  0  0
   38.1650   27.9960   32.6890 H   0  0  0  0  0  0  0  0  0  0  0  0
   39.1600   25.2710   31.6640 H   0  0  0  0  0  0  0  0  0  0  0  0
   37.6390   26.1600   31.0820 H   0  0  0  0  0  0  0  0  0  0  0  0
   38.8700   28.2990   30.0460 C   0  0  0  0  0  0  0  0  0  0  0  0
   39.4380   28.2580   28.7840 C   0  0  0  0  0  0  0  0  0  0  0  0
   38.8210   29.0960   27.8290 C   0  0  0  0  0  0  0  0  0  0  0  0
   37.7630   29.8580   28.1680 N   0  0  0  0  0  0  0  0  0  0  0  0
   37.2360   29.8630   29.4360 C   0  0  0  0  0  0  0  0  0  0  0  0
   37.8070   29.0630   30.3940 N   0  0  0  0  0  0  0  0  0  0  0  0
   40.2870   27.6230   28.5790 H   0  0  0  0  0  0  0  0  0  0  0  0
   39.2300   29.0980   26.8280 H   0  0  0  0  0  0  0  0  0  0  0  0
   36.3900   30.4810   29.6830 H   0  0  0  0  0  0  0  0  0  0  0  0
   39.3820   26.3190   34.6660 C   0  0  0  0  0  0  0  0  0  0  0  0
   38.6780   26.9150   35.6950 C   0  0  0  0  0  0  0  0  0  0  0  0
   38.2190   26.0180   36.5800 N   0  0  0  0  0  0  0  0  0  0  0  0
   38.6460   24.8310   36.0920 C   0  0  0  0  0  0  0  0  0  0  0  0
   39.3390   25.0090   34.9500 N   0  0  0  0  0  0  0  0  0  0  0  0
   38.4920   27.9870   35.8180 H   0  0  0  0  0  0  0  0  0  0  0  0
   37.6640   26.2170   37.4390 H   0  0  0  0  0  0  0  0  0  0  0  0
   39.3490   23.2260   37.8720 C   0  0  2  0  0  3  0  0  0  0  0  0
   38.4010   23.4970   36.7050 C   0  0  2  0  0  3  0  0  0  0  0  0
   38.6320   22.4650   35.8270 O   0  0  0  0  0  0  0  0  0  0  0  0
   39.9300   22.0380   35.9400 C   0  0  0  0  0  2  0  0  0  0  0  0
   40.4790   22.4560   37.2690 C   0  0  2  0  0  3  0  0  0  0  0  0
   38.7250   22.5630   38.9200 O   0  0  0  0  0  0  0  0  0  0  0  0
   38.0270   23.1710   39.2750 H   0  0  0  0  0  0  0  0  0  0  0  0
   40.7750   21.3880   38.1150 O   0  0  0  0  0  0  0  0  0  0  0  0
   40.9080   21.7970   39.0090 H   0  0  0  0  0  0  0  0  0  0  0  0
  1  3  1  0  0  0  0
  1 20  1  0  0  0  0
  2  1  1  0  0  0  0
  4  7  1  6  0  0  0
  4  6  1  0  0  0  0
  4  5  1  0  0  0  0
  5  8  1  1  0  0  0
  5  1  1  0  0  0  0
  6  9  1  0  0  0  0
  6  5  1  0  0  0  0
 10  6  1  0  0  0  0
 11 16  1  0  0  0  0
 11  4  1  0  0  0  0
 12 11  2  0  0  0  0
 13 14  2  0  0  0  0
 13 12  1  0  0  0  0
 14 15  1  0  0  0  0
 15 19  1  0  0  0  0
 15 16  2  0  0  0  0
 17 12  1  0  0  0  0
 18 13  1  0  0  0  0
 20 24  1  0  0  0  0
 20 21  2  0  0  0  0
 21 25  1  0  0  0  0
 21 22  1  0  0  0  0
 22 26  1  0  0  0  0
 23 22  1  0  0  0  0
 24 23  2  0  0  0  0
 27 32  1  1  0  0  0
 28 23  1  6  0  0  0
 28 27  1  0  0  0  0
 29 30  1  0  0  0  0
 29 28  1  0  0  0  0
 30 31  1  0  0  0  0
 31 27  1  0  0  0  0
 31 34  1  1  0  0  0
 32 33  1  0  0  0  0
 34 35  1  0  0  0  0
M  END
>  <minimizedAffinity>
-5.69361305

$$$$

 OpenBabel03272501173D

 35 38  0  0  1  0  0  0  0  0999 V2000
   37.5480   28.2730   35.0370 C   0  0  0  0  0  0  0  0  0  0  0  0
   38.2680   28.9600   34.5700 H   0  0  0  0  0  0  0  0  0  0  0  0
   37.3920   28.6400   36.0910 H   0  0  0  0  0  0  0  0  0  0  0  0
   35.7690   29.4100   33.6440 C   0  0  1  0  0  0  0  0  0  0  0  0
   36.2290   28.2460   34.3330 C   0  0  1  0  0  0  0  0  0  0  0  0
   36.1280   28.1500   32.8320 C   0  0  0  0  0  0  0  0  0  0  0  0
   36.4150   30.2950   33.4400 H   0  0  0  0  0  0  0  0  0  0  0  0
   35.4490   27.6160   34.8530 H   0  0  0  0  0  0  0  0  0  0  0  0
   37.0940   28.1530   32.3100 H   0  0  0  0  0  0  0  0  0  0  0  0
   35.3330   27.5710   32.3600 H   0  0  0  0  0  0  0  0  0  0  0  0
   34.2920   29.7390   33.5370 C   0  0  0  0  0  0  0  0  0  0  0  0
   33.5510   29.5120   34.6840 C   0  0  0  0  0  0  0  0  0  0  0  0
   32.1720   29.7960   34.5630 C   0  0  0  0  0  0  0  0  0  0  0  0
   31.6650   30.2510   33.4010 N   0  0  0  0  0  0  0  0  0  0  0  0
   32.4440   30.4600   32.2900 C   0  0  0  0  0  0  0  0  0  0  0  0
   33.7900   30.1950   32.3650 N   0  0  0  0  0  0  0  0  0  0  0  0
   34.0200   29.1470   35.5840 H   0  0  0  0  0  0  0  0  0  0  0  0
   31.5510   29.6340   35.4330 H   0  0  0  0  0  0  0  0  0  0  0  0
   32.0160   30.8230   31.3720 H   0  0  0  0  0  0  0  0  0  0  0  0
   38.1440   26.9130   35.1870 C   0  0  0  0  0  0  0  0  0  0  0  0
   39.4140   26.6120   34.7310 C   0  0  0  0  0  0  0  0  0  0  0  0
   39.7470   25.3360   34.9690 N   0  0  0  0  0  0  0  0  0  0  0  0
   38.6600   24.8240   35.5900 C   0  0  0  0  0  0  0  0  0  0  0  0
   37.7030   25.7650   35.7220 N   0  0  0  0  0  0  0  0  0  0  0  0
   40.1020   27.3000   34.2280 H   0  0  0  0  0  0  0  0  0  0  0  0
   40.6460   24.8690   34.7210 H   0  0  0  0  0  0  0  0  0  0  0  0
   37.6580   23.3520   37.3420 C   0  0  2  0  0  3  0  0  0  0  0  0
   38.5090   23.4250   36.0740 C   0  0  2  0  0  3  0  0  0  0  0  0
   39.7090   22.8600   36.4320 O   0  0  0  0  0  0  0  0  0  0  0  0
   39.9420   23.0680   37.7680 C   0  0  0  0  0  2  0  0  0  0  0  0
   38.6480   23.3600   38.4600 C   0  0  2  0  0  3  0  0  0  0  0  0
   36.8180   22.2470   37.3540 O   0  0  0  0  0  0  0  0  0  0  0  0
   36.1780   22.3590   36.6050 H   0  0  0  0  0  0  0  0  0  0  0  0
   38.2700   22.3820   39.3790 O   0  0  0  0  0  0  0  0  0  0  0  0
   37.3210   22.5780   39.5890 H   0  0  0  0  0  0  0  0  0  0  0  0
  1 20  1  0  0  0  0
  1  3  1  0  0  0  0
  2  1  1  0  0  0  0
  4  7  1  6  0  0  0
  4  5  1  0  0  0  0
  5  8  1  1  0  0  0
  5  1  1  0  0  0  0
  6  4  1  0  0  0  0
  6  5  1  0  0  0  0
  9  6  1  0  0  0  0
 10  6  1  0  0  0  0
 11  4  1  0  0  0  0
 11 12  1  0  0  0  0
 12 17  1  0  0  0  0
 13 12  2  0  0  0  0
 13 18  1  0  0  0  0
 14 13  1  0  0  0  0
 15 16  1  0  0  0  0
 15 14  2  0  0  0  0
 16 11  2  0  0  0  0
 19 15  1  0  0  0  0
 20 24  1  0  0  0  0
 21 22  1  0  0  0  0
 21 20  2  0  0  0  0
 22 23  1  0  0  0  0
 23 24  2  0  0  0  0
 25 21  1  0  0  0  0
 26 22  1  0  0  0  0
 27 32  1  6  0  0  0
 27 31  1  0  0  0  0
 28 23  1  1  0  0  0
 28 29  1  0  0  0  0
 28 27  1  0  0  0  0
 29 30  1  0  0  0  0
 30 31  1  0  0  0  0
 31 34  1  1  0  0  0
 33 32  1  0  0  0  0
 34 35  1  0  0  0  0
M  END
>  <minimizedAffinity>
-5.60061932

$$$$

 OpenBabel03272501173D

 35 38  0  0  1  0  0  0  0  0999 V2000
   36.8340   27.1750   33.6680 C   0  0  0  0  0  0  0  0  0  0  0  0
   37.5000   27.0380   32.8040 H   0  0  0  0  0  0  0  0  0  0  0  0
   35.9310   26.5270   33.4840 H   0  0  0  0  0  0  0  0  0  0  0  0
   38.4780   25.7590   34.9680 C   0  0  1  0  0  0  0  0  0  0  0  0
   37.4680   26.7690   34.9610 C   0  0  1  0  0  0  0  0  0  0  0  0
   38.8600   27.2060   35.3390 C   0  0  0  0  0  0  0  0  0  0  0  0
   38.9630   25.3720   34.0430 H   0  0  0  0  0  0  0  0  0  0  0  0
   36.7600   26.7940   35.8410 H   0  0  0  0  0  0  0  0  0  0  0  0
   39.3760   27.7970   34.5700 H   0  0  0  0  0  0  0  0  0  0  0  0
   39.1100   27.4470   36.3730 H   0  0  0  0  0  0  0  0  0  0  0  0
   38.6540   24.8190   36.1460 C   0  0  0  0  0  0  0  0  0  0  0  0
   39.6270   23.8470   35.9870 C   0  0  0  0  0  0  0  0  0  0  0  0
   39.7620   22.9610   37.0800 C   0  0  0  0  0  0  0  0  0  0  0  0
   38.9820   23.0930   38.1690 N   0  0  0  0  0  0  0  0  0  0  0  0
   38.0290   24.0760   38.2780 C   0  0  0  0  0  0  0  0  0  0  0  0
   37.8650   24.9570   37.2390 N   0  0  0  0  0  0  0  0  0  0  0  0
   40.2190   23.7970   35.0870 H   0  0  0  0  0  0  0  0  0  0  0  0
   40.5100   22.1840   37.0020 H   0  0  0  0  0  0  0  0  0  0  0  0
   37.4170   24.1610   39.1590 H   0  0  0  0  0  0  0  0  0  0  0  0
   36.3050   28.5700   33.7040 C   0  0  0  0  0  0  0  0  0  0  0  0
   36.0110   29.2750   32.5520 C   0  0  0  0  0  0  0  0  0  0  0  0
   35.5500   30.5050   32.8160 N   0  0  0  0  0  0  0  0  0  0  0  0
   35.5550   30.5740   34.1670 C   0  0  0  0  0  0  0  0  0  0  0  0
   36.0040   29.4190   34.6980 N   0  0  0  0  0  0  0  0  0  0  0  0
   36.1260   28.9140   31.5240 H   0  0  0  0  0  0  0  0  0  0  0  0
   35.2620   31.2270   32.1210 H   0  0  0  0  0  0  0  0  0  0  0  0
   34.6600   31.3220   36.3760 C   0  0  2  0  0  3  0  0  0  0  0  0
   35.1290   31.7420   34.9840 C   0  0  2  0  0  3  0  0  0  0  0  0
   34.0500   32.3990   34.4410 O   0  0  0  0  0  0  0  0  0  0  0  0
   32.8860   31.8880   34.9570 C   0  0  0  0  0  2  0  0  0  0  0  0
   33.1770   31.1940   36.2510 C   0  0  2  0  0  3  0  0  0  0  0  0
   35.0580   32.2140   37.3630 O   0  0  0  0  0  0  0  0  0  0  0  0
   36.0480   32.1920   37.3930 H   0  0  0  0  0  0  0  0  0  0  0  0
   32.5950   31.8080   37.3600 O   0  0  0  0  0  0  0  0  0  0  0  0
   33.0390   31.3950   38.1450 H   0  0  0  0  0  0  0  0  0  0  0  0
  1 20  1  0  0  0  0
  1  5  1  0  0  0  0
  2  1  1  0  0  0  0
  3  1  1  0  0  0  0
  4  7  1  6  0  0  0
  4  6  1  0  0  0  0
  4 11  1  0  0  0  0
  5  4  1  0  0  0  0
  5  6  1  0  0  0  0
  5  8  1  1  0  0  0
  6 10  1  0  0  0  0
  9  6  1  0  0  0  0
 11 16  1  0  0  0  0
 12 11  2  0  0  0  0
 12 13  1  0  0  0  0
 13 14  2  0  0  0  0
 14 15  1  0  0  0  0
 15 19  1  0  0  0  0
 16 15  2  0  0  0  0
 17 12  1  0  0  0  0
 18 13  1  0  0  0  0
 20 24  1  0  0  0  0
 21 22  1  0  0  0  0
 21 20  2  0  0  0  0
 22 23  1  0  0  0  0
 23 24  2  0  0  0  0
 25 21  1  0  0  0  0
 26 22  1  0  0  0  0
 27 32  1  1  0  0  0
 28 23  1  6  0  0  0
 28 27  1  0  0  0  0
 29 30  1  0  0  0  0
 29 28  1  0  0  0  0
 30 31  1  0  0  0  0
 31 27  1  0  0  0  0
 31 34  1  1  0  0  0
 32 33  1  0  0  0  0
 34 35  1  0  0  0  0
M  END
>  <minimizedAffinity>
-5.47308683

$$$$

 OpenBabel03272501173D

 35 38  0  0  1  0  0  0  0  0999 V2000
   37.3080   27.3570   33.5630 C   0  0  0  0  0  0  0  0  0  0  0  0
   37.0620   28.3740   33.9010 H   0  0  0  0  0  0  0  0  0  0  0  0
   36.3650   26.9310   33.1160 H   0  0  0  0  0  0  0  0  0  0  0  0
   38.3210   26.3980   31.4530 C   0  0  1  0  0  0  0  0  0  0  0  0
   38.3890   27.3340   32.5290 C   0  0  1  0  0  0  0  0  0  0  0  0
   38.1840   27.9030   31.1480 C   0  0  0  0  0  0  0  0  0  0  0  0
   37.4130   25.7930   31.2250 H   0  0  0  0  0  0  0  0  0  0  0  0
   39.4140   27.5720   32.9390 H   0  0  0  0  0  0  0  0  0  0  0  0
   37.1700   28.2820   30.9580 H   0  0  0  0  0  0  0  0  0  0  0  0
   38.9910   28.4210   30.6300 H   0  0  0  0  0  0  0  0  0  0  0  0
   39.5730   25.8160   30.8250 C   0  0  0  0  0  0  0  0  0  0  0  0
   39.3650   25.0470   29.6920 C   0  0  0  0  0  0  0  0  0  0  0  0
   40.5360   24.4880   29.1330 C   0  0  0  0  0  0  0  0  0  0  0  0
   41.7390   24.7150   29.6940 N   0  0  0  0  0  0  0  0  0  0  0  0
   41.8930   25.4860   30.8200 C   0  0  0  0  0  0  0  0  0  0  0  0
   40.7800   26.0480   31.3960 N   0  0  0  0  0  0  0  0  0  0  0  0
   38.3730   24.9060   29.2930 H   0  0  0  0  0  0  0  0  0  0  0  0
   40.4230   23.8800   28.2470 H   0  0  0  0  0  0  0  0  0  0  0  0
   42.8650   25.6530   31.2510 H   0  0  0  0  0  0  0  0  0  0  0  0
   37.6130   26.4770   34.7290 C   0  0  0  0  0  0  0  0  0  0  0  0
   38.2020   26.9620   35.8820 C   0  0  0  0  0  0  0  0  0  0  0  0
   38.3840   26.0010   36.7980 N   0  0  0  0  0  0  0  0  0  0  0  0
   37.8970   24.8870   36.2060 C   0  0  0  0  0  0  0  0  0  0  0  0
   37.4350   25.1700   34.9710 N   0  0  0  0  0  0  0  0  0  0  0  0
   38.5030   27.9980   36.0700 H   0  0  0  0  0  0  0  0  0  0  0  0
   38.8080   26.1130   37.7440 H   0  0  0  0  0  0  0  0  0  0  0  0
   38.9290   23.3480   37.8810 C   0  0  2  0  0  3  0  0  0  0  0  0
   37.8590   23.5250   36.8040 C   0  0  2  0  0  3  0  0  0  0  0  0
   38.1270   22.5390   35.8860 O   0  0  0  0  0  0  0  0  0  0  0  0
   39.4710   22.2630   35.8780 C   0  0  0  0  0  2  0  0  0  0  0  0
   40.0820   22.7220   37.1660 C   0  0  2  0  0  3  0  0  0  0  0  0
   38.4770   22.6030   38.9610 O   0  0  0  0  0  0  0  0  0  0  0  0
   37.7480   23.1210   39.3880 H   0  0  0  0  0  0  0  0  0  0  0  0
   40.5690   21.6830   37.9580 O   0  0  0  0  0  0  0  0  0  0  0  0
   40.7320   22.0910   38.8470 H   0  0  0  0  0  0  0  0  0  0  0  0
  1  2  1  0  0  0  0
  1 20  1  0  0  0  0
  3  1  1  0  0  0  0
  4  7  1  6  0  0  0
  4  5  1  0  0  0  0
  5  8  1  1  0  0  0
  5  1  1  0  0  0  0
  6  4  1  0  0  0  0
  6  5  1  0  0  0  0
  9  6  1  0  0  0  0
 10  6  1  0  0  0  0
 11 16  1  0  0  0  0
 11  4  1  0  0  0  0
 12 11  2  0  0  0  0
 13 12  1  0  0  0  0
 13 14  2  0  0  0  0
 14 15  1  0  0  0  0
 15 19  1  0  0  0  0
 15 16  2  0  0  0  0
 17 12  1  0  0  0  0
 18 13  1  0  0  0  0
 20 24  1  0  0  0  0
 20 21  2  0  0  0  0
 21 25  1  0  0  0  0
 21 22  1  0  0  0  0
 22 26  1  0  0  0  0
 23 22  1  0  0  0  0
 24 23  2  0  0  0  0
 27 32  1  1  0  0  0
 28 23  1  6  0  0  0
 28 27  1  0  0  0  0
 29 28  1  0  0  0  0
 30 29  1  0  0  0  0
 30 31  1  0  0  0  0
 31 27  1  0  0  0  0
 31 34  1  1  0  0  0
 32 33  1  0  0  0  0
 34 35  1  0  0  0  0
M  END
>  <minimizedAffinity>
-5.34997272

$$$$

 OpenBabel03272501173D

 35 38  0  0  1  0  0  0  0  0999 V2000
   38.1490   25.1400   36.5520 C   0  0  0  0  0  0  0  0  0  0  0  0
   37.3040   25.2020   37.2540 H   0  0  0  0  0  0  0  0  0  0  0  0
   38.9460   25.8310   36.9470 H   0  0  0  0  0  0  0  0  0  0  0  0
   39.8950   23.4180   37.1720 C   0  0  1  0  0  0  0  0  0  0  0  0
   38.7140   23.7590   36.4450 C   0  0  1  0  0  0  0  0  0  0  0  0
   38.5610   22.7460   37.5510 C   0  0  0  0  0  0  0  0  0  0  0  0
   40.3320   24.0650   37.9670 H   0  0  0  0  0  0  0  0  0  0  0  0
   38.5890   23.2950   35.4220 H   0  0  0  0  0  0  0  0  0  0  0  0
   38.0490   23.1240   38.4460 H   0  0  0  0  0  0  0  0  0  0  0  0
   38.4080   21.6900   37.3250 H   0  0  0  0  0  0  0  0  0  0  0  0
   40.8940   22.4090   36.6380 C   0  0  0  0  0  0  0  0  0  0  0  0
   41.0740   22.4240   35.2660 C   0  0  0  0  0  0  0  0  0  0  0  0
   41.9860   21.4610   34.7780 C   0  0  0  0  0  0  0  0  0  0  0  0
   42.6070   20.6150   35.6230 N   0  0  0  0  0  0  0  0  0  0  0  0
   42.3930   20.6410   36.9790 C   0  0  0  0  0  0  0  0  0  0  0  0
   41.5140   21.5610   37.4940 N   0  0  0  0  0  0  0  0  0  0  0  0
   40.5450   23.1300   34.6450 H   0  0  0  0  0  0  0  0  0  0  0  0
   42.1600   21.4350   33.7110 H   0  0  0  0  0  0  0  0  0  0  0  0
   42.9010   19.9540   37.6340 H   0  0  0  0  0  0  0  0  0  0  0  0
   37.7690   25.7080   35.2250 C   0  0  0  0  0  0  0  0  0  0  0  0
   37.2560   26.9840   35.0920 C   0  0  0  0  0  0  0  0  0  0  0  0
   36.9850   27.2880   33.8140 N   0  0  0  0  0  0  0  0  0  0  0  0
   37.3380   26.1750   33.1310 C   0  0  0  0  0  0  0  0  0  0  0  0
   37.8070   25.2310   33.9720 N   0  0  0  0  0  0  0  0  0  0  0  0
   37.0720   27.6970   35.9010 H   0  0  0  0  0  0  0  0  0  0  0  0
   36.5910   28.1840   33.4560 H   0  0  0  0  0  0  0  0  0  0  0  0
   35.9460   26.5800   31.0970 C   0  0  2  0  0  3  0  0  0  0  0  0
   37.2370   25.9850   31.6590 C   0  0  2  0  0  3  0  0  0  0  0  0
   37.1900   24.6590   31.3000 O   0  0  0  0  0  0  0  0  0  0  0  0
   35.8850   24.2430   31.2260 C   0  0  0  0  0  2  0  0  0  0  0  0
   34.9920   25.4320   31.0510 C   0  0  2  0  0  3  0  0  0  0  0  0
   36.1350   27.1910   29.8650 O   0  0  0  0  0  0  0  0  0  0  0  0
   36.7440   27.9590   30.0120 H   0  0  0  0  0  0  0  0  0  0  0  0
   34.3350   25.4640   29.8220 O   0  0  0  0  0  0  0  0  0  0  0  0
   33.9690   26.3830   29.7490 H   0  0  0  0  0  0  0  0  0  0  0  0
  1  3  1  0  0  0  0
  1  2  1  0  0  0  0
  4  6  1  0  0  0  0
  4  7  1  1  0  0  0
  5  8  1  6  0  0  0
  5  1  1  0  0  0  0
  5  4  1  0  0  0  0
  5  6  1  0  0  0  0
  6  9  1  0  0  0  0
 10  6  1  0  0  0  0
 11  4  1  0  0  0  0
 11 16  1  0  0  0  0
 12 11  2  0  0  0  0
 13 12  1  0  0  0  0
 13 14  2  0  0  0  0
 14 15  1  0  0  0  0
 15 16  2  0  0  0  0
 15 19  1  0  0  0  0
 17 12  1  0  0  0  0
 18 13  1  0  0  0  0
 20  1  1  0  0  0  0
 21 20  2  0  0  0  0
 21 25  1  0  0  0  0
 22 21  1  0  0  0  0
 23 22  1  0  0  0  0
 23 24  2  0  0  0  0
 24 20  1  0  0  0  0
 26 22  1  0  0  0  0
 27 32  1  6  0  0  0
 27 28  1  0  0  0  0
 28 23  1  1  0  0  0
 29 28  1  0  0  0  0
 30 29  1  0  0  0  0
 31 34  1  6  0  0  0
 31 27  1  0  0  0  0
 31 30  1  0  0  0  0
 32 33  1  0  0  0  0
 35 34  1  0  0  0  0
M  END
>  <minimizedAffinity>
-5.34474659

$$$$

 OpenBabel03272501173D

 35 38  0  0  1  0  0  0  0  0999 V2000
   37.5770   26.1970   32.2000 C   0  0  0  0  0  0  0  0  0  0  0  0
   36.6340   25.7990   31.7980 H   0  0  0  0  0  0  0  0  0  0  0  0
   38.2940   26.2620   31.3330 H   0  0  0  0  0  0  0  0  0  0  0  0
   36.1250   28.1460   32.9010 C   0  0  1  0  0  0  0  0  0  0  0  0
   37.4220   27.5570   32.8050 C   0  0  1  0  0  0  0  0  0  0  0  0
   36.8690   27.7550   34.1930 C   0  0  0  0  0  0  0  0  0  0  0  0
   35.1810   27.5810   32.7180 H   0  0  0  0  0  0  0  0  0  0  0  0
   38.2870   28.2510   32.5880 H   0  0  0  0  0  0  0  0  0  0  0  0
   36.5490   26.8290   34.6910 H   0  0  0  0  0  0  0  0  0  0  0  0
   37.2600   28.5360   34.8450 H   0  0  0  0  0  0  0  0  0  0  0  0
   35.9240   29.6470   32.8080 C   0  0  0  0  0  0  0  0  0  0  0  0
   36.4230   30.2410   31.6620 C   0  0  0  0  0  0  0  0  0  0  0  0
   36.2550   31.6420   31.6000 C   0  0  0  0  0  0  0  0  0  0  0  0
   35.6490   32.3050   32.6040 N   0  0  0  0  0  0  0  0  0  0  0  0
   35.1710   31.6680   33.7230 C   0  0  0  0  0  0  0  0  0  0  0  0
   35.3150   30.3060   33.8230 N   0  0  0  0  0  0  0  0  0  0  0  0
   36.8980   29.6500   30.8930 H   0  0  0  0  0  0  0  0  0  0  0  0
   36.6290   32.1510   30.7220 H   0  0  0  0  0  0  0  0  0  0  0  0
   34.6910   32.2190   34.5120 H   0  0  0  0  0  0  0  0  0  0  0  0
   38.1980   25.2200   33.1410 C   0  0  0  0  0  0  0  0  0  0  0  0
   39.5610   25.1840   33.3710 C   0  0  0  0  0  0  0  0  0  0  0  0
   39.9000   24.2310   34.2500 N   0  0  0  0  0  0  0  0  0  0  0  0
   38.7220   23.6550   34.5800 C   0  0  0  0  0  0  0  0  0  0  0  0
   37.7050   24.2450   33.9190 N   0  0  0  0  0  0  0  0  0  0  0  0
   40.3130   25.8350   32.9120 H   0  0  0  0  0  0  0  0  0  0  0  0
   40.8610   24.0040   34.5850 H   0  0  0  0  0  0  0  0  0  0  0  0
   37.7870   22.9660   36.7910 C   0  0  2  0  0  3  0  0  0  0  0  0
   38.5370   22.5280   35.5340 C   0  0  2  0  0  3  0  0  0  0  0  0
   39.7310   22.0330   36.0010 O   0  0  0  0  0  0  0  0  0  0  0  0
   40.0800   22.6750   37.1610 C   0  0  0  0  0  2  0  0  0  0  0  0
   38.8610   23.2880   37.7780 C   0  0  2  0  0  3  0  0  0  0  0  0
   36.8940   22.0020   37.2400 O   0  0  0  0  0  0  0  0  0  0  0  0
   36.2040   21.8950   36.5370 H   0  0  0  0  0  0  0  0  0  0  0  0
   38.5070   22.7230   39.0030 O   0  0  0  0  0  0  0  0  0  0  0  0
   37.5890   23.0530   39.1820 H   0  0  0  0  0  0  0  0  0  0  0  0
  1  5  1  0  0  0  0
  1 20  1  0  0  0  0
  2  1  1  0  0  0  0
  3  1  1  0  0  0  0
  4  7  1  6  0  0  0
  4  6  1  0  0  0  0
  5  8  1  6  0  0  0
  5  4  1  0  0  0  0
  5  6  1  0  0  0  0
  6  9  1  0  0  0  0
  6 10  1  0  0  0  0
 11  4  1  0  0  0  0
 11 16  1  0  0  0  0
 12 11  2  0  0  0  0
 13 12  1  0  0  0  0
 13 14  2  0  0  0  0
 14 15  1  0  0  0  0
 15 16  2  0  0  0  0
 15 19  1  0  0  0  0
 17 12  1  0  0  0  0
 18 13  1  0  0  0  0
 20 21  2  0  0  0  0
 20 24  1  0  0  0  0
 21 22  1  0  0  0  0
 22 23  1  0  0  0  0
 22 26  1  0  0  0  0
 24 23  2  0  0  0  0
 25 21  1  0  0  0  0
 27 32  1  1  0  0  0
 27 31  1  0  0  0  0
 28 23  1  6  0  0  0
 28 29  1  0  0  0  0
 28 27  1  0  0  0  0
 29 30  1  0  0  0  0
 30 31  1  0  0  0  0
 31 34  1  1  0  0  0
 33 32  1  0  0  0  0
 34 35  1  0  0  0  0
M  END
>  <minimizedAffinity>
-5.26095915

$$$$
