
 OpenBabel03272508183D

 25 27  0  0  1  0  0  0  0  0999 V2000
   38.2170   30.0010   43.8230 C   0  0  0  0  0  0  0  0  0  0  0  0
   39.5260   30.5060   43.7940 C   0  0  0  0  0  0  0  0  0  0  0  0
   40.4120   29.5970   43.1940 C   0  0  0  0  0  0  0  0  0  0  0  0
   40.0360   28.3920   42.7080 N   0  0  0  0  0  0  0  0  0  0  0  0
   38.7560   27.9710   42.7670 C   0  0  0  0  0  0  0  0  0  0  0  0
   37.8530   28.7880   43.3300 N   0  0  0  0  0  0  0  0  0  0  0  0
   41.4830   29.7820   43.0670 H   0  0  0  0  0  0  0  0  0  0  0  0
   38.2840   27.0630   42.4380 H   0  0  0  0  0  0  0  0  0  0  0  0
   37.1680   30.9470   44.3800 C   0  0  0  0  0  0  0  0  0  0  0  0
   35.7640   30.6880   44.1980 C   0  0  0  0  0  0  0  0  0  0  0  0
   36.3670   30.2500   45.5050 C   0  0  0  0  0  0  0  0  0  0  0  0
   37.5170   31.9440   44.7680 H   0  0  0  0  0  0  0  0  0  0  0  0
   35.5020   29.8720   43.4600 H   0  0  0  0  0  0  0  0  0  0  0  0
   34.9700   31.4450   44.2370 H   0  0  0  0  0  0  0  0  0  0  0  0
   36.5300   29.1850   45.6110 H   0  0  0  0  0  0  0  0  0  0  0  0
   36.0770   30.8540   46.3730 H   0  0  0  0  0  0  0  0  0  0  0  0
   39.7620   32.0300   45.7400 C   0  0  2  0  0  3  0  0  0  0  0  0
   40.0550   31.7430   44.2600 C   0  0  2  0  0  3  0  0  0  0  0  0
   39.7910   32.9130   43.6430 O   0  0  0  0  0  0  0  0  0  0  0  0
   39.9120   33.9630   44.5070 C   0  0  0  0  0  2  0  0  0  0  0  0
   40.4570   33.3800   45.8200 C   0  0  1  0  0  3  0  0  0  0  0  0
   40.4320   31.0530   46.4610 O   0  0  0  0  0  0  0  0  0  0  0  0
   41.3890   31.2370   46.4460 H   0  0  0  0  0  0  0  0  0  0  0  0
   40.0930   34.1160   46.9120 O   0  0  0  0  0  0  0  0  0  0  0  0
   40.1450   35.0900   46.6620 H   0  0  0  0  0  0  0  0  0  0  0  0
  1  9  1  0  0  0  0
  2  1  1  0  0  0  0
  3  2  2  0  0  0  0
  4  5  2  0  0  0  0
  4  3  1  0  0  0  0
  5  6  1  0  0  0  0
  6  1  2  0  0  0  0
  7  3  1  0  0  0  0
  8  5  1  0  0  0  0
  9 12  1  0  0  0  0
  9 11  1  0  0  0  0
 10 14  1  0  0  0  0
 10  9  1  0  0  0  0
 10 11  1  0  0  0  0
 11 15  1  0  0  0  0
 11 16  1  0  0  0  0
 13 10  1  0  0  0  0
 17 21  1  0  0  0  0
 17 22  1  1  0  0  0
 18  2  1  6  0  0  0
 18 17  1  0  0  0  0
 19 18  1  0  0  0  0
 19 20  1  0  0  0  0
 20 21  1  0  0  0  0
 21 24  1  1  0  0  0
 23 22  1  0  0  0  0
 25 24  1  0  0  0  0
M  END
>  <minimizedAffinity>
-3.63655233

>  <minimizedRMSD>
6.84229803

$$$$
