
 OpenBabel03272509503D

 33 35  0  0  1  0  0  0  0  0999 V2000
   36.9890   30.1050   51.0420 C   0  0  0  0  0  0  0  0  0  0  0  0
   37.4640   30.7520   49.8920 C   0  0  0  0  0  0  0  0  0  0  0  0
   36.8510   30.4690   48.6850 C   0  0  0  0  0  0  0  0  0  0  0  0
   35.8210   29.5810   48.6700 N   0  0  0  0  0  0  0  0  0  0  0  0
   35.3810   28.9700   49.7900 C   0  0  0  0  0  0  0  0  0  0  0  0
   35.9830   29.2490   50.9660 N   0  0  0  0  0  0  0  0  0  0  0  0
   37.4980   30.3570   51.9610 H   0  0  0  0  0  0  0  0  0  0  0  0
   38.2820   31.4550   49.9120 H   0  0  0  0  0  0  0  0  0  0  0  0
   38.7180   30.8410   47.0660 C   0  0  1  0  0  3  0  0  0  0  0  0
   37.2860   31.1120   47.3930 C   0  0  1  0  0  3  0  0  0  0  0  0
   36.5790   30.4780   46.3540 O   0  0  0  0  0  0  0  0  0  0  0  0
   37.1970   30.9190   45.2020 C   0  0  0  0  0  2  0  0  0  0  0  0
   38.6680   30.8580   45.5340 C   0  0  2  0  0  3  0  0  0  0  0  0
   39.4560   31.9450   47.4750 O   0  0  0  0  0  0  0  0  0  0  0  0
   38.8860   32.7550   47.3090 H   0  0  0  0  0  0  0  0  0  0  0  0
   39.2130   29.7170   44.9950 O   0  0  0  0  0  0  0  0  0  0  0  0
   40.1410   29.5830   45.3320 H   0  0  0  0  0  0  0  0  0  0  0  0
   34.3430   28.1160   49.5720 O   0  0  0  0  0  0  0  0  0  0  0  0
   33.5140   28.3590   48.4300 C   0  0  0  0  0  0  0  0  0  0  0  0
   34.1060   28.5480   47.5310 H   0  0  0  0  0  0  0  0  0  0  0  0
   32.9440   29.2850   48.7100 H   0  0  0  0  0  0  0  0  0  0  0  0
   32.4840   27.2710   48.3000 C   0  0  0  0  0  0  0  0  0  0  0  0
   32.5630   26.8240   47.2890 H   0  0  0  0  0  0  0  0  0  0  0  0
   32.6450   26.4440   49.0210 H   0  0  0  0  0  0  0  0  0  0  0  0
   31.0940   27.7990   48.3870 C   0  0  0  0  0  0  0  0  0  0  0  0
   30.4800   27.7350   49.6140 C   0  0  0  0  0  0  0  0  0  0  0  0
   29.1870   28.1970   49.8070 C   0  0  0  0  0  0  0  0  0  0  0  0
   28.5300   28.7170   48.7710 N   0  0  0  0  0  0  0  0  0  0  0  0
   29.1410   28.7760   47.5660 C   0  0  0  0  0  0  0  0  0  0  0  0
   30.3950   28.3310   47.3650 N   0  0  0  0  0  0  0  0  0  0  0  0
   30.9930   27.3170   50.4700 H   0  0  0  0  0  0  0  0  0  0  0  0
   28.7360   28.1280   50.7920 H   0  0  0  0  0  0  0  0  0  0  0  0
   28.5550   29.2070   46.7720 H   0  0  0  0  0  0  0  0  0  0  0  0
  1  7  1  0  0  0  0
  2  8  1  0  0  0  0
  2  1  2  0  0  0  0
  3  2  1  0  0  0  0
  4  3  2  0  0  0  0
  4  5  1  0  0  0  0
  5  6  2  0  0  0  0
  6  1  1  0  0  0  0
  9 10  1  0  0  0  0
  9 14  1  1  0  0  0
 10  3  1  1  0  0  0
 11 10  1  0  0  0  0
 12 13  1  0  0  0  0
 12 11  1  0  0  0  0
 13 16  1  6  0  0  0
 13  9  1  0  0  0  0
 15 14  1  0  0  0  0
 16 17  1  0  0  0  0
 18  5  1  0  0  0  0
 19 21  1  0  0  0  0
 19 18  1  0  0  0  0
 20 19  1  0  0  0  0
 22 25  1  0  0  0  0
 22 19  1  0  0  0  0
 22 24  1  0  0  0  0
 23 22  1  0  0  0  0
 25 26  1  0  0  0  0
 26 27  2  0  0  0  0
 26 31  1  0  0  0  0
 27 32  1  0  0  0  0
 28 27  1  0  0  0  0
 29 28  2  0  0  0  0
 30 29  1  0  0  0  0
 30 25  2  0  0  0  0
 33 29  1  0  0  0  0
M  END
>  <minimizedAffinity>
-5.58110952

>  <minimizedRMSD>
0.736341298

$$$$
