
 OpenBabel03272509033D

 33 35  0  0  1  0  0  0  0  0999 V2000
   38.2360   31.2150   50.0730 C   0  0  0  0  0  0  0  0  0  0  0  0
   38.5920   31.5120   48.7390 C   0  0  0  0  0  0  0  0  0  0  0  0
   37.8850   30.8430   47.7170 C   0  0  0  0  0  0  0  0  0  0  0  0
   36.9050   29.9550   48.0730 N   0  0  0  0  0  0  0  0  0  0  0  0
   36.6190   29.7220   49.3690 C   0  0  0  0  0  0  0  0  0  0  0  0
   37.2730   30.3410   50.3760 N   0  0  0  0  0  0  0  0  0  0  0  0
   38.8240   31.7680   50.8030 H   0  0  0  0  0  0  0  0  0  0  0  0
   39.3520   32.2000   48.4430 H   0  0  0  0  0  0  0  0  0  0  0  0
   38.2350   32.5920   46.0200 C   0  0  1  0  0  3  0  0  0  0  0  0
   38.2390   31.1370   46.3080 C   0  0  1  0  0  3  0  0  0  0  0  0
   39.4620   30.6150   45.9430 O   0  0  0  0  0  0  0  0  0  0  0  0
   40.3880   31.6360   45.9330 C   0  0  0  0  0  2  0  0  0  0  0  0
   39.7000   32.9510   46.0430 C   0  0  1  0  0  3  0  0  0  0  0  0
   37.6980   32.8720   44.7700 O   0  0  0  0  0  0  0  0  0  0  0  0
   38.1970   33.6500   44.4120 H   0  0  0  0  0  0  0  0  0  0  0  0
   40.0240   33.8140   45.0050 O   0  0  0  0  0  0  0  0  0  0  0  0
   40.9610   34.0780   45.0830 H   0  0  0  0  0  0  0  0  0  0  0  0
   35.5720   28.7560   49.6080 C   0  0  0  0  0  3  0  0  0  0  0  0
   34.8040   28.3950   48.6400 C   0  0  0  0  0  3  0  0  0  0  0  0
   33.6930   27.4350   48.6300 C   0  0  0  0  0  0  0  0  0  0  0  0
   33.7500   26.8310   49.5670 H   0  0  0  0  0  0  0  0  0  0  0  0
   32.7150   27.9380   48.6450 H   0  0  0  0  0  0  0  0  0  0  0  0
   33.7220   26.5070   47.4520 C   0  0  0  0  0  0  0  0  0  0  0  0
   33.6610   25.1240   47.5260 C   0  0  0  0  0  0  0  0  0  0  0  0
   33.6950   24.3770   46.3570 C   0  0  0  0  0  0  0  0  0  0  0  0
   33.7900   24.9840   45.1060 C   0  0  0  0  0  0  0  0  0  0  0  0
   33.8510   26.3650   45.0350 C   0  0  0  0  0  0  0  0  0  0  0  0
   33.8170   27.1130   46.2070 C   0  0  0  0  0  0  0  0  0  0  0  0
   33.5900   24.7050   48.5180 H   0  0  0  0  0  0  0  0  0  0  0  0
   33.6440   23.3070   46.4750 H   0  0  0  0  0  0  0  0  0  0  0  0
   33.8070   24.3090   44.2640 H   0  0  0  0  0  0  0  0  0  0  0  0
   33.9230   26.8020   44.0550 H   0  0  0  0  0  0  0  0  0  0  0  0
   33.8700   28.1770   46.0480 H   0  0  0  0  0  0  0  0  0  0  0  0
  1  6  1  0  0  0  0
  1  7  1  0  0  0  0
  2  1  2  0  0  0  0
  3  4  2  0  0  0  0
  3  2  1  0  0  0  0
  4  5  1  0  0  0  0
  5 18  1  0  0  0  0
  5  6  2  0  0  0  0
  8  2  1  0  0  0  0
  9 14  1  6  0  0  0
  9 13  1  0  0  0  0
  9 10  1  0  0  0  0
 10  3  1  1  0  0  0
 11 10  1  0  0  0  0
 12 11  1  0  0  0  0
 12 13  1  0  0  0  0
 13 16  1  6  0  0  0
 15 14  1  0  0  0  0
 16 17  1  0  0  0  0
 19 18  2  0  0  0  0
 20 19  1  0  0  0  0
 20 22  1  0  0  0  0
 20 21  1  0  0  0  0
 23 24  1  0  0  0  0
 23 20  1  0  0  0  0
 24 29  1  0  0  0  0
 25 30  1  0  0  0  0
 25 24  2  0  0  0  0
 26 25  1  0  0  0  0
 27 26  2  0  0  0  0
 27 28  1  0  0  0  0
 28 23  2  0  0  0  0
 31 26  1  0  0  0  0
 32 27  1  0  0  0  0
 33 28  1  0  0  0  0
M  END
>  <minimizedAffinity>
-5.95665979

>  <minimizedRMSD>
1.49543309

$$$$
