
 OpenBabel03272507573D

 32 34  0  0  1  0  0  0  0  0999 V2000
   36.8940   31.2370   48.4720 C   0  0  0  0  0  0  0  0  0  0  0  0
   37.1510   32.1130   49.5360 C   0  0  0  0  0  0  0  0  0  0  0  0
   38.0670   33.1360   49.3690 C   0  0  0  0  0  0  0  0  0  0  0  0
   38.7200   33.2860   48.1570 C   0  0  0  0  0  0  0  0  0  0  0  0
   38.4410   32.4070   47.1370 C   0  0  0  0  0  0  0  0  0  0  0  0
   37.5450   31.4130   47.3140 N   0  0  0  0  0  0  0  0  0  0  0  0
   36.7150   32.1120   50.5330 H   0  0  0  0  0  0  0  0  0  0  0  0
   38.3210   33.8530   50.1380 H   0  0  0  0  0  0  0  0  0  0  0  0
   39.4340   34.0580   47.9750 H   0  0  0  0  0  0  0  0  0  0  0  0
   35.1670   28.3710   50.1860 C   0  0  0  0  0  0  0  0  0  0  0  0
   36.1560   29.3490   49.8720 C   0  0  0  0  0  0  0  0  0  0  0  0
   35.9120   30.2280   48.8200 C   0  0  0  0  0  0  0  0  0  0  0  0
   34.7240   30.0970   48.1420 N   0  0  0  0  0  0  0  0  0  0  0  0
   33.8140   29.1490   48.4790 C   0  0  0  0  0  0  0  0  0  0  0  0
   34.0250   28.2940   49.4840 N   0  0  0  0  0  0  0  0  0  0  0  0
   32.6730   29.2200   47.6300 N   0  0  0  0  0  0  0  0  0  0  0  0
   35.3410   27.6760   51.0050 H   0  0  0  0  0  0  0  0  0  0  0  0
   32.8000   29.1270   46.5920 H   0  0  0  0  0  0  0  0  0  0  0  0
   31.7030   29.3650   48.0420 H   0  0  0  0  0  0  0  0  0  0  0  0
   37.4010   29.3920   50.6780 C   0  0  0  0  0  0  0  0  0  0  0  0
   38.4860   29.8060   49.9200 F   0  0  0  0  0  0  0  0  0  0  0  0
   37.2290   30.2710   51.7100 F   0  0  0  0  0  0  0  0  0  0  0  0
   37.7340   28.1610   51.2240 F   0  0  0  0  0  0  0  0  0  0  0  0
   39.4630   31.2100   45.2130 C   0  0  1  0  0  3  0  0  0  0  0  0
   39.1200   32.5330   45.8210 C   0  0  2  0  0  3  0  0  0  0  0  0
   40.3670   33.1860   45.9400 O   0  0  0  0  0  0  0  0  0  0  0  0
   40.8160   33.0610   44.6250 C   0  0  0  0  0  2  0  0  0  0  0  0
   40.6960   31.5820   44.3890 C   0  0  2  0  0  3  0  0  0  0  0  0
   39.8680   30.2720   46.1610 O   0  0  0  0  0  0  0  0  0  0  0  0
   40.2490   29.5060   45.6270 H   0  0  0  0  0  0  0  0  0  0  0  0
   40.4420   31.2920   43.0370 O   0  0  0  0  0  0  0  0  0  0  0  0
   41.2340   31.5420   42.5110 H   0  0  0  0  0  0  0  0  0  0  0  0
  1 12  1  0  0  0  0
  1  2  1  0  0  0  0
  2  7  1  0  0  0  0
  3  2  2  0  0  0  0
  3  8  1  0  0  0  0
  4  3  1  0  0  0  0
  5  6  1  0  0  0  0
  5  4  2  0  0  0  0
  6  1  2  0  0  0  0
  9  4  1  0  0  0  0
 10 17  1  0  0  0  0
 11 10  1  0  0  0  0
 11 20  1  0  0  0  0
 12 11  2  0  0  0  0
 13 14  2  0  0  0  0
 13 12  1  0  0  0  0
 14 15  1  0  0  0  0
 15 10  2  0  0  0  0
 16 19  1  0  0  0  0
 16 14  1  0  0  0  0
 18 16  1  0  0  0  0
 20 23  1  0  0  0  0
 20 22  1  0  0  0  0
 21 20  1  0  0  0  0
 24 25  1  0  0  0  0
 24 29  1  1  0  0  0
 25 26  1  0  0  0  0
 25  5  1  1  0  0  0
 27 26  1  0  0  0  0
 28 31  1  6  0  0  0
 28 27  1  0  0  0  0
 28 24  1  0  0  0  0
 30 29  1  0  0  0  0
 32 31  1  0  0  0  0
M  END
>  <minimizedAffinity>
-7.22768593

>  <minimizedRMSD>
0.880935967

$$$$
