
 OpenBabel03272508533D

 38 41  0  0  1  0  0  0  0  0999 V2000
   38.4290   31.8160   44.5930 C   0  0  0  0  0  0  0  0  0  0  0  0
   37.3680   32.4810   44.4690 O   0  0  0  0  0  0  0  0  0  0  0  0
   38.9110   31.4620   45.9030 N   0  0  0  0  0  0  0  0  0  0  0  0
   39.8530   31.0920   46.0790 H   0  0  0  0  0  0  0  0  0  0  0  0
   39.2060   31.3830   43.4160 C   0  0  0  0  0  0  0  0  0  0  0  0
   40.2030   30.4640   43.5960 C   0  0  0  0  0  0  0  0  0  0  0  0
   40.9260   30.0720   42.4810 C   0  0  0  0  0  0  0  0  0  0  0  0
   40.5990   30.6250   41.2630 C   0  0  0  0  0  0  0  0  0  0  0  0
   39.5790   31.5650   41.0780 C   0  0  0  0  0  0  0  0  0  0  0  0
   38.9140   31.9050   42.2030 N   0  0  0  0  0  0  0  0  0  0  0  0
   40.4660   30.0260   44.5410 H   0  0  0  0  0  0  0  0  0  0  0  0
   41.7180   29.3590   42.5490 H   0  0  0  0  0  0  0  0  0  0  0  0
   41.1420   30.3430   40.3690 H   0  0  0  0  0  0  0  0  0  0  0  0
   37.9560   31.7030   39.1860 C   0  0  1  0  0  3  0  0  0  0  0  0
   39.2900   32.1100   39.7460 C   0  0  2  0  0  3  0  0  0  0  0  0
   40.2490   31.7670   38.8040 O   0  0  0  0  0  0  0  0  0  0  0  0
   39.7680   30.7000   38.0840 C   0  0  0  0  0  2  0  0  0  0  0  0
   38.2730   30.7640   38.0650 C   0  0  2  0  0  3  0  0  0  0  0  0
   37.2390   30.9910   40.1580 O   0  0  0  0  0  0  0  0  0  0  0  0
   37.3240   30.0000   40.0380 H   0  0  0  0  0  0  0  0  0  0  0  0
   37.7750   31.2310   36.8370 O   0  0  0  0  0  0  0  0  0  0  0  0
   38.5460   31.5030   36.2640 H   0  0  0  0  0  0  0  0  0  0  0  0
   38.2530   30.9150   48.2420 C   0  0  2  0  0  0  0  0  0  0  0  0
   38.6890   32.3220   48.2430 C   0  0  0  0  0  0  0  0  0  0  0  0
   38.0050   31.6450   47.0240 C   0  0  1  0  0  0  0  0  0  0  0  0
   39.1060   30.1960   48.3150 H   0  0  0  0  0  0  0  0  0  0  0  0
   38.0900   33.1270   48.6770 H   0  0  0  0  0  0  0  0  0  0  0  0
   39.7580   32.5650   48.1580 H   0  0  0  0  0  0  0  0  0  0  0  0
   36.9770   32.0000   46.8020 H   0  0  0  0  0  0  0  0  0  0  0  0
   34.8010   30.1430   49.3170 C   0  0  0  0  0  0  0  0  0  0  0  0
   35.0030   29.5720   50.6140 C   0  0  0  0  0  0  0  0  0  0  0  0
   36.3660   29.4750   51.0870 C   0  0  0  0  0  0  0  0  0  0  0  0
   37.3670   29.9220   50.2990 N   0  0  0  0  0  0  0  0  0  0  0  0
   37.1010   30.4560   49.0740 C   0  0  0  0  0  0  0  0  0  0  0  0
   35.8290   30.5800   48.5560 N   0  0  0  0  0  0  0  0  0  0  0  0
   33.7680   30.1880   49.0180 H   0  0  0  0  0  0  0  0  0  0  0  0
   34.1860   29.2310   51.2040 H   0  0  0  0  0  0  0  0  0  0  0  0
   36.5500   29.0510   52.0550 H   0  0  0  0  0  0  0  0  0  0  0  0
  1  3  1  0  0  0  0
  2  1  2  0  0  0  0
  3  4  1  0  0  0  0
  3 25  1  0  0  0  0
  5  6  1  0  0  0  0
  5  1  1  0  0  0  0
  6 11  1  0  0  0  0
  7 12  1  0  0  0  0
  7  6  2  0  0  0  0
  8  7  1  0  0  0  0
  9  8  2  0  0  0  0
  9 10  1  0  0  0  0
 10  5  2  0  0  0  0
 13  8  1  0  0  0  0
 14 15  1  0  0  0  0
 14 19  1  1  0  0  0
 15  9  1  1  0  0  0
 16 15  1  0  0  0  0
 17 16  1  0  0  0  0
 18 21  1  6  0  0  0
 18 17  1  0  0  0  0
 18 14  1  0  0  0  0
 20 19  1  0  0  0  0
 22 21  1  0  0  0  0
 23 24  1  0  0  0  0
 23 26  1  6  0  0  0
 23 34  1  0  0  0  0
 24 27  1  0  0  0  0
 25 29  1  6  0  0  0
 25 23  1  0  0  0  0
 25 24  1  0  0  0  0
 28 24  1  0  0  0  0
 30 31  1  0  0  0  0
 31 32  2  0  0  0  0
 31 37  1  0  0  0  0
 32 38  1  0  0  0  0
 33 32  1  0  0  0  0
 34 33  2  0  0  0  0
 35 34  1  0  0  0  0
 35 30  2  0  0  0  0
 36 30  1  0  0  0  0
M  END
>  <minimizedAffinity>
-5.13913488

>  <minimizedRMSD>
0.642355025

$$$$
