
 OpenBabel03272508053D

 35 38  0  0  1  0  0  0  0  0999 V2000
   38.8990   30.8940   45.7720 C   0  0  0  0  0  0  0  0  0  0  0  0
   40.1290   31.4310   46.0410 C   0  0  0  0  0  0  0  0  0  0  0  0
   40.9410   31.3950   44.9160 C   0  0  0  0  0  0  0  0  0  0  0  0
   40.1400   30.8150   43.9740 N   0  0  0  0  0  0  0  0  0  0  0  0
   38.9590   30.5240   44.4690 N   0  0  0  0  0  0  0  0  0  0  0  0
   40.4660   31.8410   46.9890 H   0  0  0  0  0  0  0  0  0  0  0  0
   41.9510   31.7220   44.7520 H   0  0  0  0  0  0  0  0  0  0  0  0
   37.7690   30.7420   46.6690 C   0  0  0  0  0  0  0  0  0  0  0  0
   37.9990   30.9760   48.0510 C   0  0  0  0  0  0  0  0  0  0  0  0
   36.9220   30.8330   48.9210 C   0  0  0  0  0  0  0  0  0  0  0  0
   35.7220   30.4800   48.3990 N   0  0  0  0  0  0  0  0  0  0  0  0
   35.5310   30.2630   47.0760 C   0  0  0  0  0  0  0  0  0  0  0  0
   36.5670   30.3990   46.2240 N   0  0  0  0  0  0  0  0  0  0  0  0
   38.9530   31.2580   48.4680 H   0  0  0  0  0  0  0  0  0  0  0  0
   34.5410   29.9810   46.7080 H   0  0  0  0  0  0  0  0  0  0  0  0
   37.1490   31.0760   50.3810 C   0  0  0  0  0  0  0  0  0  0  0  0
   36.6140   32.3090   50.6340 F   0  0  0  0  0  0  0  0  0  0  0  0
   36.4890   30.1310   51.1690 F   0  0  0  0  0  0  0  0  0  0  0  0
   38.4980   31.0750   50.7030 F   0  0  0  0  0  0  0  0  0  0  0  0
   40.4670   30.5240   42.5840 C   0  0  0  0  0  0  0  0  0  0  0  0
   40.0180   31.3560   41.5440 C   0  0  0  0  0  0  0  0  0  0  0  0
   40.3690   31.0340   40.2660 C   0  0  0  0  0  0  0  0  0  0  0  0
   41.1700   29.8780   40.0210 C   0  0  0  0  0  0  0  0  0  0  0  0
   41.4280   29.2240   41.7350 S   0  0  0  0  0  0  0  0  0  0  0  0
   39.4100   32.2370   41.6910 H   0  0  0  0  0  0  0  0  0  0  0  0
   40.1290   31.5350   39.3420 H   0  0  0  0  0  0  0  0  0  0  0  0
   42.8710   29.9930   38.3310 C   0  0  2  0  0  3  0  0  0  0  0  0
   41.7200   29.2300   38.9110 C   0  0  1  0  0  3  0  0  0  0  0  0
   42.3270   28.0180   39.3180 O   0  0  0  0  0  0  0  0  0  0  0  0
   43.0200   27.5980   38.1790 C   0  0  0  0  0  2  0  0  0  0  0  0
   43.6910   28.8570   37.7110 C   0  0  2  0  0  3  0  0  0  0  0  0
   43.6210   30.5170   39.3750 O   0  0  0  0  0  0  0  0  0  0  0  0
   44.1720   31.2930   39.1020 H   0  0  0  0  0  0  0  0  0  0  0  0
   45.0270   28.9260   38.0580 O   0  0  0  0  0  0  0  0  0  0  0  0
   45.3040   28.2970   38.7610 H   0  0  0  0  0  0  0  0  0  0  0  0
  1  2  1  0  0  0  0
  1  8  1  0  0  0  0
  2  6  1  0  0  0  0
  3  2  2  0  0  0  0
  4  5  1  0  0  0  0
  4  3  1  0  0  0  0
  5  1  2  0  0  0  0
  7  3  1  0  0  0  0
  8  9  1  0  0  0  0
  9 14  1  0  0  0  0
  9 10  2  0  0  0  0
 10 16  1  0  0  0  0
 11 10  1  0  0  0  0
 12 11  2  0  0  0  0
 13  8  2  0  0  0  0
 13 12  1  0  0  0  0
 15 12  1  0  0  0  0
 16 17  1  0  0  0  0
 16 19  1  0  0  0  0
 16 18  1  0  0  0  0
 20  4  1  0  0  0  0
 21 25  1  0  0  0  0
 21 20  2  0  0  0  0
 22 21  1  0  0  0  0
 23 22  2  0  0  0  0
 23 24  1  0  0  0  0
 24 20  1  0  0  0  0
 26 22  1  0  0  0  0
 27 28  1  0  0  0  0
 27 32  1  1  0  0  0
 28 29  1  0  0  0  0
 28 23  1  1  0  0  0
 30 29  1  0  0  0  0
 31 34  1  1  0  0  0
 31 30  1  0  0  0  0
 31 27  1  0  0  0  0
 33 32  1  0  0  0  0
 34 35  1  0  0  0  0
M  END
>  <minimizedAffinity>
-6.69055128

>  <minimizedRMSD>
0.364258051

$$$$
