
 OpenBabel03272502393D

 40 43  0  0  1  0  0  0  0  0999 V2000
   32.3900   28.9450   46.4250 N   0  0  0  0  0  0  0  0  0  0  0  0
   33.2390   28.5470   45.3130 C   0  0  0  0  0  0  0  0  0  0  0  0
   34.5960   29.0470   45.7230 C   0  0  0  0  0  0  0  0  0  0  0  0
   34.3360   29.8960   47.0430 C   0  0  1  0  0  0  0  0  0  0  0  0
   33.2400   29.1150   47.6240 C   0  0  0  0  0  0  0  0  0  0  0  0
   33.2510   27.4450   45.2320 H   0  0  0  0  0  0  0  0  0  0  0  0
   32.8930   28.9880   44.3430 H   0  0  0  0  0  0  0  0  0  0  0  0
   35.2950   28.2530   45.9980 H   0  0  0  0  0  0  0  0  0  0  0  0
   35.0250   29.7460   44.9890 H   0  0  0  0  0  0  0  0  0  0  0  0
   34.0610   30.8510   46.5890 H   0  0  0  0  0  0  0  0  0  0  0  0
   32.6610   29.6170   48.4180 H   0  0  0  0  0  0  0  0  0  0  0  0
   33.5550   28.0900   47.9320 H   0  0  0  0  0  0  0  0  0  0  0  0
   36.6620   31.1240   46.0130 F   0  0  0  0  0  0  0  0  0  0  0  0
   36.6330   30.5920   47.2380 C   0  0  0  0  0  0  0  0  0  0  0  0
   35.5840   29.9340   47.8110 C   0  0  0  0  0  0  0  0  0  0  0  0
   35.7400   29.4600   49.1240 C   0  0  0  0  0  0  0  0  0  0  0  0
   36.8970   29.6400   49.8350 C   0  0  0  0  0  0  0  0  0  0  0  0
   37.9480   30.3160   49.2170 C   0  0  0  0  0  0  0  0  0  0  0  0
   37.8220   30.8020   47.8960 C   0  0  0  0  0  0  0  0  0  0  0  0
   34.8670   28.9500   49.5020 H   0  0  0  0  0  0  0  0  0  0  0  0
   36.9780   29.2630   50.8440 H   0  0  0  0  0  0  0  0  0  0  0  0
   38.8620   30.4460   49.8060 H   0  0  0  0  0  0  0  0  0  0  0  0
   38.9070   32.8830   46.9220 C   0  0  2  0  0  0  0  0  0  0  0  0
   39.0020   31.4920   47.3640 C   0  0  2  0  0  0  0  0  0  0  0  0
   39.5210   30.7600   46.2710 O   0  0  0  0  0  0  0  0  0  0  0  0
   40.4290   31.6360   45.6580 C   0  0  0  0  0  0  0  0  0  0  0  0
   39.5650   32.8810   45.5560 C   0  0  1  0  0  0  0  0  0  0  0  0
   39.6970   33.7470   47.6940 O   0  0  0  0  0  0  0  0  0  0  0  0
   40.5090   33.2910   48.0320 H   0  0  0  0  0  0  0  0  0  0  0  0
   38.6940   32.6620   44.5060 O   0  0  0  0  0  0  0  0  0  0  0  0
   37.8390   33.1160   44.5510 H   0  0  0  0  0  0  0  0  0  0  0  0
   30.9990   29.1510   46.4080 C   0  0  0  0  0  0  0  0  0  0  0  0
   30.5210   30.0050   45.4030 C   0  0  0  0  0  0  0  0  0  0  0  0
   29.1450   30.2700   45.3250 C   0  0  0  0  0  0  0  0  0  0  0  0
   28.3520   29.6500   46.2720 N   0  0  0  0  0  0  0  0  0  0  0  0
   28.8440   28.8390   47.2180 C   0  0  0  0  0  0  0  0  0  0  0  0
   30.1750   28.5900   47.2850 N   0  0  0  0  0  0  0  0  0  0  0  0
   31.1520   30.4810   44.6710 H   0  0  0  0  0  0  0  0  0  0  0  0
   28.7010   30.9140   44.5840 H   0  0  0  0  0  0  0  0  0  0  0  0
   28.1610   28.4000   47.9130 H   0  0  0  0  0  0  0  0  0  0  0  0
  1  5  1  0  0  0  0
  2  3  1  0  0  0  0
  2  1  1  0  0  0  0
  3  8  1  0  0  0  0
  3  4  1  0  0  0  0
  4 10  1  6  0  0  0
  4  5  1  0  0  0  0
  4 15  1  0  0  0  0
  5 12  1  0  0  0  0
  5 11  1  0  0  0  0
  6  2  1  0  0  0  0
  7  2  1  0  0  0  0
  9  3  1  0  0  0  0
 13 14  1  0  0  0  0
 14 15  2  0  0  0  0
 14 19  1  0  0  0  0
 15 16  1  0  0  0  0
 16 20  1  0  0  0  0
 16 17  2  0  0  0  0
 17 21  1  0  0  0  0
 18 22  1  0  0  0  0
 18 17  1  0  0  0  0
 19 18  2  0  0  0  0
 23 24  1  0  0  0  0
 23 28  1  1  0  0  0
 24 19  1  6  0  0  0
 25 24  1  0  0  0  0
 26 25  1  0  0  0  0
 27 30  1  6  0  0  0
 27 26  1  0  0  0  0
 27 23  1  0  0  0  0
 28 29  1  0  0  0  0
 30 31  1  0  0  0  0
 32  1  1  0  0  0  0
 32 37  1  0  0  0  0
 33 32  2  0  0  0  0
 34 33  1  0  0  0  0
 34 35  2  0  0  0  0
 35 36  1  0  0  0  0
 36 37  2  0  0  0  0
 36 40  1  0  0  0  0
 38 33  1  0  0  0  0
 39 34  1  0  0  0  0
M  END
>  <minimizedAffinity>
-6.34448767

>  <minimizedRMSD>
2.68523693

$$$$
