
 OpenBabel03262523253D

 40 43  0  0  1  0  0  0  0  0999 V2000
   39.6140   33.0520   44.5880 C   0  0  0  0  0  0  0  0  0  0  0  0
   40.4870   32.0470   44.1880 C   0  0  0  0  0  0  0  0  0  0  0  0
   40.5590   30.9090   44.9650 C   0  0  0  0  0  0  0  0  0  0  0  0
   39.7760   30.8340   46.0760 N   0  0  0  0  0  0  0  0  0  0  0  0
   38.9290   31.8390   46.4410 C   0  0  0  0  0  0  0  0  0  0  0  0
   38.8540   32.9360   45.7000 N   0  0  0  0  0  0  0  0  0  0  0  0
   38.1350   31.6770   47.6350 N   0  0  0  0  0  0  0  0  0  0  0  0
   38.0200   32.7690   48.5630 C   0  0  0  0  0  0  0  0  0  0  0  0
   37.8190   32.3120   49.9870 C   0  0  0  0  0  0  0  0  0  0  0  0
   38.3210   30.8970   50.1000 C   0  0  0  0  0  0  0  0  0  0  0  0
   37.3620   30.0370   49.3110 C   0  0  0  0  0  0  0  0  0  0  0  0
   37.4640   30.3950   47.8730 C   0  0  1  0  0  0  0  0  0  0  0  0
   39.5010   33.9700   44.0350 H   0  0  0  0  0  0  0  0  0  0  0  0
   41.0640   32.1880   43.3030 H   0  0  0  0  0  0  0  0  0  0  0  0
   41.2140   30.1030   44.7040 H   0  0  0  0  0  0  0  0  0  0  0  0
   38.9580   33.3570   48.5260 H   0  0  0  0  0  0  0  0  0  0  0  0
   37.1390   33.4240   48.3250 H   0  0  0  0  0  0  0  0  0  0  0  0
   38.3810   32.9340   50.7120 H   0  0  0  0  0  0  0  0  0  0  0  0
   36.7290   32.2850   50.2340 H   0  0  0  0  0  0  0  0  0  0  0  0
   38.3910   30.5440   51.1350 H   0  0  0  0  0  0  0  0  0  0  0  0
   39.3320   30.8080   49.6170 H   0  0  0  0  0  0  0  0  0  0  0  0
   37.6710   28.9630   49.4730 H   0  0  0  0  0  0  0  0  0  0  0  0
   36.3910   30.1300   49.7860 H   0  0  0  0  0  0  0  0  0  0  0  0
   38.1480   29.6550   47.3650 H   0  0  0  0  0  0  0  0  0  0  0  0
   36.1850   30.3090   47.1500 C   0  0  0  0  0  0  0  0  0  0  0  0
   34.9070   30.2320   47.6990 C   0  0  0  0  0  0  0  0  0  0  0  0
   33.8190   30.1660   46.8740 C   0  0  0  0  0  0  0  0  0  0  0  0
   34.0930   30.1840   45.4490 C   0  0  0  0  0  0  0  0  0  0  0  0
   35.9870   30.2980   45.4380 S   0  0  0  0  0  0  0  0  0  0  0  0
   34.6860   30.2200   48.7580 H   0  0  0  0  0  0  0  0  0  0  0  0
   32.7840   30.1040   47.0710 H   0  0  0  0  0  0  0  0  0  0  0  0
   33.4360   31.3980   43.4680 C   0  0  2  0  0  0  0  0  0  0  0  0
   33.2520   30.1350   44.2850 C   0  0  2  0  0  0  0  0  0  0  0  0
   31.9180   30.1320   44.6890 O   0  0  0  0  0  0  0  0  0  0  0  0
   31.2250   30.6140   43.5730 C   0  0  0  0  0  0  0  0  0  0  0  0
   32.0150   31.8590   43.2450 C   0  0  2  0  0  0  0  0  0  0  0  0
   34.0280   31.1480   42.2450 O   0  0  0  0  0  0  0  0  0  0  0  0
   34.7270   30.4430   42.4070 H   0  0  0  0  0  0  0  0  0  0  0  0
   31.8040   32.2290   41.9060 O   0  0  0  0  0  0  0  0  0  0  0  0
   32.6900   32.3090   41.4880 H   0  0  0  0  0  0  0  0  0  0  0  0
  1  6  1  0  0  0  0
  2  1  2  0  0  0  0
  2  3  1  0  0  0  0
  3  4  2  0  0  0  0
  4  5  1  0  0  0  0
  5  7  1  0  0  0  0
  6  5  2  0  0  0  0
  7 12  1  0  0  0  0
  7  8  1  0  0  0  0
  8  9  1  0  0  0  0
  9 10  1  0  0  0  0
  9 19  1  0  0  0  0
  9 18  1  0  0  0  0
 10 20  1  0  0  0  0
 11 22  1  0  0  0  0
 11 23  1  0  0  0  0
 11 10  1  0  0  0  0
 12 24  1  6  0  0  0
 12 11  1  0  0  0  0
 13  1  1  0  0  0  0
 14  2  1  0  0  0  0
 15  3  1  0  0  0  0
 16  8  1  0  0  0  0
 17  8  1  0  0  0  0
 21 10  1  0  0  0  0
 25 26  2  0  0  0  0
 25 12  1  0  0  0  0
 26 30  1  0  0  0  0
 27 31  1  0  0  0  0
 27 26  1  0  0  0  0
 28 27  2  0  0  0  0
 29 28  1  0  0  0  0
 29 25  1  0  0  0  0
 32 37  1  6  0  0  0
 32 33  1  0  0  0  0
 33 34  1  0  0  0  0
 33 28  1  1  0  0  0
 35 34  1  0  0  0  0
 36 39  1  6  0  0  0
 36 32  1  0  0  0  0
 36 35  1  0  0  0  0
 37 38  1  0  0  0  0
 40 39  1  0  0  0  0
M  END
>  <minimizedAffinity>
-5.79366589

>  <minimizedRMSD>
0.151387349

$$$$
