
 OpenBabel03272503113D

 45 49  0  0  1  0  0  0  0  0999 V2000
   37.9880   26.3610   34.9460 C   0  0  0  0  0  0  0  0  0  0  0  0
   38.7380   26.8130   35.8710 O   0  0  0  0  0  0  0  0  0  0  0  0
   37.7610   24.9580   34.9750 N   0  0  0  0  0  0  0  0  0  0  0  0
   37.1630   24.5570   34.2450 H   0  0  0  0  0  0  0  0  0  0  0  0
   36.5000   28.1730   34.4310 C   0  0  0  0  0  0  0  0  0  0  0  0
   37.4470   27.2840   33.9760 C   0  0  0  0  0  0  0  0  0  0  0  0
   37.8780   27.2540   32.6610 C   0  0  0  0  0  0  0  0  0  0  0  0
   37.3350   28.1550   31.7630 C   0  0  0  0  0  0  0  0  0  0  0  0
   37.5450   28.3670   30.4540 N   0  0  0  0  0  0  0  0  0  0  0  0
   36.7500   29.3700   30.0760 C   0  0  0  0  0  0  0  0  0  0  0  0
   36.0510   29.7840   31.1300 N   0  0  0  0  0  0  0  0  0  0  0  0
   36.3840   29.0490   32.2180 C   0  0  0  0  0  0  0  0  0  0  0  0
   35.9420   29.0930   33.5300 C   0  0  0  0  0  0  0  0  0  0  0  0
   36.1570   28.2020   35.4650 H   0  0  0  0  0  0  0  0  0  0  0  0
   38.6210   26.5430   32.3390 H   0  0  0  0  0  0  0  0  0  0  0  0
   38.2270   27.8010   29.8990 H   0  0  0  0  0  0  0  0  0  0  0  0
   36.7430   29.7280   29.0400 H   0  0  0  0  0  0  0  0  0  0  0  0
   33.5680   29.5160   34.2010 C   0  0  1  0  0  3  0  0  0  0  0  0
   34.9420   30.0390   33.9870 C   0  0  1  0  0  3  0  0  0  0  0  0
   35.2440   30.6100   35.2200 O   0  0  0  0  0  0  0  0  0  0  0  0
   34.1230   31.3000   35.6170 C   0  0  0  0  0  2  0  0  0  0  0  0
   32.9310   30.6700   34.9500 C   0  0  1  0  0  3  0  0  0  0  0  0
   32.8920   29.2250   33.0210 O   0  0  0  0  0  0  0  0  0  0  0  0
   33.0040   28.2410   32.8560 H   0  0  0  0  0  0  0  0  0  0  0  0
   32.3850   31.5090   33.9670 O   0  0  0  0  0  0  0  0  0  0  0  0
   32.1940   32.4110   34.3560 H   0  0  0  0  0  0  0  0  0  0  0  0
   40.2560   23.8970   34.6370 F   0  0  0  0  0  0  0  0  0  0  0  0
   39.6810   23.7550   35.8640 C   0  0  0  0  0  0  0  0  0  0  0  0
   40.3640   23.0990   36.8580 C   0  0  0  0  0  0  0  0  0  0  0  0
   39.7250   22.9940   38.0670 C   0  0  0  0  0  0  0  0  0  0  0  0
   38.4720   23.5020   38.3100 C   0  0  0  0  0  0  0  0  0  0  0  0
   37.8090   24.1580   37.2850 C   0  0  0  0  0  0  0  0  0  0  0  0
   38.4220   24.2830   36.0560 C   0  0  0  0  0  0  0  0  0  0  0  0
   40.2460   22.4800   38.8650 H   0  0  0  0  0  0  0  0  0  0  0  0
   37.9760   23.4130   39.2670 H   0  0  0  0  0  0  0  0  0  0  0  0
   36.8240   24.5940   37.3680 H   0  0  0  0  0  0  0  0  0  0  0  0
   44.0690   22.8410   36.1740 C   0  0  0  0  0  0  0  0  0  0  0  0
   42.7980   23.3980   36.4680 C   0  0  0  0  0  0  0  0  0  0  0  0
   41.6850   22.5760   36.5600 C   0  0  0  0  0  0  0  0  0  0  0  0
   41.8790   21.2310   36.3560 N   0  0  0  0  0  0  0  0  0  0  0  0
   43.0950   20.7290   36.0790 C   0  0  0  0  0  0  0  0  0  0  0  0
   44.1620   21.5170   35.9900 N   0  0  0  0  0  0  0  0  0  0  0  0
   44.8420   23.6090   36.1350 H   0  0  0  0  0  0  0  0  0  0  0  0
   42.6020   24.4270   36.6320 H   0  0  0  0  0  0  0  0  0  0  0  0
   43.2880   19.6870   35.9140 H   0  0  0  0  0  0  0  0  0  0  0  0
  1  3  1  0  0  0  0
  1  2  2  0  0  0  0
  3 33  1  0  0  0  0
  4  3  1  0  0  0  0
  5 14  1  0  0  0  0
  6  5  1  0  0  0  0
  6  1  1  0  0  0  0
  7  6  2  0  0  0  0
  8 12  2  0  0  0  0
  8  7  1  0  0  0  0
  9  8  1  0  0  0  0
 10  9  1  0  0  0  0
 10 11  2  0  0  0  0
 11 12  1  0  0  0  0
 12 13  1  0  0  0  0
 13  5  2  0  0  0  0
 15  7  1  0  0  0  0
 16  9  1  0  0  0  0
 17 10  1  0  0  0  0
 18 23  1  6  0  0  0
 18 22  1  0  0  0  0
 19 13  1  1  0  0  0
 19 18  1  0  0  0  0
 19 20  1  0  0  0  0
 20 21  1  0  0  0  0
 22 25  1  6  0  0  0
 22 21  1  0  0  0  0
 24 23  1  0  0  0  0
 25 26  1  0  0  0  0
 27 28  1  0  0  0  0
 28 33  2  0  0  0  0
 28 29  1  0  0  0  0
 29 30  2  0  0  0  0
 30 31  1  0  0  0  0
 30 34  1  0  0  0  0
 31 35  1  0  0  0  0
 32 36  1  0  0  0  0
 32 31  2  0  0  0  0
 33 32  1  0  0  0  0
 37 38  1  0  0  0  0
 38 39  2  0  0  0  0
 38 44  1  0  0  0  0
 39 29  1  0  0  0  0
 40 39  1  0  0  0  0
 41 40  2  0  0  0  0
 42 41  1  0  0  0  0
 42 37  2  0  0  0  0
 43 37  1  0  0  0  0
 45 41  1  0  0  0  0
M  END
>  <minimizedAffinity>
-7.25559568

$$$$

 OpenBabel03272503113D

 45 49  0  0  1  0  0  0  0  0999 V2000
   37.1630   26.6340   32.7860 C   0  0  0  0  0  0  0  0  0  0  0  0
   38.0170   27.4490   33.2660 O   0  0  0  0  0  0  0  0  0  0  0  0
   36.0400   27.2310   32.1510 N   0  0  0  0  0  0  0  0  0  0  0  0
   35.3300   26.6070   31.7540 H   0  0  0  0  0  0  0  0  0  0  0  0
   37.9210   24.7910   34.1240 C   0  0  0  0  0  0  0  0  0  0  0  0
   37.4020   25.2170   32.9220 C   0  0  0  0  0  0  0  0  0  0  0  0
   37.1110   24.3520   31.8820 C   0  0  0  0  0  0  0  0  0  0  0  0
   37.3540   23.0010   32.0520 C   0  0  0  0  0  0  0  0  0  0  0  0
   37.1810   21.9410   31.2470 N   0  0  0  0  0  0  0  0  0  0  0  0
   37.5810   20.8580   31.9160 C   0  0  0  0  0  0  0  0  0  0  0  0
   37.9990   21.2290   33.1240 N   0  0  0  0  0  0  0  0  0  0  0  0
   37.8760   22.5710   33.2580 C   0  0  0  0  0  0  0  0  0  0  0  0
   38.1710   23.4230   34.3100 C   0  0  0  0  0  0  0  0  0  0  0  0
   38.1510   25.4670   34.9470 H   0  0  0  0  0  0  0  0  0  0  0  0
   36.7050   24.7200   30.9530 H   0  0  0  0  0  0  0  0  0  0  0  0
   36.7960   22.0320   30.2790 H   0  0  0  0  0  0  0  0  0  0  0  0
   37.5350   19.8620   31.4610 H   0  0  0  0  0  0  0  0  0  0  0  0
   40.1850   23.0960   35.7590 C   0  0  1  0  0  3  0  0  0  0  0  0
   38.7190   22.9510   35.5670 C   0  0  1  0  0  3  0  0  0  0  0  0
   38.2020   23.6110   36.6780 O   0  0  0  0  0  0  0  0  0  0  0  0
   38.9620   23.2200   37.7550 C   0  0  0  0  0  2  0  0  0  0  0  0
   40.3140   22.8080   37.2430 C   0  0  1  0  0  3  0  0  0  0  0  0
   40.9380   22.2150   34.9910 O   0  0  0  0  0  0  0  0  0  0  0  0
   41.2190   22.7150   34.1660 H   0  0  0  0  0  0  0  0  0  0  0  0
   40.5060   21.4220   37.3470 O   0  0  0  0  0  0  0  0  0  0  0  0
   40.3260   21.1220   38.2850 H   0  0  0  0  0  0  0  0  0  0  0  0
   35.0380   28.6300   34.2740 F   0  0  0  0  0  0  0  0  0  0  0  0
   35.5510   29.3530   33.2390 C   0  0  0  0  0  0  0  0  0  0  0  0
   35.5430   30.7240   33.3040 C   0  0  0  0  0  0  0  0  0  0  0  0
   36.0750   31.3870   32.2270 C   0  0  0  0  0  0  0  0  0  0  0  0
   36.5960   30.7510   31.1260 C   0  0  0  0  0  0  0  0  0  0  0  0
   36.5890   29.3660   31.0920 C   0  0  0  0  0  0  0  0  0  0  0  0
   36.0610   28.6670   32.1580 C   0  0  0  0  0  0  0  0  0  0  0  0
   36.0780   32.4690   32.2580 H   0  0  0  0  0  0  0  0  0  0  0  0
   37.0130   31.2830   30.2820 H   0  0  0  0  0  0  0  0  0  0  0  0
   36.9720   28.7670   30.2780 H   0  0  0  0  0  0  0  0  0  0  0  0
   35.1390   32.1880   36.7620 C   0  0  0  0  0  0  0  0  0  0  0  0
   35.7310   31.5650   35.6330 C   0  0  0  0  0  0  0  0  0  0  0  0
   34.9830   31.3580   34.4840 C   0  0  0  0  0  0  0  0  0  0  0  0
   33.6740   31.7760   34.5030 N   0  0  0  0  0  0  0  0  0  0  0  0
   33.1390   32.3640   35.5860 C   0  0  0  0  0  0  0  0  0  0  0  0
   33.8560   32.5630   36.6870 N   0  0  0  0  0  0  0  0  0  0  0  0
   35.8500   32.2810   37.5840 H   0  0  0  0  0  0  0  0  0  0  0  0
   36.7340   31.2260   35.5750 H   0  0  0  0  0  0  0  0  0  0  0  0
   32.1230   32.7060   35.6410 H   0  0  0  0  0  0  0  0  0  0  0  0
  1  6  1  0  0  0  0
  1  2  2  0  0  0  0
  3 33  1  0  0  0  0
  3  1  1  0  0  0  0
  4  3  1  0  0  0  0
  5 13  1  0  0  0  0
  5 14  1  0  0  0  0
  6  5  2  0  0  0  0
  7  8  2  0  0  0  0
  7  6  1  0  0  0  0
  8 12  1  0  0  0  0
  9 10  1  0  0  0  0
  9  8  1  0  0  0  0
 10 11  2  0  0  0  0
 11 12  1  0  0  0  0
 12 13  2  0  0  0  0
 15  7  1  0  0  0  0
 16  9  1  0  0  0  0
 17 10  1  0  0  0  0
 18 23  1  6  0  0  0
 18 22  1  0  0  0  0
 19 13  1  6  0  0  0
 19 18  1  0  0  0  0
 19 20  1  0  0  0  0
 20 21  1  0  0  0  0
 22 25  1  6  0  0  0
 22 21  1  0  0  0  0
 24 23  1  0  0  0  0
 25 26  1  0  0  0  0
 28 29  1  0  0  0  0
 28 27  1  0  0  0  0
 29 39  1  0  0  0  0
 30 34  1  0  0  0  0
 30 29  2  0  0  0  0
 31 30  1  0  0  0  0
 32 31  2  0  0  0  0
 32 33  1  0  0  0  0
 33 28  2  0  0  0  0
 35 31  1  0  0  0  0
 36 32  1  0  0  0  0
 37 43  1  0  0  0  0
 38 37  2  0  0  0  0
 39 40  2  0  0  0  0
 39 38  1  0  0  0  0
 40 41  1  0  0  0  0
 41 45  1  0  0  0  0
 41 42  2  0  0  0  0
 42 37  1  0  0  0  0
 44 38  1  0  0  0  0
M  END
>  <minimizedAffinity>
-6.92403412

$$$$

 OpenBabel03272503113D

 45 49  0  0  1  0  0  0  0  0999 V2000
   38.0800   26.2710   34.7390 C   0  0  0  0  0  0  0  0  0  0  0  0
   38.8310   26.7640   35.6420 O   0  0  0  0  0  0  0  0  0  0  0  0
   37.8180   24.8790   34.8590 N   0  0  0  0  0  0  0  0  0  0  0  0
   37.2190   24.4440   34.1500 H   0  0  0  0  0  0  0  0  0  0  0  0
   38.1450   27.0110   32.4580 C   0  0  0  0  0  0  0  0  0  0  0  0
   37.5740   27.1390   33.7030 C   0  0  0  0  0  0  0  0  0  0  0  0
   36.5630   28.0440   33.9770 C   0  0  0  0  0  0  0  0  0  0  0  0
   36.1060   28.8580   32.9570 C   0  0  0  0  0  0  0  0  0  0  0  0
   35.1600   29.8110   32.9130 N   0  0  0  0  0  0  0  0  0  0  0  0
   35.1250   30.2850   31.6660 C   0  0  0  0  0  0  0  0  0  0  0  0
   36.0330   29.6420   30.9350 N   0  0  0  0  0  0  0  0  0  0  0  0
   36.6770   28.7320   31.7040 C   0  0  0  0  0  0  0  0  0  0  0  0
   37.6890   27.8310   31.4140 C   0  0  0  0  0  0  0  0  0  0  0  0
   38.9400   26.3000   32.2360 H   0  0  0  0  0  0  0  0  0  0  0  0
   36.1390   28.1180   34.9650 H   0  0  0  0  0  0  0  0  0  0  0  0
   34.5960   30.0760   33.7520 H   0  0  0  0  0  0  0  0  0  0  0  0
   34.4250   31.0790   31.3820 H   0  0  0  0  0  0  0  0  0  0  0  0
   39.2570   28.7580   29.6980 C   0  0  1  0  0  3  0  0  0  0  0  0
   38.2760   27.7150   30.0920 C   0  0  1  0  0  3  0  0  0  0  0  0
   38.9950   26.5370   29.9080 O   0  0  0  0  0  0  0  0  0  0  0  0
   39.6630   26.6690   28.7140 C   0  0  0  0  0  2  0  0  0  0  0  0
   39.8560   28.1370   28.4500 C   0  0  1  0  0  3  0  0  0  0  0  0
   38.6810   29.9960   29.4370 O   0  0  0  0  0  0  0  0  0  0  0  0
   38.7710   30.5410   30.2760 H   0  0  0  0  0  0  0  0  0  0  0  0
   39.0590   28.5800   27.3830 O   0  0  0  0  0  0  0  0  0  0  0  0
   39.2160   28.0060   26.5790 H   0  0  0  0  0  0  0  0  0  0  0  0
   40.2950   23.7470   34.6270 F   0  0  0  0  0  0  0  0  0  0  0  0
   39.7000   23.6960   35.8520 C   0  0  0  0  0  0  0  0  0  0  0  0
   40.3560   23.0930   36.8960 C   0  0  0  0  0  0  0  0  0  0  0  0
   39.6980   23.0790   38.1000 C   0  0  0  0  0  0  0  0  0  0  0  0
   38.4530   23.6260   38.2910 C   0  0  0  0  0  0  0  0  0  0  0  0
   37.8180   24.2290   37.2160 C   0  0  0  0  0  0  0  0  0  0  0  0
   38.4510   24.2610   35.9910 C   0  0  0  0  0  0  0  0  0  0  0  0
   40.1980   22.6060   38.9360 H   0  0  0  0  0  0  0  0  0  0  0  0
   37.9430   23.6090   39.2440 H   0  0  0  0  0  0  0  0  0  0  0  0
   36.8420   24.6890   37.2570 H   0  0  0  0  0  0  0  0  0  0  0  0
   43.1950   20.6490   36.4180 C   0  0  0  0  0  0  0  0  0  0  0  0
   41.8930   21.1570   36.6610 C   0  0  0  0  0  0  0  0  0  0  0  0
   41.6700   22.5250   36.6520 C   0  0  0  0  0  0  0  0  0  0  0  0
   42.7510   23.3360   36.4040 N   0  0  0  0  0  0  0  0  0  0  0  0
   43.9740   22.8290   36.1770 C   0  0  0  0  0  0  0  0  0  0  0  0
   44.1890   21.5180   36.1850 N   0  0  0  0  0  0  0  0  0  0  0  0
   43.2130   19.5600   36.4570 H   0  0  0  0  0  0  0  0  0  0  0  0
   41.0330   20.5690   36.8570 H   0  0  0  0  0  0  0  0  0  0  0  0
   44.8430   23.4270   35.9790 H   0  0  0  0  0  0  0  0  0  0  0  0
  1  3  1  0  0  0  0
  1  2  2  0  0  0  0
  3 33  1  0  0  0  0
  4  3  1  0  0  0  0
  5  6  1  0  0  0  0
  6  7  2  0  0  0  0
  6  1  1  0  0  0  0
  7 15  1  0  0  0  0
  8  7  1  0  0  0  0
  9  8  1  0  0  0  0
  9 16  1  0  0  0  0
 10  9  1  0  0  0  0
 11 10  2  0  0  0  0
 11 12  1  0  0  0  0
 12  8  2  0  0  0  0
 13 12  1  0  0  0  0
 13  5  2  0  0  0  0
 14  5  1  0  0  0  0
 17 10  1  0  0  0  0
 18 23  1  6  0  0  0
 18 19  1  0  0  0  0
 19 13  1  1  0  0  0
 20 19  1  0  0  0  0
 21 20  1  0  0  0  0
 22 25  1  6  0  0  0
 22 21  1  0  0  0  0
 22 18  1  0  0  0  0
 23 24  1  0  0  0  0
 26 25  1  0  0  0  0
 27 28  1  0  0  0  0
 28 33  2  0  0  0  0
 28 29  1  0  0  0  0
 29 30  2  0  0  0  0
 30 31  1  0  0  0  0
 30 34  1  0  0  0  0
 31 35  1  0  0  0  0
 32 36  1  0  0  0  0
 32 31  2  0  0  0  0
 33 32  1  0  0  0  0
 37 43  1  0  0  0  0
 37 38  1  0  0  0  0
 38 44  1  0  0  0  0
 39 38  2  0  0  0  0
 39 29  1  0  0  0  0
 40 39  1  0  0  0  0
 41 42  1  0  0  0  0
 41 40  2  0  0  0  0
 42 37  2  0  0  0  0
 45 41  1  0  0  0  0
M  END
>  <minimizedAffinity>
-6.75840616

$$$$

 OpenBabel03272503113D

 45 49  0  0  1  0  0  0  0  0999 V2000
   37.4250   27.0500   33.1970 C   0  0  0  0  0  0  0  0  0  0  0  0
   38.1960   26.6900   32.2490 O   0  0  0  0  0  0  0  0  0  0  0  0
   37.4410   26.2140   34.3460 N   0  0  0  0  0  0  0  0  0  0  0  0
   36.8320   26.4710   35.1300 H   0  0  0  0  0  0  0  0  0  0  0  0
   36.1360   28.8210   34.1770 C   0  0  0  0  0  0  0  0  0  0  0  0
   36.6260   28.2400   33.0290 C   0  0  0  0  0  0  0  0  0  0  0  0
   36.3810   28.7510   31.7670 C   0  0  0  0  0  0  0  0  0  0  0  0
   35.6100   29.8930   31.6490 C   0  0  0  0  0  0  0  0  0  0  0  0
   35.2070   30.6090   30.5870 N   0  0  0  0  0  0  0  0  0  0  0  0
   34.4750   31.6270   31.0420 C   0  0  0  0  0  0  0  0  0  0  0  0
   34.4170   31.5550   32.3700 N   0  0  0  0  0  0  0  0  0  0  0  0
   35.1170   30.4790   32.8000 C   0  0  0  0  0  0  0  0  0  0  0  0
   35.3530   29.9810   34.0720 C   0  0  0  0  0  0  0  0  0  0  0  0
   36.3260   28.4240   35.1740 H   0  0  0  0  0  0  0  0  0  0  0  0
   36.7800   28.2690   30.8880 H   0  0  0  0  0  0  0  0  0  0  0  0
   35.4640   30.3480   29.6070 H   0  0  0  0  0  0  0  0  0  0  0  0
   34.0330   32.3580   30.3560 H   0  0  0  0  0  0  0  0  0  0  0  0
   35.0940   32.0620   35.4370 C   0  0  1  0  0  3  0  0  0  0  0  0
   34.8260   30.6110   35.2670 C   0  0  1  0  0  3  0  0  0  0  0  0
   33.4390   30.5460   35.3600 O   0  0  0  0  0  0  0  0  0  0  0  0
   33.0780   31.3610   36.4070 C   0  0  0  0  0  2  0  0  0  0  0  0
   34.1510   32.4000   36.5770 C   0  0  1  0  0  3  0  0  0  0  0  0
   36.4170   32.3520   35.7530 O   0  0  0  0  0  0  0  0  0  0  0  0
   36.8750   32.5930   34.8920 H   0  0  0  0  0  0  0  0  0  0  0  0
   34.8870   32.1960   37.7540 O   0  0  0  0  0  0  0  0  0  0  0  0
   34.2680   32.1310   38.5370 H   0  0  0  0  0  0  0  0  0  0  0  0
   40.0040   26.3870   35.2760 F   0  0  0  0  0  0  0  0  0  0  0  0
   39.6240   25.2040   34.7170 C   0  0  0  0  0  0  0  0  0  0  0  0
   40.5240   24.1700   34.6460 C   0  0  0  0  0  0  0  0  0  0  0  0
   40.0730   23.0080   34.0720 C   0  0  0  0  0  0  0  0  0  0  0  0
   38.7990   22.8490   33.5830 C   0  0  0  0  0  0  0  0  0  0  0  0
   37.9140   23.9120   33.6700 C   0  0  0  0  0  0  0  0  0  0  0  0
   38.3350   25.0950   34.2420 C   0  0  0  0  0  0  0  0  0  0  0  0
   40.7680   22.1810   34.0060 H   0  0  0  0  0  0  0  0  0  0  0  0
   38.4530   21.9300   33.1320 H   0  0  0  0  0  0  0  0  0  0  0  0
   36.8930   23.8940   33.3180 H   0  0  0  0  0  0  0  0  0  0  0  0
   43.6940   23.8350   36.6720 C   0  0  0  0  0  0  0  0  0  0  0  0
   42.3830   23.5920   36.1890 C   0  0  0  0  0  0  0  0  0  0  0  0
   41.8610   24.3790   35.1740 C   0  0  0  0  0  0  0  0  0  0  0  0
   42.6630   25.3790   34.6790 N   0  0  0  0  0  0  0  0  0  0  0  0
   43.9020   25.5880   35.1550 C   0  0  0  0  0  0  0  0  0  0  0  0
   44.4030   24.8330   36.1280 N   0  0  0  0  0  0  0  0  0  0  0  0
   43.9620   23.1380   37.4660 H   0  0  0  0  0  0  0  0  0  0  0  0
   41.7300   22.8340   36.5410 H   0  0  0  0  0  0  0  0  0  0  0  0
   44.5600   26.3560   34.7960 H   0  0  0  0  0  0  0  0  0  0  0  0
  1  3  1  0  0  0  0
  2  1  2  0  0  0  0
  3  4  1  0  0  0  0
  5 14  1  0  0  0  0
  6  1  1  0  0  0  0
  6  5  2  0  0  0  0
  7  6  1  0  0  0  0
  8  7  2  0  0  0  0
  8 12  1  0  0  0  0
  9 10  1  0  0  0  0
  9  8  1  0  0  0  0
 10 11  2  0  0  0  0
 11 12  1  0  0  0  0
 12 13  2  0  0  0  0
 13  5  1  0  0  0  0
 15  7  1  0  0  0  0
 16  9  1  0  0  0  0
 17 10  1  0  0  0  0
 18 23  1  1  0  0  0
 18 22  1  0  0  0  0
 19 13  1  6  0  0  0
 19 20  1  0  0  0  0
 19 18  1  0  0  0  0
 20 21  1  0  0  0  0
 21 22  1  0  0  0  0
 22 25  1  1  0  0  0
 24 23  1  0  0  0  0
 25 26  1  0  0  0  0
 28 27  1  0  0  0  0
 29 28  1  0  0  0  0
 29 39  1  0  0  0  0
 30 29  2  0  0  0  0
 31 32  2  0  0  0  0
 31 30  1  0  0  0  0
 32 33  1  0  0  0  0
 33  3  1  0  0  0  0
 33 28  2  0  0  0  0
 34 30  1  0  0  0  0
 35 31  1  0  0  0  0
 36 32  1  0  0  0  0
 37 43  1  0  0  0  0
 38 44  1  0  0  0  0
 38 37  1  0  0  0  0
 39 38  2  0  0  0  0
 40 41  2  0  0  0  0
 40 39  1  0  0  0  0
 41 42  1  0  0  0  0
 42 37  2  0  0  0  0
 45 41  1  0  0  0  0
M  END
>  <minimizedAffinity>
-6.67885923

$$$$

 OpenBabel03272503113D

 45 49  0  0  1  0  0  0  0  0999 V2000
   37.1090   25.8360   32.5340 C   0  0  0  0  0  0  0  0  0  0  0  0
   35.8930   25.9110   32.1590 O   0  0  0  0  0  0  0  0  0  0  0  0
   37.7500   27.0820   32.7730 N   0  0  0  0  0  0  0  0  0  0  0  0
   38.7300   27.0640   33.0750 H   0  0  0  0  0  0  0  0  0  0  0  0
   38.1470   24.1930   33.9410 C   0  0  0  0  0  0  0  0  0  0  0  0
   37.7130   24.5340   32.6800 C   0  0  0  0  0  0  0  0  0  0  0  0
   37.8360   23.6900   31.5900 C   0  0  0  0  0  0  0  0  0  0  0  0
   38.4210   22.4500   31.7730 C   0  0  0  0  0  0  0  0  0  0  0  0
   38.6760   21.4360   30.9300 N   0  0  0  0  0  0  0  0  0  0  0  0
   39.2610   20.4650   31.6350 C   0  0  0  0  0  0  0  0  0  0  0  0
   39.3730   20.8600   32.9000 N   0  0  0  0  0  0  0  0  0  0  0  0
   38.8590   22.1050   33.0380 C   0  0  0  0  0  0  0  0  0  0  0  0
   38.7420   22.9380   34.1390 C   0  0  0  0  0  0  0  0  0  0  0  0
   38.0520   24.8530   34.8030 H   0  0  0  0  0  0  0  0  0  0  0  0
   37.4860   23.9900   30.6160 H   0  0  0  0  0  0  0  0  0  0  0  0
   38.4290   21.4780   29.9150 H   0  0  0  0  0  0  0  0  0  0  0  0
   39.5650   19.5250   31.1600 H   0  0  0  0  0  0  0  0  0  0  0  0
   40.6540   22.7420   35.7420 C   0  0  1  0  0  3  0  0  0  0  0  0
   39.2070   22.5570   35.4590 C   0  0  1  0  0  3  0  0  0  0  0  0
   38.6030   23.2750   36.4870 O   0  0  0  0  0  0  0  0  0  0  0  0
   39.2920   22.9690   37.6370 C   0  0  0  0  0  2  0  0  0  0  0  0
   40.6830   22.5510   37.2470 C   0  0  1  0  0  3  0  0  0  0  0  0
   41.4720   21.8290   35.0860 O   0  0  0  0  0  0  0  0  0  0  0  0
   41.8020   22.2810   34.2520 H   0  0  0  0  0  0  0  0  0  0  0  0
   40.8880   21.1780   37.4530 O   0  0  0  0  0  0  0  0  0  0  0  0
   40.6470   20.9350   38.3930 H   0  0  0  0  0  0  0  0  0  0  0  0
   36.4950   28.3160   34.8620 F   0  0  0  0  0  0  0  0  0  0  0  0
   36.2840   28.8310   33.6190 C   0  0  0  0  0  0  0  0  0  0  0  0
   35.4690   29.9260   33.4700 C   0  0  0  0  0  0  0  0  0  0  0  0
   35.3020   30.3920   32.1900 C   0  0  0  0  0  0  0  0  0  0  0  0
   35.9010   29.8220   31.0930 C   0  0  0  0  0  0  0  0  0  0  0  0
   36.7180   28.7190   31.2770 C   0  0  0  0  0  0  0  0  0  0  0  0
   36.9080   28.2240   32.5500 C   0  0  0  0  0  0  0  0  0  0  0  0
   34.6620   31.2530   32.0520 H   0  0  0  0  0  0  0  0  0  0  0  0
   35.7630   30.1960   30.0880 H   0  0  0  0  0  0  0  0  0  0  0  0
   37.2360   28.1960   30.4850 H   0  0  0  0  0  0  0  0  0  0  0  0
   32.9770   30.8310   36.1600 C   0  0  0  0  0  0  0  0  0  0  0  0
   33.5320   30.2500   34.9910 C   0  0  0  0  0  0  0  0  0  0  0  0
   34.8550   30.4970   34.6560 C   0  0  0  0  0  0  0  0  0  0  0  0
   35.5730   31.3140   35.4950 N   0  0  0  0  0  0  0  0  0  0  0  0
   35.0220   31.8520   36.5960 C   0  0  0  0  0  0  0  0  0  0  0  0
   33.7540   31.6150   36.9180 N   0  0  0  0  0  0  0  0  0  0  0  0
   31.9320   30.5460   36.2890 H   0  0  0  0  0  0  0  0  0  0  0  0
   33.0160   29.6160   34.3160 H   0  0  0  0  0  0  0  0  0  0  0  0
   35.5480   32.4940   37.2770 H   0  0  0  0  0  0  0  0  0  0  0  0
  1  6  1  0  0  0  0
  1  3  1  0  0  0  0
  2  1  2  0  0  0  0
  3  4  1  0  0  0  0
  5 13  1  0  0  0  0
  5 14  1  0  0  0  0
  6  5  2  0  0  0  0
  7  8  2  0  0  0  0
  7  6  1  0  0  0  0
  8 12  1  0  0  0  0
  9 10  1  0  0  0  0
  9  8  1  0  0  0  0
 10 11  2  0  0  0  0
 11 12  1  0  0  0  0
 12 13  2  0  0  0  0
 15  7  1  0  0  0  0
 16  9  1  0  0  0  0
 17 10  1  0  0  0  0
 18 23  1  6  0  0  0
 18 22  1  0  0  0  0
 19 13  1  6  0  0  0
 19 18  1  0  0  0  0
 19 20  1  0  0  0  0
 20 21  1  0  0  0  0
 22 25  1  6  0  0  0
 22 21  1  0  0  0  0
 24 23  1  0  0  0  0
 25 26  1  0  0  0  0
 28 27  1  0  0  0  0
 29 28  1  0  0  0  0
 29 39  1  0  0  0  0
 30 29  2  0  0  0  0
 31 32  2  0  0  0  0
 31 30  1  0  0  0  0
 32 33  1  0  0  0  0
 33  3  1  0  0  0  0
 33 28  2  0  0  0  0
 34 30  1  0  0  0  0
 35 31  1  0  0  0  0
 36 32  1  0  0  0  0
 37 43  1  0  0  0  0
 37 42  1  0  0  0  0
 38 37  2  0  0  0  0
 39 38  1  0  0  0  0
 39 40  2  0  0  0  0
 40 41  1  0  0  0  0
 41 42  2  0  0  0  0
 41 45  1  0  0  0  0
 44 38  1  0  0  0  0
M  END
>  <minimizedAffinity>
-6.63067865

$$$$

 OpenBabel03272503113D

 45 49  0  0  1  0  0  0  0  0999 V2000
   37.0270   27.6470   34.0950 C   0  0  0  0  0  0  0  0  0  0  0  0
   37.0530   26.6070   33.3600 O   0  0  0  0  0  0  0  0  0  0  0  0
   37.7990   27.5720   35.2860 N   0  0  0  0  0  0  0  0  0  0  0  0
   37.8020   28.3900   35.9040 H   0  0  0  0  0  0  0  0  0  0  0  0
   35.7300   29.5850   34.6610 C   0  0  0  0  0  0  0  0  0  0  0  0
   36.2410   28.7800   33.6680 C   0  0  0  0  0  0  0  0  0  0  0  0
   36.0290   29.0220   32.3230 C   0  0  0  0  0  0  0  0  0  0  0  0
   35.2700   30.1190   31.9560 C   0  0  0  0  0  0  0  0  0  0  0  0
   34.8980   30.6040   30.7600 N   0  0  0  0  0  0  0  0  0  0  0  0
   34.1630   31.6960   30.9800 C   0  0  0  0  0  0  0  0  0  0  0  0
   34.0740   31.8970   32.2920 N   0  0  0  0  0  0  0  0  0  0  0  0
   34.7550   30.9290   32.9510 C   0  0  0  0  0  0  0  0  0  0  0  0
   34.9580   30.7010   34.3020 C   0  0  0  0  0  0  0  0  0  0  0  0
   35.8930   29.4000   35.7220 H   0  0  0  0  0  0  0  0  0  0  0  0
   36.4440   28.3710   31.5710 H   0  0  0  0  0  0  0  0  0  0  0  0
   35.1750   30.1470   29.8610 H   0  0  0  0  0  0  0  0  0  0  0  0
   33.7420   32.2720   30.1480 H   0  0  0  0  0  0  0  0  0  0  0  0
   33.0700   31.2030   35.8660 C   0  0  1  0  0  3  0  0  0  0  0  0
   34.4090   31.5630   35.3310 C   0  0  1  0  0  3  0  0  0  0  0  0
   35.1900   31.6190   36.4810 O   0  0  0  0  0  0  0  0  0  0  0  0
   34.4460   32.2810   37.4290 C   0  0  0  0  0  2  0  0  0  0  0  0
   32.9920   32.1030   37.0850 C   0  0  1  0  0  3  0  0  0  0  0  0
   32.0300   31.4440   34.9750 O   0  0  0  0  0  0  0  0  0  0  0  0
   31.8360   30.5730   34.5130 H   0  0  0  0  0  0  0  0  0  0  0  0
   32.4160   33.3020   36.6380 O   0  0  0  0  0  0  0  0  0  0  0  0
   32.5820   34.0300   37.3040 H   0  0  0  0  0  0  0  0  0  0  0  0
   40.3400   27.2350   34.3400 F   0  0  0  0  0  0  0  0  0  0  0  0
   39.7670   26.1740   34.9730 C   0  0  0  0  0  0  0  0  0  0  0  0
   40.4740   25.0050   35.1080 C   0  0  0  0  0  0  0  0  0  0  0  0
   39.8360   23.9790   35.7570 C   0  0  0  0  0  0  0  0  0  0  0  0
   38.5600   24.0760   36.2580 C   0  0  0  0  0  0  0  0  0  0  0  0
   37.8730   25.2690   36.1060 C   0  0  0  0  0  0  0  0  0  0  0  0
   38.4850   26.3230   35.4580 C   0  0  0  0  0  0  0  0  0  0  0  0
   40.3760   23.0480   35.8730 H   0  0  0  0  0  0  0  0  0  0  0  0
   38.0660   23.2600   36.7670 H   0  0  0  0  0  0  0  0  0  0  0  0
   36.8700   25.4520   36.4610 H   0  0  0  0  0  0  0  0  0  0  0  0
   43.4030   24.4570   32.7870 C   0  0  0  0  0  0  0  0  0  0  0  0
   42.0720   24.5000   33.2740 C   0  0  0  0  0  0  0  0  0  0  0  0
   41.8190   24.9440   34.5630 C   0  0  0  0  0  0  0  0  0  0  0  0
   42.9010   25.3280   35.3180 N   0  0  0  0  0  0  0  0  0  0  0  0
   44.1520   25.2780   34.8320 C   0  0  0  0  0  0  0  0  0  0  0  0
   44.3950   24.8520   33.5960 N   0  0  0  0  0  0  0  0  0  0  0  0
   43.4400   24.0880   31.7610 H   0  0  0  0  0  0  0  0  0  0  0  0
   41.2090   24.2130   32.7290 H   0  0  0  0  0  0  0  0  0  0  0  0
   45.0230   25.5680   35.3880 H   0  0  0  0  0  0  0  0  0  0  0  0
  1  3  1  0  0  0  0
  2  1  2  0  0  0  0
  3 33  1  0  0  0  0
  3  4  1  0  0  0  0
  5 14  1  0  0  0  0
  6  1  1  0  0  0  0
  6  5  2  0  0  0  0
  7  6  1  0  0  0  0
  8  7  2  0  0  0  0
  8 12  1  0  0  0  0
  9 10  1  0  0  0  0
  9  8  1  0  0  0  0
 10 11  2  0  0  0  0
 11 12  1  0  0  0  0
 12 13  2  0  0  0  0
 13  5  1  0  0  0  0
 15  7  1  0  0  0  0
 16  9  1  0  0  0  0
 17 10  1  0  0  0  0
 18 23  1  6  0  0  0
 18 22  1  0  0  0  0
 19 13  1  6  0  0  0
 19 18  1  0  0  0  0
 19 20  1  0  0  0  0
 20 21  1  0  0  0  0
 22 25  1  6  0  0  0
 22 21  1  0  0  0  0
 24 23  1  0  0  0  0
 25 26  1  0  0  0  0
 27 28  1  0  0  0  0
 28 29  2  0  0  0  0
 28 33  1  0  0  0  0
 29 30  1  0  0  0  0
 30 34  1  0  0  0  0
 30 31  2  0  0  0  0
 31 35  1  0  0  0  0
 32 31  1  0  0  0  0
 32 36  1  0  0  0  0
 33 32  2  0  0  0  0
 37 38  2  0  0  0  0
 37 42  1  0  0  0  0
 38 39  1  0  0  0  0
 39 29  1  0  0  0  0
 39 40  2  0  0  0  0
 41 40  1  0  0  0  0
 41 45  1  0  0  0  0
 42 41  2  0  0  0  0
 43 37  1  0  0  0  0
 44 38  1  0  0  0  0
M  END
>  <minimizedAffinity>
-6.3864336

$$$$

 OpenBabel03272503113D

 45 49  0  0  1  0  0  0  0  0999 V2000
   37.1720   26.6130   31.5820 C   0  0  0  0  0  0  0  0  0  0  0  0
   36.0960   26.1400   32.0750 O   0  0  0  0  0  0  0  0  0  0  0  0
   38.3290   25.8070   31.7620 N   0  0  0  0  0  0  0  0  0  0  0  0
   39.2160   26.1550   31.3810 H   0  0  0  0  0  0  0  0  0  0  0  0
   36.5380   28.9270   31.5850 C   0  0  0  0  0  0  0  0  0  0  0  0
   37.1270   27.8860   30.9040 C   0  0  0  0  0  0  0  0  0  0  0  0
   37.6570   28.0250   29.6340 C   0  0  0  0  0  0  0  0  0  0  0  0
   37.5940   29.2620   29.0190 C   0  0  0  0  0  0  0  0  0  0  0  0
   38.0110   29.7000   27.8190 N   0  0  0  0  0  0  0  0  0  0  0  0
   37.6960   30.9940   27.7320 C   0  0  0  0  0  0  0  0  0  0  0  0
   37.0920   31.3660   28.8580 N   0  0  0  0  0  0  0  0  0  0  0  0
   37.0030   30.3100   29.7000 C   0  0  0  0  0  0  0  0  0  0  0  0
   36.4680   30.1870   30.9730 C   0  0  0  0  0  0  0  0  0  0  0  0
   36.1180   28.8240   32.5860 H   0  0  0  0  0  0  0  0  0  0  0  0
   38.1110   27.1870   29.1290 H   0  0  0  0  0  0  0  0  0  0  0  0
   38.4890   29.0740   27.1320 H   0  0  0  0  0  0  0  0  0  0  0  0
   37.9380   31.5760   26.8360 H   0  0  0  0  0  0  0  0  0  0  0  0
   34.4200   31.5680   31.3770 C   0  0  1  0  0  3  0  0  0  0  0  0
   35.8510   31.2990   31.6710 C   0  0  1  0  0  3  0  0  0  0  0  0
   35.8540   31.1540   33.0550 O   0  0  0  0  0  0  0  0  0  0  0  0
   35.0560   32.1540   33.5560 C   0  0  0  0  0  2  0  0  0  0  0  0
   34.0740   32.5440   32.4860 C   0  0  1  0  0  3  0  0  0  0  0  0
   34.2010   32.1140   30.1170 O   0  0  0  0  0  0  0  0  0  0  0  0
   33.9560   31.3540   29.5090 H   0  0  0  0  0  0  0  0  0  0  0  0
   34.3480   33.8200   31.9710 O   0  0  0  0  0  0  0  0  0  0  0  0
   34.4080   34.4830   32.7180 H   0  0  0  0  0  0  0  0  0  0  0  0
   38.8250   25.6310   34.4430 F   0  0  0  0  0  0  0  0  0  0  0  0
   38.3420   24.5170   33.8260 C   0  0  0  0  0  0  0  0  0  0  0  0
   38.1270   23.3770   34.5610 C   0  0  0  0  0  0  0  0  0  0  0  0
   37.6390   22.2940   33.8750 C   0  0  0  0  0  0  0  0  0  0  0  0
   37.3670   22.3090   32.5280 C   0  0  0  0  0  0  0  0  0  0  0  0
   37.5940   23.4750   31.8150 C   0  0  0  0  0  0  0  0  0  0  0  0
   38.0840   24.5840   32.4740 C   0  0  0  0  0  0  0  0  0  0  0  0
   37.4640   21.3850   34.4360 H   0  0  0  0  0  0  0  0  0  0  0  0
   36.9820   21.4500   31.9970 H   0  0  0  0  0  0  0  0  0  0  0  0
   37.4140   23.5950   30.7570 H   0  0  0  0  0  0  0  0  0  0  0  0
   37.9170   23.9970   38.2800 C   0  0  0  0  0  0  0  0  0  0  0  0
   37.5800   23.9970   36.9030 C   0  0  0  0  0  0  0  0  0  0  0  0
   38.4290   23.4030   35.9810 C   0  0  0  0  0  0  0  0  0  0  0  0
   39.5820   22.8340   36.4650 N   0  0  0  0  0  0  0  0  0  0  0  0
   39.8770   22.8480   37.7760 C   0  0  0  0  0  0  0  0  0  0  0  0
   39.0630   23.4170   38.6600 N   0  0  0  0  0  0  0  0  0  0  0  0
   37.1550   24.4990   38.8770 H   0  0  0  0  0  0  0  0  0  0  0  0
   36.7030   24.4240   36.4850 H   0  0  0  0  0  0  0  0  0  0  0  0
   40.7660   22.4150   38.1940 H   0  0  0  0  0  0  0  0  0  0  0  0
  1  3  1  0  0  0  0
  1  2  2  0  0  0  0
  3 33  1  0  0  0  0
  4  3  1  0  0  0  0
  5 14  1  0  0  0  0
  6  1  1  0  0  0  0
  6  5  2  0  0  0  0
  7  6  1  0  0  0  0
  8  7  2  0  0  0  0
  8 12  1  0  0  0  0
  9  8  1  0  0  0  0
 10  9  1  0  0  0  0
 10 11  2  0  0  0  0
 11 12  1  0  0  0  0
 12 13  2  0  0  0  0
 13  5  1  0  0  0  0
 15  7  1  0  0  0  0
 16  9  1  0  0  0  0
 17 10  1  0  0  0  0
 18 23  1  6  0  0  0
 18 19  1  0  0  0  0
 18 22  1  0  0  0  0
 19 13  1  6  0  0  0
 19 20  1  0  0  0  0
 20 21  1  0  0  0  0
 22 25  1  6  0  0  0
 22 21  1  0  0  0  0
 24 23  1  0  0  0  0
 25 26  1  0  0  0  0
 28 27  1  0  0  0  0
 28 29  1  0  0  0  0
 29 39  1  0  0  0  0
 30 34  1  0  0  0  0
 30 29  2  0  0  0  0
 31 30  1  0  0  0  0
 32 33  1  0  0  0  0
 32 31  2  0  0  0  0
 33 28  2  0  0  0  0
 35 31  1  0  0  0  0
 36 32  1  0  0  0  0
 37 42  1  0  0  0  0
 37 43  1  0  0  0  0
 38 37  2  0  0  0  0
 39 40  2  0  0  0  0
 39 38  1  0  0  0  0
 40 41  1  0  0  0  0
 41 45  1  0  0  0  0
 41 42  2  0  0  0  0
 44 38  1  0  0  0  0
M  END
>  <minimizedAffinity>
-6.38425684

$$$$

 OpenBabel03272503113D

 45 49  0  0  1  0  0  0  0  0999 V2000
   36.3850   28.3310   33.6120 C   0  0  0  0  0  0  0  0  0  0  0  0
   36.3620   28.0120   34.8450 O   0  0  0  0  0  0  0  0  0  0  0  0
   35.7560   29.5650   33.2900 N   0  0  0  0  0  0  0  0  0  0  0  0
   35.7530   29.8560   32.3070 H   0  0  0  0  0  0  0  0  0  0  0  0
   37.7380   28.0300   31.6540 C   0  0  0  0  0  0  0  0  0  0  0  0
   37.0270   27.4420   32.6750 C   0  0  0  0  0  0  0  0  0  0  0  0
   36.9190   26.0700   32.8210 C   0  0  0  0  0  0  0  0  0  0  0  0
   37.5500   25.2520   31.9020 C   0  0  0  0  0  0  0  0  0  0  0  0
   37.6270   23.9160   31.7790 N   0  0  0  0  0  0  0  0  0  0  0  0
   38.3700   23.6530   30.7030 C   0  0  0  0  0  0  0  0  0  0  0  0
   38.7560   24.8030   30.1550 N   0  0  0  0  0  0  0  0  0  0  0  0
   38.2650   25.8400   30.8740 C   0  0  0  0  0  0  0  0  0  0  0  0
   38.3830   27.2110   30.7140 C   0  0  0  0  0  0  0  0  0  0  0  0
   37.8270   29.1090   31.5340 H   0  0  0  0  0  0  0  0  0  0  0  0
   36.3540   25.6420   33.6330 H   0  0  0  0  0  0  0  0  0  0  0  0
   37.1580   23.2660   32.4510 H   0  0  0  0  0  0  0  0  0  0  0  0
   38.5770   22.6210   30.3960 H   0  0  0  0  0  0  0  0  0  0  0  0
   38.4890   28.9230   28.8920 C   0  0  1  0  0  3  0  0  0  0  0  0
   39.1380   27.8080   29.6290 C   0  0  1  0  0  3  0  0  0  0  0  0
   40.3410   28.3760   30.0380 O   0  0  0  0  0  0  0  0  0  0  0  0
   40.8270   29.0830   28.9640 C   0  0  0  0  0  2  0  0  0  0  0  0
   39.6600   29.4670   28.0960 C   0  0  1  0  0  3  0  0  0  0  0  0
   37.4450   28.5150   28.0690 O   0  0  0  0  0  0  0  0  0  0  0  0
   36.5950   28.6540   28.5860 H   0  0  0  0  0  0  0  0  0  0  0  0
   39.6610   28.7570   26.8850 O   0  0  0  0  0  0  0  0  0  0  0  0
   40.5460   28.8580   26.4310 H   0  0  0  0  0  0  0  0  0  0  0  0
   33.1670   29.1290   34.0460 F   0  0  0  0  0  0  0  0  0  0  0  0
   33.8910   30.0140   34.7870 C   0  0  0  0  0  0  0  0  0  0  0  0
   33.3020   30.6370   35.8600 C   0  0  0  0  0  0  0  0  0  0  0  0
   34.0890   31.5150   36.5610 C   0  0  0  0  0  0  0  0  0  0  0  0
   35.3970   31.7840   36.2390 C   0  0  0  0  0  0  0  0  0  0  0  0
   35.9620   31.1390   35.1510 C   0  0  0  0  0  0  0  0  0  0  0  0
   35.1990   30.2490   34.4230 C   0  0  0  0  0  0  0  0  0  0  0  0
   33.6430   32.0170   37.4100 H   0  0  0  0  0  0  0  0  0  0  0  0
   36.0090   32.4780   36.7980 H   0  0  0  0  0  0  0  0  0  0  0  0
   36.9780   31.2770   34.8120 H   0  0  0  0  0  0  0  0  0  0  0  0
   30.1890   28.9130   37.1250 C   0  0  0  0  0  0  0  0  0  0  0  0
   31.5550   29.1740   36.8500 C   0  0  0  0  0  0  0  0  0  0  0  0
   31.9170   30.3250   36.1660 C   0  0  0  0  0  0  0  0  0  0  0  0
   30.9050   31.1710   35.7810 N   0  0  0  0  0  0  0  0  0  0  0  0
   29.6180   30.8990   36.0550 C   0  0  0  0  0  0  0  0  0  0  0  0
   29.2710   29.7960   36.7100 N   0  0  0  0  0  0  0  0  0  0  0  0
   30.0630   27.9750   37.6670 H   0  0  0  0  0  0  0  0  0  0  0  0
   32.3670   28.5510   37.1260 H   0  0  0  0  0  0  0  0  0  0  0  0
   28.7990   31.5320   35.7720 H   0  0  0  0  0  0  0  0  0  0  0  0
  1  2  2  0  0  0  0
  3  1  1  0  0  0  0
  3 33  1  0  0  0  0
  4  3  1  0  0  0  0
  5  6  1  0  0  0  0
  6  7  2  0  0  0  0
  6  1  1  0  0  0  0
  7 15  1  0  0  0  0
  8  7  1  0  0  0  0
  9  8  1  0  0  0  0
  9 16  1  0  0  0  0
 10  9  1  0  0  0  0
 11 10  2  0  0  0  0
 11 12  1  0  0  0  0
 12  8  2  0  0  0  0
 13 12  1  0  0  0  0
 13  5  2  0  0  0  0
 14  5  1  0  0  0  0
 17 10  1  0  0  0  0
 18 23  1  6  0  0  0
 18 19  1  0  0  0  0
 19 20  1  0  0  0  0
 19 13  1  1  0  0  0
 21 20  1  0  0  0  0
 22 25  1  6  0  0  0
 22 18  1  0  0  0  0
 22 21  1  0  0  0  0
 23 24  1  0  0  0  0
 26 25  1  0  0  0  0
 27 28  1  0  0  0  0
 28 29  1  0  0  0  0
 29 39  1  0  0  0  0
 29 30  2  0  0  0  0
 30 34  1  0  0  0  0
 31 30  1  0  0  0  0
 31 35  1  0  0  0  0
 32 31  2  0  0  0  0
 33 28  2  0  0  0  0
 33 32  1  0  0  0  0
 36 32  1  0  0  0  0
 37 43  1  0  0  0  0
 38 37  1  0  0  0  0
 38 44  1  0  0  0  0
 39 38  2  0  0  0  0
 40 41  2  0  0  0  0
 40 39  1  0  0  0  0
 41 42  1  0  0  0  0
 42 37  2  0  0  0  0
 45 41  1  0  0  0  0
M  END
>  <minimizedAffinity>
-6.37097263

$$$$

 OpenBabel03272503113D

 45 49  0  0  1  0  0  0  0  0999 V2000
   37.2540   25.7760   32.5010 C   0  0  0  0  0  0  0  0  0  0  0  0
   36.0340   25.7850   32.1330 O   0  0  0  0  0  0  0  0  0  0  0  0
   37.8340   27.0550   32.7180 N   0  0  0  0  0  0  0  0  0  0  0  0
   38.8150   27.0900   33.0150 H   0  0  0  0  0  0  0  0  0  0  0  0
   37.1570   23.3780   32.4790 C   0  0  0  0  0  0  0  0  0  0  0  0
   37.9230   24.5070   32.6630 C   0  0  0  0  0  0  0  0  0  0  0  0
   39.2670   24.4580   32.9860 C   0  0  0  0  0  0  0  0  0  0  0  0
   39.8710   23.2220   33.1320 C   0  0  0  0  0  0  0  0  0  0  0  0
   41.1280   22.8580   33.4340 N   0  0  0  0  0  0  0  0  0  0  0  0
   41.1690   21.5240   33.4450 C   0  0  0  0  0  0  0  0  0  0  0  0
   39.9580   21.0550   33.1530 N   0  0  0  0  0  0  0  0  0  0  0  0
   39.1050   22.0860   32.9480 C   0  0  0  0  0  0  0  0  0  0  0  0
   37.7580   22.1180   32.6240 C   0  0  0  0  0  0  0  0  0  0  0  0
   36.0980   23.4100   32.2250 H   0  0  0  0  0  0  0  0  0  0  0  0
   39.8370   25.3630   33.1230 H   0  0  0  0  0  0  0  0  0  0  0  0
   41.8840   23.5570   33.6160 H   0  0  0  0  0  0  0  0  0  0  0  0
   42.0980   20.9880   33.6680 H   0  0  0  0  0  0  0  0  0  0  0  0
   35.6070   20.9030   33.0250 C   0  0  1  0  0  3  0  0  0  0  0  0
   36.9710   20.9140   32.4360 C   0  0  1  0  0  3  0  0  0  0  0  0
   36.7260   20.6180   31.0980 O   0  0  0  0  0  0  0  0  0  0  0  0
   35.8020   19.6000   31.0850 C   0  0  0  0  0  2  0  0  0  0  0  0
   35.0160   19.6700   32.3660 C   0  0  1  0  0  3  0  0  0  0  0  0
   35.5990   20.8050   34.4120 O   0  0  0  0  0  0  0  0  0  0  0  0
   35.5070   21.7390   34.7680 H   0  0  0  0  0  0  0  0  0  0  0  0
   35.3200   18.5990   33.2190 O   0  0  0  0  0  0  0  0  0  0  0  0
   35.2100   17.7320   32.7310 H   0  0  0  0  0  0  0  0  0  0  0  0
   36.4900   28.2230   34.7910 F   0  0  0  0  0  0  0  0  0  0  0  0
   36.2680   28.7250   33.5440 C   0  0  0  0  0  0  0  0  0  0  0  0
   35.3970   29.7750   33.3840 C   0  0  0  0  0  0  0  0  0  0  0  0
   35.2220   30.2300   32.1010 C   0  0  0  0  0  0  0  0  0  0  0  0
   35.8630   29.6920   31.0120 C   0  0  0  0  0  0  0  0  0  0  0  0
   36.7350   28.6330   31.2070 C   0  0  0  0  0  0  0  0  0  0  0  0
   36.9360   28.1510   32.4840 C   0  0  0  0  0  0  0  0  0  0  0  0
   34.5390   31.0560   31.9540 H   0  0  0  0  0  0  0  0  0  0  0  0
   35.7170   30.0570   30.0050 H   0  0  0  0  0  0  0  0  0  0  0  0
   37.2890   28.1380   30.4230 H   0  0  0  0  0  0  0  0  0  0  0  0
   32.8520   30.4990   36.0780 C   0  0  0  0  0  0  0  0  0  0  0  0
   33.4520   29.9440   34.9190 C   0  0  0  0  0  0  0  0  0  0  0  0
   34.7400   30.3140   34.5610 C   0  0  0  0  0  0  0  0  0  0  0  0
   35.3800   31.2220   35.3700 N   0  0  0  0  0  0  0  0  0  0  0  0
   34.7880   31.7320   36.4620 C   0  0  0  0  0  0  0  0  0  0  0  0
   33.5530   31.3780   36.8060 N   0  0  0  0  0  0  0  0  0  0  0  0
   31.8430   30.1130   36.2280 H   0  0  0  0  0  0  0  0  0  0  0  0
   32.9970   29.2430   34.2670 H   0  0  0  0  0  0  0  0  0  0  0  0
   35.2530   32.4420   37.1190 H   0  0  0  0  0  0  0  0  0  0  0  0
  1  6  1  0  0  0  0
  1  3  1  0  0  0  0
  2  1  2  0  0  0  0
  3  4  1  0  0  0  0
  5 13  2  0  0  0  0
  5  6  1  0  0  0  0
  6  7  2  0  0  0  0
  7 15  1  0  0  0  0
  7  8  1  0  0  0  0
  8  9  1  0  0  0  0
  9 10  1  0  0  0  0
  9 16  1  0  0  0  0
 10 17  1  0  0  0  0
 11 10  2  0  0  0  0
 12  8  2  0  0  0  0
 12 11  1  0  0  0  0
 13 12  1  0  0  0  0
 14  5  1  0  0  0  0
 18 23  1  1  0  0  0
 19 13  1  6  0  0  0
 19 18  1  0  0  0  0
 20 19  1  0  0  0  0
 21 20  1  0  0  0  0
 21 22  1  0  0  0  0
 22 18  1  0  0  0  0
 22 25  1  1  0  0  0
 23 24  1  0  0  0  0
 26 25  1  0  0  0  0
 28 27  1  0  0  0  0
 29 28  1  0  0  0  0
 29 39  1  0  0  0  0
 30 29  2  0  0  0  0
 31 32  2  0  0  0  0
 31 30  1  0  0  0  0
 32 33  1  0  0  0  0
 33  3  1  0  0  0  0
 33 28  2  0  0  0  0
 34 30  1  0  0  0  0
 35 31  1  0  0  0  0
 36 32  1  0  0  0  0
 37 43  1  0  0  0  0
 37 42  1  0  0  0  0
 38 37  2  0  0  0  0
 39 38  1  0  0  0  0
 39 40  2  0  0  0  0
 40 41  1  0  0  0  0
 41 42  2  0  0  0  0
 41 45  1  0  0  0  0
 44 38  1  0  0  0  0
M  END
>  <minimizedAffinity>
-6.36506367

$$$$
