
 OpenBabel03272506413D

 19 20  0  0  1  0  0  0  0  0999 V2000
   38.5620   25.5010   36.0090 S   0  0  0  0  0  0  0  0  0  0  0  0
   36.9780   25.3670   32.3770 C   0  0  0  0  0  0  0  0  0  0  0  0
   36.4750   26.6500   32.1500 C   0  0  0  0  0  0  0  0  0  0  0  0
   36.6330   27.6010   33.1660 C   0  0  0  0  0  0  0  0  0  0  0  0
   37.2620   27.2260   34.3120 N   0  0  0  0  0  0  0  0  0  0  0  0
   37.7360   25.9730   34.4950 C   0  0  0  0  0  0  0  0  0  0  0  0
   37.5990   25.0360   33.5350 N   0  0  0  0  0  0  0  0  0  0  0  0
   36.8430   24.6450   31.5710 H   0  0  0  0  0  0  0  0  0  0  0  0
   35.9760   26.9330   31.2320 H   0  0  0  0  0  0  0  0  0  0  0  0
   36.2560   28.6030   33.0230 H   0  0  0  0  0  0  0  0  0  0  0  0
   38.6510   22.8480   36.4190 C   0  0  2  0  0  3  0  0  0  0  0  0
   37.7300   24.0220   36.6970 C   0  0  1  0  0  3  0  0  0  0  0  0
   37.6520   24.1830   38.0550 O   0  0  0  0  0  0  0  0  0  0  0  0
   38.5860   23.3700   38.6660 C   0  0  0  0  0  2  0  0  0  0  0  0
   39.6050   23.0060   37.5860 C   0  0  1  0  0  3  0  0  0  0  0  0
   39.2990   22.9940   35.1950 O   0  0  0  0  0  0  0  0  0  0  0  0
   39.8110   23.8440   35.2050 H   0  0  0  0  0  0  0  0  0  0  0  0
   40.2510   21.8260   37.9160 O   0  0  0  0  0  0  0  0  0  0  0  0
   40.7240   21.5030   37.1260 H   0  0  0  0  0  0  0  0  0  0  0  0
  2  7  1  0  0  0  0
  3  2  2  0  0  0  0
  3  4  1  0  0  0  0
  4  5  2  0  0  0  0
  5  6  1  0  0  0  0
  6  1  1  0  0  0  0
  7  6  2  0  0  0  0
  8  2  1  0  0  0  0
  9  3  1  0  0  0  0
 10  4  1  0  0  0  0
 11 16  1  6  0  0  0
 11 12  1  0  0  0  0
 11 15  1  0  0  0  0
 12  1  1  6  0  0  0
 12 13  1  0  0  0  0
 13 14  1  0  0  0  0
 15 18  1  1  0  0  0
 15 14  1  0  0  0  0
 16 17  1  0  0  0  0
 19 18  1  0  0  0  0
M  END
>  <minimizedAffinity>
-4.27382374

$$$$

 OpenBabel03272506413D

 19 20  0  0  1  0  0  0  0  0999 V2000
   38.6860   22.5470   33.9150 S   0  0  0  0  0  0  0  0  0  0  0  0
   35.7370   23.2020   31.3480 C   0  0  0  0  0  0  0  0  0  0  0  0
   35.6320   24.5930   31.2580 C   0  0  0  0  0  0  0  0  0  0  0  0
   36.5140   25.3630   32.0270 C   0  0  0  0  0  0  0  0  0  0  0  0
   37.4170   24.7210   32.8140 N   0  0  0  0  0  0  0  0  0  0  0  0
   37.4880   23.3720   32.8740 C   0  0  0  0  0  0  0  0  0  0  0  0
   36.6530   22.6030   32.1450 N   0  0  0  0  0  0  0  0  0  0  0  0
   35.0400   22.6250   30.7400 H   0  0  0  0  0  0  0  0  0  0  0  0
   34.9060   25.0890   30.6260 H   0  0  0  0  0  0  0  0  0  0  0  0
   36.4600   26.4410   31.9810 H   0  0  0  0  0  0  0  0  0  0  0  0
   38.8930   22.7920   36.5820 C   0  0  2  0  0  3  0  0  0  0  0  0
   39.0810   23.6350   35.3340 C   0  0  1  0  0  3  0  0  0  0  0  0
   40.4070   23.9660   35.2460 O   0  0  0  0  0  0  0  0  0  0  0  0
   41.1190   23.2540   36.1900 C   0  0  0  0  0  2  0  0  0  0  0  0
   40.2300   22.0790   36.5980 C   0  0  1  0  0  3  0  0  0  0  0  0
   37.8310   21.9030   36.4340 O   0  0  0  0  0  0  0  0  0  0  0  0
   38.0070   21.3250   35.6460 H   0  0  0  0  0  0  0  0  0  0  0  0
   40.5830   21.6260   37.8580 O   0  0  0  0  0  0  0  0  0  0  0  0
   39.8750   21.0380   38.1820 H   0  0  0  0  0  0  0  0  0  0  0  0
  2  7  1  0  0  0  0
  3  2  2  0  0  0  0
  3  4  1  0  0  0  0
  4  5  2  0  0  0  0
  5  6  1  0  0  0  0
  6  1  1  0  0  0  0
  7  6  2  0  0  0  0
  8  2  1  0  0  0  0
  9  3  1  0  0  0  0
 10  4  1  0  0  0  0
 11 16  1  6  0  0  0
 11 15  1  0  0  0  0
 12  1  1  6  0  0  0
 12 11  1  0  0  0  0
 13 12  1  0  0  0  0
 13 14  1  0  0  0  0
 14 15  1  0  0  0  0
 15 18  1  1  0  0  0
 17 16  1  0  0  0  0
 18 19  1  0  0  0  0
M  END
>  <minimizedAffinity>
-4.27206516

$$$$

 OpenBabel03272506413D

 19 20  0  0  1  0  0  0  0  0999 V2000
   40.1780   24.4230   35.1010 S   0  0  0  0  0  0  0  0  0  0  0  0
   37.8360   27.5900   35.5500 C   0  0  0  0  0  0  0  0  0  0  0  0
   37.0820   27.6560   34.3760 C   0  0  0  0  0  0  0  0  0  0  0  0
   37.3080   26.6780   33.4000 C   0  0  0  0  0  0  0  0  0  0  0  0
   38.2430   25.7220   33.6460 N   0  0  0  0  0  0  0  0  0  0  0  0
   38.9540   25.6900   34.7960 C   0  0  0  0  0  0  0  0  0  0  0  0
   38.7580   26.6190   35.7550 N   0  0  0  0  0  0  0  0  0  0  0  0
   37.6410   28.3630   36.2940 H   0  0  0  0  0  0  0  0  0  0  0  0
   36.3410   28.4250   34.1950 H   0  0  0  0  0  0  0  0  0  0  0  0
   36.7430   26.7000   32.4810 H   0  0  0  0  0  0  0  0  0  0  0  0
   39.8400   22.4010   36.8370 C   0  0  2  0  0  3  0  0  0  0  0  0
   39.3170   22.8540   35.4860 C   0  0  1  0  0  3  0  0  0  0  0  0
   37.9830   23.1350   35.6250 O   0  0  0  0  0  0  0  0  0  0  0  0
   37.6470   23.1080   36.9630 C   0  0  0  0  0  2  0  0  0  0  0  0
   38.9600   23.2470   37.7350 C   0  0  1  0  0  3  0  0  0  0  0  0
   41.1890   22.7150   36.9860 O   0  0  0  0  0  0  0  0  0  0  0  0
   41.3010   23.6950   36.8790 H   0  0  0  0  0  0  0  0  0  0  0  0
   38.8250   22.7190   39.0080 O   0  0  0  0  0  0  0  0  0  0  0  0
   39.7150   22.6180   39.3940 H   0  0  0  0  0  0  0  0  0  0  0  0
  2  7  1  0  0  0  0
  2  8  1  0  0  0  0
  3  2  2  0  0  0  0
  4  5  2  0  0  0  0
  4  3  1  0  0  0  0
  5  6  1  0  0  0  0
  6  1  1  0  0  0  0
  6  7  2  0  0  0  0
  9  3  1  0  0  0  0
 10  4  1  0  0  0  0
 11 16  1  6  0  0  0
 11 15  1  0  0  0  0
 12  1  1  1  0  0  0
 12 13  1  0  0  0  0
 12 11  1  0  0  0  0
 13 14  1  0  0  0  0
 14 15  1  0  0  0  0
 15 18  1  1  0  0  0
 17 16  1  0  0  0  0
 18 19  1  0  0  0  0
M  END
>  <minimizedAffinity>
-4.22341871

$$$$

 OpenBabel03272506413D

 19 20  0  0  1  0  0  0  0  0999 V2000
   38.2090   24.3150   34.3390 S   0  0  0  0  0  0  0  0  0  0  0  0
   37.8320   23.9580   38.2700 C   0  0  0  0  0  0  0  0  0  0  0  0
   38.9620   23.2470   38.6820 C   0  0  0  0  0  0  0  0  0  0  0  0
   39.8830   22.8600   37.7000 C   0  0  0  0  0  0  0  0  0  0  0  0
   39.6290   23.1940   36.4070 N   0  0  0  0  0  0  0  0  0  0  0  0
   38.5230   23.8840   36.0460 C   0  0  0  0  0  0  0  0  0  0  0  0
   37.6180   24.2700   36.9690 N   0  0  0  0  0  0  0  0  0  0  0  0
   37.1310   24.2480   39.0530 H   0  0  0  0  0  0  0  0  0  0  0  0
   39.1490   22.9880   39.7170 H   0  0  0  0  0  0  0  0  0  0  0  0
   40.7670   22.3100   37.9850 H   0  0  0  0  0  0  0  0  0  0  0  0
   37.8340   26.8250   33.4590 C   0  0  2  0  0  3  0  0  0  0  0  0
   38.9520   25.9530   34.0000 C   0  0  1  0  0  3  0  0  0  0  0  0
   39.3550   26.4820   35.1980 O   0  0  0  0  0  0  0  0  0  0  0  0
   38.4760   27.4760   35.5770 C   0  0  0  0  0  2  0  0  0  0  0  0
   37.1980   27.2460   34.7680 C   0  0  1  0  0  3  0  0  0  0  0  0
   36.9560   26.0850   32.6700 O   0  0  0  0  0  0  0  0  0  0  0  0
   36.5870   25.3420   33.2150 H   0  0  0  0  0  0  0  0  0  0  0  0
   36.4810   28.4260   34.6620 O   0  0  0  0  0  0  0  0  0  0  0  0
   35.8010   28.3110   33.9710 H   0  0  0  0  0  0  0  0  0  0  0  0
  1  6  1  0  0  0  0
  2  3  1  0  0  0  0
  2  8  1  0  0  0  0
  3  9  1  0  0  0  0
  4 10  1  0  0  0  0
  4  3  2  0  0  0  0
  5  4  1  0  0  0  0
  6  5  2  0  0  0  0
  6  7  1  0  0  0  0
  7  2  2  0  0  0  0
 11 16  1  6  0  0  0
 11 12  1  0  0  0  0
 11 15  1  0  0  0  0
 12  1  1  1  0  0  0
 12 13  1  0  0  0  0
 13 14  1  0  0  0  0
 15 18  1  6  0  0  0
 15 14  1  0  0  0  0
 16 17  1  0  0  0  0
 19 18  1  0  0  0  0
M  END
>  <minimizedAffinity>
-4.06788063

$$$$

 OpenBabel03272506413D

 19 20  0  0  1  0  0  0  0  0999 V2000
   40.0360   23.9500   35.4710 S   0  0  0  0  0  0  0  0  0  0  0  0
   39.8200   27.0350   32.9890 C   0  0  0  0  0  0  0  0  0  0  0  0
   41.1130   27.5620   32.9480 C   0  0  0  0  0  0  0  0  0  0  0  0
   42.0970   26.9350   33.7220 C   0  0  0  0  0  0  0  0  0  0  0  0
   41.7430   25.8550   34.4680 N   0  0  0  0  0  0  0  0  0  0  0  0
   40.4800   25.3740   34.4830 C   0  0  0  0  0  0  0  0  0  0  0  0
   39.5100   25.9560   33.7470 N   0  0  0  0  0  0  0  0  0  0  0  0
   39.0720   27.5400   32.3780 H   0  0  0  0  0  0  0  0  0  0  0  0
   41.3780   28.4240   32.3480 H   0  0  0  0  0  0  0  0  0  0  0  0
   43.1070   27.3170   33.7130 H   0  0  0  0  0  0  0  0  0  0  0  0
   37.9380   22.8290   36.7180 C   0  0  2  0  0  3  0  0  0  0  0  0
   38.2780   24.0990   35.9610 C   0  0  1  0  0  3  0  0  0  0  0  0
   38.1780   25.1490   36.8350 O   0  0  0  0  0  0  0  0  0  0  0  0
   38.0130   24.6630   38.1160 C   0  0  0  0  0  2  0  0  0  0  0  0
   38.4790   23.2070   38.0820 C   0  0  1  0  0  3  0  0  0  0  0  0
   38.6040   21.7290   36.1820 O   0  0  0  0  0  0  0  0  0  0  0  0
   39.5810   21.9030   36.2120 H   0  0  0  0  0  0  0  0  0  0  0  0
   37.8880   22.4920   39.1120 O   0  0  0  0  0  0  0  0  0  0  0  0
   38.0210   21.5410   38.9400 H   0  0  0  0  0  0  0  0  0  0  0  0
  2  7  1  0  0  0  0
  3  2  2  0  0  0  0
  3  4  1  0  0  0  0
  4  5  2  0  0  0  0
  5  6  1  0  0  0  0
  6  1  1  0  0  0  0
  7  6  2  0  0  0  0
  8  2  1  0  0  0  0
  9  3  1  0  0  0  0
 10  4  1  0  0  0  0
 11 16  1  6  0  0  0
 11 15  1  0  0  0  0
 12  1  1  1  0  0  0
 12 11  1  0  0  0  0
 12 13  1  0  0  0  0
 13 14  1  0  0  0  0
 15 14  1  0  0  0  0
 15 18  1  1  0  0  0
 16 17  1  0  0  0  0
 19 18  1  0  0  0  0
M  END
>  <minimizedAffinity>
-3.99829221

$$$$

 OpenBabel03272506413D

 19 20  0  0  1  0  0  0  0  0999 V2000
   38.3400   23.7180   34.5090 S   0  0  0  0  0  0  0  0  0  0  0  0
   37.0850   27.4360   33.9450 C   0  0  0  0  0  0  0  0  0  0  0  0
   36.5270   27.4430   32.6640 C   0  0  0  0  0  0  0  0  0  0  0  0
   36.5390   26.2430   31.9410 C   0  0  0  0  0  0  0  0  0  0  0  0
   37.0900   25.1440   32.5210 N   0  0  0  0  0  0  0  0  0  0  0  0
   37.6220   25.1760   33.7640 C   0  0  0  0  0  0  0  0  0  0  0  0
   37.6240   26.3170   34.4840 N   0  0  0  0  0  0  0  0  0  0  0  0
   37.0640   28.3820   34.4870 H   0  0  0  0  0  0  0  0  0  0  0  0
   36.0930   28.3280   32.2160 H   0  0  0  0  0  0  0  0  0  0  0  0
   36.1160   26.2140   30.9490 H   0  0  0  0  0  0  0  0  0  0  0  0
   39.2020   23.1220   36.9830 C   0  0  2  0  0  3  0  0  0  0  0  0
   39.3430   24.2280   35.9530 C   0  0  1  0  0  3  0  0  0  0  0  0
   40.6540   24.2680   35.5560 O   0  0  0  0  0  0  0  0  0  0  0  0
   41.3190   23.1720   36.0670 C   0  0  0  0  0  2  0  0  0  0  0  0
   40.2400   22.1570   36.4470 C   0  0  1  0  0  3  0  0  0  0  0  0
   37.9210   22.5730   36.9600 O   0  0  0  0  0  0  0  0  0  0  0  0
   37.7400   22.2270   36.0480 H   0  0  0  0  0  0  0  0  0  0  0  0
   40.7180   21.2900   37.4150 O   0  0  0  0  0  0  0  0  0  0  0  0
   39.9610   20.8050   37.7940 H   0  0  0  0  0  0  0  0  0  0  0  0
  2  7  1  0  0  0  0
  2  8  1  0  0  0  0
  3  2  2  0  0  0  0
  4  5  2  0  0  0  0
  4  3  1  0  0  0  0
  5  6  1  0  0  0  0
  6  7  2  0  0  0  0
  6  1  1  0  0  0  0
  9  3  1  0  0  0  0
 10  4  1  0  0  0  0
 11 16  1  6  0  0  0
 12  1  1  6  0  0  0
 12 11  1  0  0  0  0
 13 12  1  0  0  0  0
 13 14  1  0  0  0  0
 14 15  1  0  0  0  0
 15 11  1  0  0  0  0
 15 18  1  1  0  0  0
 17 16  1  0  0  0  0
 18 19  1  0  0  0  0
M  END
>  <minimizedAffinity>
-3.9322505

$$$$

 OpenBabel03272506413D

 19 20  0  0  1  0  0  0  0  0999 V2000
   39.2470   24.3740   33.8730 S   0  0  0  0  0  0  0  0  0  0  0  0
   39.8290   22.8250   37.4750 C   0  0  0  0  0  0  0  0  0  0  0  0
   38.8000   23.3420   38.2660 C   0  0  0  0  0  0  0  0  0  0  0  0
   37.8840   24.2090   37.6580 C   0  0  0  0  0  0  0  0  0  0  0  0
   38.0450   24.5000   36.3400 N   0  0  0  0  0  0  0  0  0  0  0  0
   39.0550   23.9800   35.6060 C   0  0  0  0  0  0  0  0  0  0  0  0
   39.9520   23.1410   36.1640 N   0  0  0  0  0  0  0  0  0  0  0  0
   40.5290   22.1520   37.9720 H   0  0  0  0  0  0  0  0  0  0  0  0
   38.6870   23.1000   39.3160 H   0  0  0  0  0  0  0  0  0  0  0  0
   37.0760   24.6260   38.2410 H   0  0  0  0  0  0  0  0  0  0  0  0
   36.9840   25.0920   32.6170 C   0  0  2  0  0  3  0  0  0  0  0  0
   37.7470   23.8300   32.9760 C   0  0  1  0  0  3  0  0  0  0  0  0
   38.1530   23.2380   31.8090 O   0  0  0  0  0  0  0  0  0  0  0  0
   37.9090   24.0930   30.7540 C   0  0  0  0  0  2  0  0  0  0  0  0
   37.7400   25.4860   31.3640 C   0  0  1  0  0  3  0  0  0  0  0  0
   37.1010   26.0530   33.6180 O   0  0  0  0  0  0  0  0  0  0  0  0
   38.0630   26.2540   33.7550 H   0  0  0  0  0  0  0  0  0  0  0  0
   36.9970   26.2920   30.5180 O   0  0  0  0  0  0  0  0  0  0  0  0
   36.7190   27.0840   31.0150 H   0  0  0  0  0  0  0  0  0  0  0  0
  1  6  1  0  0  0  0
  2  8  1  0  0  0  0
  2  3  1  0  0  0  0
  3  9  1  0  0  0  0
  4 10  1  0  0  0  0
  4  3  2  0  0  0  0
  5  4  1  0  0  0  0
  6  7  1  0  0  0  0
  6  5  2  0  0  0  0
  7  2  2  0  0  0  0
 11 12  1  0  0  0  0
 11 16  1  1  0  0  0
 12  1  1  1  0  0  0
 13 12  1  0  0  0  0
 14 15  1  0  0  0  0
 14 13  1  0  0  0  0
 15 18  1  6  0  0  0
 15 11  1  0  0  0  0
 16 17  1  0  0  0  0
 18 19  1  0  0  0  0
M  END
>  <minimizedAffinity>
-3.77446246

$$$$

 OpenBabel03272506413D

 19 20  0  0  1  0  0  0  0  0999 V2000
   39.3780   25.3710   32.6710 S   0  0  0  0  0  0  0  0  0  0  0  0
   36.9650   22.5090   31.3640 C   0  0  0  0  0  0  0  0  0  0  0  0
   35.7250   23.1280   31.1900 C   0  0  0  0  0  0  0  0  0  0  0  0
   35.6300   24.4930   31.4890 C   0  0  0  0  0  0  0  0  0  0  0  0
   36.7420   25.1380   31.9320 N   0  0  0  0  0  0  0  0  0  0  0  0
   37.9260   24.5040   32.0890 C   0  0  0  0  0  0  0  0  0  0  0  0
   38.0480   23.1900   31.8080 N   0  0  0  0  0  0  0  0  0  0  0  0
   37.0130   21.4470   31.1240 H   0  0  0  0  0  0  0  0  0  0  0  0
   34.8480   22.6000   30.8360 H   0  0  0  0  0  0  0  0  0  0  0  0
   34.6860   25.0020   31.3650 H   0  0  0  0  0  0  0  0  0  0  0  0
   40.0110   26.2970   35.1120 C   0  0  2  0  0  3  0  0  0  0  0  0
   39.6170   24.9910   34.4460 C   0  0  1  0  0  3  0  0  0  0  0  0
   38.4050   24.6090   34.9570 O   0  0  0  0  0  0  0  0  0  0  0  0
   37.8870   25.6340   35.7220 C   0  0  0  0  0  2  0  0  0  0  0  0
   38.6340   26.9000   35.3000 C   0  0  1  0  0  3  0  0  0  0  0  0
   40.8070   27.0710   34.2700 O   0  0  0  0  0  0  0  0  0  0  0  0
   40.3070   27.2440   33.4300 H   0  0  0  0  0  0  0  0  0  0  0  0
   38.5930   27.8410   36.3150 O   0  0  0  0  0  0  0  0  0  0  0  0
   39.2480   28.5360   36.1160 H   0  0  0  0  0  0  0  0  0  0  0  0
  2  7  1  0  0  0  0
  3  2  2  0  0  0  0
  3  4  1  0  0  0  0
  4  5  2  0  0  0  0
  5  6  1  0  0  0  0
  6  1  1  0  0  0  0
  7  6  2  0  0  0  0
  8  2  1  0  0  0  0
  9  3  1  0  0  0  0
 10  4  1  0  0  0  0
 11 16  1  6  0  0  0
 11 15  1  0  0  0  0
 12  1  1  6  0  0  0
 12 13  1  0  0  0  0
 12 11  1  0  0  0  0
 13 14  1  0  0  0  0
 15 14  1  0  0  0  0
 15 18  1  1  0  0  0
 17 16  1  0  0  0  0
 19 18  1  0  0  0  0
M  END
>  <minimizedAffinity>
-3.75762296

$$$$

 OpenBabel03272506413D

 19 20  0  0  1  0  0  0  0  0999 V2000
   39.2620   23.8820   33.8580 S   0  0  0  0  0  0  0  0  0  0  0  0
   37.7570   24.1270   37.5170 C   0  0  0  0  0  0  0  0  0  0  0  0
   38.6510   23.4220   38.3280 C   0  0  0  0  0  0  0  0  0  0  0  0
   39.7700   22.8450   37.7150 C   0  0  0  0  0  0  0  0  0  0  0  0
   39.9260   23.0000   36.3740 N   0  0  0  0  0  0  0  0  0  0  0  0
   39.0380   23.6890   35.6210 C   0  0  0  0  0  0  0  0  0  0  0  0
   37.9500   24.2560   36.1830 N   0  0  0  0  0  0  0  0  0  0  0  0
   36.8940   24.5670   38.0180 H   0  0  0  0  0  0  0  0  0  0  0  0
   38.5120   23.3080   39.3960 H   0  0  0  0  0  0  0  0  0  0  0  0
   40.4810   22.2940   38.3130 H   0  0  0  0  0  0  0  0  0  0  0  0
   37.1060   24.8920   32.6130 C   0  0  2  0  0  3  0  0  0  0  0  0
   37.6690   23.5430   33.0220 C   0  0  1  0  0  3  0  0  0  0  0  0
   37.9410   22.8380   31.8790 O   0  0  0  0  0  0  0  0  0  0  0  0
   37.8070   23.6690   30.7860 C   0  0  0  0  0  2  0  0  0  0  0  0
   37.8790   25.0980   31.3260 C   0  0  1  0  0  3  0  0  0  0  0  0
   37.4040   25.8700   33.5600 O   0  0  0  0  0  0  0  0  0  0  0  0
   38.3900   25.9200   33.6670 H   0  0  0  0  0  0  0  0  0  0  0  0
   37.2500   25.9720   30.4550 O   0  0  0  0  0  0  0  0  0  0  0  0
   37.1160   26.8210   30.9160 H   0  0  0  0  0  0  0  0  0  0  0  0
  1  6  1  0  0  0  0
  2  8  1  0  0  0  0
  2  3  1  0  0  0  0
  3  9  1  0  0  0  0
  4 10  1  0  0  0  0
  4  3  2  0  0  0  0
  5  4  1  0  0  0  0
  6  7  1  0  0  0  0
  6  5  2  0  0  0  0
  7  2  2  0  0  0  0
 11 12  1  0  0  0  0
 11 16  1  1  0  0  0
 12  1  1  6  0  0  0
 13 12  1  0  0  0  0
 14 15  1  0  0  0  0
 14 13  1  0  0  0  0
 15 18  1  6  0  0  0
 15 11  1  0  0  0  0
 16 17  1  0  0  0  0
 18 19  1  0  0  0  0
M  END
>  <minimizedAffinity>
-3.74048758

$$$$
