
 OpenBabel03272506153D

 28 30  0  0  1  0  0  0  0  0999 V2000
   37.6500   30.6450   50.1210 C   0  0  0  0  0  0  0  0  0  0  0  0
   38.5150   31.7500   50.0380 C   0  0  0  0  0  0  0  0  0  0  0  0
   38.6170   32.4320   48.7970 C   0  0  0  0  0  0  0  0  0  0  0  0
   37.8670   31.9700   47.7630 N   0  0  0  0  0  0  0  0  0  0  0  0
   37.0470   30.9030   47.8920 C   0  0  0  0  0  0  0  0  0  0  0  0
   36.9320   30.2350   49.0600 N   0  0  0  0  0  0  0  0  0  0  0  0
   36.2530   30.4000   46.8270 N   0  0  0  0  0  0  0  0  0  0  0  0
   36.6560   30.6470   45.5580 C   0  0  0  0  0  0  0  0  0  0  0  0
   35.8460   30.1360   44.5730 C   0  0  0  0  0  0  0  0  0  0  0  0
   34.6940   29.4160   44.8190 C   0  0  0  0  0  0  0  0  0  0  0  0
   33.9510   28.9480   43.9070 O   0  0  0  0  0  0  0  0  0  0  0  0
   34.3270   29.1930   46.1230 N   0  0  0  0  0  0  0  0  0  0  0  0
   35.1250   29.6970   47.0780 C   0  0  0  0  0  0  0  0  0  0  0  0
   34.8420   29.5250   48.2940 O   0  0  0  0  0  0  0  0  0  0  0  0
   37.5950   30.1470   51.0790 H   0  0  0  0  0  0  0  0  0  0  0  0
   39.1080   32.1160   50.8510 H   0  0  0  0  0  0  0  0  0  0  0  0
   39.2540   33.2860   48.6440 H   0  0  0  0  0  0  0  0  0  0  0  0
   37.5560   31.2100   45.3340 H   0  0  0  0  0  0  0  0  0  0  0  0
   36.1130   30.2990   43.5370 H   0  0  0  0  0  0  0  0  0  0  0  0
   31.8670   29.0280   45.9120 C   0  0  1  0  0  3  0  0  0  0  0  0
   33.1420   28.4530   46.4260 C   0  0  1  0  0  3  0  0  0  0  0  0
   33.2140   27.1220   45.9760 O   0  0  0  0  0  0  0  0  0  0  0  0
   31.8940   26.7040   46.1800 C   0  0  0  0  0  2  0  0  0  0  0  0
   31.1490   27.7810   45.4160 C   0  0  2  0  0  3  0  0  0  0  0  0
   31.0740   29.5400   46.9630 O   0  0  0  0  0  0  0  0  0  0  0  0
   31.2990   30.4670   47.1760 H   0  0  0  0  0  0  0  0  0  0  0  0
   31.2790   27.5910   44.0610 O   0  0  0  0  0  0  0  0  0  0  0  0
   30.5630   27.0540   43.6890 H   0  0  0  0  0  0  0  0  0  0  0  0
  1 15  1  0  0  0  0
  2  1  1  0  0  0  0
  2 16  1  0  0  0  0
  3  2  2  0  0  0  0
  4  5  2  0  0  0  0
  4  3  1  0  0  0  0
  5  6  1  0  0  0  0
  6  1  2  0  0  0  0
  7 13  1  0  0  0  0
  7  5  1  0  0  0  0
  8  7  1  0  0  0  0
  9 10  1  0  0  0  0
  9  8  2  0  0  0  0
 10 12  1  0  0  0  0
 11 10  2  0  0  0  0
 12 13  1  0  0  0  0
 13 14  2  0  0  0  0
 17  3  1  0  0  0  0
 18  8  1  0  0  0  0
 19  9  1  0  0  0  0
 20 21  1  0  0  0  0
 20 25  1  1  0  0  0
 21 12  1  6  0  0  0
 22 23  1  0  0  0  0
 22 21  1  0  0  0  0
 24 27  1  6  0  0  0
 24 20  1  0  0  0  0
 24 23  1  0  0  0  0
 25 26  1  0  0  0  0
 28 27  1  0  0  0  0
M  END
>  <minimizedAffinity>
-4.74840593

>  <minimizedRMSD>
3.54667068

$$$$
