
 OpenBabel03272507523D

 32 34  0  0  1  0  0  0  0  0999 V2000
   37.0160   31.5150   48.4590 N   0  0  0  0  0  0  0  0  0  0  0  0
   37.3470   32.2910   49.4850 C   0  0  0  0  0  0  0  0  0  0  0  0
   38.3950   33.2010   49.3650 C   0  0  0  0  0  0  0  0  0  0  0  0
   39.0060   33.2080   48.1470 C   0  0  0  0  0  0  0  0  0  0  0  0
   39.9580   34.0450   48.0550 O   0  0  0  0  0  0  0  0  0  0  0  0
   38.7090   32.4540   47.0970 N   0  0  0  0  0  0  0  0  0  0  0  0
   37.6840   31.5850   47.2660 C   0  0  0  0  0  0  0  0  0  0  0  0
   37.3840   30.8550   46.2760 O   0  0  0  0  0  0  0  0  0  0  0  0
   36.7970   32.2110   50.4210 H   0  0  0  0  0  0  0  0  0  0  0  0
   38.6580   33.8250   50.1960 H   0  0  0  0  0  0  0  0  0  0  0  0
   35.7200   29.9180   49.7550 C   0  0  0  0  0  0  0  0  0  0  0  0
   35.9510   30.5540   48.5180 C   0  0  0  0  0  0  0  0  0  0  0  0
   35.1450   30.2230   47.4140 C   0  0  0  0  0  0  0  0  0  0  0  0
   34.1790   29.3000   47.6050 N   0  0  0  0  0  0  0  0  0  0  0  0
   33.9600   28.7020   48.7660 C   0  0  0  0  0  0  0  0  0  0  0  0
   34.7260   29.0090   49.8300 N   0  0  0  0  0  0  0  0  0  0  0  0
   35.3410   30.7200   46.4920 H   0  0  0  0  0  0  0  0  0  0  0  0
   33.1920   27.9660   48.9220 H   0  0  0  0  0  0  0  0  0  0  0  0
   37.5010   29.4600   51.6060 C   0  0  0  0  0  0  0  0  0  0  0  0
   37.9110   28.3550   51.1890 O   0  0  0  0  0  0  0  0  0  0  0  0
   36.4660   30.1880   50.9210 N   0  0  0  0  0  0  0  0  0  0  0  0
   37.9680   29.8290   52.5040 H   0  0  0  0  0  0  0  0  0  0  0  0
   36.2640   31.1000   51.4320 H   0  0  0  0  0  0  0  0  0  0  0  0
   39.9580   31.1980   45.3780 C   0  0  1  0  0  3  0  0  0  0  0  0
   39.3960   32.5200   45.8590 C   0  0  1  0  0  3  0  0  0  0  0  0
   38.6030   32.8940   44.7860 O   0  0  0  0  0  0  0  0  0  0  0  0
   39.2700   32.5880   43.6360 C   0  0  0  0  0  2  0  0  0  0  0  0
   40.4420   31.6700   44.0010 C   0  0  2  0  0  3  0  0  0  0  0  0
   40.9990   30.7380   46.1510 O   0  0  0  0  0  0  0  0  0  0  0  0
   40.8250   29.7630   46.3440 H   0  0  0  0  0  0  0  0  0  0  0  0
   40.5780   30.6370   43.1020 O   0  0  0  0  0  0  0  0  0  0  0  0
   41.3560   30.1170   43.3640 H   0  0  0  0  0  0  0  0  0  0  0  0
  1 12  1  0  0  0  0
  1  2  1  0  0  0  0
  2  9  1  0  0  0  0
  3  2  2  0  0  0  0
  3 10  1  0  0  0  0
  4  3  1  0  0  0  0
  5  4  2  0  0  0  0
  6  7  1  0  0  0  0
  6  4  1  0  0  0  0
  7  1  1  0  0  0  0
  8  7  2  0  0  0  0
 11 16  1  0  0  0  0
 11 21  1  0  0  0  0
 12 11  2  0  0  0  0
 13 14  2  0  0  0  0
 13 12  1  0  0  0  0
 14 15  1  0  0  0  0
 15 18  1  0  0  0  0
 15 16  2  0  0  0  0
 17 13  1  0  0  0  0
 19 22  1  0  0  0  0
 20 19  2  0  0  0  0
 21 23  1  0  0  0  0
 21 19  1  0  0  0  0
 24 25  1  0  0  0  0
 24 29  1  1  0  0  0
 25  6  1  1  0  0  0
 26 25  1  0  0  0  0
 27 28  1  0  0  0  0
 27 26  1  0  0  0  0
 28 31  1  6  0  0  0
 28 24  1  0  0  0  0
 29 30  1  0  0  0  0
 31 32  1  0  0  0  0
M  END
>  <minimizedAffinity>
-6.96959877

>  <minimizedRMSD>
1.36162424

$$$$
