
 OpenBabel03272507523D

 32 34  0  0  1  0  0  0  0  0999 V2000
   35.0920   29.8470   47.3840 N   0  0  0  0  0  0  0  0  0  0  0  0
   35.4750   30.3790   48.5400 C   0  0  0  0  0  0  0  0  0  0  0  0
   36.6480   31.1260   48.6130 C   0  0  0  0  0  0  0  0  0  0  0  0
   37.3200   31.2450   47.4350 C   0  0  0  0  0  0  0  0  0  0  0  0
   38.3880   31.9300   47.5200 O   0  0  0  0  0  0  0  0  0  0  0  0
   36.9770   30.7350   46.2600 N   0  0  0  0  0  0  0  0  0  0  0  0
   35.8290   30.0170   46.2430 C   0  0  0  0  0  0  0  0  0  0  0  0
   35.4820   29.5200   45.1310 O   0  0  0  0  0  0  0  0  0  0  0  0
   34.8670   30.2260   49.4300 H   0  0  0  0  0  0  0  0  0  0  0  0
   36.9520   31.5520   49.5490 H   0  0  0  0  0  0  0  0  0  0  0  0
   32.7580   29.7090   46.7190 C   0  0  0  0  0  0  0  0  0  0  0  0
   33.8970   29.0640   47.2420 C   0  0  0  0  0  0  0  0  0  0  0  0
   33.8150   27.7060   47.5980 C   0  0  0  0  0  0  0  0  0  0  0  0
   32.6300   27.0870   47.4150 N   0  0  0  0  0  0  0  0  0  0  0  0
   31.5590   27.6910   46.9240 C   0  0  0  0  0  0  0  0  0  0  0  0
   31.6240   28.9910   46.5800 N   0  0  0  0  0  0  0  0  0  0  0  0
   34.6910   27.2440   47.9900 H   0  0  0  0  0  0  0  0  0  0  0  0
   30.6130   27.2020   46.7770 H   0  0  0  0  0  0  0  0  0  0  0  0
   32.3620   31.7180   45.1000 C   0  0  0  0  0  0  0  0  0  0  0  0
   31.9460   31.0710   44.1140 O   0  0  0  0  0  0  0  0  0  0  0  0
   32.7430   31.0630   46.3240 N   0  0  0  0  0  0  0  0  0  0  0  0
   32.4160   32.7860   44.9760 H   0  0  0  0  0  0  0  0  0  0  0  0
   33.0650   31.7860   47.0370 H   0  0  0  0  0  0  0  0  0  0  0  0
   37.8000   32.3320   44.5680 C   0  0  1  0  0  3  0  0  0  0  0  0
   37.7340   30.9050   45.0740 C   0  0  1  0  0  3  0  0  0  0  0  0
   39.0780   30.5920   45.2050 O   0  0  0  0  0  0  0  0  0  0  0  0
   39.7430   31.1140   44.1360 C   0  0  0  0  0  2  0  0  0  0  0  0
   38.8030   32.0980   43.4300 C   0  0  2  0  0  3  0  0  0  0  0  0
   36.5950   32.7950   44.0940 O   0  0  0  0  0  0  0  0  0  0  0  0
   36.4480   33.7120   44.4890 H   0  0  0  0  0  0  0  0  0  0  0  0
   39.4590   33.2470   43.0520 O   0  0  0  0  0  0  0  0  0  0  0  0
   38.8230   33.8090   42.5800 H   0  0  0  0  0  0  0  0  0  0  0  0
  1  2  1  0  0  0  0
  2  3  2  0  0  0  0
  2  9  1  0  0  0  0
  3 10  1  0  0  0  0
  4  5  2  0  0  0  0
  4  3  1  0  0  0  0
  6  4  1  0  0  0  0
  7  6  1  0  0  0  0
  7  1  1  0  0  0  0
  8  7  2  0  0  0  0
 11 12  1  0  0  0  0
 12  1  1  0  0  0  0
 12 13  2  0  0  0  0
 13 17  1  0  0  0  0
 14 13  1  0  0  0  0
 15 14  2  0  0  0  0
 16 11  2  0  0  0  0
 16 15  1  0  0  0  0
 18 15  1  0  0  0  0
 19 21  1  0  0  0  0
 20 19  2  0  0  0  0
 21 11  1  0  0  0  0
 21 23  1  0  0  0  0
 22 19  1  0  0  0  0
 24 29  1  6  0  0  0
 24 25  1  0  0  0  0
 25 26  1  0  0  0  0
 25  6  1  1  0  0  0
 27 26  1  0  0  0  0
 28 31  1  1  0  0  0
 28 27  1  0  0  0  0
 28 24  1  0  0  0  0
 29 30  1  0  0  0  0
 32 31  1  0  0  0  0
M  END
>  <minimizedAffinity>
-5.3628664

>  <minimizedRMSD>
4.11451769

$$$$
