
 OpenBabel03272508013D

 28 30  0  0  1  0  0  0  0  0999 V2000
   37.6730   30.7510   45.1790 C   0  0  0  0  0  0  0  0  0  0  0  0
   38.6060   31.6790   44.8430 C   0  0  0  0  0  0  0  0  0  0  0  0
   39.1340   31.3960   43.5860 C   0  0  0  0  0  0  0  0  0  0  0  0
   38.4740   30.2740   43.2080 N   0  0  0  0  0  0  0  0  0  0  0  0
   37.6150   29.8910   44.1390 N   0  0  0  0  0  0  0  0  0  0  0  0
   38.8910   32.5240   45.4850 H   0  0  0  0  0  0  0  0  0  0  0  0
   39.8940   31.9660   43.0690 H   0  0  0  0  0  0  0  0  0  0  0  0
   36.8770   30.6720   46.4060 C   0  0  0  0  0  0  0  0  0  0  0  0
   37.4730   31.1930   47.5900 C   0  0  0  0  0  0  0  0  0  0  0  0
   36.7290   31.1280   48.7770 C   0  0  0  0  0  0  0  0  0  0  0  0
   35.4840   30.5700   48.7190 N   0  0  0  0  0  0  0  0  0  0  0  0
   34.9540   30.0880   47.5760 C   0  0  0  0  0  0  0  0  0  0  0  0
   35.6700   30.1510   46.4400 N   0  0  0  0  0  0  0  0  0  0  0  0
   38.4640   31.6200   47.5620 H   0  0  0  0  0  0  0  0  0  0  0  0
   33.9500   29.6540   47.6010 H   0  0  0  0  0  0  0  0  0  0  0  0
   37.3220   31.6620   50.0270 C   0  0  0  0  0  0  0  0  0  0  0  0
   36.7650   32.9070   50.2140 F   0  0  0  0  0  0  0  0  0  0  0  0
   37.0310   30.8700   51.1290 F   0  0  0  0  0  0  0  0  0  0  0  0
   38.6920   31.8140   49.9250 F   0  0  0  0  0  0  0  0  0  0  0  0
   40.0520   29.7920   41.3720 C   0  0  2  0  0  0  0  0  0  0  0  0
   38.6800   29.5770   41.9410 C   0  0  1  0  0  0  0  0  0  0  0  0
   38.5900   28.1970   42.1150 O   0  0  0  0  0  0  0  0  0  0  0  0
   39.8400   27.7930   42.5950 C   0  0  0  0  0  0  0  0  0  0  0  0
   40.7910   28.5430   41.7060 C   0  0  2  0  0  0  0  0  0  0  0  0
   40.6580   30.9670   41.7160 O   0  0  0  0  0  0  0  0  0  0  0  0
   40.9380   31.5180   40.9340 H   0  0  0  0  0  0  0  0  0  0  0  0
   42.0050   28.8080   42.3350 O   0  0  0  0  0  0  0  0  0  0  0  0
   42.4900   27.9340   42.4410 H   0  0  0  0  0  0  0  0  0  0  0  0
  1  8  1  0  0  0  0
  2  1  1  0  0  0  0
  2  6  1  0  0  0  0
  3  2  2  0  0  0  0
  4  3  1  0  0  0  0
  4  5  1  0  0  0  0
  5  1  2  0  0  0  0
  7  3  1  0  0  0  0
  8 13  2  0  0  0  0
  8  9  1  0  0  0  0
  9 10  2  0  0  0  0
 10 16  1  0  0  0  0
 11 10  1  0  0  0  0
 12 15  1  0  0  0  0
 12 11  2  0  0  0  0
 13 12  1  0  0  0  0
 14  9  1  0  0  0  0
 16 17  1  0  0  0  0
 16 18  1  0  0  0  0
 19 16  1  0  0  0  0
 20 24  1  0  0  0  0
 20 25  1  1  0  0  0
 20 21  1  0  0  0  0
 21 22  1  0  0  0  0
 21  4  1  1  0  0  0
 22 23  1  0  0  0  0
 24 27  1  1  0  0  0
 24 23  1  0  0  0  0
 26 25  1  0  0  0  0
 27 28  1  0  0  0  0
M  END
>  <minimizedAffinity>
-6.25190258

>  <minimizedRMSD>
2.17841649

$$$$
