
 OpenBabel03272506153D

 28 30  0  0  1  0  0  0  0  0999 V2000
   37.4520   30.1770   50.1710 C   0  0  0  0  0  0  0  0  0  0  0  0
   38.3200   31.2820   50.2080 C   0  0  0  0  0  0  0  0  0  0  0  0
   38.4330   32.0860   49.0440 C   0  0  0  0  0  0  0  0  0  0  0  0
   37.6910   31.7350   47.9620 N   0  0  0  0  0  0  0  0  0  0  0  0
   36.8680   30.6610   47.9750 C   0  0  0  0  0  0  0  0  0  0  0  0
   36.7420   29.8780   49.0680 N   0  0  0  0  0  0  0  0  0  0  0  0
   36.0820   30.2720   46.8590 N   0  0  0  0  0  0  0  0  0  0  0  0
   36.4960   30.6450   45.6240 C   0  0  0  0  0  0  0  0  0  0  0  0
   35.6930   30.2400   44.5860 C   0  0  0  0  0  0  0  0  0  0  0  0
   34.5380   29.5020   44.7480 C   0  0  0  0  0  0  0  0  0  0  0  0
   33.8010   29.1310   43.7870 O   0  0  0  0  0  0  0  0  0  0  0  0
   34.1590   29.1480   46.0190 N   0  0  0  0  0  0  0  0  0  0  0  0
   34.9510   29.5490   47.0270 C   0  0  0  0  0  0  0  0  0  0  0  0
   34.6580   29.2550   48.2170 O   0  0  0  0  0  0  0  0  0  0  0  0
   37.3890   29.5840   51.0720 H   0  0  0  0  0  0  0  0  0  0  0  0
   38.9070   31.5620   51.0590 H   0  0  0  0  0  0  0  0  0  0  0  0
   39.0720   32.9510   48.9830 H   0  0  0  0  0  0  0  0  0  0  0  0
   37.3990   31.2260   45.4650 H   0  0  0  0  0  0  0  0  0  0  0  0
   35.9690   30.5070   43.5740 H   0  0  0  0  0  0  0  0  0  0  0  0
   31.6880   29.0740   45.9230 C   0  0  1  0  0  3  0  0  0  0  0  0
   32.9720   28.3840   46.2360 C   0  0  1  0  0  3  0  0  0  0  0  0
   32.9790   27.1700   45.5240 O   0  0  0  0  0  0  0  0  0  0  0  0
   31.6600   26.7440   45.7160 C   0  0  0  0  0  2  0  0  0  0  0  0
   30.9080   27.9670   45.2300 C   0  0  2  0  0  3  0  0  0  0  0  0
   30.9680   29.3770   47.1010 O   0  0  0  0  0  0  0  0  0  0  0  0
   31.2320   30.2380   47.4830 H   0  0  0  0  0  0  0  0  0  0  0  0
   30.9600   28.0530   43.8590 O   0  0  0  0  0  0  0  0  0  0  0  0
   30.2100   27.6160   43.4270 H   0  0  0  0  0  0  0  0  0  0  0  0
  1  2  1  0  0  0  0
  1 15  1  0  0  0  0
  2 16  1  0  0  0  0
  3  2  2  0  0  0  0
  4  5  2  0  0  0  0
  4  3  1  0  0  0  0
  5  6  1  0  0  0  0
  6  1  2  0  0  0  0
  7 13  1  0  0  0  0
  7  5  1  0  0  0  0
  8  7  1  0  0  0  0
  9 10  1  0  0  0  0
  9  8  2  0  0  0  0
 10 12  1  0  0  0  0
 11 10  2  0  0  0  0
 12 13  1  0  0  0  0
 13 14  2  0  0  0  0
 17  3  1  0  0  0  0
 18  8  1  0  0  0  0
 19  9  1  0  0  0  0
 20 21  1  0  0  0  0
 20 25  1  1  0  0  0
 21 12  1  6  0  0  0
 22 23  1  0  0  0  0
 22 21  1  0  0  0  0
 24 27  1  6  0  0  0
 24 23  1  0  0  0  0
 24 20  1  0  0  0  0
 25 26  1  0  0  0  0
 28 27  1  0  0  0  0
M  END
>  <minimizedAffinity>
-4.74189186

>  <minimizedRMSD>
3.64108109

$$$$
