
 OpenBabel03272507523D

 32 34  0  0  1  0  0  0  0  0999 V2000
   36.5060   31.1510   48.6850 N   0  0  0  0  0  0  0  0  0  0  0  0
   36.8230   32.0280   49.6310 C   0  0  0  0  0  0  0  0  0  0  0  0
   37.8890   32.9050   49.4450 C   0  0  0  0  0  0  0  0  0  0  0  0
   38.5320   32.7720   48.2510 C   0  0  0  0  0  0  0  0  0  0  0  0
   39.5020   33.5810   48.0980 O   0  0  0  0  0  0  0  0  0  0  0  0
   38.2510   31.9150   47.2790 N   0  0  0  0  0  0  0  0  0  0  0  0
   37.2070   31.0840   47.5110 C   0  0  0  0  0  0  0  0  0  0  0  0
   36.9210   30.2570   46.5960 O   0  0  0  0  0  0  0  0  0  0  0  0
   36.2460   32.0570   50.5540 H   0  0  0  0  0  0  0  0  0  0  0  0
   38.1400   33.6110   50.2120 H   0  0  0  0  0  0  0  0  0  0  0  0
   35.2860   29.5530   50.0510 C   0  0  0  0  0  0  0  0  0  0  0  0
   35.4230   30.2180   48.8160 C   0  0  0  0  0  0  0  0  0  0  0  0
   34.5110   29.9410   47.7820 C   0  0  0  0  0  0  0  0  0  0  0  0
   33.5390   29.0390   48.0360 N   0  0  0  0  0  0  0  0  0  0  0  0
   33.4090   28.4130   49.1950 C   0  0  0  0  0  0  0  0  0  0  0  0
   34.2770   28.6690   50.1930 N   0  0  0  0  0  0  0  0  0  0  0  0
   34.6370   30.4580   46.8590 H   0  0  0  0  0  0  0  0  0  0  0  0
   32.6380   27.6940   49.4010 H   0  0  0  0  0  0  0  0  0  0  0  0
   37.4440   29.2570   51.4880 C   0  0  0  0  0  0  0  0  0  0  0  0
   38.0450   28.4530   50.7430 O   0  0  0  0  0  0  0  0  0  0  0  0
   36.1430   29.7690   51.1510 N   0  0  0  0  0  0  0  0  0  0  0  0
   37.9600   29.5400   52.3910 H   0  0  0  0  0  0  0  0  0  0  0  0
   35.8080   30.4370   51.9100 H   0  0  0  0  0  0  0  0  0  0  0  0
   38.5150   32.8160   44.9970 C   0  0  1  0  0  3  0  0  0  0  0  0
   38.9720   31.8380   46.0610 C   0  0  1  0  0  3  0  0  0  0  0  0
   40.3170   32.1540   46.1720 O   0  0  0  0  0  0  0  0  0  0  0  0
   40.8070   32.3820   44.9210 C   0  0  0  0  0  2  0  0  0  0  0  0
   39.6150   32.5240   43.9670 C   0  0  2  0  0  3  0  0  0  0  0  0
   37.2650   32.5300   44.4990 O   0  0  0  0  0  0  0  0  0  0  0  0
   36.7430   33.3930   44.4830 H   0  0  0  0  0  0  0  0  0  0  0  0
   39.7970   33.5550   43.0750 O   0  0  0  0  0  0  0  0  0  0  0  0
   39.0320   33.5690   42.4780 H   0  0  0  0  0  0  0  0  0  0  0  0
  1 12  1  0  0  0  0
  1  2  1  0  0  0  0
  2  9  1  0  0  0  0
  3  2  2  0  0  0  0
  3 10  1  0  0  0  0
  4  3  1  0  0  0  0
  5  4  2  0  0  0  0
  6  7  1  0  0  0  0
  6  4  1  0  0  0  0
  7  1  1  0  0  0  0
  8  7  2  0  0  0  0
 11 16  1  0  0  0  0
 11 21  1  0  0  0  0
 12 11  2  0  0  0  0
 13 14  2  0  0  0  0
 13 12  1  0  0  0  0
 14 15  1  0  0  0  0
 15 18  1  0  0  0  0
 15 16  2  0  0  0  0
 17 13  1  0  0  0  0
 19 22  1  0  0  0  0
 20 19  2  0  0  0  0
 21 19  1  0  0  0  0
 21 23  1  0  0  0  0
 24 29  1  6  0  0  0
 24 25  1  0  0  0  0
 25 26  1  0  0  0  0
 25  6  1  1  0  0  0
 27 26  1  0  0  0  0
 28 31  1  6  0  0  0
 28 27  1  0  0  0  0
 28 24  1  0  0  0  0
 30 29  1  0  0  0  0
 32 31  1  0  0  0  0
M  END
>  <minimizedAffinity>
-6.34340477

>  <minimizedRMSD>
1.3395412

$$$$
