
 OpenBabel03272506403D

 19 20  0  0  1  0  0  0  0  0999 V2000
   34.7970   29.5400   47.5180 S   0  0  0  0  0  0  0  0  0  0  0  0
   37.3710   29.4760   50.5320 C   0  0  0  0  0  0  0  0  0  0  0  0
   37.9820   30.7320   50.5180 C   0  0  0  0  0  0  0  0  0  0  0  0
   37.5790   31.6420   49.5320 C   0  0  0  0  0  0  0  0  0  0  0  0
   36.6230   31.2550   48.6460 N   0  0  0  0  0  0  0  0  0  0  0  0
   36.0550   30.0280   48.6910 C   0  0  0  0  0  0  0  0  0  0  0  0
   36.4220   29.1310   49.6300 N   0  0  0  0  0  0  0  0  0  0  0  0
   37.7020   28.7860   51.3090 H   0  0  0  0  0  0  0  0  0  0  0  0
   38.7430   31.0250   51.2310 H   0  0  0  0  0  0  0  0  0  0  0  0
   38.0300   32.6220   49.4930 H   0  0  0  0  0  0  0  0  0  0  0  0
   32.3860   28.3570   47.4750 C   0  0  2  0  0  0  0  0  0  0  0  0
   33.6250   28.4060   48.3500 C   0  0  1  0  0  0  0  0  0  0  0  0
   34.1860   27.1560   48.3530 O   0  0  0  0  0  0  0  0  0  0  0  0
   33.5560   26.3700   47.4100 C   0  0  0  0  0  0  0  0  0  0  0  0
   32.8460   27.3330   46.4580 C   0  0  1  0  0  0  0  0  0  0  0  0
   32.1340   29.5950   46.8880 O   0  0  0  0  0  0  0  0  0  0  0  0
   32.9280   29.8620   46.3550 H   0  0  0  0  0  0  0  0  0  0  0  0
   31.7940   26.6910   45.8260 O   0  0  0  0  0  0  0  0  0  0  0  0
   31.2320   27.3670   45.4030 H   0  0  0  0  0  0  0  0  0  0  0  0
  1  6  1  0  0  0  0
  2  8  1  0  0  0  0
  3  2  1  0  0  0  0
  3  9  1  0  0  0  0
  4  3  2  0  0  0  0
  5  6  2  0  0  0  0
  5  4  1  0  0  0  0
  6  7  1  0  0  0  0
  7  2  2  0  0  0  0
 10  4  1  0  0  0  0
 11 16  1  6  0  0  0
 11 12  1  0  0  0  0
 12  1  1  6  0  0  0
 12 13  1  0  0  0  0
 14 13  1  0  0  0  0
 15 18  1  1  0  0  0
 15 14  1  0  0  0  0
 15 11  1  0  0  0  0
 17 16  1  0  0  0  0
 19 18  1  0  0  0  0
M  END
>  <minimizedAffinity>
-3.9161365

>  <minimizedRMSD>
2.15012336

$$$$
