
 OpenBabel03272507523D

 32 34  0  0  1  0  0  0  0  0999 V2000
   36.3750   31.1710   48.7290 N   0  0  0  0  0  0  0  0  0  0  0  0
   36.5690   32.0490   49.7080 C   0  0  0  0  0  0  0  0  0  0  0  0
   37.6550   32.9210   49.6620 C   0  0  0  0  0  0  0  0  0  0  0  0
   38.4490   32.7830   48.5640 C   0  0  0  0  0  0  0  0  0  0  0  0
   39.4340   33.5860   48.5380 O   0  0  0  0  0  0  0  0  0  0  0  0
   38.2940   31.9240   47.5640 N   0  0  0  0  0  0  0  0  0  0  0  0
   37.2240   31.0990   47.6580 C   0  0  0  0  0  0  0  0  0  0  0  0
   37.0580   30.2710   46.7140 O   0  0  0  0  0  0  0  0  0  0  0  0
   35.8760   32.0820   50.5470 H   0  0  0  0  0  0  0  0  0  0  0  0
   37.8060   33.6260   50.4550 H   0  0  0  0  0  0  0  0  0  0  0  0
   35.0780   29.4650   49.8750 C   0  0  0  0  0  0  0  0  0  0  0  0
   35.2800   30.2430   48.7180 C   0  0  0  0  0  0  0  0  0  0  0  0
   34.4180   30.0770   47.6190 C   0  0  0  0  0  0  0  0  0  0  0  0
   33.4290   29.1670   47.7390 N   0  0  0  0  0  0  0  0  0  0  0  0
   33.2370   28.4350   48.8250 C   0  0  0  0  0  0  0  0  0  0  0  0
   34.0560   28.5840   49.8830 N   0  0  0  0  0  0  0  0  0  0  0  0
   34.5930   30.6780   46.7570 H   0  0  0  0  0  0  0  0  0  0  0  0
   32.4510   27.7090   48.9240 H   0  0  0  0  0  0  0  0  0  0  0  0
   37.2380   29.1760   51.3120 C   0  0  0  0  0  0  0  0  0  0  0  0
   37.9550   28.6310   50.4460 O   0  0  0  0  0  0  0  0  0  0  0  0
   35.8810   29.5650   51.0310 N   0  0  0  0  0  0  0  0  0  0  0  0
   37.6960   29.3350   52.2740 H   0  0  0  0  0  0  0  0  0  0  0  0
   35.4450   30.0110   51.8950 H   0  0  0  0  0  0  0  0  0  0  0  0
   40.1250   33.0100   46.3140 C   0  0  1  0  0  3  0  0  0  0  0  0
   39.1690   31.8420   46.4520 C   0  0  1  0  0  3  0  0  0  0  0  0
   40.0430   30.7680   46.4910 O   0  0  0  0  0  0  0  0  0  0  0  0
   41.0320   30.9890   45.5800 C   0  0  0  0  0  2  0  0  0  0  0  0
   40.9540   32.4580   45.1480 C   0  0  2  0  0  3  0  0  0  0  0  0
   39.4990   34.1880   45.9800 O   0  0  0  0  0  0  0  0  0  0  0  0
   39.8590   34.9060   46.5900 H   0  0  0  0  0  0  0  0  0  0  0  0
   42.2020   33.0300   45.0610 O   0  0  0  0  0  0  0  0  0  0  0  0
   42.0880   33.9420   44.7470 H   0  0  0  0  0  0  0  0  0  0  0  0
  1  2  1  0  0  0  0
  2  9  1  0  0  0  0
  3  2  2  0  0  0  0
  3 10  1  0  0  0  0
  4  3  1  0  0  0  0
  5  4  2  0  0  0  0
  6  7  1  0  0  0  0
  6  4  1  0  0  0  0
  7  1  1  0  0  0  0
  8  7  2  0  0  0  0
 11 16  1  0  0  0  0
 11 21  1  0  0  0  0
 12  1  1  0  0  0  0
 12 11  2  0  0  0  0
 13 14  2  0  0  0  0
 13 12  1  0  0  0  0
 14 15  1  0  0  0  0
 15 18  1  0  0  0  0
 15 16  2  0  0  0  0
 17 13  1  0  0  0  0
 19 22  1  0  0  0  0
 20 19  2  0  0  0  0
 21 19  1  0  0  0  0
 21 23  1  0  0  0  0
 24 29  1  6  0  0  0
 24 25  1  0  0  0  0
 25 26  1  0  0  0  0
 25  6  1  1  0  0  0
 27 26  1  0  0  0  0
 28 31  1  1  0  0  0
 28 27  1  0  0  0  0
 28 24  1  0  0  0  0
 29 30  1  0  0  0  0
 32 31  1  0  0  0  0
M  END
>  <minimizedAffinity>
-4.31076241

>  <minimizedRMSD>
1.22906077

$$$$
