
 OpenBabel03272503293D

 34 36  0  0  1  0  0  0  0  0999 V2000
   35.6020   29.6270   47.7670 C   0  0  0  0  0  0  0  0  0  0  0  0
   35.5680   30.2690   46.5120 C   0  0  0  0  0  0  0  0  0  0  0  0
   34.5090   29.9300   45.6630 C   0  0  0  0  0  0  0  0  0  0  0  0
   33.5970   29.0080   46.1120 N   0  0  0  0  0  0  0  0  0  0  0  0
   33.6730   28.4300   47.3090 C   0  0  0  0  0  0  0  0  0  0  0  0
   34.6750   28.7360   48.1410 N   0  0  0  0  0  0  0  0  0  0  0  0
   36.3090   30.9940   46.1920 H   0  0  0  0  0  0  0  0  0  0  0  0
   34.4160   30.3860   44.6720 H   0  0  0  0  0  0  0  0  0  0  0  0
   36.6870   29.9790   48.6430 N   0  0  0  0  0  0  0  0  0  0  0  0
   37.8780   30.7090   48.2950 C   0  0  0  0  0  0  0  0  0  0  0  0
   38.2480   31.3900   49.6040 C   0  0  2  0  0  0  0  0  0  0  0  0
   37.1380   31.0630   50.5670 C   0  0  0  0  0  0  0  0  0  0  0  0
   36.7920   29.6720   50.0370 C   0  0  0  0  0  0  0  0  0  0  0  0
   37.6040   31.5240   47.5930 H   0  0  0  0  0  0  0  0  0  0  0  0
   38.6290   30.0060   47.9250 H   0  0  0  0  0  0  0  0  0  0  0  0
   39.1740   30.9070   50.0120 H   0  0  0  0  0  0  0  0  0  0  0  0
   36.2560   31.6990   50.3650 H   0  0  0  0  0  0  0  0  0  0  0  0
   37.4630   31.0340   51.6140 H   0  0  0  0  0  0  0  0  0  0  0  0
   37.6180   28.9790   50.2600 H   0  0  0  0  0  0  0  0  0  0  0  0
   35.8380   29.3130   50.4310 H   0  0  0  0  0  0  0  0  0  0  0  0
   38.4710   32.8560   49.4500 C   0  0  0  0  0  0  0  0  0  0  0  0
   37.2520   33.4810   49.7210 F   0  0  0  0  0  0  0  0  0  0  0  0
   38.7290   33.0970   48.1080 F   0  0  0  0  0  0  0  0  0  0  0  0
   39.4850   33.3500   50.2190 F   0  0  0  0  0  0  0  0  0  0  0  0
   32.4490   27.2400   47.8380 S   0  0  0  0  0  0  0  0  0  0  0  0
   33.3920   25.5200   46.0280 C   0  0  2  0  0  3  0  0  0  0  0  0
   33.1610   25.5880   47.5460 C   0  0  2  0  0  3  0  0  0  0  0  0
   32.1460   24.6390   47.6550 O   0  0  0  0  0  0  0  0  0  0  0  0
   31.2100   25.0730   46.7380 C   0  0  0  0  0  2  0  0  0  0  0  0
   31.9400   25.7310   45.5860 C   0  0  2  0  0  3  0  0  0  0  0  0
   33.8500   24.2460   45.7030 O   0  0  0  0  0  0  0  0  0  0  0  0
   34.0040   24.1470   44.7400 H   0  0  0  0  0  0  0  0  0  0  0  0
   31.6620   25.1740   44.3600 O   0  0  0  0  0  0  0  0  0  0  0  0
   30.6810   25.0340   44.3130 H   0  0  0  0  0  0  0  0  0  0  0  0
  1  6  1  0  0  0  0
  1  9  1  0  0  0  0
  2  1  2  0  0  0  0
  3  4  2  0  0  0  0
  3  2  1  0  0  0  0
  4  5  1  0  0  0  0
  5 25  1  0  0  0  0
  5  6  2  0  0  0  0
  7  2  1  0  0  0  0
  8  3  1  0  0  0  0
  9 13  1  0  0  0  0
 10  9  1  0  0  0  0
 10 11  1  0  0  0  0
 11 16  1  1  0  0  0
 11 12  1  0  0  0  0
 12 18  1  0  0  0  0
 13 19  1  0  0  0  0
 13 20  1  0  0  0  0
 13 12  1  0  0  0  0
 14 10  1  0  0  0  0
 15 10  1  0  0  0  0
 17 12  1  0  0  0  0
 21 11  1  0  0  0  0
 21 22  1  0  0  0  0
 21 24  1  0  0  0  0
 23 21  1  0  0  0  0
 26 31  1  1  0  0  0
 26 27  1  0  0  0  0
 27 28  1  0  0  0  0
 27 25  1  6  0  0  0
 29 28  1  0  0  0  0
 30 33  1  6  0  0  0
 30 26  1  0  0  0  0
 30 29  1  0  0  0  0
 32 31  1  0  0  0  0
 34 33  1  0  0  0  0
M  END
>  <minimizedAffinity>
-5.30799484

>  <minimizedRMSD>
0.769205093

$$$$
