
 OpenBabel03272510113D

 35 38  0  0  1  0  0  0  0  0999 V2000
   34.0270   28.8060   48.2830 C   0  0  0  0  0  0  0  0  0  0  0  0
   34.6550   28.3720   49.3960 C   0  0  0  0  0  0  0  0  0  0  0  0
   35.8910   28.7990   49.8200 C   0  0  0  0  0  0  0  0  0  0  0  0
   36.5700   29.7310   49.0880 C   0  0  0  0  0  0  0  0  0  0  0  0
   35.9300   30.1910   47.9290 C   0  0  0  0  0  0  0  0  0  0  0  0
   34.7130   29.7330   47.5630 N   0  0  0  0  0  0  0  0  0  0  0  0
   34.1930   27.6330   50.0400 H   0  0  0  0  0  0  0  0  0  0  0  0
   36.3920   28.4520   50.7110 H   0  0  0  0  0  0  0  0  0  0  0  0
   36.3790   30.9300   47.2750 H   0  0  0  0  0  0  0  0  0  0  0  0
   31.9120   27.4750   48.5810 C   0  0  0  0  0  0  0  0  0  0  0  0
   32.7310   28.3490   47.8500 C   0  0  0  0  0  0  0  0  0  0  0  0
   32.2330   28.7870   46.6340 C   0  0  0  0  0  0  0  0  0  0  0  0
   30.9990   28.3570   46.2130 N   0  0  0  0  0  0  0  0  0  0  0  0
   30.2690   27.5170   46.9710 C   0  0  0  0  0  0  0  0  0  0  0  0
   30.7170   27.0710   48.1530 N   0  0  0  0  0  0  0  0  0  0  0  0
   32.2800   27.1220   49.5310 H   0  0  0  0  0  0  0  0  0  0  0  0
   32.8260   29.4680   46.0220 H   0  0  0  0  0  0  0  0  0  0  0  0
   29.3270   27.2910   46.4740 H   0  0  0  0  0  0  0  0  0  0  0  0
   37.8260   30.2790   49.3610 O   0  0  0  0  0  0  0  0  0  0  0  0
   38.3910   31.2470   48.5430 C   0  0  0  0  0  0  0  0  0  0  0  0
   38.5080   32.4970   49.1400 C   0  0  0  0  0  0  0  0  0  0  0  0
   39.0860   33.3700   48.2150 C   0  0  0  0  0  0  0  0  0  0  0  0
   39.2890   32.6210   47.1200 N   0  0  0  0  0  0  0  0  0  0  0  0
   38.8890   31.3890   47.3000 N   0  0  0  0  0  0  0  0  0  0  0  0
   38.2600   32.9220   50.1240 H   0  0  0  0  0  0  0  0  0  0  0  0
   39.3700   34.4130   48.2120 H   0  0  0  0  0  0  0  0  0  0  0  0
   38.9440   32.7950   44.6810 C   0  0  1  0  0  3  0  0  0  0  0  0
   39.8720   33.0100   45.8290 C   0  0  2  0  0  3  0  0  0  0  0  0
   41.0220   32.3210   45.5600 O   0  0  0  0  0  0  0  0  0  0  0  0
   40.7820   31.3240   44.6540 C   0  0  0  0  0  2  0  0  0  0  0  0
   39.3920   31.4840   44.1210 C   0  0  2  0  0  3  0  0  0  0  0  0
   37.6030   32.7870   45.0590 O   0  0  0  0  0  0  0  0  0  0  0  0
   37.1710   33.6080   44.7370 H   0  0  0  0  0  0  0  0  0  0  0  0
   39.3820   31.5400   42.7150 O   0  0  0  0  0  0  0  0  0  0  0  0
   39.1200   30.6860   42.3270 H   0  0  0  0  0  0  0  0  0  0  0  0
  1  2  1  0  0  0  0
  2  3  2  0  0  0  0
  2  7  1  0  0  0  0
  3  8  1  0  0  0  0
  4 19  1  0  0  0  0
  4  3  1  0  0  0  0
  5  4  2  0  0  0  0
  6  5  1  0  0  0  0
  6  1  2  0  0  0  0
  9  5  1  0  0  0  0
 10 16  1  0  0  0  0
 11  1  1  0  0  0  0
 11 10  2  0  0  0  0
 12 11  1  0  0  0  0
 13 12  2  0  0  0  0
 13 14  1  0  0  0  0
 14 15  2  0  0  0  0
 15 10  1  0  0  0  0
 17 12  1  0  0  0  0
 18 14  1  0  0  0  0
 20 21  1  0  0  0  0
 20 19  1  0  0  0  0
 21 25  1  0  0  0  0
 22 21  2  0  0  0  0
 23 24  1  0  0  0  0
 23 22  1  0  0  0  0
 24 20  2  0  0  0  0
 26 22  1  0  0  0  0
 27 32  1  1  0  0  0
 27 28  1  0  0  0  0
 28 23  1  1  0  0  0
 29 28  1  0  0  0  0
 30 29  1  0  0  0  0
 31 34  1  6  0  0  0
 31 30  1  0  0  0  0
 31 27  1  0  0  0  0
 33 32  1  0  0  0  0
 35 34  1  0  0  0  0
M  END
>  <minimizedAffinity>
-6.88758802

>  <minimizedRMSD>
1.116552

$$$$
