
 OpenBabel03272508003D

 39 42  0  0  1  0  0  0  0  0999 V2000
   34.9630   29.3850   34.1640 C   0  0  0  0  0  0  0  0  0  0  0  0
   34.8550   29.6980   32.8160 C   0  0  0  0  0  0  0  0  0  0  0  0
   35.7270   29.0760   31.9140 C   0  0  0  0  0  0  0  0  0  0  0  0
   36.6750   28.1690   32.3620 C   0  0  0  0  0  0  0  0  0  0  0  0
   36.7490   27.8850   33.7120 C   0  0  0  0  0  0  0  0  0  0  0  0
   35.9020   28.4960   34.5450 N   0  0  0  0  0  0  0  0  0  0  0  0
   34.2080   30.3390   32.2400 H   0  0  0  0  0  0  0  0  0  0  0  0
   35.7740   29.2080   30.8460 H   0  0  0  0  0  0  0  0  0  0  0  0
   37.3830   27.6480   31.7340 H   0  0  0  0  0  0  0  0  0  0  0  0
   33.4300   31.9470   36.4330 C   0  0  0  0  0  0  0  0  0  0  0  0
   34.3970   31.2580   35.6450 C   0  0  0  0  0  0  0  0  0  0  0  0
   34.0060   30.1020   34.9650 C   0  0  0  0  0  0  0  0  0  0  0  0
   32.7100   29.7000   35.0980 N   0  0  0  0  0  0  0  0  0  0  0  0
   31.8130   30.3870   35.8610 C   0  0  0  0  0  0  0  0  0  0  0  0
   32.1710   31.4950   36.5200 N   0  0  0  0  0  0  0  0  0  0  0  0
   30.5370   29.7710   35.8380 N   0  0  0  0  0  0  0  0  0  0  0  0
   33.7180   32.8390   36.9630 H   0  0  0  0  0  0  0  0  0  0  0  0
   30.1830   29.7190   36.8250 H   0  0  0  0  0  0  0  0  0  0  0  0
   30.0620   29.4390   34.9640 H   0  0  0  0  0  0  0  0  0  0  0  0
   35.7720   31.8030   35.5880 C   0  0  0  0  0  0  0  0  0  0  0  0
   35.8990   32.9520   36.3750 F   0  0  0  0  0  0  0  0  0  0  0  0
   36.6490   30.8840   36.0450 F   0  0  0  0  0  0  0  0  0  0  0  0
   36.1630   32.1720   34.3020 F   0  0  0  0  0  0  0  0  0  0  0  0
   37.7100   26.9390   34.2650 C   0  0  0  0  0  0  0  0  0  0  0  0
   38.8070   27.2440   35.0370 C   0  0  0  0  0  0  0  0  0  0  0  0
   39.4760   26.0780   35.3740 C   0  0  0  0  0  0  0  0  0  0  0  0
   38.7410   25.0810   34.7760 N   0  0  0  0  0  0  0  0  0  0  0  0
   37.7200   25.6090   34.1380 N   0  0  0  0  0  0  0  0  0  0  0  0
   39.1480   28.2370   35.3680 H   0  0  0  0  0  0  0  0  0  0  0  0
   40.3730   26.0230   35.9730 H   0  0  0  0  0  0  0  0  0  0  0  0
   40.0680   23.4290   35.9890 C   0  0  1  0  0  3  0  0  0  0  0  0
   39.0990   23.6650   34.8770 C   0  0  1  0  0  3  0  0  0  0  0  0
   37.9780   22.8990   35.0720 O   0  0  0  0  0  0  0  0  0  0  0  0
   37.8770   22.6340   36.4200 C   0  0  0  0  0  2  0  0  0  0  0  0
   39.3170   22.4080   36.8340 C   0  0  2  0  0  3  0  0  0  0  0  0
   41.2890   22.9510   35.5290 O   0  0  0  0  0  0  0  0  0  0  0  0
   41.1230   22.3320   34.7750 H   0  0  0  0  0  0  0  0  0  0  0  0
   39.4510   22.6890   38.1790 O   0  0  0  0  0  0  0  0  0  0  0  0
   40.1900   23.3310   38.3210 H   0  0  0  0  0  0  0  0  0  0  0  0
  1  6  1  0  0  0  0
  1 12  1  0  0  0  0
  2  1  2  0  0  0  0
  3  4  2  0  0  0  0
  3  2  1  0  0  0  0
  4  5  1  0  0  0  0
  5 24  1  0  0  0  0
  5  6  2  0  0  0  0
  7  2  1  0  0  0  0
  8  3  1  0  0  0  0
  9  4  1  0  0  0  0
 10 15  1  0  0  0  0
 10 17  1  0  0  0  0
 11 10  2  0  0  0  0
 12 13  2  0  0  0  0
 12 11  1  0  0  0  0
 13 14  1  0  0  0  0
 14 15  2  0  0  0  0
 16 14  1  0  0  0  0
 16 18  1  0  0  0  0
 19 16  1  0  0  0  0
 20 11  1  0  0  0  0
 20 22  1  0  0  0  0
 20 21  1  0  0  0  0
 23 20  1  0  0  0  0
 24 25  1  0  0  0  0
 25 29  1  0  0  0  0
 25 26  2  0  0  0  0
 26 30  1  0  0  0  0
 27 26  1  0  0  0  0
 28 24  2  0  0  0  0
 28 27  1  0  0  0  0
 31 36  1  6  0  0  0
 31 35  1  0  0  0  0
 32 27  1  1  0  0  0
 32 33  1  0  0  0  0
 32 31  1  0  0  0  0
 33 34  1  0  0  0  0
 34 35  1  0  0  0  0
 35 38  1  1  0  0  0
 37 36  1  0  0  0  0
 38 39  1  0  0  0  0
M  END
>  <minimizedAffinity>
-6.69085836

$$$$

 OpenBabel03272508003D

 39 42  0  0  1  0  0  0  0  0999 V2000
   35.1910   29.3860   33.0240 C   0  0  0  0  0  0  0  0  0  0  0  0
   35.6270   29.6000   31.7240 C   0  0  0  0  0  0  0  0  0  0  0  0
   36.7510   28.8970   31.2730 C   0  0  0  0  0  0  0  0  0  0  0  0
   37.4100   28.0100   32.1100 C   0  0  0  0  0  0  0  0  0  0  0  0
   36.9430   27.8260   33.3970 C   0  0  0  0  0  0  0  0  0  0  0  0
   35.8680   28.5120   33.7950 N   0  0  0  0  0  0  0  0  0  0  0  0
   35.2820   30.2070   30.9030 H   0  0  0  0  0  0  0  0  0  0  0  0
   37.2130   28.9490   30.3010 H   0  0  0  0  0  0  0  0  0  0  0  0
   38.2820   27.4320   31.8390 H   0  0  0  0  0  0  0  0  0  0  0  0
   32.9960   32.0590   34.4740 C   0  0  0  0  0  0  0  0  0  0  0  0
   34.1610   31.2960   34.1720 C   0  0  0  0  0  0  0  0  0  0  0  0
   34.0310   30.1780   33.3440 C   0  0  0  0  0  0  0  0  0  0  0  0
   32.7870   29.8830   32.8720 N   0  0  0  0  0  0  0  0  0  0  0  0
   31.6960   30.6380   33.1840 C   0  0  0  0  0  0  0  0  0  0  0  0
   31.8020   31.7120   33.9760 N   0  0  0  0  0  0  0  0  0  0  0  0
   30.5230   30.1290   32.5730 N   0  0  0  0  0  0  0  0  0  0  0  0
   33.0810   32.9230   35.1110 H   0  0  0  0  0  0  0  0  0  0  0  0
   29.7640   30.1040   33.2960 H   0  0  0  0  0  0  0  0  0  0  0  0
   30.4650   29.8400   31.5660 H   0  0  0  0  0  0  0  0  0  0  0  0
   35.4520   31.7260   34.7520 C   0  0  0  0  0  0  0  0  0  0  0  0
   35.9880   30.7420   35.5890 F   0  0  0  0  0  0  0  0  0  0  0  0
   36.3410   31.9640   33.7650 F   0  0  0  0  0  0  0  0  0  0  0  0
   35.3480   32.8780   35.5290 F   0  0  0  0  0  0  0  0  0  0  0  0
   37.5720   26.9080   34.3370 C   0  0  0  0  0  0  0  0  0  0  0  0
   37.8890   27.1700   35.6490 C   0  0  0  0  0  0  0  0  0  0  0  0
   38.4720   26.0480   36.2190 C   0  0  0  0  0  0  0  0  0  0  0  0
   38.4890   25.1220   35.2030 N   0  0  0  0  0  0  0  0  0  0  0  0
   37.9590   25.6470   34.1200 N   0  0  0  0  0  0  0  0  0  0  0  0
   37.7280   28.1020   36.2120 H   0  0  0  0  0  0  0  0  0  0  0  0
   38.8200   25.9750   37.2390 H   0  0  0  0  0  0  0  0  0  0  0  0
   38.3580   23.0570   36.4990 C   0  0  1  0  0  3  0  0  0  0  0  0
   39.0290   23.7720   35.3720 C   0  0  1  0  0  3  0  0  0  0  0  0
   38.8830   23.0480   34.2160 O   0  0  0  0  0  0  0  0  0  0  0  0
   37.7580   22.2640   34.3470 C   0  0  0  0  0  2  0  0  0  0  0  0
   37.8190   21.8190   35.7950 C   0  0  2  0  0  3  0  0  0  0  0  0
   39.2430   22.7480   37.5250 O   0  0  0  0  0  0  0  0  0  0  0  0
   40.1140   22.4990   37.1280 H   0  0  0  0  0  0  0  0  0  0  0  0
   36.5430   21.5220   36.2310 O   0  0  0  0  0  0  0  0  0  0  0  0
   36.3450   22.0140   37.0660 H   0  0  0  0  0  0  0  0  0  0  0  0
  1 12  1  0  0  0  0
  1  6  1  0  0  0  0
  2  1  2  0  0  0  0
  3  2  1  0  0  0  0
  3  4  2  0  0  0  0
  4  5  1  0  0  0  0
  5  6  2  0  0  0  0
  5 24  1  0  0  0  0
  7  2  1  0  0  0  0
  8  3  1  0  0  0  0
  9  4  1  0  0  0  0
 10 17  1  0  0  0  0
 11 10  1  0  0  0  0
 11 20  1  0  0  0  0
 12 11  2  0  0  0  0
 13 14  2  0  0  0  0
 13 12  1  0  0  0  0
 14 15  1  0  0  0  0
 15 10  2  0  0  0  0
 16 14  1  0  0  0  0
 16 18  1  0  0  0  0
 19 16  1  0  0  0  0
 20 23  1  0  0  0  0
 20 21  1  0  0  0  0
 22 20  1  0  0  0  0
 24 25  1  0  0  0  0
 25 29  1  0  0  0  0
 25 26  2  0  0  0  0
 26 30  1  0  0  0  0
 27 26  1  0  0  0  0
 28 24  2  0  0  0  0
 28 27  1  0  0  0  0
 31 36  1  1  0  0  0
 32 27  1  6  0  0  0
 32 31  1  0  0  0  0
 33 34  1  0  0  0  0
 33 32  1  0  0  0  0
 34 35  1  0  0  0  0
 35 38  1  1  0  0  0
 35 31  1  0  0  0  0
 37 36  1  0  0  0  0
 38 39  1  0  0  0  0
M  END
>  <minimizedAffinity>
-6.43518877

$$$$

 OpenBabel03272508003D

 39 42  0  0  1  0  0  0  0  0999 V2000
   38.0560   26.2570   32.9310 C   0  0  0  0  0  0  0  0  0  0  0  0
   39.2040   26.2550   32.1520 C   0  0  0  0  0  0  0  0  0  0  0  0
   39.3470   27.2440   31.1710 C   0  0  0  0  0  0  0  0  0  0  0  0
   38.3620   28.2010   30.9860 C   0  0  0  0  0  0  0  0  0  0  0  0
   37.2340   28.1690   31.7830 C   0  0  0  0  0  0  0  0  0  0  0  0
   37.1300   27.2120   32.7100 N   0  0  0  0  0  0  0  0  0  0  0  0
   40.0910   25.6450   32.1180 H   0  0  0  0  0  0  0  0  0  0  0  0
   40.1690   27.3800   30.4880 H   0  0  0  0  0  0  0  0  0  0  0  0
   38.3950   28.9940   30.2530 H   0  0  0  0  0  0  0  0  0  0  0  0
   38.1490   24.3890   36.1810 C   0  0  0  0  0  0  0  0  0  0  0  0
   38.1550   25.4710   35.2540 C   0  0  0  0  0  0  0  0  0  0  0  0
   38.0500   25.1840   33.8910 C   0  0  0  0  0  0  0  0  0  0  0  0
   37.9470   23.8740   33.5280 N   0  0  0  0  0  0  0  0  0  0  0  0
   37.9460   22.8660   34.4450 C   0  0  0  0  0  0  0  0  0  0  0  0
   38.0460   23.1230   35.7550 N   0  0  0  0  0  0  0  0  0  0  0  0
   37.8280   21.5990   33.8210 N   0  0  0  0  0  0  0  0  0  0  0  0
   38.2300   24.5950   37.2350 H   0  0  0  0  0  0  0  0  0  0  0  0
   38.5420   20.9590   34.2470 H   0  0  0  0  0  0  0  0  0  0  0  0
   37.1330   21.3800   33.0670 H   0  0  0  0  0  0  0  0  0  0  0  0
   38.2730   26.8480   35.7830 C   0  0  0  0  0  0  0  0  0  0  0  0
   37.1550   27.6190   35.4500 F   0  0  0  0  0  0  0  0  0  0  0  0
   38.3730   26.8150   37.1290 F   0  0  0  0  0  0  0  0  0  0  0  0
   39.3780   27.5350   35.2840 F   0  0  0  0  0  0  0  0  0  0  0  0
   36.1560   29.1410   31.6610 C   0  0  0  0  0  0  0  0  0  0  0  0
   36.1360   30.2400   30.8340 C   0  0  0  0  0  0  0  0  0  0  0  0
   34.9400   30.9220   30.9970 C   0  0  0  0  0  0  0  0  0  0  0  0
   34.2600   30.1920   31.9430 N   0  0  0  0  0  0  0  0  0  0  0  0
   34.9900   29.1610   32.3110 N   0  0  0  0  0  0  0  0  0  0  0  0
   36.9150   30.5750   30.1330 H   0  0  0  0  0  0  0  0  0  0  0  0
   34.6580   31.8230   30.4730 H   0  0  0  0  0  0  0  0  0  0  0  0
   32.3410   29.4870   33.2790 C   0  0  1  0  0  3  0  0  0  0  0  0
   32.9270   30.5620   32.4220 C   0  0  1  0  0  3  0  0  0  0  0  0
   32.9800   31.7370   33.1280 O   0  0  0  0  0  0  0  0  0  0  0  0
   33.0190   31.4230   34.4690 C   0  0  0  0  0  2  0  0  0  0  0  0
   32.0700   30.2450   34.5710 C   0  0  2  0  0  3  0  0  0  0  0  0
   31.1900   28.9430   32.7240 O   0  0  0  0  0  0  0  0  0  0  0  0
   30.6770   29.6670   32.2850 H   0  0  0  0  0  0  0  0  0  0  0  0
   32.4140   29.4820   35.6700 O   0  0  0  0  0  0  0  0  0  0  0  0
   32.5290   28.5360   35.4050 H   0  0  0  0  0  0  0  0  0  0  0  0
  1 12  1  0  0  0  0
  2  1  2  0  0  0  0
  3  2  1  0  0  0  0
  4  3  2  0  0  0  0
  4  5  1  0  0  0  0
  5  6  2  0  0  0  0
  6  1  1  0  0  0  0
  7  2  1  0  0  0  0
  8  3  1  0  0  0  0
  9  4  1  0  0  0  0
 10 17  1  0  0  0  0
 11 20  1  0  0  0  0
 11 10  2  0  0  0  0
 12 11  1  0  0  0  0
 13 12  2  0  0  0  0
 13 14  1  0  0  0  0
 14 15  2  0  0  0  0
 15 10  1  0  0  0  0
 16 18  1  0  0  0  0
 16 14  1  0  0  0  0
 19 16  1  0  0  0  0
 20 22  1  0  0  0  0
 21 20  1  0  0  0  0
 23 20  1  0  0  0  0
 24  5  1  0  0  0  0
 24 28  2  0  0  0  0
 25 26  2  0  0  0  0
 25 24  1  0  0  0  0
 26 27  1  0  0  0  0
 27 28  1  0  0  0  0
 29 25  1  0  0  0  0
 30 26  1  0  0  0  0
 31 36  1  6  0  0  0
 31 35  1  0  0  0  0
 32 27  1  1  0  0  0
 32 33  1  0  0  0  0
 32 31  1  0  0  0  0
 33 34  1  0  0  0  0
 34 35  1  0  0  0  0
 35 38  1  1  0  0  0
 37 36  1  0  0  0  0
 39 38  1  0  0  0  0
M  END
>  <minimizedAffinity>
-6.32956505

$$$$

 OpenBabel03272508003D

 39 42  0  0  1  0  0  0  0  0999 V2000
   37.8680   25.2320   32.6230 C   0  0  0  0  0  0  0  0  0  0  0  0
   39.1910   25.3580   32.2220 C   0  0  0  0  0  0  0  0  0  0  0  0
   39.6070   26.5710   31.6610 C   0  0  0  0  0  0  0  0  0  0  0  0
   38.7140   27.6210   31.5100 C   0  0  0  0  0  0  0  0  0  0  0  0
   37.4060   27.4550   31.9220 C   0  0  0  0  0  0  0  0  0  0  0  0
   37.0430   26.2850   32.4540 N   0  0  0  0  0  0  0  0  0  0  0  0
   40.0520   24.7100   32.2500 H   0  0  0  0  0  0  0  0  0  0  0  0
   40.5900   26.8280   31.3020 H   0  0  0  0  0  0  0  0  0  0  0  0
   38.9550   28.5850   31.0870 H   0  0  0  0  0  0  0  0  0  0  0  0
   36.5030   21.7670   33.0550 C   0  0  0  0  0  0  0  0  0  0  0  0
   36.7630   23.0460   32.4820 C   0  0  0  0  0  0  0  0  0  0  0  0
   37.5900   23.9330   33.1760 C   0  0  0  0  0  0  0  0  0  0  0  0
   38.1010   23.5180   34.3700 N   0  0  0  0  0  0  0  0  0  0  0  0
   37.8280   22.2850   34.8860 C   0  0  0  0  0  0  0  0  0  0  0  0
   37.0380   21.4230   34.2340 N   0  0  0  0  0  0  0  0  0  0  0  0
   38.4740   22.0910   36.1310 N   0  0  0  0  0  0  0  0  0  0  0  0
   35.8670   21.0730   32.5320 H   0  0  0  0  0  0  0  0  0  0  0  0
   37.7760   21.6870   36.8010 H   0  0  0  0  0  0  0  0  0  0  0  0
   39.4810   22.3250   36.3120 H   0  0  0  0  0  0  0  0  0  0  0  0
   36.1440   23.3700   31.1790 C   0  0  0  0  0  0  0  0  0  0  0  0
   37.0890   23.8650   30.2740 F   0  0  0  0  0  0  0  0  0  0  0  0
   35.5940   22.2600   30.6430 F   0  0  0  0  0  0  0  0  0  0  0  0
   35.1510   24.3440   31.2700 F   0  0  0  0  0  0  0  0  0  0  0  0
   36.4070   28.5090   31.8070 C   0  0  0  0  0  0  0  0  0  0  0  0
   36.4740   29.6150   30.9920 C   0  0  0  0  0  0  0  0  0  0  0  0
   35.3330   30.3860   31.1590 C   0  0  0  0  0  0  0  0  0  0  0  0
   34.5970   29.7010   32.0970 N   0  0  0  0  0  0  0  0  0  0  0  0
   35.2440   28.6140   32.4560 N   0  0  0  0  0  0  0  0  0  0  0  0
   37.2780   29.8950   30.2950 H   0  0  0  0  0  0  0  0  0  0  0  0
   35.1230   31.3110   30.6440 H   0  0  0  0  0  0  0  0  0  0  0  0
   32.5650   29.0860   33.3030 C   0  0  1  0  0  3  0  0  0  0  0  0
   33.2960   30.1680   32.5770 C   0  0  1  0  0  3  0  0  0  0  0  0
   33.4500   31.2530   33.4030 O   0  0  0  0  0  0  0  0  0  0  0  0
   33.4050   30.8040   34.7040 C   0  0  0  0  0  2  0  0  0  0  0  0
   32.3310   29.7350   34.6600 C   0  0  2  0  0  3  0  0  0  0  0  0
   31.3820   28.7320   32.6660 O   0  0  0  0  0  0  0  0  0  0  0  0
   30.9680   29.5500   32.2910 H   0  0  0  0  0  0  0  0  0  0  0  0
   32.5490   28.8330   35.6820 O   0  0  0  0  0  0  0  0  0  0  0  0
   32.5700   27.9110   35.3230 H   0  0  0  0  0  0  0  0  0  0  0  0
  1 12  1  0  0  0  0
  2  7  1  0  0  0  0
  2  1  2  0  0  0  0
  3  2  1  0  0  0  0
  4  3  2  0  0  0  0
  4  5  1  0  0  0  0
  5  6  2  0  0  0  0
  6  1  1  0  0  0  0
  8  3  1  0  0  0  0
  9  4  1  0  0  0  0
 10 15  1  0  0  0  0
 11 10  2  0  0  0  0
 11 12  1  0  0  0  0
 12 13  2  0  0  0  0
 13 14  1  0  0  0  0
 14 16  1  0  0  0  0
 15 14  2  0  0  0  0
 16 19  1  0  0  0  0
 16 18  1  0  0  0  0
 17 10  1  0  0  0  0
 20 23  1  0  0  0  0
 20 11  1  0  0  0  0
 21 20  1  0  0  0  0
 22 20  1  0  0  0  0
 24  5  1  0  0  0  0
 24 28  2  0  0  0  0
 25 26  2  0  0  0  0
 25 24  1  0  0  0  0
 26 27  1  0  0  0  0
 27 28  1  0  0  0  0
 29 25  1  0  0  0  0
 30 26  1  0  0  0  0
 31 36  1  6  0  0  0
 31 35  1  0  0  0  0
 32 27  1  1  0  0  0
 32 31  1  0  0  0  0
 32 33  1  0  0  0  0
 33 34  1  0  0  0  0
 35 34  1  0  0  0  0
 35 38  1  1  0  0  0
 37 36  1  0  0  0  0
 39 38  1  0  0  0  0
M  END
>  <minimizedAffinity>
-6.29410172

$$$$

 OpenBabel03272508003D

 39 42  0  0  1  0  0  0  0  0999 V2000
   35.3630   29.6830   33.5130 C   0  0  0  0  0  0  0  0  0  0  0  0
   35.7410   30.4420   32.4140 C   0  0  0  0  0  0  0  0  0  0  0  0
   36.5880   29.8630   31.4620 C   0  0  0  0  0  0  0  0  0  0  0  0
   37.0370   28.5600   31.6160 C   0  0  0  0  0  0  0  0  0  0  0  0
   36.6360   27.8380   32.7240 C   0  0  0  0  0  0  0  0  0  0  0  0
   35.8280   28.4210   33.6130 N   0  0  0  0  0  0  0  0  0  0  0  0
   35.5180   31.4400   32.0740 H   0  0  0  0  0  0  0  0  0  0  0  0
   36.9710   30.3130   30.5610 H   0  0  0  0  0  0  0  0  0  0  0  0
   37.6900   28.0420   30.9300 H   0  0  0  0  0  0  0  0  0  0  0  0
   32.2970   31.2280   35.0200 C   0  0  0  0  0  0  0  0  0  0  0  0
   33.1310   30.4990   34.1240 C   0  0  0  0  0  0  0  0  0  0  0  0
   34.4970   30.4120   34.4030 C   0  0  0  0  0  0  0  0  0  0  0  0
   34.9530   31.0360   35.5250 N   0  0  0  0  0  0  0  0  0  0  0  0
   34.1240   31.7250   36.3590 C   0  0  0  0  0  0  0  0  0  0  0  0
   32.8120   31.8190   36.1070 N   0  0  0  0  0  0  0  0  0  0  0  0
   34.8340   32.2810   37.4520 N   0  0  0  0  0  0  0  0  0  0  0  0
   31.2420   31.3040   34.8180 H   0  0  0  0  0  0  0  0  0  0  0  0
   34.5290   33.2780   37.5650 H   0  0  0  0  0  0  0  0  0  0  0  0
   35.5360   31.7510   38.0250 H   0  0  0  0  0  0  0  0  0  0  0  0
   32.5060   29.8690   32.9400 C   0  0  0  0  0  0  0  0  0  0  0  0
   31.1170   29.7860   33.0790 F   0  0  0  0  0  0  0  0  0  0  0  0
   32.7720   30.6010   31.8370 F   0  0  0  0  0  0  0  0  0  0  0  0
   32.9490   28.5680   32.7120 F   0  0  0  0  0  0  0  0  0  0  0  0
   37.0540   26.4630   32.9590 C   0  0  0  0  0  0  0  0  0  0  0  0
   37.6980   25.9820   34.0750 C   0  0  0  0  0  0  0  0  0  0  0  0
   37.9270   24.6220   33.9310 C   0  0  0  0  0  0  0  0  0  0  0  0
   37.3990   24.3200   32.6980 N   0  0  0  0  0  0  0  0  0  0  0  0
   36.8980   25.4070   32.1540 N   0  0  0  0  0  0  0  0  0  0  0  0
   38.0080   26.5410   34.9720 H   0  0  0  0  0  0  0  0  0  0  0  0
   38.4170   23.9910   34.6560 H   0  0  0  0  0  0  0  0  0  0  0  0
   37.4830   21.9350   33.2130 C   0  0  1  0  0  3  0  0  0  0  0  0
   37.4250   22.9690   32.1360 C   0  0  1  0  0  3  0  0  0  0  0  0
   36.3210   22.7540   31.3500 O   0  0  0  0  0  0  0  0  0  0  0  0
   35.3920   22.0720   32.1040 C   0  0  0  0  0  2  0  0  0  0  0  0
   36.2430   21.1060   32.9050 C   0  0  2  0  0  3  0  0  0  0  0  0
   38.6530   21.1880   33.1620 O   0  0  0  0  0  0  0  0  0  0  0  0
   38.8930   21.0390   32.2140 H   0  0  0  0  0  0  0  0  0  0  0  0
   35.5750   20.7700   34.0650 O   0  0  0  0  0  0  0  0  0  0  0  0
   36.1580   20.9210   34.8500 H   0  0  0  0  0  0  0  0  0  0  0  0
  1  6  1  0  0  0  0
  1 12  1  0  0  0  0
  2  1  2  0  0  0  0
  3  4  2  0  0  0  0
  3  2  1  0  0  0  0
  4  5  1  0  0  0  0
  5 24  1  0  0  0  0
  5  6  2  0  0  0  0
  7  2  1  0  0  0  0
  8  3  1  0  0  0  0
  9  4  1  0  0  0  0
 10 15  1  0  0  0  0
 11 12  1  0  0  0  0
 11 10  2  0  0  0  0
 12 13  2  0  0  0  0
 13 14  1  0  0  0  0
 14 16  1  0  0  0  0
 15 14  2  0  0  0  0
 16 18  1  0  0  0  0
 16 19  1  0  0  0  0
 17 10  1  0  0  0  0
 20 21  1  0  0  0  0
 20 11  1  0  0  0  0
 22 20  1  0  0  0  0
 23 20  1  0  0  0  0
 24 25  1  0  0  0  0
 25 29  1  0  0  0  0
 26 25  2  0  0  0  0
 26 30  1  0  0  0  0
 27 26  1  0  0  0  0
 28 27  1  0  0  0  0
 28 24  2  0  0  0  0
 31 36  1  6  0  0  0
 32 27  1  1  0  0  0
 32 31  1  0  0  0  0
 33 34  1  0  0  0  0
 33 32  1  0  0  0  0
 34 35  1  0  0  0  0
 35 31  1  0  0  0  0
 35 38  1  1  0  0  0
 37 36  1  0  0  0  0
 38 39  1  0  0  0  0
M  END
>  <minimizedAffinity>
-6.26423931

$$$$

 OpenBabel03272508003D

 39 42  0  0  1  0  0  0  0  0999 V2000
   37.4760   26.9320   32.8630 C   0  0  0  0  0  0  0  0  0  0  0  0
   37.9100   27.4090   31.6340 C   0  0  0  0  0  0  0  0  0  0  0  0
   37.4020   28.6310   31.1750 C   0  0  0  0  0  0  0  0  0  0  0  0
   36.4870   29.3440   31.9330 C   0  0  0  0  0  0  0  0  0  0  0  0
   36.0820   28.8340   33.1520 C   0  0  0  0  0  0  0  0  0  0  0  0
   36.5860   27.6670   33.5600 N   0  0  0  0  0  0  0  0  0  0  0  0
   38.6060   27.0560   30.8910 H   0  0  0  0  0  0  0  0  0  0  0  0
   37.6340   29.1340   30.2510 H   0  0  0  0  0  0  0  0  0  0  0  0
   36.0490   30.2900   31.6510 H   0  0  0  0  0  0  0  0  0  0  0  0
   39.8140   24.3780   34.3020 C   0  0  0  0  0  0  0  0  0  0  0  0
   39.2350   25.6410   33.9870 C   0  0  0  0  0  0  0  0  0  0  0  0
   38.0810   25.6700   33.1990 C   0  0  0  0  0  0  0  0  0  0  0  0
   37.5760   24.4770   32.7760 N   0  0  0  0  0  0  0  0  0  0  0  0
   38.1590   23.2870   33.0980 C   0  0  0  0  0  0  0  0  0  0  0  0
   39.2650   23.2410   33.8510 N   0  0  0  0  0  0  0  0  0  0  0  0
   37.4490   22.1950   32.5420 N   0  0  0  0  0  0  0  0  0  0  0  0
   40.7030   24.3400   34.9080 H   0  0  0  0  0  0  0  0  0  0  0  0
   38.1440   21.5460   32.0990 H   0  0  0  0  0  0  0  0  0  0  0  0
   36.4050   22.0910   32.5860 H   0  0  0  0  0  0  0  0  0  0  0  0
   39.8860   26.8620   34.5110 C   0  0  0  0  0  0  0  0  0  0  0  0
   41.0000   26.5490   35.2960 F   0  0  0  0  0  0  0  0  0  0  0  0
   40.3010   27.6360   33.4860 F   0  0  0  0  0  0  0  0  0  0  0  0
   39.0480   27.6270   35.3200 F   0  0  0  0  0  0  0  0  0  0  0  0
   35.1310   29.5230   34.0140 C   0  0  0  0  0  0  0  0  0  0  0  0
   35.3760   30.6460   34.7700 C   0  0  0  0  0  0  0  0  0  0  0  0
   34.2250   31.0060   35.4540 C   0  0  0  0  0  0  0  0  0  0  0  0
   33.2980   30.0620   35.0780 N   0  0  0  0  0  0  0  0  0  0  0  0
   33.8510   29.2120   34.2400 N   0  0  0  0  0  0  0  0  0  0  0  0
   36.3150   31.2130   34.8570 H   0  0  0  0  0  0  0  0  0  0  0  0
   34.1330   31.8490   36.1220 H   0  0  0  0  0  0  0  0  0  0  0  0
   31.0590   29.1360   34.7800 C   0  0  1  0  0  3  0  0  0  0  0  0
   31.9210   30.0630   35.5740 C   0  0  1  0  0  3  0  0  0  0  0  0
   31.8870   29.7030   36.8980 O   0  0  0  0  0  0  0  0  0  0  0  0
   31.5660   28.3650   36.9640 C   0  0  0  0  0  2  0  0  0  0  0  0
   30.5340   28.2060   35.8650 C   0  0  2  0  0  3  0  0  0  0  0  0
   30.0430   29.8080   34.1120 O   0  0  0  0  0  0  0  0  0  0  0  0
   29.7140   30.5400   34.6900 H   0  0  0  0  0  0  0  0  0  0  0  0
   30.5330   26.8950   35.4320 O   0  0  0  0  0  0  0  0  0  0  0  0
   30.6370   26.8620   34.4490 H   0  0  0  0  0  0  0  0  0  0  0  0
  1 12  1  0  0  0  0
  1  6  1  0  0  0  0
  2  1  2  0  0  0  0
  3  2  1  0  0  0  0
  3  4  2  0  0  0  0
  4  5  1  0  0  0  0
  5  6  2  0  0  0  0
  5 24  1  0  0  0  0
  7  2  1  0  0  0  0
  8  3  1  0  0  0  0
  9  4  1  0  0  0  0
 10 17  1  0  0  0  0
 11 10  1  0  0  0  0
 11 20  1  0  0  0  0
 12 11  2  0  0  0  0
 13 14  2  0  0  0  0
 13 12  1  0  0  0  0
 14 15  1  0  0  0  0
 15 10  2  0  0  0  0
 16 19  1  0  0  0  0
 16 14  1  0  0  0  0
 18 16  1  0  0  0  0
 20 21  1  0  0  0  0
 20 23  1  0  0  0  0
 22 20  1  0  0  0  0
 24 28  2  0  0  0  0
 24 25  1  0  0  0  0
 25 29  1  0  0  0  0
 25 26  2  0  0  0  0
 26 30  1  0  0  0  0
 27 26  1  0  0  0  0
 28 27  1  0  0  0  0
 31 36  1  1  0  0  0
 31 32  1  0  0  0  0
 31 35  1  0  0  0  0
 32 27  1  6  0  0  0
 32 33  1  0  0  0  0
 33 34  1  0  0  0  0
 35 38  1  6  0  0  0
 35 34  1  0  0  0  0
 36 37  1  0  0  0  0
 39 38  1  0  0  0  0
M  END
>  <minimizedAffinity>
-6.24154091

$$$$

 OpenBabel03272508003D

 39 42  0  0  1  0  0  0  0  0999 V2000
   37.9440   26.2550   32.9900 C   0  0  0  0  0  0  0  0  0  0  0  0
   38.9490   26.1720   32.0360 C   0  0  0  0  0  0  0  0  0  0  0  0
   39.0270   27.1720   31.0600 C   0  0  0  0  0  0  0  0  0  0  0  0
   38.1200   28.2200   31.0500 C   0  0  0  0  0  0  0  0  0  0  0  0
   37.1350   28.2660   32.0170 C   0  0  0  0  0  0  0  0  0  0  0  0
   37.0890   27.2960   32.9340 N   0  0  0  0  0  0  0  0  0  0  0  0
   39.7580   25.4850   31.8510 H   0  0  0  0  0  0  0  0  0  0  0  0
   39.7400   27.2540   30.2560 H   0  0  0  0  0  0  0  0  0  0  0  0
   38.1120   29.0280   30.3330 H   0  0  0  0  0  0  0  0  0  0  0  0
   38.2020   24.3090   36.1850 C   0  0  0  0  0  0  0  0  0  0  0  0
   38.1580   25.4130   35.2860 C   0  0  0  0  0  0  0  0  0  0  0  0
   37.9890   25.1590   33.9220 C   0  0  0  0  0  0  0  0  0  0  0  0
   37.8750   23.8570   33.5320 N   0  0  0  0  0  0  0  0  0  0  0  0
   37.9220   22.8270   34.4240 C   0  0  0  0  0  0  0  0  0  0  0  0
   38.0840   23.0530   35.7330 N   0  0  0  0  0  0  0  0  0  0  0  0
   37.7800   21.5760   33.7750 N   0  0  0  0  0  0  0  0  0  0  0  0
   38.3320   24.4900   37.2380 H   0  0  0  0  0  0  0  0  0  0  0  0
   38.5170   20.9300   34.1510 H   0  0  0  0  0  0  0  0  0  0  0  0
   37.0500   21.3700   33.0500 H   0  0  0  0  0  0  0  0  0  0  0  0
   38.2950   26.7780   35.8420 C   0  0  0  0  0  0  0  0  0  0  0  0
   37.1930   27.5740   35.5150 F   0  0  0  0  0  0  0  0  0  0  0  0
   38.3830   26.7170   37.1870 F   0  0  0  0  0  0  0  0  0  0  0  0
   39.4150   27.4550   35.3640 F   0  0  0  0  0  0  0  0  0  0  0  0
   36.1480   29.3360   32.0840 C   0  0  0  0  0  0  0  0  0  0  0  0
   35.6240   30.0330   31.0200 C   0  0  0  0  0  0  0  0  0  0  0  0
   34.7120   30.9700   31.4820 C   0  0  0  0  0  0  0  0  0  0  0  0
   34.7170   30.8020   32.8470 N   0  0  0  0  0  0  0  0  0  0  0  0
   35.5600   29.8460   33.1700 N   0  0  0  0  0  0  0  0  0  0  0  0
   35.8530   29.9100   29.9500 H   0  0  0  0  0  0  0  0  0  0  0  0
   34.1520   31.6540   30.8630 H   0  0  0  0  0  0  0  0  0  0  0  0
   33.8980   31.0490   35.1330 C   0  0  1  0  0  3  0  0  0  0  0  0
   33.8840   31.6020   33.7450 C   0  0  1  0  0  3  0  0  0  0  0  0
   34.3120   32.9060   33.7650 O   0  0  0  0  0  0  0  0  0  0  0  0
   35.1050   33.0730   34.8780 C   0  0  0  0  0  2  0  0  0  0  0  0
   34.3950   32.2460   35.9320 C   0  0  2  0  0  3  0  0  0  0  0  0
   32.6410   30.6180   35.5390 O   0  0  0  0  0  0  0  0  0  0  0  0
   31.9610   31.2410   35.1790 H   0  0  0  0  0  0  0  0  0  0  0  0
   35.3090   31.8530   36.8900 O   0  0  0  0  0  0  0  0  0  0  0  0
   35.2650   30.8740   37.0200 H   0  0  0  0  0  0  0  0  0  0  0  0
  1 12  1  0  0  0  0
  2  1  2  0  0  0  0
  3  2  1  0  0  0  0
  4  3  2  0  0  0  0
  4  5  1  0  0  0  0
  5 24  1  0  0  0  0
  5  6  2  0  0  0  0
  6  1  1  0  0  0  0
  7  2  1  0  0  0  0
  8  3  1  0  0  0  0
  9  4  1  0  0  0  0
 10 17  1  0  0  0  0
 11 20  1  0  0  0  0
 11 10  2  0  0  0  0
 12 11  1  0  0  0  0
 13 12  2  0  0  0  0
 13 14  1  0  0  0  0
 14 15  2  0  0  0  0
 15 10  1  0  0  0  0
 16 18  1  0  0  0  0
 16 14  1  0  0  0  0
 19 16  1  0  0  0  0
 20 22  1  0  0  0  0
 21 20  1  0  0  0  0
 23 20  1  0  0  0  0
 24 28  2  0  0  0  0
 25 26  2  0  0  0  0
 25 24  1  0  0  0  0
 26 27  1  0  0  0  0
 27 28  1  0  0  0  0
 29 25  1  0  0  0  0
 30 26  1  0  0  0  0
 31 36  1  1  0  0  0
 31 35  1  0  0  0  0
 32 27  1  6  0  0  0
 32 33  1  0  0  0  0
 32 31  1  0  0  0  0
 33 34  1  0  0  0  0
 34 35  1  0  0  0  0
 35 38  1  1  0  0  0
 37 36  1  0  0  0  0
 38 39  1  0  0  0  0
M  END
>  <minimizedAffinity>
-6.23012352

$$$$

 OpenBabel03272508003D

 39 42  0  0  1  0  0  0  0  0999 V2000
   37.6300   25.3340   32.8190 C   0  0  0  0  0  0  0  0  0  0  0  0
   38.6640   25.5110   31.9100 C   0  0  0  0  0  0  0  0  0  0  0  0
   38.8840   26.7920   31.3900 C   0  0  0  0  0  0  0  0  0  0  0  0
   38.0840   27.8570   31.7760 C   0  0  0  0  0  0  0  0  0  0  0  0
   37.0660   27.6390   32.6830 C   0  0  0  0  0  0  0  0  0  0  0  0
   36.8840   26.4050   33.1610 N   0  0  0  0  0  0  0  0  0  0  0  0
   39.4100   24.8630   31.4810 H   0  0  0  0  0  0  0  0  0  0  0  0
   39.6370   27.0950   30.6810 H   0  0  0  0  0  0  0  0  0  0  0  0
   38.1870   28.8720   31.4210 H   0  0  0  0  0  0  0  0  0  0  0  0
   36.6640   21.7160   33.0000 C   0  0  0  0  0  0  0  0  0  0  0  0
   36.7510   23.0610   32.5360 C   0  0  0  0  0  0  0  0  0  0  0  0
   37.5260   23.9690   33.2630 C   0  0  0  0  0  0  0  0  0  0  0  0
   38.1560   23.5090   34.3810 N   0  0  0  0  0  0  0  0  0  0  0  0
   38.0470   22.2130   34.7920 C   0  0  0  0  0  0  0  0  0  0  0  0
   37.3090   21.3300   34.1090 N   0  0  0  0  0  0  0  0  0  0  0  0
   38.7920   21.9830   35.9750 N   0  0  0  0  0  0  0  0  0  0  0  0
   36.0700   21.0050   32.4500 H   0  0  0  0  0  0  0  0  0  0  0  0
   38.1850   21.4470   36.6430 H   0  0  0  0  0  0  0  0  0  0  0  0
   39.7790   22.3080   36.1200 H   0  0  0  0  0  0  0  0  0  0  0  0
   36.0160   23.4290   31.3060 C   0  0  0  0  0  0  0  0  0  0  0  0
   35.1200   24.4760   31.5420 F   0  0  0  0  0  0  0  0  0  0  0  0
   36.8860   23.8290   30.3550 F   0  0  0  0  0  0  0  0  0  0  0  0
   35.2570   22.3820   30.7860 F   0  0  0  0  0  0  0  0  0  0  0  0
   36.1860   28.7020   33.1480 C   0  0  0  0  0  0  0  0  0  0  0  0
   36.0130   29.1120   34.4500 C   0  0  0  0  0  0  0  0  0  0  0  0
   35.0960   30.1510   34.4920 C   0  0  0  0  0  0  0  0  0  0  0  0
   34.7360   30.3390   33.1790 N   0  0  0  0  0  0  0  0  0  0  0  0
   35.3840   29.4840   32.4180 N   0  0  0  0  0  0  0  0  0  0  0  0
   36.4990   28.7160   35.3550 H   0  0  0  0  0  0  0  0  0  0  0  0
   34.7720   30.6620   35.3860 H   0  0  0  0  0  0  0  0  0  0  0  0
   32.8170   30.8130   31.7450 C   0  0  1  0  0  3  0  0  0  0  0  0
   33.7710   31.3560   32.7600 C   0  0  1  0  0  3  0  0  0  0  0  0
   33.0720   31.8290   33.8420 O   0  0  0  0  0  0  0  0  0  0  0  0
   31.8640   31.1670   33.8870 C   0  0  0  0  0  2  0  0  0  0  0  0
   31.4780   31.0600   32.4250 C   0  0  2  0  0  3  0  0  0  0  0  0
   32.9260   31.4630   30.5220 O   0  0  0  0  0  0  0  0  0  0  0  0
   33.0990   32.4230   30.6880 H   0  0  0  0  0  0  0  0  0  0  0  0
   30.6340   29.9800   32.2590 O   0  0  0  0  0  0  0  0  0  0  0  0
   30.9760   29.3890   31.5420 H   0  0  0  0  0  0  0  0  0  0  0  0
  1  6  1  0  0  0  0
  1 12  1  0  0  0  0
  2  1  2  0  0  0  0
  3  4  2  0  0  0  0
  3  2  1  0  0  0  0
  4  5  1  0  0  0  0
  5 24  1  0  0  0  0
  5  6  2  0  0  0  0
  7  2  1  0  0  0  0
  8  3  1  0  0  0  0
  9  4  1  0  0  0  0
 10 15  1  0  0  0  0
 11 10  2  0  0  0  0
 11 12  1  0  0  0  0
 12 13  2  0  0  0  0
 13 14  1  0  0  0  0
 14 16  1  0  0  0  0
 15 14  2  0  0  0  0
 16 19  1  0  0  0  0
 16 18  1  0  0  0  0
 17 10  1  0  0  0  0
 20 21  1  0  0  0  0
 20 11  1  0  0  0  0
 22 20  1  0  0  0  0
 23 20  1  0  0  0  0
 24 25  1  0  0  0  0
 25 26  2  0  0  0  0
 25 29  1  0  0  0  0
 26 30  1  0  0  0  0
 27 26  1  0  0  0  0
 28 24  2  0  0  0  0
 28 27  1  0  0  0  0
 31 36  1  6  0  0  0
 31 35  1  0  0  0  0
 31 32  1  0  0  0  0
 32 27  1  1  0  0  0
 32 33  1  0  0  0  0
 33 34  1  0  0  0  0
 35 38  1  1  0  0  0
 35 34  1  0  0  0  0
 36 37  1  0  0  0  0
 39 38  1  0  0  0  0
M  END
>  <minimizedAffinity>
-6.2270689

$$$$

 OpenBabel03272508003D

 39 42  0  0  1  0  0  0  0  0999 V2000
   35.3910   29.6740   33.3830 C   0  0  0  0  0  0  0  0  0  0  0  0
   35.7940   30.4850   32.3310 C   0  0  0  0  0  0  0  0  0  0  0  0
   36.6350   29.9400   31.3530 C   0  0  0  0  0  0  0  0  0  0  0  0
   37.0530   28.6220   31.4370 C   0  0  0  0  0  0  0  0  0  0  0  0
   36.6290   27.8480   32.5000 C   0  0  0  0  0  0  0  0  0  0  0  0
   35.8270   28.3980   33.4160 N   0  0  0  0  0  0  0  0  0  0  0  0
   35.5950   31.5050   32.0460 H   0  0  0  0  0  0  0  0  0  0  0  0
   37.0340   30.4320   30.4810 H   0  0  0  0  0  0  0  0  0  0  0  0
   37.7000   28.1280   30.7260 H   0  0  0  0  0  0  0  0  0  0  0  0
   32.3360   31.1300   34.9970 C   0  0  0  0  0  0  0  0  0  0  0  0
   33.1590   30.4320   34.0670 C   0  0  0  0  0  0  0  0  0  0  0  0
   34.5350   30.3700   34.3070 C   0  0  0  0  0  0  0  0  0  0  0  0
   35.0080   30.9880   35.4270 N   0  0  0  0  0  0  0  0  0  0  0  0
   34.1870   31.6470   36.2930 C   0  0  0  0  0  0  0  0  0  0  0  0
   32.8680   31.7160   36.0780 N   0  0  0  0  0  0  0  0  0  0  0  0
   34.9160   32.2010   37.3740 N   0  0  0  0  0  0  0  0  0  0  0  0
   31.2740   31.1870   34.8240 H   0  0  0  0  0  0  0  0  0  0  0  0
   34.5930   33.1900   37.5110 H   0  0  0  0  0  0  0  0  0  0  0  0
   35.6440   31.6780   37.9200 H   0  0  0  0  0  0  0  0  0  0  0  0
   32.5160   29.8070   32.8910 C   0  0  0  0  0  0  0  0  0  0  0  0
   31.1260   29.7580   33.0360 F   0  0  0  0  0  0  0  0  0  0  0  0
   32.7950   30.5220   31.7810 F   0  0  0  0  0  0  0  0  0  0  0  0
   32.9270   28.4930   32.6740 F   0  0  0  0  0  0  0  0  0  0  0  0
   37.0150   26.4520   32.6590 C   0  0  0  0  0  0  0  0  0  0  0  0
   36.4770   25.3740   31.9960 C   0  0  0  0  0  0  0  0  0  0  0  0
   37.1060   24.2110   32.4140 C   0  0  0  0  0  0  0  0  0  0  0  0
   38.0260   24.6380   33.3420 N   0  0  0  0  0  0  0  0  0  0  0  0
   37.9520   25.9460   33.4650 N   0  0  0  0  0  0  0  0  0  0  0  0
   35.6750   25.3730   31.2420 H   0  0  0  0  0  0  0  0  0  0  0  0
   36.8810   23.2160   32.0580 H   0  0  0  0  0  0  0  0  0  0  0  0
   39.4450   24.3370   35.3060 C   0  0  1  0  0  3  0  0  0  0  0  0
   38.9220   23.7220   34.0490 C   0  0  1  0  0  3  0  0  0  0  0  0
   38.2740   22.5490   34.3450 O   0  0  0  0  0  0  0  0  0  0  0  0
   37.8460   22.6210   35.6520 C   0  0  0  0  0  2  0  0  0  0  0  0
   38.9940   23.3240   36.3490 C   0  0  2  0  0  3  0  0  0  0  0  0
   40.8250   24.4990   35.2770 O   0  0  0  0  0  0  0  0  0  0  0  0
   41.2250   23.7220   34.8110 H   0  0  0  0  0  0  0  0  0  0  0  0
   38.5150   23.9610   37.4780 O   0  0  0  0  0  0  0  0  0  0  0  0
   38.7880   24.9120   37.4730 H   0  0  0  0  0  0  0  0  0  0  0  0
  1  6  1  0  0  0  0
  1 12  1  0  0  0  0
  2  1  2  0  0  0  0
  3  4  2  0  0  0  0
  3  2  1  0  0  0  0
  4  5  1  0  0  0  0
  5 24  1  0  0  0  0
  5  6  2  0  0  0  0
  7  2  1  0  0  0  0
  8  3  1  0  0  0  0
  9  4  1  0  0  0  0
 10 15  1  0  0  0  0
 11 12  1  0  0  0  0
 11 10  2  0  0  0  0
 12 13  2  0  0  0  0
 13 14  1  0  0  0  0
 14 16  1  0  0  0  0
 15 14  2  0  0  0  0
 16 18  1  0  0  0  0
 16 19  1  0  0  0  0
 17 10  1  0  0  0  0
 20 21  1  0  0  0  0
 20 11  1  0  0  0  0
 22 20  1  0  0  0  0
 23 20  1  0  0  0  0
 24 28  2  0  0  0  0
 25 26  2  0  0  0  0
 25 24  1  0  0  0  0
 26 27  1  0  0  0  0
 27 28  1  0  0  0  0
 29 25  1  0  0  0  0
 30 26  1  0  0  0  0
 31 36  1  6  0  0  0
 31 35  1  0  0  0  0
 32 27  1  1  0  0  0
 32 33  1  0  0  0  0
 32 31  1  0  0  0  0
 33 34  1  0  0  0  0
 34 35  1  0  0  0  0
 35 38  1  1  0  0  0
 37 36  1  0  0  0  0
 39 38  1  0  0  0  0
M  END
>  <minimizedAffinity>
-6.21193504

$$$$
