
 OpenBabel03272503293D

 34 36  0  0  1  0  0  0  0  0999 V2000
   35.4360   29.4460   47.8320 C   0  0  0  0  0  0  0  0  0  0  0  0
   35.2270   30.2210   46.6720 C   0  0  0  0  0  0  0  0  0  0  0  0
   34.1550   29.8480   45.8540 C   0  0  0  0  0  0  0  0  0  0  0  0
   33.3990   28.7690   46.2380 N   0  0  0  0  0  0  0  0  0  0  0  0
   33.6370   28.0690   47.3460 C   0  0  0  0  0  0  0  0  0  0  0  0
   34.6560   28.4040   48.1470 N   0  0  0  0  0  0  0  0  0  0  0  0
   35.8470   31.0680   46.4000 H   0  0  0  0  0  0  0  0  0  0  0  0
   33.9310   30.4000   44.9350 H   0  0  0  0  0  0  0  0  0  0  0  0
   36.5340   29.8320   48.6760 N   0  0  0  0  0  0  0  0  0  0  0  0
   37.6940   30.5920   48.2930 C   0  0  0  0  0  0  0  0  0  0  0  0
   38.0810   31.2900   49.5890 C   0  0  2  0  0  0  0  0  0  0  0  0
   37.0070   30.9370   50.5830 C   0  0  0  0  0  0  0  0  0  0  0  0
   36.6860   29.5340   50.0680 C   0  0  0  0  0  0  0  0  0  0  0  0
   37.3790   31.3970   47.5960 H   0  0  0  0  0  0  0  0  0  0  0  0
   38.4540   29.9090   47.9050 H   0  0  0  0  0  0  0  0  0  0  0  0
   39.0310   30.8340   49.9730 H   0  0  0  0  0  0  0  0  0  0  0  0
   36.1020   31.5470   50.4030 H   0  0  0  0  0  0  0  0  0  0  0  0
   37.3610   30.9210   51.6210 H   0  0  0  0  0  0  0  0  0  0  0  0
   37.5360   28.8650   50.2710 H   0  0  0  0  0  0  0  0  0  0  0  0
   35.7530   29.1500   50.4890 H   0  0  0  0  0  0  0  0  0  0  0  0
   38.2590   32.7600   49.4240 C   0  0  0  0  0  0  0  0  0  0  0  0
   37.0920   33.3640   49.8960 F   0  0  0  0  0  0  0  0  0  0  0  0
   38.2950   33.0230   48.0610 F   0  0  0  0  0  0  0  0  0  0  0  0
   39.3780   33.2580   50.0270 F   0  0  0  0  0  0  0  0  0  0  0  0
   32.6120   26.6770   47.7970 S   0  0  0  0  0  0  0  0  0  0  0  0
   31.5120   24.4960   46.7210 C   0  0  2  0  0  3  0  0  0  0  0  0
   32.3260   25.7200   46.2720 C   0  0  2  0  0  3  0  0  0  0  0  0
   33.5120   25.0750   45.9220 O   0  0  0  0  0  0  0  0  0  0  0  0
   33.8200   24.3470   47.0530 C   0  0  0  0  0  2  0  0  0  0  0  0
   32.5260   23.9210   47.7150 C   0  0  2  0  0  3  0  0  0  0  0  0
   31.3290   23.6570   45.6260 O   0  0  0  0  0  0  0  0  0  0  0  0
   30.8190   22.8530   45.8630 H   0  0  0  0  0  0  0  0  0  0  0  0
   32.4070   22.5620   47.8830 O   0  0  0  0  0  0  0  0  0  0  0  0
   33.2760   22.2280   48.2270 H   0  0  0  0  0  0  0  0  0  0  0  0
  1  6  1  0  0  0  0
  1  9  1  0  0  0  0
  2  1  2  0  0  0  0
  3  4  2  0  0  0  0
  3  2  1  0  0  0  0
  4  5  1  0  0  0  0
  5 25  1  0  0  0  0
  5  6  2  0  0  0  0
  7  2  1  0  0  0  0
  8  3  1  0  0  0  0
  9 13  1  0  0  0  0
 10  9  1  0  0  0  0
 10 11  1  0  0  0  0
 11 16  1  1  0  0  0
 11 12  1  0  0  0  0
 12 18  1  0  0  0  0
 13 19  1  0  0  0  0
 13 20  1  0  0  0  0
 13 12  1  0  0  0  0
 14 10  1  0  0  0  0
 15 10  1  0  0  0  0
 17 12  1  0  0  0  0
 21 11  1  0  0  0  0
 21 22  1  0  0  0  0
 21 24  1  0  0  0  0
 23 21  1  0  0  0  0
 26 31  1  6  0  0  0
 26 30  1  0  0  0  0
 27 26  1  0  0  0  0
 27 25  1  1  0  0  0
 28 27  1  0  0  0  0
 28 29  1  0  0  0  0
 29 30  1  0  0  0  0
 30 33  1  6  0  0  0
 31 32  1  0  0  0  0
 33 34  1  0  0  0  0
M  END
>  <minimizedAffinity>
-5.35559273

>  <minimizedRMSD>
1.82932699

$$$$
