
 OpenBabel03272503293D

 34 36  0  0  1  0  0  0  0  0999 V2000
   35.7310   29.8800   47.5450 C   0  0  0  0  0  0  0  0  0  0  0  0
   35.9010   30.3110   46.2130 C   0  0  0  0  0  0  0  0  0  0  0  0
   34.8700   30.0070   45.3190 C   0  0  0  0  0  0  0  0  0  0  0  0
   33.7850   29.3190   45.8010 N   0  0  0  0  0  0  0  0  0  0  0  0
   33.6700   28.9340   47.0710 C   0  0  0  0  0  0  0  0  0  0  0  0
   34.6420   29.2120   47.9480 N   0  0  0  0  0  0  0  0  0  0  0  0
   36.7750   30.8530   45.8690 H   0  0  0  0  0  0  0  0  0  0  0  0
   34.9310   30.3080   44.2680 H   0  0  0  0  0  0  0  0  0  0  0  0
   36.7880   30.1970   48.4670 N   0  0  0  0  0  0  0  0  0  0  0  0
   38.0100   30.8990   48.1740 C   0  0  0  0  0  0  0  0  0  0  0  0
   38.3440   31.5600   49.5030 C   0  0  2  0  0  0  0  0  0  0  0  0
   37.1880   31.2540   50.4170 C   0  0  0  0  0  0  0  0  0  0  0  0
   36.8300   29.8760   49.8620 C   0  0  0  0  0  0  0  0  0  0  0  0
   37.7850   31.7270   47.4690 H   0  0  0  0  0  0  0  0  0  0  0  0
   38.7570   30.1810   47.8280 H   0  0  0  0  0  0  0  0  0  0  0  0
   39.2400   31.0510   49.9420 H   0  0  0  0  0  0  0  0  0  0  0  0
   36.3310   31.9140   50.1860 H   0  0  0  0  0  0  0  0  0  0  0  0
   37.4700   31.2080   51.4760 H   0  0  0  0  0  0  0  0  0  0  0  0
   37.6280   29.1610   50.1110 H   0  0  0  0  0  0  0  0  0  0  0  0
   35.8520   29.5380   50.2130 H   0  0  0  0  0  0  0  0  0  0  0  0
   38.6100   33.0210   49.3710 C   0  0  0  0  0  0  0  0  0  0  0  0
   37.3810   33.6700   49.5140 F   0  0  0  0  0  0  0  0  0  0  0  0
   39.0090   33.2540   48.0620 F   0  0  0  0  0  0  0  0  0  0  0  0
   39.5480   33.4980   50.2400 F   0  0  0  0  0  0  0  0  0  0  0  0
   32.2270   28.0460   47.6400 S   0  0  0  0  0  0  0  0  0  0  0  0
   32.8100   25.8900   46.1780 C   0  0  2  0  0  3  0  0  0  0  0  0
   32.6720   26.2790   47.6590 C   0  0  2  0  0  3  0  0  0  0  0  0
   31.5350   25.5370   47.9740 O   0  0  0  0  0  0  0  0  0  0  0  0
   30.6270   25.9280   47.0110 C   0  0  0  0  0  2  0  0  0  0  0  0
   31.3840   26.2360   45.7360 C   0  0  2  0  0  3  0  0  0  0  0  0
   33.0590   24.5230   46.0970 O   0  0  0  0  0  0  0  0  0  0  0  0
   33.1460   24.2210   45.1680 H   0  0  0  0  0  0  0  0  0  0  0  0
   30.9640   25.5070   44.6490 O   0  0  0  0  0  0  0  0  0  0  0  0
   29.9720   25.5140   44.6530 H   0  0  0  0  0  0  0  0  0  0  0  0
  1  6  1  0  0  0  0
  1  9  1  0  0  0  0
  2  1  2  0  0  0  0
  3  4  2  0  0  0  0
  3  2  1  0  0  0  0
  4  5  1  0  0  0  0
  5 25  1  0  0  0  0
  5  6  2  0  0  0  0
  7  2  1  0  0  0  0
  8  3  1  0  0  0  0
  9 13  1  0  0  0  0
 10  9  1  0  0  0  0
 10 11  1  0  0  0  0
 11 16  1  1  0  0  0
 11 12  1  0  0  0  0
 12 18  1  0  0  0  0
 13 19  1  0  0  0  0
 13 20  1  0  0  0  0
 13 12  1  0  0  0  0
 14 10  1  0  0  0  0
 15 10  1  0  0  0  0
 17 12  1  0  0  0  0
 21 11  1  0  0  0  0
 21 22  1  0  0  0  0
 21 24  1  0  0  0  0
 23 21  1  0  0  0  0
 26 31  1  1  0  0  0
 26 27  1  0  0  0  0
 27 25  1  6  0  0  0
 27 28  1  0  0  0  0
 29 28  1  0  0  0  0
 30 33  1  6  0  0  0
 30 26  1  0  0  0  0
 30 29  1  0  0  0  0
 32 31  1  0  0  0  0
 33 34  1  0  0  0  0
M  END
>  <minimizedAffinity>
-5.27772045

>  <minimizedRMSD>
1.00535619

$$$$
