
 OpenBabel03262522583D

 25 27  0  0  1  0  0  0  0  0999 V2000
   38.7950   25.4610   35.0190 C   0  0  0  0  0  0  0  0  0  0  0  0
   39.4410   26.6670   34.8050 C   0  0  0  0  0  0  0  0  0  0  0  0
   39.2110   27.0760   33.5180 C   0  0  0  0  0  0  0  0  0  0  0  0
   38.4290   26.1190   32.9630 N   0  0  0  0  0  0  0  0  0  0  0  0
   38.1890   25.1600   33.8690 N   0  0  0  0  0  0  0  0  0  0  0  0
   40.0310   27.1880   35.5540 H   0  0  0  0  0  0  0  0  0  0  0  0
   39.5970   27.9860   33.0850 H   0  0  0  0  0  0  0  0  0  0  0  0
   37.9690   24.2900   38.4000 C   0  0  0  0  0  0  0  0  0  0  0  0
   38.8380   23.1860   38.5460 C   0  0  0  0  0  0  0  0  0  0  0  0
   39.6900   22.8610   37.4870 C   0  0  0  0  0  0  0  0  0  0  0  0
   39.6390   23.6270   36.3670 N   0  0  0  0  0  0  0  0  0  0  0  0
   38.7880   24.6890   36.2550 C   0  0  0  0  0  0  0  0  0  0  0  0
   37.9820   24.9950   37.2620 N   0  0  0  0  0  0  0  0  0  0  0  0
   37.2750   24.6110   39.1750 H   0  0  0  0  0  0  0  0  0  0  0  0
   38.7850   22.6500   39.4900 H   0  0  0  0  0  0  0  0  0  0  0  0
   40.3330   22.0250   37.6190 H   0  0  0  0  0  0  0  0  0  0  0  0
   37.0920   25.0790   31.1750 C   0  0  1  0  0  3  0  0  0  0  0  0
   37.9790   26.2160   31.5900 C   0  0  1  0  0  3  0  0  0  0  0  0
   37.2950   27.4060   31.3510 O   0  0  0  0  0  0  0  0  0  0  0  0
   35.9820   27.0600   31.7340 C   0  0  0  0  0  2  0  0  0  0  0  0
   35.7950   25.8240   30.8450 C   0  0  2  0  0  3  0  0  0  0  0  0
   37.5600   24.4220   30.0230 O   0  0  0  0  0  0  0  0  0  0  0  0
   38.3730   24.9120   29.7400 H   0  0  0  0  0  0  0  0  0  0  0  0
   34.6700   25.0990   31.1640 O   0  0  0  0  0  0  0  0  0  0  0  0
   33.9310   25.3830   30.5500 H   0  0  0  0  0  0  0  0  0  0  0  0
  1 12  1  0  0  0  0
  2  1  1  0  0  0  0
  2  6  1  0  0  0  0
  3  2  2  0  0  0  0
  4  3  1  0  0  0  0
  4  5  1  0  0  0  0
  5  1  2  0  0  0  0
  7  3  1  0  0  0  0
  8  9  1  0  0  0  0
  8 14  1  0  0  0  0
  9 15  1  0  0  0  0
 10 16  1  0  0  0  0
 10  9  2  0  0  0  0
 11 10  1  0  0  0  0
 12 11  2  0  0  0  0
 12 13  1  0  0  0  0
 13  8  2  0  0  0  0
 17 22  1  6  0  0  0
 17 18  1  0  0  0  0
 18  4  1  1  0  0  0
 19 18  1  0  0  0  0
 19 20  1  0  0  0  0
 21 24  1  1  0  0  0
 21 17  1  0  0  0  0
 21 20  1  0  0  0  0
 23 22  1  0  0  0  0
 25 24  1  0  0  0  0
M  END
>  <minimizedAffinity>
-4.94276905

$$$$

 OpenBabel03262522583D

 25 27  0  0  1  0  0  0  0  0999 V2000
   37.9580   22.6600   34.4750 C   0  0  0  0  0  0  0  0  0  0  0  0
   37.8590   23.6310   33.4930 C   0  0  0  0  0  0  0  0  0  0  0  0
   37.4120   23.0530   32.3350 C   0  0  0  0  0  0  0  0  0  0  0  0
   37.2430   21.7400   32.6200 N   0  0  0  0  0  0  0  0  0  0  0  0
   37.5740   21.5180   33.9010 N   0  0  0  0  0  0  0  0  0  0  0  0
   38.1010   24.6800   33.6410 H   0  0  0  0  0  0  0  0  0  0  0  0
   37.2430   23.5830   31.4090 H   0  0  0  0  0  0  0  0  0  0  0  0
   40.0070   22.6550   37.5220 C   0  0  0  0  0  0  0  0  0  0  0  0
   39.1430   23.2720   38.4550 C   0  0  0  0  0  0  0  0  0  0  0  0
   37.8760   23.6790   38.0250 C   0  0  0  0  0  0  0  0  0  0  0  0
   37.5400   23.4590   36.7280 N   0  0  0  0  0  0  0  0  0  0  0  0
   38.3960   22.8600   35.8500 C   0  0  0  0  0  0  0  0  0  0  0  0
   39.5970   22.4750   36.2600 N   0  0  0  0  0  0  0  0  0  0  0  0
   41.0070   22.3090   37.7730 H   0  0  0  0  0  0  0  0  0  0  0  0
   39.5270   23.3930   39.4640 H   0  0  0  0  0  0  0  0  0  0  0  0
   37.2450   24.1420   38.7440 H   0  0  0  0  0  0  0  0  0  0  0  0
   36.7850   19.3790   32.0900 C   0  0  1  0  0  3  0  0  0  0  0  0
   36.7730   20.8040   31.6200 C   0  0  1  0  0  3  0  0  0  0  0  0
   35.4820   21.1070   31.1920 O   0  0  0  0  0  0  0  0  0  0  0  0
   34.7000   20.4370   32.1550 C   0  0  0  0  0  2  0  0  0  0  0  0
   35.2960   19.0310   32.0060 C   0  0  2  0  0  3  0  0  0  0  0  0
   37.5110   18.5350   31.2320 O   0  0  0  0  0  0  0  0  0  0  0  0
   37.8200   19.1040   30.4830 H   0  0  0  0  0  0  0  0  0  0  0  0
   34.8940   18.1700   33.0010 O   0  0  0  0  0  0  0  0  0  0  0  0
   34.1160   17.6400   32.6600 H   0  0  0  0  0  0  0  0  0  0  0  0
  1 12  1  0  0  0  0
  2  6  1  0  0  0  0
  2  1  1  0  0  0  0
  3  4  1  0  0  0  0
  3  2  2  0  0  0  0
  4  5  1  0  0  0  0
  5  1  2  0  0  0  0
  7  3  1  0  0  0  0
  8 14  1  0  0  0  0
  8  9  1  0  0  0  0
  9 15  1  0  0  0  0
 10  9  2  0  0  0  0
 10 16  1  0  0  0  0
 11 10  1  0  0  0  0
 12 13  1  0  0  0  0
 12 11  2  0  0  0  0
 13  8  2  0  0  0  0
 17 22  1  6  0  0  0
 18 17  1  0  0  0  0
 18  4  1  1  0  0  0
 19 18  1  0  0  0  0
 19 20  1  0  0  0  0
 21 17  1  0  0  0  0
 21 20  1  0  0  0  0
 21 24  1  1  0  0  0
 23 22  1  0  0  0  0
 25 24  1  0  0  0  0
M  END
>  <minimizedAffinity>
-4.93227577

$$$$

 OpenBabel03262522583D

 25 27  0  0  1  0  0  0  0  0999 V2000
   38.5610   25.4600   33.6010 C   0  0  0  0  0  0  0  0  0  0  0  0
   39.8540   25.5410   34.0860 C   0  0  0  0  0  0  0  0  0  0  0  0
   40.0350   24.5800   35.0450 C   0  0  0  0  0  0  0  0  0  0  0  0
   38.8530   23.9240   35.1350 N   0  0  0  0  0  0  0  0  0  0  0  0
   37.9810   24.4600   34.2680 N   0  0  0  0  0  0  0  0  0  0  0  0
   40.5930   26.2610   33.7440 H   0  0  0  0  0  0  0  0  0  0  0  0
   40.9540   24.4190   35.5880 H   0  0  0  0  0  0  0  0  0  0  0  0
   38.1240   28.0290   31.0140 C   0  0  0  0  0  0  0  0  0  0  0  0
   36.7730   27.8450   30.6460 C   0  0  0  0  0  0  0  0  0  0  0  0
   36.0350   26.8470   31.2880 C   0  0  0  0  0  0  0  0  0  0  0  0
   36.6580   26.1020   32.2370 N   0  0  0  0  0  0  0  0  0  0  0  0
   37.9660   26.3030   32.5720 C   0  0  0  0  0  0  0  0  0  0  0  0
   38.6630   27.2510   31.9610 N   0  0  0  0  0  0  0  0  0  0  0  0
   38.7680   28.7820   30.5640 H   0  0  0  0  0  0  0  0  0  0  0  0
   36.3870   28.5040   29.8720 H   0  0  0  0  0  0  0  0  0  0  0  0
   35.0200   26.7260   30.9940 H   0  0  0  0  0  0  0  0  0  0  0  0
   39.6490   22.8370   37.1970 C   0  0  1  0  0  3  0  0  0  0  0  0
   38.6680   22.8260   36.0610 C   0  0  1  0  0  3  0  0  0  0  0  0
   37.3830   22.8140   36.6000 O   0  0  0  0  0  0  0  0  0  0  0  0
   37.5290   23.6870   37.6980 C   0  0  0  0  0  2  0  0  0  0  0  0
   38.7080   22.9960   38.3950 C   0  0  2  0  0  3  0  0  0  0  0  0
   40.3530   21.6260   37.3130 O   0  0  0  0  0  0  0  0  0  0  0  0
   39.9900   21.0300   36.6100 H   0  0  0  0  0  0  0  0  0  0  0  0
   39.2550   23.7560   39.4030 O   0  0  0  0  0  0  0  0  0  0  0  0
   38.8520   23.4600   40.2710 H   0  0  0  0  0  0  0  0  0  0  0  0
  1  2  1  0  0  0  0
  1  5  2  0  0  0  0
  2  3  2  0  0  0  0
  3  4  1  0  0  0  0
  3  7  1  0  0  0  0
  5  4  1  0  0  0  0
  6  2  1  0  0  0  0
  8 13  1  0  0  0  0
  9  8  2  0  0  0  0
  9 10  1  0  0  0  0
 10 11  2  0  0  0  0
 11 12  1  0  0  0  0
 12  1  1  0  0  0  0
 13 12  2  0  0  0  0
 14  8  1  0  0  0  0
 15  9  1  0  0  0  0
 16 10  1  0  0  0  0
 17 22  1  1  0  0  0
 17 21  1  0  0  0  0
 18  4  1  6  0  0  0
 18 19  1  0  0  0  0
 18 17  1  0  0  0  0
 19 20  1  0  0  0  0
 20 21  1  0  0  0  0
 21 24  1  1  0  0  0
 23 22  1  0  0  0  0
 24 25  1  0  0  0  0
M  END
>  <minimizedAffinity>
-4.93024635

$$$$

 OpenBabel03262522583D

 25 27  0  0  1  0  0  0  0  0999 V2000
   36.6630   24.5890   31.5260 C   0  0  0  0  0  0  0  0  0  0  0  0
   35.3930   24.1090   31.2550 C   0  0  0  0  0  0  0  0  0  0  0  0
   35.2810   22.8360   31.7490 C   0  0  0  0  0  0  0  0  0  0  0  0
   36.4790   22.5540   32.3150 N   0  0  0  0  0  0  0  0  0  0  0  0
   37.2960   23.6090   32.1740 N   0  0  0  0  0  0  0  0  0  0  0  0
   34.6240   24.6700   30.7320 H   0  0  0  0  0  0  0  0  0  0  0  0
   34.3930   22.2260   31.6770 H   0  0  0  0  0  0  0  0  0  0  0  0
   38.9740   27.3750   30.9080 C   0  0  0  0  0  0  0  0  0  0  0  0
   38.0950   28.3930   30.4780 C   0  0  0  0  0  0  0  0  0  0  0  0
   36.7280   28.1090   30.4060 C   0  0  0  0  0  0  0  0  0  0  0  0
   36.3140   26.8640   30.7550 N   0  0  0  0  0  0  0  0  0  0  0  0
   37.1880   25.9000   31.1680 C   0  0  0  0  0  0  0  0  0  0  0  0
   38.4840   26.1720   31.2360 N   0  0  0  0  0  0  0  0  0  0  0  0
   40.0510   27.5120   30.9920 H   0  0  0  0  0  0  0  0  0  0  0  0
   38.5460   29.3480   30.2250 H   0  0  0  0  0  0  0  0  0  0  0  0
   36.0860   28.8910   30.0780 H   0  0  0  0  0  0  0  0  0  0  0  0
   35.4790   20.5220   33.2820 C   0  0  1  0  0  3  0  0  0  0  0  0
   36.7320   21.2770   32.9480 C   0  0  1  0  0  3  0  0  0  0  0  0
   37.5330   20.4560   32.1570 O   0  0  0  0  0  0  0  0  0  0  0  0
   36.5730   19.8330   31.3330 C   0  0  0  0  0  2  0  0  0  0  0  0
   35.6570   19.2640   32.4250 C   0  0  2  0  0  3  0  0  0  0  0  0
   35.4130   20.1580   34.6380 O   0  0  0  0  0  0  0  0  0  0  0  0
   36.2580   20.4720   35.0480 H   0  0  0  0  0  0  0  0  0  0  0  0
   34.4670   18.7840   31.9310 O   0  0  0  0  0  0  0  0  0  0  0  0
   34.5600   17.7960   31.7990 H   0  0  0  0  0  0  0  0  0  0  0  0
  1  5  2  0  0  0  0
  2  1  1  0  0  0  0
  2  3  2  0  0  0  0
  3  4  1  0  0  0  0
  5  4  1  0  0  0  0
  6  2  1  0  0  0  0
  7  3  1  0  0  0  0
  8 14  1  0  0  0  0
  8 13  1  0  0  0  0
  9  8  2  0  0  0  0
 10  9  1  0  0  0  0
 10 11  2  0  0  0  0
 11 12  1  0  0  0  0
 12 13  2  0  0  0  0
 12  1  1  0  0  0  0
 15  9  1  0  0  0  0
 16 10  1  0  0  0  0
 17 22  1  1  0  0  0
 18  4  1  6  0  0  0
 18 17  1  0  0  0  0
 19 18  1  0  0  0  0
 20 19  1  0  0  0  0
 20 21  1  0  0  0  0
 21 24  1  6  0  0  0
 21 17  1  0  0  0  0
 22 23  1  0  0  0  0
 25 24  1  0  0  0  0
M  END
>  <minimizedAffinity>
-4.89591646

$$$$

 OpenBabel03262522583D

 25 27  0  0  1  0  0  0  0  0999 V2000
   37.4700   22.1600   33.6520 C   0  0  0  0  0  0  0  0  0  0  0  0
   37.7440   23.4310   33.1770 C   0  0  0  0  0  0  0  0  0  0  0  0
   38.4290   24.1290   34.1350 C   0  0  0  0  0  0  0  0  0  0  0  0
   38.5660   23.2810   35.1820 N   0  0  0  0  0  0  0  0  0  0  0  0
   37.9880   22.1080   34.8810 N   0  0  0  0  0  0  0  0  0  0  0  0
   37.4530   23.7940   32.1950 H   0  0  0  0  0  0  0  0  0  0  0  0
   38.7700   25.1480   34.0270 H   0  0  0  0  0  0  0  0  0  0  0  0
   35.2670   19.3130   32.9260 C   0  0  0  0  0  0  0  0  0  0  0  0
   35.4590   19.1440   31.5370 C   0  0  0  0  0  0  0  0  0  0  0  0
   36.3370   20.0050   30.8730 C   0  0  0  0  0  0  0  0  0  0  0  0
   36.9630   20.9650   31.6010 N   0  0  0  0  0  0  0  0  0  0  0  0
   36.7580   21.1040   32.9430 C   0  0  0  0  0  0  0  0  0  0  0  0
   35.9250   20.2860   33.5700 N   0  0  0  0  0  0  0  0  0  0  0  0
   34.6020   18.6870   33.5180 H   0  0  0  0  0  0  0  0  0  0  0  0
   34.9000   18.3400   31.0650 H   0  0  0  0  0  0  0  0  0  0  0  0
   36.4640   19.8600   29.8270 H   0  0  0  0  0  0  0  0  0  0  0  0
   39.2880   22.6030   37.4370 C   0  0  1  0  0  3  0  0  0  0  0  0
   39.2490   23.6810   36.3940 C   0  0  1  0  0  3  0  0  0  0  0  0
   40.5590   24.0850   36.1420 O   0  0  0  0  0  0  0  0  0  0  0  0
   41.2470   22.8550   36.1860 C   0  0  0  0  0  2  0  0  0  0  0  0
   40.7970   22.3810   37.5740 C   0  0  2  0  0  3  0  0  0  0  0  0
   38.7630   23.0260   38.6710 O   0  0  0  0  0  0  0  0  0  0  0  0
   38.5190   23.9780   38.5520 H   0  0  0  0  0  0  0  0  0  0  0  0
   41.1220   21.0690   37.8240 O   0  0  0  0  0  0  0  0  0  0  0  0
   41.9820   21.0510   38.3370 H   0  0  0  0  0  0  0  0  0  0  0  0
  1  5  2  0  0  0  0
  2  1  1  0  0  0  0
  2  3  2  0  0  0  0
  3  4  1  0  0  0  0
  5  4  1  0  0  0  0
  6  2  1  0  0  0  0
  7  3  1  0  0  0  0
  8 14  1  0  0  0  0
  8 13  1  0  0  0  0
  9  8  2  0  0  0  0
 10  9  1  0  0  0  0
 10 11  2  0  0  0  0
 11 12  1  0  0  0  0
 12 13  2  0  0  0  0
 12  1  1  0  0  0  0
 15  9  1  0  0  0  0
 16 10  1  0  0  0  0
 17 21  1  0  0  0  0
 17 22  1  1  0  0  0
 18  4  1  6  0  0  0
 18 17  1  0  0  0  0
 19 20  1  0  0  0  0
 19 18  1  0  0  0  0
 20 21  1  0  0  0  0
 21 24  1  6  0  0  0
 23 22  1  0  0  0  0
 24 25  1  0  0  0  0
M  END
>  <minimizedAffinity>
-4.87485075

$$$$

 OpenBabel03262522583D

 25 27  0  0  1  0  0  0  0  0999 V2000
   37.3820   27.1130   34.4420 C   0  0  0  0  0  0  0  0  0  0  0  0
   38.1800   27.3440   35.5490 C   0  0  0  0  0  0  0  0  0  0  0  0
   38.8450   26.1910   35.8710 C   0  0  0  0  0  0  0  0  0  0  0  0
   38.4480   25.2710   34.9590 N   0  0  0  0  0  0  0  0  0  0  0  0
   37.5730   25.8330   34.1120 N   0  0  0  0  0  0  0  0  0  0  0  0
   38.2520   28.2980   36.0640 H   0  0  0  0  0  0  0  0  0  0  0  0
   39.5370   26.0900   36.6940 H   0  0  0  0  0  0  0  0  0  0  0  0
   35.4580   28.8920   31.8700 C   0  0  0  0  0  0  0  0  0  0  0  0
   34.8690   29.9370   32.6170 C   0  0  0  0  0  0  0  0  0  0  0  0
   35.1400   30.0140   33.9860 C   0  0  0  0  0  0  0  0  0  0  0  0
   35.9580   29.0770   34.5300 N   0  0  0  0  0  0  0  0  0  0  0  0
   36.5130   28.0790   33.7820 C   0  0  0  0  0  0  0  0  0  0  0  0
   36.2550   28.0090   32.4840 N   0  0  0  0  0  0  0  0  0  0  0  0
   35.3000   28.7600   30.8010 H   0  0  0  0  0  0  0  0  0  0  0  0
   34.2310   30.6250   32.0690 H   0  0  0  0  0  0  0  0  0  0  0  0
   34.6840   30.8070   34.5280 H   0  0  0  0  0  0  0  0  0  0  0  0
   39.9210   23.6650   36.1080 C   0  0  1  0  0  3  0  0  0  0  0  0
   38.9530   23.9140   34.9880 C   0  0  1  0  0  3  0  0  0  0  0  0
   37.9240   22.9800   35.0920 O   0  0  0  0  0  0  0  0  0  0  0  0
   37.7380   22.9170   36.4880 C   0  0  0  0  0  2  0  0  0  0  0  0
   39.1780   22.5880   36.9040 C   0  0  2  0  0  3  0  0  0  0  0  0
   41.1480   23.1490   35.6550 O   0  0  0  0  0  0  0  0  0  0  0  0
   41.0550   23.0410   34.6750 H   0  0  0  0  0  0  0  0  0  0  0  0
   39.3820   22.6930   38.2600 O   0  0  0  0  0  0  0  0  0  0  0  0
   39.2890   21.7810   38.6620 H   0  0  0  0  0  0  0  0  0  0  0  0
  1  2  1  0  0  0  0
  2  3  2  0  0  0  0
  2  6  1  0  0  0  0
  3  7  1  0  0  0  0
  4  3  1  0  0  0  0
  5  1  2  0  0  0  0
  5  4  1  0  0  0  0
  8 13  2  0  0  0  0
  8  9  1  0  0  0  0
  9 10  2  0  0  0  0
 10 16  1  0  0  0  0
 10 11  1  0  0  0  0
 12  1  1  0  0  0  0
 12 11  2  0  0  0  0
 13 12  1  0  0  0  0
 14  8  1  0  0  0  0
 15  9  1  0  0  0  0
 17 22  1  6  0  0  0
 17 21  1  0  0  0  0
 18  4  1  1  0  0  0
 18 19  1  0  0  0  0
 18 17  1  0  0  0  0
 19 20  1  0  0  0  0
 20 21  1  0  0  0  0
 21 24  1  1  0  0  0
 23 22  1  0  0  0  0
 24 25  1  0  0  0  0
M  END
>  <minimizedAffinity>
-4.80497742

$$$$

 OpenBabel03262522583D

 25 27  0  0  1  0  0  0  0  0999 V2000
   37.9610   25.2570   34.8530 C   0  0  0  0  0  0  0  0  0  0  0  0
   37.3720   26.5090   34.8350 C   0  0  0  0  0  0  0  0  0  0  0  0
   37.1390   26.8760   33.5360 C   0  0  0  0  0  0  0  0  0  0  0  0
   37.5860   25.8470   32.7770 N   0  0  0  0  0  0  0  0  0  0  0  0
   38.0750   24.8860   33.5760 N   0  0  0  0  0  0  0  0  0  0  0  0
   37.1410   27.0900   35.7230 H   0  0  0  0  0  0  0  0  0  0  0  0
   36.6860   27.8080   33.2330 H   0  0  0  0  0  0  0  0  0  0  0  0
   38.0790   23.9180   38.2700 C   0  0  0  0  0  0  0  0  0  0  0  0
   39.2020   23.0630   38.2100 C   0  0  0  0  0  0  0  0  0  0  0  0
   39.8990   22.9590   37.0030 C   0  0  0  0  0  0  0  0  0  0  0  0
   39.4580   23.6880   35.9450 N   0  0  0  0  0  0  0  0  0  0  0  0
   38.3690   24.5070   36.0340 C   0  0  0  0  0  0  0  0  0  0  0  0
   37.7100   24.6040   37.1810 N   0  0  0  0  0  0  0  0  0  0  0  0
   37.4810   24.0570   39.1700 H   0  0  0  0  0  0  0  0  0  0  0  0
   39.4550   22.5320   39.1230 H   0  0  0  0  0  0  0  0  0  0  0  0
   40.7390   22.3090   36.9810 H   0  0  0  0  0  0  0  0  0  0  0  0
   37.3770   27.2720   30.7800 C   0  0  1  0  0  3  0  0  0  0  0  0
   37.5000   25.8820   31.3320 C   0  0  1  0  0  3  0  0  0  0  0  0
   38.6030   25.2760   30.7330 O   0  0  0  0  0  0  0  0  0  0  0  0
   39.5210   26.3450   30.6830 C   0  0  0  0  0  2  0  0  0  0  0  0
   38.6540   27.3680   29.9390 C   0  0  2  0  0  3  0  0  0  0  0  0
   36.2560   27.4230   29.9450 O   0  0  0  0  0  0  0  0  0  0  0  0
   35.8260   26.5310   29.8990 H   0  0  0  0  0  0  0  0  0  0  0  0
   39.1970   28.6320   29.9390 O   0  0  0  0  0  0  0  0  0  0  0  0
   39.6970   28.7570   29.0810 H   0  0  0  0  0  0  0  0  0  0  0  0
  1 12  1  0  0  0  0
  2  1  1  0  0  0  0
  2  6  1  0  0  0  0
  3  2  2  0  0  0  0
  4  3  1  0  0  0  0
  4  5  1  0  0  0  0
  5  1  2  0  0  0  0
  7  3  1  0  0  0  0
  8 14  1  0  0  0  0
  9  8  1  0  0  0  0
  9 15  1  0  0  0  0
 10  9  2  0  0  0  0
 11 12  2  0  0  0  0
 11 10  1  0  0  0  0
 12 13  1  0  0  0  0
 13  8  2  0  0  0  0
 16 10  1  0  0  0  0
 17 22  1  6  0  0  0
 17 18  1  0  0  0  0
 18  4  1  1  0  0  0
 19 18  1  0  0  0  0
 20 19  1  0  0  0  0
 21 24  1  1  0  0  0
 21 20  1  0  0  0  0
 21 17  1  0  0  0  0
 23 22  1  0  0  0  0
 25 24  1  0  0  0  0
M  END
>  <minimizedAffinity>
-4.78424263

$$$$

 OpenBabel03262522583D

 25 27  0  0  1  0  0  0  0  0999 V2000
   37.6360   26.8510   33.9600 C   0  0  0  0  0  0  0  0  0  0  0  0
   37.6060   27.1000   35.3210 C   0  0  0  0  0  0  0  0  0  0  0  0
   38.1180   26.0180   35.9870 C   0  0  0  0  0  0  0  0  0  0  0  0
   38.4540   25.1220   35.0280 N   0  0  0  0  0  0  0  0  0  0  0  0
   38.1600   25.6310   33.8220 N   0  0  0  0  0  0  0  0  0  0  0  0
   37.2330   28.0180   35.7690 H   0  0  0  0  0  0  0  0  0  0  0  0
   38.2140   25.9460   37.0600 H   0  0  0  0  0  0  0  0  0  0  0  0
   35.6770   29.3250   32.0830 C   0  0  0  0  0  0  0  0  0  0  0  0
   36.3960   29.4060   30.8690 C   0  0  0  0  0  0  0  0  0  0  0  0
   37.5380   28.6140   30.7150 C   0  0  0  0  0  0  0  0  0  0  0  0
   37.8980   27.8040   31.7430 N   0  0  0  0  0  0  0  0  0  0  0  0
   37.1820   27.7470   32.9040 C   0  0  0  0  0  0  0  0  0  0  0  0
   36.1000   28.4990   33.0480 N   0  0  0  0  0  0  0  0  0  0  0  0
   34.7800   29.9070   32.2850 H   0  0  0  0  0  0  0  0  0  0  0  0
   36.0090   30.0920   30.1220 H   0  0  0  0  0  0  0  0  0  0  0  0
   38.0630   28.6930   29.7940 H   0  0  0  0  0  0  0  0  0  0  0  0
   38.3090   23.1320   36.4720 C   0  0  1  0  0  3  0  0  0  0  0  0
   39.0350   23.8390   35.3640 C   0  0  1  0  0  3  0  0  0  0  0  0
   39.0790   22.9850   34.2640 O   0  0  0  0  0  0  0  0  0  0  0  0
   37.7990   22.3950   34.3130 C   0  0  0  0  0  2  0  0  0  0  0  0
   37.8370   21.8660   35.7520 C   0  0  2  0  0  3  0  0  0  0  0  0
   39.1600   22.7770   37.5330 O   0  0  0  0  0  0  0  0  0  0  0  0
   40.0690   23.0620   37.2630 H   0  0  0  0  0  0  0  0  0  0  0  0
   36.6110   21.4280   36.1950 O   0  0  0  0  0  0  0  0  0  0  0  0
   36.5660   20.4370   36.0630 H   0  0  0  0  0  0  0  0  0  0  0  0
  1  2  1  0  0  0  0
  2  6  1  0  0  0  0
  2  3  2  0  0  0  0
  3  7  1  0  0  0  0
  4  3  1  0  0  0  0
  5  1  2  0  0  0  0
  5  4  1  0  0  0  0
  8 14  1  0  0  0  0
  8 13  1  0  0  0  0
  9  8  2  0  0  0  0
 10  9  1  0  0  0  0
 10 11  2  0  0  0  0
 11 12  1  0  0  0  0
 12 13  2  0  0  0  0
 12  1  1  0  0  0  0
 15  9  1  0  0  0  0
 16 10  1  0  0  0  0
 17 22  1  1  0  0  0
 18  4  1  6  0  0  0
 18 17  1  0  0  0  0
 19 20  1  0  0  0  0
 19 18  1  0  0  0  0
 20 21  1  0  0  0  0
 21 24  1  1  0  0  0
 21 17  1  0  0  0  0
 23 22  1  0  0  0  0
 25 24  1  0  0  0  0
M  END
>  <minimizedAffinity>
-4.66159391

$$$$

 OpenBabel03262522583D

 25 27  0  0  1  0  0  0  0  0999 V2000
   37.9540   25.7200   35.2750 C   0  0  0  0  0  0  0  0  0  0  0  0
   37.8420   27.0780   35.5170 C   0  0  0  0  0  0  0  0  0  0  0  0
   37.2690   27.6800   34.4280 C   0  0  0  0  0  0  0  0  0  0  0  0
   37.0390   26.6870   33.5360 N   0  0  0  0  0  0  0  0  0  0  0  0
   37.4530   25.5210   34.0540 N   0  0  0  0  0  0  0  0  0  0  0  0
   38.1620   27.5670   36.4330 H   0  0  0  0  0  0  0  0  0  0  0  0
   37.0630   28.7380   34.3480 H   0  0  0  0  0  0  0  0  0  0  0  0
   38.4750   23.5660   38.2040 C   0  0  0  0  0  0  0  0  0  0  0  0
   39.6170   22.8280   37.8230 C   0  0  0  0  0  0  0  0  0  0  0  0
   40.1890   23.0780   36.5720 C   0  0  0  0  0  0  0  0  0  0  0  0
   39.6140   24.0230   35.7840 N   0  0  0  0  0  0  0  0  0  0  0  0
   38.5100   24.7220   36.1800 C   0  0  0  0  0  0  0  0  0  0  0  0
   37.9700   24.4820   37.3670 N   0  0  0  0  0  0  0  0  0  0  0  0
   37.9690   23.4340   39.1580 H   0  0  0  0  0  0  0  0  0  0  0  0
   39.9840   22.0980   38.5390 H   0  0  0  0  0  0  0  0  0  0  0  0
   41.0470   22.5090   36.3060 H   0  0  0  0  0  0  0  0  0  0  0  0
   36.7670   28.3130   31.7070 C   0  0  1  0  0  3  0  0  0  0  0  0
   36.4330   26.9540   32.2480 C   0  0  1  0  0  3  0  0  0  0  0  0
   36.8020   26.0070   31.2950 O   0  0  0  0  0  0  0  0  0  0  0  0
   38.0130   26.5480   30.8140 C   0  0  0  0  0  2  0  0  0  0  0  0
   37.5090   27.9430   30.4200 C   0  0  2  0  0  3  0  0  0  0  0  0
   35.6200   29.0620   31.3870 O   0  0  0  0  0  0  0  0  0  0  0  0
   34.8470   28.4730   31.5730 H   0  0  0  0  0  0  0  0  0  0  0  0
   38.5280   28.8170   30.1230 O   0  0  0  0  0  0  0  0  0  0  0  0
   38.6570   28.8220   29.1300 H   0  0  0  0  0  0  0  0  0  0  0  0
  1  2  1  0  0  0  0
  1 12  1  0  0  0  0
  2  6  1  0  0  0  0
  3  2  2  0  0  0  0
  4  5  1  0  0  0  0
  4  3  1  0  0  0  0
  5  1  2  0  0  0  0
  7  3  1  0  0  0  0
  8 14  1  0  0  0  0
  9  8  1  0  0  0  0
  9 15  1  0  0  0  0
 10  9  2  0  0  0  0
 11 12  2  0  0  0  0
 11 10  1  0  0  0  0
 12 13  1  0  0  0  0
 13  8  2  0  0  0  0
 16 10  1  0  0  0  0
 17 22  1  6  0  0  0
 17 18  1  0  0  0  0
 18  4  1  1  0  0  0
 19 18  1  0  0  0  0
 20 19  1  0  0  0  0
 21 24  1  1  0  0  0
 21 20  1  0  0  0  0
 21 17  1  0  0  0  0
 22 23  1  0  0  0  0
 25 24  1  0  0  0  0
M  END
>  <minimizedAffinity>
-4.65995741

$$$$
