
 OpenBabel03272504163D

 26 27  0  0  1  0  0  0  0  0999 V2000
   35.0980   29.5680   46.3140 O   0  0  0  0  0  0  0  0  0  0  0  0
   34.3030   29.3350   47.5640 P   0  0  1  0  0  0  0  0  0  0  0  0
   34.6610   27.8410   48.2820 O   0  0  0  0  0  0  0  0  0  0  0  0
   35.6140   27.6160   48.0570 H   0  0  0  0  0  0  0  0  0  0  0  0
   34.6200   30.5270   48.7720 O   0  0  0  0  0  0  0  0  0  0  0  0
   35.8560   30.6160   49.3980 C   0  0  0  0  0  0  0  0  0  0  0  0
   36.2320   29.9830   50.5810 C   0  0  0  0  0  0  0  0  0  0  0  0
   37.5080   30.1800   51.0700 C   0  0  0  0  0  0  0  0  0  0  0  0
   38.3670   30.9890   50.3860 N   0  0  0  0  0  0  0  0  0  0  0  0
   37.9660   31.5930   49.2330 C   0  0  0  0  0  0  0  0  0  0  0  0
   36.7110   31.4090   48.7360 N   0  0  0  0  0  0  0  0  0  0  0  0
   37.7520   29.6680   51.9910 H   0  0  0  0  0  0  0  0  0  0  0  0
   38.6700   32.2260   48.7170 H   0  0  0  0  0  0  0  0  0  0  0  0
   35.2200   29.1810   51.1620 N   0  0  0  0  0  0  0  0  0  0  0  0
   35.0750   28.1330   51.0540 H   0  0  0  0  0  0  0  0  0  0  0  0
   34.5660   29.7290   51.7560 H   0  0  0  0  0  0  0  0  0  0  0  0
   32.6670   29.4110   47.1250 O   0  0  0  0  0  0  0  0  0  0  0  0
   30.8430   27.8800   46.6550 C   0  0  1  0  0  0  0  0  0  0  0  0
   32.1520   28.1300   47.3180 C   0  0  2  0  0  0  0  0  0  0  0  0
   31.9710   27.9990   48.6900 O   0  0  0  0  0  0  0  0  0  0  0  0
   30.8660   27.1770   48.8700 C   0  0  0  0  0  0  0  0  0  0  0  0
   29.9030   27.7670   47.8340 C   0  0  2  0  0  0  0  0  0  0  0  0
   30.4540   28.8790   45.7700 O   0  0  0  0  0  0  0  0  0  0  0  0
   29.5490   28.5850   45.4360 H   0  0  0  0  0  0  0  0  0  0  0  0
   28.8620   26.8630   47.5510 O   0  0  0  0  0  0  0  0  0  0  0  0
   28.1870   26.9380   48.2700 H   0  0  0  0  0  0  0  0  0  0  0  0
  2  1  2  6  0  0  0
  2  3  1  0  0  0  0
  2  5  1  0  0  0  0
  4  3  1  0  0  0  0
  5  6  1  0  0  0  0
  6  7  1  0  0  0  0
  7  8  2  0  0  0  0
  7 14  1  0  0  0  0
  8 12  1  0  0  0  0
  9  8  1  0  0  0  0
 10  9  2  0  0  0  0
 11 10  1  0  0  0  0
 11  6  2  0  0  0  0
 13 10  1  0  0  0  0
 14 16  1  0  0  0  0
 15 14  1  0  0  0  0
 17  2  1  0  0  0  0
 18 23  1  6  0  0  0
 18 19  1  0  0  0  0
 18 22  1  0  0  0  0
 19 17  1  1  0  0  0
 19 20  1  0  0  0  0
 20 21  1  0  0  0  0
 22 25  1  6  0  0  0
 22 21  1  0  0  0  0
 24 23  1  0  0  0  0
 25 26  1  0  0  0  0
M  END
>  <minimizedAffinity>
-4.27442503

>  <minimizedRMSD>
2.12193465

$$$$
