
 OpenBabel03272509453D

 19 20  0  0  1  0  0  0  0  0999 V2000
   35.4300   28.7510   48.2150 O   0  0  0  0  0  0  0  0  0  0  0  0
   37.0900   29.9840   51.2080 C   0  0  0  0  0  0  0  0  0  0  0  0
   38.0500   30.8190   50.5910 C   0  0  0  0  0  0  0  0  0  0  0  0
   38.0820   30.9190   49.1980 C   0  0  0  0  0  0  0  0  0  0  0  0
   37.1590   30.1840   48.4960 N   0  0  0  0  0  0  0  0  0  0  0  0
   36.2550   29.3950   49.1120 C   0  0  0  0  0  0  0  0  0  0  0  0
   36.2270   29.3010   50.4650 N   0  0  0  0  0  0  0  0  0  0  0  0
   37.0480   29.8910   52.2850 H   0  0  0  0  0  0  0  0  0  0  0  0
   38.7560   31.3770   51.2170 H   0  0  0  0  0  0  0  0  0  0  0  0
   38.7900   31.5380   48.7040 H   0  0  0  0  0  0  0  0  0  0  0  0
   33.0220   28.9980   47.8860 C   0  0  2  0  0  3  0  0  0  0  0  0
   34.1360   28.4290   48.7020 C   0  0  1  0  0  3  0  0  0  0  0  0
   34.0100   27.0490   48.5630 O   0  0  0  0  0  0  0  0  0  0  0  0
   33.8780   26.9000   47.1820 C   0  0  0  0  0  2  0  0  0  0  0  0
   32.7750   27.8850   46.8620 C   0  0  2  0  0  3  0  0  0  0  0  0
   33.3200   30.2030   47.2830 O   0  0  0  0  0  0  0  0  0  0  0  0
   32.5510   30.8290   47.4650 H   0  0  0  0  0  0  0  0  0  0  0  0
   32.9530   28.3820   45.5710 O   0  0  0  0  0  0  0  0  0  0  0  0
   33.8750   28.1420   45.2410 H   0  0  0  0  0  0  0  0  0  0  0  0
  1  6  1  0  0  0  0
  2  8  1  0  0  0  0
  3  2  1  0  0  0  0
  3  9  1  0  0  0  0
  4  3  2  0  0  0  0
  5  6  2  0  0  0  0
  5  4  1  0  0  0  0
  6  7  1  0  0  0  0
  7  2  2  0  0  0  0
 10  4  1  0  0  0  0
 11 16  1  6  0  0  0
 11 12  1  0  0  0  0
 12  1  1  6  0  0  0
 13 12  1  0  0  0  0
 14 13  1  0  0  0  0
 15 18  1  6  0  0  0
 15 14  1  0  0  0  0
 15 11  1  0  0  0  0
 16 17  1  0  0  0  0
 19 18  1  0  0  0  0
M  END
>  <minimizedAffinity>
-3.68501735

>  <minimizedRMSD>
2.4033432

$$$$
