
 OpenBabel03262521053D

 36 37  0  0  1  0  0  0  0  0999 V2000
   37.6100   31.4550   46.9880 Br  0  0  0  0  0 10  0  0  0  0  0  0
   36.0610   30.3910   46.8860 C   0  0  0  0  0  0  0  0  0  0  0  0
   35.6810   29.7930   48.0420 C   0  0  0  0  0  0  0  0  0  0  0  0
   34.5350   28.9790   48.0570 C   0  0  0  0  0  0  0  0  0  0  0  0
   33.8100   28.8020   46.8870 C   0  0  0  0  0  0  0  0  0  0  0  0
   34.2500   29.4320   45.7680 C   0  0  0  0  0  0  0  0  0  0  0  0
   35.3700   30.2330   45.7310 C   0  0  0  0  0  0  0  0  0  0  0  0
   34.1690   28.4720   48.9340 H   0  0  0  0  0  0  0  0  0  0  0  0
   32.9220   28.1780   46.8810 H   0  0  0  0  0  0  0  0  0  0  0  0
   33.6880   29.2960   44.8530 H   0  0  0  0  0  0  0  0  0  0  0  0
   37.5820   30.4270   49.5870 C   0  0  0  0  0  0  0  0  0  0  0  0
   36.3290   29.8720   49.3650 C   0  0  0  0  0  0  0  0  0  0  0  0
   35.6220   29.3440   50.4880 C   0  0  0  0  0  0  0  0  0  0  0  0
   36.2470   29.4330   51.6970 N   0  0  0  0  0  0  0  0  0  0  0  0
   37.4580   29.9800   51.8480 C   0  0  0  0  0  0  0  0  0  0  0  0
   38.1360   30.4800   50.8120 N   0  0  0  0  0  0  0  0  0  0  0  0
   38.0810   30.8170   48.6930 H   0  0  0  0  0  0  0  0  0  0  0  0
   34.6480   28.9030   50.3710 H   0  0  0  0  0  0  0  0  0  0  0  0
   37.9650   30.0560   52.8050 H   0  0  0  0  0  0  0  0  0  0  0  0
   35.8410   30.8970   44.5650 N   0  0  0  0  0  0  0  0  0  0  0  0
   36.1200   31.8880   44.7600 H   0  0  0  0  0  0  0  0  0  0  0  0
   36.0350   30.3980   42.9510 S   0  0  0  0  0  0  0  0  0  0  0  0
   34.9080   30.8580   42.0930 O   0  0  0  0  0  0  0  0  0  0  0  0
   34.7530   31.7290   41.6740 H   0  0  0  0  0  0  0  0  0  0  0  0
   36.0800   28.8910   42.8910 O   0  0  0  0  0  0  0  0  0  0  0  0
   35.3730   28.2660   42.6120 H   0  0  0  0  0  0  0  0  0  0  0  0
   37.4880   31.0380   42.3670 O   0  0  0  0  0  0  0  0  0  0  0  0
   39.1860   30.1790   43.7140 C   0  0  2  0  0  0  0  0  0  0  0  0
   38.5120   30.1190   42.3590 C   0  0  2  0  0  0  0  0  0  0  0  0
   39.4760   30.6200   41.4560 O   0  0  0  0  0  0  0  0  0  0  0  0
   39.8730   31.7840   42.1460 C   0  0  0  0  0  0  0  0  0  0  0  0
   40.3180   31.1670   43.4590 C   0  0  1  0  0  0  0  0  0  0  0  0
   39.6430   28.9460   44.1400 O   0  0  0  0  0  0  0  0  0  0  0  0
   39.6710   28.9890   45.1350 H   0  0  0  0  0  0  0  0  0  0  0  0
   40.4140   32.1150   44.4740 O   0  0  0  0  0  0  0  0  0  0  0  0
   40.8170   31.6280   45.2480 H   0  0  0  0  0  0  0  0  0  0  0  0
  2  3  1  0  0  0  0
  3  4  2  0  0  0  0
  3 12  1  0  0  0  0
  4  8  1  0  0  0  0
  5  4  1  0  0  0  0
  6  5  2  0  0  0  0
  7  6  1  0  0  0  0
  7  2  2  0  0  0  0
  9  5  1  0  0  0  0
 10  6  1  0  0  0  0
 11 16  1  0  0  0  0
 12 11  2  0  0  0  0
 12 13  1  0  0  0  0
 13 14  2  0  0  0  0
 14 15  1  0  0  0  0
 15 19  1  0  0  0  0
 16 15  2  0  0  0  0
 17 11  1  0  0  0  0
 18 13  1  0  0  0  0
 20 21  1  0  0  0  0
 20  7  1  0  0  0  0
 22 20  1  0  0  0  0
 23 22  1  0  0  0  0
 24 23  1  0  0  0  0
 25 22  1  0  0  0  0
 26 25  1  0  0  0  0
 27 22  1  0  0  0  0
 28 33  1  6  0  0  0
 29 27  1  1  0  0  0
 29 28  1  0  0  0  0
 30 31  1  0  0  0  0
 30 29  1  0  0  0  0
 31 32  1  0  0  0  0
 32 28  1  0  0  0  0
 32 35  1  1  0  0  0
 33 34  1  0  0  0  0
 35 36  1  0  0  0  0
M  END
>  <minimizedAffinity>
-5.54001236

>  <minimizedRMSD>
4.19668436

$$$$
