
 OpenBabel03272504583D

 33 35  0  0  1  0  0  0  0  0999 V2000
   37.1020   23.2800   31.6060 C   0  0  1  0  0  0  0  0  0  0  0  0
   36.2730   24.4210   31.2880 C   0  0  0  0  0  0  0  0  0  0  0  0
   37.0590   24.3980   32.5510 C   0  0  2  0  0  0  0  0  0  0  0  0
   38.1370   23.1140   31.1440 H   0  0  0  0  0  0  0  0  0  0  0  0
   36.5180   24.7150   30.2900 H   0  0  0  0  0  0  0  0  0  0  0  0
   35.1770   24.2760   31.4000 H   0  0  0  0  0  0  0  0  0  0  0  0
   36.4170   24.5620   33.3960 H   0  0  0  0  0  0  0  0  0  0  0  0
   36.4840   21.9880   32.0590 C   0  0  0  0  0  0  0  0  0  0  0  0
   36.1600   21.0680   31.0330 C   0  0  0  0  0  0  0  0  0  0  0  0
   35.5810   19.8980   31.4680 C   0  0  0  0  0  0  0  0  0  0  0  0
   35.3630   19.6990   32.8100 N   0  0  0  0  0  0  0  0  0  0  0  0
   35.6930   20.6130   33.7520 C   0  0  0  0  0  0  0  0  0  0  0  0
   36.2700   21.7870   33.3490 N   0  0  0  0  0  0  0  0  0  0  0  0
   35.4660   20.4250   35.1230 N   0  0  0  0  0  0  0  0  0  0  0  0
   36.3350   21.2320   29.9830 H   0  0  0  0  0  0  0  0  0  0  0  0
   35.2770   19.0990   30.8110 H   0  0  0  0  0  0  0  0  0  0  0  0
   34.4410   20.6680   35.1910 H   0  0  0  0  0  0  0  0  0  0  0  0
   36.2990   20.1240   35.6570 H   0  0  0  0  0  0  0  0  0  0  0  0
   38.2020   25.2110   32.5680 O   0  0  0  0  0  0  0  0  0  0  0  0
   39.3990   27.0010   33.9760 O   0  0  0  0  0  0  0  0  0  0  0  0
   38.4630   25.8380   34.0920 P   0  0  1  0  0  0  0  0  0  0  0  0
   36.9960   26.4880   34.7030 O   0  0  0  0  0  0  0  0  0  0  0  0
   36.9940   27.4500   34.7730 H   0  0  0  0  0  0  0  0  0  0  0  0
   39.0440   24.6130   35.0890 O   0  0  0  0  0  0  0  0  0  0  0  0
   38.4960   22.8990   36.6290 C   0  0  1  0  0  3  0  0  0  0  0  0
   38.1900   24.2570   36.1090 C   0  0  1  0  0  3  0  0  0  0  0  0
   38.1810   25.1450   37.1630 O   0  0  0  0  0  0  0  0  0  0  0  0
   37.9580   24.4330   38.3260 C   0  0  0  0  0  2  0  0  0  0  0  0
   38.5390   23.0580   38.1220 C   0  0  2  0  0  3  0  0  0  0  0  0
   37.4670   21.9770   36.3410 O   0  0  0  0  0  0  0  0  0  0  0  0
   37.4270   21.8480   35.3560 H   0  0  0  0  0  0  0  0  0  0  0  0
   39.8550   23.0180   38.5770 O   0  0  0  0  0  0  0  0  0  0  0  0
   39.8690   22.4790   39.4240 H   0  0  0  0  0  0  0  0  0  0  0  0
  1  4  1  6  0  0  0
  1  8  1  0  0  0  0
  1  3  1  0  0  0  0
  2  6  1  0  0  0  0
  2  1  1  0  0  0  0
  2  3  1  0  0  0  0
  3 19  1  0  0  0  0
  3  7  1  1  0  0  0
  5  2  1  0  0  0  0
  8 13  1  0  0  0  0
  9 10  1  0  0  0  0
  9  8  2  0  0  0  0
 10 11  2  0  0  0  0
 11 12  1  0  0  0  0
 12 14  1  0  0  0  0
 13 12  2  0  0  0  0
 14 17  1  0  0  0  0
 14 18  1  0  0  0  0
 15  9  1  0  0  0  0
 16 10  1  0  0  0  0
 19 21  1  0  0  0  0
 21 20  2  6  0  0  0
 21 22  1  0  0  0  0
 21 24  1  0  0  0  0
 22 23  1  0  0  0  0
 25 30  1  1  0  0  0
 25 29  1  0  0  0  0
 26 24  1  6  0  0  0
 26 25  1  0  0  0  0
 26 27  1  0  0  0  0
 27 28  1  0  0  0  0
 29 28  1  0  0  0  0
 29 32  1  6  0  0  0
 31 30  1  0  0  0  0
 32 33  1  0  0  0  0
M  END
>  <minimizedAffinity>
-5.58384562

$$$$

 OpenBabel03272504583D

 33 35  0  0  1  0  0  0  0  0999 V2000
   36.3930   27.8030   33.2300 C   0  0  1  0  0  0  0  0  0  0  0  0
   36.9770   27.3810   31.9760 C   0  0  0  0  0  0  0  0  0  0  0  0
   37.8230   27.4860   33.1950 C   0  0  2  0  0  0  0  0  0  0  0  0
   35.7880   27.1000   33.9020 H   0  0  0  0  0  0  0  0  0  0  0  0
   36.3570   26.5990   31.5920 H   0  0  0  0  0  0  0  0  0  0  0  0
   37.1280   28.1770   31.2140 H   0  0  0  0  0  0  0  0  0  0  0  0
   38.6660   28.1260   33.0120 H   0  0  0  0  0  0  0  0  0  0  0  0
   36.0250   29.2410   33.4570 C   0  0  0  0  0  0  0  0  0  0  0  0
   35.8110   30.0130   32.2890 C   0  0  0  0  0  0  0  0  0  0  0  0
   35.4890   31.3310   32.5190 C   0  0  0  0  0  0  0  0  0  0  0  0
   35.3970   31.7990   33.8070 N   0  0  0  0  0  0  0  0  0  0  0  0
   35.6110   31.0170   34.8910 C   0  0  0  0  0  0  0  0  0  0  0  0
   35.9330   29.7010   34.6940 N   0  0  0  0  0  0  0  0  0  0  0  0
   35.5300   31.4860   36.2100 N   0  0  0  0  0  0  0  0  0  0  0  0
   35.8850   29.6370   31.2830 H   0  0  0  0  0  0  0  0  0  0  0  0
   35.2980   32.0460   31.7350 H   0  0  0  0  0  0  0  0  0  0  0  0
   36.4710   31.9550   36.3140 H   0  0  0  0  0  0  0  0  0  0  0  0
   34.6410   31.2650   36.6900 H   0  0  0  0  0  0  0  0  0  0  0  0
   38.1810   26.2690   33.7910 O   0  0  0  0  0  0  0  0  0  0  0  0
   40.5520   27.1820   34.1960 O   0  0  0  0  0  0  0  0  0  0  0  0
   39.4210   26.4840   34.8870 P   0  0  1  0  0  0  0  0  0  0  0  0
   38.9090   27.5540   36.1280 O   0  0  0  0  0  0  0  0  0  0  0  0
   39.3480   28.4120   36.1090 H   0  0  0  0  0  0  0  0  0  0  0  0
   39.8510   24.9850   35.5190 O   0  0  0  0  0  0  0  0  0  0  0  0
   39.2810   23.0780   36.8020 C   0  0  1  0  0  3  0  0  0  0  0  0
   38.8030   24.2780   36.0670 C   0  0  1  0  0  3  0  0  0  0  0  0
   38.0060   25.0260   36.9050 O   0  0  0  0  0  0  0  0  0  0  0  0
   37.5320   24.1970   37.9030 C   0  0  0  0  0  2  0  0  0  0  0  0
   38.5720   23.1310   38.1260 C   0  0  2  0  0  3  0  0  0  0  0  0
   38.8880   21.8790   36.1710 O   0  0  0  0  0  0  0  0  0  0  0  0
   39.3530   21.8160   35.2950 H   0  0  0  0  0  0  0  0  0  0  0  0
   39.4530   23.5200   39.1330 O   0  0  0  0  0  0  0  0  0  0  0  0
   39.2590   22.9580   39.9430 H   0  0  0  0  0  0  0  0  0  0  0  0
  1  8  1  0  0  0  0
  1  4  1  1  0  0  0
  2  3  1  0  0  0  0
  2  1  1  0  0  0  0
  3  7  1  1  0  0  0
  3  1  1  0  0  0  0
  3 19  1  0  0  0  0
  5  2  1  0  0  0  0
  6  2  1  0  0  0  0
  8 13  1  0  0  0  0
  9 10  1  0  0  0  0
  9  8  2  0  0  0  0
 10 11  2  0  0  0  0
 11 12  1  0  0  0  0
 12 14  1  0  0  0  0
 13 12  2  0  0  0  0
 14 17  1  0  0  0  0
 14 18  1  0  0  0  0
 15  9  1  0  0  0  0
 16 10  1  0  0  0  0
 19 21  1  0  0  0  0
 21 20  2  6  0  0  0
 21 24  1  0  0  0  0
 21 22  1  0  0  0  0
 23 22  1  0  0  0  0
 25 30  1  6  0  0  0
 25 29  1  0  0  0  0
 26 24  1  1  0  0  0
 26 25  1  0  0  0  0
 26 27  1  0  0  0  0
 27 28  1  0  0  0  0
 28 29  1  0  0  0  0
 29 32  1  1  0  0  0
 31 30  1  0  0  0  0
 32 33  1  0  0  0  0
M  END
>  <minimizedAffinity>
-5.41731644

$$$$

 OpenBabel03272504583D

 33 35  0  0  1  0  0  0  0  0999 V2000
   36.4220   27.5770   32.2310 C   0  0  1  0  0  0  0  0  0  0  0  0
   36.3640   26.1520   31.9860 C   0  0  0  0  0  0  0  0  0  0  0  0
   37.4480   26.7210   32.8320 C   0  0  2  0  0  0  0  0  0  0  0  0
   35.7600   28.1030   33.0030 H   0  0  0  0  0  0  0  0  0  0  0  0
   35.3650   25.8400   32.2070 H   0  0  0  0  0  0  0  0  0  0  0  0
   36.6690   25.8170   30.9720 H   0  0  0  0  0  0  0  0  0  0  0  0
   38.4110   26.4300   32.4530 H   0  0  0  0  0  0  0  0  0  0  0  0
   36.8740   28.5200   31.1530 C   0  0  0  0  0  0  0  0  0  0  0  0
   38.0430   28.1370   30.4510 C   0  0  0  0  0  0  0  0  0  0  0  0
   38.4480   29.0210   29.4790 C   0  0  0  0  0  0  0  0  0  0  0  0
   37.7290   30.1700   29.2550 N   0  0  0  0  0  0  0  0  0  0  0  0
   36.6160   30.4900   29.9550 C   0  0  0  0  0  0  0  0  0  0  0  0
   36.1880   29.6290   30.9300 N   0  0  0  0  0  0  0  0  0  0  0  0
   35.8800   31.6640   29.7420 N   0  0  0  0  0  0  0  0  0  0  0  0
   38.6000   27.2330   30.6340 H   0  0  0  0  0  0  0  0  0  0  0  0
   39.3180   28.8730   28.8590 H   0  0  0  0  0  0  0  0  0  0  0  0
   36.4640   32.3650   30.2750 H   0  0  0  0  0  0  0  0  0  0  0  0
   35.0300   31.5380   29.1660 H   0  0  0  0  0  0  0  0  0  0  0  0
   37.3170   26.5070   34.2110 O   0  0  0  0  0  0  0  0  0  0  0  0
   39.8180   27.0760   34.0040 O   0  0  0  0  0  0  0  0  0  0  0  0
   38.8080   26.5200   34.9600 P   0  0  1  0  0  0  0  0  0  0  0  0
   38.7750   27.6150   36.2830 O   0  0  0  0  0  0  0  0  0  0  0  0
   39.3110   28.4050   36.1490 H   0  0  0  0  0  0  0  0  0  0  0  0
   39.1680   24.9590   35.4750 O   0  0  0  0  0  0  0  0  0  0  0  0
   38.5400   22.9930   36.6360 C   0  0  1  0  0  3  0  0  0  0  0  0
   38.2440   24.4190   36.3420 C   0  0  1  0  0  3  0  0  0  0  0  0
   38.1330   25.1050   37.5330 O   0  0  0  0  0  0  0  0  0  0  0  0
   37.8350   24.1940   38.5280 C   0  0  0  0  0  2  0  0  0  0  0  0
   38.4610   22.8830   38.1320 C   0  0  2  0  0  3  0  0  0  0  0  0
   37.5580   22.1280   36.1060 O   0  0  0  0  0  0  0  0  0  0  0  0
   37.5990   22.1770   35.1140 H   0  0  0  0  0  0  0  0  0  0  0  0
   39.7380   22.7730   38.6780 O   0  0  0  0  0  0  0  0  0  0  0  0
   39.6980   22.0910   39.4150 H   0  0  0  0  0  0  0  0  0  0  0  0
  1  3  1  0  0  0  0
  1  4  1  1  0  0  0
  2  5  1  0  0  0  0
  2  1  1  0  0  0  0
  2  3  1  0  0  0  0
  3  7  1  6  0  0  0
  3 19  1  0  0  0  0
  6  2  1  0  0  0  0
  8  1  1  0  0  0  0
  9 15  1  0  0  0  0
  9  8  2  0  0  0  0
 10  9  1  0  0  0  0
 11 10  2  0  0  0  0
 11 12  1  0  0  0  0
 12 13  2  0  0  0  0
 13  8  1  0  0  0  0
 14 12  1  0  0  0  0
 14 17  1  0  0  0  0
 16 10  1  0  0  0  0
 18 14  1  0  0  0  0
 19 21  1  0  0  0  0
 21 20  2  6  0  0  0
 21 24  1  0  0  0  0
 21 22  1  0  0  0  0
 23 22  1  0  0  0  0
 25 30  1  6  0  0  0
 25 29  1  0  0  0  0
 26 24  1  6  0  0  0
 26 25  1  0  0  0  0
 26 27  1  0  0  0  0
 27 28  1  0  0  0  0
 29 28  1  0  0  0  0
 29 32  1  1  0  0  0
 31 30  1  0  0  0  0
 32 33  1  0  0  0  0
M  END
>  <minimizedAffinity>
-5.41688585

$$$$

 OpenBabel03272504583D

 33 35  0  0  1  0  0  0  0  0999 V2000
   37.7730   25.9410   35.5530 C   0  0  1  0  0  0  0  0  0  0  0  0
   38.2950   27.2850   35.6700 C   0  0  0  0  0  0  0  0  0  0  0  0
   38.3310   26.5820   34.3600 C   0  0  2  0  0  0  0  0  0  0  0  0
   36.6550   25.7120   35.4670 H   0  0  0  0  0  0  0  0  0  0  0  0
   37.5420   27.8690   36.1560 H   0  0  0  0  0  0  0  0  0  0  0  0
   39.2720   27.3870   36.1890 H   0  0  0  0  0  0  0  0  0  0  0  0
   39.3320   26.5630   33.9710 H   0  0  0  0  0  0  0  0  0  0  0  0
   38.5360   24.7740   36.1120 C   0  0  0  0  0  0  0  0  0  0  0  0
   39.6000   24.2940   35.3100 C   0  0  0  0  0  0  0  0  0  0  0  0
   40.2760   23.2150   35.8330 C   0  0  0  0  0  0  0  0  0  0  0  0
   39.8990   22.6920   37.0460 N   0  0  0  0  0  0  0  0  0  0  0  0
   38.8720   23.1900   37.7740 C   0  0  0  0  0  0  0  0  0  0  0  0
   38.1800   24.2630   37.2800 N   0  0  0  0  0  0  0  0  0  0  0  0
   38.4720   22.6590   39.0080 N   0  0  0  0  0  0  0  0  0  0  0  0
   39.8890   24.7100   34.3600 H   0  0  0  0  0  0  0  0  0  0  0  0
   41.1090   22.7360   35.3440 H   0  0  0  0  0  0  0  0  0  0  0  0
   37.8970   21.8310   38.6920 H   0  0  0  0  0  0  0  0  0  0  0  0
   38.8180   23.1790   39.8320 H   0  0  0  0  0  0  0  0  0  0  0  0
   37.3870   27.0110   33.4160 O   0  0  0  0  0  0  0  0  0  0  0  0
   37.1250   26.8600   30.8610 O   0  0  0  0  0  0  0  0  0  0  0  0
   37.3980   26.0220   32.0710 P   0  0  1  0  0  0  0  0  0  0  0  0
   38.9760   25.3850   31.8430 O   0  0  0  0  0  0  0  0  0  0  0  0
   39.4280   25.7310   31.0650 H   0  0  0  0  0  0  0  0  0  0  0  0
   36.2740   24.7910   32.2950 O   0  0  0  0  0  0  0  0  0  0  0  0
   37.1860   22.6460   32.7140 C   0  0  1  0  0  3  0  0  0  0  0  0
   36.6220   23.5910   31.7150 C   0  0  1  0  0  3  0  0  0  0  0  0
   35.5840   22.9710   31.0530 O   0  0  0  0  0  0  0  0  0  0  0  0
   35.7520   21.6050   31.1700 C   0  0  0  0  0  2  0  0  0  0  0  0
   36.4550   21.3550   32.4790 C   0  0  2  0  0  3  0  0  0  0  0  0
   38.5560   22.3910   32.4870 O   0  0  0  0  0  0  0  0  0  0  0  0
   39.0630   23.2310   32.6470 H   0  0  0  0  0  0  0  0  0  0  0  0
   35.5240   21.1340   33.4910 O   0  0  0  0  0  0  0  0  0  0  0  0
   35.5560   20.1580   33.7290 H   0  0  0  0  0  0  0  0  0  0  0  0
  1  4  1  1  0  0  0
  1  2  1  0  0  0  0
  1  8  1  0  0  0  0
  2  5  1  0  0  0  0
  2  6  1  0  0  0  0
  3  7  1  6  0  0  0
  3  1  1  0  0  0  0
  3  2  1  0  0  0  0
  8 13  1  0  0  0  0
  9 10  1  0  0  0  0
  9  8  2  0  0  0  0
 10 11  2  0  0  0  0
 11 12  1  0  0  0  0
 12 14  1  0  0  0  0
 13 12  2  0  0  0  0
 14 18  1  0  0  0  0
 15  9  1  0  0  0  0
 16 10  1  0  0  0  0
 17 14  1  0  0  0  0
 19  3  1  0  0  0  0
 21 20  2  6  0  0  0
 21 24  1  0  0  0  0
 21 19  1  0  0  0  0
 22 21  1  0  0  0  0
 23 22  1  0  0  0  0
 25 30  1  6  0  0  0
 26 24  1  1  0  0  0
 26 25  1  0  0  0  0
 27 28  1  0  0  0  0
 27 26  1  0  0  0  0
 28 29  1  0  0  0  0
 29 25  1  0  0  0  0
 29 32  1  1  0  0  0
 30 31  1  0  0  0  0
 32 33  1  0  0  0  0
M  END
>  <minimizedAffinity>
-5.24847841

$$$$

 OpenBabel03272504583D

 33 35  0  0  1  0  0  0  0  0999 V2000
   38.3480   26.1560   34.6330 C   0  0  1  0  0  0  0  0  0  0  0  0
   38.1410   26.7560   35.9330 C   0  0  0  0  0  0  0  0  0  0  0  0
   37.8510   25.3120   35.7230 C   0  0  2  0  0  0  0  0  0  0  0  0
   39.3810   25.8430   34.2500 H   0  0  0  0  0  0  0  0  0  0  0  0
   39.0380   27.2840   36.1780 H   0  0  0  0  0  0  0  0  0  0  0  0
   37.2530   27.4170   36.0310 H   0  0  0  0  0  0  0  0  0  0  0  0
   36.8420   25.0860   36.0140 H   0  0  0  0  0  0  0  0  0  0  0  0
   37.3980   26.4310   33.5040 C   0  0  0  0  0  0  0  0  0  0  0  0
   36.8770   27.7470   33.4440 C   0  0  0  0  0  0  0  0  0  0  0  0
   35.9970   27.9730   32.4110 C   0  0  0  0  0  0  0  0  0  0  0  0
   35.6890   26.9590   31.5380 N   0  0  0  0  0  0  0  0  0  0  0  0
   36.2160   25.7170   31.6390 C   0  0  0  0  0  0  0  0  0  0  0  0
   37.0950   25.4600   32.6570 N   0  0  0  0  0  0  0  0  0  0  0  0
   35.9030   24.6710   30.7600 N   0  0  0  0  0  0  0  0  0  0  0  0
   37.1240   28.5370   34.1340 H   0  0  0  0  0  0  0  0  0  0  0  0
   35.5160   28.9220   32.2320 H   0  0  0  0  0  0  0  0  0  0  0  0
   34.9750   24.3510   31.1520 H   0  0  0  0  0  0  0  0  0  0  0  0
   36.6080   24.5050   30.0220 H   0  0  0  0  0  0  0  0  0  0  0  0
   38.7880   24.4210   36.2640 O   0  0  0  0  0  0  0  0  0  0  0  0
   39.5260   21.9560   36.2740 O   0  0  0  0  0  0  0  0  0  0  0  0
   38.3670   22.8410   35.9310 P   0  0  1  0  0  0  0  0  0  0  0  0
   37.0930   22.3550   36.9750 O   0  0  0  0  0  0  0  0  0  0  0  0
   37.3540   21.6990   37.6300 H   0  0  0  0  0  0  0  0  0  0  0  0
   37.9030   22.7330   34.3170 O   0  0  0  0  0  0  0  0  0  0  0  0
   36.0400   21.3530   33.8330 C   0  0  1  0  0  3  0  0  0  0  0  0
   37.5190   21.4710   33.9190 C   0  0  1  0  0  3  0  0  0  0  0  0
   38.0680   21.0760   32.7190 O   0  0  0  0  0  0  0  0  0  0  0  0
   37.1540   20.2660   32.0730 C   0  0  0  0  0  2  0  0  0  0  0  0
   35.7820   20.7200   32.4960 C   0  0  2  0  0  3  0  0  0  0  0  0
   35.5210   20.4780   34.8120 O   0  0  0  0  0  0  0  0  0  0  0  0
   35.6720   20.8810   35.7070 H   0  0  0  0  0  0  0  0  0  0  0  0
   35.2880   21.6650   31.5990 O   0  0  0  0  0  0  0  0  0  0  0  0
   34.5590   21.2280   31.0650 H   0  0  0  0  0  0  0  0  0  0  0  0
  1  4  1  6  0  0  0
  1  3  1  0  0  0  0
  1  2  1  0  0  0  0
  2  6  1  0  0  0  0
  2  5  1  0  0  0  0
  3  2  1  0  0  0  0
  3  7  1  6  0  0  0
  3 19  1  0  0  0  0
  8  1  1  0  0  0  0
  9  8  1  0  0  0  0
  9 15  1  0  0  0  0
 10  9  2  0  0  0  0
 11 12  2  0  0  0  0
 11 10  1  0  0  0  0
 12 13  1  0  0  0  0
 13  8  2  0  0  0  0
 14 17  1  0  0  0  0
 14 12  1  0  0  0  0
 16 10  1  0  0  0  0
 18 14  1  0  0  0  0
 21 19  1  0  0  0  0
 21 20  2  1  0  0  0
 21 22  1  0  0  0  0
 22 23  1  0  0  0  0
 24 21  1  0  0  0  0
 25 26  1  0  0  0  0
 25 30  1  1  0  0  0
 26 24  1  6  0  0  0
 27 26  1  0  0  0  0
 28 29  1  0  0  0  0
 28 27  1  0  0  0  0
 29 32  1  6  0  0  0
 29 25  1  0  0  0  0
 30 31  1  0  0  0  0
 33 32  1  0  0  0  0
M  END
>  <minimizedAffinity>
-5.24780846

$$$$

 OpenBabel03272504583D

 33 35  0  0  1  0  0  0  0  0999 V2000
   39.6280   24.9200   34.4390 C   0  0  1  0  0  0  0  0  0  0  0  0
   40.8900   24.6750   33.7760 C   0  0  0  0  0  0  0  0  0  0  0  0
   39.6480   24.0230   33.2800 C   0  0  2  0  0  0  0  0  0  0  0  0
   39.0090   25.8680   34.2700 H   0  0  0  0  0  0  0  0  0  0  0  0
   41.3300   25.6310   33.5840 H   0  0  0  0  0  0  0  0  0  0  0  0
   41.6030   24.0110   34.3100 H   0  0  0  0  0  0  0  0  0  0  0  0
   39.7750   22.9580   33.2350 H   0  0  0  0  0  0  0  0  0  0  0  0
   39.3300   24.2940   35.7710 C   0  0  0  0  0  0  0  0  0  0  0  0
   38.2310   24.8410   36.4760 C   0  0  0  0  0  0  0  0  0  0  0  0
   37.9850   24.2640   37.7010 C   0  0  0  0  0  0  0  0  0  0  0  0
   38.7820   23.2380   38.1470 N   0  0  0  0  0  0  0  0  0  0  0  0
   39.8220   22.7500   37.4320 C   0  0  0  0  0  0  0  0  0  0  0  0
   40.0920   23.3050   36.2100 N   0  0  0  0  0  0  0  0  0  0  0  0
   40.6480   21.7100   37.8810 N   0  0  0  0  0  0  0  0  0  0  0  0
   37.6110   25.6460   36.1180 H   0  0  0  0  0  0  0  0  0  0  0  0
   37.1850   24.5680   38.3570 H   0  0  0  0  0  0  0  0  0  0  0  0
   41.2920   22.2350   38.5340 H   0  0  0  0  0  0  0  0  0  0  0  0
   40.4240   20.7820   37.4840 H   0  0  0  0  0  0  0  0  0  0  0  0
   39.1120   24.5600   32.1000 O   0  0  0  0  0  0  0  0  0  0  0  0
   37.1700   23.9800   30.5150 O   0  0  0  0  0  0  0  0  0  0  0  0
   37.4900   24.1910   31.9630 P   0  0  1  0  0  0  0  0  0  0  0  0
   37.1780   22.6860   32.7280 O   0  0  0  0  0  0  0  0  0  0  0  0
   36.9540   21.9760   32.1150 H   0  0  0  0  0  0  0  0  0  0  0  0
   36.5920   25.4270   32.6690 O   0  0  0  0  0  0  0  0  0  0  0  0
   35.8350   27.2060   31.3030 C   0  0  1  0  0  3  0  0  0  0  0  0
   36.8960   26.6870   32.2040 C   0  0  1  0  0  3  0  0  0  0  0  0
   37.1220   27.6100   33.2030 O   0  0  0  0  0  0  0  0  0  0  0  0
   36.6870   28.8430   32.7570 C   0  0  0  0  0  2  0  0  0  0  0  0
   35.5500   28.5940   31.8020 C   0  0  2  0  0  3  0  0  0  0  0  0
   36.2850   27.3310   29.9710 O   0  0  0  0  0  0  0  0  0  0  0  0
   36.4710   26.4220   29.6150 H   0  0  0  0  0  0  0  0  0  0  0  0
   34.3340   28.6250   32.4810 O   0  0  0  0  0  0  0  0  0  0  0  0
   33.8600   29.4720   32.2210 H   0  0  0  0  0  0  0  0  0  0  0  0
  1  4  1  6  0  0  0
  1  8  1  0  0  0  0
  2  6  1  0  0  0  0
  2  1  1  0  0  0  0
  3  7  1  1  0  0  0
  3  2  1  0  0  0  0
  3  1  1  0  0  0  0
  5  2  1  0  0  0  0
  8 13  2  0  0  0  0
  8  9  1  0  0  0  0
  9 10  2  0  0  0  0
 10 11  1  0  0  0  0
 10 16  1  0  0  0  0
 12 14  1  0  0  0  0
 12 11  2  0  0  0  0
 13 12  1  0  0  0  0
 14 17  1  0  0  0  0
 15  9  1  0  0  0  0
 18 14  1  0  0  0  0
 19  3  1  0  0  0  0
 21 20  2  6  0  0  0
 21 19  1  0  0  0  0
 21 24  1  0  0  0  0
 21 22  1  0  0  0  0
 23 22  1  0  0  0  0
 25 30  1  6  0  0  0
 25 29  1  0  0  0  0
 25 26  1  0  0  0  0
 26 24  1  1  0  0  0
 26 27  1  0  0  0  0
 28 27  1  0  0  0  0
 29 32  1  1  0  0  0
 29 28  1  0  0  0  0
 31 30  1  0  0  0  0
 33 32  1  0  0  0  0
M  END
>  <minimizedAffinity>
-5.2228899

$$$$

 OpenBabel03272504583D

 33 35  0  0  1  0  0  0  0  0999 V2000
   38.7410   23.3270   36.4720 C   0  0  1  0  0  0  0  0  0  0  0  0
   38.0580   23.7100   37.6880 C   0  0  0  0  0  0  0  0  0  0  0  0
   38.4770   24.7480   36.7090 C   0  0  2  0  0  0  0  0  0  0  0  0
   38.1950   22.9080   35.5570 H   0  0  0  0  0  0  0  0  0  0  0  0
   37.1850   23.0960   37.7610 H   0  0  0  0  0  0  0  0  0  0  0  0
   38.6570   23.6590   38.6230 H   0  0  0  0  0  0  0  0  0  0  0  0
   39.0860   25.4920   37.1880 H   0  0  0  0  0  0  0  0  0  0  0  0
   40.1780   22.8920   36.5070 C   0  0  0  0  0  0  0  0  0  0  0  0
   41.0690   23.6460   35.7060 C   0  0  0  0  0  0  0  0  0  0  0  0
   42.3770   23.2210   35.7410 C   0  0  0  0  0  0  0  0  0  0  0  0
   42.7270   22.1420   36.5150 N   0  0  0  0  0  0  0  0  0  0  0  0
   41.8350   21.4550   37.2650 C   0  0  0  0  0  0  0  0  0  0  0  0
   40.5250   21.8540   37.2510 N   0  0  0  0  0  0  0  0  0  0  0  0
   42.1780   20.3470   38.0520 N   0  0  0  0  0  0  0  0  0  0  0  0
   40.7850   24.4910   35.1010 H   0  0  0  0  0  0  0  0  0  0  0  0
   43.1740   23.6900   35.1860 H   0  0  0  0  0  0  0  0  0  0  0  0
   42.2100   19.5850   37.3210 H   0  0  0  0  0  0  0  0  0  0  0  0
   42.2990   20.5560   39.0580 H   0  0  0  0  0  0  0  0  0  0  0  0
   37.4470   25.3010   35.9350 O   0  0  0  0  0  0  0  0  0  0  0  0
   36.8190   27.4990   34.7520 O   0  0  0  0  0  0  0  0  0  0  0  0
   37.9920   26.6280   35.0800 P   0  0  1  0  0  0  0  0  0  0  0  0
   39.0050   27.5800   36.0860 O   0  0  0  0  0  0  0  0  0  0  0  0
   38.6230   28.4310   36.3320 H   0  0  0  0  0  0  0  0  0  0  0  0
   38.8220   26.0900   33.7190 O   0  0  0  0  0  0  0  0  0  0  0  0
   41.1220   26.5900   33.4590 C   0  0  1  0  0  3  0  0  0  0  0  0
   39.7170   27.0010   33.2020 C   0  0  1  0  0  3  0  0  0  0  0  0
   39.5600   27.2310   31.8530 O   0  0  0  0  0  0  0  0  0  0  0  0
   40.8050   27.4910   31.3120 C   0  0  0  0  0  2  0  0  0  0  0  0
   41.8130   26.7300   32.1330 C   0  0  2  0  0  3  0  0  0  0  0  0
   41.7730   27.4630   34.3570 O   0  0  0  0  0  0  0  0  0  0  0  0
   41.3390   27.3800   35.2470 H   0  0  0  0  0  0  0  0  0  0  0  0
   42.0430   25.4760   31.5720 O   0  0  0  0  0  0  0  0  0  0  0  0
   42.9600   25.4890   31.1600 H   0  0  0  0  0  0  0  0  0  0  0  0
  1  4  1  6  0  0  0
  1  8  1  0  0  0  0
  1  3  1  0  0  0  0
  1  2  1  0  0  0  0
  2  5  1  0  0  0  0
  2  6  1  0  0  0  0
  3  7  1  1  0  0  0
  3  2  1  0  0  0  0
  8 13  1  0  0  0  0
  9 10  1  0  0  0  0
  9  8  2  0  0  0  0
 10 11  2  0  0  0  0
 11 12  1  0  0  0  0
 12 14  1  0  0  0  0
 13 12  2  0  0  0  0
 14 18  1  0  0  0  0
 15  9  1  0  0  0  0
 16 10  1  0  0  0  0
 17 14  1  0  0  0  0
 19  3  1  0  0  0  0
 21 20  2  6  0  0  0
 21 19  1  0  0  0  0
 21 22  1  0  0  0  0
 22 23  1  0  0  0  0
 24 21  1  0  0  0  0
 25 30  1  1  0  0  0
 26 25  1  0  0  0  0
 26 24  1  6  0  0  0
 27 26  1  0  0  0  0
 28 27  1  0  0  0  0
 28 29  1  0  0  0  0
 29 32  1  6  0  0  0
 29 25  1  0  0  0  0
 30 31  1  0  0  0  0
 33 32  1  0  0  0  0
M  END
>  <minimizedAffinity>
-5.18963051

$$$$

 OpenBabel03272504583D

 33 35  0  0  1  0  0  0  0  0999 V2000
   36.1060   27.8650   32.8250 C   0  0  1  0  0  0  0  0  0  0  0  0
   37.2820   28.1400   32.0280 C   0  0  0  0  0  0  0  0  0  0  0  0
   37.4140   27.8700   33.4850 C   0  0  2  0  0  0  0  0  0  0  0  0
   35.5910   26.8420   32.8430 H   0  0  0  0  0  0  0  0  0  0  0  0
   37.2360   27.4950   31.1750 H   0  0  0  0  0  0  0  0  0  0  0  0
   37.4260   29.1960   31.7170 H   0  0  0  0  0  0  0  0  0  0  0  0
   37.9390   28.6730   33.9680 H   0  0  0  0  0  0  0  0  0  0  0  0
   35.1580   28.9690   33.1950 C   0  0  0  0  0  0  0  0  0  0  0  0
   35.5980   29.8400   34.2210 C   0  0  0  0  0  0  0  0  0  0  0  0
   34.7090   30.8350   34.5550 C   0  0  0  0  0  0  0  0  0  0  0  0
   33.5030   30.9240   33.9030 N   0  0  0  0  0  0  0  0  0  0  0  0
   33.1310   30.0650   32.9270 C   0  0  0  0  0  0  0  0  0  0  0  0
   33.9940   29.0630   32.5720 N   0  0  0  0  0  0  0  0  0  0  0  0
   31.8990   30.1400   32.2610 N   0  0  0  0  0  0  0  0  0  0  0  0
   36.5470   29.7630   34.7270 H   0  0  0  0  0  0  0  0  0  0  0  0
   34.8970   31.5760   35.3160 H   0  0  0  0  0  0  0  0  0  0  0  0
   31.2630   29.6750   32.9650 H   0  0  0  0  0  0  0  0  0  0  0  0
   31.9400   30.5920   31.3320 H   0  0  0  0  0  0  0  0  0  0  0  0
   37.9180   26.6060   33.8240 O   0  0  0  0  0  0  0  0  0  0  0  0
   40.2400   26.8160   34.9110 O   0  0  0  0  0  0  0  0  0  0  0  0
   38.7880   26.6750   35.2460 P   0  0  1  0  0  0  0  0  0  0  0  0
   38.3730   28.1040   36.1030 O   0  0  0  0  0  0  0  0  0  0  0  0
   39.0810   28.7570   36.1380 H   0  0  0  0  0  0  0  0  0  0  0  0
   38.4450   25.3010   36.1570 O   0  0  0  0  0  0  0  0  0  0  0  0
   40.1930   23.7040   36.1140 C   0  0  1  0  0  3  0  0  0  0  0  0
   38.8680   24.1210   35.5860 C   0  0  1  0  0  3  0  0  0  0  0  0
   37.9800   23.0790   35.7400 O   0  0  0  0  0  0  0  0  0  0  0  0
   38.7040   21.9070   35.8440 C   0  0  0  0  0  2  0  0  0  0  0  0
   40.0250   22.2570   36.4770 C   0  0  2  0  0  3  0  0  0  0  0  0
   41.2010   23.7680   35.1270 O   0  0  0  0  0  0  0  0  0  0  0  0
   41.3370   24.7200   34.8770 H   0  0  0  0  0  0  0  0  0  0  0  0
   39.9520   22.1090   37.8600 O   0  0  0  0  0  0  0  0  0  0  0  0
   40.4850   21.2940   38.1090 H   0  0  0  0  0  0  0  0  0  0  0  0
  1  4  1  6  0  0  0
  1  8  1  0  0  0  0
  1  3  1  0  0  0  0
  2  1  1  0  0  0  0
  2  3  1  0  0  0  0
  3 19  1  0  0  0  0
  3  7  1  1  0  0  0
  5  2  1  0  0  0  0
  6  2  1  0  0  0  0
  8  9  1  0  0  0  0
  9 10  2  0  0  0  0
  9 15  1  0  0  0  0
 10 16  1  0  0  0  0
 11 10  1  0  0  0  0
 12 11  2  0  0  0  0
 13 12  1  0  0  0  0
 13  8  2  0  0  0  0
 14 12  1  0  0  0  0
 14 17  1  0  0  0  0
 18 14  1  0  0  0  0
 19 21  1  0  0  0  0
 21 20  2  6  0  0  0
 21 22  1  0  0  0  0
 21 24  1  0  0  0  0
 22 23  1  0  0  0  0
 25 30  1  6  0  0  0
 25 29  1  0  0  0  0
 26 27  1  0  0  0  0
 26 25  1  0  0  0  0
 26 24  1  1  0  0  0
 27 28  1  0  0  0  0
 28 29  1  0  0  0  0
 29 32  1  1  0  0  0
 31 30  1  0  0  0  0
 32 33  1  0  0  0  0
M  END
>  <minimizedAffinity>
-5.14867783

$$$$

 OpenBabel03272504583D

 33 35  0  0  1  0  0  0  0  0999 V2000
   37.7600   26.2570   35.5660 C   0  0  1  0  0  0  0  0  0  0  0  0
   38.6980   27.2830   35.1650 C   0  0  0  0  0  0  0  0  0  0  0  0
   37.7440   26.7150   34.1740 C   0  0  2  0  0  0  0  0  0  0  0  0
   36.7910   26.4870   36.1310 H   0  0  0  0  0  0  0  0  0  0  0  0
   38.6120   28.0770   35.8760 H   0  0  0  0  0  0  0  0  0  0  0  0
   39.7560   26.9620   35.0550 H   0  0  0  0  0  0  0  0  0  0  0  0
   38.2730   26.3370   33.3190 H   0  0  0  0  0  0  0  0  0  0  0  0
   38.2240   24.8500   35.8100 C   0  0  0  0  0  0  0  0  0  0  0  0
   38.4110   24.0550   34.6530 C   0  0  0  0  0  0  0  0  0  0  0  0
   38.8210   22.7650   34.8990 C   0  0  0  0  0  0  0  0  0  0  0  0
   39.0190   22.3430   36.1910 N   0  0  0  0  0  0  0  0  0  0  0  0
   38.8260   23.1460   37.2640 C   0  0  0  0  0  0  0  0  0  0  0  0
   38.4170   24.4350   37.0510 N   0  0  0  0  0  0  0  0  0  0  0  0
   39.0150   22.7240   38.5880 N   0  0  0  0  0  0  0  0  0  0  0  0
   38.2530   24.3940   33.6430 H   0  0  0  0  0  0  0  0  0  0  0  0
   39.0060   22.0370   34.1250 H   0  0  0  0  0  0  0  0  0  0  0  0
   38.1100   22.2060   38.7630 H   0  0  0  0  0  0  0  0  0  0  0  0
   39.9170   23.0100   39.0050 H   0  0  0  0  0  0  0  0  0  0  0  0
   36.6660   27.5410   33.8290 O   0  0  0  0  0  0  0  0  0  0  0  0
   35.5020   26.9900   31.6010 O   0  0  0  0  0  0  0  0  0  0  0  0
   36.6190   27.8010   32.1810 P   0  0  1  0  0  0  0  0  0  0  0  0
   36.2080   29.4390   31.8710 O   0  0  0  0  0  0  0  0  0  0  0  0
   35.3330   29.5550   31.4830 H   0  0  0  0  0  0  0  0  0  0  0  0
   38.1250   27.4210   31.5310 O   0  0  0  0  0  0  0  0  0  0  0  0
   39.7400   27.7420   29.8300 C   0  0  1  0  0  3  0  0  0  0  0  0
   38.5440   28.2730   30.5330 C   0  0  1  0  0  3  0  0  0  0  0  0
   37.5710   28.5600   29.6010 O   0  0  0  0  0  0  0  0  0  0  0  0
   38.1850   28.7370   28.3760 C   0  0  0  0  0  2  0  0  0  0  0  0
   39.4160   27.8690   28.3690 C   0  0  2  0  0  3  0  0  0  0  0  0
   40.8880   28.5280   30.0680 O   0  0  0  0  0  0  0  0  0  0  0  0
   41.1280   28.4510   31.0290 H   0  0  0  0  0  0  0  0  0  0  0  0
   39.1230   26.6200   27.8260 O   0  0  0  0  0  0  0  0  0  0  0  0
   39.5530   26.5720   26.9190 H   0  0  0  0  0  0  0  0  0  0  0  0
  1  8  1  0  0  0  0
  1  4  1  1  0  0  0
  2  1  1  0  0  0  0
  2  5  1  0  0  0  0
  3  7  1  6  0  0  0
  3  2  1  0  0  0  0
  3  1  1  0  0  0  0
  6  2  1  0  0  0  0
  8 13  1  0  0  0  0
  9 10  1  0  0  0  0
  9  8  2  0  0  0  0
 10 11  2  0  0  0  0
 11 12  1  0  0  0  0
 12 14  1  0  0  0  0
 13 12  2  0  0  0  0
 14 17  1  0  0  0  0
 14 18  1  0  0  0  0
 15  9  1  0  0  0  0
 16 10  1  0  0  0  0
 19  3  1  0  0  0  0
 21 20  2  6  0  0  0
 21 19  1  0  0  0  0
 22 21  1  0  0  0  0
 23 22  1  0  0  0  0
 24 21  1  0  0  0  0
 25 30  1  6  0  0  0
 25 26  1  0  0  0  0
 26 24  1  1  0  0  0
 27 26  1  0  0  0  0
 28 27  1  0  0  0  0
 29 32  1  1  0  0  0
 29 28  1  0  0  0  0
 29 25  1  0  0  0  0
 30 31  1  0  0  0  0
 33 32  1  0  0  0  0
M  END
>  <minimizedAffinity>
-5.12844753

$$$$
