
 OpenBabel03262521423D

 30 32  0  0  1  0  0  0  0  0999 V2000
   39.0580   31.0730   45.9060 C   0  0  1  0  0  0  0  0  0  0  0  0
   38.8980   30.8760   44.3920 C   0  0  2  0  0  0  0  0  0  0  0  0
   39.9770   31.8480   43.9770 C   0  0  0  0  0  0  0  0  0  0  0  0
   41.0540   31.5980   44.8080 O   0  0  0  0  0  0  0  0  0  0  0  0
   40.5940   31.0100   45.9580 C   0  0  0  0  0  0  0  0  0  0  0  0
   38.6130   30.2540   46.4890 H   0  0  0  0  0  0  0  0  0  0  0  0
   39.2110   29.8400   44.1730 H   0  0  0  0  0  0  0  0  0  0  0  0
   40.2300   31.7650   42.9020 H   0  0  0  0  0  0  0  0  0  0  0  0
   39.5870   32.8670   44.2330 H   0  0  0  0  0  0  0  0  0  0  0  0
   40.8620   29.9400   45.9900 H   0  0  0  0  0  0  0  0  0  0  0  0
   40.9640   31.5120   46.8830 H   0  0  0  0  0  0  0  0  0  0  0  0
   37.5510   31.2190   43.9350 C   0  0  0  0  0  0  0  0  0  0  0  0
   36.4710   30.3350   44.1720 C   0  0  0  0  0  0  0  0  0  0  0  0
   35.2270   30.7430   43.6790 C   0  0  0  0  0  0  0  0  0  0  0  0
   35.1100   31.9370   43.0110 N   0  0  0  0  0  0  0  0  0  0  0  0
   36.1810   32.7480   42.8100 C   0  0  0  0  0  0  0  0  0  0  0  0
   37.3990   32.3820   43.2760 N   0  0  0  0  0  0  0  0  0  0  0  0
   36.5930   29.4210   44.6910 H   0  0  0  0  0  0  0  0  0  0  0  0
   34.3440   30.1110   43.8260 H   0  0  0  0  0  0  0  0  0  0  0  0
   35.9670   33.6520   42.2770 H   0  0  0  0  0  0  0  0  0  0  0  0
   38.7300   32.3330   46.3000 O   0  0  0  0  0  0  0  0  0  0  0  0
   37.3720   31.0440   47.8140 C   0  0  1  0  0  0  0  0  0  0  0  0
   37.8490   32.3910   47.3510 C   0  0  1  0  0  0  0  0  0  0  0  0
   38.3940   33.0580   48.4060 O   0  0  0  0  0  0  0  0  0  0  0  0
   37.9890   32.4740   49.5840 C   0  0  0  0  0  0  0  0  0  0  0  0
   37.6210   31.0470   49.3000 C   0  0  2  0  0  0  0  0  0  0  0  0
   36.0270   30.8390   47.5560 O   0  0  0  0  0  0  0  0  0  0  0  0
   35.6030   31.7410   47.5100 H   0  0  0  0  0  0  0  0  0  0  0  0
   38.6290   30.1420   49.6620 O   0  0  0  0  0  0  0  0  0  0  0  0
   39.0820   29.7750   48.8810 H   0  0  0  0  0  0  0  0  0  0  0  0
  1  5  1  0  0  0  0
  1 21  1  0  0  0  0
  1  6  1  1  0  0  0
  2  7  1  6  0  0  0
  2  1  1  0  0  0  0
  3  9  1  0  0  0  0
  3  2  1  0  0  0  0
  3  4  1  0  0  0  0
  4  5  1  0  0  0  0
  5 10  1  0  0  0  0
  5 11  1  0  0  0  0
  8  3  1  0  0  0  0
 12 13  1  0  0  0  0
 12  2  1  0  0  0  0
 13 18  1  0  0  0  0
 14 19  1  0  0  0  0
 14 13  2  0  0  0  0
 15 14  1  0  0  0  0
 16 15  2  0  0  0  0
 16 17  1  0  0  0  0
 17 12  2  0  0  0  0
 20 16  1  0  0  0  0
 22 27  1  1  0  0  0
 22 26  1  0  0  0  0
 23 21  1  6  0  0  0
 23 22  1  0  0  0  0
 23 24  1  0  0  0  0
 24 25  1  0  0  0  0
 26 25  1  0  0  0  0
 26 29  1  6  0  0  0
 28 27  1  0  0  0  0
 30 29  1  0  0  0  0
M  END
>  <minimizedAffinity>
-4.73172808

>  <minimizedRMSD>
4.64829111

$$$$
