
 OpenBabel03272509183D

 33 35  0  0  1  0  0  0  0  0999 V2000
   34.0860   28.2630   47.8880 C   0  0  0  0  0  0  0  0  0  0  0  0
   34.6800   29.4950   48.1710 C   0  0  0  0  0  0  0  0  0  0  0  0
   34.2290   30.5460   47.3760 C   0  0  0  0  0  0  0  0  0  0  0  0
   33.2590   30.3410   46.3890 C   0  0  0  0  0  0  0  0  0  0  0  0
   32.7320   29.0720   46.1900 C   0  0  0  0  0  0  0  0  0  0  0  0
   33.1520   28.0140   46.9500 C   0  0  0  0  0  0  0  0  0  0  0  0
   34.6690   31.5150   47.5710 H   0  0  0  0  0  0  0  0  0  0  0  0
   32.9850   31.2250   45.8360 H   0  0  0  0  0  0  0  0  0  0  0  0
   32.0080   29.0820   45.4040 H   0  0  0  0  0  0  0  0  0  0  0  0
   35.3710   29.4700   50.5210 C   0  0  0  0  0  0  0  0  0  0  0  0
   35.6720   29.6930   49.1850 C   0  0  0  0  0  0  0  0  0  0  0  0
   36.9740   30.1120   48.8880 C   0  0  0  0  0  0  0  0  0  0  0  0
   37.8540   30.2760   49.9140 N   0  0  0  0  0  0  0  0  0  0  0  0
   37.5120   30.0480   51.1950 C   0  0  0  0  0  0  0  0  0  0  0  0
   36.2770   29.6470   51.4960 N   0  0  0  0  0  0  0  0  0  0  0  0
   34.3900   29.1430   50.8470 H   0  0  0  0  0  0  0  0  0  0  0  0
   38.3410   30.2310   51.8660 H   0  0  0  0  0  0  0  0  0  0  0  0
   37.3730   30.3720   47.4760 C   0  0  0  0  0  0  0  0  0  0  0  0
   37.8830   31.3570   47.3930 H   0  0  0  0  0  0  0  0  0  0  0  0
   36.4510   30.4250   46.8690 H   0  0  0  0  0  0  0  0  0  0  0  0
   38.0010   29.5450   47.0950 H   0  0  0  0  0  0  0  0  0  0  0  0
   34.4960   27.1510   48.6540 O   0  0  0  0  0  0  0  0  0  0  0  0
   35.4090   26.7270   48.4740 H   0  0  0  0  0  0  0  0  0  0  0  0
   32.6170   26.7690   46.7350 O   0  0  0  0  0  0  0  0  0  0  0  0
   31.8630   24.9010   45.4620 C   0  0  1  0  0  3  0  0  0  0  0  0
   33.0040   25.8590   45.7520 C   0  0  1  0  0  3  0  0  0  0  0  0
   33.1090   26.6110   44.5540 O   0  0  0  0  0  0  0  0  0  0  0  0
   33.2020   25.5560   43.6350 C   0  0  0  0  0  2  0  0  0  0  0  0
   31.9310   24.7760   43.9630 C   0  0  1  0  0  3  0  0  0  0  0  0
   32.0020   23.6750   46.0800 O   0  0  0  0  0  0  0  0  0  0  0  0
   32.7530   23.6770   46.7480 H   0  0  0  0  0  0  0  0  0  0  0  0
   32.0310   23.4480   43.5480 O   0  0  0  0  0  0  0  0  0  0  0  0
   32.6780   23.4500   42.7970 H   0  0  0  0  0  0  0  0  0  0  0  0
  1  2  1  0  0  0  0
  1 22  1  0  0  0  0
  2 11  1  0  0  0  0
  3  7  1  0  0  0  0
  3  2  2  0  0  0  0
  4  3  1  0  0  0  0
  5  4  2  0  0  0  0
  5  6  1  0  0  0  0
  6  1  2  0  0  0  0
  8  4  1  0  0  0  0
  9  5  1  0  0  0  0
 10 16  1  0  0  0  0
 10 15  1  0  0  0  0
 11 10  2  0  0  0  0
 12 11  1  0  0  0  0
 12 13  2  0  0  0  0
 13 14  1  0  0  0  0
 14 15  2  0  0  0  0
 14 17  1  0  0  0  0
 18 12  1  0  0  0  0
 19 18  1  0  0  0  0
 20 18  1  0  0  0  0
 21 18  1  0  0  0  0
 23 22  1  0  0  0  0
 24  6  1  0  0  0  0
 25 26  1  0  0  0  0
 25 30  1  1  0  0  0
 26 24  1  1  0  0  0
 27 26  1  0  0  0  0
 28 29  1  0  0  0  0
 28 27  1  0  0  0  0
 29 32  1  1  0  0  0
 29 25  1  0  0  0  0
 30 31  1  0  0  0  0
 33 32  1  0  0  0  0
M  END
>  <minimizedAffinity>
-4.13425493

>  <minimizedRMSD>
8.44404411

$$$$
