
 OpenBabel03272509453D

 19 20  0  0  1  0  0  0  0  0999 V2000
   35.3700   28.7650   48.2420 O   0  0  0  0  0  0  0  0  0  0  0  0
   36.9320   29.8690   51.3360 C   0  0  0  0  0  0  0  0  0  0  0  0
   37.9640   30.6630   50.7830 C   0  0  0  0  0  0  0  0  0  0  0  0
   38.0730   30.7810   49.3950 C   0  0  0  0  0  0  0  0  0  0  0  0
   37.1530   30.1040   48.6360 N   0  0  0  0  0  0  0  0  0  0  0  0
   36.1790   29.3530   49.1910 C   0  0  0  0  0  0  0  0  0  0  0  0
   36.0760   29.2420   50.5380 N   0  0  0  0  0  0  0  0  0  0  0  0
   36.8290   29.7640   52.4080 H   0  0  0  0  0  0  0  0  0  0  0  0
   38.6630   31.1760   51.4540 H   0  0  0  0  0  0  0  0  0  0  0  0
   38.8360   31.3690   48.9490 H   0  0  0  0  0  0  0  0  0  0  0  0
   32.9700   28.9550   47.8420 C   0  0  2  0  0  3  0  0  0  0  0  0
   34.0720   28.4070   48.6870 C   0  0  1  0  0  3  0  0  0  0  0  0
   33.9840   27.0260   48.5350 O   0  0  0  0  0  0  0  0  0  0  0  0
   33.8970   26.8840   47.1500 C   0  0  0  0  0  2  0  0  0  0  0  0
   32.7790   27.8440   46.8030 C   0  0  2  0  0  3  0  0  0  0  0  0
   33.2550   30.1720   47.2560 O   0  0  0  0  0  0  0  0  0  0  0  0
   32.4650   30.7770   47.4200 H   0  0  0  0  0  0  0  0  0  0  0  0
   32.9830   28.3550   45.5220 O   0  0  0  0  0  0  0  0  0  0  0  0
   33.9210   28.1400   45.2180 H   0  0  0  0  0  0  0  0  0  0  0  0
  1  6  1  0  0  0  0
  2  8  1  0  0  0  0
  3  2  1  0  0  0  0
  3  9  1  0  0  0  0
  4  3  2  0  0  0  0
  5  6  2  0  0  0  0
  5  4  1  0  0  0  0
  6  7  1  0  0  0  0
  7  2  2  0  0  0  0
 10  4  1  0  0  0  0
 11 16  1  6  0  0  0
 11 12  1  0  0  0  0
 12  1  1  6  0  0  0
 13 12  1  0  0  0  0
 14 13  1  0  0  0  0
 15 18  1  6  0  0  0
 15 14  1  0  0  0  0
 15 11  1  0  0  0  0
 16 17  1  0  0  0  0
 19 18  1  0  0  0  0
M  END
>  <minimizedAffinity>
-3.70364261

>  <minimizedRMSD>
2.23745513

$$$$
