
 OpenBabel03262521433D

 30 32  0  0  1  0  0  0  0  0999 V2000
   39.2060   23.6320   34.8630 C   0  0  1  0  0  0  0  0  0  0  0  0
   39.1330   23.2380   33.3810 C   0  0  2  0  0  0  0  0  0  0  0  0
   39.4690   24.6010   32.8230 C   0  0  0  0  0  0  0  0  0  0  0  0
   40.5290   25.0700   33.5790 O   0  0  0  0  0  0  0  0  0  0  0  0
   40.5150   24.4360   34.7950 C   0  0  0  0  0  0  0  0  0  0  0  0
   39.3150   22.7620   35.5270 H   0  0  0  0  0  0  0  0  0  0  0  0
   39.9650   22.5350   33.1990 H   0  0  0  0  0  0  0  0  0  0  0  0
   39.6900   24.5720   31.7390 H   0  0  0  0  0  0  0  0  0  0  0  0
   38.5850   25.2510   33.0490 H   0  0  0  0  0  0  0  0  0  0  0  0
   41.3370   23.7040   34.8690 H   0  0  0  0  0  0  0  0  0  0  0  0
   40.5710   25.1440   35.6560 H   0  0  0  0  0  0  0  0  0  0  0  0
   37.8110   22.7310   33.0130 C   0  0  0  0  0  0  0  0  0  0  0  0
   37.0500   23.3810   32.0110 C   0  0  0  0  0  0  0  0  0  0  0  0
   35.7920   22.8320   31.7460 C   0  0  0  0  0  0  0  0  0  0  0  0
   35.3620   21.7280   32.4400 N   0  0  0  0  0  0  0  0  0  0  0  0
   36.1330   21.1420   33.3930 C   0  0  0  0  0  0  0  0  0  0  0  0
   37.3580   21.6500   33.6730 N   0  0  0  0  0  0  0  0  0  0  0  0
   37.4090   24.2310   31.4940 H   0  0  0  0  0  0  0  0  0  0  0  0
   35.1470   23.2820   30.9820 H   0  0  0  0  0  0  0  0  0  0  0  0
   35.6930   20.2890   33.8660 H   0  0  0  0  0  0  0  0  0  0  0  0
   38.2420   24.5280   35.2060 O   0  0  0  0  0  0  0  0  0  0  0  0
   37.8450   22.8640   36.9010 C   0  0  1  0  0  3  0  0  0  0  0  0
   37.6090   24.2580   36.3930 C   0  0  1  0  0  3  0  0  0  0  0  0
   37.9760   25.1510   37.3540 O   0  0  0  0  0  0  0  0  0  0  0  0
   38.0630   24.5140   38.5700 C   0  0  0  0  0  2  0  0  0  0  0  0
   38.3080   23.0540   38.3210 C   0  0  2  0  0  3  0  0  0  0  0  0
   36.7000   22.0870   36.8720 O   0  0  0  0  0  0  0  0  0  0  0  0
   35.9250   22.7150   36.9200 H   0  0  0  0  0  0  0  0  0  0  0  0
   39.6530   22.6920   38.4850 O   0  0  0  0  0  0  0  0  0  0  0  0
   40.0860   22.5150   37.6290 H   0  0  0  0  0  0  0  0  0  0  0  0
  1 21  1  0  0  0  0
  1  6  1  1  0  0  0
  2  7  1  6  0  0  0
  2  1  1  0  0  0  0
  3  9  1  0  0  0  0
  3  2  1  0  0  0  0
  3  4  1  0  0  0  0
  4  5  1  0  0  0  0
  5  1  1  0  0  0  0
  5 10  1  0  0  0  0
  5 11  1  0  0  0  0
  8  3  1  0  0  0  0
 12  2  1  0  0  0  0
 12 17  1  0  0  0  0
 13 12  2  0  0  0  0
 14 13  1  0  0  0  0
 14 15  2  0  0  0  0
 15 16  1  0  0  0  0
 16 17  2  0  0  0  0
 16 20  1  0  0  0  0
 18 13  1  0  0  0  0
 19 14  1  0  0  0  0
 22 27  1  1  0  0  0
 22 26  1  0  0  0  0
 23 21  1  6  0  0  0
 23 22  1  0  0  0  0
 23 24  1  0  0  0  0
 24 25  1  0  0  0  0
 26 29  1  6  0  0  0
 26 25  1  0  0  0  0
 27 28  1  0  0  0  0
 30 29  1  0  0  0  0
M  END
>  <minimizedAffinity>
-4.7715683

$$$$

 OpenBabel03262521433D

 30 32  0  0  1  0  0  0  0  0999 V2000
   37.7950   23.9770   36.9350 C   0  0  1  0  0  0  0  0  0  0  0  0
   38.4390   22.5860   36.8610 C   0  0  2  0  0  0  0  0  0  0  0  0
   39.5870   22.8760   37.7980 C   0  0  0  0  0  0  0  0  0  0  0  0
   39.0380   23.5590   38.8700 O   0  0  0  0  0  0  0  0  0  0  0  0
   37.8740   24.1570   38.4600 C   0  0  0  0  0  0  0  0  0  0  0  0
   36.7490   23.9780   36.5950 H   0  0  0  0  0  0  0  0  0  0  0  0
   37.7280   21.8830   37.3320 H   0  0  0  0  0  0  0  0  0  0  0  0
   40.1290   21.9600   38.1000 H   0  0  0  0  0  0  0  0  0  0  0  0
   40.2540   23.5930   37.2530 H   0  0  0  0  0  0  0  0  0  0  0  0
   36.9940   23.6420   38.8820 H   0  0  0  0  0  0  0  0  0  0  0  0
   37.8270   25.2410   38.7180 H   0  0  0  0  0  0  0  0  0  0  0  0
   38.8320   22.2360   35.4950 C   0  0  0  0  0  0  0  0  0  0  0  0
   40.2000   22.2000   35.1340 C   0  0  0  0  0  0  0  0  0  0  0  0
   40.4730   21.8740   33.8010 C   0  0  0  0  0  0  0  0  0  0  0  0
   39.4420   21.6130   32.9320 N   0  0  0  0  0  0  0  0  0  0  0  0
   38.1450   21.6620   33.3320 C   0  0  0  0  0  0  0  0  0  0  0  0
   37.8480   21.9730   34.6170 N   0  0  0  0  0  0  0  0  0  0  0  0
   40.9720   22.4060   35.8270 H   0  0  0  0  0  0  0  0  0  0  0  0
   41.5090   21.8260   33.4490 H   0  0  0  0  0  0  0  0  0  0  0  0
   37.4290   21.4400   32.5670 H   0  0  0  0  0  0  0  0  0  0  0  0
   38.5940   24.9440   36.4100 O   0  0  0  0  0  0  0  0  0  0  0  0
   38.7390   27.1190   35.3880 C   0  0  1  0  0  3  0  0  0  0  0  0
   37.9360   25.8760   35.6470 C   0  0  1  0  0  3  0  0  0  0  0  0
   37.5460   25.3420   34.4560 O   0  0  0  0  0  0  0  0  0  0  0  0
   37.6650   26.2850   33.4620 C   0  0  0  0  0  2  0  0  0  0  0  0
   38.6860   27.2970   33.8930 C   0  0  2  0  0  3  0  0  0  0  0  0
   38.2120   28.2330   36.0200 O   0  0  0  0  0  0  0  0  0  0  0  0
   37.2380   28.0560   36.1480 H   0  0  0  0  0  0  0  0  0  0  0  0
   39.9390   27.0930   33.2980 O   0  0  0  0  0  0  0  0  0  0  0  0
   40.5880   26.7390   33.9350 H   0  0  0  0  0  0  0  0  0  0  0  0
  1  6  1  6  0  0  0
  1  5  1  0  0  0  0
  2  1  1  0  0  0  0
  2  7  1  1  0  0  0
  2  3  1  0  0  0  0
  3  8  1  0  0  0  0
  3  4  1  0  0  0  0
  5 11  1  0  0  0  0
  5  4  1  0  0  0  0
  5 10  1  0  0  0  0
  9  3  1  0  0  0  0
 12  2  1  0  0  0  0
 13 12  1  0  0  0  0
 13 18  1  0  0  0  0
 14 13  2  0  0  0  0
 15 16  2  0  0  0  0
 15 14  1  0  0  0  0
 16 17  1  0  0  0  0
 17 12  2  0  0  0  0
 19 14  1  0  0  0  0
 20 16  1  0  0  0  0
 21  1  1  0  0  0  0
 22 23  1  0  0  0  0
 22 27  1  1  0  0  0
 23 21  1  6  0  0  0
 24 23  1  0  0  0  0
 25 26  1  0  0  0  0
 25 24  1  0  0  0  0
 26 29  1  6  0  0  0
 26 22  1  0  0  0  0
 27 28  1  0  0  0  0
 29 30  1  0  0  0  0
M  END
>  <minimizedAffinity>
-4.69639874

$$$$

 OpenBabel03262521433D

 30 32  0  0  1  0  0  0  0  0999 V2000
   41.1410   23.9260   34.2420 C   0  0  1  0  0  0  0  0  0  0  0  0
   40.9550   25.3760   33.7720 C   0  0  2  0  0  0  0  0  0  0  0  0
   42.1760   25.9380   34.4590 C   0  0  0  0  0  0  0  0  0  0  0  0
   43.1980   25.0370   34.2150 O   0  0  0  0  0  0  0  0  0  0  0  0
   42.6460   23.8100   33.9500 C   0  0  0  0  0  0  0  0  0  0  0  0
   40.5690   23.2090   33.6360 H   0  0  0  0  0  0  0  0  0  0  0  0
   41.0980   25.3750   32.6770 H   0  0  0  0  0  0  0  0  0  0  0  0
   42.4160   26.9660   34.1230 H   0  0  0  0  0  0  0  0  0  0  0  0
   41.9550   25.9020   35.5570 H   0  0  0  0  0  0  0  0  0  0  0  0
   42.7390   23.5580   32.8790 H   0  0  0  0  0  0  0  0  0  0  0  0
   43.0910   22.9910   34.5630 H   0  0  0  0  0  0  0  0  0  0  0  0
   39.6810   25.9380   34.2230 C   0  0  0  0  0  0  0  0  0  0  0  0
   39.6500   26.8700   35.2890 C   0  0  0  0  0  0  0  0  0  0  0  0
   38.3830   27.3340   35.6580 C   0  0  0  0  0  0  0  0  0  0  0  0
   37.2660   26.8850   34.9980 N   0  0  0  0  0  0  0  0  0  0  0  0
   37.3530   25.9890   33.9800 C   0  0  0  0  0  0  0  0  0  0  0  0
   38.5660   25.5210   33.5980 N   0  0  0  0  0  0  0  0  0  0  0  0
   40.5290   27.1970   35.7780 H   0  0  0  0  0  0  0  0  0  0  0  0
   38.2810   28.0570   36.4750 H   0  0  0  0  0  0  0  0  0  0  0  0
   36.4160   25.7130   33.5420 H   0  0  0  0  0  0  0  0  0  0  0  0
   41.0180   23.8010   35.5900 O   0  0  0  0  0  0  0  0  0  0  0  0
   39.3920   23.1950   37.2590 C   0  0  1  0  0  3  0  0  0  0  0  0
   40.1240   22.8430   35.9960 C   0  0  1  0  0  3  0  0  0  0  0  0
   39.2160   22.5780   35.0140 O   0  0  0  0  0  0  0  0  0  0  0  0
   37.9830   22.3400   35.5740 C   0  0  0  0  0  2  0  0  0  0  0  0
   37.9370   23.0100   36.9170 C   0  0  2  0  0  3  0  0  0  0  0  0
   39.7400   22.3780   38.3210 O   0  0  0  0  0  0  0  0  0  0  0  0
   40.0610   21.5180   37.9280 H   0  0  0  0  0  0  0  0  0  0  0  0
   37.2470   24.2300   36.8920 O   0  0  0  0  0  0  0  0  0  0  0  0
   37.8530   24.9900   36.9650 H   0  0  0  0  0  0  0  0  0  0  0  0
  1  6  1  6  0  0  0
  1 21  1  0  0  0  0
  2  7  1  6  0  0  0
  2 12  1  0  0  0  0
  2  1  1  0  0  0  0
  2  3  1  0  0  0  0
  3  9  1  0  0  0  0
  4  3  1  0  0  0  0
  5  4  1  0  0  0  0
  5  1  1  0  0  0  0
  5 11  1  0  0  0  0
  8  3  1  0  0  0  0
 10  5  1  0  0  0  0
 12 13  1  0  0  0  0
 13 14  2  0  0  0  0
 13 18  1  0  0  0  0
 14 19  1  0  0  0  0
 15 14  1  0  0  0  0
 16 15  2  0  0  0  0
 17 16  1  0  0  0  0
 17 12  2  0  0  0  0
 20 16  1  0  0  0  0
 22 27  1  1  0  0  0
 23 21  1  6  0  0  0
 23 22  1  0  0  0  0
 24 25  1  0  0  0  0
 24 23  1  0  0  0  0
 25 26  1  0  0  0  0
 26 29  1  6  0  0  0
 26 22  1  0  0  0  0
 28 27  1  0  0  0  0
 29 30  1  0  0  0  0
M  END
>  <minimizedAffinity>
-4.68370533

$$$$

 OpenBabel03262521433D

 30 32  0  0  1  0  0  0  0  0999 V2000
   39.1090   24.9110   34.7540 C   0  0  1  0  0  0  0  0  0  0  0  0
   38.8590   25.2100   33.2690 C   0  0  2  0  0  0  0  0  0  0  0  0
   38.5700   26.6830   33.4360 C   0  0  0  0  0  0  0  0  0  0  0  0
   39.5380   27.1630   34.3010 O   0  0  0  0  0  0  0  0  0  0  0  0
   40.0080   26.1200   35.0560 C   0  0  0  0  0  0  0  0  0  0  0  0
   39.6540   23.9690   34.9090 H   0  0  0  0  0  0  0  0  0  0  0  0
   39.8240   25.0650   32.7500 H   0  0  0  0  0  0  0  0  0  0  0  0
   38.5480   27.2220   32.4690 H   0  0  0  0  0  0  0  0  0  0  0  0
   37.5870   26.7450   33.9680 H   0  0  0  0  0  0  0  0  0  0  0  0
   41.0290   25.8360   34.7470 H   0  0  0  0  0  0  0  0  0  0  0  0
   40.0000   26.3360   36.1510 H   0  0  0  0  0  0  0  0  0  0  0  0
   37.7490   24.4230   32.7300 C   0  0  0  0  0  0  0  0  0  0  0  0
   36.6920   25.0610   32.0370 C   0  0  0  0  0  0  0  0  0  0  0  0
   35.6700   24.2240   31.5780 C   0  0  0  0  0  0  0  0  0  0  0  0
   35.7300   22.8720   31.8090 N   0  0  0  0  0  0  0  0  0  0  0  0
   36.7690   22.3110   32.4810 C   0  0  0  0  0  0  0  0  0  0  0  0
   37.7760   23.0940   32.9380 N   0  0  0  0  0  0  0  0  0  0  0  0
   36.6740   26.1060   31.8740 H   0  0  0  0  0  0  0  0  0  0  0  0
   34.8190   24.6470   31.0320 H   0  0  0  0  0  0  0  0  0  0  0  0
   36.7070   21.2490   32.6010 H   0  0  0  0  0  0  0  0  0  0  0  0
   37.9920   25.0860   35.5100 O   0  0  0  0  0  0  0  0  0  0  0  0
   38.6450   22.9010   36.2820 C   0  0  1  0  0  3  0  0  0  0  0  0
   37.7970   24.1260   36.4710 C   0  0  1  0  0  3  0  0  0  0  0  0
   38.0180   24.6330   37.7160 O   0  0  0  0  0  0  0  0  0  0  0  0
   38.6140   23.6790   38.5070 C   0  0  0  0  0  2  0  0  0  0  0  0
   39.3200   22.7010   37.6140 C   0  0  2  0  0  3  0  0  0  0  0  0
   37.8990   21.7830   35.9530 O   0  0  0  0  0  0  0  0  0  0  0  0
   36.9800   21.9350   36.3120 H   0  0  0  0  0  0  0  0  0  0  0  0
   40.7010   22.9300   37.5400 O   0  0  0  0  0  0  0  0  0  0  0  0
   40.9590   23.3090   36.6790 H   0  0  0  0  0  0  0  0  0  0  0  0
  1  6  1  1  0  0  0
  1  5  1  0  0  0  0
  1 21  1  0  0  0  0
  2  7  1  6  0  0  0
  2  3  1  0  0  0  0
  2  1  1  0  0  0  0
  3  9  1  0  0  0  0
  3  4  1  0  0  0  0
  4  5  1  0  0  0  0
  5 11  1  0  0  0  0
  8  3  1  0  0  0  0
 10  5  1  0  0  0  0
 12 17  1  0  0  0  0
 12  2  1  0  0  0  0
 13 12  2  0  0  0  0
 14 15  2  0  0  0  0
 14 13  1  0  0  0  0
 15 16  1  0  0  0  0
 16 20  1  0  0  0  0
 16 17  2  0  0  0  0
 18 13  1  0  0  0  0
 19 14  1  0  0  0  0
 22 27  1  1  0  0  0
 22 23  1  0  0  0  0
 22 26  1  0  0  0  0
 23 21  1  6  0  0  0
 23 24  1  0  0  0  0
 24 25  1  0  0  0  0
 26 29  1  6  0  0  0
 26 25  1  0  0  0  0
 27 28  1  0  0  0  0
 30 29  1  0  0  0  0
M  END
>  <minimizedAffinity>
-4.67292166

$$$$

 OpenBabel03262521433D

 30 32  0  0  1  0  0  0  0  0999 V2000
   37.6780   26.8100   32.1610 C   0  0  1  0  0  0  0  0  0  0  0  0
   36.8010   26.2110   31.0520 C   0  0  2  0  0  0  0  0  0  0  0  0
   35.5070   26.8570   31.4860 C   0  0  0  0  0  0  0  0  0  0  0  0
   35.8190   28.1740   31.7750 O   0  0  0  0  0  0  0  0  0  0  0  0
   37.1550   28.2530   32.0760 C   0  0  0  0  0  0  0  0  0  0  0  0
   38.7500   26.7670   31.9220 H   0  0  0  0  0  0  0  0  0  0  0  0
   37.1490   26.6520   30.1010 H   0  0  0  0  0  0  0  0  0  0  0  0
   34.7090   26.7580   30.7260 H   0  0  0  0  0  0  0  0  0  0  0  0
   35.2250   26.3620   32.4510 H   0  0  0  0  0  0  0  0  0  0  0  0
   37.7160   28.7420   31.2610 H   0  0  0  0  0  0  0  0  0  0  0  0
   37.3540   28.7870   33.0350 H   0  0  0  0  0  0  0  0  0  0  0  0
   36.8000   24.7480   31.0850 C   0  0  0  0  0  0  0  0  0  0  0  0
   35.6160   24.0420   31.4090 C   0  0  0  0  0  0  0  0  0  0  0  0
   35.7230   22.6480   31.4330 C   0  0  0  0  0  0  0  0  0  0  0  0
   36.9230   22.0440   31.1520 N   0  0  0  0  0  0  0  0  0  0  0  0
   38.0300   22.7700   30.8460 C   0  0  0  0  0  0  0  0  0  0  0  0
   37.9600   24.1220   30.8140 N   0  0  0  0  0  0  0  0  0  0  0  0
   34.7050   24.5370   31.6210 H   0  0  0  0  0  0  0  0  0  0  0  0
   34.8470   22.0350   31.6750 H   0  0  0  0  0  0  0  0  0  0  0  0
   38.9080   22.1900   30.6460 H   0  0  0  0  0  0  0  0  0  0  0  0
   37.3230   26.3630   33.3960 O   0  0  0  0  0  0  0  0  0  0  0  0
   38.0520   26.4070   35.6900 C   0  0  1  0  0  3  0  0  0  0  0  0
   38.3770   26.1440   34.2480 C   0  0  1  0  0  3  0  0  0  0  0  0
   38.8470   24.8720   34.1220 O   0  0  0  0  0  0  0  0  0  0  0  0
   39.2330   24.3950   35.3530 C   0  0  0  0  0  2  0  0  0  0  0  0
   38.4830   25.1560   36.4080 C   0  0  2  0  0  3  0  0  0  0  0  0
   38.7280   27.5050   36.1960 O   0  0  0  0  0  0  0  0  0  0  0  0
   39.5540   27.6110   35.6460 H   0  0  0  0  0  0  0  0  0  0  0  0
   37.3890   24.4430   36.9190 O   0  0  0  0  0  0  0  0  0  0  0  0
   36.5420   24.8070   36.6040 H   0  0  0  0  0  0  0  0  0  0  0  0
  1  6  1  6  0  0  0
  1 21  1  0  0  0  0
  2  7  1  6  0  0  0
  2 12  1  0  0  0  0
  2  3  1  0  0  0  0
  2  1  1  0  0  0  0
  3  4  1  0  0  0  0
  3  9  1  0  0  0  0
  4  5  1  0  0  0  0
  5  1  1  0  0  0  0
  5 11  1  0  0  0  0
  8  3  1  0  0  0  0
 10  5  1  0  0  0  0
 12 13  1  0  0  0  0
 13 14  2  0  0  0  0
 13 18  1  0  0  0  0
 14 19  1  0  0  0  0
 15 14  1  0  0  0  0
 16 15  2  0  0  0  0
 17 16  1  0  0  0  0
 17 12  2  0  0  0  0
 20 16  1  0  0  0  0
 22 27  1  1  0  0  0
 22 26  1  0  0  0  0
 23 21  1  6  0  0  0
 23 22  1  0  0  0  0
 24 23  1  0  0  0  0
 24 25  1  0  0  0  0
 25 26  1  0  0  0  0
 26 29  1  6  0  0  0
 28 27  1  0  0  0  0
 30 29  1  0  0  0  0
M  END
>  <minimizedAffinity>
-4.59898615

$$$$

 OpenBabel03262521433D

 30 32  0  0  1  0  0  0  0  0999 V2000
   40.4480   24.5950   34.4840 C   0  0  1  0  0  0  0  0  0  0  0  0
   40.3550   25.6110   33.3370 C   0  0  2  0  0  0  0  0  0  0  0  0
   41.0270   26.7520   34.0620 C   0  0  0  0  0  0  0  0  0  0  0  0
   42.1310   26.2040   34.6920 O   0  0  0  0  0  0  0  0  0  0  0  0
   41.9110   24.8630   34.8740 C   0  0  0  0  0  0  0  0  0  0  0  0
   40.3180   23.5580   34.1420 H   0  0  0  0  0  0  0  0  0  0  0  0
   41.0050   25.2350   32.5280 H   0  0  0  0  0  0  0  0  0  0  0  0
   41.2860   27.5900   33.3860 H   0  0  0  0  0  0  0  0  0  0  0  0
   40.3110   27.0720   34.8630 H   0  0  0  0  0  0  0  0  0  0  0  0
   42.5330   24.2630   34.1880 H   0  0  0  0  0  0  0  0  0  0  0  0
   42.0920   24.5310   35.9240 H   0  0  0  0  0  0  0  0  0  0  0  0
   38.9690   25.8640   32.9410 C   0  0  0  0  0  0  0  0  0  0  0  0
   38.4120   27.1580   33.0820 C   0  0  0  0  0  0  0  0  0  0  0  0
   37.0740   27.2940   32.6940 C   0  0  0  0  0  0  0  0  0  0  0  0
   36.3840   26.2090   32.2130 N   0  0  0  0  0  0  0  0  0  0  0  0
   36.9680   24.9880   32.0980 C   0  0  0  0  0  0  0  0  0  0  0  0
   38.2620   24.8240   32.4640 N   0  0  0  0  0  0  0  0  0  0  0  0
   38.9700   27.9750   33.4580 H   0  0  0  0  0  0  0  0  0  0  0  0
   36.5760   28.2660   32.7740 H   0  0  0  0  0  0  0  0  0  0  0  0
   36.3310   24.2190   31.7100 H   0  0  0  0  0  0  0  0  0  0  0  0
   39.7070   24.9650   35.5630 O   0  0  0  0  0  0  0  0  0  0  0  0
   39.5780   23.0850   37.0620 C   0  0  1  0  0  3  0  0  0  0  0  0
   38.8970   23.9770   36.0650 C   0  0  1  0  0  3  0  0  0  0  0  0
   37.7780   24.5090   36.6340 O   0  0  0  0  0  0  0  0  0  0  0  0
   37.4320   23.7790   37.7470 C   0  0  0  0  0  2  0  0  0  0  0  0
   38.6620   23.0870   38.2570 C   0  0  2  0  0  3  0  0  0  0  0  0
   39.7470   21.7930   36.5920 O   0  0  0  0  0  0  0  0  0  0  0  0
   39.0380   21.6430   35.9050 H   0  0  0  0  0  0  0  0  0  0  0  0
   39.2380   23.7400   39.3560 O   0  0  0  0  0  0  0  0  0  0  0  0
   40.0660   24.1940   39.1130 H   0  0  0  0  0  0  0  0  0  0  0  0
  1  6  1  6  0  0  0
  1  5  1  0  0  0  0
  1 21  1  0  0  0  0
  2  7  1  6  0  0  0
  2  3  1  0  0  0  0
  2  1  1  0  0  0  0
  3  4  1  0  0  0  0
  3  9  1  0  0  0  0
  4  5  1  0  0  0  0
  5 11  1  0  0  0  0
  8  3  1  0  0  0  0
 10  5  1  0  0  0  0
 12 13  1  0  0  0  0
 12  2  1  0  0  0  0
 13 18  1  0  0  0  0
 14 19  1  0  0  0  0
 14 13  2  0  0  0  0
 15 14  1  0  0  0  0
 16 15  2  0  0  0  0
 16 17  1  0  0  0  0
 17 12  2  0  0  0  0
 20 16  1  0  0  0  0
 22 27  1  6  0  0  0
 22 26  1  0  0  0  0
 23 21  1  1  0  0  0
 23 24  1  0  0  0  0
 23 22  1  0  0  0  0
 24 25  1  0  0  0  0
 25 26  1  0  0  0  0
 26 29  1  1  0  0  0
 28 27  1  0  0  0  0
 30 29  1  0  0  0  0
M  END
>  <minimizedAffinity>
-4.59086561

$$$$

 OpenBabel03262521433D

 30 32  0  0  1  0  0  0  0  0999 V2000
   39.1650   26.5370   33.9190 C   0  0  1  0  0  0  0  0  0  0  0  0
   39.9530   25.6620   34.9040 C   0  0  2  0  0  0  0  0  0  0  0  0
   40.9610   25.1430   33.9060 C   0  0  0  0  0  0  0  0  0  0  0  0
   41.3570   26.2400   33.1610 O   0  0  0  0  0  0  0  0  0  0  0  0
   40.3690   27.1900   33.2190 C   0  0  0  0  0  0  0  0  0  0  0  0
   38.5490   27.2940   34.4250 H   0  0  0  0  0  0  0  0  0  0  0  0
   40.4400   26.3500   35.6180 H   0  0  0  0  0  0  0  0  0  0  0  0
   41.8080   24.6220   34.3920 H   0  0  0  0  0  0  0  0  0  0  0  0
   40.3920   24.4620   33.2210 H   0  0  0  0  0  0  0  0  0  0  0  0
   40.6750   28.0410   33.8520 H   0  0  0  0  0  0  0  0  0  0  0  0
   40.0670   27.5660   32.2140 H   0  0  0  0  0  0  0  0  0  0  0  0
   39.1110   24.6350   35.5190 C   0  0  0  0  0  0  0  0  0  0  0  0
   38.1950   24.9820   36.5410 C   0  0  0  0  0  0  0  0  0  0  0  0
   37.4500   23.9270   37.0790 C   0  0  0  0  0  0  0  0  0  0  0  0
   37.6310   22.6490   36.6120 N   0  0  0  0  0  0  0  0  0  0  0  0
   38.5250   22.3710   35.6270 C   0  0  0  0  0  0  0  0  0  0  0  0
   39.2610   23.3710   35.0850 N   0  0  0  0  0  0  0  0  0  0  0  0
   38.0790   25.9770   36.8810 H   0  0  0  0  0  0  0  0  0  0  0  0
   36.7210   24.1200   37.8740 H   0  0  0  0  0  0  0  0  0  0  0  0
   38.5780   21.3390   35.3450 H   0  0  0  0  0  0  0  0  0  0  0  0
   38.5390   25.8010   32.9610 O   0  0  0  0  0  0  0  0  0  0  0  0
   36.8060   27.3450   32.3230 C   0  0  1  0  0  3  0  0  0  0  0  0
   37.1850   26.0030   32.8810 C   0  0  1  0  0  3  0  0  0  0  0  0
   36.5910   25.0280   32.1370 O   0  0  0  0  0  0  0  0  0  0  0  0
   35.5650   25.5670   31.3980 C   0  0  0  0  0  2  0  0  0  0  0  0
   35.8360   27.0320   31.2140 C   0  0  2  0  0  3  0  0  0  0  0  0
   36.2050   28.1620   33.2660 O   0  0  0  0  0  0  0  0  0  0  0  0
   35.7960   27.5600   33.9490 H   0  0  0  0  0  0  0  0  0  0  0  0
   36.3690   27.3330   29.9530 O   0  0  0  0  0  0  0  0  0  0  0  0
   37.3160   27.5600   30.0060 H   0  0  0  0  0  0  0  0  0  0  0  0
  1  6  1  1  0  0  0
  1  2  1  0  0  0  0
  2 12  1  0  0  0  0
  2  7  1  1  0  0  0
  3  8  1  0  0  0  0
  3  2  1  0  0  0  0
  4  5  1  0  0  0  0
  4  3  1  0  0  0  0
  5 10  1  0  0  0  0
  5  1  1  0  0  0  0
  9  3  1  0  0  0  0
 11  5  1  0  0  0  0
 12 13  1  0  0  0  0
 13 18  1  0  0  0  0
 13 14  2  0  0  0  0
 14 19  1  0  0  0  0
 15 14  1  0  0  0  0
 16 15  2  0  0  0  0
 17 12  2  0  0  0  0
 17 16  1  0  0  0  0
 20 16  1  0  0  0  0
 21  1  1  0  0  0  0
 22 23  1  0  0  0  0
 22 27  1  1  0  0  0
 23 21  1  6  0  0  0
 24 23  1  0  0  0  0
 25 24  1  0  0  0  0
 26 29  1  6  0  0  0
 26 25  1  0  0  0  0
 26 22  1  0  0  0  0
 27 28  1  0  0  0  0
 29 30  1  0  0  0  0
M  END
>  <minimizedAffinity>
-4.57511568

$$$$

 OpenBabel03262521433D

 30 32  0  0  1  0  0  0  0  0999 V2000
   38.8430   22.7010   33.6940 C   0  0  1  0  0  0  0  0  0  0  0  0
   39.0060   24.0440   32.9690 C   0  0  2  0  0  0  0  0  0  0  0  0
   40.4380   23.8340   32.5380 C   0  0  0  0  0  0  0  0  0  0  0  0
   40.5040   22.5380   32.0580 O   0  0  0  0  0  0  0  0  0  0  0  0
   39.4870   21.8100   32.6200 C   0  0  0  0  0  0  0  0  0  0  0  0
   37.7880   22.4290   33.8480 H   0  0  0  0  0  0  0  0  0  0  0  0
   38.3340   24.0140   32.0930 H   0  0  0  0  0  0  0  0  0  0  0  0
   40.7720   24.5870   31.7980 H   0  0  0  0  0  0  0  0  0  0  0  0
   41.0500   23.8740   33.4750 H   0  0  0  0  0  0  0  0  0  0  0  0
   38.6980   21.5940   31.8780 H   0  0  0  0  0  0  0  0  0  0  0  0
   39.8360   20.8540   33.0770 H   0  0  0  0  0  0  0  0  0  0  0  0
   38.7930   25.1810   33.8660 C   0  0  0  0  0  0  0  0  0  0  0  0
   39.8990   25.8680   34.4210 C   0  0  0  0  0  0  0  0  0  0  0  0
   39.5910   26.9270   35.2810 C   0  0  0  0  0  0  0  0  0  0  0  0
   38.2810   27.2450   35.5410 N   0  0  0  0  0  0  0  0  0  0  0  0
   37.2560   26.5510   34.9810 C   0  0  0  0  0  0  0  0  0  0  0  0
   37.5210   25.5200   34.1420 N   0  0  0  0  0  0  0  0  0  0  0  0
   40.8990   25.5990   34.2020 H   0  0  0  0  0  0  0  0  0  0  0  0
   40.3960   27.5060   35.7480 H   0  0  0  0  0  0  0  0  0  0  0  0
   36.2790   26.8900   35.2570 H   0  0  0  0  0  0  0  0  0  0  0  0
   39.6490   22.6020   34.7850 O   0  0  0  0  0  0  0  0  0  0  0  0
   39.4820   22.9550   37.1600 C   0  0  1  0  0  3  0  0  0  0  0  0
   39.0080   22.2230   35.9370 C   0  0  1  0  0  3  0  0  0  0  0  0
   37.6600   22.3810   35.8180 O   0  0  0  0  0  0  0  0  0  0  0  0
   37.1340   22.8020   37.0170 C   0  0  0  0  0  2  0  0  0  0  0  0
   38.2220   23.4820   37.7960 C   0  0  2  0  0  3  0  0  0  0  0  0
   40.1550   22.1310   38.0460 O   0  0  0  0  0  0  0  0  0  0  0  0
   39.8220   21.2040   37.8850 H   0  0  0  0  0  0  0  0  0  0  0  0
   38.1480   24.8810   37.7280 O   0  0  0  0  0  0  0  0  0  0  0  0
   38.8510   25.2530   37.1640 H   0  0  0  0  0  0  0  0  0  0  0  0
  1  6  1  1  0  0  0
  1 21  1  0  0  0  0
  2  7  1  6  0  0  0
  2  1  1  0  0  0  0
  2 12  1  0  0  0  0
  3  2  1  0  0  0  0
  3  9  1  0  0  0  0
  4  3  1  0  0  0  0
  4  5  1  0  0  0  0
  5 11  1  0  0  0  0
  5  1  1  0  0  0  0
  8  3  1  0  0  0  0
 10  5  1  0  0  0  0
 12 17  2  0  0  0  0
 12 13  1  0  0  0  0
 13 14  2  0  0  0  0
 14 15  1  0  0  0  0
 14 19  1  0  0  0  0
 16 20  1  0  0  0  0
 16 15  2  0  0  0  0
 17 16  1  0  0  0  0
 18 13  1  0  0  0  0
 22 26  1  0  0  0  0
 22 27  1  1  0  0  0
 23 21  1  6  0  0  0
 23 22  1  0  0  0  0
 24 23  1  0  0  0  0
 24 25  1  0  0  0  0
 25 26  1  0  0  0  0
 26 29  1  6  0  0  0
 28 27  1  0  0  0  0
 30 29  1  0  0  0  0
M  END
>  <minimizedAffinity>
-4.52416658

$$$$

 OpenBabel03262521433D

 30 32  0  0  1  0  0  0  0  0999 V2000
   38.5890   26.2020   34.8660 C   0  0  1  0  0  0  0  0  0  0  0  0
   37.9610   26.7310   33.5690 C   0  0  2  0  0  0  0  0  0  0  0  0
   36.8190   27.4740   34.2210 C   0  0  0  0  0  0  0  0  0  0  0  0
   37.3710   28.1500   35.2950 O   0  0  0  0  0  0  0  0  0  0  0  0
   38.5240   27.5090   35.6710 C   0  0  0  0  0  0  0  0  0  0  0  0
   39.6310   25.8780   34.7290 H   0  0  0  0  0  0  0  0  0  0  0  0
   38.6840   27.4440   33.1350 H   0  0  0  0  0  0  0  0  0  0  0  0
   36.2910   28.1420   33.5140 H   0  0  0  0  0  0  0  0  0  0  0  0
   36.1380   26.6870   34.6360 H   0  0  0  0  0  0  0  0  0  0  0  0
   39.4140   28.0970   35.3880 H   0  0  0  0  0  0  0  0  0  0  0  0
   38.5610   27.2860   36.7630 H   0  0  0  0  0  0  0  0  0  0  0  0
   37.5570   25.6460   32.6730 C   0  0  0  0  0  0  0  0  0  0  0  0
   38.4970   24.6680   32.2680 C   0  0  0  0  0  0  0  0  0  0  0  0
   38.0190   23.6840   31.3960 C   0  0  0  0  0  0  0  0  0  0  0  0
   36.7100   23.7070   30.9840 N   0  0  0  0  0  0  0  0  0  0  0  0
   35.8480   24.6700   31.4040 C   0  0  0  0  0  0  0  0  0  0  0  0
   36.2800   25.6370   32.2500 N   0  0  0  0  0  0  0  0  0  0  0  0
   39.5010   24.6780   32.6030 H   0  0  0  0  0  0  0  0  0  0  0  0
   38.6900   22.8940   31.0400 H   0  0  0  0  0  0  0  0  0  0  0  0
   34.8540   24.5850   31.0170 H   0  0  0  0  0  0  0  0  0  0  0  0
   37.7740   25.3290   35.5160 O   0  0  0  0  0  0  0  0  0  0  0  0
   37.7740   22.9690   35.9900 C   0  0  1  0  0  3  0  0  0  0  0  0
   38.4270   24.3100   36.1620 C   0  0  1  0  0  3  0  0  0  0  0  0
   39.7250   24.2290   35.7560 O   0  0  0  0  0  0  0  0  0  0  0  0
   40.1120   22.9110   35.6990 C   0  0  0  0  0  2  0  0  0  0  0  0
   38.8840   22.0660   35.5200 C   0  0  2  0  0  3  0  0  0  0  0  0
   37.2330   22.4850   37.1700 O   0  0  0  0  0  0  0  0  0  0  0  0
   37.7420   22.9130   37.9150 H   0  0  0  0  0  0  0  0  0  0  0  0
   38.6960   21.6530   34.1940 O   0  0  0  0  0  0  0  0  0  0  0  0
   37.9590   22.1290   33.7690 H   0  0  0  0  0  0  0  0  0  0  0  0
  1  6  1  6  0  0  0
  1 21  1  0  0  0  0
  1  5  1  0  0  0  0
  2  7  1  6  0  0  0
  2  3  1  0  0  0  0
  2  1  1  0  0  0  0
  3  9  1  0  0  0  0
  3  4  1  0  0  0  0
  4  5  1  0  0  0  0
  5 11  1  0  0  0  0
  8  3  1  0  0  0  0
 10  5  1  0  0  0  0
 12  2  1  0  0  0  0
 13 18  1  0  0  0  0
 13 12  1  0  0  0  0
 14 13  2  0  0  0  0
 15 14  1  0  0  0  0
 15 16  2  0  0  0  0
 16 17  1  0  0  0  0
 17 12  2  0  0  0  0
 19 14  1  0  0  0  0
 20 16  1  0  0  0  0
 22 23  1  0  0  0  0
 22 27  1  1  0  0  0
 23 21  1  6  0  0  0
 24 23  1  0  0  0  0
 25 24  1  0  0  0  0
 26 29  1  6  0  0  0
 26 25  1  0  0  0  0
 26 22  1  0  0  0  0
 27 28  1  0  0  0  0
 30 29  1  0  0  0  0
M  END
>  <minimizedAffinity>
-4.51705408

$$$$
