
 OpenBabel03272506423D

 32 34  0  0  1  0  0  0  0  0999 V2000
   32.3990   28.3440   47.5600 C   0  0  2  0  0  0  0  0  0  0  0  0
   33.6770   28.3530   48.3710 C   0  0  1  0  0  0  0  0  0  0  0  0
   34.2370   27.1060   48.2900 O   0  0  0  0  0  0  0  0  0  0  0  0
   33.5560   26.3700   47.3460 C   0  0  0  0  0  0  0  0  0  0  0  0
   32.8060   27.3660   46.4820 C   0  0  1  0  0  0  0  0  0  0  0  0
   31.5600   27.8920   48.1170 H   0  0  0  0  0  0  0  0  0  0  0  0
   33.5000   28.6060   49.4250 H   0  0  0  0  0  0  0  0  0  0  0  0
   34.3160   25.7930   46.7790 H   0  0  0  0  0  0  0  0  0  0  0  0
   32.8290   25.7140   47.8620 H   0  0  0  0  0  0  0  0  0  0  0  0
   33.4400   27.8260   45.7110 H   0  0  0  0  0  0  0  0  0  0  0  0
   32.1050   29.6070   47.0670 O   0  0  0  0  0  0  0  0  0  0  0  0
   31.3610   29.9590   47.6310 H   0  0  0  0  0  0  0  0  0  0  0  0
   34.8050   29.5330   47.5480 S   0  0  0  0  0  0  0  0  0  0  0  0
   37.3860   29.4790   50.5560 C   0  0  0  0  0  0  0  0  0  0  0  0
   38.0060   30.7350   50.5200 C   0  0  0  0  0  0  0  0  0  0  0  0
   37.6070   31.6260   49.5260 C   0  0  0  0  0  0  0  0  0  0  0  0
   36.6480   31.2560   48.6410 N   0  0  0  0  0  0  0  0  0  0  0  0
   36.0700   30.0250   48.7120 C   0  0  0  0  0  0  0  0  0  0  0  0
   36.4330   29.1450   49.6590 N   0  0  0  0  0  0  0  0  0  0  0  0
   37.7050   28.8040   51.3300 H   0  0  0  0  0  0  0  0  0  0  0  0
   38.7730   31.0510   51.2140 H   0  0  0  0  0  0  0  0  0  0  0  0
   38.0030   32.6110   49.3910 H   0  0  0  0  0  0  0  0  0  0  0  0
   31.7150   26.7780   45.8590 O   0  0  0  0  0  0  0  0  0  0  0  0
   32.8740   27.5340   43.8890 C   0  0  2  0  0  3  0  0  0  0  0  0
   31.5360   27.2250   44.5590 C   0  0  2  0  0  3  0  0  0  0  0  0
   30.7990   28.3790   44.5290 O   0  0  0  0  0  0  0  0  0  0  0  0
   31.3880   29.2880   43.6680 C   0  0  0  0  0  2  0  0  0  0  0  0
   32.3640   28.4870   42.8070 C   0  0  1  0  0  3  0  0  0  0  0  0
   33.4140   26.3900   43.3060 O   0  0  0  0  0  0  0  0  0  0  0  0
   32.6520   25.9930   42.7800 H   0  0  0  0  0  0  0  0  0  0  0  0
   33.3580   29.2480   42.2540 O   0  0  0  0  0  0  0  0  0  0  0  0
   33.1870   29.2440   41.2580 H   0  0  0  0  0  0  0  0  0  0  0  0
  1  6  1  1  0  0  0
  1  2  1  0  0  0  0
  2  7  1  1  0  0  0
  3  2  1  0  0  0  0
  4  9  1  0  0  0  0
  4  3  1  0  0  0  0
  5 10  1  6  0  0  0
  5  4  1  0  0  0  0
  5  1  1  0  0  0  0
  8  4  1  0  0  0  0
 11  1  1  0  0  0  0
 11 12  1  0  0  0  0
 13  2  1  0  0  0  0
 13 18  1  0  0  0  0
 14 20  1  0  0  0  0
 15 14  1  0  0  0  0
 15 21  1  0  0  0  0
 16 15  2  0  0  0  0
 17 18  2  0  0  0  0
 17 16  1  0  0  0  0
 18 19  1  0  0  0  0
 19 14  2  0  0  0  0
 22 16  1  0  0  0  0
 23  5  1  0  0  0  0
 24 29  1  6  0  0  0
 24 25  1  0  0  0  0
 25 23  1  1  0  0  0
 26 25  1  0  0  0  0
 27 26  1  0  0  0  0
 28 31  1  1  0  0  0
 28 27  1  0  0  0  0
 28 24  1  0  0  0  0
 30 29  1  0  0  0  0
 32 31  1  0  0  0  0
M  END
>  <minimizedAffinity>
-3.81039667

>  <minimizedRMSD>
1.24052322

$$$$
