
 OpenBabel03272506413D

 32 34  0  0  1  0  0  0  0  0999 V2000
   32.4010   28.3380   47.5980 C   0  0  2  0  0  0  0  0  0  0  0  0
   33.6710   28.3760   48.4180 C   0  0  1  0  0  0  0  0  0  0  0  0
   34.2350   27.1290   48.3820 O   0  0  0  0  0  0  0  0  0  0  0  0
   33.5640   26.3610   47.4570 C   0  0  0  0  0  0  0  0  0  0  0  0
   32.8190   27.3270   46.5550 C   0  0  1  0  0  0  0  0  0  0  0  0
   31.5580   27.9020   48.1620 H   0  0  0  0  0  0  0  0  0  0  0  0
   33.4850   28.6630   49.4620 H   0  0  0  0  0  0  0  0  0  0  0  0
   34.3300   25.7690   46.9150 H   0  0  0  0  0  0  0  0  0  0  0  0
   32.8340   25.7200   47.9870 H   0  0  0  0  0  0  0  0  0  0  0  0
   33.4580   27.7640   45.7750 H   0  0  0  0  0  0  0  0  0  0  0  0
   32.1070   29.5830   47.0620 O   0  0  0  0  0  0  0  0  0  0  0  0
   31.3580   29.9520   47.6080 H   0  0  0  0  0  0  0  0  0  0  0  0
   34.8030   29.5330   47.5670 S   0  0  0  0  0  0  0  0  0  0  0  0
   37.4210   29.5000   50.5440 C   0  0  0  0  0  0  0  0  0  0  0  0
   38.0360   30.7590   50.4950 C   0  0  0  0  0  0  0  0  0  0  0  0
   37.6210   31.6440   49.5030 C   0  0  0  0  0  0  0  0  0  0  0  0
   36.6530   31.2670   48.6320 N   0  0  0  0  0  0  0  0  0  0  0  0
   36.0800   30.0340   48.7140 C   0  0  0  0  0  0  0  0  0  0  0  0
   36.4580   29.1590   49.6600 N   0  0  0  0  0  0  0  0  0  0  0  0
   37.7520   28.8290   51.3170 H   0  0  0  0  0  0  0  0  0  0  0  0
   38.8090   31.0810   51.1790 H   0  0  0  0  0  0  0  0  0  0  0  0
   38.0110   32.6310   49.3600 H   0  0  0  0  0  0  0  0  0  0  0  0
   31.7340   26.7170   45.9420 O   0  0  0  0  0  0  0  0  0  0  0  0
   30.3680   26.4390   43.9790 C   0  0  2  0  0  3  0  0  0  0  0  0
   31.6440   27.0150   44.5910 C   0  0  2  0  0  3  0  0  0  0  0  0
   32.6960   26.4810   43.8960 O   0  0  0  0  0  0  0  0  0  0  0  0
   32.2350   25.8730   42.7420 C   0  0  0  0  0  2  0  0  0  0  0  0
   30.8200   26.4060   42.5190 C   0  0  1  0  0  3  0  0  0  0  0  0
   29.3010   27.3220   44.1330 O   0  0  0  0  0  0  0  0  0  0  0  0
   29.6650   28.2100   43.8290 H   0  0  0  0  0  0  0  0  0  0  0  0
   30.0440   25.5920   41.7380 O   0  0  0  0  0  0  0  0  0  0  0  0
   29.8820   26.1020   40.8820 H   0  0  0  0  0  0  0  0  0  0  0  0
  1  6  1  1  0  0  0
  1  2  1  0  0  0  0
  2  7  1  1  0  0  0
  3  2  1  0  0  0  0
  4  9  1  0  0  0  0
  4  3  1  0  0  0  0
  5 10  1  6  0  0  0
  5  4  1  0  0  0  0
  5  1  1  0  0  0  0
  8  4  1  0  0  0  0
 11  1  1  0  0  0  0
 11 12  1  0  0  0  0
 13  2  1  0  0  0  0
 13 18  1  0  0  0  0
 14 20  1  0  0  0  0
 15 14  1  0  0  0  0
 15 21  1  0  0  0  0
 16 15  2  0  0  0  0
 17 18  2  0  0  0  0
 17 16  1  0  0  0  0
 18 19  1  0  0  0  0
 19 14  2  0  0  0  0
 22 16  1  0  0  0  0
 23  5  1  0  0  0  0
 24 29  1  6  0  0  0
 24 25  1  0  0  0  0
 25 23  1  1  0  0  0
 26 25  1  0  0  0  0
 27 26  1  0  0  0  0
 28 31  1  6  0  0  0
 28 27  1  0  0  0  0
 28 24  1  0  0  0  0
 30 29  1  0  0  0  0
 32 31  1  0  0  0  0
M  END
>  <minimizedAffinity>
-3.74182248

>  <minimizedRMSD>
0.353329748

$$$$
