
 OpenBabel03272506423D

 32 34  0  0  1  0  0  0  0  0999 V2000
   32.3490   28.3530   47.4340 C   0  0  2  0  0  0  0  0  0  0  0  0
   33.5470   28.3760   48.3580 C   0  0  1  0  0  0  0  0  0  0  0  0
   34.0920   27.1200   48.3750 O   0  0  0  0  0  0  0  0  0  0  0  0
   33.4890   26.3570   47.4010 C   0  0  0  0  0  0  0  0  0  0  0  0
   32.8370   27.3290   46.4350 C   0  0  1  0  0  0  0  0  0  0  0  0
   31.4560   27.9340   47.9280 H   0  0  0  0  0  0  0  0  0  0  0  0
   33.2790   28.6720   49.3810 H   0  0  0  0  0  0  0  0  0  0  0  0
   34.2880   25.7490   46.9270 H   0  0  0  0  0  0  0  0  0  0  0  0
   32.7060   25.7310   47.8710 H   0  0  0  0  0  0  0  0  0  0  0  0
   33.5460   27.7510   45.7090 H   0  0  0  0  0  0  0  0  0  0  0  0
   32.1220   29.6000   46.8700 O   0  0  0  0  0  0  0  0  0  0  0  0
   31.3360   29.9830   47.3490 H   0  0  0  0  0  0  0  0  0  0  0  0
   34.7650   29.5090   47.5990 S   0  0  0  0  0  0  0  0  0  0  0  0
   37.3250   29.3120   50.6200 C   0  0  0  0  0  0  0  0  0  0  0  0
   37.8290   30.6130   50.7500 C   0  0  0  0  0  0  0  0  0  0  0  0
   37.3550   31.5820   49.8680 C   0  0  0  0  0  0  0  0  0  0  0  0
   36.4380   31.2400   48.9290 N   0  0  0  0  0  0  0  0  0  0  0  0
   35.9740   29.9630   48.8360 C   0  0  0  0  0  0  0  0  0  0  0  0
   36.4110   29.0080   49.6720 N   0  0  0  0  0  0  0  0  0  0  0  0
   37.7010   28.5770   51.3090 H   0  0  0  0  0  0  0  0  0  0  0  0
   38.5590   30.9080   51.4910 H   0  0  0  0  0  0  0  0  0  0  0  0
   37.6590   32.6080   49.8630 H   0  0  0  0  0  0  0  0  0  0  0  0
   31.7980   26.7330   45.7360 O   0  0  0  0  0  0  0  0  0  0  0  0
   31.7460   25.7070   43.5590 C   0  0  2  0  0  3  0  0  0  0  0  0
   31.8470   26.9950   44.3760 C   0  0  2  0  0  3  0  0  0  0  0  0
   33.0280   27.5950   44.0300 O   0  0  0  0  0  0  0  0  0  0  0  0
   33.5400   27.0000   42.8910 C   0  0  0  0  0  2  0  0  0  0  0  0
   32.3870   26.2160   42.2660 C   0  0  1  0  0  3  0  0  0  0  0  0
   30.4150   25.3650   43.3340 O   0  0  0  0  0  0  0  0  0  0  0  0
   29.9890   26.2170   43.0100 H   0  0  0  0  0  0  0  0  0  0  0  0
   32.7950   25.2060   41.4380 O   0  0  0  0  0  0  0  0  0  0  0  0
   32.5130   25.4780   40.5080 H   0  0  0  0  0  0  0  0  0  0  0  0
  1  6  1  1  0  0  0
  1  2  1  0  0  0  0
  2  3  1  0  0  0  0
  2  7  1  1  0  0  0
  4  9  1  0  0  0  0
  4  3  1  0  0  0  0
  5 10  1  6  0  0  0
  5  4  1  0  0  0  0
  5  1  1  0  0  0  0
  8  4  1  0  0  0  0
 11 12  1  0  0  0  0
 11  1  1  0  0  0  0
 13  2  1  0  0  0  0
 13 18  1  0  0  0  0
 14 15  1  0  0  0  0
 14 20  1  0  0  0  0
 15 21  1  0  0  0  0
 16 15  2  0  0  0  0
 17 16  1  0  0  0  0
 18 17  2  0  0  0  0
 18 19  1  0  0  0  0
 19 14  2  0  0  0  0
 22 16  1  0  0  0  0
 23  5  1  0  0  0  0
 24 29  1  6  0  0  0
 24 25  1  0  0  0  0
 25 23  1  1  0  0  0
 26 25  1  0  0  0  0
 27 26  1  0  0  0  0
 28 31  1  6  0  0  0
 28 27  1  0  0  0  0
 28 24  1  0  0  0  0
 30 29  1  0  0  0  0
 32 31  1  0  0  0  0
M  END
>  <minimizedAffinity>
-3.75402212

>  <minimizedRMSD>
0.358417302

$$$$
