
 OpenBabel03272506423D

 32 34  0  0  1  0  0  0  0  0999 V2000
   32.2510   28.1700   47.5460 C   0  0  2  0  0  0  0  0  0  0  0  0
   33.5030   28.1660   48.3970 C   0  0  1  0  0  0  0  0  0  0  0  0
   34.1000   26.9420   48.2620 O   0  0  0  0  0  0  0  0  0  0  0  0
   33.4700   26.2430   47.2580 C   0  0  0  0  0  0  0  0  0  0  0  0
   32.7180   27.2670   46.4280 C   0  0  1  0  0  0  0  0  0  0  0  0
   31.4090   27.6650   48.0500 H   0  0  0  0  0  0  0  0  0  0  0  0
   33.2870   28.3540   49.4570 H   0  0  0  0  0  0  0  0  0  0  0  0
   34.2620   25.7210   46.6830 H   0  0  0  0  0  0  0  0  0  0  0  0
   32.7460   25.5400   47.7120 H   0  0  0  0  0  0  0  0  0  0  0  0
   33.3620   27.7880   45.7050 H   0  0  0  0  0  0  0  0  0  0  0  0
   31.9370   29.4510   47.1170 O   0  0  0  0  0  0  0  0  0  0  0  0
   31.1660   29.7510   47.6750 H   0  0  0  0  0  0  0  0  0  0  0  0
   34.6220   29.4220   47.6780 S   0  0  0  0  0  0  0  0  0  0  0  0
   37.2640   29.2380   50.6280 C   0  0  0  0  0  0  0  0  0  0  0  0
   37.6770   30.5630   50.8220 C   0  0  0  0  0  0  0  0  0  0  0  0
   37.1150   31.5430   50.0080 C   0  0  0  0  0  0  0  0  0  0  0  0
   36.2010   31.1900   49.0700 N   0  0  0  0  0  0  0  0  0  0  0  0
   35.8260   29.8900   48.9140 C   0  0  0  0  0  0  0  0  0  0  0  0
   36.3500   28.9240   49.6840 N   0  0  0  0  0  0  0  0  0  0  0  0
   37.7070   28.4940   51.2660 H   0  0  0  0  0  0  0  0  0  0  0  0
   38.4040   30.8670   51.5640 H   0  0  0  0  0  0  0  0  0  0  0  0
   37.3460   32.5870   50.0560 H   0  0  0  0  0  0  0  0  0  0  0  0
   31.6630   26.6880   45.7380 O   0  0  0  0  0  0  0  0  0  0  0  0
   32.8580   27.6100   43.8620 C   0  0  2  0  0  3  0  0  0  0  0  0
   31.5110   27.2040   44.4600 C   0  0  2  0  0  3  0  0  0  0  0  0
   30.7250   28.3250   44.4700 O   0  0  0  0  0  0  0  0  0  0  0  0
   31.3020   29.3090   43.6880 C   0  0  0  0  0  2  0  0  0  0  0  0
   32.3430   28.6040   42.8200 C   0  0  1  0  0  3  0  0  0  0  0  0
   33.4680   26.5280   43.2330 O   0  0  0  0  0  0  0  0  0  0  0  0
   32.7450   26.1310   42.6570 H   0  0  0  0  0  0  0  0  0  0  0  0
   33.3210   29.4380   42.3500 O   0  0  0  0  0  0  0  0  0  0  0  0
   33.1860   29.4890   41.3500 H   0  0  0  0  0  0  0  0  0  0  0  0
  1  6  1  1  0  0  0
  1  2  1  0  0  0  0
  2  7  1  1  0  0  0
  3  2  1  0  0  0  0
  4  9  1  0  0  0  0
  4  3  1  0  0  0  0
  5 10  1  6  0  0  0
  5  4  1  0  0  0  0
  5  1  1  0  0  0  0
  8  4  1  0  0  0  0
 11  1  1  0  0  0  0
 11 12  1  0  0  0  0
 13  2  1  0  0  0  0
 13 18  1  0  0  0  0
 14 15  1  0  0  0  0
 14 20  1  0  0  0  0
 15 21  1  0  0  0  0
 16 22  1  0  0  0  0
 16 15  2  0  0  0  0
 17 16  1  0  0  0  0
 18 17  2  0  0  0  0
 18 19  1  0  0  0  0
 19 14  2  0  0  0  0
 23  5  1  0  0  0  0
 24 29  1  6  0  0  0
 24 25  1  0  0  0  0
 25 26  1  0  0  0  0
 25 23  1  1  0  0  0
 27 26  1  0  0  0  0
 28 31  1  1  0  0  0
 28 27  1  0  0  0  0
 28 24  1  0  0  0  0
 30 29  1  0  0  0  0
 32 31  1  0  0  0  0
M  END
>  <minimizedAffinity>
-3.8199954

>  <minimizedRMSD>
0.613992572

$$$$
