
 OpenBabel03272504203D

 27 28  0  0  1  0  0  0  0  0999 V2000
   36.6610   27.4650   34.9870 O   0  0  0  0  0  0  0  0  0  0  0  0
   37.9500   26.6940   35.0370 P   0  0  2  0  0  0  0  0  0  0  0  0
   38.9730   27.5070   36.1300 O   0  0  0  0  0  0  0  0  0  0  0  0
   39.2370   26.9160   36.8540 H   0  0  0  0  0  0  0  0  0  0  0  0
   38.6710   26.6370   33.5160 O   0  0  0  0  0  0  0  0  0  0  0  0
   37.7180   27.0540   32.6010 C   0  0  0  0  0  0  0  0  0  0  0  0
   38.3060   27.4950   31.7490 H   0  0  0  0  0  0  0  0  0  0  0  0
   37.0160   27.7920   32.9970 H   0  0  0  0  0  0  0  0  0  0  0  0
   36.9520   25.9190   32.0230 C   0  0  0  0  0  0  0  0  0  0  0  0
   35.7170   26.2060   31.4350 C   0  0  0  0  0  0  0  0  0  0  0  0
   34.9850   25.1410   30.8860 C   0  0  0  0  0  0  0  0  0  0  0  0
   35.5160   23.8950   30.9590 N   0  0  0  0  0  0  0  0  0  0  0  0
   36.7100   23.6460   31.5320 C   0  0  0  0  0  0  0  0  0  0  0  0
   37.4130   24.6600   32.0580 N   0  0  0  0  0  0  0  0  0  0  0  0
   35.2850   27.1870   31.3710 H   0  0  0  0  0  0  0  0  0  0  0  0
   34.0100   25.3210   30.4150 H   0  0  0  0  0  0  0  0  0  0  0  0
   37.0830   22.6260   31.5590 H   0  0  0  0  0  0  0  0  0  0  0  0
   37.6330   25.1300   35.6140 O   0  0  0  0  0  0  0  0  0  0  0  0
   38.3760   23.1350   36.5660 C   0  0  1  0  0  3  0  0  0  0  0  0
   38.6940   24.5950   36.3000 C   0  0  1  0  0  3  0  0  0  0  0  0
   39.8510   24.5330   35.5380 O   0  0  0  0  0  0  0  0  0  0  0  0
   40.6390   23.5230   36.0620 C   0  0  0  0  0  2  0  0  0  0  0  0
   39.7180   22.4860   36.6450 C   0  0  1  0  0  3  0  0  0  0  0  0
   37.5780   22.9520   37.6890 O   0  0  0  0  0  0  0  0  0  0  0  0
   37.1320   22.0570   37.5480 H   0  0  0  0  0  0  0  0  0  0  0  0
   40.0600   22.1190   37.9470 O   0  0  0  0  0  0  0  0  0  0  0  0
   41.0330   22.2180   38.1390 H   0  0  0  0  0  0  0  0  0  0  0  0
  2  1  2  6  0  0  0
  2 18  1  0  0  0  0
  2  3  1  0  0  0  0
  3  4  1  0  0  0  0
  5  2  1  0  0  0  0
  6  8  1  0  0  0  0
  6  5  1  0  0  0  0
  7  6  1  0  0  0  0
  9 14  1  0  0  0  0
  9  6  1  0  0  0  0
 10  9  2  0  0  0  0
 11 12  2  0  0  0  0
 11 10  1  0  0  0  0
 12 13  1  0  0  0  0
 13 17  1  0  0  0  0
 13 14  2  0  0  0  0
 15 10  1  0  0  0  0
 16 11  1  0  0  0  0
 19 23  1  0  0  0  0
 19 24  1  1  0  0  0
 20 18  1  6  0  0  0
 20 19  1  0  0  0  0
 21 22  1  0  0  0  0
 21 20  1  0  0  0  0
 22 23  1  0  0  0  0
 23 26  1  1  0  0  0
 25 24  1  0  0  0  0
 26 27  1  0  0  0  0
M  END
>  <minimizedAffinity>
-5.08750105

$$$$

 OpenBabel03272504203D

 27 28  0  0  1  0  0  0  0  0999 V2000
   39.3120   21.0770   32.6370 O   0  0  0  0  0  0  0  0  0  0  0  0
   38.6630   22.1300   33.4900 P   0  0  2  0  0  0  0  0  0  0  0  0
   37.1010   21.5660   33.8720 O   0  0  0  0  0  0  0  0  0  0  0  0
   36.9870   21.5050   34.8340 H   0  0  0  0  0  0  0  0  0  0  0  0
   38.5540   23.5890   32.6580 O   0  0  0  0  0  0  0  0  0  0  0  0
   39.5110   24.4350   33.1950 C   0  0  0  0  0  0  0  0  0  0  0  0
   39.9900   24.9340   32.3080 H   0  0  0  0  0  0  0  0  0  0  0  0
   40.2680   23.9230   33.7940 H   0  0  0  0  0  0  0  0  0  0  0  0
   38.9120   25.5280   34.0040 C   0  0  0  0  0  0  0  0  0  0  0  0
   37.6470   25.9900   33.6300 C   0  0  0  0  0  0  0  0  0  0  0  0
   37.0710   27.0220   34.3880 C   0  0  0  0  0  0  0  0  0  0  0  0
   37.7750   27.5140   35.4380 N   0  0  0  0  0  0  0  0  0  0  0  0
   38.9950   27.0500   35.7770 C   0  0  0  0  0  0  0  0  0  0  0  0
   39.5490   26.0640   35.0560 N   0  0  0  0  0  0  0  0  0  0  0  0
   37.0800   25.6100   32.8020 H   0  0  0  0  0  0  0  0  0  0  0  0
   36.0790   27.4160   34.1290 H   0  0  0  0  0  0  0  0  0  0  0  0
   39.5090   27.4840   36.6300 H   0  0  0  0  0  0  0  0  0  0  0  0
   39.5630   22.3140   34.9170 O   0  0  0  0  0  0  0  0  0  0  0  0
   39.6370   22.7460   37.2070 C   0  0  1  0  0  3  0  0  0  0  0  0
   38.7810   22.2810   36.0430 C   0  0  1  0  0  3  0  0  0  0  0  0
   37.7540   23.2130   36.0130 O   0  0  0  0  0  0  0  0  0  0  0  0
   37.4110   23.4950   37.3230 C   0  0  0  0  0  2  0  0  0  0  0  0
   38.6510   23.3380   38.1600 C   0  0  1  0  0  3  0  0  0  0  0  0
   40.4210   21.7310   37.7410 O   0  0  0  0  0  0  0  0  0  0  0  0
   41.1810   22.2060   38.2030 H   0  0  0  0  0  0  0  0  0  0  0  0
   38.4530   22.5410   39.2880 O   0  0  0  0  0  0  0  0  0  0  0  0
   37.5150   22.5630   39.6240 H   0  0  0  0  0  0  0  0  0  0  0  0
  2  1  2  6  0  0  0
  2  3  1  0  0  0  0
  2 18  1  0  0  0  0
  3  4  1  0  0  0  0
  5  6  1  0  0  0  0
  5  2  1  0  0  0  0
  6  8  1  0  0  0  0
  6  9  1  0  0  0  0
  7  6  1  0  0  0  0
  9 14  1  0  0  0  0
 10  9  2  0  0  0  0
 10 11  1  0  0  0  0
 11 12  2  0  0  0  0
 12 13  1  0  0  0  0
 13 17  1  0  0  0  0
 14 13  2  0  0  0  0
 15 10  1  0  0  0  0
 16 11  1  0  0  0  0
 19 24  1  1  0  0  0
 19 23  1  0  0  0  0
 20 18  1  6  0  0  0
 20 19  1  0  0  0  0
 21 20  1  0  0  0  0
 21 22  1  0  0  0  0
 22 23  1  0  0  0  0
 23 26  1  1  0  0  0
 24 25  1  0  0  0  0
 26 27  1  0  0  0  0
M  END
>  <minimizedAffinity>
-4.88218784

$$$$

 OpenBabel03272504203D

 27 28  0  0  1  0  0  0  0  0999 V2000
   36.8490   26.7120   34.8790 O   0  0  0  0  0  0  0  0  0  0  0  0
   38.3410   26.6040   35.0200 P   0  0  2  0  0  0  0  0  0  0  0  0
   38.8050   27.6960   36.2420 O   0  0  0  0  0  0  0  0  0  0  0  0
   39.2610   27.2290   36.9600 H   0  0  0  0  0  0  0  0  0  0  0  0
   39.1070   27.0060   33.5750 O   0  0  0  0  0  0  0  0  0  0  0  0
   38.3100   26.5290   32.5470 C   0  0  0  0  0  0  0  0  0  0  0  0
   37.3790   26.1500   33.0520 H   0  0  0  0  0  0  0  0  0  0  0  0
   38.7720   25.7320   31.9600 H   0  0  0  0  0  0  0  0  0  0  0  0
   37.8640   27.6090   31.6280 C   0  0  0  0  0  0  0  0  0  0  0  0
   38.7240   27.9680   30.5870 C   0  0  0  0  0  0  0  0  0  0  0  0
   38.3130   28.9870   29.7120 C   0  0  0  0  0  0  0  0  0  0  0  0
   37.1060   29.5660   29.9280 N   0  0  0  0  0  0  0  0  0  0  0  0
   36.2950   29.2010   30.9420 C   0  0  0  0  0  0  0  0  0  0  0  0
   36.6830   28.2280   31.7790 N   0  0  0  0  0  0  0  0  0  0  0  0
   39.6820   27.5170   30.4050 H   0  0  0  0  0  0  0  0  0  0  0  0
   38.9580   29.3000   28.8810 H   0  0  0  0  0  0  0  0  0  0  0  0
   35.3390   29.7030   31.0630 H   0  0  0  0  0  0  0  0  0  0  0  0
   38.7360   25.0230   35.4930 O   0  0  0  0  0  0  0  0  0  0  0  0
   38.6850   23.3410   37.1070 C   0  0  1  0  0  3  0  0  0  0  0  0
   38.0290   24.6080   36.5930 C   0  0  1  0  0  3  0  0  0  0  0  0
   38.1410   25.4810   37.6650 O   0  0  0  0  0  0  0  0  0  0  0  0
   37.9080   24.7530   38.8180 C   0  0  0  0  0  2  0  0  0  0  0  0
   38.3730   23.3450   38.5670 C   0  0  1  0  0  3  0  0  0  0  0  0
   38.2680   22.2020   36.4290 O   0  0  0  0  0  0  0  0  0  0  0  0
   39.0080   21.5300   36.5700 H   0  0  0  0  0  0  0  0  0  0  0  0
   37.4240   22.3830   38.9140 O   0  0  0  0  0  0  0  0  0  0  0  0
   36.8140   22.6810   39.6440 H   0  0  0  0  0  0  0  0  0  0  0  0
  2  1  2  6  0  0  0
  2 18  1  0  0  0  0
  2  3  1  0  0  0  0
  3  4  1  0  0  0  0
  5  2  1  0  0  0  0
  6  7  1  0  0  0  0
  6  5  1  0  0  0  0
  8  6  1  0  0  0  0
  9 14  1  0  0  0  0
  9  6  1  0  0  0  0
 10  9  2  0  0  0  0
 11 12  2  0  0  0  0
 11 10  1  0  0  0  0
 12 13  1  0  0  0  0
 13 17  1  0  0  0  0
 13 14  2  0  0  0  0
 15 10  1  0  0  0  0
 16 11  1  0  0  0  0
 19 24  1  6  0  0  0
 19 23  1  0  0  0  0
 20 18  1  6  0  0  0
 20 19  1  0  0  0  0
 20 21  1  0  0  0  0
 21 22  1  0  0  0  0
 23 22  1  0  0  0  0
 23 26  1  6  0  0  0
 24 25  1  0  0  0  0
 26 27  1  0  0  0  0
M  END
>  <minimizedAffinity>
-4.87920284

$$$$

 OpenBabel03272504203D

 27 28  0  0  1  0  0  0  0  0999 V2000
   38.7830   20.5620   32.5450 O   0  0  0  0  0  0  0  0  0  0  0  0
   38.2850   21.7880   33.2580 P   0  0  2  0  0  0  0  0  0  0  0  0
   36.7360   21.4170   33.8610 O   0  0  0  0  0  0  0  0  0  0  0  0
   36.7110   21.5250   34.8250 H   0  0  0  0  0  0  0  0  0  0  0  0
   38.1870   23.0940   32.2000 O   0  0  0  0  0  0  0  0  0  0  0  0
   36.8660   23.5110   32.1910 C   0  0  0  0  0  0  0  0  0  0  0  0
   36.4430   23.1600   33.1730 H   0  0  0  0  0  0  0  0  0  0  0  0
   36.2800   23.1080   31.3620 H   0  0  0  0  0  0  0  0  0  0  0  0
   36.7380   24.9920   32.1990 C   0  0  0  0  0  0  0  0  0  0  0  0
   37.3030   25.6830   33.2740 C   0  0  0  0  0  0  0  0  0  0  0  0
   37.1880   27.0830   33.2910 C   0  0  0  0  0  0  0  0  0  0  0  0
   36.5360   27.6840   32.2650 N   0  0  0  0  0  0  0  0  0  0  0  0
   36.0000   26.9920   31.2390 C   0  0  0  0  0  0  0  0  0  0  0  0
   36.1070   25.6550   31.2180 N   0  0  0  0  0  0  0  0  0  0  0  0
   37.8210   25.2210   34.0920 H   0  0  0  0  0  0  0  0  0  0  0  0
   37.6160   27.6660   34.1170 H   0  0  0  0  0  0  0  0  0  0  0  0
   35.4900   27.5300   30.4450 H   0  0  0  0  0  0  0  0  0  0  0  0
   39.3280   22.1340   34.5510 O   0  0  0  0  0  0  0  0  0  0  0  0
   39.6940   22.6010   36.8060 C   0  0  1  0  0  3  0  0  0  0  0  0
   38.6710   22.2230   35.7510 C   0  0  1  0  0  3  0  0  0  0  0  0
   37.7680   23.2740   35.7940 O   0  0  0  0  0  0  0  0  0  0  0  0
   37.6010   23.6250   37.1230 C   0  0  0  0  0  2  0  0  0  0  0  0
   38.8930   23.3310   37.8340 C   0  0  1  0  0  3  0  0  0  0  0  0
   40.4000   21.5070   37.2910 O   0  0  0  0  0  0  0  0  0  0  0  0
   41.2580   21.8930   37.6570 H   0  0  0  0  0  0  0  0  0  0  0  0
   38.7200   22.5890   39.0020 O   0  0  0  0  0  0  0  0  0  0  0  0
   37.8310   22.7350   39.4310 H   0  0  0  0  0  0  0  0  0  0  0  0
  2  1  2  6  0  0  0
  2  3  1  0  0  0  0
  2 18  1  0  0  0  0
  3  4  1  0  0  0  0
  5  2  1  0  0  0  0
  6  9  1  0  0  0  0
  6  5  1  0  0  0  0
  6  7  1  0  0  0  0
  8  6  1  0  0  0  0
  9 10  1  0  0  0  0
 10 11  2  0  0  0  0
 10 15  1  0  0  0  0
 11 16  1  0  0  0  0
 12 11  1  0  0  0  0
 13 12  2  0  0  0  0
 14 13  1  0  0  0  0
 14  9  2  0  0  0  0
 17 13  1  0  0  0  0
 19 24  1  1  0  0  0
 19 23  1  0  0  0  0
 20 18  1  6  0  0  0
 20 21  1  0  0  0  0
 20 19  1  0  0  0  0
 21 22  1  0  0  0  0
 22 23  1  0  0  0  0
 23 26  1  1  0  0  0
 24 25  1  0  0  0  0
 26 27  1  0  0  0  0
M  END
>  <minimizedAffinity>
-4.8350935

$$$$

 OpenBabel03272504203D

 27 28  0  0  1  0  0  0  0  0999 V2000
   38.9050   27.2400   35.9320 O   0  0  0  0  0  0  0  0  0  0  0  0
   39.5180   26.3620   34.8770 P   0  0  2  0  0  0  0  0  0  0  0  0
   41.2070   26.5310   35.0100 O   0  0  0  0  0  0  0  0  0  0  0  0
   41.6230   25.6710   35.1790 H   0  0  0  0  0  0  0  0  0  0  0  0
   39.0170   26.8380   33.3410 O   0  0  0  0  0  0  0  0  0  0  0  0
   37.6500   27.0570   33.4100 C   0  0  0  0  0  0  0  0  0  0  0  0
   37.4970   28.0810   32.9670 H   0  0  0  0  0  0  0  0  0  0  0  0
   37.2460   27.0200   34.4240 H   0  0  0  0  0  0  0  0  0  0  0  0
   36.8820   26.1210   32.5480 C   0  0  0  0  0  0  0  0  0  0  0  0
   35.9190   26.6700   31.6970 C   0  0  0  0  0  0  0  0  0  0  0  0
   35.1870   25.7940   30.8790 C   0  0  0  0  0  0  0  0  0  0  0  0
   35.4540   24.4670   30.9620 N   0  0  0  0  0  0  0  0  0  0  0  0
   36.3890   23.9640   31.7930 C   0  0  0  0  0  0  0  0  0  0  0  0
   37.0910   24.7960   32.5760 N   0  0  0  0  0  0  0  0  0  0  0  0
   35.6970   27.7170   31.6220 H   0  0  0  0  0  0  0  0  0  0  0  0
   34.4200   26.1820   30.1950 H   0  0  0  0  0  0  0  0  0  0  0  0
   36.5580   22.8910   31.8140 H   0  0  0  0  0  0  0  0  0  0  0  0
   39.0830   24.7510   35.1810 O   0  0  0  0  0  0  0  0  0  0  0  0
   39.3860   22.7440   36.3300 C   0  0  1  0  0  3  0  0  0  0  0  0
   39.9490   24.1240   36.0410 C   0  0  1  0  0  3  0  0  0  0  0  0
   41.1780   23.8490   35.4610 O   0  0  0  0  0  0  0  0  0  0  0  0
   41.7300   22.7790   36.1440 C   0  0  0  0  0  2  0  0  0  0  0  0
   40.5950   21.9230   36.6360 C   0  0  1  0  0  3  0  0  0  0  0  0
   38.4230   22.7520   37.3310 O   0  0  0  0  0  0  0  0  0  0  0  0
   37.8750   21.9190   37.1700 H   0  0  0  0  0  0  0  0  0  0  0  0
   40.6960   21.6050   37.9910 O   0  0  0  0  0  0  0  0  0  0  0  0
   41.6380   21.5810   38.3190 H   0  0  0  0  0  0  0  0  0  0  0  0
  2  3  1  0  0  0  0
  2 18  1  0  0  0  0
  2  1  2  1  0  0  0
  3  4  1  0  0  0  0
  5  6  1  0  0  0  0
  5  2  1  0  0  0  0
  6  8  1  0  0  0  0
  7  6  1  0  0  0  0
  9 14  1  0  0  0  0
  9  6  1  0  0  0  0
 10  9  2  0  0  0  0
 11 12  2  0  0  0  0
 11 10  1  0  0  0  0
 12 13  1  0  0  0  0
 13 17  1  0  0  0  0
 13 14  2  0  0  0  0
 15 10  1  0  0  0  0
 16 11  1  0  0  0  0
 19 23  1  0  0  0  0
 19 24  1  1  0  0  0
 20 18  1  6  0  0  0
 20 19  1  0  0  0  0
 21 20  1  0  0  0  0
 21 22  1  0  0  0  0
 22 23  1  0  0  0  0
 23 26  1  1  0  0  0
 25 24  1  0  0  0  0
 26 27  1  0  0  0  0
M  END
>  <minimizedAffinity>
-4.83473539

$$$$

 OpenBabel03272504203D

 27 28  0  0  1  0  0  0  0  0999 V2000
   38.5400   27.0720   36.2900 O   0  0  0  0  0  0  0  0  0  0  0  0
   38.2710   26.3380   35.0060 P   0  0  2  0  0  0  0  0  0  0  0  0
   39.6330   26.5680   34.0090 O   0  0  0  0  0  0  0  0  0  0  0  0
   40.0260   25.7140   33.7670 H   0  0  0  0  0  0  0  0  0  0  0  0
   36.8980   26.9490   34.2460 O   0  0  0  0  0  0  0  0  0  0  0  0
   36.8950   26.4500   32.9530 C   0  0  0  0  0  0  0  0  0  0  0  0
   35.9510   25.8400   32.8790 H   0  0  0  0  0  0  0  0  0  0  0  0
   37.7640   25.8310   32.7150 H   0  0  0  0  0  0  0  0  0  0  0  0
   36.7690   27.5220   31.9310 C   0  0  0  0  0  0  0  0  0  0  0  0
   35.9750   28.6270   32.2490 C   0  0  0  0  0  0  0  0  0  0  0  0
   35.8490   29.6460   31.2910 C   0  0  0  0  0  0  0  0  0  0  0  0
   36.5050   29.4990   30.1120 N   0  0  0  0  0  0  0  0  0  0  0  0
   37.2650   28.4220   29.8320 C   0  0  0  0  0  0  0  0  0  0  0  0
   37.3880   27.4460   30.7430 N   0  0  0  0  0  0  0  0  0  0  0  0
   35.4510   28.7550   33.1770 H   0  0  0  0  0  0  0  0  0  0  0  0
   35.2350   30.5310   31.4980 H   0  0  0  0  0  0  0  0  0  0  0  0
   37.7660   28.3620   28.8700 H   0  0  0  0  0  0  0  0  0  0  0  0
   38.0890   24.6860   35.3450 O   0  0  0  0  0  0  0  0  0  0  0  0
   38.8010   22.7290   36.3950 C   0  0  1  0  0  3  0  0  0  0  0  0
   39.0980   24.1940   36.1330 C   0  0  1  0  0  3  0  0  0  0  0  0
   40.3220   24.1580   35.4820 O   0  0  0  0  0  0  0  0  0  0  0  0
   41.0880   23.1810   36.0930 C   0  0  0  0  0  2  0  0  0  0  0  0
   40.1490   22.1240   36.6060 C   0  0  1  0  0  3  0  0  0  0  0  0
   37.9090   22.5360   37.4430 O   0  0  0  0  0  0  0  0  0  0  0  0
   37.5060   21.6260   37.2760 H   0  0  0  0  0  0  0  0  0  0  0  0
   40.3810   21.7860   37.9400 O   0  0  0  0  0  0  0  0  0  0  0  0
   41.3290   21.9180   38.2190 H   0  0  0  0  0  0  0  0  0  0  0  0
  2 18  1  0  0  0  0
  2  1  2  1  0  0  0
  3  2  1  0  0  0  0
  4  3  1  0  0  0  0
  5  2  1  0  0  0  0
  6  5  1  0  0  0  0
  7  6  1  0  0  0  0
  8  6  1  0  0  0  0
  9 10  1  0  0  0  0
  9  6  1  0  0  0  0
 10 15  1  0  0  0  0
 11 16  1  0  0  0  0
 11 10  2  0  0  0  0
 12 11  1  0  0  0  0
 13 12  2  0  0  0  0
 13 14  1  0  0  0  0
 14  9  2  0  0  0  0
 17 13  1  0  0  0  0
 19 23  1  0  0  0  0
 19 24  1  1  0  0  0
 20 18  1  6  0  0  0
 20 19  1  0  0  0  0
 21 22  1  0  0  0  0
 21 20  1  0  0  0  0
 22 23  1  0  0  0  0
 23 26  1  1  0  0  0
 25 24  1  0  0  0  0
 26 27  1  0  0  0  0
M  END
>  <minimizedAffinity>
-4.67457199

$$$$

 OpenBabel03272504203D

 27 28  0  0  1  0  0  0  0  0999 V2000
   39.5280   27.0980   35.1890 O   0  0  0  0  0  0  0  0  0  0  0  0
   38.6270   26.0560   34.5900 P   0  0  2  0  0  0  0  0  0  0  0  0
   38.9890   25.9820   32.9270 O   0  0  0  0  0  0  0  0  0  0  0  0
   39.2680   25.0860   32.6790 H   0  0  0  0  0  0  0  0  0  0  0  0
   37.0090   26.4730   34.8030 O   0  0  0  0  0  0  0  0  0  0  0  0
   36.9560   27.8540   34.9030 C   0  0  0  0  0  0  0  0  0  0  0  0
   38.0310   28.1870   34.9000 H   0  0  0  0  0  0  0  0  0  0  0  0
   36.4510   28.2130   35.8030 H   0  0  0  0  0  0  0  0  0  0  0  0
   36.3290   28.4850   33.7130 C   0  0  0  0  0  0  0  0  0  0  0  0
   35.1610   29.2250   33.9140 C   0  0  0  0  0  0  0  0  0  0  0  0
   34.5600   29.8260   32.7960 C   0  0  0  0  0  0  0  0  0  0  0  0
   35.1470   29.6540   31.5850 N   0  0  0  0  0  0  0  0  0  0  0  0
   36.2750   28.9350   31.4190 C   0  0  0  0  0  0  0  0  0  0  0  0
   36.8520   28.3590   32.4840 N   0  0  0  0  0  0  0  0  0  0  0  0
   34.6860   29.3690   34.8660 H   0  0  0  0  0  0  0  0  0  0  0  0
   33.6410   30.4160   32.9080 H   0  0  0  0  0  0  0  0  0  0  0  0
   36.6980   28.8330   30.4240 H   0  0  0  0  0  0  0  0  0  0  0  0
   38.9640   24.5570   35.3110 O   0  0  0  0  0  0  0  0  0  0  0  0
   38.7340   23.0860   37.1060 C   0  0  1  0  0  3  0  0  0  0  0  0
   38.1660   24.3020   36.3970 C   0  0  1  0  0  3  0  0  0  0  0  0
   38.2370   25.2940   37.3630 O   0  0  0  0  0  0  0  0  0  0  0  0
   37.8960   24.7200   38.5740 C   0  0  0  0  0  2  0  0  0  0  0  0
   38.3210   23.2780   38.5280 C   0  0  1  0  0  3  0  0  0  0  0  0
   38.3190   21.8870   36.5400 O   0  0  0  0  0  0  0  0  0  0  0  0
   39.0200   21.2150   36.8130 H   0  0  0  0  0  0  0  0  0  0  0  0
   37.3120   22.3960   38.9160 O   0  0  0  0  0  0  0  0  0  0  0  0
   36.6650   22.7990   39.5580 H   0  0  0  0  0  0  0  0  0  0  0  0
  2  5  1  0  0  0  0
  2  1  2  1  0  0  0
  2 18  1  0  0  0  0
  3  2  1  0  0  0  0
  4  3  1  0  0  0  0
  5  6  1  0  0  0  0
  6  8  1  0  0  0  0
  7  6  1  0  0  0  0
  9 10  1  0  0  0  0
  9  6  1  0  0  0  0
 10 15  1  0  0  0  0
 11 16  1  0  0  0  0
 11 10  2  0  0  0  0
 12 11  1  0  0  0  0
 13 12  2  0  0  0  0
 13 14  1  0  0  0  0
 14  9  2  0  0  0  0
 17 13  1  0  0  0  0
 19 24  1  6  0  0  0
 19 23  1  0  0  0  0
 20 18  1  6  0  0  0
 20 19  1  0  0  0  0
 20 21  1  0  0  0  0
 21 22  1  0  0  0  0
 23 22  1  0  0  0  0
 23 26  1  6  0  0  0
 24 25  1  0  0  0  0
 26 27  1  0  0  0  0
M  END
>  <minimizedAffinity>
-4.62635565

$$$$

 OpenBabel03272504203D

 27 28  0  0  1  0  0  0  0  0999 V2000
   39.5790   26.1360   34.7550 O   0  0  0  0  0  0  0  0  0  0  0  0
   38.3580   26.3910   35.5930 P   0  0  2  0  0  0  0  0  0  0  0  0
   38.4920   27.9780   36.1970 O   0  0  0  0  0  0  0  0  0  0  0  0
   37.7320   28.5130   35.9190 H   0  0  0  0  0  0  0  0  0  0  0  0
   38.2750   25.2990   36.8730 O   0  0  0  0  0  0  0  0  0  0  0  0
   38.0090   24.0540   36.3270 C   0  0  0  0  0  0  0  0  0  0  0  0
   37.7310   24.2590   35.2560 H   0  0  0  0  0  0  0  0  0  0  0  0
   37.2030   23.5120   36.8290 H   0  0  0  0  0  0  0  0  0  0  0  0
   39.2150   23.1870   36.2760 C   0  0  0  0  0  0  0  0  0  0  0  0
   39.7860   22.8030   37.4930 C   0  0  0  0  0  0  0  0  0  0  0  0
   40.9260   21.9840   37.4570 C   0  0  0  0  0  0  0  0  0  0  0  0
   41.4100   21.6140   36.2450 N   0  0  0  0  0  0  0  0  0  0  0  0
   40.8400   22.0000   35.0860 C   0  0  0  0  0  0  0  0  0  0  0  0
   39.7500   22.7820   35.1150 N   0  0  0  0  0  0  0  0  0  0  0  0
   39.4140   23.0890   38.4580 H   0  0  0  0  0  0  0  0  0  0  0  0
   41.4070   21.6590   38.3880 H   0  0  0  0  0  0  0  0  0  0  0  0
   41.2730   21.6700   34.1450 H   0  0  0  0  0  0  0  0  0  0  0  0
   36.9810   26.2730   34.6090 O   0  0  0  0  0  0  0  0  0  0  0  0
   37.0600   25.0430   32.6290 C   0  0  1  0  0  3  0  0  0  0  0  0
   37.2730   26.4000   33.2750 C   0  0  1  0  0  3  0  0  0  0  0  0
   36.3760   27.2160   32.6020 O   0  0  0  0  0  0  0  0  0  0  0  0
   36.3930   26.8420   31.2700 C   0  0  0  0  0  2  0  0  0  0  0  0
   36.7090   25.3730   31.2160 C   0  0  1  0  0  3  0  0  0  0  0  0
   38.1540   24.1980   32.7720 O   0  0  0  0  0  0  0  0  0  0  0  0
   37.7780   23.2680   32.6690 H   0  0  0  0  0  0  0  0  0  0  0  0
   37.7360   25.0650   30.3240 O   0  0  0  0  0  0  0  0  0  0  0  0
   37.8050   25.7100   29.5670 H   0  0  0  0  0  0  0  0  0  0  0  0
  2  1  2  6  0  0  0
  2  3  1  0  0  0  0
  2  5  1  0  0  0  0
  4  3  1  0  0  0  0
  6  8  1  0  0  0  0
  6  5  1  0  0  0  0
  7  6  1  0  0  0  0
  9  6  1  0  0  0  0
  9 10  1  0  0  0  0
 10 15  1  0  0  0  0
 11 10  2  0  0  0  0
 11 16  1  0  0  0  0
 12 11  1  0  0  0  0
 13 14  1  0  0  0  0
 13 12  2  0  0  0  0
 14  9  2  0  0  0  0
 17 13  1  0  0  0  0
 18  2  1  0  0  0  0
 19 24  1  6  0  0  0
 19 20  1  0  0  0  0
 20 18  1  1  0  0  0
 21 20  1  0  0  0  0
 22 21  1  0  0  0  0
 23 26  1  6  0  0  0
 23 22  1  0  0  0  0
 23 19  1  0  0  0  0
 25 24  1  0  0  0  0
 27 26  1  0  0  0  0
M  END
>  <minimizedAffinity>
-4.62083387

$$$$

 OpenBabel03272504203D

 27 28  0  0  1  0  0  0  0  0999 V2000
   38.6880   25.3100   33.4120 O   0  0  0  0  0  0  0  0  0  0  0  0
   39.0830   23.9010   33.7560 P   0  0  2  0  0  0  0  0  0  0  0  0
   40.2170   23.4030   32.5870 O   0  0  0  0  0  0  0  0  0  0  0  0
   41.0530   23.1500   33.0090 H   0  0  0  0  0  0  0  0  0  0  0  0
   37.7440   22.8810   33.7220 O   0  0  0  0  0  0  0  0  0  0  0  0
   38.1980   21.6270   33.3440 C   0  0  0  0  0  0  0  0  0  0  0  0
   38.4550   21.1070   34.3080 H   0  0  0  0  0  0  0  0  0  0  0  0
   39.0690   21.6530   32.6850 H   0  0  0  0  0  0  0  0  0  0  0  0
   37.1340   20.8060   32.7090 C   0  0  0  0  0  0  0  0  0  0  0  0
   35.8100   21.2190   32.8820 C   0  0  0  0  0  0  0  0  0  0  0  0
   34.7970   20.4500   32.2860 C   0  0  0  0  0  0  0  0  0  0  0  0
   35.1600   19.3520   31.5780 N   0  0  0  0  0  0  0  0  0  0  0  0
   36.4460   18.9770   31.4270 C   0  0  0  0  0  0  0  0  0  0  0  0
   37.4170   19.7070   31.9940 N   0  0  0  0  0  0  0  0  0  0  0  0
   35.5100   22.0850   33.4400 H   0  0  0  0  0  0  0  0  0  0  0  0
   33.7430   20.7380   32.3970 H   0  0  0  0  0  0  0  0  0  0  0  0
   36.6740   18.0860   30.8480 H   0  0  0  0  0  0  0  0  0  0  0  0
   39.8100   23.8920   35.2900 O   0  0  0  0  0  0  0  0  0  0  0  0
   39.6890   23.1010   37.4800 C   0  0  1  0  0  3  0  0  0  0  0  0
   38.9120   23.6510   36.2980 C   0  0  1  0  0  3  0  0  0  0  0  0
   38.3450   24.8110   36.8040 O   0  0  0  0  0  0  0  0  0  0  0  0
   37.9400   24.5440   38.1000 C   0  0  0  0  0  2  0  0  0  0  0  0
   38.8760   23.5100   38.6630 C   0  0  1  0  0  3  0  0  0  0  0  0
   39.9250   21.7350   37.3840 O   0  0  0  0  0  0  0  0  0  0  0  0
   40.7290   21.5680   37.9700 H   0  0  0  0  0  0  0  0  0  0  0  0
   38.2120   22.4340   39.2540 O   0  0  0  0  0  0  0  0  0  0  0  0
   37.3160   22.6780   39.6170 H   0  0  0  0  0  0  0  0  0  0  0  0
  2  1  2  6  0  0  0
  2 18  1  0  0  0  0
  3  4  1  0  0  0  0
  3  2  1  0  0  0  0
  5  2  1  0  0  0  0
  6  5  1  0  0  0  0
  6  7  1  0  0  0  0
  8  6  1  0  0  0  0
  9 10  1  0  0  0  0
  9  6  1  0  0  0  0
 10 15  1  0  0  0  0
 11 16  1  0  0  0  0
 11 10  2  0  0  0  0
 12 11  1  0  0  0  0
 13 12  2  0  0  0  0
 13 14  1  0  0  0  0
 14  9  2  0  0  0  0
 17 13  1  0  0  0  0
 19 24  1  6  0  0  0
 19 23  1  0  0  0  0
 20 18  1  6  0  0  0
 20 21  1  0  0  0  0
 20 19  1  0  0  0  0
 21 22  1  0  0  0  0
 22 23  1  0  0  0  0
 23 26  1  6  0  0  0
 24 25  1  0  0  0  0
 26 27  1  0  0  0  0
M  END
>  <minimizedAffinity>
-4.52395439

$$$$
