
 OpenBabel03272508213D

 42 45  0  0  1  0  0  0  0  0999 V2000
   37.9300   30.4940   47.1840 C   0  0  0  0  0  0  0  0  0  0  0  0
   38.5260   29.9460   47.9450 H   0  0  0  0  0  0  0  0  0  0  0  0
   37.6360   29.6830   46.4520 H   0  0  0  0  0  0  0  0  0  0  0  0
   38.5050   29.9900   44.5180 F   0  0  0  0  0  0  0  0  0  0  0  0
   39.0000   31.0590   45.1590 C   0  0  0  0  0  0  0  0  0  0  0  0
   38.7810   31.4090   46.4940 C   0  0  0  0  0  0  0  0  0  0  0  0
   39.4000   32.5260   46.9480 C   0  0  0  0  0  0  0  0  0  0  0  0
   40.2000   33.3100   46.1820 C   0  0  0  0  0  0  0  0  0  0  0  0
   40.4210   32.9580   44.8330 C   0  0  0  0  0  0  0  0  0  0  0  0
   39.7940   31.7920   44.3350 C   0  0  0  0  0  0  0  0  0  0  0  0
   39.3910   32.8620   47.9400 H   0  0  0  0  0  0  0  0  0  0  0  0
   40.7080   34.2190   46.5140 H   0  0  0  0  0  0  0  0  0  0  0  0
   41.0760   33.6100   44.2270 H   0  0  0  0  0  0  0  0  0  0  0  0
   40.1320   31.5830   43.0220 O   0  0  0  0  0  0  0  0  0  0  0  0
   38.4210   32.6790   41.7180 C   0  0  2  0  0  3  0  0  0  0  0  0
   39.3210   31.4510   41.9420 C   0  0  1  0  0  3  0  0  0  0  0  0
   40.0970   31.5800   40.7340 O   0  0  0  0  0  0  0  0  0  0  0  0
   39.0850   31.5070   39.7810 C   0  0  0  0  0  2  0  0  0  0  0  0
   37.9700   32.3940   40.2880 C   0  0  2  0  0  3  0  0  0  0  0  0
   39.1310   33.8520   41.7470 O   0  0  0  0  0  0  0  0  0  0  0  0
   38.5360   34.5750   42.0550 H   0  0  0  0  0  0  0  0  0  0  0  0
   37.8170   33.5310   39.5340 O   0  0  0  0  0  0  0  0  0  0  0  0
   38.5400   34.1640   39.6710 H   0  0  0  0  0  0  0  0  0  0  0  0
   36.6590   31.0290   47.7290 C   0  0  0  0  0  0  0  0  0  0  0  0
   36.9470   31.6920   48.6060 H   0  0  0  0  0  0  0  0  0  0  0  0
   36.1770   31.7430   47.0330 H   0  0  0  0  0  0  0  0  0  0  0  0
   35.7040   29.6150   49.4950 C   0  0  0  0  0  0  0  0  0  0  0  0
   35.7000   30.0810   48.2100 C   0  0  0  0  0  0  0  0  0  0  0  0
   34.7450   29.5150   47.4310 C   0  0  0  0  0  0  0  0  0  0  0  0
   33.8870   28.5840   47.8720 N   0  0  0  0  0  0  0  0  0  0  0  0
   33.8960   28.1350   49.1110 C   0  0  0  0  0  0  0  0  0  0  0  0
   34.8060   28.6440   49.9430 N   0  0  0  0  0  0  0  0  0  0  0  0
   34.6190   29.7920   46.3750 H   0  0  0  0  0  0  0  0  0  0  0  0
   33.1770   27.3860   49.3960 H   0  0  0  0  0  0  0  0  0  0  0  0
   36.5930   30.2520   50.5590 C   0  0  0  0  0  0  0  0  0  0  0  0
   36.8680   29.6580   51.7820 C   0  0  0  0  0  0  0  0  0  0  0  0
   37.8600   29.2960   50.6910 C   0  0  0  0  0  0  0  0  0  0  0  0
   36.9310   31.2450   50.4030 H   0  0  0  0  0  0  0  0  0  0  0  0
   36.1950   28.8230   52.1430 H   0  0  0  0  0  0  0  0  0  0  0  0
   37.3080   30.1770   52.6320 H   0  0  0  0  0  0  0  0  0  0  0  0
   37.7810   28.2880   50.3210 H   0  0  0  0  0  0  0  0  0  0  0  0
   38.8180   29.8040   50.6420 H   0  0  0  0  0  0  0  0  0  0  0  0
  1 24  1  0  0  0  0
  1  2  1  0  0  0  0
  3  1  1  0  0  0  0
  4  5  1  0  0  0  0
  5  6  1  0  0  0  0
  6  7  2  0  0  0  0
  6  1  1  0  0  0  0
  7 11  1  0  0  0  0
  8 12  1  0  0  0  0
  8  7  1  0  0  0  0
  9  8  2  0  0  0  0
 10  9  1  0  0  0  0
 10  5  2  0  0  0  0
 13  9  1  0  0  0  0
 14 10  1  0  0  0  0
 15 20  1  6  0  0  0
 15 16  1  0  0  0  0
 16 14  1  1  0  0  0
 17 16  1  0  0  0  0
 18 19  1  0  0  0  0
 18 17  1  0  0  0  0
 19 22  1  6  0  0  0
 19 15  1  0  0  0  0
 20 21  1  0  0  0  0
 22 23  1  0  0  0  0
 24 28  1  0  0  0  0
 24 25  1  0  0  0  0
 26 24  1  0  0  0  0
 27 32  1  0  0  0  0
 27 35  1  0  0  0  0
 28 27  2  0  0  0  0
 29 30  2  0  0  0  0
 29 28  1  0  0  0  0
 30 31  1  0  0  0  0
 31 34  1  0  0  0  0
 31 32  2  0  0  0  0
 33 29  1  0  0  0  0
 35 37  1  0  0  0  0
 35 36  1  0  0  0  0
 36 39  1  0  0  0  0
 36 40  1  0  0  0  0
 37 36  1  0  0  0  0
 38 35  1  0  0  0  0
 41 37  1  0  0  0  0
 42 37  1  0  0  0  0
M  END
>  <minimizedAffinity>
-6.09913349

>  <minimizedRMSD>
4.18220329

$$$$
