
 OpenBabel03272506423D

 32 34  0  0  1  0  0  0  0  0999 V2000
   32.2550   28.1790   47.5170 C   0  0  2  0  0  0  0  0  0  0  0  0
   33.5110   28.1520   48.3610 C   0  0  1  0  0  0  0  0  0  0  0  0
   34.1020   26.9280   48.1980 O   0  0  0  0  0  0  0  0  0  0  0  0
   33.4630   26.2530   47.1830 C   0  0  0  0  0  0  0  0  0  0  0  0
   32.7120   27.2970   46.3780 C   0  0  1  0  0  0  0  0  0  0  0  0
   31.4130   27.6670   48.0150 H   0  0  0  0  0  0  0  0  0  0  0  0
   33.3020   28.3190   49.4260 H   0  0  0  0  0  0  0  0  0  0  0  0
   34.2500   25.7390   46.5930 H   0  0  0  0  0  0  0  0  0  0  0  0
   32.7380   25.5440   47.6260 H   0  0  0  0  0  0  0  0  0  0  0  0
   33.3540   27.8290   45.6630 H   0  0  0  0  0  0  0  0  0  0  0  0
   31.9430   29.4700   47.1160 O   0  0  0  0  0  0  0  0  0  0  0  0
   31.1770   29.7610   47.6850 H   0  0  0  0  0  0  0  0  0  0  0  0
   34.6310   29.4170   47.6620 S   0  0  0  0  0  0  0  0  0  0  0  0
   37.2210   29.2310   50.6570 C   0  0  0  0  0  0  0  0  0  0  0  0
   37.6470   30.5530   50.8460 C   0  0  0  0  0  0  0  0  0  0  0  0
   37.1090   31.5320   50.0140 C   0  0  0  0  0  0  0  0  0  0  0  0
   36.2070   31.1810   49.0640 N   0  0  0  0  0  0  0  0  0  0  0  0
   35.8200   29.8840   48.9130 C   0  0  0  0  0  0  0  0  0  0  0  0
   36.3200   28.9180   49.7010 N   0  0  0  0  0  0  0  0  0  0  0  0
   37.6460   28.4880   51.3090 H   0  0  0  0  0  0  0  0  0  0  0  0
   38.3640   30.8560   51.5970 H   0  0  0  0  0  0  0  0  0  0  0  0
   37.3520   32.5740   50.0560 H   0  0  0  0  0  0  0  0  0  0  0  0
   31.6500   26.7370   45.6830 O   0  0  0  0  0  0  0  0  0  0  0  0
   32.8420   27.6500   43.8000 C   0  0  2  0  0  3  0  0  0  0  0  0
   31.4930   27.2800   44.4170 C   0  0  2  0  0  3  0  0  0  0  0  0
   30.7460   28.4260   44.4590 O   0  0  0  0  0  0  0  0  0  0  0  0
   31.3420   29.4030   43.6830 C   0  0  0  0  0  2  0  0  0  0  0  0
   32.3440   28.6790   42.7850 C   0  0  1  0  0  3  0  0  0  0  0  0
   33.4040   26.5590   43.1420 O   0  0  0  0  0  0  0  0  0  0  0  0
   32.6580   26.1970   42.5720 H   0  0  0  0  0  0  0  0  0  0  0  0
   33.3410   29.4890   42.3100 O   0  0  0  0  0  0  0  0  0  0  0  0
   33.1910   29.5600   41.3150 H   0  0  0  0  0  0  0  0  0  0  0  0
  1  6  1  1  0  0  0
  1  2  1  0  0  0  0
  2  7  1  1  0  0  0
  3  2  1  0  0  0  0
  4  9  1  0  0  0  0
  4  3  1  0  0  0  0
  5 10  1  6  0  0  0
  5  4  1  0  0  0  0
  5  1  1  0  0  0  0
  8  4  1  0  0  0  0
 11  1  1  0  0  0  0
 11 12  1  0  0  0  0
 13  2  1  0  0  0  0
 13 18  1  0  0  0  0
 14 15  1  0  0  0  0
 14 20  1  0  0  0  0
 15 21  1  0  0  0  0
 16 22  1  0  0  0  0
 16 15  2  0  0  0  0
 17 16  1  0  0  0  0
 18 17  2  0  0  0  0
 18 19  1  0  0  0  0
 19 14  2  0  0  0  0
 23  5  1  0  0  0  0
 24 29  1  6  0  0  0
 24 25  1  0  0  0  0
 25 26  1  0  0  0  0
 25 23  1  1  0  0  0
 27 26  1  0  0  0  0
 28 31  1  1  0  0  0
 28 27  1  0  0  0  0
 28 24  1  0  0  0  0
 30 29  1  0  0  0  0
 32 31  1  0  0  0  0
M  END
>  <minimizedAffinity>
-3.81138372

>  <minimizedRMSD>
0.642768443

$$$$
