
 OpenBabel03272508213D

 42 45  0  0  1  0  0  0  0  0999 V2000
   37.2770   30.8350   46.5240 C   0  0  0  0  0  0  0  0  0  0  0  0
   36.9540   30.0100   45.8530 H   0  0  0  0  0  0  0  0  0  0  0  0
   36.4250   31.5760   46.4530 H   0  0  0  0  0  0  0  0  0  0  0  0
   38.8320   29.3750   44.7520 F   0  0  0  0  0  0  0  0  0  0  0  0
   39.1410   30.6340   45.0930 C   0  0  0  0  0  0  0  0  0  0  0  0
   38.4370   31.4590   45.9730 C   0  0  0  0  0  0  0  0  0  0  0  0
   38.9410   32.6980   46.1940 C   0  0  0  0  0  0  0  0  0  0  0  0
   40.0690   33.1690   45.6070 C   0  0  0  0  0  0  0  0  0  0  0  0
   40.7820   32.3370   44.7170 C   0  0  0  0  0  0  0  0  0  0  0  0
   40.2830   31.0360   44.4750 C   0  0  0  0  0  0  0  0  0  0  0  0
   38.5650   33.3890   46.8850 H   0  0  0  0  0  0  0  0  0  0  0  0
   40.4990   34.1630   45.7580 H   0  0  0  0  0  0  0  0  0  0  0  0
   41.6980   32.7410   44.2500 H   0  0  0  0  0  0  0  0  0  0  0  0
   41.1030   30.3560   43.6100 O   0  0  0  0  0  0  0  0  0  0  0  0
   41.3320   28.8010   41.7780 C   0  0  2  0  0  3  0  0  0  0  0  0
   41.0010   30.2230   42.2640 C   0  0  1  0  0  3  0  0  0  0  0  0
   39.6110   30.2180   41.8790 O   0  0  0  0  0  0  0  0  0  0  0  0
   39.7320   29.9860   40.5120 C   0  0  0  0  0  2  0  0  0  0  0  0
   40.7580   28.8830   40.3680 C   0  0  2  0  0  3  0  0  0  0  0  0
   40.6560   27.8410   42.4910 O   0  0  0  0  0  0  0  0  0  0  0  0
   41.1900   27.0130   42.4930 H   0  0  0  0  0  0  0  0  0  0  0  0
   40.2010   27.7020   39.9400 O   0  0  0  0  0  0  0  0  0  0  0  0
   39.6690   27.2770   40.6310 H   0  0  0  0  0  0  0  0  0  0  0  0
   37.3400   30.4240   47.9470 C   0  0  0  0  0  0  0  0  0  0  0  0
   38.1070   29.5870   47.9990 H   0  0  0  0  0  0  0  0  0  0  0  0
   37.7920   31.2080   48.5870 H   0  0  0  0  0  0  0  0  0  0  0  0
   36.0090   29.7230   49.8880 C   0  0  0  0  0  0  0  0  0  0  0  0
   36.1350   29.9330   48.5430 C   0  0  0  0  0  0  0  0  0  0  0  0
   35.0360   29.5740   47.8340 C   0  0  0  0  0  0  0  0  0  0  0  0
   33.9300   29.0600   48.3920 N   0  0  0  0  0  0  0  0  0  0  0  0
   33.8140   28.8560   49.6890 C   0  0  0  0  0  0  0  0  0  0  0  0
   34.8530   29.1850   50.4580 N   0  0  0  0  0  0  0  0  0  0  0  0
   34.9880   29.6870   46.7410 H   0  0  0  0  0  0  0  0  0  0  0  0
   32.8970   28.4390   50.0680 H   0  0  0  0  0  0  0  0  0  0  0  0
   37.0730   30.2180   50.8630 C   0  0  0  0  0  0  0  0  0  0  0  0
   37.1550   29.8000   52.1830 C   0  0  0  0  0  0  0  0  0  0  0  0
   37.9580   28.9430   51.2200 C   0  0  0  0  0  0  0  0  0  0  0  0
   37.7160   31.0020   50.5500 H   0  0  0  0  0  0  0  0  0  0  0  0
   36.2510   29.3090   52.6540 H   0  0  0  0  0  0  0  0  0  0  0  0
   37.7540   30.2930   52.9480 H   0  0  0  0  0  0  0  0  0  0  0  0
   37.5480   27.9660   51.0300 H   0  0  0  0  0  0  0  0  0  0  0  0
   39.0290   29.0940   51.1260 H   0  0  0  0  0  0  0  0  0  0  0  0
  1 24  1  0  0  0  0
  2  1  1  0  0  0  0
  3  1  1  0  0  0  0
  4  5  1  0  0  0  0
  5  6  1  0  0  0  0
  6  7  2  0  0  0  0
  6  1  1  0  0  0  0
  7 11  1  0  0  0  0
  8 12  1  0  0  0  0
  8  7  1  0  0  0  0
  9  8  2  0  0  0  0
 10  9  1  0  0  0  0
 10  5  2  0  0  0  0
 13  9  1  0  0  0  0
 14 10  1  0  0  0  0
 15 16  1  0  0  0  0
 15 20  1  1  0  0  0
 16 14  1  1  0  0  0
 17 16  1  0  0  0  0
 18 17  1  0  0  0  0
 19 22  1  1  0  0  0
 19 18  1  0  0  0  0
 19 15  1  0  0  0  0
 20 21  1  0  0  0  0
 22 23  1  0  0  0  0
 24 25  1  0  0  0  0
 24 28  1  0  0  0  0
 24 26  1  0  0  0  0
 27 32  1  0  0  0  0
 27 35  1  0  0  0  0
 28 27  2  0  0  0  0
 29 30  2  0  0  0  0
 29 28  1  0  0  0  0
 30 31  1  0  0  0  0
 31 34  1  0  0  0  0
 31 32  2  0  0  0  0
 33 29  1  0  0  0  0
 35 37  1  0  0  0  0
 35 36  1  0  0  0  0
 36 39  1  0  0  0  0
 36 40  1  0  0  0  0
 37 36  1  0  0  0  0
 38 35  1  0  0  0  0
 41 37  1  0  0  0  0
 42 37  1  0  0  0  0
M  END
>  <minimizedAffinity>
-6.30304337

>  <minimizedRMSD>
4.75591373

$$$$
