
 OpenBabel03272506423D

 32 34  0  0  1  0  0  0  0  0999 V2000
   32.2540   28.1800   47.5170 C   0  0  2  0  0  0  0  0  0  0  0  0
   33.5100   28.1530   48.3610 C   0  0  1  0  0  0  0  0  0  0  0  0
   34.1020   26.9290   48.1990 O   0  0  0  0  0  0  0  0  0  0  0  0
   33.4630   26.2540   47.1830 C   0  0  0  0  0  0  0  0  0  0  0  0
   32.7120   27.2980   46.3780 C   0  0  1  0  0  0  0  0  0  0  0  0
   31.4130   27.6690   48.0140 H   0  0  0  0  0  0  0  0  0  0  0  0
   33.3010   28.3200   49.4260 H   0  0  0  0  0  0  0  0  0  0  0  0
   34.2500   25.7390   46.5940 H   0  0  0  0  0  0  0  0  0  0  0  0
   32.7380   25.5450   47.6260 H   0  0  0  0  0  0  0  0  0  0  0  0
   33.3530   27.8300   45.6630 H   0  0  0  0  0  0  0  0  0  0  0  0
   31.9430   29.4710   47.1150 O   0  0  0  0  0  0  0  0  0  0  0  0
   31.1770   29.7620   47.6840 H   0  0  0  0  0  0  0  0  0  0  0  0
   34.6310   29.4180   47.6620 S   0  0  0  0  0  0  0  0  0  0  0  0
   37.2240   29.2310   50.6540 C   0  0  0  0  0  0  0  0  0  0  0  0
   37.6480   30.5530   50.8460 C   0  0  0  0  0  0  0  0  0  0  0  0
   37.1080   31.5320   50.0160 C   0  0  0  0  0  0  0  0  0  0  0  0
   36.2060   31.1810   49.0650 N   0  0  0  0  0  0  0  0  0  0  0  0
   35.8200   29.8840   48.9130 C   0  0  0  0  0  0  0  0  0  0  0  0
   36.3220   28.9180   49.6980 N   0  0  0  0  0  0  0  0  0  0  0  0
   37.6500   28.4870   51.3040 H   0  0  0  0  0  0  0  0  0  0  0  0
   38.3650   30.8550   51.5960 H   0  0  0  0  0  0  0  0  0  0  0  0
   37.3490   32.5740   50.0590 H   0  0  0  0  0  0  0  0  0  0  0  0
   31.6500   26.7370   45.6820 O   0  0  0  0  0  0  0  0  0  0  0  0
   32.8420   27.6500   43.8000 C   0  0  2  0  0  3  0  0  0  0  0  0
   31.4930   27.2800   44.4160 C   0  0  2  0  0  3  0  0  0  0  0  0
   30.7460   28.4270   44.4590 O   0  0  0  0  0  0  0  0  0  0  0  0
   31.3440   29.4040   43.6820 C   0  0  0  0  0  2  0  0  0  0  0  0
   32.3450   28.6790   42.7840 C   0  0  1  0  0  3  0  0  0  0  0  0
   33.4040   26.5590   43.1430 O   0  0  0  0  0  0  0  0  0  0  0  0
   32.6580   26.1970   42.5740 H   0  0  0  0  0  0  0  0  0  0  0  0
   33.3420   29.4880   42.3100 O   0  0  0  0  0  0  0  0  0  0  0  0
   33.1920   29.5600   41.3150 H   0  0  0  0  0  0  0  0  0  0  0  0
  1  6  1  1  0  0  0
  1  2  1  0  0  0  0
  2  7  1  1  0  0  0
  3  2  1  0  0  0  0
  4  9  1  0  0  0  0
  4  3  1  0  0  0  0
  5 10  1  6  0  0  0
  5  4  1  0  0  0  0
  5  1  1  0  0  0  0
  8  4  1  0  0  0  0
 11  1  1  0  0  0  0
 11 12  1  0  0  0  0
 13  2  1  0  0  0  0
 13 18  1  0  0  0  0
 14 15  1  0  0  0  0
 14 20  1  0  0  0  0
 15 21  1  0  0  0  0
 16 22  1  0  0  0  0
 16 15  2  0  0  0  0
 17 16  1  0  0  0  0
 18 17  2  0  0  0  0
 18 19  1  0  0  0  0
 19 14  2  0  0  0  0
 23  5  1  0  0  0  0
 24 29  1  6  0  0  0
 24 25  1  0  0  0  0
 25 26  1  0  0  0  0
 25 23  1  1  0  0  0
 27 26  1  0  0  0  0
 28 31  1  1  0  0  0
 28 27  1  0  0  0  0
 28 24  1  0  0  0  0
 30 29  1  0  0  0  0
 32 31  1  0  0  0  0
M  END
>  <minimizedAffinity>
-3.81711435

>  <minimizedRMSD>
0.969672143

$$$$
