
 OpenBabel03272506423D

 32 34  0  0  1  0  0  0  0  0999 V2000
   32.2520   28.1700   47.5450 C   0  0  2  0  0  0  0  0  0  0  0  0
   33.5030   28.1660   48.3960 C   0  0  1  0  0  0  0  0  0  0  0  0
   34.1010   26.9420   48.2610 O   0  0  0  0  0  0  0  0  0  0  0  0
   33.4710   26.2430   47.2560 C   0  0  0  0  0  0  0  0  0  0  0  0
   32.7190   27.2680   46.4260 C   0  0  1  0  0  0  0  0  0  0  0  0
   31.4100   27.6650   48.0480 H   0  0  0  0  0  0  0  0  0  0  0  0
   33.2870   28.3530   49.4560 H   0  0  0  0  0  0  0  0  0  0  0  0
   34.2630   25.7210   46.6810 H   0  0  0  0  0  0  0  0  0  0  0  0
   32.7470   25.5400   47.7090 H   0  0  0  0  0  0  0  0  0  0  0  0
   33.3620   27.7890   45.7040 H   0  0  0  0  0  0  0  0  0  0  0  0
   31.9360   29.4510   47.1170 O   0  0  0  0  0  0  0  0  0  0  0  0
   31.1660   29.7500   47.6750 H   0  0  0  0  0  0  0  0  0  0  0  0
   34.6220   29.4220   47.6780 S   0  0  0  0  0  0  0  0  0  0  0  0
   37.2630   29.2380   50.6280 C   0  0  0  0  0  0  0  0  0  0  0  0
   37.6770   30.5630   50.8230 C   0  0  0  0  0  0  0  0  0  0  0  0
   37.1150   31.5430   50.0080 C   0  0  0  0  0  0  0  0  0  0  0  0
   36.2010   31.1900   49.0700 N   0  0  0  0  0  0  0  0  0  0  0  0
   35.8260   29.8910   48.9140 C   0  0  0  0  0  0  0  0  0  0  0  0
   36.3490   28.9240   49.6840 N   0  0  0  0  0  0  0  0  0  0  0  0
   37.7060   28.4940   51.2660 H   0  0  0  0  0  0  0  0  0  0  0  0
   38.4030   30.8670   51.5640 H   0  0  0  0  0  0  0  0  0  0  0  0
   37.3470   32.5870   50.0560 H   0  0  0  0  0  0  0  0  0  0  0  0
   31.6640   26.6890   45.7370 O   0  0  0  0  0  0  0  0  0  0  0  0
   32.8590   27.6110   43.8590 C   0  0  2  0  0  3  0  0  0  0  0  0
   31.5120   27.2050   44.4590 C   0  0  2  0  0  3  0  0  0  0  0  0
   30.7260   28.3260   44.4690 O   0  0  0  0  0  0  0  0  0  0  0  0
   31.3030   29.3100   43.6870 C   0  0  0  0  0  2  0  0  0  0  0  0
   32.3440   28.6050   42.8180 C   0  0  1  0  0  3  0  0  0  0  0  0
   33.4690   26.5290   43.2320 O   0  0  0  0  0  0  0  0  0  0  0  0
   32.7450   26.1320   42.6540 H   0  0  0  0  0  0  0  0  0  0  0  0
   33.3220   29.4400   42.3480 O   0  0  0  0  0  0  0  0  0  0  0  0
   33.1870   29.4900   41.3480 H   0  0  0  0  0  0  0  0  0  0  0  0
  1  6  1  1  0  0  0
  1  2  1  0  0  0  0
  2  7  1  1  0  0  0
  3  2  1  0  0  0  0
  4  9  1  0  0  0  0
  4  3  1  0  0  0  0
  5 10  1  6  0  0  0
  5  4  1  0  0  0  0
  5  1  1  0  0  0  0
  8  4  1  0  0  0  0
 11  1  1  0  0  0  0
 11 12  1  0  0  0  0
 13  2  1  0  0  0  0
 13 18  1  0  0  0  0
 14 15  1  0  0  0  0
 14 20  1  0  0  0  0
 15 21  1  0  0  0  0
 16 22  1  0  0  0  0
 16 15  2  0  0  0  0
 17 16  1  0  0  0  0
 18 17  2  0  0  0  0
 18 19  1  0  0  0  0
 19 14  2  0  0  0  0
 23  5  1  0  0  0  0
 24 29  1  6  0  0  0
 24 25  1  0  0  0  0
 25 26  1  0  0  0  0
 25 23  1  1  0  0  0
 27 26  1  0  0  0  0
 28 31  1  1  0  0  0
 28 27  1  0  0  0  0
 28 24  1  0  0  0  0
 30 29  1  0  0  0  0
 32 31  1  0  0  0  0
M  END
>  <minimizedAffinity>
-3.82023835

>  <minimizedRMSD>
0.747753739

$$$$
