
 OpenBabel03272506453D

 32 34  0  0  1  0  0  0  0  0999 V2000
   37.9560   24.8250   32.2920 C   0  0  2  0  0  0  0  0  0  0  0  0
   37.5560   23.9980   31.0890 C   0  0  1  0  0  0  0  0  0  0  0  0
   38.3120   22.8580   31.0890 O   0  0  0  0  0  0  0  0  0  0  0  0
   39.0040   22.7790   32.2770 C   0  0  0  0  0  0  0  0  0  0  0  0
   38.2970   23.7050   33.2490 C   0  0  1  0  0  0  0  0  0  0  0  0
   38.8820   25.3970   32.1090 H   0  0  0  0  0  0  0  0  0  0  0  0
   37.7060   24.5370   30.1440 H   0  0  0  0  0  0  0  0  0  0  0  0
   38.9760   21.7170   32.5960 H   0  0  0  0  0  0  0  0  0  0  0  0
   40.0370   23.1420   32.1140 H   0  0  0  0  0  0  0  0  0  0  0  0
   37.4050   23.2500   33.7010 H   0  0  0  0  0  0  0  0  0  0  0  0
   36.9070   25.6180   32.7320 O   0  0  0  0  0  0  0  0  0  0  0  0
   37.1140   26.5460   32.4330 H   0  0  0  0  0  0  0  0  0  0  0  0
   35.8100   23.5170   31.3490 S   0  0  0  0  0  0  0  0  0  0  0  0
   35.8520   19.5610   31.1040 C   0  0  0  0  0  0  0  0  0  0  0  0
   35.6710   19.1180   32.4210 C   0  0  0  0  0  0  0  0  0  0  0  0
   35.5330   20.0830   33.4160 C   0  0  0  0  0  0  0  0  0  0  0  0
   35.5760   21.3970   33.0840 N   0  0  0  0  0  0  0  0  0  0  0  0
   35.7530   21.7850   31.7900 C   0  0  0  0  0  0  0  0  0  0  0  0
   35.8890   20.8790   30.8100 N   0  0  0  0  0  0  0  0  0  0  0  0
   35.9560   18.8030   30.3480 H   0  0  0  0  0  0  0  0  0  0  0  0
   35.6330   18.0750   32.7090 H   0  0  0  0  0  0  0  0  0  0  0  0
   35.3910   19.8750   34.4560 H   0  0  0  0  0  0  0  0  0  0  0  0
   39.1440   24.1180   34.2670 O   0  0  0  0  0  0  0  0  0  0  0  0
   39.2740   22.6600   36.1790 C   0  0  2  0  0  3  0  0  0  0  0  0
   39.8580   23.0700   34.8270 C   0  0  2  0  0  3  0  0  0  0  0  0
   41.1630   23.4220   35.0450 O   0  0  0  0  0  0  0  0  0  0  0  0
   41.5550   23.0080   36.3060 C   0  0  0  0  0  2  0  0  0  0  0  0
   40.5170   21.9820   36.7570 C   0  0  1  0  0  3  0  0  0  0  0  0
   38.2500   21.7310   36.0170 O   0  0  0  0  0  0  0  0  0  0  0  0
   38.6310   21.0430   35.3900 H   0  0  0  0  0  0  0  0  0  0  0  0
   40.4570   21.8240   38.1160 O   0  0  0  0  0  0  0  0  0  0  0  0
   40.7930   20.8920   38.3020 H   0  0  0  0  0  0  0  0  0  0  0  0
  1  6  1  6  0  0  0
  1 11  1  0  0  0  0
  1  5  1  0  0  0  0
  2  7  1  6  0  0  0
  2  3  1  0  0  0  0
  2 13  1  0  0  0  0
  2  1  1  0  0  0  0
  3  4  1  0  0  0  0
  4  8  1  0  0  0  0
  4  5  1  0  0  0  0
  5 10  1  1  0  0  0
  5 23  1  0  0  0  0
  9  4  1  0  0  0  0
 12 11  1  0  0  0  0
 13 18  1  0  0  0  0
 14 15  1  0  0  0  0
 15 21  1  0  0  0  0
 15 16  2  0  0  0  0
 16 22  1  0  0  0  0
 17 16  1  0  0  0  0
 18 17  2  0  0  0  0
 19 14  2  0  0  0  0
 19 18  1  0  0  0  0
 20 14  1  0  0  0  0
 24 29  1  6  0  0  0
 24 28  1  0  0  0  0
 25 23  1  1  0  0  0
 25 26  1  0  0  0  0
 25 24  1  0  0  0  0
 26 27  1  0  0  0  0
 27 28  1  0  0  0  0
 28 31  1  1  0  0  0
 30 29  1  0  0  0  0
 31 32  1  0  0  0  0
M  END
>  <minimizedAffinity>
-4.99392033

$$$$

 OpenBabel03272506453D

 32 34  0  0  1  0  0  0  0  0999 V2000
   37.7190   24.9550   31.4340 C   0  0  2  0  0  0  0  0  0  0  0  0
   37.5980   23.5910   32.0800 C   0  0  1  0  0  0  0  0  0  0  0  0
   37.7040   23.7550   33.4350 O   0  0  0  0  0  0  0  0  0  0  0  0
   37.6740   25.1000   33.7270 C   0  0  0  0  0  0  0  0  0  0  0  0
   37.0750   25.7900   32.5160 C   0  0  1  0  0  0  0  0  0  0  0  0
   38.7710   25.2780   31.3470 H   0  0  0  0  0  0  0  0  0  0  0  0
   38.3740   22.8960   31.7330 H   0  0  0  0  0  0  0  0  0  0  0  0
   37.0540   25.2170   34.6400 H   0  0  0  0  0  0  0  0  0  0  0  0
   38.7110   25.4570   33.8740 H   0  0  0  0  0  0  0  0  0  0  0  0
   35.9780   25.7390   32.4930 H   0  0  0  0  0  0  0  0  0  0  0  0
   37.0360   25.0040   30.2270 O   0  0  0  0  0  0  0  0  0  0  0  0
   37.7310   24.9640   29.5120 H   0  0  0  0  0  0  0  0  0  0  0  0
   35.9090   22.9930   31.7140 S   0  0  0  0  0  0  0  0  0  0  0  0
   36.3540   19.1810   30.7220 C   0  0  0  0  0  0  0  0  0  0  0  0
   35.9200   18.4650   31.8460 C   0  0  0  0  0  0  0  0  0  0  0  0
   35.4750   19.1930   32.9460 C   0  0  0  0  0  0  0  0  0  0  0  0
   35.4760   20.5490   32.8960 N   0  0  0  0  0  0  0  0  0  0  0  0
   35.9060   21.2060   31.7840 C   0  0  0  0  0  0  0  0  0  0  0  0
   36.3400   20.5320   30.7070 N   0  0  0  0  0  0  0  0  0  0  0  0
   36.6930   18.6030   29.8810 H   0  0  0  0  0  0  0  0  0  0  0  0
   35.9100   17.3850   31.9080 H   0  0  0  0  0  0  0  0  0  0  0  0
   35.1200   18.7660   33.8620 H   0  0  0  0  0  0  0  0  0  0  0  0
   37.4530   27.1240   32.4510 O   0  0  0  0  0  0  0  0  0  0  0  0
   36.7890   28.6230   30.6880 C   0  0  2  0  0  3  0  0  0  0  0  0
   36.4300   27.9500   32.0120 C   0  0  2  0  0  3  0  0  0  0  0  0
   36.1810   28.9490   32.9140 O   0  0  0  0  0  0  0  0  0  0  0  0
   36.0530   30.1570   32.2500 C   0  0  0  0  0  2  0  0  0  0  0  0
   35.8310   29.8110   30.7790 C   0  0  1  0  0  3  0  0  0  0  0  0
   36.4470   27.8110   29.6090 O   0  0  0  0  0  0  0  0  0  0  0  0
   35.5040   27.5210   29.8010 H   0  0  0  0  0  0  0  0  0  0  0  0
   36.1560   30.8280   29.9220 O   0  0  0  0  0  0  0  0  0  0  0  0
   35.2870   31.1330   29.5110 H   0  0  0  0  0  0  0  0  0  0  0  0
  1  6  1  6  0  0  0
  1  2  1  0  0  0  0
  1  5  1  0  0  0  0
  2  7  1  6  0  0  0
  2  3  1  0  0  0  0
  3  4  1  0  0  0  0
  4  9  1  0  0  0  0
  4  8  1  0  0  0  0
  5 10  1  6  0  0  0
  5  4  1  0  0  0  0
 11  1  1  0  0  0  0
 12 11  1  0  0  0  0
 13 18  1  0  0  0  0
 13  2  1  0  0  0  0
 14 15  1  0  0  0  0
 15 21  1  0  0  0  0
 15 16  2  0  0  0  0
 16 22  1  0  0  0  0
 17 16  1  0  0  0  0
 18 17  2  0  0  0  0
 19 14  2  0  0  0  0
 19 18  1  0  0  0  0
 20 14  1  0  0  0  0
 23  5  1  0  0  0  0
 24 29  1  6  0  0  0
 24 28  1  0  0  0  0
 24 25  1  0  0  0  0
 25 23  1  1  0  0  0
 25 26  1  0  0  0  0
 27 26  1  0  0  0  0
 28 31  1  6  0  0  0
 28 27  1  0  0  0  0
 29 30  1  0  0  0  0
 32 31  1  0  0  0  0
M  END
>  <minimizedAffinity>
-4.9425149

$$$$

 OpenBabel03272506453D

 32 34  0  0  1  0  0  0  0  0999 V2000
   39.5600   24.0240   33.0030 C   0  0  2  0  0  0  0  0  0  0  0  0
   38.9250   23.1170   31.9720 C   0  0  1  0  0  0  0  0  0  0  0  0
   39.2680   21.8270   32.2760 O   0  0  0  0  0  0  0  0  0  0  0  0
   39.8820   21.8050   33.5080 C   0  0  0  0  0  0  0  0  0  0  0  0
   39.5050   23.1020   34.2000 C   0  0  1  0  0  0  0  0  0  0  0  0
   40.6230   24.2180   32.7830 H   0  0  0  0  0  0  0  0  0  0  0  0
   39.2550   23.3520   30.9510 H   0  0  0  0  0  0  0  0  0  0  0  0
   39.5040   20.9080   34.0400 H   0  0  0  0  0  0  0  0  0  0  0  0
   40.9790   21.7770   33.3600 H   0  0  0  0  0  0  0  0  0  0  0  0
   38.5080   23.0670   34.6610 H   0  0  0  0  0  0  0  0  0  0  0  0
   38.8220   25.1860   33.1760 O   0  0  0  0  0  0  0  0  0  0  0  0
   39.3250   25.9080   32.7070 H   0  0  0  0  0  0  0  0  0  0  0  0
   37.1160   23.2840   32.1780 S   0  0  0  0  0  0  0  0  0  0  0  0
   35.5180   19.9540   33.6190 C   0  0  0  0  0  0  0  0  0  0  0  0
   35.2940   19.1470   32.4950 C   0  0  0  0  0  0  0  0  0  0  0  0
   35.6530   19.6590   31.2500 C   0  0  0  0  0  0  0  0  0  0  0  0
   36.1970   20.8980   31.1660 N   0  0  0  0  0  0  0  0  0  0  0  0
   36.3980   21.6490   32.2840 C   0  0  0  0  0  0  0  0  0  0  0  0
   36.0640   21.1840   33.4980 N   0  0  0  0  0  0  0  0  0  0  0  0
   35.2370   19.5440   34.5730 H   0  0  0  0  0  0  0  0  0  0  0  0
   34.8620   18.1570   32.5370 H   0  0  0  0  0  0  0  0  0  0  0  0
   35.5330   19.1440   30.3180 H   0  0  0  0  0  0  0  0  0  0  0  0
   40.4290   23.4450   35.1760 O   0  0  0  0  0  0  0  0  0  0  0  0
   39.3120   22.6500   37.1560 C   0  0  2  0  0  3  0  0  0  0  0  0
   39.8310   23.8480   36.3610 C   0  0  2  0  0  3  0  0  0  0  0  0
   38.7580   24.6630   36.1200 O   0  0  0  0  0  0  0  0  0  0  0  0
   37.6900   24.2770   36.9120 C   0  0  0  0  0  2  0  0  0  0  0  0
   38.2740   23.3850   38.0060 C   0  0  1  0  0  3  0  0  0  0  0  0
   40.3130   22.1230   37.9690 O   0  0  0  0  0  0  0  0  0  0  0  0
   40.7040   22.9220   38.4360 H   0  0  0  0  0  0  0  0  0  0  0  0
   37.3560   22.5430   38.5740 O   0  0  0  0  0  0  0  0  0  0  0  0
   37.2420   22.8590   39.5260 H   0  0  0  0  0  0  0  0  0  0  0  0
  1  6  1  6  0  0  0
  1 11  1  0  0  0  0
  1  5  1  0  0  0  0
  2  7  1  6  0  0  0
  2 13  1  0  0  0  0
  2  3  1  0  0  0  0
  2  1  1  0  0  0  0
  3  4  1  0  0  0  0
  4  8  1  0  0  0  0
  4  5  1  0  0  0  0
  5 10  1  1  0  0  0
  5 23  1  0  0  0  0
  9  4  1  0  0  0  0
 12 11  1  0  0  0  0
 13 18  1  0  0  0  0
 14 20  1  0  0  0  0
 15 21  1  0  0  0  0
 15 14  2  0  0  0  0
 16 15  1  0  0  0  0
 17 16  2  0  0  0  0
 17 18  1  0  0  0  0
 18 19  2  0  0  0  0
 19 14  1  0  0  0  0
 22 16  1  0  0  0  0
 24 29  1  1  0  0  0
 24 28  1  0  0  0  0
 25 23  1  6  0  0  0
 25 24  1  0  0  0  0
 26 25  1  0  0  0  0
 26 27  1  0  0  0  0
 27 28  1  0  0  0  0
 28 31  1  6  0  0  0
 29 30  1  0  0  0  0
 31 32  1  0  0  0  0
M  END
>  <minimizedAffinity>
-4.90195227

$$$$

 OpenBabel03272506453D

 32 34  0  0  1  0  0  0  0  0999 V2000
   38.1910   25.0020   30.7380 C   0  0  2  0  0  0  0  0  0  0  0  0
   37.8090   23.5380   30.7000 C   0  0  1  0  0  0  0  0  0  0  0  0
   38.6840   22.8530   31.5000 O   0  0  0  0  0  0  0  0  0  0  0  0
   39.4520   23.7550   32.2010 C   0  0  0  0  0  0  0  0  0  0  0  0
   38.7100   25.0780   32.1550 C   0  0  1  0  0  0  0  0  0  0  0  0
   39.0370   25.2240   30.0640 H   0  0  0  0  0  0  0  0  0  0  0  0
   37.8420   23.1240   29.6830 H   0  0  0  0  0  0  0  0  0  0  0  0
   39.5580   23.3560   33.2300 H   0  0  0  0  0  0  0  0  0  0  0  0
   40.4270   23.8670   31.6890 H   0  0  0  0  0  0  0  0  0  0  0  0
   37.9020   25.1410   32.8970 H   0  0  0  0  0  0  0  0  0  0  0  0
   37.0920   25.8170   30.5150 O   0  0  0  0  0  0  0  0  0  0  0  0
   37.1790   26.1530   29.5800 H   0  0  0  0  0  0  0  0  0  0  0  0
   36.1460   23.4180   31.4500 S   0  0  0  0  0  0  0  0  0  0  0  0
   35.6070   19.4910   31.4160 C   0  0  0  0  0  0  0  0  0  0  0  0
   35.4720   19.1350   32.7640 C   0  0  0  0  0  0  0  0  0  0  0  0
   35.5510   20.1510   33.7130 C   0  0  0  0  0  0  0  0  0  0  0  0
   35.7530   21.4300   33.3090 N   0  0  0  0  0  0  0  0  0  0  0  0
   35.8790   21.7330   31.9870 C   0  0  0  0  0  0  0  0  0  0  0  0
   35.8060   20.7750   31.0490 N   0  0  0  0  0  0  0  0  0  0  0  0
   35.5420   18.6940   30.6960 H   0  0  0  0  0  0  0  0  0  0  0  0
   35.3100   18.1220   33.1100 H   0  0  0  0  0  0  0  0  0  0  0  0
   35.4650   20.0110   34.7710 H   0  0  0  0  0  0  0  0  0  0  0  0
   39.5690   26.1500   32.3490 O   0  0  0  0  0  0  0  0  0  0  0  0
   39.5160   26.6550   34.7030 C   0  0  2  0  0  3  0  0  0  0  0  0
   39.0950   27.0530   33.2880 C   0  0  2  0  0  3  0  0  0  0  0  0
   37.7270   27.1050   33.2780 O   0  0  0  0  0  0  0  0  0  0  0  0
   37.2470   27.0750   34.5760 C   0  0  0  0  0  2  0  0  0  0  0  0
   38.4350   27.4150   35.4740 C   0  0  1  0  0  3  0  0  0  0  0  0
   40.7740   27.1660   35.0090 O   0  0  0  0  0  0  0  0  0  0  0  0
   40.7260   28.1330   34.7380 H   0  0  0  0  0  0  0  0  0  0  0  0
   38.2910   26.9760   36.7630 O   0  0  0  0  0  0  0  0  0  0  0  0
   38.2070   27.8060   37.3310 H   0  0  0  0  0  0  0  0  0  0  0  0
  1  6  1  6  0  0  0
  1  5  1  0  0  0  0
  2  7  1  6  0  0  0
  2  1  1  0  0  0  0
  2 13  1  0  0  0  0
  2  3  1  0  0  0  0
  3  4  1  0  0  0  0
  4  8  1  0  0  0  0
  5  4  1  0  0  0  0
  5 23  1  0  0  0  0
  5 10  1  1  0  0  0
  9  4  1  0  0  0  0
 11  1  1  0  0  0  0
 12 11  1  0  0  0  0
 13 18  1  0  0  0  0
 14 15  1  0  0  0  0
 15 21  1  0  0  0  0
 15 16  2  0  0  0  0
 16 22  1  0  0  0  0
 17 16  1  0  0  0  0
 18 17  2  0  0  0  0
 19 14  2  0  0  0  0
 19 18  1  0  0  0  0
 20 14  1  0  0  0  0
 24 29  1  1  0  0  0
 24 28  1  0  0  0  0
 25 23  1  6  0  0  0
 25 24  1  0  0  0  0
 26 25  1  0  0  0  0
 26 27  1  0  0  0  0
 27 28  1  0  0  0  0
 28 31  1  1  0  0  0
 30 29  1  0  0  0  0
 31 32  1  0  0  0  0
M  END
>  <minimizedAffinity>
-4.85738468

$$$$

 OpenBabel03272506453D

 32 34  0  0  1  0  0  0  0  0999 V2000
   38.0350   26.2250   33.5930 C   0  0  2  0  0  0  0  0  0  0  0  0
   39.2960   26.6120   32.8500 C   0  0  1  0  0  0  0  0  0  0  0  0
   40.3560   26.0180   33.4810 O   0  0  0  0  0  0  0  0  0  0  0  0
   39.8800   25.1320   34.4210 C   0  0  0  0  0  0  0  0  0  0  0  0
   38.4390   24.8400   34.0450 C   0  0  1  0  0  0  0  0  0  0  0  0
   37.8850   26.8380   34.4980 H   0  0  0  0  0  0  0  0  0  0  0  0
   39.4480   27.6990   32.8250 H   0  0  0  0  0  0  0  0  0  0  0  0
   40.5280   24.2320   34.3720 H   0  0  0  0  0  0  0  0  0  0  0  0
   39.9060   25.6160   35.4150 H   0  0  0  0  0  0  0  0  0  0  0  0
   38.3480   24.0910   33.2460 H   0  0  0  0  0  0  0  0  0  0  0  0
   36.9340   26.2230   32.7500 O   0  0  0  0  0  0  0  0  0  0  0  0
   36.4170   27.0490   32.9650 H   0  0  0  0  0  0  0  0  0  0  0  0
   39.1560   25.8850   31.1780 S   0  0  0  0  0  0  0  0  0  0  0  0
   37.2660   28.9160   29.4580 C   0  0  0  0  0  0  0  0  0  0  0  0
   37.9930   29.1760   28.2890 C   0  0  0  0  0  0  0  0  0  0  0  0
   39.1070   28.3810   28.0290 C   0  0  0  0  0  0  0  0  0  0  0  0
   39.4460   27.3990   28.9010 N   0  0  0  0  0  0  0  0  0  0  0  0
   38.7120   27.1790   30.0260 C   0  0  0  0  0  0  0  0  0  0  0  0
   37.6320   27.9280   30.3030 N   0  0  0  0  0  0  0  0  0  0  0  0
   36.4080   29.5380   29.6430 H   0  0  0  0  0  0  0  0  0  0  0  0
   37.7410   29.9530   27.5800 H   0  0  0  0  0  0  0  0  0  0  0  0
   39.7440   28.4780   27.1740 H   0  0  0  0  0  0  0  0  0  0  0  0
   37.7060   24.4050   35.1400 O   0  0  0  0  0  0  0  0  0  0  0  0
   38.3070   22.9430   36.9550 C   0  0  2  0  0  3  0  0  0  0  0  0
   38.4700   24.3110   36.2920 C   0  0  2  0  0  3  0  0  0  0  0  0
   38.0920   25.2490   37.2140 O   0  0  0  0  0  0  0  0  0  0  0  0
   37.9920   24.6630   38.4650 C   0  0  0  0  0  2  0  0  0  0  0  0
   38.7370   23.3330   38.3700 C   0  0  1  0  0  3  0  0  0  0  0  0
   39.2020   22.0210   36.4180 O   0  0  0  0  0  0  0  0  0  0  0  0
   40.0880   22.4960   36.4260 H   0  0  0  0  0  0  0  0  0  0  0  0
   38.3520   22.4210   39.3160 O   0  0  0  0  0  0  0  0  0  0  0  0
   39.1460   22.3030   39.9270 H   0  0  0  0  0  0  0  0  0  0  0  0
  1  5  1  0  0  0  0
  1  6  1  1  0  0  0
  2  7  1  6  0  0  0
  2  3  1  0  0  0  0
  2  1  1  0  0  0  0
  3  4  1  0  0  0  0
  4  9  1  0  0  0  0
  5 10  1  6  0  0  0
  5  4  1  0  0  0  0
  5 23  1  0  0  0  0
  8  4  1  0  0  0  0
 11 12  1  0  0  0  0
 11  1  1  0  0  0  0
 13  2  1  0  0  0  0
 14 20  1  0  0  0  0
 14 19  1  0  0  0  0
 15 14  2  0  0  0  0
 16 15  1  0  0  0  0
 16 17  2  0  0  0  0
 17 18  1  0  0  0  0
 18 19  2  0  0  0  0
 18 13  1  0  0  0  0
 21 15  1  0  0  0  0
 22 16  1  0  0  0  0
 24 29  1  6  0  0  0
 24 28  1  0  0  0  0
 25 23  1  6  0  0  0
 25 24  1  0  0  0  0
 25 26  1  0  0  0  0
 26 27  1  0  0  0  0
 28 27  1  0  0  0  0
 28 31  1  1  0  0  0
 29 30  1  0  0  0  0
 31 32  1  0  0  0  0
M  END
>  <minimizedAffinity>
-4.84110546

$$$$

 OpenBabel03272506453D

 32 34  0  0  1  0  0  0  0  0999 V2000
   39.1130   24.7170   32.7720 C   0  0  2  0  0  0  0  0  0  0  0  0
   37.8650   24.8350   31.9240 C   0  0  1  0  0  0  0  0  0  0  0  0
   37.1740   23.6580   32.0240 O   0  0  0  0  0  0  0  0  0  0  0  0
   37.7470   22.8840   33.0080 C   0  0  0  0  0  0  0  0  0  0  0  0
   38.5760   23.8220   33.8650 C   0  0  1  0  0  0  0  0  0  0  0  0
   39.9130   24.1630   32.2530 H   0  0  0  0  0  0  0  0  0  0  0  0
   38.0960   25.0350   30.8690 H   0  0  0  0  0  0  0  0  0  0  0  0
   36.9160   22.4090   33.5690 H   0  0  0  0  0  0  0  0  0  0  0  0
   38.4150   22.1390   32.5330 H   0  0  0  0  0  0  0  0  0  0  0  0
   37.9750   24.3700   34.6030 H   0  0  0  0  0  0  0  0  0  0  0  0
   39.5260   25.9570   33.2370 O   0  0  0  0  0  0  0  0  0  0  0  0
   40.3180   26.2110   32.6870 H   0  0  0  0  0  0  0  0  0  0  0  0
   36.8470   26.1530   32.6800 S   0  0  0  0  0  0  0  0  0  0  0  0
   38.1650   28.8820   30.1240 C   0  0  0  0  0  0  0  0  0  0  0  0
   37.1450   29.8410   30.0650 C   0  0  0  0  0  0  0  0  0  0  0  0
   36.0110   29.6290   30.8460 C   0  0  0  0  0  0  0  0  0  0  0  0
   35.9330   28.5220   31.6250 N   0  0  0  0  0  0  0  0  0  0  0  0
   36.9470   27.6140   31.6540 C   0  0  0  0  0  0  0  0  0  0  0  0
   38.0530   27.7910   30.9130 N   0  0  0  0  0  0  0  0  0  0  0  0
   39.0330   29.0610   29.5150 H   0  0  0  0  0  0  0  0  0  0  0  0
   37.1860   30.7310   29.4510 H   0  0  0  0  0  0  0  0  0  0  0  0
   35.1650   30.2840   30.8890 H   0  0  0  0  0  0  0  0  0  0  0  0
   39.5820   23.1430   34.5360 O   0  0  0  0  0  0  0  0  0  0  0  0
   39.2820   22.3980   36.8060 C   0  0  2  0  0  3  0  0  0  0  0  0
   39.6960   23.5280   35.8640 C   0  0  2  0  0  3  0  0  0  0  0  0
   38.8850   24.5950   36.1390 O   0  0  0  0  0  0  0  0  0  0  0  0
   38.2120   24.3780   37.3290 C   0  0  0  0  0  2  0  0  0  0  0  0
   38.9570   23.2470   38.0360 C   0  0  1  0  0  3  0  0  0  0  0  0
   40.3570   21.5550   37.0740 O   0  0  0  0  0  0  0  0  0  0  0  0
   41.1110   22.1770   37.3130 H   0  0  0  0  0  0  0  0  0  0  0  0
   38.1960   22.5820   38.9590 O   0  0  0  0  0  0  0  0  0  0  0  0
   38.5980   22.7980   39.8590 H   0  0  0  0  0  0  0  0  0  0  0  0
  1  6  1  6  0  0  0
  1 11  1  0  0  0  0
  1  5  1  0  0  0  0
  2  7  1  6  0  0  0
  2  3  1  0  0  0  0
  2 13  1  0  0  0  0
  2  1  1  0  0  0  0
  3  4  1  0  0  0  0
  4  8  1  0  0  0  0
  4  5  1  0  0  0  0
  5 23  1  0  0  0  0
  5 10  1  1  0  0  0
  9  4  1  0  0  0  0
 12 11  1  0  0  0  0
 14 19  1  0  0  0  0
 15 14  2  0  0  0  0
 15 16  1  0  0  0  0
 16 22  1  0  0  0  0
 16 17  2  0  0  0  0
 17 18  1  0  0  0  0
 18 13  1  0  0  0  0
 19 18  2  0  0  0  0
 20 14  1  0  0  0  0
 21 15  1  0  0  0  0
 24 29  1  1  0  0  0
 24 28  1  0  0  0  0
 25 23  1  6  0  0  0
 25 26  1  0  0  0  0
 25 24  1  0  0  0  0
 26 27  1  0  0  0  0
 27 28  1  0  0  0  0
 28 31  1  1  0  0  0
 29 30  1  0  0  0  0
 31 32  1  0  0  0  0
M  END
>  <minimizedAffinity>
-4.83231783

$$$$

 OpenBabel03272506453D

 32 34  0  0  1  0  0  0  0  0999 V2000
   38.5270   26.8250   33.4920 C   0  0  2  0  0  0  0  0  0  0  0  0
   37.7590   25.5530   33.7800 C   0  0  1  0  0  0  0  0  0  0  0  0
   37.1380   25.1640   32.6240 O   0  0  0  0  0  0  0  0  0  0  0  0
   37.5970   25.9420   31.5840 C   0  0  0  0  0  0  0  0  0  0  0  0
   38.9030   26.5580   32.0520 C   0  0  1  0  0  0  0  0  0  0  0  0
   37.8720   27.7130   33.5030 H   0  0  0  0  0  0  0  0  0  0  0  0
   37.0090   25.6890   34.5700 H   0  0  0  0  0  0  0  0  0  0  0  0
   37.7270   25.2680   30.7120 H   0  0  0  0  0  0  0  0  0  0  0  0
   36.8630   26.7470   31.3900 H   0  0  0  0  0  0  0  0  0  0  0  0
   39.7570   25.8730   31.9590 H   0  0  0  0  0  0  0  0  0  0  0  0
   39.6270   26.9520   34.3270 O   0  0  0  0  0  0  0  0  0  0  0  0
   39.3820   27.6390   35.0070 H   0  0  0  0  0  0  0  0  0  0  0  0
   39.0040   24.2830   34.2070 S   0  0  0  0  0  0  0  0  0  0  0  0
   39.7570   22.8280   37.8160 C   0  0  0  0  0  0  0  0  0  0  0  0
   38.7900   23.4100   38.6470 C   0  0  0  0  0  0  0  0  0  0  0  0
   37.8760   24.2830   38.0630 C   0  0  0  0  0  0  0  0  0  0  0  0
   37.9490   24.5380   36.7330 N   0  0  0  0  0  0  0  0  0  0  0  0
   38.9050   23.9500   35.9610 C   0  0  0  0  0  0  0  0  0  0  0  0
   39.7990   23.1040   36.4950 N   0  0  0  0  0  0  0  0  0  0  0  0
   40.4550   22.1550   38.2830 H   0  0  0  0  0  0  0  0  0  0  0  0
   38.7130   23.2220   39.7100 H   0  0  0  0  0  0  0  0  0  0  0  0
   37.0920   24.7910   38.5870 H   0  0  0  0  0  0  0  0  0  0  0  0
   39.1940   27.7210   31.3550 O   0  0  0  0  0  0  0  0  0  0  0  0
   38.8390   28.3280   29.0520 C   0  0  2  0  0  3  0  0  0  0  0  0
   38.2210   28.0440   30.4220 C   0  0  2  0  0  3  0  0  0  0  0  0
   37.5360   29.1700   30.7920 O   0  0  0  0  0  0  0  0  0  0  0  0
   37.4010   30.0150   29.7040 C   0  0  0  0  0  2  0  0  0  0  0  0
   37.7010   29.1680   28.4690 C   0  0  1  0  0  3  0  0  0  0  0  0
   38.9910   27.1520   28.3230 O   0  0  0  0  0  0  0  0  0  0  0  0
   38.1020   26.6890   28.4020 H   0  0  0  0  0  0  0  0  0  0  0  0
   38.0830   29.9030   27.3800 O   0  0  0  0  0  0  0  0  0  0  0  0
   37.3400   29.8060   26.7050 H   0  0  0  0  0  0  0  0  0  0  0  0
  1  6  1  1  0  0  0
  1  2  1  0  0  0  0
  1 11  1  0  0  0  0
  2 13  1  0  0  0  0
  2  7  1  1  0  0  0
  3  2  1  0  0  0  0
  4  5  1  0  0  0  0
  4  3  1  0  0  0  0
  5 10  1  6  0  0  0
  5  1  1  0  0  0  0
  8  4  1  0  0  0  0
  9  4  1  0  0  0  0
 11 12  1  0  0  0  0
 13 18  1  0  0  0  0
 14 20  1  0  0  0  0
 14 15  1  0  0  0  0
 15 21  1  0  0  0  0
 16 22  1  0  0  0  0
 16 15  2  0  0  0  0
 17 16  1  0  0  0  0
 18 19  1  0  0  0  0
 18 17  2  0  0  0  0
 19 14  2  0  0  0  0
 23  5  1  0  0  0  0
 24 29  1  6  0  0  0
 24 25  1  0  0  0  0
 25 26  1  0  0  0  0
 25 23  1  1  0  0  0
 27 26  1  0  0  0  0
 28 31  1  6  0  0  0
 28 24  1  0  0  0  0
 28 27  1  0  0  0  0
 29 30  1  0  0  0  0
 32 31  1  0  0  0  0
M  END
>  <minimizedAffinity>
-4.83010674

$$$$

 OpenBabel03272506453D

 32 34  0  0  1  0  0  0  0  0999 V2000
   33.6780   30.5250   33.7880 C   0  0  2  0  0  0  0  0  0  0  0  0
   35.1760   30.5390   33.9990 C   0  0  1  0  0  0  0  0  0  0  0  0
   35.4300   31.1720   35.1860 O   0  0  0  0  0  0  0  0  0  0  0  0
   34.2400   31.3780   35.8470 C   0  0  0  0  0  0  0  0  0  0  0  0
   33.2340   30.4240   35.2290 C   0  0  1  0  0  0  0  0  0  0  0  0
   33.3080   31.4870   33.3940 H   0  0  0  0  0  0  0  0  0  0  0  0
   35.7060   31.0560   33.1880 H   0  0  0  0  0  0  0  0  0  0  0  0
   34.4280   31.1690   36.9200 H   0  0  0  0  0  0  0  0  0  0  0  0
   33.9090   32.4190   35.6720 H   0  0  0  0  0  0  0  0  0  0  0  0
   33.3140   29.4020   35.6260 H   0  0  0  0  0  0  0  0  0  0  0  0
   33.2860   29.4380   33.0200 O   0  0  0  0  0  0  0  0  0  0  0  0
   33.0830   29.7970   32.1120 H   0  0  0  0  0  0  0  0  0  0  0  0
   35.6920   28.7930   34.1690 S   0  0  0  0  0  0  0  0  0  0  0  0
   36.6550   28.2710   30.3590 C   0  0  0  0  0  0  0  0  0  0  0  0
   37.8740   27.5810   30.3880 C   0  0  0  0  0  0  0  0  0  0  0  0
   38.4110   27.2680   31.6340 C   0  0  0  0  0  0  0  0  0  0  0  0
   37.7500   27.6360   32.7600 N   0  0  0  0  0  0  0  0  0  0  0  0
   36.5670   28.3060   32.6870 C   0  0  0  0  0  0  0  0  0  0  0  0
   36.0230   28.6210   31.5010 N   0  0  0  0  0  0  0  0  0  0  0  0
   36.2530   28.5040   29.3890 H   0  0  0  0  0  0  0  0  0  0  0  0
   38.4180   27.2770   29.5040 H   0  0  0  0  0  0  0  0  0  0  0  0
   39.3330   26.7460   31.7910 H   0  0  0  0  0  0  0  0  0  0  0  0
   31.9320   30.8660   35.4150 O   0  0  0  0  0  0  0  0  0  0  0  0
   31.7450   28.8460   36.7120 C   0  0  2  0  0  3  0  0  0  0  0  0
   31.0660   29.8450   35.7750 C   0  0  2  0  0  3  0  0  0  0  0  0
   30.6470   29.1430   34.6780 O   0  0  0  0  0  0  0  0  0  0  0  0
   30.7160   27.7850   34.9360 C   0  0  0  0  0  2  0  0  0  0  0  0
   30.8300   27.6480   36.4540 C   0  0  1  0  0  3  0  0  0  0  0  0
   31.6360   29.2560   38.0390 O   0  0  0  0  0  0  0  0  0  0  0  0
   30.6650   29.4920   38.1510 H   0  0  0  0  0  0  0  0  0  0  0  0
   31.3780   26.4600   36.8570 O   0  0  0  0  0  0  0  0  0  0  0  0
   30.6380   25.9570   37.3230 H   0  0  0  0  0  0  0  0  0  0  0  0
  1  6  1  6  0  0  0
  1  2  1  0  0  0  0
  1  5  1  0  0  0  0
  2  7  1  6  0  0  0
  2 13  1  0  0  0  0
  2  3  1  0  0  0  0
  3  4  1  0  0  0  0
  4  8  1  0  0  0  0
  5 23  1  0  0  0  0
  5 10  1  1  0  0  0
  5  4  1  0  0  0  0
  9  4  1  0  0  0  0
 11  1  1  0  0  0  0
 12 11  1  0  0  0  0
 14 15  2  0  0  0  0
 14 19  1  0  0  0  0
 15 16  1  0  0  0  0
 16 22  1  0  0  0  0
 16 17  2  0  0  0  0
 18 17  1  0  0  0  0
 18 13  1  0  0  0  0
 19 18  2  0  0  0  0
 20 14  1  0  0  0  0
 21 15  1  0  0  0  0
 24 29  1  1  0  0  0
 25 23  1  6  0  0  0
 25 24  1  0  0  0  0
 26 27  1  0  0  0  0
 26 25  1  0  0  0  0
 27 28  1  0  0  0  0
 28 24  1  0  0  0  0
 28 31  1  6  0  0  0
 29 30  1  0  0  0  0
 31 32  1  0  0  0  0
M  END
>  <minimizedAffinity>
-4.77283144

$$$$

 OpenBabel03272506453D

 32 34  0  0  1  0  0  0  0  0999 V2000
   37.4250   24.0590   31.2650 C   0  0  2  0  0  0  0  0  0  0  0  0
   37.1630   25.5190   31.5630 C   0  0  1  0  0  0  0  0  0  0  0  0
   35.8530   25.7830   31.2690 O   0  0  0  0  0  0  0  0  0  0  0  0
   35.2050   24.5960   31.0100 C   0  0  0  0  0  0  0  0  0  0  0  0
   36.0640   23.4970   31.6070 C   0  0  1  0  0  0  0  0  0  0  0  0
   37.5950   23.8830   30.1890 H   0  0  0  0  0  0  0  0  0  0  0  0
   37.8110   26.1870   30.9790 H   0  0  0  0  0  0  0  0  0  0  0  0
   34.2040   24.6660   31.4840 H   0  0  0  0  0  0  0  0  0  0  0  0
   35.1420   24.4540   29.9140 H   0  0  0  0  0  0  0  0  0  0  0  0
   35.9160   23.3780   32.6890 H   0  0  0  0  0  0  0  0  0  0  0  0
   38.4400   23.5540   32.0640 O   0  0  0  0  0  0  0  0  0  0  0  0
   39.2450   23.4820   31.4790 H   0  0  0  0  0  0  0  0  0  0  0  0
   37.3890   25.7280   33.3660 S   0  0  0  0  0  0  0  0  0  0  0  0
   40.9870   27.3920   33.3380 C   0  0  0  0  0  0  0  0  0  0  0  0
   41.7670   26.5760   34.1680 C   0  0  0  0  0  0  0  0  0  0  0  0
   41.1520   25.4720   34.7540 C   0  0  0  0  0  0  0  0  0  0  0  0
   39.8400   25.2280   34.5080 N   0  0  0  0  0  0  0  0  0  0  0  0
   39.1180   26.0470   33.6940 C   0  0  0  0  0  0  0  0  0  0  0  0
   39.6840   27.1170   33.1130 N   0  0  0  0  0  0  0  0  0  0  0  0
   41.4790   28.2390   32.8920 H   0  0  0  0  0  0  0  0  0  0  0  0
   42.8140   26.7510   34.3780 H   0  0  0  0  0  0  0  0  0  0  0  0
   41.6360   24.7750   35.4060 H   0  0  0  0  0  0  0  0  0  0  0  0
   35.8260   22.2750   30.9950 O   0  0  0  0  0  0  0  0  0  0  0  0
   35.4280   19.9500   31.4770 C   0  0  2  0  0  3  0  0  0  0  0  0
   36.2610   21.2010   31.7560 C   0  0  2  0  0  3  0  0  0  0  0  0
   36.1490   21.4660   33.0940 O   0  0  0  0  0  0  0  0  0  0  0  0
   35.5910   20.3770   33.7420 C   0  0  0  0  0  2  0  0  0  0  0  0
   35.7200   19.1990   32.7780 C   0  0  1  0  0  3  0  0  0  0  0  0
   35.9400   19.2450   30.3900 O   0  0  0  0  0  0  0  0  0  0  0  0
   36.9260   19.1780   30.5750 H   0  0  0  0  0  0  0  0  0  0  0  0
   34.8280   18.1900   33.0230 O   0  0  0  0  0  0  0  0  0  0  0  0
   35.3770   17.4050   33.3380 H   0  0  0  0  0  0  0  0  0  0  0  0
  1  6  1  6  0  0  0
  1  2  1  0  0  0  0
  1  5  1  0  0  0  0
  1 11  1  0  0  0  0
  2  7  1  6  0  0  0
  2 13  1  0  0  0  0
  3  2  1  0  0  0  0
  4  3  1  0  0  0  0
  4  8  1  0  0  0  0
  4  5  1  0  0  0  0
  5 10  1  1  0  0  0
  9  4  1  0  0  0  0
 12 11  1  0  0  0  0
 13 18  1  0  0  0  0
 14 15  1  0  0  0  0
 15 21  1  0  0  0  0
 15 16  2  0  0  0  0
 16 22  1  0  0  0  0
 17 16  1  0  0  0  0
 18 17  2  0  0  0  0
 19 14  2  0  0  0  0
 19 18  1  0  0  0  0
 20 14  1  0  0  0  0
 23  5  1  0  0  0  0
 24 29  1  6  0  0  0
 24 25  1  0  0  0  0
 24 28  1  0  0  0  0
 25 23  1  6  0  0  0
 25 26  1  0  0  0  0
 26 27  1  0  0  0  0
 28 31  1  1  0  0  0
 28 27  1  0  0  0  0
 29 30  1  0  0  0  0
 31 32  1  0  0  0  0
M  END
>  <minimizedAffinity>
-4.75811577

$$$$
