
 OpenBabel03272506413D

 32 34  0  0  1  0  0  0  0  0999 V2000
   32.4150   28.3780   47.4830 C   0  0  2  0  0  0  0  0  0  0  0  0
   33.6420   28.4460   48.3660 C   0  0  1  0  0  0  0  0  0  0  0  0
   34.2040   27.1980   48.4060 O   0  0  0  0  0  0  0  0  0  0  0  0
   33.5790   26.3960   47.4780 C   0  0  0  0  0  0  0  0  0  0  0  0
   32.8840   27.3280   46.5020 C   0  0  1  0  0  0  0  0  0  0  0  0
   31.5440   27.9650   48.0190 H   0  0  0  0  0  0  0  0  0  0  0  0
   33.4030   28.7720   49.3870 H   0  0  0  0  0  0  0  0  0  0  0  0
   34.3700   25.7830   46.9980 H   0  0  0  0  0  0  0  0  0  0  0  0
   32.8200   25.7760   47.9930 H   0  0  0  0  0  0  0  0  0  0  0  0
   33.5630   27.7340   45.7410 H   0  0  0  0  0  0  0  0  0  0  0  0
   32.1530   29.6020   46.8870 O   0  0  0  0  0  0  0  0  0  0  0  0
   31.3780   29.9920   47.3780 H   0  0  0  0  0  0  0  0  0  0  0  0
   34.8200   29.5680   47.5310 S   0  0  0  0  0  0  0  0  0  0  0  0
   37.3960   29.4860   50.5420 C   0  0  0  0  0  0  0  0  0  0  0  0
   38.0150   30.7440   50.5200 C   0  0  0  0  0  0  0  0  0  0  0  0
   37.6150   31.6440   49.5350 C   0  0  0  0  0  0  0  0  0  0  0  0
   36.6580   31.2820   48.6450 N   0  0  0  0  0  0  0  0  0  0  0  0
   36.0820   30.0490   48.7020 C   0  0  0  0  0  0  0  0  0  0  0  0
   36.4450   29.1600   49.6400 N   0  0  0  0  0  0  0  0  0  0  0  0
   37.7160   28.8040   51.3090 H   0  0  0  0  0  0  0  0  0  0  0  0
   38.7790   31.0540   51.2190 H   0  0  0  0  0  0  0  0  0  0  0  0
   38.0090   32.6320   49.4110 H   0  0  0  0  0  0  0  0  0  0  0  0
   31.8300   26.6960   45.8580 O   0  0  0  0  0  0  0  0  0  0  0  0
   32.2770   25.2190   44.0100 C   0  0  2  0  0  3  0  0  0  0  0  0
   31.9960   26.6450   44.4830 C   0  0  2  0  0  3  0  0  0  0  0  0
   33.0570   27.4130   44.0840 O   0  0  0  0  0  0  0  0  0  0  0  0
   33.8250   26.7140   43.1700 C   0  0  0  0  0  2  0  0  0  0  0  0
   32.9550   25.5570   42.6810 C   0  0  1  0  0  3  0  0  0  0  0  0
   31.0890   24.5280   43.7820 O   0  0  0  0  0  0  0  0  0  0  0  0
   30.5350   25.1570   43.2260 H   0  0  0  0  0  0  0  0  0  0  0  0
   33.6710   24.5120   42.1650 O   0  0  0  0  0  0  0  0  0  0  0  0
   33.4580   24.4910   41.1780 H   0  0  0  0  0  0  0  0  0  0  0  0
  1  6  1  1  0  0  0
  1  2  1  0  0  0  0
  2  3  1  0  0  0  0
  2  7  1  1  0  0  0
  4  9  1  0  0  0  0
  4  3  1  0  0  0  0
  5 10  1  6  0  0  0
  5  4  1  0  0  0  0
  5  1  1  0  0  0  0
  8  4  1  0  0  0  0
 11 12  1  0  0  0  0
 11  1  1  0  0  0  0
 13  2  1  0  0  0  0
 13 18  1  0  0  0  0
 14 20  1  0  0  0  0
 15 14  1  0  0  0  0
 15 21  1  0  0  0  0
 16 15  2  0  0  0  0
 17 18  2  0  0  0  0
 17 16  1  0  0  0  0
 18 19  1  0  0  0  0
 19 14  2  0  0  0  0
 22 16  1  0  0  0  0
 23  5  1  0  0  0  0
 24 29  1  6  0  0  0
 24 25  1  0  0  0  0
 25 23  1  1  0  0  0
 26 25  1  0  0  0  0
 27 26  1  0  0  0  0
 28 31  1  1  0  0  0
 28 27  1  0  0  0  0
 28 24  1  0  0  0  0
 30 29  1  0  0  0  0
 32 31  1  0  0  0  0
M  END
>  <minimizedAffinity>
-3.75745511

>  <minimizedRMSD>
0.237066299

$$$$
