
 OpenBabel03272506423D

 32 34  0  0  1  0  0  0  0  0999 V2000
   32.3670   28.3310   47.5920 C   0  0  2  0  0  0  0  0  0  0  0  0
   33.6430   28.3490   48.4040 C   0  0  1  0  0  0  0  0  0  0  0  0
   34.1920   27.0960   48.3570 O   0  0  0  0  0  0  0  0  0  0  0  0
   33.5050   26.3400   47.4340 C   0  0  0  0  0  0  0  0  0  0  0  0
   32.7650   27.3200   46.5420 C   0  0  1  0  0  0  0  0  0  0  0  0
   31.5230   27.9030   48.1600 H   0  0  0  0  0  0  0  0  0  0  0  0
   33.4680   28.6330   49.4500 H   0  0  0  0  0  0  0  0  0  0  0  0
   34.2590   25.7410   46.8830 H   0  0  0  0  0  0  0  0  0  0  0  0
   32.7700   25.7060   47.9660 H   0  0  0  0  0  0  0  0  0  0  0  0
   33.4040   27.7530   45.7600 H   0  0  0  0  0  0  0  0  0  0  0  0
   32.0850   29.5830   47.0650 O   0  0  0  0  0  0  0  0  0  0  0  0
   31.3440   29.9570   47.6170 H   0  0  0  0  0  0  0  0  0  0  0  0
   34.7840   29.4960   47.5500 S   0  0  0  0  0  0  0  0  0  0  0  0
   37.3900   29.4810   50.5370 C   0  0  0  0  0  0  0  0  0  0  0  0
   37.9980   30.7420   50.4900 C   0  0  0  0  0  0  0  0  0  0  0  0
   37.5810   31.6250   49.4960 C   0  0  0  0  0  0  0  0  0  0  0  0
   36.6190   31.2410   48.6210 N   0  0  0  0  0  0  0  0  0  0  0  0
   36.0530   30.0050   48.7020 C   0  0  0  0  0  0  0  0  0  0  0  0
   36.4330   29.1330   49.6500 N   0  0  0  0  0  0  0  0  0  0  0  0
   37.7220   28.8120   51.3120 H   0  0  0  0  0  0  0  0  0  0  0  0
   38.7660   31.0700   51.1770 H   0  0  0  0  0  0  0  0  0  0  0  0
   37.9660   32.6140   49.3530 H   0  0  0  0  0  0  0  0  0  0  0  0
   31.6680   26.7260   45.9340 O   0  0  0  0  0  0  0  0  0  0  0  0
   30.9960   25.9360   43.7610 C   0  0  2  0  0  3  0  0  0  0  0  0
   31.5280   27.0940   44.6050 C   0  0  2  0  0  3  0  0  0  0  0  0
   32.7320   27.4610   44.0630 O   0  0  0  0  0  0  0  0  0  0  0  0
   32.8840   26.8780   42.8180 C   0  0  0  0  0  2  0  0  0  0  0  0
   31.4910   26.4140   42.3950 C   0  0  1  0  0  3  0  0  0  0  0  0
   29.6030   25.9040   43.7850 O   0  0  0  0  0  0  0  0  0  0  0  0
   29.3280   26.8520   43.5930 H   0  0  0  0  0  0  0  0  0  0  0  0
   31.5050   25.4190   41.4550 O   0  0  0  0  0  0  0  0  0  0  0  0
   31.1280   25.8280   40.6120 H   0  0  0  0  0  0  0  0  0  0  0  0
  1  6  1  1  0  0  0
  1  2  1  0  0  0  0
  2  7  1  1  0  0  0
  3  2  1  0  0  0  0
  4  9  1  0  0  0  0
  4  3  1  0  0  0  0
  5 10  1  6  0  0  0
  5  4  1  0  0  0  0
  5  1  1  0  0  0  0
  8  4  1  0  0  0  0
 11  1  1  0  0  0  0
 11 12  1  0  0  0  0
 13  2  1  0  0  0  0
 13 18  1  0  0  0  0
 14 20  1  0  0  0  0
 15 14  1  0  0  0  0
 15 21  1  0  0  0  0
 16 15  2  0  0  0  0
 17 18  2  0  0  0  0
 17 16  1  0  0  0  0
 18 19  1  0  0  0  0
 19 14  2  0  0  0  0
 22 16  1  0  0  0  0
 23  5  1  0  0  0  0
 24 29  1  6  0  0  0
 24 25  1  0  0  0  0
 25 23  1  1  0  0  0
 26 25  1  0  0  0  0
 27 26  1  0  0  0  0
 28 31  1  6  0  0  0
 28 27  1  0  0  0  0
 28 24  1  0  0  0  0
 30 29  1  0  0  0  0
 32 31  1  0  0  0  0
M  END
>  <minimizedAffinity>
-3.71039176

>  <minimizedRMSD>
0.438666463

$$$$
