
 OpenBabel03272507323D

 36 39  0  0  1  0  0  0  0  0999 V2000
   35.9070   29.2050   49.8360 C   0  0  0  0  0  0  0  0  0  0  0  0
   34.9380   29.6780   50.6940 C   0  0  0  0  0  0  0  0  0  0  0  0
   33.7040   29.1800   50.2500 C   0  0  0  0  0  0  0  0  0  0  0  0
   34.0060   28.4250   49.1380 C   0  0  0  0  0  0  0  0  0  0  0  0
   35.3040   28.4690   48.9330 O   0  0  0  0  0  0  0  0  0  0  0  0
   34.9590   30.3150   51.5790 H   0  0  0  0  0  0  0  0  0  0  0  0
   32.6970   29.3190   50.6490 H   0  0  0  0  0  0  0  0  0  0  0  0
   37.3130   29.5300   50.0030 C   0  0  0  0  0  0  0  0  0  0  0  0
   37.9870   28.9010   50.8310 O   0  0  0  0  0  0  0  0  0  0  0  0
   37.8420   30.5800   49.1780 C   0  0  0  0  0  0  0  0  0  0  0  0
   38.1810   31.7650   49.8090 C   0  0  0  0  0  0  0  0  0  0  0  0
   38.6980   32.8100   49.0370 C   0  0  0  0  0  0  0  0  0  0  0  0
   38.8420   32.6020   47.6880 N   0  0  0  0  0  0  0  0  0  0  0  0
   38.5060   31.4470   47.1130 C   0  0  0  0  0  0  0  0  0  0  0  0
   38.0080   30.4370   47.8450 N   0  0  0  0  0  0  0  0  0  0  0  0
   38.0880   31.9800   50.8630 H   0  0  0  0  0  0  0  0  0  0  0  0
   38.9710   33.7410   49.4900 H   0  0  0  0  0  0  0  0  0  0  0  0
   38.6580   31.3810   46.0380 H   0  0  0  0  0  0  0  0  0  0  0  0
   33.0440   27.6900   48.3170 C   0  0  0  0  0  0  0  0  0  0  0  0
   31.8320   27.6370   48.7100 O   0  0  0  0  0  0  0  0  0  0  0  0
   33.4810   27.0140   47.0520 C   0  0  1  0  0  0  0  0  0  0  0  0
   33.7690   25.4850   47.3350 C   0  0  0  0  0  0  0  0  0  0  0  0
   32.6750   25.9510   46.4490 C   0  0  2  0  0  0  0  0  0  0  0  0
   34.4250   27.4510   46.6270 H   0  0  0  0  0  0  0  0  0  0  0  0
   33.4580   25.0910   48.2990 H   0  0  0  0  0  0  0  0  0  0  0  0
   34.6540   25.0530   46.8750 H   0  0  0  0  0  0  0  0  0  0  0  0
   31.6300   25.8730   46.8100 H   0  0  0  0  0  0  0  0  0  0  0  0
   31.4300   26.1630   44.3100 C   0  0  2  0  0  3  0  0  0  0  0  0
   32.7730   25.7930   44.9540 C   0  0  2  0  0  3  0  0  0  0  0  0
   32.8870   24.4810   44.5470 O   0  0  0  0  0  0  0  0  0  0  0  0
   32.5910   24.4710   43.2040 C   0  0  0  0  0  2  0  0  0  0  0  0
   31.7570   25.6940   42.8860 C   0  0  1  0  0  3  0  0  0  0  0  0
   31.1530   27.5030   44.3740 O   0  0  0  0  0  0  0  0  0  0  0  0
   30.6490   27.6540   45.2240 H   0  0  0  0  0  0  0  0  0  0  0  0
   30.6390   25.4350   42.1350 O   0  0  0  0  0  0  0  0  0  0  0  0
   30.4540   26.1630   41.4600 H   0  0  0  0  0  0  0  0  0  0  0  0
  1  8  1  0  0  0  0
  1  2  2  0  0  0  0
  2  6  1  0  0  0  0
  3  7  1  0  0  0  0
  3  2  1  0  0  0  0
  4  3  2  0  0  0  0
  5  4  1  0  0  0  0
  5  1  1  0  0  0  0
  8  9  2  0  0  0  0
 10 11  1  0  0  0  0
 10  8  1  0  0  0  0
 11 16  1  0  0  0  0
 12 17  1  0  0  0  0
 12 11  2  0  0  0  0
 13 12  1  0  0  0  0
 14 13  2  0  0  0  0
 14 15  1  0  0  0  0
 15 10  2  0  0  0  0
 18 14  1  0  0  0  0
 19 20  2  0  0  0  0
 19  4  1  0  0  0  0
 21 24  1  6  0  0  0
 21 22  1  0  0  0  0
 21 19  1  0  0  0  0
 22 25  1  0  0  0  0
 23 27  1  1  0  0  0
 23 21  1  0  0  0  0
 23 22  1  0  0  0  0
 26 22  1  0  0  0  0
 28 33  1  6  0  0  0
 28 29  1  0  0  0  0
 29 30  1  1  0  0  0
 29 23  1  0  0  0  0
 31 30  1  0  0  0  0
 32 35  1  6  0  0  0
 32 31  1  0  0  0  0
 32 28  1  0  0  0  0
 33 34  1  0  0  0  0
 36 35  1  0  0  0  0
M  END
>  <minimizedAffinity>
-4.88478231

>  <minimizedRMSD>
0.243179128

$$$$
