
 OpenBabel03272507333D

 36 39  0  0  1  0  0  0  0  0999 V2000
   35.9060   29.2040   49.8360 C   0  0  0  0  0  0  0  0  0  0  0  0
   34.9380   29.6770   50.6950 C   0  0  0  0  0  0  0  0  0  0  0  0
   33.7040   29.1780   50.2500 C   0  0  0  0  0  0  0  0  0  0  0  0
   34.0060   28.4250   49.1380 C   0  0  0  0  0  0  0  0  0  0  0  0
   35.3050   28.4690   48.9320 O   0  0  0  0  0  0  0  0  0  0  0  0
   34.9580   30.3130   51.5800 H   0  0  0  0  0  0  0  0  0  0  0  0
   32.6970   29.3170   50.6490 H   0  0  0  0  0  0  0  0  0  0  0  0
   37.3130   29.5300   50.0030 C   0  0  0  0  0  0  0  0  0  0  0  0
   37.9870   28.9010   50.8320 O   0  0  0  0  0  0  0  0  0  0  0  0
   37.8420   30.5800   49.1780 C   0  0  0  0  0  0  0  0  0  0  0  0
   38.1820   31.7650   49.8090 C   0  0  0  0  0  0  0  0  0  0  0  0
   38.6990   32.8100   49.0370 C   0  0  0  0  0  0  0  0  0  0  0  0
   38.8420   32.6020   47.6870 N   0  0  0  0  0  0  0  0  0  0  0  0
   38.5050   31.4460   47.1120 C   0  0  0  0  0  0  0  0  0  0  0  0
   38.0070   30.4370   47.8450 N   0  0  0  0  0  0  0  0  0  0  0  0
   38.0900   31.9800   50.8630 H   0  0  0  0  0  0  0  0  0  0  0  0
   38.9720   33.7400   49.4890 H   0  0  0  0  0  0  0  0  0  0  0  0
   38.6560   31.3810   46.0370 H   0  0  0  0  0  0  0  0  0  0  0  0
   33.0450   27.6900   48.3160 C   0  0  0  0  0  0  0  0  0  0  0  0
   31.8320   27.6360   48.7080 O   0  0  0  0  0  0  0  0  0  0  0  0
   33.4820   27.0130   47.0510 C   0  0  1  0  0  0  0  0  0  0  0  0
   33.7700   25.4840   47.3350 C   0  0  0  0  0  0  0  0  0  0  0  0
   32.6760   25.9500   46.4480 C   0  0  2  0  0  0  0  0  0  0  0  0
   34.4270   27.4500   46.6270 H   0  0  0  0  0  0  0  0  0  0  0  0
   33.4580   25.0900   48.2980 H   0  0  0  0  0  0  0  0  0  0  0  0
   34.6540   25.0520   46.8750 H   0  0  0  0  0  0  0  0  0  0  0  0
   31.6310   25.8730   46.8090 H   0  0  0  0  0  0  0  0  0  0  0  0
   31.4320   26.1620   44.3080 C   0  0  2  0  0  3  0  0  0  0  0  0
   32.7750   25.7920   44.9530 C   0  0  2  0  0  3  0  0  0  0  0  0
   32.8890   24.4810   44.5460 O   0  0  0  0  0  0  0  0  0  0  0  0
   32.5940   24.4710   43.2030 C   0  0  0  0  0  2  0  0  0  0  0  0
   31.7590   25.6940   42.8840 C   0  0  1  0  0  3  0  0  0  0  0  0
   31.1540   27.5030   44.3730 O   0  0  0  0  0  0  0  0  0  0  0  0
   30.6510   27.6530   45.2230 H   0  0  0  0  0  0  0  0  0  0  0  0
   30.6410   25.4350   42.1330 O   0  0  0  0  0  0  0  0  0  0  0  0
   30.4570   26.1630   41.4580 H   0  0  0  0  0  0  0  0  0  0  0  0
  1  8  1  0  0  0  0
  1  2  2  0  0  0  0
  2  6  1  0  0  0  0
  3  7  1  0  0  0  0
  3  2  1  0  0  0  0
  4  3  2  0  0  0  0
  5  4  1  0  0  0  0
  5  1  1  0  0  0  0
  8  9  2  0  0  0  0
 10 11  1  0  0  0  0
 10  8  1  0  0  0  0
 11 16  1  0  0  0  0
 12 17  1  0  0  0  0
 12 11  2  0  0  0  0
 13 12  1  0  0  0  0
 14 13  2  0  0  0  0
 14 15  1  0  0  0  0
 15 10  2  0  0  0  0
 18 14  1  0  0  0  0
 19 20  2  0  0  0  0
 19  4  1  0  0  0  0
 21 24  1  6  0  0  0
 21 22  1  0  0  0  0
 21 19  1  0  0  0  0
 22 25  1  0  0  0  0
 23 27  1  1  0  0  0
 23 21  1  0  0  0  0
 23 22  1  0  0  0  0
 26 22  1  0  0  0  0
 28 33  1  6  0  0  0
 28 29  1  0  0  0  0
 29 30  1  1  0  0  0
 29 23  1  0  0  0  0
 31 30  1  0  0  0  0
 32 35  1  6  0  0  0
 32 31  1  0  0  0  0
 32 28  1  0  0  0  0
 33 34  1  0  0  0  0
 36 35  1  0  0  0  0
M  END
>  <minimizedAffinity>
-4.88226986

>  <minimizedRMSD>
0.784278035

$$$$
