
 OpenBabel03272507333D

 36 39  0  0  1  0  0  0  0  0999 V2000
   35.8180   29.1450   49.8090 C   0  0  0  0  0  0  0  0  0  0  0  0
   34.8130   29.6650   50.5950 C   0  0  0  0  0  0  0  0  0  0  0  0
   33.5990   29.1410   50.1250 C   0  0  0  0  0  0  0  0  0  0  0  0
   33.9490   28.3250   49.0720 C   0  0  0  0  0  0  0  0  0  0  0  0
   35.2550   28.3590   48.9230 O   0  0  0  0  0  0  0  0  0  0  0  0
   34.7950   30.3510   51.4420 H   0  0  0  0  0  0  0  0  0  0  0  0
   32.5750   29.3010   50.4710 H   0  0  0  0  0  0  0  0  0  0  0  0
   37.2160   29.4800   50.0190 C   0  0  0  0  0  0  0  0  0  0  0  0
   37.8660   28.8620   50.8750 O   0  0  0  0  0  0  0  0  0  0  0  0
   37.7660   30.5270   49.2040 C   0  0  0  0  0  0  0  0  0  0  0  0
   38.1130   31.7060   49.8420 C   0  0  0  0  0  0  0  0  0  0  0  0
   38.6490   32.7470   49.0790 C   0  0  0  0  0  0  0  0  0  0  0  0
   38.8050   32.5420   47.7300 N   0  0  0  0  0  0  0  0  0  0  0  0
   38.4600   31.3920   47.1480 C   0  0  0  0  0  0  0  0  0  0  0  0
   37.9430   30.3870   47.8720 N   0  0  0  0  0  0  0  0  0  0  0  0
   38.0110   31.9180   50.8960 H   0  0  0  0  0  0  0  0  0  0  0  0
   38.9280   33.6730   49.5370 H   0  0  0  0  0  0  0  0  0  0  0  0
   38.6220   31.3290   46.0740 H   0  0  0  0  0  0  0  0  0  0  0  0
   33.0230   27.5450   48.2520 C   0  0  0  0  0  0  0  0  0  0  0  0
   31.8050   27.4660   48.6240 O   0  0  0  0  0  0  0  0  0  0  0  0
   33.5020   26.8510   47.0120 C   0  0  1  0  0  0  0  0  0  0  0  0
   33.8020   25.3320   47.3310 C   0  0  0  0  0  0  0  0  0  0  0  0
   32.7260   25.7660   46.4080 C   0  0  2  0  0  0  0  0  0  0  0  0
   34.4520   27.2930   46.6040 H   0  0  0  0  0  0  0  0  0  0  0  0
   33.4700   24.9500   48.2930 H   0  0  0  0  0  0  0  0  0  0  0  0
   34.7040   24.9020   46.9030 H   0  0  0  0  0  0  0  0  0  0  0  0
   31.6730   25.6810   46.7430 H   0  0  0  0  0  0  0  0  0  0  0  0
   31.4830   25.6720   44.2590 C   0  0  2  0  0  3  0  0  0  0  0  0
   32.8660   25.5820   44.9190 C   0  0  2  0  0  3  0  0  0  0  0  0
   33.2280   24.3030   44.5560 O   0  0  0  0  0  0  0  0  0  0  0  0
   32.9520   24.1950   43.2130 C   0  0  0  0  0  2  0  0  0  0  0  0
   31.9050   25.2280   42.8530 C   0  0  1  0  0  3  0  0  0  0  0  0
   30.9590   26.9380   44.2770 O   0  0  0  0  0  0  0  0  0  0  0  0
   30.4290   27.0180   45.1200 H   0  0  0  0  0  0  0  0  0  0  0  0
   30.8620   24.7400   42.1060 O   0  0  0  0  0  0  0  0  0  0  0  0
   30.5510   25.3990   41.4070 H   0  0  0  0  0  0  0  0  0  0  0  0
  1  8  1  0  0  0  0
  1  2  2  0  0  0  0
  2  6  1  0  0  0  0
  3  7  1  0  0  0  0
  3  2  1  0  0  0  0
  4  3  2  0  0  0  0
  5  4  1  0  0  0  0
  5  1  1  0  0  0  0
  8  9  2  0  0  0  0
 10 11  1  0  0  0  0
 10  8  1  0  0  0  0
 11 16  1  0  0  0  0
 12 17  1  0  0  0  0
 12 11  2  0  0  0  0
 13 12  1  0  0  0  0
 14 13  2  0  0  0  0
 14 15  1  0  0  0  0
 15 10  2  0  0  0  0
 18 14  1  0  0  0  0
 19 20  2  0  0  0  0
 19  4  1  0  0  0  0
 21 24  1  6  0  0  0
 21 22  1  0  0  0  0
 21 19  1  0  0  0  0
 22 25  1  0  0  0  0
 23 27  1  1  0  0  0
 23 21  1  0  0  0  0
 23 22  1  0  0  0  0
 26 22  1  0  0  0  0
 28 33  1  6  0  0  0
 28 29  1  0  0  0  0
 29 30  1  1  0  0  0
 29 23  1  0  0  0  0
 31 30  1  0  0  0  0
 32 35  1  1  0  0  0
 32 31  1  0  0  0  0
 32 28  1  0  0  0  0
 33 34  1  0  0  0  0
 36 35  1  0  0  0  0
M  END
>  <minimizedAffinity>
-4.87525845

>  <minimizedRMSD>
0.129083425

$$$$
