
 OpenBabel03272507333D

 36 39  0  0  1  0  0  0  0  0999 V2000
   35.9070   29.2100   49.8380 C   0  0  0  0  0  0  0  0  0  0  0  0
   34.9410   29.6800   50.7020 C   0  0  0  0  0  0  0  0  0  0  0  0
   33.7050   29.1850   50.2580 C   0  0  0  0  0  0  0  0  0  0  0  0
   34.0040   28.4370   49.1410 C   0  0  0  0  0  0  0  0  0  0  0  0
   35.3010   28.4800   48.9330 O   0  0  0  0  0  0  0  0  0  0  0  0
   34.9650   30.3120   51.5900 H   0  0  0  0  0  0  0  0  0  0  0  0
   32.6990   29.3240   50.6600 H   0  0  0  0  0  0  0  0  0  0  0  0
   37.3140   29.5320   50.0030 C   0  0  0  0  0  0  0  0  0  0  0  0
   37.9880   28.9010   50.8310 O   0  0  0  0  0  0  0  0  0  0  0  0
   37.8440   30.5820   49.1790 C   0  0  0  0  0  0  0  0  0  0  0  0
   38.1830   31.7670   49.8090 C   0  0  0  0  0  0  0  0  0  0  0  0
   38.7010   32.8120   49.0370 C   0  0  0  0  0  0  0  0  0  0  0  0
   38.8460   32.6030   47.6870 N   0  0  0  0  0  0  0  0  0  0  0  0
   38.5100   31.4470   47.1130 C   0  0  0  0  0  0  0  0  0  0  0  0
   38.0110   30.4380   47.8460 N   0  0  0  0  0  0  0  0  0  0  0  0
   38.0890   31.9830   50.8630 H   0  0  0  0  0  0  0  0  0  0  0  0
   38.9730   33.7430   49.4890 H   0  0  0  0  0  0  0  0  0  0  0  0
   38.6630   31.3810   46.0380 H   0  0  0  0  0  0  0  0  0  0  0  0
   33.0390   27.7080   48.3180 C   0  0  0  0  0  0  0  0  0  0  0  0
   31.8250   27.6610   48.7090 O   0  0  0  0  0  0  0  0  0  0  0  0
   33.4740   27.0290   47.0540 C   0  0  1  0  0  0  0  0  0  0  0  0
   33.7640   25.5010   47.3400 C   0  0  0  0  0  0  0  0  0  0  0  0
   32.6670   25.9630   46.4550 C   0  0  2  0  0  0  0  0  0  0  0  0
   34.4160   27.4660   46.6260 H   0  0  0  0  0  0  0  0  0  0  0  0
   33.4550   25.1080   48.3050 H   0  0  0  0  0  0  0  0  0  0  0  0
   34.6480   25.0680   46.8800 H   0  0  0  0  0  0  0  0  0  0  0  0
   31.6230   25.8850   46.8190 H   0  0  0  0  0  0  0  0  0  0  0  0
   31.4170   26.1680   44.3190 C   0  0  2  0  0  3  0  0  0  0  0  0
   32.7620   25.8020   44.9610 C   0  0  2  0  0  3  0  0  0  0  0  0
   32.8770   24.4890   44.5570 O   0  0  0  0  0  0  0  0  0  0  0  0
   32.5770   24.4760   43.2140 C   0  0  0  0  0  2  0  0  0  0  0  0
   31.7410   25.6970   42.8950 C   0  0  1  0  0  3  0  0  0  0  0  0
   31.1370   27.5080   44.3800 O   0  0  0  0  0  0  0  0  0  0  0  0
   30.6350   27.6600   45.2320 H   0  0  0  0  0  0  0  0  0  0  0  0
   30.6200   25.4350   42.1480 O   0  0  0  0  0  0  0  0  0  0  0  0
   30.4340   26.1610   41.4720 H   0  0  0  0  0  0  0  0  0  0  0  0
  1  8  1  0  0  0  0
  1  2  2  0  0  0  0
  2  6  1  0  0  0  0
  3  7  1  0  0  0  0
  3  2  1  0  0  0  0
  4  3  2  0  0  0  0
  5  4  1  0  0  0  0
  5  1  1  0  0  0  0
  8  9  2  0  0  0  0
 10 11  1  0  0  0  0
 10  8  1  0  0  0  0
 11 16  1  0  0  0  0
 12 17  1  0  0  0  0
 12 11  2  0  0  0  0
 13 12  1  0  0  0  0
 14 13  2  0  0  0  0
 14 15  1  0  0  0  0
 15 10  2  0  0  0  0
 18 14  1  0  0  0  0
 19 20  2  0  0  0  0
 19  4  1  0  0  0  0
 21 24  1  6  0  0  0
 21 22  1  0  0  0  0
 21 19  1  0  0  0  0
 22 25  1  0  0  0  0
 23 27  1  1  0  0  0
 23 21  1  0  0  0  0
 23 22  1  0  0  0  0
 26 22  1  0  0  0  0
 28 33  1  6  0  0  0
 28 29  1  0  0  0  0
 29 30  1  1  0  0  0
 29 23  1  0  0  0  0
 31 30  1  0  0  0  0
 32 35  1  6  0  0  0
 32 31  1  0  0  0  0
 32 28  1  0  0  0  0
 33 34  1  0  0  0  0
 36 35  1  0  0  0  0
M  END
>  <minimizedAffinity>
-4.88237047

>  <minimizedRMSD>
0.983907819

$$$$
