
 OpenBabel03272507323D

 36 39  0  0  1  0  0  0  0  0999 V2000
   35.9000   29.1900   49.8240 C   0  0  0  0  0  0  0  0  0  0  0  0
   34.9250   29.6600   50.6760 C   0  0  0  0  0  0  0  0  0  0  0  0
   33.6960   29.1560   50.2260 C   0  0  0  0  0  0  0  0  0  0  0  0
   34.0080   28.4000   49.1170 C   0  0  0  0  0  0  0  0  0  0  0  0
   35.3070   28.4500   48.9190 O   0  0  0  0  0  0  0  0  0  0  0  0
   34.9380   30.3000   51.5590 H   0  0  0  0  0  0  0  0  0  0  0  0
   32.6860   29.2910   50.6180 H   0  0  0  0  0  0  0  0  0  0  0  0
   37.3050   29.5210   49.9980 C   0  0  0  0  0  0  0  0  0  0  0  0
   37.9770   28.8960   50.8300 O   0  0  0  0  0  0  0  0  0  0  0  0
   37.8330   30.5740   49.1760 C   0  0  0  0  0  0  0  0  0  0  0  0
   38.1690   31.7580   49.8100 C   0  0  0  0  0  0  0  0  0  0  0  0
   38.6850   32.8060   49.0400 C   0  0  0  0  0  0  0  0  0  0  0  0
   38.8320   32.6000   47.6900 N   0  0  0  0  0  0  0  0  0  0  0  0
   38.4980   31.4450   47.1130 C   0  0  0  0  0  0  0  0  0  0  0  0
   38.0010   30.4340   47.8430 N   0  0  0  0  0  0  0  0  0  0  0  0
   38.0740   31.9720   50.8640 H   0  0  0  0  0  0  0  0  0  0  0  0
   38.9560   33.7360   49.4940 H   0  0  0  0  0  0  0  0  0  0  0  0
   38.6520   31.3820   46.0380 H   0  0  0  0  0  0  0  0  0  0  0  0
   33.0540   27.6600   48.2910 C   0  0  0  0  0  0  0  0  0  0  0  0
   31.8350   27.6200   48.6660 O   0  0  0  0  0  0  0  0  0  0  0  0
   33.5060   26.9610   47.0440 C   0  0  1  0  0  0  0  0  0  0  0  0
   33.7580   25.4300   47.3500 C   0  0  0  0  0  0  0  0  0  0  0  0
   32.6930   25.9070   46.4340 C   0  0  2  0  0  0  0  0  0  0  0  0
   34.4670   27.3750   46.6370 H   0  0  0  0  0  0  0  0  0  0  0  0
   33.4170   25.0520   48.3110 H   0  0  0  0  0  0  0  0  0  0  0  0
   34.6430   24.9760   46.9150 H   0  0  0  0  0  0  0  0  0  0  0  0
   31.6380   25.8530   46.7720 H   0  0  0  0  0  0  0  0  0  0  0  0
   32.1270   24.4290   44.5200 C   0  0  2  0  0  3  0  0  0  0  0  0
   32.8220   25.7310   44.9440 C   0  0  2  0  0  3  0  0  0  0  0  0
   34.1110   25.4650   44.5330 O   0  0  0  0  0  0  0  0  0  0  0  0
   34.0080   24.9690   43.2530 C   0  0  0  0  0  2  0  0  0  0  0  0
   32.6140   24.4100   43.0640 C   0  0  1  0  0  3  0  0  0  0  0  0
   30.7620   24.4890   44.6180 O   0  0  0  0  0  0  0  0  0  0  0  0
   30.5250   24.1750   45.5360 H   0  0  0  0  0  0  0  0  0  0  0  0
   32.5800   23.1580   42.5040 O   0  0  0  0  0  0  0  0  0  0  0  0
   31.8090   23.0480   41.8620 H   0  0  0  0  0  0  0  0  0  0  0  0
  1  8  1  0  0  0  0
  1  2  2  0  0  0  0
  2  6  1  0  0  0  0
  3  7  1  0  0  0  0
  3  2  1  0  0  0  0
  4  3  2  0  0  0  0
  5  4  1  0  0  0  0
  5  1  1  0  0  0  0
  8  9  2  0  0  0  0
 10 11  1  0  0  0  0
 10  8  1  0  0  0  0
 11 16  1  0  0  0  0
 12 17  1  0  0  0  0
 12 11  2  0  0  0  0
 13 12  1  0  0  0  0
 14 13  2  0  0  0  0
 14 15  1  0  0  0  0
 15 10  2  0  0  0  0
 18 14  1  0  0  0  0
 19 20  2  0  0  0  0
 19  4  1  0  0  0  0
 21 24  1  6  0  0  0
 21 22  1  0  0  0  0
 21 19  1  0  0  0  0
 22 25  1  0  0  0  0
 23 27  1  1  0  0  0
 23 21  1  0  0  0  0
 23 22  1  0  0  0  0
 26 22  1  0  0  0  0
 28 33  1  6  0  0  0
 28 29  1  0  0  0  0
 29 30  1  1  0  0  0
 29 23  1  0  0  0  0
 31 30  1  0  0  0  0
 32 35  1  1  0  0  0
 32 31  1  0  0  0  0
 32 28  1  0  0  0  0
 33 34  1  0  0  0  0
 36 35  1  0  0  0  0
M  END
>  <minimizedAffinity>
-4.89054585

>  <minimizedRMSD>
0.191349968

$$$$
