
 OpenBabel03272507333D

 36 39  0  0  1  0  0  0  0  0999 V2000
   35.8330   29.1530   49.8110 C   0  0  0  0  0  0  0  0  0  0  0  0
   34.8320   29.6660   50.6070 C   0  0  0  0  0  0  0  0  0  0  0  0
   33.6170   29.1430   50.1410 C   0  0  0  0  0  0  0  0  0  0  0  0
   33.9620   28.3360   49.0800 C   0  0  0  0  0  0  0  0  0  0  0  0
   35.2670   28.3730   48.9220 O   0  0  0  0  0  0  0  0  0  0  0  0
   34.8180   30.3460   51.4590 H   0  0  0  0  0  0  0  0  0  0  0  0
   32.5950   29.2990   50.4930 H   0  0  0  0  0  0  0  0  0  0  0  0
   37.2330   29.4890   50.0150 C   0  0  0  0  0  0  0  0  0  0  0  0
   37.8860   28.8720   50.8680 O   0  0  0  0  0  0  0  0  0  0  0  0
   37.7780   30.5360   49.1970 C   0  0  0  0  0  0  0  0  0  0  0  0
   38.1250   31.7160   49.8340 C   0  0  0  0  0  0  0  0  0  0  0  0
   38.6580   32.7580   49.0690 C   0  0  0  0  0  0  0  0  0  0  0  0
   38.8090   32.5520   47.7200 N   0  0  0  0  0  0  0  0  0  0  0  0
   38.4640   31.4020   47.1390 C   0  0  0  0  0  0  0  0  0  0  0  0
   37.9510   30.3960   47.8650 N   0  0  0  0  0  0  0  0  0  0  0  0
   38.0270   31.9290   50.8880 H   0  0  0  0  0  0  0  0  0  0  0  0
   38.9380   33.6840   49.5260 H   0  0  0  0  0  0  0  0  0  0  0  0
   38.6230   31.3380   46.0650 H   0  0  0  0  0  0  0  0  0  0  0  0
   33.0320   27.5590   48.2590 C   0  0  0  0  0  0  0  0  0  0  0  0
   31.8150   27.4830   48.6330 O   0  0  0  0  0  0  0  0  0  0  0  0
   33.5070   26.8670   47.0170 C   0  0  1  0  0  0  0  0  0  0  0  0
   33.8020   25.3450   47.3320 C   0  0  0  0  0  0  0  0  0  0  0  0
   32.7270   25.7860   46.4120 C   0  0  2  0  0  0  0  0  0  0  0  0
   34.4580   27.3060   46.6090 H   0  0  0  0  0  0  0  0  0  0  0  0
   33.4700   24.9630   48.2950 H   0  0  0  0  0  0  0  0  0  0  0  0
   34.7020   24.9140   46.9020 H   0  0  0  0  0  0  0  0  0  0  0  0
   31.6730   25.7040   46.7480 H   0  0  0  0  0  0  0  0  0  0  0  0
   31.4800   25.6990   44.2650 C   0  0  2  0  0  3  0  0  0  0  0  0
   32.8640   25.6040   44.9230 C   0  0  2  0  0  3  0  0  0  0  0  0
   33.2220   24.3240   44.5570 O   0  0  0  0  0  0  0  0  0  0  0  0
   32.9430   24.2200   43.2130 C   0  0  0  0  0  2  0  0  0  0  0  0
   31.9000   25.2580   42.8570 C   0  0  1  0  0  3  0  0  0  0  0  0
   30.9600   26.9670   44.2860 O   0  0  0  0  0  0  0  0  0  0  0  0
   30.4300   27.0480   45.1300 H   0  0  0  0  0  0  0  0  0  0  0  0
   30.8540   24.7740   42.1110 O   0  0  0  0  0  0  0  0  0  0  0  0
   30.5440   25.4350   41.4140 H   0  0  0  0  0  0  0  0  0  0  0  0
  1  8  1  0  0  0  0
  1  2  2  0  0  0  0
  2  6  1  0  0  0  0
  3  7  1  0  0  0  0
  3  2  1  0  0  0  0
  4  3  2  0  0  0  0
  5  4  1  0  0  0  0
  5  1  1  0  0  0  0
  8  9  2  0  0  0  0
 10 11  1  0  0  0  0
 10  8  1  0  0  0  0
 11 16  1  0  0  0  0
 12 17  1  0  0  0  0
 12 11  2  0  0  0  0
 13 12  1  0  0  0  0
 14 13  2  0  0  0  0
 14 15  1  0  0  0  0
 15 10  2  0  0  0  0
 18 14  1  0  0  0  0
 19 20  2  0  0  0  0
 19  4  1  0  0  0  0
 21 24  1  6  0  0  0
 21 22  1  0  0  0  0
 21 19  1  0  0  0  0
 22 25  1  0  0  0  0
 23 27  1  1  0  0  0
 23 21  1  0  0  0  0
 23 22  1  0  0  0  0
 26 22  1  0  0  0  0
 28 33  1  6  0  0  0
 28 29  1  0  0  0  0
 29 30  1  1  0  0  0
 29 23  1  0  0  0  0
 31 30  1  0  0  0  0
 32 35  1  1  0  0  0
 32 31  1  0  0  0  0
 32 28  1  0  0  0  0
 33 34  1  0  0  0  0
 36 35  1  0  0  0  0
M  END
>  <minimizedAffinity>
-4.88148403

>  <minimizedRMSD>
0.176291421

$$$$
