
 OpenBabel03272507323D

 36 39  0  0  1  0  0  0  0  0999 V2000
   35.9100   29.2350   49.8180 C   0  0  0  0  0  0  0  0  0  0  0  0
   34.9090   29.5660   50.7050 C   0  0  0  0  0  0  0  0  0  0  0  0
   33.7120   29.0310   50.2060 C   0  0  0  0  0  0  0  0  0  0  0  0
   34.0670   28.3990   49.0350 C   0  0  0  0  0  0  0  0  0  0  0  0
   35.3610   28.5450   48.8480 O   0  0  0  0  0  0  0  0  0  0  0  0
   34.8840   30.1230   51.6430 H   0  0  0  0  0  0  0  0  0  0  0  0
   32.6960   29.0690   50.6060 H   0  0  0  0  0  0  0  0  0  0  0  0
   37.2920   29.6330   50.0270 C   0  0  0  0  0  0  0  0  0  0  0  0
   37.9390   29.1190   50.9500 O   0  0  0  0  0  0  0  0  0  0  0  0
   37.8290   30.6180   49.1300 C   0  0  0  0  0  0  0  0  0  0  0  0
   38.2290   31.8230   49.6850 C   0  0  0  0  0  0  0  0  0  0  0  0
   38.7550   32.8060   48.8410 C   0  0  0  0  0  0  0  0  0  0  0  0
   38.8480   32.5200   47.5010 N   0  0  0  0  0  0  0  0  0  0  0  0
   38.4540   31.3480   47.0000 C   0  0  0  0  0  0  0  0  0  0  0  0
   37.9460   30.3980   47.8030 N   0  0  0  0  0  0  0  0  0  0  0  0
   38.1770   32.0980   50.7270 H   0  0  0  0  0  0  0  0  0  0  0  0
   39.0740   33.7490   49.2320 H   0  0  0  0  0  0  0  0  0  0  0  0
   38.5690   31.2190   45.9270 H   0  0  0  0  0  0  0  0  0  0  0  0
   33.1590   27.6800   48.1430 C   0  0  0  0  0  0  0  0  0  0  0  0
   31.9100   27.7090   48.4010 O   0  0  0  0  0  0  0  0  0  0  0  0
   33.6900   26.9240   46.9620 C   0  0  1  0  0  0  0  0  0  0  0  0
   33.5760   25.3690   47.2260 C   0  0  0  0  0  0  0  0  0  0  0  0
   32.8140   26.0650   46.1610 C   0  0  2  0  0  0  0  0  0  0  0  0
   34.7730   27.1420   46.7560 H   0  0  0  0  0  0  0  0  0  0  0  0
   32.9940   25.0530   48.0890 H   0  0  0  0  0  0  0  0  0  0  0  0
   34.4200   24.7520   46.9340 H   0  0  0  0  0  0  0  0  0  0  0  0
   31.7260   26.2210   46.3010 H   0  0  0  0  0  0  0  0  0  0  0  0
   33.7060   24.4660   44.4840 C   0  0  2  0  0  3  0  0  0  0  0  0
   33.1810   25.8900   44.7110 C   0  0  2  0  0  3  0  0  0  0  0  0
   34.2880   26.6210   44.3330 O   0  0  0  0  0  0  0  0  0  0  0  0
   34.7100   26.0820   43.1400 C   0  0  0  0  0  2  0  0  0  0  0  0
   34.1960   24.6610   43.0430 C   0  0  1  0  0  3  0  0  0  0  0  0
   32.7280   23.5100   44.5820 O   0  0  0  0  0  0  0  0  0  0  0  0
   32.7040   23.2180   45.5380 H   0  0  0  0  0  0  0  0  0  0  0  0
   35.1440   23.7420   42.6680 O   0  0  0  0  0  0  0  0  0  0  0  0
   34.7680   23.0340   42.0550 H   0  0  0  0  0  0  0  0  0  0  0  0
  1  8  1  0  0  0  0
  1  2  2  0  0  0  0
  2  6  1  0  0  0  0
  3  7  1  0  0  0  0
  3  2  1  0  0  0  0
  4  3  2  0  0  0  0
  5  4  1  0  0  0  0
  5  1  1  0  0  0  0
  8  9  2  0  0  0  0
 10 11  1  0  0  0  0
 10  8  1  0  0  0  0
 11 16  1  0  0  0  0
 12 17  1  0  0  0  0
 12 11  2  0  0  0  0
 13 12  1  0  0  0  0
 14 13  2  0  0  0  0
 14 15  1  0  0  0  0
 15 10  2  0  0  0  0
 18 14  1  0  0  0  0
 19 20  2  0  0  0  0
 19  4  1  0  0  0  0
 21 24  1  6  0  0  0
 21 22  1  0  0  0  0
 21 19  1  0  0  0  0
 22 25  1  0  0  0  0
 23 27  1  1  0  0  0
 23 21  1  0  0  0  0
 23 22  1  0  0  0  0
 26 22  1  0  0  0  0
 28 33  1  6  0  0  0
 28 29  1  0  0  0  0
 29 30  1  1  0  0  0
 29 23  1  0  0  0  0
 31 30  1  0  0  0  0
 32 35  1  1  0  0  0
 32 31  1  0  0  0  0
 32 28  1  0  0  0  0
 33 34  1  0  0  0  0
 36 35  1  0  0  0  0
M  END
>  <minimizedAffinity>
-4.91228199

>  <minimizedRMSD>
0.780668557

$$$$
