
 OpenBabel03272507323D

 36 39  0  0  1  0  0  0  0  0999 V2000
   35.8320   29.1350   49.8040 C   0  0  0  0  0  0  0  0  0  0  0  0
   34.8030   29.6340   50.5730 C   0  0  0  0  0  0  0  0  0  0  0  0
   33.6080   29.0870   50.0810 C   0  0  0  0  0  0  0  0  0  0  0  0
   33.9930   28.2800   49.0340 C   0  0  0  0  0  0  0  0  0  0  0  0
   35.3010   28.3400   48.9070 O   0  0  0  0  0  0  0  0  0  0  0  0
   34.7570   30.3190   51.4200 H   0  0  0  0  0  0  0  0  0  0  0  0
   32.5750   29.2270   50.4080 H   0  0  0  0  0  0  0  0  0  0  0  0
   37.2190   29.4980   50.0390 C   0  0  0  0  0  0  0  0  0  0  0  0
   37.8590   28.9070   50.9210 O   0  0  0  0  0  0  0  0  0  0  0  0
   37.7700   30.5390   49.2180 C   0  0  0  0  0  0  0  0  0  0  0  0
   38.1160   31.7220   49.8480 C   0  0  0  0  0  0  0  0  0  0  0  0
   38.6540   32.7580   49.0780 C   0  0  0  0  0  0  0  0  0  0  0  0
   38.8110   32.5430   47.7310 N   0  0  0  0  0  0  0  0  0  0  0  0
   38.4670   31.3900   47.1560 C   0  0  0  0  0  0  0  0  0  0  0  0
   37.9490   30.3890   47.8870 N   0  0  0  0  0  0  0  0  0  0  0  0
   38.0140   31.9420   50.9000 H   0  0  0  0  0  0  0  0  0  0  0  0
   38.9330   33.6870   49.5300 H   0  0  0  0  0  0  0  0  0  0  0  0
   38.6300   31.3190   46.0830 H   0  0  0  0  0  0  0  0  0  0  0  0
   33.0980   27.4820   48.1960 C   0  0  0  0  0  0  0  0  0  0  0  0
   31.8670   27.4100   48.5260 O   0  0  0  0  0  0  0  0  0  0  0  0
   33.6210   26.7640   46.9880 C   0  0  1  0  0  0  0  0  0  0  0  0
   33.8280   25.2330   47.3250 C   0  0  0  0  0  0  0  0  0  0  0  0
   32.8350   25.7150   46.3350 C   0  0  2  0  0  0  0  0  0  0  0  0
   34.6140   27.1600   46.6430 H   0  0  0  0  0  0  0  0  0  0  0  0
   33.4180   24.8700   48.2640 H   0  0  0  0  0  0  0  0  0  0  0  0
   34.7340   24.7610   46.9550 H   0  0  0  0  0  0  0  0  0  0  0  0
   31.7590   25.6820   46.6020 H   0  0  0  0  0  0  0  0  0  0  0  0
   34.5680   25.4880   44.5710 C   0  0  2  0  0  3  0  0  0  0  0  0
   33.0600   25.5220   44.8590 C   0  0  2  0  0  3  0  0  0  0  0  0
   32.6900   26.6110   44.1000 O   0  0  0  0  0  0  0  0  0  0  0  0
   33.2880   26.4420   42.8730 C   0  0  0  0  0  2  0  0  0  0  0  0
   34.4790   25.5220   43.0390 C   0  0  1  0  0  3  0  0  0  0  0  0
   35.1810   24.3570   45.0390 O   0  0  0  0  0  0  0  0  0  0  0  0
   35.4860   24.5570   45.9700 H   0  0  0  0  0  0  0  0  0  0  0  0
   35.6290   25.9720   42.4430 O   0  0  0  0  0  0  0  0  0  0  0  0
   36.1650   25.2230   42.0310 H   0  0  0  0  0  0  0  0  0  0  0  0
  1  8  1  0  0  0  0
  1  2  2  0  0  0  0
  2  6  1  0  0  0  0
  3  7  1  0  0  0  0
  3  2  1  0  0  0  0
  4  3  2  0  0  0  0
  5  4  1  0  0  0  0
  5  1  1  0  0  0  0
  8  9  2  0  0  0  0
 10 11  1  0  0  0  0
 10  8  1  0  0  0  0
 11 16  1  0  0  0  0
 12 17  1  0  0  0  0
 12 11  2  0  0  0  0
 13 12  1  0  0  0  0
 14 13  2  0  0  0  0
 14 15  1  0  0  0  0
 15 10  2  0  0  0  0
 18 14  1  0  0  0  0
 19 20  2  0  0  0  0
 19  4  1  0  0  0  0
 21 24  1  6  0  0  0
 21 22  1  0  0  0  0
 21 19  1  0  0  0  0
 22 25  1  0  0  0  0
 23 27  1  1  0  0  0
 23 21  1  0  0  0  0
 23 22  1  0  0  0  0
 26 22  1  0  0  0  0
 28 29  1  0  0  0  0
 28 33  1  6  0  0  0
 29 30  1  6  0  0  0
 29 23  1  0  0  0  0
 31 32  1  0  0  0  0
 31 30  1  0  0  0  0
 32 35  1  6  0  0  0
 32 28  1  0  0  0  0
 33 34  1  0  0  0  0
 36 35  1  0  0  0  0
M  END
>  <minimizedAffinity>
-4.99777222

>  <minimizedRMSD>
0.12277139

$$$$
