
 OpenBabel03272507323D

 36 39  0  0  1  0  0  0  0  0999 V2000
   35.9190   29.2270   49.8480 C   0  0  0  0  0  0  0  0  0  0  0  0
   34.9470   29.6680   50.7200 C   0  0  0  0  0  0  0  0  0  0  0  0
   33.7180   29.1670   50.2660 C   0  0  0  0  0  0  0  0  0  0  0  0
   34.0260   28.4440   49.1340 C   0  0  0  0  0  0  0  0  0  0  0  0
   35.3230   28.5080   48.9280 O   0  0  0  0  0  0  0  0  0  0  0  0
   34.9630   30.2830   51.6200 H   0  0  0  0  0  0  0  0  0  0  0  0
   32.7100   29.2850   50.6700 H   0  0  0  0  0  0  0  0  0  0  0  0
   37.3230   29.5630   50.0200 C   0  0  0  0  0  0  0  0  0  0  0  0
   37.9930   28.9530   50.8650 O   0  0  0  0  0  0  0  0  0  0  0  0
   37.8520   30.6030   49.1830 C   0  0  0  0  0  0  0  0  0  0  0  0
   38.1870   31.7970   49.7970 C   0  0  0  0  0  0  0  0  0  0  0  0
   38.7040   32.8320   49.0120 C   0  0  0  0  0  0  0  0  0  0  0  0
   38.8530   32.6050   47.6660 N   0  0  0  0  0  0  0  0  0  0  0  0
   38.5200   31.4400   47.1060 C   0  0  0  0  0  0  0  0  0  0  0  0
   38.0220   30.4410   47.8520 N   0  0  0  0  0  0  0  0  0  0  0  0
   38.0900   32.0270   50.8480 H   0  0  0  0  0  0  0  0  0  0  0  0
   38.9740   33.7700   49.4510 H   0  0  0  0  0  0  0  0  0  0  0  0
   38.6750   31.3590   46.0330 H   0  0  0  0  0  0  0  0  0  0  0  0
   33.0710   27.7200   48.2960 C   0  0  0  0  0  0  0  0  0  0  0  0
   31.8830   27.5590   48.7350 O   0  0  0  0  0  0  0  0  0  0  0  0
   33.4850   27.1770   46.9620 C   0  0  1  0  0  0  0  0  0  0  0  0
   33.7720   25.6270   47.0810 C   0  0  0  0  0  0  0  0  0  0  0  0
   32.6660   26.1830   46.2650 C   0  0  2  0  0  0  0  0  0  0  0  0
   34.4240   27.6540   46.5700 H   0  0  0  0  0  0  0  0  0  0  0  0
   33.4750   25.1350   48.0040 H   0  0  0  0  0  0  0  0  0  0  0  0
   34.6480   25.2420   46.5650 H   0  0  0  0  0  0  0  0  0  0  0  0
   31.6260   26.0710   46.6330 H   0  0  0  0  0  0  0  0  0  0  0  0
   33.1510   27.5750   44.2650 C   0  0  2  0  0  3  0  0  0  0  0  0
   32.7400   26.1800   44.7610 C   0  0  2  0  0  3  0  0  0  0  0  0
   31.5110   26.0570   44.1510 O   0  0  0  0  0  0  0  0  0  0  0  0
   31.6930   26.4420   42.8430 C   0  0  0  0  0  2  0  0  0  0  0  0
   32.9170   27.3300   42.7680 C   0  0  1  0  0  3  0  0  0  0  0  0
   34.4540   27.8860   44.5510 O   0  0  0  0  0  0  0  0  0  0  0  0
   34.4550   28.3350   45.4450 H   0  0  0  0  0  0  0  0  0  0  0  0
   32.7310   28.4890   42.0580 O   0  0  0  0  0  0  0  0  0  0  0  0
   33.5450   28.7390   41.5160 H   0  0  0  0  0  0  0  0  0  0  0  0
  1  8  1  0  0  0  0
  1  2  2  0  0  0  0
  2  6  1  0  0  0  0
  3  7  1  0  0  0  0
  3  2  1  0  0  0  0
  4  3  2  0  0  0  0
  5  4  1  0  0  0  0
  5  1  1  0  0  0  0
  8  9  2  0  0  0  0
 10 11  1  0  0  0  0
 10  8  1  0  0  0  0
 11 16  1  0  0  0  0
 12 17  1  0  0  0  0
 12 11  2  0  0  0  0
 13 12  1  0  0  0  0
 14 13  2  0  0  0  0
 14 15  1  0  0  0  0
 15 10  2  0  0  0  0
 18 14  1  0  0  0  0
 19 20  2  0  0  0  0
 19  4  1  0  0  0  0
 21 24  1  6  0  0  0
 21 22  1  0  0  0  0
 21 19  1  0  0  0  0
 22 25  1  0  0  0  0
 23 27  1  1  0  0  0
 23 21  1  0  0  0  0
 23 22  1  0  0  0  0
 26 22  1  0  0  0  0
 28 33  1  6  0  0  0
 28 29  1  0  0  0  0
 29 30  1  6  0  0  0
 29 23  1  0  0  0  0
 31 30  1  0  0  0  0
 32 35  1  6  0  0  0
 32 31  1  0  0  0  0
 32 28  1  0  0  0  0
 33 34  1  0  0  0  0
 36 35  1  0  0  0  0
M  END
>  <minimizedAffinity>
-4.91092396

>  <minimizedRMSD>
0.51824367

$$$$
