
 OpenBabel03272507333D

 36 39  0  0  1  0  0  0  0  0999 V2000
   35.8260   29.1390   49.8060 C   0  0  0  0  0  0  0  0  0  0  0  0
   34.8110   29.6480   50.5850 C   0  0  0  0  0  0  0  0  0  0  0  0
   33.6060   29.1150   50.1050 C   0  0  0  0  0  0  0  0  0  0  0  0
   33.9710   28.3050   49.0530 C   0  0  0  0  0  0  0  0  0  0  0  0
   35.2770   28.3500   48.9130 O   0  0  0  0  0  0  0  0  0  0  0  0
   34.7810   30.3320   51.4340 H   0  0  0  0  0  0  0  0  0  0  0  0
   32.5780   29.2650   50.4430 H   0  0  0  0  0  0  0  0  0  0  0  0
   37.2200   29.4860   50.0270 C   0  0  0  0  0  0  0  0  0  0  0  0
   37.8660   28.8780   50.8930 O   0  0  0  0  0  0  0  0  0  0  0  0
   37.7700   30.5320   49.2110 C   0  0  0  0  0  0  0  0  0  0  0  0
   38.1130   31.7130   49.8480 C   0  0  0  0  0  0  0  0  0  0  0  0
   38.6490   32.7540   49.0830 C   0  0  0  0  0  0  0  0  0  0  0  0
   38.8080   32.5460   47.7350 N   0  0  0  0  0  0  0  0  0  0  0  0
   38.4670   31.3950   47.1540 C   0  0  0  0  0  0  0  0  0  0  0  0
   37.9500   30.3900   47.8800 N   0  0  0  0  0  0  0  0  0  0  0  0
   38.0090   31.9270   50.9010 H   0  0  0  0  0  0  0  0  0  0  0  0
   38.9260   33.6810   49.5400 H   0  0  0  0  0  0  0  0  0  0  0  0
   38.6310   31.3290   46.0810 H   0  0  0  0  0  0  0  0  0  0  0  0
   33.0580   27.5170   48.2240 C   0  0  0  0  0  0  0  0  0  0  0  0
   31.8350   27.4380   48.5800 O   0  0  0  0  0  0  0  0  0  0  0  0
   33.5560   26.8190   46.9940 C   0  0  1  0  0  0  0  0  0  0  0  0
   33.8130   25.2920   47.3140 C   0  0  0  0  0  0  0  0  0  0  0  0
   32.7730   25.7540   46.3630 C   0  0  2  0  0  0  0  0  0  0  0  0
   34.5260   27.2410   46.6150 H   0  0  0  0  0  0  0  0  0  0  0  0
   33.4460   24.9140   48.2650 H   0  0  0  0  0  0  0  0  0  0  0  0
   34.7160   24.8440   46.9090 H   0  0  0  0  0  0  0  0  0  0  0  0
   31.7090   25.6920   46.6680 H   0  0  0  0  0  0  0  0  0  0  0  0
   31.6620   24.9970   44.2740 C   0  0  2  0  0  3  0  0  0  0  0  0
   32.9500   25.5740   44.8780 C   0  0  2  0  0  3  0  0  0  0  0  0
   33.8430   24.5770   44.5500 O   0  0  0  0  0  0  0  0  0  0  0  0
   33.6170   24.2850   43.2240 C   0  0  0  0  0  2  0  0  0  0  0  0
   32.2100   24.7160   42.8690 C   0  0  1  0  0  3  0  0  0  0  0  0
   30.6230   25.8900   44.2670 O   0  0  0  0  0  0  0  0  0  0  0  0
   30.1300   25.7690   45.1280 H   0  0  0  0  0  0  0  0  0  0  0  0
   31.4840   23.7710   42.1880 O   0  0  0  0  0  0  0  0  0  0  0  0
   30.8950   24.1810   41.4780 H   0  0  0  0  0  0  0  0  0  0  0  0
  1  8  1  0  0  0  0
  1  2  2  0  0  0  0
  2  6  1  0  0  0  0
  3  7  1  0  0  0  0
  3  2  1  0  0  0  0
  4  3  2  0  0  0  0
  5  4  1  0  0  0  0
  5  1  1  0  0  0  0
  8  9  2  0  0  0  0
 10 11  1  0  0  0  0
 10  8  1  0  0  0  0
 11 16  1  0  0  0  0
 12 17  1  0  0  0  0
 12 11  2  0  0  0  0
 13 12  1  0  0  0  0
 14 13  2  0  0  0  0
 14 15  1  0  0  0  0
 15 10  2  0  0  0  0
 18 14  1  0  0  0  0
 19 20  2  0  0  0  0
 19  4  1  0  0  0  0
 21 24  1  6  0  0  0
 21 22  1  0  0  0  0
 21 19  1  0  0  0  0
 22 25  1  0  0  0  0
 23 27  1  1  0  0  0
 23 21  1  0  0  0  0
 23 22  1  0  0  0  0
 26 22  1  0  0  0  0
 28 33  1  6  0  0  0
 28 29  1  0  0  0  0
 29 30  1  1  0  0  0
 29 23  1  0  0  0  0
 31 30  1  0  0  0  0
 32 35  1  1  0  0  0
 32 31  1  0  0  0  0
 32 28  1  0  0  0  0
 33 34  1  0  0  0  0
 36 35  1  0  0  0  0
M  END
>  <minimizedAffinity>
-4.87654114

>  <minimizedRMSD>
0.0582341217

$$$$
