
 OpenBabel03272508583D

 40 43  0  0  1  0  0  0  0  0999 V2000
   38.3340   31.8940   44.4950 C   0  0  0  0  0  0  0  0  0  0  0  0
   37.2230   32.4250   44.3990 O   0  0  0  0  0  0  0  0  0  0  0  0
   38.9260   31.6350   45.8010 N   0  0  0  0  0  0  0  0  0  0  0  0
   39.9150   31.3840   45.9490 H   0  0  0  0  0  0  0  0  0  0  0  0
   39.1270   31.4920   43.3130 C   0  0  0  0  0  0  0  0  0  0  0  0
   40.1530   30.6000   43.4600 C   0  0  0  0  0  0  0  0  0  0  0  0
   40.8730   30.2490   42.3370 C   0  0  0  0  0  0  0  0  0  0  0  0
   40.5110   30.8230   41.1310 C   0  0  0  0  0  0  0  0  0  0  0  0
   39.4690   31.7300   40.9700 C   0  0  0  0  0  0  0  0  0  0  0  0
   38.8130   32.0260   42.1020 N   0  0  0  0  0  0  0  0  0  0  0  0
   40.4200   30.1630   44.4070 H   0  0  0  0  0  0  0  0  0  0  0  0
   41.6870   29.5490   42.4190 H   0  0  0  0  0  0  0  0  0  0  0  0
   41.1150   30.5060   40.2930 H   0  0  0  0  0  0  0  0  0  0  0  0
   39.1440   32.2890   39.6730 C   0  0  0  0  0  0  0  0  0  0  0  0
   38.9780   33.5260   39.5750 O   0  0  0  0  0  0  0  0  0  0  0  0
   38.9850   31.5680   38.4630 N   0  0  0  0  0  0  0  0  0  0  0  0
   37.9550   30.5490   38.4060 C   0  0  0  0  0  3  0  0  0  0  0  0
   37.2960   30.6110   39.2700 H   0  0  0  0  0  0  0  0  0  0  0  0
   38.6600   29.2100   38.3930 C   0  0  0  0  0  3  0  0  0  0  0  0
   37.9970   28.4590   37.8990 H   0  0  0  0  0  0  0  0  0  0  0  0
   39.9010   29.3030   37.6510 N   0  0  0  0  0  0  0  0  0  0  0  0
   40.1250   28.4040   37.1790 H   0  0  0  0  0  0  0  0  0  0  0  0
   39.7530   30.3180   36.5980 C   0  0  0  0  0  2  0  0  0  0  0  0
   39.7380   31.7150   37.2330 C   0  0  0  0  0  2  0  0  0  0  0  0
   38.4360   31.1040   48.1800 C   0  0  2  0  0  0  0  0  0  0  0  0
   38.6790   32.5690   48.1050 C   0  0  0  0  0  0  0  0  0  0  0  0
   38.0690   31.7380   46.9570 C   0  0  1  0  0  0  0  0  0  0  0  0
   39.3510   30.4830   48.2590 H   0  0  0  0  0  0  0  0  0  0  0  0
   38.0250   33.2280   48.6900 H   0  0  0  0  0  0  0  0  0  0  0  0
   39.7090   32.9080   47.9910 H   0  0  0  0  0  0  0  0  0  0  0  0
   37.0050   32.0030   46.7800 H   0  0  0  0  0  0  0  0  0  0  0  0
   35.0670   30.2330   49.4980 C   0  0  0  0  0  0  0  0  0  0  0  0
   35.4060   29.5490   50.7140 C   0  0  0  0  0  0  0  0  0  0  0  0
   36.8100   29.4110   51.0610 C   0  0  0  0  0  0  0  0  0  0  0  0
   37.7580   29.9340   50.2210 N   0  0  0  0  0  0  0  0  0  0  0  0
   37.3510   30.5700   49.0830 C   0  0  0  0  0  0  0  0  0  0  0  0
   36.0270   30.7360   48.6940 N   0  0  0  0  0  0  0  0  0  0  0  0
   34.0220   30.3030   49.2960 H   0  0  0  0  0  0  0  0  0  0  0  0
   34.6610   29.1420   51.3650 H   0  0  0  0  0  0  0  0  0  0  0  0
   37.0470   28.9040   51.9620 H   0  0  0  0  0  0  0  0  0  0  0  0
  1  3  1  0  0  0  0
  2  1  2  0  0  0  0
  3  4  1  0  0  0  0
  3 27  1  0  0  0  0
  5  6  1  0  0  0  0
  5  1  1  0  0  0  0
  6 11  1  0  0  0  0
  7 12  1  0  0  0  0
  7  6  2  0  0  0  0
  8  7  1  0  0  0  0
  9  8  2  0  0  0  0
  9 10  1  0  0  0  0
 10  5  2  0  0  0  0
 13  8  1  0  0  0  0
 14  9  1  0  0  0  0
 15 14  2  0  0  0  0
 16 14  1  0  0  0  0
 17 16  1  0  0  0  0
 17 18  1  0  0  0  0
 19 17  1  0  0  0  0
 20 19  1  0  0  0  0
 21 19  1  0  0  0  0
 22 21  1  0  0  0  0
 23 24  1  0  0  0  0
 23 21  1  0  0  0  0
 24 16  1  0  0  0  0
 25 28  1  6  0  0  0
 25 36  1  0  0  0  0
 26 25  1  0  0  0  0
 26 29  1  0  0  0  0
 27 31  1  6  0  0  0
 27 26  1  0  0  0  0
 27 25  1  0  0  0  0
 30 26  1  0  0  0  0
 32 33  1  0  0  0  0
 33 34  2  0  0  0  0
 33 39  1  0  0  0  0
 34 40  1  0  0  0  0
 35 34  1  0  0  0  0
 36 35  2  0  0  0  0
 37 36  1  0  0  0  0
 37 32  2  0  0  0  0
 38 32  1  0  0  0  0
M  END
>  <minimizedAffinity>
-5.16317558

>  <minimizedRMSD>
0.324432373

$$$$
