
 OpenBabel03272501303D

 20 21  0  0  0  0  0  0  0  0999 V2000
   38.5650   31.9790   48.1320 C   0  0  0  0  0  0  0  0  0  0  0  0
   39.0920   33.0600   48.5340 O   0  0  0  0  0  0  0  0  0  0  0  0
   38.8060   31.8330   46.7380 N   0  0  0  0  0  0  0  0  0  0  0  0
   39.5420   32.8230   46.0290 C   0  0  0  0  0  0  0  0  0  0  0  0
   38.8610   33.2780   45.2550 H   0  0  0  0  0  0  0  0  0  0  0  0
   40.7510   32.3090   45.3070 C   0  0  0  0  0  0  0  0  0  0  0  0
   40.8600   32.8220   44.3170 H   0  0  0  0  0  0  0  0  0  0  0  0
   40.8190   30.9020   45.1420 N   0  0  0  0  0  0  0  0  0  0  0  0
   41.4470   30.7080   44.3400 H   0  0  0  0  0  0  0  0  0  0  0  0
   39.5610   30.2290   45.0110 C   0  0  0  0  0  0  0  0  0  0  0  0
   38.4430   30.8160   45.7870 C   0  0  0  0  0  0  0  0  0  0  0  0
   37.4100   30.0420   51.0540 C   0  0  0  0  0  0  0  0  0  0  0  0
   38.1540   30.9690   50.3050 C   0  0  0  0  0  0  0  0  0  0  0  0
   37.8330   31.0420   48.9560 C   0  0  0  0  0  0  0  0  0  0  0  0
   36.8610   30.2500   48.4530 N   0  0  0  0  0  0  0  0  0  0  0  0
   36.1760   29.3800   49.2000 C   0  0  0  0  0  0  0  0  0  0  0  0
   36.4520   29.2780   50.5000 N   0  0  0  0  0  0  0  0  0  0  0  0
   37.5670   29.8930   52.1130 H   0  0  0  0  0  0  0  0  0  0  0  0
   38.9040   31.5510   50.7950 H   0  0  0  0  0  0  0  0  0  0  0  0
   35.4430   28.8410   48.6180 H   0  0  0  0  0  0  0  0  0  0  0  0
  1  2  2  0  0  0  0
  1 14  1  0  0  0  0
  3  1  1  0  0  0  0
  4  3  1  0  0  0  0
  5  4  1  0  0  0  0
  6  4  1  0  0  0  0
  7  6  1  0  0  0  0
  8  6  1  0  0  0  0
  9  8  1  0  0  0  0
 10  8  1  0  0  0  0
 10 11  2  0  0  0  0
 11  3  1  0  0  0  0
 12 18  1  0  0  0  0
 13 19  1  0  0  0  0
 13 12  2  0  0  0  0
 14 13  1  0  0  0  0
 15 14  2  0  0  0  0
 15 16  1  0  0  0  0
 16 17  2  0  0  0  0
 17 12  1  0  0  0  0
 20 16  1  0  0  0  0
M  END
>  <minimizedAffinity>
-5.29080057

>  <minimizedRMSD>
1.58229351

$$$$
