
 OpenBabel03272507313D

 29 31  0  0  0  0  0  0  0  0999 V2000
   35.9280   29.5470   49.8450 C   0  0  0  0  0  0  0  0  0  0  0  0
   34.7680   29.5950   50.5820 C   0  0  0  0  0  0  0  0  0  0  0  0
   33.8160   28.8460   49.8730 C   0  0  0  0  0  0  0  0  0  0  0  0
   34.4810   28.3930   48.7410 C   0  0  0  0  0  0  0  0  0  0  0  0
   35.6960   28.8260   48.7750 O   0  0  0  0  0  0  0  0  0  0  0  0
   34.5300   30.0770   51.5210 H   0  0  0  0  0  0  0  0  0  0  0  0
   32.7870   28.6390   50.1100 H   0  0  0  0  0  0  0  0  0  0  0  0
   33.8440   27.5610   47.7150 C   0  0  0  0  0  0  0  0  0  0  0  0
   33.9400   26.3060   47.7310 O   0  0  0  0  0  0  0  0  0  0  0  0
   33.0810   28.0790   46.6400 N   0  0  0  0  0  0  0  0  0  0  0  0
   32.5950   27.0190   45.8140 C   0  0  0  0  0  3  0  0  0  0  0  0
   33.4200   26.4210   45.3290 H   0  0  0  0  0  0  0  0  0  0  0  0
   31.8610   27.6780   44.6400 C   0  0  0  0  0  3  0  0  0  0  0  0
   31.3710   26.8630   44.0720 H   0  0  0  0  0  0  0  0  0  0  0  0
   30.8310   28.5420   45.1250 N   0  0  0  0  0  0  0  0  0  0  0  0
   30.0630   27.9410   45.5050 H   0  0  0  0  0  0  0  0  0  0  0  0
   31.2290   29.4880   46.1230 C   0  0  0  0  0  2  0  0  0  0  0  0
   32.7540   29.4460   46.2950 C   0  0  0  0  0  2  0  0  0  0  0  0
   37.1400   30.2170   50.2770 C   0  0  0  0  0  0  0  0  0  0  0  0
   37.5420   30.0400   51.4490 O   0  0  0  0  0  0  0  0  0  0  0  0
   37.8110   31.0570   49.3080 C   0  0  0  0  0  0  0  0  0  0  0  0
   38.0800   32.3670   49.7040 C   0  0  0  0  0  0  0  0  0  0  0  0
   38.7300   33.2070   48.7890 C   0  0  0  0  0  0  0  0  0  0  0  0
   39.0610   32.6960   47.5610 N   0  0  0  0  0  0  0  0  0  0  0  0
   38.7800   31.4180   47.2180 C   0  0  0  0  0  0  0  0  0  0  0  0
   38.1640   30.6200   48.0860 N   0  0  0  0  0  0  0  0  0  0  0  0
   37.8400   32.8120   50.6540 H   0  0  0  0  0  0  0  0  0  0  0  0
   38.9530   34.2280   49.0630 H   0  0  0  0  0  0  0  0  0  0  0  0
   39.0970   31.1450   46.2200 H   0  0  0  0  0  0  0  0  0  0  0  0
  1 19  1  0  0  0  0
  1  2  2  0  0  0  0
  2  6  1  0  0  0  0
  3  7  1  0  0  0  0
  3  2  1  0  0  0  0
  4  5  1  0  0  0  0
  4  3  2  0  0  0  0
  5  1  1  0  0  0  0
  8  9  2  0  0  0  0
  8  4  1  0  0  0  0
 10  8  1  0  0  0  0
 11 10  1  0  0  0  0
 12 11  1  0  0  0  0
 13 15  1  0  0  0  0
 13 11  1  0  0  0  0
 14 13  1  0  0  0  0
 15 16  1  0  0  0  0
 15 17  1  0  0  0  0
 17 18  1  0  0  0  0
 18 10  1  0  0  0  0
 19 20  2  0  0  0  0
 21 22  1  0  0  0  0
 21 19  1  0  0  0  0
 22 27  1  0  0  0  0
 23 28  1  0  0  0  0
 23 22  2  0  0  0  0
 24 23  1  0  0  0  0
 25 24  2  0  0  0  0
 25 26  1  0  0  0  0
 26 21  2  0  0  0  0
 29 25  1  0  0  0  0
M  END
>  <minimizedAffinity>
-5.37335396

>  <minimizedRMSD>
2.40731049

$$$$
