
 OpenBabel03262522003D

 20 21  0  0  0  0  0  0  0  0999 V2000
   37.2680   32.6190   49.6070 C   0  0  0  0  0  0  0  0  0  0  0  0
   36.7030   33.4970   50.2980 O   0  0  0  0  0  0  0  0  0  0  0  0
   36.8820   31.2710   49.8480 N   0  0  0  0  0  0  0  0  0  0  0  0
   35.4840   30.8990   49.9870 C   0  0  0  0  0  0  0  0  0  0  0  0
   34.8300   31.7390   49.6920 H   0  0  0  0  0  0  0  0  0  0  0  0
   35.2750   29.6680   49.1340 C   0  0  0  0  0  0  0  0  0  0  0  0
   35.5630   29.8670   48.0810 H   0  0  0  0  0  0  0  0  0  0  0  0
   36.0600   28.5900   49.6360 N   0  0  0  0  0  0  0  0  0  0  0  0
   36.1340   27.7690   49.0340 H   0  0  0  0  0  0  0  0  0  0  0  0
   37.2220   28.9310   50.3790 C   0  0  0  0  0  0  0  0  0  0  0  0
   37.8800   30.2280   49.9630 C   0  0  0  0  0  0  0  0  0  0  0  0
   38.2690   32.9080   48.6000 C   0  0  0  0  0  0  0  0  0  0  0  0
   39.1870   33.9230   48.9490 C   0  0  0  0  0  0  0  0  0  0  0  0
   40.2080   34.2900   48.0460 C   0  0  0  0  0  0  0  0  0  0  0  0
   40.2210   33.6030   46.8600 N   0  0  0  0  0  0  0  0  0  0  0  0
   39.3400   32.6480   46.5560 C   0  0  0  0  0  0  0  0  0  0  0  0
   38.3720   32.3050   47.4230 N   0  0  0  0  0  0  0  0  0  0  0  0
   39.1380   34.4450   49.9090 H   0  0  0  0  0  0  0  0  0  0  0  0
   40.9160   35.0570   48.2860 H   0  0  0  0  0  0  0  0  0  0  0  0
   39.4160   32.1480   45.5950 H   0  0  0  0  0  0  0  0  0  0  0  0
  1  3  1  0  0  0  0
  1  2  2  0  0  0  0
  3 11  1  0  0  0  0
  3  4  1  0  0  0  0
  5  4  1  0  0  0  0
  6  8  1  0  0  0  0
  6  4  1  0  0  0  0
  7  6  1  0  0  0  0
  8 10  1  0  0  0  0
  9  8  1  0  0  0  0
 11 10  1  0  0  0  0
 12 13  1  0  0  0  0
 12  1  1  0  0  0  0
 13 18  1  0  0  0  0
 14 19  1  0  0  0  0
 14 13  2  0  0  0  0
 15 14  1  0  0  0  0
 16 15  2  0  0  0  0
 16 17  1  0  0  0  0
 17 12  2  0  0  0  0
 20 16  1  0  0  0  0
M  END
>  <minimizedAffinity>
-3.97416687

>  <minimizedRMSD>
3.12559152

$$$$
