
 OpenBabel03272508593D

 40 43  0  0  1  0  0  0  0  0999 V2000
   36.2680   28.8700   34.1280 C   0  0  0  0  0  0  0  0  0  0  0  0
   36.9070   27.9970   34.7250 O   0  0  0  0  0  0  0  0  0  0  0  0
   36.2910   28.9480   32.6740 N   0  0  0  0  0  0  0  0  0  0  0  0
   35.9500   29.7560   32.1320 H   0  0  0  0  0  0  0  0  0  0  0  0
   35.4500   29.8780   34.8360 C   0  0  0  0  0  0  0  0  0  0  0  0
   36.0660   30.8580   35.5630 C   0  0  0  0  0  0  0  0  0  0  0  0
   35.2730   31.7810   36.2130 C   0  0  0  0  0  0  0  0  0  0  0  0
   33.9000   31.6540   36.0890 C   0  0  0  0  0  0  0  0  0  0  0  0
   33.2630   30.6620   35.3520 C   0  0  0  0  0  0  0  0  0  0  0  0
   34.0940   29.8010   34.7470 N   0  0  0  0  0  0  0  0  0  0  0  0
   37.1360   30.9400   35.6480 H   0  0  0  0  0  0  0  0  0  0  0  0
   35.7270   32.5650   36.7930 H   0  0  0  0  0  0  0  0  0  0  0  0
   33.3390   32.4080   36.6220 H   0  0  0  0  0  0  0  0  0  0  0  0
   31.8170   30.5940   35.2640 C   0  0  0  0  0  0  0  0  0  0  0  0
   31.1900   31.6030   34.8700 O   0  0  0  0  0  0  0  0  0  0  0  0
   31.0070   29.4760   35.5870 N   0  0  0  0  0  0  0  0  0  0  0  0
   30.5250   29.3530   36.9480 C   0  0  0  0  0  3  0  0  0  0  0  0
   30.7000   30.2700   37.5090 H   0  0  0  0  0  0  0  0  0  0  0  0
   31.2850   28.2090   37.5840 C   0  0  0  0  0  3  0  0  0  0  0  0
   30.6670   27.7820   38.4100 H   0  0  0  0  0  0  0  0  0  0  0  0
   31.5420   27.1720   36.6060 N   0  0  0  0  0  0  0  0  0  0  0  0
   31.5550   26.2330   37.0480 H   0  0  0  0  0  0  0  0  0  0  0  0
   30.4550   27.1680   35.6160 C   0  0  0  0  0  2  0  0  0  0  0  0
   30.5830   28.4010   34.7110 C   0  0  0  0  0  2  0  0  0  0  0  0
   35.9510   26.9180   31.2800 C   0  0  2  0  0  0  0  0  0  0  0  0
   36.6380   27.9200   30.4230 C   0  0  0  0  0  0  0  0  0  0  0  0
   36.8270   27.8200   31.9520 C   0  0  1  0  0  0  0  0  0  0  0  0
   34.8500   27.0290   31.3360 H   0  0  0  0  0  0  0  0  0  0  0  0
   37.4420   27.5680   29.7640 H   0  0  0  0  0  0  0  0  0  0  0  0
   36.0460   28.7530   30.0410 H   0  0  0  0  0  0  0  0  0  0  0  0
   37.8530   27.4860   32.2160 H   0  0  0  0  0  0  0  0  0  0  0  0
   37.9780   23.8390   30.7690 C   0  0  0  0  0  0  0  0  0  0  0  0
   37.0170   22.8150   31.0600 C   0  0  0  0  0  0  0  0  0  0  0  0
   35.6680   23.2150   31.4230 C   0  0  0  0  0  0  0  0  0  0  0  0
   35.3610   24.5500   31.4740 N   0  0  0  0  0  0  0  0  0  0  0  0
   36.3350   25.4610   31.1820 C   0  0  0  0  0  0  0  0  0  0  0  0
   37.6420   25.1440   30.8280 N   0  0  0  0  0  0  0  0  0  0  0  0
   38.9510   23.4850   30.5090 H   0  0  0  0  0  0  0  0  0  0  0  0
   37.2630   21.7740   31.0190 H   0  0  0  0  0  0  0  0  0  0  0  0
   34.9660   22.4480   31.6350 H   0  0  0  0  0  0  0  0  0  0  0  0
  1  2  2  0  0  0  0
  1  5  1  0  0  0  0
  3  1  1  0  0  0  0
  4  3  1  0  0  0  0
  5  6  1  0  0  0  0
  6 11  1  0  0  0  0
  6  7  2  0  0  0  0
  7 12  1  0  0  0  0
  8  7  1  0  0  0  0
  8 13  1  0  0  0  0
  9  8  2  0  0  0  0
 10  5  2  0  0  0  0
 10  9  1  0  0  0  0
 14  9  1  0  0  0  0
 14 16  1  0  0  0  0
 15 14  2  0  0  0  0
 16 17  1  0  0  0  0
 17 18  1  0  0  0  0
 17 19  1  0  0  0  0
 19 20  1  0  0  0  0
 21 22  1  0  0  0  0
 21 19  1  0  0  0  0
 23 21  1  0  0  0  0
 24 16  1  0  0  0  0
 24 23  1  0  0  0  0
 25 28  1  1  0  0  0
 25 27  1  0  0  0  0
 26 25  1  0  0  0  0
 26 27  1  0  0  0  0
 27 31  1  1  0  0  0
 27  3  1  0  0  0  0
 29 26  1  0  0  0  0
 30 26  1  0  0  0  0
 32 37  2  0  0  0  0
 32 33  1  0  0  0  0
 33 34  2  0  0  0  0
 34 35  1  0  0  0  0
 34 40  1  0  0  0  0
 36 25  1  0  0  0  0
 36 35  2  0  0  0  0
 37 36  1  0  0  0  0
 38 32  1  0  0  0  0
 39 33  1  0  0  0  0
M  END
>  <minimizedAffinity>
-5.92520237

$$$$

 OpenBabel03272508593D

 40 43  0  0  1  0  0  0  0  0999 V2000
   37.6860   27.2120   34.3860 C   0  0  0  0  0  0  0  0  0  0  0  0
   37.1650   26.4790   35.2330 O   0  0  0  0  0  0  0  0  0  0  0  0
   39.1270   27.4220   34.3660 N   0  0  0  0  0  0  0  0  0  0  0  0
   39.5970   28.1630   33.8250 H   0  0  0  0  0  0  0  0  0  0  0  0
   36.8960   27.9170   33.3540 C   0  0  0  0  0  0  0  0  0  0  0  0
   37.1240   27.6540   32.0320 C   0  0  0  0  0  0  0  0  0  0  0  0
   36.3710   28.3310   31.0950 C   0  0  0  0  0  0  0  0  0  0  0  0
   35.4310   29.2360   31.5540 C   0  0  0  0  0  0  0  0  0  0  0  0
   35.1890   29.5110   32.8950 C   0  0  0  0  0  0  0  0  0  0  0  0
   35.9560   28.8180   33.7500 N   0  0  0  0  0  0  0  0  0  0  0  0
   37.8610   26.9450   31.6940 H   0  0  0  0  0  0  0  0  0  0  0  0
   36.5270   28.1460   30.0460 H   0  0  0  0  0  0  0  0  0  0  0  0
   34.8770   29.7310   30.7700 H   0  0  0  0  0  0  0  0  0  0  0  0
   34.1820   30.4720   33.3030 C   0  0  0  0  0  0  0  0  0  0  0  0
   33.1490   30.5920   32.6090 O   0  0  0  0  0  0  0  0  0  0  0  0
   34.2420   31.3210   34.4370 N   0  0  0  0  0  0  0  0  0  0  0  0
   34.8460   32.6290   34.2800 C   0  0  0  0  0  3  0  0  0  0  0  0
   35.0040   32.8630   33.2280 H   0  0  0  0  0  0  0  0  0  0  0  0
   36.1740   32.5930   35.0040 C   0  0  0  0  0  3  0  0  0  0  0  0
   36.4450   33.6320   35.3090 H   0  0  0  0  0  0  0  0  0  0  0  0
   36.0770   31.7650   36.1890 N   0  0  0  0  0  0  0  0  0  0  0  0
   36.7040   32.1100   36.9410 H   0  0  0  0  0  0  0  0  0  0  0  0
   34.7030   31.8330   36.7080 C   0  0  0  0  0  2  0  0  0  0  0  0
   33.7660   31.0480   35.7790 C   0  0  0  0  0  2  0  0  0  0  0  0
   40.3190   25.2560   34.6390 C   0  0  2  0  0  0  0  0  0  0  0  0
   41.3580   26.3170   34.5750 C   0  0  0  0  0  0  0  0  0  0  0  0
   39.9440   26.5320   35.1540 C   0  0  1  0  0  0  0  0  0  0  0  0
   39.9550   24.9000   33.6540 H   0  0  0  0  0  0  0  0  0  0  0  0
   42.2090   26.2440   35.2650 H   0  0  0  0  0  0  0  0  0  0  0  0
   41.5780   26.7560   33.6020 H   0  0  0  0  0  0  0  0  0  0  0  0
   39.9730   26.7040   36.2520 H   0  0  0  0  0  0  0  0  0  0  0  0
   39.5170   22.5640   37.0790 C   0  0  0  0  0  0  0  0  0  0  0  0
   40.8080   21.9720   37.2830 C   0  0  0  0  0  0  0  0  0  0  0  0
   41.9450   22.5290   36.5700 C   0  0  0  0  0  0  0  0  0  0  0  0
   41.7470   23.5960   35.7320 N   0  0  0  0  0  0  0  0  0  0  0  0
   40.4860   24.1000   35.5940 C   0  0  0  0  0  0  0  0  0  0  0  0
   39.3580   23.6130   36.2460 N   0  0  0  0  0  0  0  0  0  0  0  0
   38.7210   22.1120   37.6280 H   0  0  0  0  0  0  0  0  0  0  0  0
   40.9560   21.1390   37.9380 H   0  0  0  0  0  0  0  0  0  0  0  0
   42.8940   22.0840   36.7300 H   0  0  0  0  0  0  0  0  0  0  0  0
  1  2  2  0  0  0  0
  3  1  1  0  0  0  0
  3 27  1  0  0  0  0
  4  3  1  0  0  0  0
  5 10  1  0  0  0  0
  5  1  1  0  0  0  0
  6  5  2  0  0  0  0
  7  8  2  0  0  0  0
  7  6  1  0  0  0  0
  8  9  1  0  0  0  0
  9 14  1  0  0  0  0
  9 10  2  0  0  0  0
 11  6  1  0  0  0  0
 12  7  1  0  0  0  0
 13  8  1  0  0  0  0
 14 16  1  0  0  0  0
 15 14  2  0  0  0  0
 16 24  1  0  0  0  0
 17 16  1  0  0  0  0
 17 19  1  0  0  0  0
 18 17  1  0  0  0  0
 19 20  1  0  0  0  0
 19 21  1  0  0  0  0
 21 23  1  0  0  0  0
 21 22  1  0  0  0  0
 24 23  1  0  0  0  0
 25 28  1  6  0  0  0
 25 27  1  0  0  0  0
 25 36  1  0  0  0  0
 26 25  1  0  0  0  0
 26 27  1  0  0  0  0
 26 29  1  0  0  0  0
 27 31  1  1  0  0  0
 30 26  1  0  0  0  0
 32 33  1  0  0  0  0
 32 38  1  0  0  0  0
 33 39  1  0  0  0  0
 34 40  1  0  0  0  0
 34 33  2  0  0  0  0
 35 34  1  0  0  0  0
 36 35  2  0  0  0  0
 36 37  1  0  0  0  0
 37 32  2  0  0  0  0
M  END
>  <minimizedAffinity>
-5.64207792

$$$$

 OpenBabel03272508593D

 40 43  0  0  1  0  0  0  0  0999 V2000
   37.1290   26.0910   32.6100 C   0  0  0  0  0  0  0  0  0  0  0  0
   37.4050   25.7280   33.7580 O   0  0  0  0  0  0  0  0  0  0  0  0
   37.2340   25.1650   31.4900 N   0  0  0  0  0  0  0  0  0  0  0  0
   37.2140   25.4500   30.4990 H   0  0  0  0  0  0  0  0  0  0  0  0
   36.6820   27.4650   32.2980 C   0  0  0  0  0  0  0  0  0  0  0  0
   36.9420   27.9960   31.0650 C   0  0  0  0  0  0  0  0  0  0  0  0
   36.5130   29.2820   30.8080 C   0  0  0  0  0  0  0  0  0  0  0  0
   35.8460   29.9540   31.8170 C   0  0  0  0  0  0  0  0  0  0  0  0
   35.5760   29.4240   33.0740 C   0  0  0  0  0  0  0  0  0  0  0  0
   36.0210   28.1720   33.2540 N   0  0  0  0  0  0  0  0  0  0  0  0
   37.4620   27.4570   30.2910 H   0  0  0  0  0  0  0  0  0  0  0  0
   36.7020   29.7290   29.8470 H   0  0  0  0  0  0  0  0  0  0  0  0
   35.5390   30.9550   31.5510 H   0  0  0  0  0  0  0  0  0  0  0  0
   34.8680   30.1880   34.0830 C   0  0  0  0  0  0  0  0  0  0  0  0
   35.4960   30.5770   35.0930 O   0  0  0  0  0  0  0  0  0  0  0  0
   33.4980   30.5520   34.0540 N   0  0  0  0  0  0  0  0  0  0  0  0
   32.5370   29.6440   34.6460 C   0  0  0  0  0  3  0  0  0  0  0  0
   33.0370   28.8670   35.2230 H   0  0  0  0  0  0  0  0  0  0  0  0
   31.7610   29.0180   33.5080 C   0  0  0  0  0  3  0  0  0  0  0  0
   30.7600   28.7020   33.8870 H   0  0  0  0  0  0  0  0  0  0  0  0
   31.5760   29.9790   32.4400 N   0  0  0  0  0  0  0  0  0  0  0  0
   30.6800   29.8180   31.9400 H   0  0  0  0  0  0  0  0  0  0  0  0
   31.5110   31.3300   33.0170 C   0  0  0  0  0  2  0  0  0  0  0  0
   32.9080   31.7510   33.4910 C   0  0  0  0  0  2  0  0  0  0  0  0
   36.6810   22.7870   31.0170 C   0  0  2  0  0  0  0  0  0  0  0  0
   38.1230   22.9670   30.7000 C   0  0  0  0  0  0  0  0  0  0  0  0
   37.3760   23.7620   31.7930 C   0  0  1  0  0  0  0  0  0  0  0  0
   35.9850   23.0810   30.2060 H   0  0  0  0  0  0  0  0  0  0  0  0
   38.8170   22.1730   31.0020 H   0  0  0  0  0  0  0  0  0  0  0  0
   38.3790   23.4920   29.7800 H   0  0  0  0  0  0  0  0  0  0  0  0
   37.7330   23.4930   32.8100 H   0  0  0  0  0  0  0  0  0  0  0  0
   35.6450   19.2480   31.5120 C   0  0  0  0  0  0  0  0  0  0  0  0
   35.4150   19.2150   32.9280 C   0  0  0  0  0  0  0  0  0  0  0  0
   35.6170   20.4350   33.6900 C   0  0  0  0  0  0  0  0  0  0  0  0
   36.0180   21.5700   33.0350 N   0  0  0  0  0  0  0  0  0  0  0  0
   36.2140   21.5170   31.6850 C   0  0  0  0  0  0  0  0  0  0  0  0
   36.0390   20.3830   30.8990 N   0  0  0  0  0  0  0  0  0  0  0  0
   35.4810   18.3230   31.0060 H   0  0  0  0  0  0  0  0  0  0  0  0
   35.1030   18.3250   33.4340 H   0  0  0  0  0  0  0  0  0  0  0  0
   35.4440   20.3980   34.7360 H   0  0  0  0  0  0  0  0  0  0  0  0
  1  2  2  0  0  0  0
  3 27  1  0  0  0  0
  3  1  1  0  0  0  0
  4  3  1  0  0  0  0
  5  1  1  0  0  0  0
  5 10  1  0  0  0  0
  6  5  2  0  0  0  0
  7  6  1  0  0  0  0
  7  8  2  0  0  0  0
  8  9  1  0  0  0  0
  9 10  2  0  0  0  0
  9 14  1  0  0  0  0
 11  6  1  0  0  0  0
 12  7  1  0  0  0  0
 13  8  1  0  0  0  0
 14 15  2  0  0  0  0
 16 14  1  0  0  0  0
 16 17  1  0  0  0  0
 17 18  1  0  0  0  0
 19 20  1  0  0  0  0
 19 17  1  0  0  0  0
 21 23  1  0  0  0  0
 21 19  1  0  0  0  0
 22 21  1  0  0  0  0
 23 24  1  0  0  0  0
 24 16  1  0  0  0  0
 25 28  1  6  0  0  0
 25 36  1  0  0  0  0
 25 27  1  0  0  0  0
 26 29  1  0  0  0  0
 26 25  1  0  0  0  0
 26 27  1  0  0  0  0
 27 31  1  1  0  0  0
 30 26  1  0  0  0  0
 32 33  1  0  0  0  0
 33 39  1  0  0  0  0
 33 34  2  0  0  0  0
 34 40  1  0  0  0  0
 35 34  1  0  0  0  0
 36 35  2  0  0  0  0
 37 32  2  0  0  0  0
 37 36  1  0  0  0  0
 38 32  1  0  0  0  0
M  END
>  <minimizedAffinity>
-5.61388826

$$$$

 OpenBabel03272508593D

 40 43  0  0  1  0  0  0  0  0999 V2000
   35.1640   29.9760   33.9240 C   0  0  0  0  0  0  0  0  0  0  0  0
   34.3120   30.4050   33.1370 O   0  0  0  0  0  0  0  0  0  0  0  0
   35.4790   30.7000   35.1470 N   0  0  0  0  0  0  0  0  0  0  0  0
   36.3040   30.5100   35.7370 H   0  0  0  0  0  0  0  0  0  0  0  0
   35.9080   28.7220   33.6810 C   0  0  0  0  0  0  0  0  0  0  0  0
   35.8250   28.1130   32.4590 C   0  0  0  0  0  0  0  0  0  0  0  0
   36.5300   26.9430   32.2680 C   0  0  0  0  0  0  0  0  0  0  0  0
   37.2780   26.4590   33.3260 C   0  0  0  0  0  0  0  0  0  0  0  0
   37.3710   27.0700   34.5720 C   0  0  0  0  0  0  0  0  0  0  0  0
   36.6600   28.2020   34.6880 N   0  0  0  0  0  0  0  0  0  0  0  0
   35.2370   28.5050   31.6470 H   0  0  0  0  0  0  0  0  0  0  0  0
   36.4860   26.4390   31.3170 H   0  0  0  0  0  0  0  0  0  0  0  0
   37.8050   25.5410   33.1100 H   0  0  0  0  0  0  0  0  0  0  0  0
   38.1790   26.5050   35.6360 C   0  0  0  0  0  0  0  0  0  0  0  0
   38.6770   27.2760   36.4860 O   0  0  0  0  0  0  0  0  0  0  0  0
   38.4810   25.1330   35.8240 N   0  0  0  0  0  0  0  0  0  0  0  0
   39.6700   24.6020   35.1890 C   0  0  0  0  0  3  0  0  0  0  0  0
   40.2950   25.4030   34.7960 H   0  0  0  0  0  0  0  0  0  0  0  0
   39.2060   23.7110   34.0570 C   0  0  0  0  0  3  0  0  0  0  0  0
   39.9960   22.9500   33.8520 H   0  0  0  0  0  0  0  0  0  0  0  0
   37.9810   23.0300   34.4240 N   0  0  0  0  0  0  0  0  0  0  0  0
   37.9230   22.0940   33.9780 H   0  0  0  0  0  0  0  0  0  0  0  0
   37.9710   22.8160   35.8790 C   0  0  0  0  0  2  0  0  0  0  0  0
   37.7340   24.1550   36.5910 C   0  0  0  0  0  2  0  0  0  0  0  0
   33.7390   31.5700   36.6960 C   0  0  2  0  0  0  0  0  0  0  0  0
   34.9560   32.3970   36.9050 C   0  0  0  0  0  0  0  0  0  0  0  0
   34.5770   31.7490   35.5560 C   0  0  1  0  0  0  0  0  0  0  0  0
   33.7210   30.6150   37.2580 H   0  0  0  0  0  0  0  0  0  0  0  0
   34.8260   33.4800   37.0290 H   0  0  0  0  0  0  0  0  0  0  0  0
   35.7810   31.9550   37.4640 H   0  0  0  0  0  0  0  0  0  0  0  0
   34.3070   32.5140   34.7970 H   0  0  0  0  0  0  0  0  0  0  0  0
   31.0790   34.1560   36.9940 C   0  0  0  0  0  0  0  0  0  0  0  0
   29.9040   33.3910   36.6890 C   0  0  0  0  0  0  0  0  0  0  0  0
   30.0570   31.9780   36.3910 C   0  0  0  0  0  0  0  0  0  0  0  0
   31.3110   31.4240   36.4120 N   0  0  0  0  0  0  0  0  0  0  0  0
   32.3780   32.2230   36.7130 C   0  0  0  0  0  0  0  0  0  0  0  0
   32.2990   33.5800   37.0060 N   0  0  0  0  0  0  0  0  0  0  0  0
   30.9050   35.1880   37.2040 H   0  0  0  0  0  0  0  0  0  0  0  0
   28.9280   33.8290   36.6730 H   0  0  0  0  0  0  0  0  0  0  0  0
   29.1810   31.4230   36.1670 H   0  0  0  0  0  0  0  0  0  0  0  0
  1  3  1  0  0  0  0
  2  1  2  0  0  0  0
  3 27  1  0  0  0  0
  3  4  1  0  0  0  0
  5  1  1  0  0  0  0
  5 10  1  0  0  0  0
  6  5  2  0  0  0  0
  7  6  1  0  0  0  0
  7  8  2  0  0  0  0
  8  9  1  0  0  0  0
  9 10  2  0  0  0  0
  9 14  1  0  0  0  0
 11  6  1  0  0  0  0
 12  7  1  0  0  0  0
 13  8  1  0  0  0  0
 14 16  1  0  0  0  0
 14 15  2  0  0  0  0
 16 24  1  0  0  0  0
 17 16  1  0  0  0  0
 18 17  1  0  0  0  0
 19 21  1  0  0  0  0
 19 17  1  0  0  0  0
 20 19  1  0  0  0  0
 21 23  1  0  0  0  0
 22 21  1  0  0  0  0
 23 24  1  0  0  0  0
 25 36  1  0  0  0  0
 25 26  1  0  0  0  0
 25 28  1  1  0  0  0
 26 29  1  0  0  0  0
 26 30  1  0  0  0  0
 27 31  1  6  0  0  0
 27 25  1  0  0  0  0
 27 26  1  0  0  0  0
 32 37  1  0  0  0  0
 32 38  1  0  0  0  0
 33 32  2  0  0  0  0
 34 35  2  0  0  0  0
 34 33  1  0  0  0  0
 35 36  1  0  0  0  0
 36 37  2  0  0  0  0
 39 33  1  0  0  0  0
 40 34  1  0  0  0  0
M  END
>  <minimizedAffinity>
-5.58227921

$$$$

 OpenBabel03272508593D

 40 43  0  0  1  0  0  0  0  0999 V2000
   37.8920   25.0870   35.0440 C   0  0  0  0  0  0  0  0  0  0  0  0
   37.1790   26.0880   35.1770 O   0  0  0  0  0  0  0  0  0  0  0  0
   38.2090   24.5680   33.7210 N   0  0  0  0  0  0  0  0  0  0  0  0
   38.6230   23.6400   33.5470 H   0  0  0  0  0  0  0  0  0  0  0  0
   38.4600   24.3600   36.1990 C   0  0  0  0  0  0  0  0  0  0  0  0
   37.8090   24.3870   37.4010 C   0  0  0  0  0  0  0  0  0  0  0  0
   38.3690   23.7000   38.4580 C   0  0  0  0  0  0  0  0  0  0  0  0
   39.5570   23.0260   38.2350 C   0  0  0  0  0  0  0  0  0  0  0  0
   40.2270   22.9910   37.0170 C   0  0  0  0  0  0  0  0  0  0  0  0
   39.6270   23.6790   36.0350 N   0  0  0  0  0  0  0  0  0  0  0  0
   36.8860   24.9180   37.5560 H   0  0  0  0  0  0  0  0  0  0  0  0
   37.8810   23.7020   39.4180 H   0  0  0  0  0  0  0  0  0  0  0  0
   39.9400   22.5100   39.1030 H   0  0  0  0  0  0  0  0  0  0  0  0
   41.4680   22.2590   36.8550 C   0  0  0  0  0  0  0  0  0  0  0  0
   41.6580   21.2350   37.5500 O   0  0  0  0  0  0  0  0  0  0  0  0
   42.5270   22.5850   35.9700 N   0  0  0  0  0  0  0  0  0  0  0  0
   43.5760   23.4590   36.4550 C   0  0  0  0  0  3  0  0  0  0  0  0
   43.5040   23.5960   37.5330 H   0  0  0  0  0  0  0  0  0  0  0  0
   43.4020   24.7890   35.7550 C   0  0  0  0  0  3  0  0  0  0  0  0
   44.3890   25.3090   35.7210 H   0  0  0  0  0  0  0  0  0  0  0  0
   42.9330   24.5850   34.4000 N   0  0  0  0  0  0  0  0  0  0  0  0
   43.2900   25.3230   33.7630 H   0  0  0  0  0  0  0  0  0  0  0  0
   43.4470   23.3000   33.9040 C   0  0  0  0  0  2  0  0  0  0  0  0
   42.7070   22.1500   34.5990 C   0  0  0  0  0  2  0  0  0  0  0  0
   38.6780   26.6020   32.3700 C   0  0  2  0  0  0  0  0  0  0  0  0
   39.0550   25.4320   31.5340 C   0  0  0  0  0  0  0  0  0  0  0  0
   37.9250   25.4110   32.5850 C   0  0  1  0  0  0  0  0  0  0  0  0
   39.4550   26.9340   33.0860 H   0  0  0  0  0  0  0  0  0  0  0  0
   38.7890   25.4550   30.4690 H   0  0  0  0  0  0  0  0  0  0  0  0
   39.9810   24.9110   31.7770 H   0  0  0  0  0  0  0  0  0  0  0  0
   36.9260   25.3050   32.1100 H   0  0  0  0  0  0  0  0  0  0  0  0
   37.8460   29.2890   29.9330 C   0  0  0  0  0  0  0  0  0  0  0  0
   36.7250   29.9160   30.5730 C   0  0  0  0  0  0  0  0  0  0  0  0
   36.2800   29.3950   31.8550 C   0  0  0  0  0  0  0  0  0  0  0  0
   36.9420   28.3290   32.4060 N   0  0  0  0  0  0  0  0  0  0  0  0
   38.0010   27.7910   31.7320 C   0  0  0  0  0  0  0  0  0  0  0  0
   38.4750   28.2410   30.5040 N   0  0  0  0  0  0  0  0  0  0  0  0
   38.1250   29.7140   28.9950 H   0  0  0  0  0  0  0  0  0  0  0  0
   36.2110   30.7470   30.1370 H   0  0  0  0  0  0  0  0  0  0  0  0
   35.4510   29.8670   32.3190 H   0  0  0  0  0  0  0  0  0  0  0  0
  1  2  2  0  0  0  0
  1  5  1  0  0  0  0
  3  1  1  0  0  0  0
  4  3  1  0  0  0  0
  5  6  1  0  0  0  0
  6 11  1  0  0  0  0
  6  7  2  0  0  0  0
  7 12  1  0  0  0  0
  8  7  1  0  0  0  0
  8 13  1  0  0  0  0
  9  8  2  0  0  0  0
 10  5  2  0  0  0  0
 10  9  1  0  0  0  0
 14  9  1  0  0  0  0
 14 15  2  0  0  0  0
 16 17  1  0  0  0  0
 16 14  1  0  0  0  0
 17 18  1  0  0  0  0
 19 17  1  0  0  0  0
 20 19  1  0  0  0  0
 21 19  1  0  0  0  0
 22 21  1  0  0  0  0
 23 21  1  0  0  0  0
 23 24  1  0  0  0  0
 24 16  1  0  0  0  0
 25 27  1  0  0  0  0
 25 28  1  1  0  0  0
 26 30  1  0  0  0  0
 26 25  1  0  0  0  0
 26 27  1  0  0  0  0
 27 31  1  6  0  0  0
 27  3  1  0  0  0  0
 29 26  1  0  0  0  0
 32 37  2  0  0  0  0
 32 33  1  0  0  0  0
 33 34  2  0  0  0  0
 34 40  1  0  0  0  0
 34 35  1  0  0  0  0
 36 25  1  0  0  0  0
 36 35  2  0  0  0  0
 37 36  1  0  0  0  0
 38 32  1  0  0  0  0
 39 33  1  0  0  0  0
M  END
>  <minimizedAffinity>
-5.5425992

$$$$

 OpenBabel03272508593D

 40 43  0  0  1  0  0  0  0  0999 V2000
   37.0680   26.1560   32.6170 C   0  0  0  0  0  0  0  0  0  0  0  0
   37.4820   25.8010   33.7260 O   0  0  0  0  0  0  0  0  0  0  0  0
   37.0500   25.2260   31.4960 N   0  0  0  0  0  0  0  0  0  0  0  0
   36.9100   25.5050   30.5140 H   0  0  0  0  0  0  0  0  0  0  0  0
   36.5720   27.5240   32.3550 C   0  0  0  0  0  0  0  0  0  0  0  0
   36.7520   28.0820   31.1200 C   0  0  0  0  0  0  0  0  0  0  0  0
   36.2790   29.3610   30.9110 C   0  0  0  0  0  0  0  0  0  0  0  0
   35.6530   29.9990   31.9660 C   0  0  0  0  0  0  0  0  0  0  0  0
   35.4640   29.4410   33.2260 C   0  0  0  0  0  0  0  0  0  0  0  0
   35.9480   28.1970   33.3590 N   0  0  0  0  0  0  0  0  0  0  0  0
   37.2420   27.5690   30.3100 H   0  0  0  0  0  0  0  0  0  0  0  0
   36.4050   29.8290   29.9490 H   0  0  0  0  0  0  0  0  0  0  0  0
   35.3080   30.9970   31.7350 H   0  0  0  0  0  0  0  0  0  0  0  0
   34.7940   30.1700   34.2850 C   0  0  0  0  0  0  0  0  0  0  0  0
   33.8280   29.6290   34.8690 O   0  0  0  0  0  0  0  0  0  0  0  0
   35.1190   31.4700   34.7470 N   0  0  0  0  0  0  0  0  0  0  0  0
   34.4720   32.6010   34.1130 C   0  0  0  0  0  3  0  0  0  0  0  0
   33.6530   32.2760   33.4740 H   0  0  0  0  0  0  0  0  0  0  0  0
   35.5250   33.3020   33.2810 C   0  0  0  0  0  3  0  0  0  0  0  0
   35.2340   34.3730   33.1630 H   0  0  0  0  0  0  0  0  0  0  0  0
   36.8130   33.2340   33.9410 N   0  0  0  0  0  0  0  0  0  0  0  0
   37.3860   34.0740   33.7320 H   0  0  0  0  0  0  0  0  0  0  0  0
   36.6040   33.2030   35.3950 C   0  0  0  0  0  2  0  0  0  0  0  0
   36.0440   31.8340   35.8030 C   0  0  0  0  0  2  0  0  0  0  0  0
   36.5650   22.8350   31.0140 C   0  0  2  0  0  0  0  0  0  0  0  0
   37.9940   23.0630   30.6740 C   0  0  0  0  0  0  0  0  0  0  0  0
   37.2420   23.8250   31.7850 C   0  0  1  0  0  0  0  0  0  0  0  0
   35.8460   23.1120   30.2170 H   0  0  0  0  0  0  0  0  0  0  0  0
   38.7190   22.2890   30.9570 H   0  0  0  0  0  0  0  0  0  0  0  0
   38.2180   23.6030   29.7530 H   0  0  0  0  0  0  0  0  0  0  0  0
   37.6250   23.5600   32.7940 H   0  0  0  0  0  0  0  0  0  0  0  0
   35.6780   19.2540   31.5030 C   0  0  0  0  0  0  0  0  0  0  0  0
   35.4470   19.2100   32.9190 C   0  0  0  0  0  0  0  0  0  0  0  0
   35.5960   20.4360   33.6830 C   0  0  0  0  0  0  0  0  0  0  0  0
   35.9500   21.5890   33.0300 N   0  0  0  0  0  0  0  0  0  0  0  0
   36.1510   21.5450   31.6790 C   0  0  0  0  0  0  0  0  0  0  0  0
   36.0250   20.4060   30.8920 N   0  0  0  0  0  0  0  0  0  0  0  0
   35.5540   18.3230   30.9960 H   0  0  0  0  0  0  0  0  0  0  0  0
   35.1710   18.3070   33.4230 H   0  0  0  0  0  0  0  0  0  0  0  0
   35.4220   20.3910   34.7280 H   0  0  0  0  0  0  0  0  0  0  0  0
  1  2  2  0  0  0  0
  3 27  1  0  0  0  0
  3  1  1  0  0  0  0
  4  3  1  0  0  0  0
  5  1  1  0  0  0  0
  5 10  1  0  0  0  0
  6  5  2  0  0  0  0
  7  6  1  0  0  0  0
  7  8  2  0  0  0  0
  8  9  1  0  0  0  0
  9 10  2  0  0  0  0
  9 14  1  0  0  0  0
 11  6  1  0  0  0  0
 12  7  1  0  0  0  0
 13  8  1  0  0  0  0
 14 16  1  0  0  0  0
 14 15  2  0  0  0  0
 16 24  1  0  0  0  0
 17 16  1  0  0  0  0
 18 17  1  0  0  0  0
 19 21  1  0  0  0  0
 19 17  1  0  0  0  0
 20 19  1  0  0  0  0
 21 23  1  0  0  0  0
 22 21  1  0  0  0  0
 23 24  1  0  0  0  0
 25 28  1  6  0  0  0
 25 36  1  0  0  0  0
 25 27  1  0  0  0  0
 26 29  1  0  0  0  0
 26 25  1  0  0  0  0
 26 27  1  0  0  0  0
 27 31  1  1  0  0  0
 30 26  1  0  0  0  0
 32 33  1  0  0  0  0
 33 39  1  0  0  0  0
 33 34  2  0  0  0  0
 34 40  1  0  0  0  0
 35 34  1  0  0  0  0
 36 35  2  0  0  0  0
 37 32  2  0  0  0  0
 37 36  1  0  0  0  0
 38 32  1  0  0  0  0
M  END
>  <minimizedAffinity>
-5.5373168

$$$$

 OpenBabel03272508593D

 40 43  0  0  1  0  0  0  0  0999 V2000
   35.7870   25.3340   31.2100 C   0  0  0  0  0  0  0  0  0  0  0  0
   34.7580   25.3960   30.5290 O   0  0  0  0  0  0  0  0  0  0  0  0
   36.5750   26.5280   31.4800 N   0  0  0  0  0  0  0  0  0  0  0  0
   37.5320   26.5160   31.8630 H   0  0  0  0  0  0  0  0  0  0  0  0
   36.2810   24.0650   31.7870 C   0  0  0  0  0  0  0  0  0  0  0  0
   35.7690   22.8780   31.3430 C   0  0  0  0  0  0  0  0  0  0  0  0
   36.2510   21.7130   31.9050 C   0  0  0  0  0  0  0  0  0  0  0  0
   37.2230   21.8210   32.8830 C   0  0  0  0  0  0  0  0  0  0  0  0
   37.7520   23.0230   33.3410 C   0  0  0  0  0  0  0  0  0  0  0  0
   37.2380   24.1140   32.7530 N   0  0  0  0  0  0  0  0  0  0  0  0
   35.0120   22.8130   30.5810 H   0  0  0  0  0  0  0  0  0  0  0  0
   35.8680   20.7610   31.5780 H   0  0  0  0  0  0  0  0  0  0  0  0
   37.5560   20.8730   33.2800 H   0  0  0  0  0  0  0  0  0  0  0  0
   38.7740   23.0600   34.3690 C   0  0  0  0  0  0  0  0  0  0  0  0
   39.2310   21.9790   34.8010 O   0  0  0  0  0  0  0  0  0  0  0  0
   39.3280   24.2230   34.9610 N   0  0  0  0  0  0  0  0  0  0  0  0
   38.6890   24.7570   36.1470 C   0  0  0  0  0  3  0  0  0  0  0  0
   37.9560   24.0570   36.5450 H   0  0  0  0  0  0  0  0  0  0  0  0
   38.0010   26.0420   35.7370 C   0  0  0  0  0  3  0  0  0  0  0  0
   37.9080   26.7000   36.6330 H   0  0  0  0  0  0  0  0  0  0  0  0
   38.7820   26.7290   34.7280 N   0  0  0  0  0  0  0  0  0  0  0  0
   38.6730   27.7590   34.8060 H   0  0  0  0  0  0  0  0  0  0  0  0
   40.2050   26.4280   34.9380 C   0  0  0  0  0  2  0  0  0  0  0  0
   40.4880   24.9770   34.5250 C   0  0  0  0  0  2  0  0  0  0  0  0
   35.6920   28.7220   32.2470 C   0  0  2  0  0  0  0  0  0  0  0  0
   36.9140   29.0040   31.4490 C   0  0  0  0  0  0  0  0  0  0  0  0
   35.9730   27.8070   31.1910 C   0  0  1  0  0  0  0  0  0  0  0  0
   35.8780   28.4580   33.3080 H   0  0  0  0  0  0  0  0  0  0  0  0
   36.8900   29.8560   30.7580 H   0  0  0  0  0  0  0  0  0  0  0  0
   37.8800   28.7970   31.9090 H   0  0  0  0  0  0  0  0  0  0  0  0
   35.4360   27.9110   30.2240 H   0  0  0  0  0  0  0  0  0  0  0  0
   33.5050   31.5430   31.1920 C   0  0  0  0  0  0  0  0  0  0  0  0
   32.2900   31.2370   31.8910 C   0  0  0  0  0  0  0  0  0  0  0  0
   32.2550   30.0520   32.7310 C   0  0  0  0  0  0  0  0  0  0  0  0
   33.3770   29.2700   32.8270 N   0  0  0  0  0  0  0  0  0  0  0  0
   34.4930   29.6320   32.1280 C   0  0  0  0  0  0  0  0  0  0  0  0
   34.5920   30.7510   31.3090 N   0  0  0  0  0  0  0  0  0  0  0  0
   33.4710   32.4240   30.5910 H   0  0  0  0  0  0  0  0  0  0  0  0
   31.4170   31.8510   31.8120 H   0  0  0  0  0  0  0  0  0  0  0  0
   31.3510   29.8360   33.2430 H   0  0  0  0  0  0  0  0  0  0  0  0
  1  3  1  0  0  0  0
  1  5  1  0  0  0  0
  2  1  2  0  0  0  0
  3  4  1  0  0  0  0
  5 10  1  0  0  0  0
  6  5  2  0  0  0  0
  6  7  1  0  0  0  0
  7  8  2  0  0  0  0
  8 13  1  0  0  0  0
  8  9  1  0  0  0  0
  9 14  1  0  0  0  0
 10  9  2  0  0  0  0
 11  6  1  0  0  0  0
 12  7  1  0  0  0  0
 14 15  2  0  0  0  0
 14 16  1  0  0  0  0
 16 17  1  0  0  0  0
 17 18  1  0  0  0  0
 19 17  1  0  0  0  0
 19 20  1  0  0  0  0
 21 22  1  0  0  0  0
 21 23  1  0  0  0  0
 21 19  1  0  0  0  0
 24 23  1  0  0  0  0
 24 16  1  0  0  0  0
 25 28  1  1  0  0  0
 26 30  1  0  0  0  0
 26 25  1  0  0  0  0
 27 31  1  6  0  0  0
 27 26  1  0  0  0  0
 27  3  1  0  0  0  0
 27 25  1  0  0  0  0
 29 26  1  0  0  0  0
 32 37  2  0  0  0  0
 32 33  1  0  0  0  0
 33 34  2  0  0  0  0
 34 35  1  0  0  0  0
 34 40  1  0  0  0  0
 36 25  1  0  0  0  0
 36 35  2  0  0  0  0
 37 36  1  0  0  0  0
 38 32  1  0  0  0  0
 39 33  1  0  0  0  0
M  END
>  <minimizedAffinity>
-5.52401876

$$$$

 OpenBabel03272508593D

 40 43  0  0  1  0  0  0  0  0999 V2000
   38.2010   24.7750   35.3500 C   0  0  0  0  0  0  0  0  0  0  0  0
   37.3950   25.4320   36.0170 O   0  0  0  0  0  0  0  0  0  0  0  0
   38.1070   24.7330   33.8970 N   0  0  0  0  0  0  0  0  0  0  0  0
   38.6120   24.0580   33.3030 H   0  0  0  0  0  0  0  0  0  0  0  0
   39.2970   23.9990   35.9690 C   0  0  0  0  0  0  0  0  0  0  0  0
   39.1000   23.4040   37.1840 C   0  0  0  0  0  0  0  0  0  0  0  0
   40.1440   22.6890   37.7340 C   0  0  0  0  0  0  0  0  0  0  0  0
   41.3270   22.6200   37.0190 C   0  0  0  0  0  0  0  0  0  0  0  0
   41.5380   23.2200   35.7830 C   0  0  0  0  0  0  0  0  0  0  0  0
   40.4820   23.8980   35.3080 N   0  0  0  0  0  0  0  0  0  0  0  0
   38.1720   23.4690   37.7260 H   0  0  0  0  0  0  0  0  0  0  0  0
   40.0210   22.2090   38.6900 H   0  0  0  0  0  0  0  0  0  0  0  0
   42.1020   22.0470   37.5060 H   0  0  0  0  0  0  0  0  0  0  0  0
   42.8060   23.1020   35.0890 C   0  0  0  0  0  0  0  0  0  0  0  0
   42.9900   22.1200   34.3350 O   0  0  0  0  0  0  0  0  0  0  0  0
   43.8980   24.0030   35.1740 N   0  0  0  0  0  0  0  0  0  0  0  0
   44.8970   23.7690   36.1970 C   0  0  0  0  0  3  0  0  0  0  0  0
   44.7680   22.7890   36.6540 H   0  0  0  0  0  0  0  0  0  0  0  0
   44.7210   24.8500   37.2410 C   0  0  0  0  0  3  0  0  0  0  0  0
   45.6930   25.0040   37.7670 H   0  0  0  0  0  0  0  0  0  0  0  0
   44.3240   26.0940   36.6140 N   0  0  0  0  0  0  0  0  0  0  0  0
   44.6920   26.9130   37.1360 H   0  0  0  0  0  0  0  0  0  0  0  0
   44.8990   26.1520   35.2620 C   0  0  0  0  0  2  0  0  0  0  0  0
   44.1570   25.1660   34.3480 C   0  0  0  0  0  2  0  0  0  0  0  0
   37.6600   27.0620   33.1490 C   0  0  2  0  0  0  0  0  0  0  0  0
   37.8190   26.2370   31.9220 C   0  0  0  0  0  0  0  0  0  0  0  0
   37.2510   25.7000   33.2530 C   0  0  1  0  0  0  0  0  0  0  0  0
   38.6080   27.4180   33.5980 H   0  0  0  0  0  0  0  0  0  0  0  0
   37.1310   26.4210   31.0870 H   0  0  0  0  0  0  0  0  0  0  0  0
   38.8270   25.9310   31.6430 H   0  0  0  0  0  0  0  0  0  0  0  0
   36.1730   25.4470   33.1660 H   0  0  0  0  0  0  0  0  0  0  0  0
   35.0470   29.4750   32.0540 C   0  0  0  0  0  0  0  0  0  0  0  0
   34.6770   30.0790   33.3020 C   0  0  0  0  0  0  0  0  0  0  0  0
   35.3540   29.6400   34.5100 C   0  0  0  0  0  0  0  0  0  0  0  0
   36.3180   28.6690   34.4180 N   0  0  0  0  0  0  0  0  0  0  0  0
   36.6110   28.1460   33.1910 C   0  0  0  0  0  0  0  0  0  0  0  0
   36.0010   28.5220   31.9990 N   0  0  0  0  0  0  0  0  0  0  0  0
   34.5160   29.8380   31.2030 H   0  0  0  0  0  0  0  0  0  0  0  0
   33.9240   30.8360   33.3680 H   0  0  0  0  0  0  0  0  0  0  0  0
   35.0730   30.0930   35.4270 H   0  0  0  0  0  0  0  0  0  0  0  0
  1  5  1  0  0  0  0
  1  2  2  0  0  0  0
  3  1  1  0  0  0  0
  4  3  1  0  0  0  0
  5  6  1  0  0  0  0
  6 11  1  0  0  0  0
  6  7  2  0  0  0  0
  7 12  1  0  0  0  0
  8 13  1  0  0  0  0
  8  7  1  0  0  0  0
  9  8  2  0  0  0  0
 10  9  1  0  0  0  0
 10  5  2  0  0  0  0
 14 16  1  0  0  0  0
 14  9  1  0  0  0  0
 15 14  2  0  0  0  0
 16 17  1  0  0  0  0
 17 18  1  0  0  0  0
 17 19  1  0  0  0  0
 19 20  1  0  0  0  0
 21 22  1  0  0  0  0
 21 19  1  0  0  0  0
 23 21  1  0  0  0  0
 24 16  1  0  0  0  0
 24 23  1  0  0  0  0
 25 36  1  0  0  0  0
 25 27  1  0  0  0  0
 25 28  1  1  0  0  0
 26 25  1  0  0  0  0
 26 27  1  0  0  0  0
 27 31  1  1  0  0  0
 27  3  1  0  0  0  0
 29 26  1  0  0  0  0
 30 26  1  0  0  0  0
 32 33  1  0  0  0  0
 33 39  1  0  0  0  0
 33 34  2  0  0  0  0
 34 40  1  0  0  0  0
 35 34  1  0  0  0  0
 36 35  2  0  0  0  0
 37 32  2  0  0  0  0
 37 36  1  0  0  0  0
 38 32  1  0  0  0  0
M  END
>  <minimizedAffinity>
-5.50450325

$$$$

 OpenBabel03272508593D

 40 43  0  0  1  0  0  0  0  0999 V2000
   38.2290   26.7250   33.0460 C   0  0  0  0  0  0  0  0  0  0  0  0
   39.2360   26.9940   33.7100 O   0  0  0  0  0  0  0  0  0  0  0  0
   37.9260   25.3500   32.6750 N   0  0  0  0  0  0  0  0  0  0  0  0
   37.2270   25.0810   31.9670 H   0  0  0  0  0  0  0  0  0  0  0  0
   37.2810   27.7630   32.5870 C   0  0  0  0  0  0  0  0  0  0  0  0
   37.1470   28.0110   31.2490 C   0  0  0  0  0  0  0  0  0  0  0  0
   36.2550   28.9880   30.8560 C   0  0  0  0  0  0  0  0  0  0  0  0
   35.5520   29.6560   31.8430 C   0  0  0  0  0  0  0  0  0  0  0  0
   35.6800   29.4110   33.2060 C   0  0  0  0  0  0  0  0  0  0  0  0
   36.5630   28.4510   33.5160 N   0  0  0  0  0  0  0  0  0  0  0  0
   37.7030   27.4810   30.4950 H   0  0  0  0  0  0  0  0  0  0  0  0
   36.1260   29.2070   29.8100 H   0  0  0  0  0  0  0  0  0  0  0  0
   34.8720   30.4070   31.4680 H   0  0  0  0  0  0  0  0  0  0  0  0
   34.9060   30.1500   34.1850 C   0  0  0  0  0  0  0  0  0  0  0  0
   35.4680   30.5200   35.2400 O   0  0  0  0  0  0  0  0  0  0  0  0
   33.5380   30.5090   34.0780 N   0  0  0  0  0  0  0  0  0  0  0  0
   32.5480   29.5830   34.5910 C   0  0  0  0  0  3  0  0  0  0  0  0
   33.0160   28.7970   35.1810 H   0  0  0  0  0  0  0  0  0  0  0  0
   31.8470   28.9790   33.3930 C   0  0  0  0  0  3  0  0  0  0  0  0
   30.8270   28.6500   33.7030 H   0  0  0  0  0  0  0  0  0  0  0  0
   31.7230   29.9620   32.3360 N   0  0  0  0  0  0  0  0  0  0  0  0
   30.8610   29.8070   31.7780 H   0  0  0  0  0  0  0  0  0  0  0  0
   31.6150   31.2990   32.9360 C   0  0  0  0  0  2  0  0  0  0  0  0
   32.9780   31.7170   33.5050 C   0  0  0  0  0  2  0  0  0  0  0  0
   38.0980   23.6660   34.4970 C   0  0  2  0  0  0  0  0  0  0  0  0
   37.9900   22.9120   33.2210 C   0  0  0  0  0  0  0  0  0  0  0  0
   38.6530   24.3000   33.3470 C   0  0  1  0  0  0  0  0  0  0  0  0
   37.1320   23.9930   34.9290 H   0  0  0  0  0  0  0  0  0  0  0  0
   38.6270   22.0280   33.0900 H   0  0  0  0  0  0  0  0  0  0  0  0
   37.0120   22.8610   32.7420 H   0  0  0  0  0  0  0  0  0  0  0  0
   39.7490   24.2470   33.1720 H   0  0  0  0  0  0  0  0  0  0  0  0
   39.5240   22.9800   37.8650 C   0  0  0  0  0  0  0  0  0  0  0  0
   40.6980   22.2260   37.5280 C   0  0  0  0  0  0  0  0  0  0  0  0
   40.9800   21.9760   36.1250 C   0  0  0  0  0  0  0  0  0  0  0  0
   40.1210   22.4650   35.1760 N   0  0  0  0  0  0  0  0  0  0  0  0
   39.0260   23.1740   35.5810 C   0  0  0  0  0  0  0  0  0  0  0  0
   38.7000   23.4470   36.9050 N   0  0  0  0  0  0  0  0  0  0  0  0
   39.3700   23.1320   38.9100 H   0  0  0  0  0  0  0  0  0  0  0  0
   41.3650   21.8470   38.2740 H   0  0  0  0  0  0  0  0  0  0  0  0
   41.8510   21.4180   35.8890 H   0  0  0  0  0  0  0  0  0  0  0  0
  1  2  2  0  0  0  0
  3  1  1  0  0  0  0
  3 27  1  0  0  0  0
  4  3  1  0  0  0  0
  5  1  1  0  0  0  0
  5 10  1  0  0  0  0
  6  5  2  0  0  0  0
  7  6  1  0  0  0  0
  7  8  2  0  0  0  0
  8  9  1  0  0  0  0
  9 10  2  0  0  0  0
  9 14  1  0  0  0  0
 11  6  1  0  0  0  0
 12  7  1  0  0  0  0
 13  8  1  0  0  0  0
 14 15  2  0  0  0  0
 16 14  1  0  0  0  0
 16 17  1  0  0  0  0
 17 18  1  0  0  0  0
 19 20  1  0  0  0  0
 19 17  1  0  0  0  0
 21 23  1  0  0  0  0
 21 19  1  0  0  0  0
 22 21  1  0  0  0  0
 23 24  1  0  0  0  0
 24 16  1  0  0  0  0
 25 28  1  1  0  0  0
 25 36  1  0  0  0  0
 26 27  1  0  0  0  0
 26 25  1  0  0  0  0
 27 31  1  6  0  0  0
 27 25  1  0  0  0  0
 29 26  1  0  0  0  0
 30 26  1  0  0  0  0
 32 38  1  0  0  0  0
 33 32  1  0  0  0  0
 33 39  1  0  0  0  0
 34 33  2  0  0  0  0
 35 36  2  0  0  0  0
 35 34  1  0  0  0  0
 36 37  1  0  0  0  0
 37 32  2  0  0  0  0
 40 34  1  0  0  0  0
M  END
>  <minimizedAffinity>
-5.49805927

$$$$
