
 OpenBabel03272508583D

 40 43  0  0  1  0  0  0  0  0999 V2000
   38.3600   31.8790   44.5130 C   0  0  0  0  0  0  0  0  0  0  0  0
   37.2640   32.4420   44.4110 O   0  0  0  0  0  0  0  0  0  0  0  0
   38.9310   31.5900   45.8210 N   0  0  0  0  0  0  0  0  0  0  0  0
   39.9110   31.3110   45.9770 H   0  0  0  0  0  0  0  0  0  0  0  0
   39.1530   31.4680   43.3350 C   0  0  0  0  0  0  0  0  0  0  0  0
   40.1360   30.5300   43.4770 C   0  0  0  0  0  0  0  0  0  0  0  0
   40.8590   30.1720   42.3570 C   0  0  0  0  0  0  0  0  0  0  0  0
   40.5420   30.7870   41.1590 C   0  0  0  0  0  0  0  0  0  0  0  0
   39.5440   31.7430   41.0030 C   0  0  0  0  0  0  0  0  0  0  0  0
   38.8820   32.0420   42.1310 N   0  0  0  0  0  0  0  0  0  0  0  0
   40.3690   30.0610   44.4180 H   0  0  0  0  0  0  0  0  0  0  0  0
   41.6410   29.4350   42.4360 H   0  0  0  0  0  0  0  0  0  0  0  0
   41.1450   30.4620   40.3240 H   0  0  0  0  0  0  0  0  0  0  0  0
   39.2640   32.3440   39.7130 C   0  0  0  0  0  0  0  0  0  0  0  0
   38.6380   33.4270   39.6780 O   0  0  0  0  0  0  0  0  0  0  0  0
   39.6310   31.8230   38.4460 N   0  0  0  0  0  0  0  0  0  0  0  0
   38.7010   30.9340   37.7790 C   0  0  0  0  0  3  0  0  0  0  0  0
   37.7310   30.9380   38.2750 H   0  0  0  0  0  0  0  0  0  0  0  0
   39.3000   29.5450   37.8370 C   0  0  0  0  0  3  0  0  0  0  0  0
   38.8990   28.9460   36.9850 H   0  0  0  0  0  0  0  0  0  0  0  0
   40.7430   29.6170   37.7230 N   0  0  0  0  0  0  0  0  0  0  0  0
   41.1240   28.7780   37.2440 H   0  0  0  0  0  0  0  0  0  0  0  0
   41.1010   30.7820   36.9020 C   0  0  0  0  0  2  0  0  0  0  0  0
   40.8510   32.0680   37.7030 C   0  0  0  0  0  2  0  0  0  0  0  0
   38.4290   31.0920   48.2050 C   0  0  2  0  0  0  0  0  0  0  0  0
   38.6610   32.5570   48.1090 C   0  0  0  0  0  0  0  0  0  0  0  0
   38.0650   31.7040   46.9700 C   0  0  1  0  0  0  0  0  0  0  0  0
   39.3480   30.4790   48.3000 H   0  0  0  0  0  0  0  0  0  0  0  0
   37.9970   33.2200   48.6790 H   0  0  0  0  0  0  0  0  0  0  0  0
   39.6890   32.9030   47.9970 H   0  0  0  0  0  0  0  0  0  0  0  0
   37.0000   31.9580   46.7820 H   0  0  0  0  0  0  0  0  0  0  0  0
   35.0560   30.2360   49.5240 C   0  0  0  0  0  0  0  0  0  0  0  0
   35.3930   29.5510   50.7400 C   0  0  0  0  0  0  0  0  0  0  0  0
   36.7960   29.4070   51.0870 C   0  0  0  0  0  0  0  0  0  0  0  0
   37.7470   29.9260   50.2470 N   0  0  0  0  0  0  0  0  0  0  0  0
   37.3420   30.5630   49.1090 C   0  0  0  0  0  0  0  0  0  0  0  0
   36.0180   30.7350   48.7200 N   0  0  0  0  0  0  0  0  0  0  0  0
   34.0110   30.3100   49.3230 H   0  0  0  0  0  0  0  0  0  0  0  0
   34.6460   29.1480   51.3920 H   0  0  0  0  0  0  0  0  0  0  0  0
   37.0320   28.9000   51.9890 H   0  0  0  0  0  0  0  0  0  0  0  0
  1  3  1  0  0  0  0
  2  1  2  0  0  0  0
  3  4  1  0  0  0  0
  3 27  1  0  0  0  0
  5  6  1  0  0  0  0
  5  1  1  0  0  0  0
  6 11  1  0  0  0  0
  7 12  1  0  0  0  0
  7  6  2  0  0  0  0
  8  7  1  0  0  0  0
  9  8  2  0  0  0  0
  9 10  1  0  0  0  0
 10  5  2  0  0  0  0
 13  8  1  0  0  0  0
 14  9  1  0  0  0  0
 15 14  2  0  0  0  0
 16 14  1  0  0  0  0
 17 19  1  0  0  0  0
 17 18  1  0  0  0  0
 17 16  1  0  0  0  0
 20 19  1  0  0  0  0
 21 19  1  0  0  0  0
 22 21  1  0  0  0  0
 23 24  1  0  0  0  0
 23 21  1  0  0  0  0
 24 16  1  0  0  0  0
 25 28  1  6  0  0  0
 25 36  1  0  0  0  0
 26 25  1  0  0  0  0
 26 29  1  0  0  0  0
 27 31  1  6  0  0  0
 27 26  1  0  0  0  0
 27 25  1  0  0  0  0
 30 26  1  0  0  0  0
 32 33  1  0  0  0  0
 33 34  2  0  0  0  0
 33 39  1  0  0  0  0
 34 40  1  0  0  0  0
 35 34  1  0  0  0  0
 36 35  2  0  0  0  0
 37 36  1  0  0  0  0
 37 32  2  0  0  0  0
 38 32  1  0  0  0  0
M  END
>  <minimizedAffinity>
-5.23883581

>  <minimizedRMSD>
0.382731676

$$$$
