
 OpenBabel03272507313D

 29 31  0  0  0  0  0  0  0  0999 V2000
   37.0740   26.6770   33.2230 C   0  0  0  0  0  0  0  0  0  0  0  0
   37.0940   27.4730   34.3430 C   0  0  0  0  0  0  0  0  0  0  0  0
   38.0990   26.9600   35.1780 C   0  0  0  0  0  0  0  0  0  0  0  0
   38.6210   25.8730   34.4900 C   0  0  0  0  0  0  0  0  0  0  0  0
   37.9940   25.7550   33.3680 O   0  0  0  0  0  0  0  0  0  0  0  0
   36.5050   28.3370   34.6240 H   0  0  0  0  0  0  0  0  0  0  0  0
   38.4290   27.2970   36.1450 H   0  0  0  0  0  0  0  0  0  0  0  0
   39.7090   25.0390   35.0130 C   0  0  0  0  0  0  0  0  0  0  0  0
   40.9080   25.2440   34.6910 O   0  0  0  0  0  0  0  0  0  0  0  0
   39.5150   23.9570   35.9040 N   0  0  0  0  0  0  0  0  0  0  0  0
   40.7650   23.3450   36.2290 C   0  0  0  0  0  3  0  0  0  0  0  0
   41.2860   22.8990   35.3320 H   0  0  0  0  0  0  0  0  0  0  0  0
   40.4460   22.1400   37.1220 C   0  0  0  0  0  3  0  0  0  0  0  0
   41.4140   21.7440   37.4830 H   0  0  0  0  0  0  0  0  0  0  0  0
   39.7000   22.5600   38.2680 N   0  0  0  0  0  0  0  0  0  0  0  0
   40.3520   23.0850   38.8970 H   0  0  0  0  0  0  0  0  0  0  0  0
   38.5480   23.3660   38.0020 C   0  0  0  0  0  2  0  0  0  0  0  0
   38.3000   23.4280   36.4880 C   0  0  0  0  0  2  0  0  0  0  0  0
   36.1500   26.9110   32.1290 C   0  0  0  0  0  0  0  0  0  0  0  0
   35.6140   25.9270   31.5720 O   0  0  0  0  0  0  0  0  0  0  0  0
   35.9080   28.2870   31.7520 C   0  0  0  0  0  0  0  0  0  0  0  0
   36.8290   28.8610   30.8760 C   0  0  0  0  0  0  0  0  0  0  0  0
   36.6220   30.1940   30.4910 C   0  0  0  0  0  0  0  0  0  0  0  0
   35.5330   30.8540   30.9960 N   0  0  0  0  0  0  0  0  0  0  0  0
   34.6650   30.2580   31.8450 C   0  0  0  0  0  0  0  0  0  0  0  0
   34.8590   28.9940   32.2110 N   0  0  0  0  0  0  0  0  0  0  0  0
   37.6960   28.3850   30.4540 H   0  0  0  0  0  0  0  0  0  0  0  0
   37.3170   30.6690   29.8130 H   0  0  0  0  0  0  0  0  0  0  0  0
   33.8500   30.8940   32.1670 H   0  0  0  0  0  0  0  0  0  0  0  0
  1  5  1  0  0  0  0
  1  2  2  0  0  0  0
  2  6  1  0  0  0  0
  2  3  1  0  0  0  0
  3  7  1  0  0  0  0
  4  8  1  0  0  0  0
  4  3  2  0  0  0  0
  5  4  1  0  0  0  0
  8 10  1  0  0  0  0
  9  8  2  0  0  0  0
 10 11  1  0  0  0  0
 10 18  1  0  0  0  0
 11 13  1  0  0  0  0
 12 11  1  0  0  0  0
 13 14  1  0  0  0  0
 13 15  1  0  0  0  0
 15 16  1  0  0  0  0
 17 15  1  0  0  0  0
 18 17  1  0  0  0  0
 19  1  1  0  0  0  0
 20 19  2  0  0  0  0
 21 19  1  0  0  0  0
 21 26  1  0  0  0  0
 22 21  2  0  0  0  0
 23 22  1  0  0  0  0
 23 24  2  0  0  0  0
 24 25  1  0  0  0  0
 25 29  1  0  0  0  0
 25 26  2  0  0  0  0
 27 22  1  0  0  0  0
 28 23  1  0  0  0  0
M  END
>  <minimizedAffinity>
-5.42640162

$$$$

 OpenBabel03272507313D

 29 31  0  0  0  0  0  0  0  0999 V2000
   38.5980   25.0310   35.7290 C   0  0  0  0  0  0  0  0  0  0  0  0
   38.3710   26.2470   36.3290 C   0  0  0  0  0  0  0  0  0  0  0  0
   38.4900   27.2160   35.3210 C   0  0  0  0  0  0  0  0  0  0  0  0
   38.7860   26.5020   34.1660 C   0  0  0  0  0  0  0  0  0  0  0  0
   38.8360   25.2460   34.4590 O   0  0  0  0  0  0  0  0  0  0  0  0
   38.1400   26.5140   37.3520 H   0  0  0  0  0  0  0  0  0  0  0  0
   38.3850   28.2850   35.3780 H   0  0  0  0  0  0  0  0  0  0  0  0
   38.9950   27.1380   32.8610 C   0  0  0  0  0  0  0  0  0  0  0  0
   40.1500   27.3600   32.4140 O   0  0  0  0  0  0  0  0  0  0  0  0
   37.9440   27.5490   32.0060 N   0  0  0  0  0  0  0  0  0  0  0  0
   38.4690   28.1320   30.8120 C   0  0  0  0  0  3  0  0  0  0  0  0
   39.0750   29.0650   31.0030 H   0  0  0  0  0  0  0  0  0  0  0  0
   37.2660   28.6210   29.9960 C   0  0  0  0  0  3  0  0  0  0  0  0
   37.6580   28.9520   29.0150 H   0  0  0  0  0  0  0  0  0  0  0  0
   36.3620   27.5400   29.7550 N   0  0  0  0  0  0  0  0  0  0  0  0
   36.8080   26.9020   29.0550 H   0  0  0  0  0  0  0  0  0  0  0  0
   35.9730   26.7830   30.9050 C   0  0  0  0  0  2  0  0  0  0  0  0
   36.5090   27.4610   32.1740 C   0  0  0  0  0  2  0  0  0  0  0  0
   38.5560   23.7860   36.4750 C   0  0  0  0  0  0  0  0  0  0  0  0
   37.5310   23.5190   37.1430 O   0  0  0  0  0  0  0  0  0  0  0  0
   39.7170   22.9270   36.3930 C   0  0  0  0  0  0  0  0  0  0  0  0
   40.2720   22.5190   37.6060 C   0  0  0  0  0  0  0  0  0  0  0  0
   41.3990   21.6860   37.5610 C   0  0  0  0  0  0  0  0  0  0  0  0
   41.8900   21.3220   36.3350 N   0  0  0  0  0  0  0  0  0  0  0  0
   41.3190   21.7430   35.1820 C   0  0  0  0  0  0  0  0  0  0  0  0
   40.2500   22.5330   35.2230 N   0  0  0  0  0  0  0  0  0  0  0  0
   39.9240   22.7770   38.5900 H   0  0  0  0  0  0  0  0  0  0  0  0
   41.8540   21.3510   38.4820 H   0  0  0  0  0  0  0  0  0  0  0  0
   41.8080   21.3810   34.2860 H   0  0  0  0  0  0  0  0  0  0  0  0
  1  2  2  0  0  0  0
  1 19  1  0  0  0  0
  2  6  1  0  0  0  0
  3  7  1  0  0  0  0
  3  2  1  0  0  0  0
  4  5  1  0  0  0  0
  4  3  2  0  0  0  0
  5  1  1  0  0  0  0
  8  4  1  0  0  0  0
  9  8  2  0  0  0  0
 10 18  1  0  0  0  0
 10  8  1  0  0  0  0
 11 12  1  0  0  0  0
 11 10  1  0  0  0  0
 13 11  1  0  0  0  0
 14 13  1  0  0  0  0
 15 13  1  0  0  0  0
 15 17  1  0  0  0  0
 16 15  1  0  0  0  0
 17 18  1  0  0  0  0
 19 20  2  0  0  0  0
 21 19  1  0  0  0  0
 21 22  1  0  0  0  0
 22 27  1  0  0  0  0
 23 22  2  0  0  0  0
 23 28  1  0  0  0  0
 24 23  1  0  0  0  0
 25 26  1  0  0  0  0
 25 24  2  0  0  0  0
 26 21  2  0  0  0  0
 29 25  1  0  0  0  0
M  END
>  <minimizedAffinity>
-5.3195715

$$$$

 OpenBabel03272507313D

 29 31  0  0  0  0  0  0  0  0999 V2000
   38.0020   25.4820   35.9790 C   0  0  0  0  0  0  0  0  0  0  0  0
   38.5060   26.6990   36.3730 C   0  0  0  0  0  0  0  0  0  0  0  0
   38.1660   27.6150   35.3650 C   0  0  0  0  0  0  0  0  0  0  0  0
   37.4710   26.8720   34.4190 C   0  0  0  0  0  0  0  0  0  0  0  0
   37.4040   25.6480   34.8240 O   0  0  0  0  0  0  0  0  0  0  0  0
   39.0610   26.9990   37.2520 H   0  0  0  0  0  0  0  0  0  0  0  0
   38.3750   28.6680   35.2930 H   0  0  0  0  0  0  0  0  0  0  0  0
   36.9280   27.4490   33.1860 C   0  0  0  0  0  0  0  0  0  0  0  0
   37.1970   26.9630   32.0560 O   0  0  0  0  0  0  0  0  0  0  0  0
   36.0720   28.5760   33.1520 N   0  0  0  0  0  0  0  0  0  0  0  0
   35.7150   28.8940   31.8050 C   0  0  0  0  0  3  0  0  0  0  0  0
   36.6020   29.1780   31.1670 H   0  0  0  0  0  0  0  0  0  0  0  0
   34.8650   30.1700   31.8650 C   0  0  0  0  0  3  0  0  0  0  0  0
   34.4780   30.3440   30.8430 H   0  0  0  0  0  0  0  0  0  0  0  0
   33.7390   29.9710   32.7230 N   0  0  0  0  0  0  0  0  0  0  0  0
   33.0720   29.3320   32.2310 H   0  0  0  0  0  0  0  0  0  0  0  0
   34.0280   29.4440   34.0210 C   0  0  0  0  0  2  0  0  0  0  0  0
   35.5490   29.3900   34.2290 C   0  0  0  0  0  2  0  0  0  0  0  0
   38.1630   24.2860   36.7850 C   0  0  0  0  0  0  0  0  0  0  0  0
   37.3140   24.0370   37.6700 O   0  0  0  0  0  0  0  0  0  0  0  0
   39.3120   23.4520   36.5070 C   0  0  0  0  0  0  0  0  0  0  0  0
   39.8730   22.7860   37.5960 C   0  0  0  0  0  0  0  0  0  0  0  0
   40.9880   21.9690   37.3590 C   0  0  0  0  0  0  0  0  0  0  0  0
   41.4620   21.8730   36.0780 N   0  0  0  0  0  0  0  0  0  0  0  0
   40.8870   22.5390   35.0500 C   0  0  0  0  0  0  0  0  0  0  0  0
   39.8300   23.3140   35.2730 N   0  0  0  0  0  0  0  0  0  0  0  0
   39.5360   22.8290   38.6170 H   0  0  0  0  0  0  0  0  0  0  0  0
   41.4460   21.4380   38.1810 H   0  0  0  0  0  0  0  0  0  0  0  0
   41.3630   22.3750   34.0910 H   0  0  0  0  0  0  0  0  0  0  0  0
  1  2  2  0  0  0  0
  1 19  1  0  0  0  0
  2  6  1  0  0  0  0
  3  2  1  0  0  0  0
  4  5  1  0  0  0  0
  4  3  2  0  0  0  0
  5  1  1  0  0  0  0
  7  3  1  0  0  0  0
  8  4  1  0  0  0  0
  9  8  2  0  0  0  0
 10  8  1  0  0  0  0
 10 18  1  0  0  0  0
 11 13  1  0  0  0  0
 11 10  1  0  0  0  0
 12 11  1  0  0  0  0
 13 15  1  0  0  0  0
 14 13  1  0  0  0  0
 15 17  1  0  0  0  0
 16 15  1  0  0  0  0
 17 18  1  0  0  0  0
 19 20  2  0  0  0  0
 21 19  1  0  0  0  0
 21 22  1  0  0  0  0
 22 27  1  0  0  0  0
 23 22  2  0  0  0  0
 23 28  1  0  0  0  0
 24 23  1  0  0  0  0
 25 26  1  0  0  0  0
 25 24  2  0  0  0  0
 26 21  2  0  0  0  0
 29 25  1  0  0  0  0
M  END
>  <minimizedAffinity>
-5.29449224

$$$$

 OpenBabel03272507313D

 29 31  0  0  0  0  0  0  0  0999 V2000
   37.2060   23.9600   32.2120 C   0  0  0  0  0  0  0  0  0  0  0  0
   37.6230   25.2630   32.0780 C   0  0  0  0  0  0  0  0  0  0  0  0
   38.7420   25.4100   32.9130 C   0  0  0  0  0  0  0  0  0  0  0  0
   38.9220   24.1640   33.5000 C   0  0  0  0  0  0  0  0  0  0  0  0
   38.0090   23.3650   33.0600 O   0  0  0  0  0  0  0  0  0  0  0  0
   37.2430   26.0840   31.4840 H   0  0  0  0  0  0  0  0  0  0  0  0
   39.3580   26.2740   33.0930 H   0  0  0  0  0  0  0  0  0  0  0  0
   39.9960   23.8750   34.4550 C   0  0  0  0  0  0  0  0  0  0  0  0
   41.1780   24.2560   34.2520 O   0  0  0  0  0  0  0  0  0  0  0  0
   39.8080   23.1590   35.6620 N   0  0  0  0  0  0  0  0  0  0  0  0
   41.0420   23.0420   36.3730 C   0  0  0  0  0  3  0  0  0  0  0  0
   41.8280   22.4630   35.8060 H   0  0  0  0  0  0  0  0  0  0  0  0
   40.7570   22.1840   37.6120 C   0  0  0  0  0  3  0  0  0  0  0  0
   41.6740   22.2020   38.2310 H   0  0  0  0  0  0  0  0  0  0  0  0
   39.7050   22.7690   38.3840 N   0  0  0  0  0  0  0  0  0  0  0  0
   40.0880   23.6280   38.8430 H   0  0  0  0  0  0  0  0  0  0  0  0
   38.5150   23.1060   37.6640 C   0  0  0  0  0  2  0  0  0  0  0  0
   38.6120   22.5720   36.2280 C   0  0  0  0  0  2  0  0  0  0  0  0
   36.0600   23.4420   31.4880 C   0  0  0  0  0  0  0  0  0  0  0  0
   35.2580   24.2520   30.9700 O   0  0  0  0  0  0  0  0  0  0  0  0
   35.9200   22.0040   31.4140 C   0  0  0  0  0  0  0  0  0  0  0  0
   34.9280   21.4360   32.2120 C   0  0  0  0  0  0  0  0  0  0  0  0
   34.7670   20.0430   32.1630 C   0  0  0  0  0  0  0  0  0  0  0  0
   35.5910   19.3230   31.3390 N   0  0  0  0  0  0  0  0  0  0  0  0
   36.5420   19.9160   30.5820 C   0  0  0  0  0  0  0  0  0  0  0  0
   36.6950   21.2360   30.6270 N   0  0  0  0  0  0  0  0  0  0  0  0
   34.2590   21.9580   32.8730 H   0  0  0  0  0  0  0  0  0  0  0  0
   34.0070   19.5710   32.7690 H   0  0  0  0  0  0  0  0  0  0  0  0
   37.1220   19.2300   29.9770 H   0  0  0  0  0  0  0  0  0  0  0  0
  1  5  1  0  0  0  0
  2  1  2  0  0  0  0
  2  3  1  0  0  0  0
  3  7  1  0  0  0  0
  3  4  2  0  0  0  0
  4  8  1  0  0  0  0
  5  4  1  0  0  0  0
  6  2  1  0  0  0  0
  8 10  1  0  0  0  0
  9  8  2  0  0  0  0
 10 18  1  0  0  0  0
 10 11  1  0  0  0  0
 11 13  1  0  0  0  0
 12 11  1  0  0  0  0
 13 14  1  0  0  0  0
 13 15  1  0  0  0  0
 15 16  1  0  0  0  0
 17 15  1  0  0  0  0
 18 17  1  0  0  0  0
 19  1  1  0  0  0  0
 20 19  2  0  0  0  0
 21 19  1  0  0  0  0
 21 22  1  0  0  0  0
 22 27  1  0  0  0  0
 23 22  2  0  0  0  0
 23 28  1  0  0  0  0
 24 23  1  0  0  0  0
 25 26  1  0  0  0  0
 25 24  2  0  0  0  0
 26 21  2  0  0  0  0
 29 25  1  0  0  0  0
M  END
>  <minimizedAffinity>
-5.23142004

$$$$

 OpenBabel03272507313D

 29 31  0  0  0  0  0  0  0  0999 V2000
   36.5910   24.8890   31.9670 C   0  0  0  0  0  0  0  0  0  0  0  0
   36.5600   23.5260   31.7920 C   0  0  0  0  0  0  0  0  0  0  0  0
   37.5370   22.9930   32.6470 C   0  0  0  0  0  0  0  0  0  0  0  0
   38.0970   24.0910   33.2860 C   0  0  0  0  0  0  0  0  0  0  0  0
   37.5140   25.1600   32.8570 O   0  0  0  0  0  0  0  0  0  0  0  0
   35.9510   22.8940   31.1580 H   0  0  0  0  0  0  0  0  0  0  0  0
   37.8270   21.9690   32.8080 H   0  0  0  0  0  0  0  0  0  0  0  0
   39.1730   23.9810   34.2770 C   0  0  0  0  0  0  0  0  0  0  0  0
   40.3090   24.4830   34.0750 O   0  0  0  0  0  0  0  0  0  0  0  0
   39.0350   23.3190   35.5210 N   0  0  0  0  0  0  0  0  0  0  0  0
   40.2560   23.3840   36.2610 C   0  0  0  0  0  3  0  0  0  0  0  0
   41.1160   22.8660   35.7440 H   0  0  0  0  0  0  0  0  0  0  0  0
   40.0370   22.5710   37.5430 C   0  0  0  0  0  3  0  0  0  0  0  0
   40.9300   22.7290   38.1780 H   0  0  0  0  0  0  0  0  0  0  0  0
   38.9070   23.0760   38.2590 N   0  0  0  0  0  0  0  0  0  0  0  0
   39.1780   23.9980   38.6730 H   0  0  0  0  0  0  0  0  0  0  0  0
   37.7050   23.2340   37.4980 C   0  0  0  0  0  2  0  0  0  0  0  0
   37.8980   22.6330   36.0980 C   0  0  0  0  0  2  0  0  0  0  0  0
   35.7070   25.7780   31.2370 C   0  0  0  0  0  0  0  0  0  0  0  0
   34.7030   25.2940   30.6660 O   0  0  0  0  0  0  0  0  0  0  0  0
   36.0500   27.1830   31.2190 C   0  0  0  0  0  0  0  0  0  0  0  0
   35.5240   27.9630   32.2470 C   0  0  0  0  0  0  0  0  0  0  0  0
   35.8390   29.3300   32.2580 C   0  0  0  0  0  0  0  0  0  0  0  0
   36.6410   29.8190   31.2610 N   0  0  0  0  0  0  0  0  0  0  0  0
   37.1300   29.0250   30.2810 C   0  0  0  0  0  0  0  0  0  0  0  0
   36.8320   27.7290   30.2700 N   0  0  0  0  0  0  0  0  0  0  0  0
   34.8920   27.6260   33.0500 H   0  0  0  0  0  0  0  0  0  0  0  0
   35.4470   29.9630   33.0420 H   0  0  0  0  0  0  0  0  0  0  0  0
   37.7490   29.5410   29.5580 H   0  0  0  0  0  0  0  0  0  0  0  0
  1  5  1  0  0  0  0
  2  1  2  0  0  0  0
  2  3  1  0  0  0  0
  3  7  1  0  0  0  0
  3  4  2  0  0  0  0
  4  8  1  0  0  0  0
  5  4  1  0  0  0  0
  6  2  1  0  0  0  0
  8 10  1  0  0  0  0
  9  8  2  0  0  0  0
 10 18  1  0  0  0  0
 10 11  1  0  0  0  0
 11 13  1  0  0  0  0
 12 11  1  0  0  0  0
 13 14  1  0  0  0  0
 13 15  1  0  0  0  0
 15 16  1  0  0  0  0
 17 15  1  0  0  0  0
 18 17  1  0  0  0  0
 19  1  1  0  0  0  0
 20 19  2  0  0  0  0
 21 19  1  0  0  0  0
 21 22  1  0  0  0  0
 22 23  2  0  0  0  0
 22 27  1  0  0  0  0
 23 28  1  0  0  0  0
 24 23  1  0  0  0  0
 25 24  2  0  0  0  0
 26 25  1  0  0  0  0
 26 21  2  0  0  0  0
 29 25  1  0  0  0  0
M  END
>  <minimizedAffinity>
-5.20817947

$$$$

 OpenBabel03272507313D

 29 31  0  0  0  0  0  0  0  0999 V2000
   38.0520   25.2800   34.2460 C   0  0  0  0  0  0  0  0  0  0  0  0
   39.1240   25.9450   33.7000 C   0  0  0  0  0  0  0  0  0  0  0  0
   38.6820   27.2460   33.4150 C   0  0  0  0  0  0  0  0  0  0  0  0
   37.3520   27.2720   33.8160 C   0  0  0  0  0  0  0  0  0  0  0  0
   37.0410   26.1120   34.2880 O   0  0  0  0  0  0  0  0  0  0  0  0
   40.1380   25.6290   33.4900 H   0  0  0  0  0  0  0  0  0  0  0  0
   39.2140   28.0750   32.9820 H   0  0  0  0  0  0  0  0  0  0  0  0
   36.5000   28.4600   33.6940 C   0  0  0  0  0  0  0  0  0  0  0  0
   36.1550   29.1300   34.7020 O   0  0  0  0  0  0  0  0  0  0  0  0
   36.0020   28.9510   32.4630 N   0  0  0  0  0  0  0  0  0  0  0  0
   35.2060   30.1190   32.6750 C   0  0  0  0  0  3  0  0  0  0  0  0
   34.2910   29.9230   33.3070 H   0  0  0  0  0  0  0  0  0  0  0  0
   34.6440   30.5220   31.3060 C   0  0  0  0  0  3  0  0  0  0  0  0
   34.1380   31.4970   31.4430 H   0  0  0  0  0  0  0  0  0  0  0  0
   35.7100   30.7180   30.3740 N   0  0  0  0  0  0  0  0  0  0  0  0
   36.2030   31.6030   30.6360 H   0  0  0  0  0  0  0  0  0  0  0  0
   36.6630   29.6550   30.2840 C   0  0  0  0  0  2  0  0  0  0  0  0
   36.1820   28.4570   31.1140 C   0  0  0  0  0  2  0  0  0  0  0  0
   38.1410   23.8940   34.6670 C   0  0  0  0  0  0  0  0  0  0  0  0
   37.8920   22.9940   33.8340 O   0  0  0  0  0  0  0  0  0  0  0  0
   38.5160   23.6450   36.0420 C   0  0  0  0  0  0  0  0  0  0  0  0
   37.6350   24.1080   37.0190 C   0  0  0  0  0  0  0  0  0  0  0  0
   37.9690   23.8820   38.3620 C   0  0  0  0  0  0  0  0  0  0  0  0
   39.1380   23.2230   38.6380 N   0  0  0  0  0  0  0  0  0  0  0  0
   39.9640   22.7900   37.6580 C   0  0  0  0  0  0  0  0  0  0  0  0
   39.6480   23.0040   36.3840 N   0  0  0  0  0  0  0  0  0  0  0  0
   36.7080   24.6290   36.8520 H   0  0  0  0  0  0  0  0  0  0  0  0
   37.3080   24.2280   39.1440 H   0  0  0  0  0  0  0  0  0  0  0  0
   40.8520   22.2850   38.0150 H   0  0  0  0  0  0  0  0  0  0  0  0
  1  5  1  0  0  0  0
  1 19  1  0  0  0  0
  2  1  2  0  0  0  0
  3  2  1  0  0  0  0
  3  4  2  0  0  0  0
  4  5  1  0  0  0  0
  6  2  1  0  0  0  0
  7  3  1  0  0  0  0
  8  4  1  0  0  0  0
  8  9  2  0  0  0  0
 10 11  1  0  0  0  0
 10  8  1  0  0  0  0
 11 12  1  0  0  0  0
 13 14  1  0  0  0  0
 13 11  1  0  0  0  0
 15 16  1  0  0  0  0
 15 13  1  0  0  0  0
 17 15  1  0  0  0  0
 17 18  1  0  0  0  0
 18 10  1  0  0  0  0
 19 21  1  0  0  0  0
 20 19  2  0  0  0  0
 21 26  2  0  0  0  0
 21 22  1  0  0  0  0
 22 23  2  0  0  0  0
 23 24  1  0  0  0  0
 23 28  1  0  0  0  0
 25 29  1  0  0  0  0
 25 24  2  0  0  0  0
 26 25  1  0  0  0  0
 27 22  1  0  0  0  0
M  END
>  <minimizedAffinity>
-5.10423899

$$$$

 OpenBabel03272507313D

 29 31  0  0  0  0  0  0  0  0999 V2000
   37.9940   22.8920   33.3590 C   0  0  0  0  0  0  0  0  0  0  0  0
   37.0670   22.1410   32.6760 C   0  0  0  0  0  0  0  0  0  0  0  0
   36.2670   23.0490   31.9640 C   0  0  0  0  0  0  0  0  0  0  0  0
   36.7790   24.3030   32.2750 C   0  0  0  0  0  0  0  0  0  0  0  0
   37.7740   24.1540   33.0820 O   0  0  0  0  0  0  0  0  0  0  0  0
   36.8990   21.0730   32.6260 H   0  0  0  0  0  0  0  0  0  0  0  0
   35.4320   22.8660   31.3110 H   0  0  0  0  0  0  0  0  0  0  0  0
   36.2280   25.5510   31.7350 C   0  0  0  0  0  0  0  0  0  0  0  0
   35.4770   25.5570   30.7250 O   0  0  0  0  0  0  0  0  0  0  0  0
   36.4830   26.8300   32.2860 N   0  0  0  0  0  0  0  0  0  0  0  0
   35.8050   27.8420   31.5380 C   0  0  0  0  0  3  0  0  0  0  0  0
   36.1530   27.9080   30.4660 H   0  0  0  0  0  0  0  0  0  0  0  0
   36.2090   29.1870   32.1530 C   0  0  0  0  0  3  0  0  0  0  0  0
   35.5870   29.9610   31.6650 H   0  0  0  0  0  0  0  0  0  0  0  0
   35.8990   29.2040   33.5490 N   0  0  0  0  0  0  0  0  0  0  0  0
   34.8580   29.2660   33.6430 H   0  0  0  0  0  0  0  0  0  0  0  0
   36.3760   28.0890   34.3080 C   0  0  0  0  0  2  0  0  0  0  0  0
   37.2830   27.2160   33.4290 C   0  0  0  0  0  2  0  0  0  0  0  0
   38.9990   22.2830   34.2110 C   0  0  0  0  0  0  0  0  0  0  0  0
   39.8470   21.5220   33.6930 O   0  0  0  0  0  0  0  0  0  0  0  0
   38.9500   22.6010   35.6220 C   0  0  0  0  0  0  0  0  0  0  0  0
   40.1040   22.3350   36.3570 C   0  0  0  0  0  0  0  0  0  0  0  0
   40.0890   22.6320   37.7280 C   0  0  0  0  0  0  0  0  0  0  0  0
   38.9460   23.1630   38.2640 N   0  0  0  0  0  0  0  0  0  0  0  0
   37.8470   23.4050   37.5120 C   0  0  0  0  0  0  0  0  0  0  0  0
   37.8600   23.1230   36.2130 N   0  0  0  0  0  0  0  0  0  0  0  0
   41.0230   21.9200   35.9820 H   0  0  0  0  0  0  0  0  0  0  0  0
   40.9670   22.4390   38.3270 H   0  0  0  0  0  0  0  0  0  0  0  0
   37.0150   23.8250   38.0620 H   0  0  0  0  0  0  0  0  0  0  0  0
  1 19  1  0  0  0  0
  2  1  2  0  0  0  0
  3  4  2  0  0  0  0
  3  2  1  0  0  0  0
  4  5  1  0  0  0  0
  5  1  1  0  0  0  0
  6  2  1  0  0  0  0
  7  3  1  0  0  0  0
  8  4  1  0  0  0  0
  8 10  1  0  0  0  0
  9  8  2  0  0  0  0
 10 18  1  0  0  0  0
 11 13  1  0  0  0  0
 11 10  1  0  0  0  0
 12 11  1  0  0  0  0
 13 15  1  0  0  0  0
 14 13  1  0  0  0  0
 15 16  1  0  0  0  0
 15 17  1  0  0  0  0
 18 17  1  0  0  0  0
 19 21  1  0  0  0  0
 20 19  2  0  0  0  0
 21 26  2  0  0  0  0
 21 22  1  0  0  0  0
 22 23  2  0  0  0  0
 23 24  1  0  0  0  0
 23 28  1  0  0  0  0
 25 29  1  0  0  0  0
 25 24  2  0  0  0  0
 26 25  1  0  0  0  0
 27 22  1  0  0  0  0
M  END
>  <minimizedAffinity>
-5.04909086

$$$$

 OpenBabel03272507313D

 29 31  0  0  0  0  0  0  0  0999 V2000
   37.9260   25.3630   35.9490 C   0  0  0  0  0  0  0  0  0  0  0  0
   38.5250   26.4750   36.4930 C   0  0  0  0  0  0  0  0  0  0  0  0
   38.1920   27.5540   35.6590 C   0  0  0  0  0  0  0  0  0  0  0  0
   37.4040   27.0060   34.6550 C   0  0  0  0  0  0  0  0  0  0  0  0
   37.2830   25.7390   34.8710 O   0  0  0  0  0  0  0  0  0  0  0  0
   39.1420   26.6030   37.3730 H   0  0  0  0  0  0  0  0  0  0  0  0
   38.4620   28.5930   35.7370 H   0  0  0  0  0  0  0  0  0  0  0  0
   36.8360   27.7980   33.5590 C   0  0  0  0  0  0  0  0  0  0  0  0
   35.9300   28.6480   33.7610 O   0  0  0  0  0  0  0  0  0  0  0  0
   37.2440   27.6830   32.2080 N   0  0  0  0  0  0  0  0  0  0  0  0
   36.5040   28.5860   31.3830 C   0  0  0  0  0  3  0  0  0  0  0  0
   35.3960   28.3730   31.3760 H   0  0  0  0  0  0  0  0  0  0  0  0
   36.9510   28.3280   29.9390 C   0  0  0  0  0  3  0  0  0  0  0  0
   36.4820   29.1120   29.3140 H   0  0  0  0  0  0  0  0  0  0  0  0
   38.3680   28.4810   29.8270 N   0  0  0  0  0  0  0  0  0  0  0  0
   38.5850   29.5020   29.9040 H   0  0  0  0  0  0  0  0  0  0  0  0
   39.1520   27.7570   30.7810 C   0  0  0  0  0  2  0  0  0  0  0  0
   38.2420   26.8300   31.5990 C   0  0  0  0  0  2  0  0  0  0  0  0
   38.0540   24.0490   36.5510 C   0  0  0  0  0  0  0  0  0  0  0  0
   37.0720   23.5680   37.1600 O   0  0  0  0  0  0  0  0  0  0  0  0
   39.3260   23.3760   36.4040 C   0  0  0  0  0  0  0  0  0  0  0  0
   39.8950   23.3970   35.1310 C   0  0  0  0  0  0  0  0  0  0  0  0
   41.1280   22.7530   34.9550 C   0  0  0  0  0  0  0  0  0  0  0  0
   41.7020   22.1410   36.0380 N   0  0  0  0  0  0  0  0  0  0  0  0
   41.1140   22.1450   37.2570 C   0  0  0  0  0  0  0  0  0  0  0  0
   39.9440   22.7550   37.4250 N   0  0  0  0  0  0  0  0  0  0  0  0
   39.4850   23.8630   34.2520 H   0  0  0  0  0  0  0  0  0  0  0  0
   41.5970   22.7510   33.9810 H   0  0  0  0  0  0  0  0  0  0  0  0
   41.6740   21.6250   38.0230 H   0  0  0  0  0  0  0  0  0  0  0  0
  1  2  2  0  0  0  0
  1 19  1  0  0  0  0
  2  6  1  0  0  0  0
  3  7  1  0  0  0  0
  3  2  1  0  0  0  0
  4  5  1  0  0  0  0
  4  3  2  0  0  0  0
  5  1  1  0  0  0  0
  8  9  2  0  0  0  0
  8  4  1  0  0  0  0
 10  8  1  0  0  0  0
 11 10  1  0  0  0  0
 12 11  1  0  0  0  0
 13 11  1  0  0  0  0
 14 13  1  0  0  0  0
 15 16  1  0  0  0  0
 15 13  1  0  0  0  0
 15 17  1  0  0  0  0
 17 18  1  0  0  0  0
 18 10  1  0  0  0  0
 19 20  2  0  0  0  0
 21 19  1  0  0  0  0
 21 26  1  0  0  0  0
 22 21  2  0  0  0  0
 23 22  1  0  0  0  0
 23 24  2  0  0  0  0
 24 25  1  0  0  0  0
 25 26  2  0  0  0  0
 25 29  1  0  0  0  0
 27 22  1  0  0  0  0
 28 23  1  0  0  0  0
M  END
>  <minimizedAffinity>
-5.00598431

$$$$

 OpenBabel03272507313D

 29 31  0  0  0  0  0  0  0  0999 V2000
   37.7010   27.3230   34.2930 C   0  0  0  0  0  0  0  0  0  0  0  0
   37.7480   27.4200   32.9230 C   0  0  0  0  0  0  0  0  0  0  0  0
   36.6680   28.2330   32.5450 C   0  0  0  0  0  0  0  0  0  0  0  0
   36.0370   28.5730   33.7350 C   0  0  0  0  0  0  0  0  0  0  0  0
   36.6740   28.0220   34.7120 O   0  0  0  0  0  0  0  0  0  0  0  0
   38.4290   27.0000   32.1930 H   0  0  0  0  0  0  0  0  0  0  0  0
   36.3550   28.5510   31.5660 H   0  0  0  0  0  0  0  0  0  0  0  0
   34.8440   29.4250   33.7960 C   0  0  0  0  0  0  0  0  0  0  0  0
   33.7580   29.0760   33.2640 O   0  0  0  0  0  0  0  0  0  0  0  0
   34.8060   30.6830   34.4420 N   0  0  0  0  0  0  0  0  0  0  0  0
   33.5060   31.2660   34.3270 C   0  0  0  0  0  3  0  0  0  0  0  0
   33.2050   31.4730   33.2590 H   0  0  0  0  0  0  0  0  0  0  0  0
   33.5870   32.6530   34.9770 C   0  0  0  0  0  3  0  0  0  0  0  0
   32.5540   33.0510   35.0090 H   0  0  0  0  0  0  0  0  0  0  0  0
   34.0450   32.5390   36.3260 N   0  0  0  0  0  0  0  0  0  0  0  0
   33.2710   32.1200   36.8910 H   0  0  0  0  0  0  0  0  0  0  0  0
   35.2390   31.7740   36.5170 C   0  0  0  0  0  2  0  0  0  0  0  0
   35.8400   31.4050   35.1530 C   0  0  0  0  0  2  0  0  0  0  0  0
   38.6750   26.5510   35.0430 C   0  0  0  0  0  0  0  0  0  0  0  0
   39.7510   27.0980   35.3750 O   0  0  0  0  0  0  0  0  0  0  0  0
   38.3310   25.1820   35.3600 C   0  0  0  0  0  0  0  0  0  0  0  0
   37.9640   24.9250   36.6800 C   0  0  0  0  0  0  0  0  0  0  0  0
   37.6240   23.6080   37.0200 C   0  0  0  0  0  0  0  0  0  0  0  0
   37.6730   22.6520   36.0400 N   0  0  0  0  0  0  0  0  0  0  0  0
   38.0360   22.9460   34.7700 C   0  0  0  0  0  0  0  0  0  0  0  0
   38.3580   24.1950   34.4470 N   0  0  0  0  0  0  0  0  0  0  0  0
   37.9100   25.6400   37.4820 H   0  0  0  0  0  0  0  0  0  0  0  0
   37.3340   23.3740   38.0340 H   0  0  0  0  0  0  0  0  0  0  0  0
   38.0320   22.0970   34.0980 H   0  0  0  0  0  0  0  0  0  0  0  0
  1  5  1  0  0  0  0
  1 19  1  0  0  0  0
  2  1  2  0  0  0  0
  3  2  1  0  0  0  0
  3  4  2  0  0  0  0
  4  8  1  0  0  0  0
  4  5  1  0  0  0  0
  6  2  1  0  0  0  0
  7  3  1  0  0  0  0
  8 10  1  0  0  0  0
  9  8  2  0  0  0  0
 10 18  1  0  0  0  0
 11 10  1  0  0  0  0
 11 13  1  0  0  0  0
 12 11  1  0  0  0  0
 13 14  1  0  0  0  0
 13 15  1  0  0  0  0
 15 17  1  0  0  0  0
 15 16  1  0  0  0  0
 18 17  1  0  0  0  0
 19 21  1  0  0  0  0
 19 20  2  0  0  0  0
 21 22  1  0  0  0  0
 22 23  2  0  0  0  0
 22 27  1  0  0  0  0
 23 28  1  0  0  0  0
 24 23  1  0  0  0  0
 25 24  2  0  0  0  0
 26 25  1  0  0  0  0
 26 21  2  0  0  0  0
 29 25  1  0  0  0  0
M  END
>  <minimizedAffinity>
-4.94951153

$$$$
