
 OpenBabel03272508583D

 40 43  0  0  1  0  0  0  0  0999 V2000
   38.3370   31.7070   44.5080 C   0  0  0  0  0  0  0  0  0  0  0  0
   37.1870   32.1520   44.4440 O   0  0  0  0  0  0  0  0  0  0  0  0
   38.9940   31.5190   45.7940 N   0  0  0  0  0  0  0  0  0  0  0  0
   40.0040   31.3450   45.9090 H   0  0  0  0  0  0  0  0  0  0  0  0
   39.1140   31.3410   43.3040 C   0  0  0  0  0  0  0  0  0  0  0  0
   40.2550   30.6010   43.4360 C   0  0  0  0  0  0  0  0  0  0  0  0
   40.9570   30.2800   42.2920 C   0  0  0  0  0  0  0  0  0  0  0  0
   40.4590   30.7280   41.0810 C   0  0  0  0  0  0  0  0  0  0  0  0
   39.3000   31.4810   40.9350 C   0  0  0  0  0  0  0  0  0  0  0  0
   38.6690   31.7560   42.0860 N   0  0  0  0  0  0  0  0  0  0  0  0
   40.6270   30.2600   44.3870 H   0  0  0  0  0  0  0  0  0  0  0  0
   41.8600   29.6970   42.3620 H   0  0  0  0  0  0  0  0  0  0  0  0
   41.0560   30.4420   40.2270 H   0  0  0  0  0  0  0  0  0  0  0  0
   38.8360   31.9140   39.6310 C   0  0  0  0  0  0  0  0  0  0  0  0
   39.4090   32.8800   39.0790 O   0  0  0  0  0  0  0  0  0  0  0  0
   37.7680   31.3490   38.8890 N   0  0  0  0  0  0  0  0  0  0  0  0
   37.4910   29.9370   39.0600 C   0  0  0  0  0  3  0  0  0  0  0  0
   38.0390   29.5310   39.9110 H   0  0  0  0  0  0  0  0  0  0  0  0
   37.9290   29.2430   37.7890 C   0  0  0  0  0  3  0  0  0  0  0  0
   37.3430   28.2990   37.6740 H   0  0  0  0  0  0  0  0  0  0  0  0
   37.6800   30.0930   36.6430 N   0  0  0  0  0  0  0  0  0  0  0  0
   37.4580   29.5300   35.7990 H   0  0  0  0  0  0  0  0  0  0  0  0
   36.5100   30.9390   36.9190 C   0  0  0  0  0  2  0  0  0  0  0  0
   36.8870   32.0130   37.9480 C   0  0  0  0  0  2  0  0  0  0  0  0
   38.7090   31.1880   48.2420 C   0  0  2  0  0  0  0  0  0  0  0  0
   38.6350   32.6510   47.9920 C   0  0  0  0  0  0  0  0  0  0  0  0
   38.1740   31.5810   46.9800 C   0  0  1  0  0  0  0  0  0  0  0  0
   39.7360   30.7820   48.3350 H   0  0  0  0  0  0  0  0  0  0  0  0
   37.8760   33.2280   48.5380 H   0  0  0  0  0  0  0  0  0  0  0  0
   39.5650   33.1790   47.7820 H   0  0  0  0  0  0  0  0  0  0  0  0
   37.0730   31.6000   46.8380 H   0  0  0  0  0  0  0  0  0  0  0  0
   35.9410   29.1900   49.7240 C   0  0  0  0  0  0  0  0  0  0  0  0
   36.1750   29.3770   51.1270 C   0  0  0  0  0  0  0  0  0  0  0  0
   37.2940   30.2090   51.5360 C   0  0  0  0  0  0  0  0  0  0  0  0
   38.0840   30.7830   50.5740 N   0  0  0  0  0  0  0  0  0  0  0  0
   37.7920   30.5540   49.2600 C   0  0  0  0  0  0  0  0  0  0  0  0
   36.7380   29.7710   48.8030 N   0  0  0  0  0  0  0  0  0  0  0  0
   35.1060   28.5700   49.4840 H   0  0  0  0  0  0  0  0  0  0  0  0
   35.5560   28.9260   51.8740 H   0  0  0  0  0  0  0  0  0  0  0  0
   37.4570   30.3400   52.5760 H   0  0  0  0  0  0  0  0  0  0  0  0
  1  3  1  0  0  0  0
  2  1  2  0  0  0  0
  3  4  1  0  0  0  0
  3 27  1  0  0  0  0
  5  6  1  0  0  0  0
  5  1  1  0  0  0  0
  6 11  1  0  0  0  0
  7 12  1  0  0  0  0
  7  6  2  0  0  0  0
  8  7  1  0  0  0  0
  9  8  2  0  0  0  0
  9 10  1  0  0  0  0
 10  5  2  0  0  0  0
 13  8  1  0  0  0  0
 14  9  1  0  0  0  0
 15 14  2  0  0  0  0
 16 17  1  0  0  0  0
 16 14  1  0  0  0  0
 17 18  1  0  0  0  0
 19 17  1  0  0  0  0
 20 19  1  0  0  0  0
 21 23  1  0  0  0  0
 21 19  1  0  0  0  0
 22 21  1  0  0  0  0
 23 24  1  0  0  0  0
 24 16  1  0  0  0  0
 25 28  1  6  0  0  0
 25 36  1  0  0  0  0
 26 25  1  0  0  0  0
 26 29  1  0  0  0  0
 27 31  1  6  0  0  0
 27 26  1  0  0  0  0
 27 25  1  0  0  0  0
 30 26  1  0  0  0  0
 32 33  1  0  0  0  0
 33 34  2  0  0  0  0
 33 39  1  0  0  0  0
 34 40  1  0  0  0  0
 35 34  1  0  0  0  0
 36 35  2  0  0  0  0
 37 36  1  0  0  0  0
 37 32  2  0  0  0  0
 38 32  1  0  0  0  0
M  END
>  <minimizedAffinity>
-5.07156181

>  <minimizedRMSD>
1.5507493

$$$$
