
 OpenBabel03272508433D

 20 21  0  0  0  0  0  0  0  0999 V2000
   37.5120   22.1230   35.3400 C   0  0  0  0  0  0  0  0  0  0  0  0
   36.6890   21.4260   36.0120 O   0  0  0  0  0  0  0  0  0  0  0  0
   38.4080   22.8810   36.1480 N   0  0  0  0  0  0  0  0  0  0  0  0
   39.7780   22.4140   36.2570 C   0  0  0  0  0  3  0  0  0  0  0  0
   40.4590   23.0610   35.6570 H   0  0  0  0  0  0  0  0  0  0  0  0
   40.1850   22.6070   37.7120 C   0  0  0  0  0  3  0  0  0  0  0  0
   40.7170   21.6730   38.0120 H   0  0  0  0  0  0  0  0  0  0  0  0
   39.0180   22.6780   38.5490 N   0  0  0  0  0  0  0  0  0  0  0  0
   39.1590   22.4290   39.5260 H   0  0  0  0  0  0  0  0  0  0  0  0
   38.2210   23.8570   38.3250 C   0  0  0  0  0  2  0  0  0  0  0  0
   38.0270   24.0860   36.8650 C   0  0  0  0  0  2  0  0  0  0  0  0
   37.1180   21.0060   31.9070 C   0  0  0  0  0  0  0  0  0  0  0  0
   37.5520   22.0970   31.1460 C   0  0  0  0  0  0  0  0  0  0  0  0
   37.9880   23.2420   31.8360 C   0  0  0  0  0  0  0  0  0  0  0  0
   37.9570   23.2020   33.1880 N   0  0  0  0  0  0  0  0  0  0  0  0
   37.5380   22.1450   33.8900 C   0  0  0  0  0  0  0  0  0  0  0  0
   37.1160   21.0400   33.2560 N   0  0  0  0  0  0  0  0  0  0  0  0
   36.7650   20.0850   31.4530 H   0  0  0  0  0  0  0  0  0  0  0  0
   37.5320   22.0140   30.0730 H   0  0  0  0  0  0  0  0  0  0  0  0
   38.3260   24.0920   31.2580 H   0  0  0  0  0  0  0  0  0  0  0  0
  1  2  2  0  0  0  0
  1  3  1  0  0  0  0
  3  4  1  0  0  0  0
  3 11  1  0  0  0  0
  4  6  1  0  0  0  0
  5  4  1  0  0  0  0
  6  7  1  0  0  0  0
  6  8  1  0  0  0  0
  8  9  1  0  0  0  0
 10  8  1  0  0  0  0
 11 10  1  0  0  0  0
 12 17  1  0  0  0  0
 13 14  1  0  0  0  0
 13 12  2  0  0  0  0
 14 15  2  0  0  0  0
 15 16  1  0  0  0  0
 16  1  1  0  0  0  0
 17 16  2  0  0  0  0
 18 12  1  0  0  0  0
 19 13  1  0  0  0  0
 20 14  1  0  0  0  0
M  END
>  <minimizedAffinity>
-4.35540533

$$$$

 OpenBabel03272508433D

 20 21  0  0  0  0  0  0  0  0999 V2000
   38.9830   24.4010   35.1140 C   0  0  0  0  0  0  0  0  0  0  0  0
   39.9850   25.1570   35.3080 O   0  0  0  0  0  0  0  0  0  0  0  0
   38.8130   23.4120   36.1260 N   0  0  0  0  0  0  0  0  0  0  0  0
   37.7490   23.6100   37.0910 C   0  0  0  0  0  3  0  0  0  0  0  0
   36.8990   22.9200   36.8830 H   0  0  0  0  0  0  0  0  0  0  0  0
   38.3100   23.1920   38.4440 C   0  0  0  0  0  3  0  0  0  0  0  0
   37.9900   23.9780   39.1700 H   0  0  0  0  0  0  0  0  0  0  0  0
   39.7470   23.2430   38.4230 N   0  0  0  0  0  0  0  0  0  0  0  0
   40.1990   23.3550   39.3270 H   0  0  0  0  0  0  0  0  0  0  0  0
   40.3440   22.2570   37.5580 C   0  0  0  0  0  2  0  0  0  0  0  0
   39.6430   22.2250   36.2420 C   0  0  0  0  0  2  0  0  0  0  0  0
   36.8130   25.9390   32.6420 C   0  0  0  0  0  0  0  0  0  0  0  0
   36.4140   24.8700   31.8320 C   0  0  0  0  0  0  0  0  0  0  0  0
   36.9070   23.5920   32.1480 C   0  0  0  0  0  0  0  0  0  0  0  0
   37.7320   23.4920   33.2150 N   0  0  0  0  0  0  0  0  0  0  0  0
   38.0970   24.5300   33.9730 C   0  0  0  0  0  0  0  0  0  0  0  0
   37.6400   25.7610   33.6930 N   0  0  0  0  0  0  0  0  0  0  0  0
   36.4770   26.9570   32.4660 H   0  0  0  0  0  0  0  0  0  0  0  0
   35.7520   25.0710   31.0070 H   0  0  0  0  0  0  0  0  0  0  0  0
   36.6060   22.7580   31.5280 H   0  0  0  0  0  0  0  0  0  0  0  0
  1  2  2  0  0  0  0
  1  3  1  0  0  0  0
  3 11  1  0  0  0  0
  3  4  1  0  0  0  0
  4  6  1  0  0  0  0
  5  4  1  0  0  0  0
  6  7  1  0  0  0  0
  8  6  1  0  0  0  0
  8  9  1  0  0  0  0
 10  8  1  0  0  0  0
 11 10  1  0  0  0  0
 12 17  1  0  0  0  0
 13 14  1  0  0  0  0
 13 12  2  0  0  0  0
 14 15  2  0  0  0  0
 15 16  1  0  0  0  0
 16  1  1  0  0  0  0
 17 16  2  0  0  0  0
 18 12  1  0  0  0  0
 19 13  1  0  0  0  0
 20 14  1  0  0  0  0
M  END
>  <minimizedAffinity>
-4.07198524

$$$$

 OpenBabel03272508433D

 20 21  0  0  0  0  0  0  0  0999 V2000
   38.1380   24.7130   34.6120 C   0  0  0  0  0  0  0  0  0  0  0  0
   37.8300   23.9650   33.6320 O   0  0  0  0  0  0  0  0  0  0  0  0
   38.1700   26.0980   34.2820 N   0  0  0  0  0  0  0  0  0  0  0  0
   37.0710   26.9260   34.7410 C   0  0  0  0  0  3  0  0  0  0  0  0
   37.3940   27.5670   35.5940 H   0  0  0  0  0  0  0  0  0  0  0  0
   36.7430   27.8790   33.5990 C   0  0  0  0  0  3  0  0  0  0  0  0
   35.6300   27.8940   33.5160 H   0  0  0  0  0  0  0  0  0  0  0  0
   37.2210   27.3450   32.3530 N   0  0  0  0  0  0  0  0  0  0  0  0
   36.7490   27.6820   31.5170 H   0  0  0  0  0  0  0  0  0  0  0  0
   38.6580   27.2900   32.2650 C   0  0  0  0  0  2  0  0  0  0  0  0
   39.2360   26.7230   33.5170 C   0  0  0  0  0  2  0  0  0  0  0  0
   39.8100   22.8930   37.2730 C   0  0  0  0  0  0  0  0  0  0  0  0
   39.0570   23.1950   38.4130 C   0  0  0  0  0  0  0  0  0  0  0  0
   37.9490   24.0470   38.2560 C   0  0  0  0  0  0  0  0  0  0  0  0
   37.6940   24.5100   37.0110 N   0  0  0  0  0  0  0  0  0  0  0  0
   38.4300   24.2040   35.9390 C   0  0  0  0  0  0  0  0  0  0  0  0
   39.4920   23.3940   36.0610 N   0  0  0  0  0  0  0  0  0  0  0  0
   40.6800   22.2430   37.3070 H   0  0  0  0  0  0  0  0  0  0  0  0
   39.3560   22.7660   39.3540 H   0  0  0  0  0  0  0  0  0  0  0  0
   37.3600   24.2880   39.1310 H   0  0  0  0  0  0  0  0  0  0  0  0
  1 16  1  0  0  0  0
  2  1  2  0  0  0  0
  3  1  1  0  0  0  0
  3  4  1  0  0  0  0
  4  5  1  0  0  0  0
  6  4  1  0  0  0  0
  7  6  1  0  0  0  0
  8  6  1  0  0  0  0
  9  8  1  0  0  0  0
 10  8  1  0  0  0  0
 10 11  1  0  0  0  0
 11  3  1  0  0  0  0
 12 18  1  0  0  0  0
 12 13  1  0  0  0  0
 13 19  1  0  0  0  0
 14 13  2  0  0  0  0
 14 20  1  0  0  0  0
 15 14  1  0  0  0  0
 16 17  1  0  0  0  0
 16 15  2  0  0  0  0
 17 12  2  0  0  0  0
M  END
>  <minimizedAffinity>
-4.02840424

$$$$

 OpenBabel03272508433D

 20 21  0  0  0  0  0  0  0  0999 V2000
   38.8250   25.3660   35.1310 C   0  0  0  0  0  0  0  0  0  0  0  0
   40.0860   25.5160   35.1520 O   0  0  0  0  0  0  0  0  0  0  0  0
   38.3770   24.2140   35.8400 N   0  0  0  0  0  0  0  0  0  0  0  0
   37.7530   24.4180   37.1330 C   0  0  0  0  0  3  0  0  0  0  0  0
   36.6510   24.2690   37.0640 H   0  0  0  0  0  0  0  0  0  0  0  0
   38.2720   23.3110   38.0420 C   0  0  0  0  0  3  0  0  0  0  0  0
   38.5270   23.8000   39.0130 H   0  0  0  0  0  0  0  0  0  0  0  0
   39.5100   22.7890   37.5310 N   0  0  0  0  0  0  0  0  0  0  0  0
   40.1170   22.3430   38.2150 H   0  0  0  0  0  0  0  0  0  0  0  0
   39.3650   22.0800   36.2850 C   0  0  0  0  0  2  0  0  0  0  0  0
   38.5110   22.8560   35.3410 C   0  0  0  0  0  2  0  0  0  0  0  0
   36.8020   26.8230   32.4900 C   0  0  0  0  0  0  0  0  0  0  0  0
   36.2350   27.9550   33.0860 C   0  0  0  0  0  0  0  0  0  0  0  0
   36.5590   28.2180   34.4290 C   0  0  0  0  0  0  0  0  0  0  0  0
   37.3980   27.3550   35.0450 N   0  0  0  0  0  0  0  0  0  0  0  0
   37.9260   26.2800   34.4510 C   0  0  0  0  0  0  0  0  0  0  0  0
   37.6330   26.0060   33.1710 N   0  0  0  0  0  0  0  0  0  0  0  0
   36.6030   26.5490   31.4580 H   0  0  0  0  0  0  0  0  0  0  0  0
   35.5790   28.5720   32.4950 H   0  0  0  0  0  0  0  0  0  0  0  0
   36.1260   29.0910   34.8990 H   0  0  0  0  0  0  0  0  0  0  0  0
  1  2  2  0  0  0  0
  1  3  1  0  0  0  0
  3  4  1  0  0  0  0
  4  6  1  0  0  0  0
  5  4  1  0  0  0  0
  6  7  1  0  0  0  0
  8  6  1  0  0  0  0
  8  9  1  0  0  0  0
 10  8  1  0  0  0  0
 11  3  1  0  0  0  0
 11 10  1  0  0  0  0
 12 13  2  0  0  0  0
 12 17  1  0  0  0  0
 13 14  1  0  0  0  0
 14 20  1  0  0  0  0
 14 15  2  0  0  0  0
 16 15  1  0  0  0  0
 16  1  1  0  0  0  0
 17 16  2  0  0  0  0
 18 12  1  0  0  0  0
 19 13  1  0  0  0  0
M  END
>  <minimizedAffinity>
-3.95397377

$$$$

 OpenBabel03272508433D

 20 21  0  0  0  0  0  0  0  0999 V2000
   37.0120   22.7270   31.3020 C   0  0  0  0  0  0  0  0  0  0  0  0
   37.9490   22.7840   30.4460 O   0  0  0  0  0  0  0  0  0  0  0  0
   36.5590   24.0070   31.7350 N   0  0  0  0  0  0  0  0  0  0  0  0
   35.2850   24.4780   31.2250 C   0  0  0  0  0  3  0  0  0  0  0  0
   34.5010   24.4150   32.0140 H   0  0  0  0  0  0  0  0  0  0  0  0
   35.4630   25.9610   30.9250 C   0  0  0  0  0  3  0  0  0  0  0  0
   34.9860   26.1370   29.9310 H   0  0  0  0  0  0  0  0  0  0  0  0
   36.8570   26.2690   30.7490 N   0  0  0  0  0  0  0  0  0  0  0  0
   37.0600   27.0970   30.1940 H   0  0  0  0  0  0  0  0  0  0  0  0
   37.6320   26.1340   31.9560 C   0  0  0  0  0  2  0  0  0  0  0  0
   37.2970   24.8580   32.6510 C   0  0  0  0  0  2  0  0  0  0  0  0
   35.6020   20.2950   33.6000 C   0  0  0  0  0  0  0  0  0  0  0  0
   35.4020   19.1590   32.8080 C   0  0  0  0  0  0  0  0  0  0  0  0
   35.7620   19.2380   31.4510 C   0  0  0  0  0  0  0  0  0  0  0  0
   36.2770   20.4090   31.0130 N   0  0  0  0  0  0  0  0  0  0  0  0
   36.4580   21.4800   31.7930 C   0  0  0  0  0  0  0  0  0  0  0  0
   36.1220   21.4310   33.0910 N   0  0  0  0  0  0  0  0  0  0  0  0
   35.3510   20.3170   34.6570 H   0  0  0  0  0  0  0  0  0  0  0  0
   34.9840   18.2800   33.2680 H   0  0  0  0  0  0  0  0  0  0  0  0
   35.6120   18.3660   30.8290 H   0  0  0  0  0  0  0  0  0  0  0  0
  1  3  1  0  0  0  0
  1 16  1  0  0  0  0
  2  1  2  0  0  0  0
  3 11  1  0  0  0  0
  4  3  1  0  0  0  0
  4  5  1  0  0  0  0
  6  4  1  0  0  0  0
  7  6  1  0  0  0  0
  8  6  1  0  0  0  0
  8 10  1  0  0  0  0
  9  8  1  0  0  0  0
 10 11  1  0  0  0  0
 12 18  1  0  0  0  0
 13 19  1  0  0  0  0
 13 12  2  0  0  0  0
 14 13  1  0  0  0  0
 15 14  2  0  0  0  0
 15 16  1  0  0  0  0
 16 17  2  0  0  0  0
 17 12  1  0  0  0  0
 20 14  1  0  0  0  0
M  END
>  <minimizedAffinity>
-3.94711971

$$$$

 OpenBabel03272508433D

 20 21  0  0  0  0  0  0  0  0999 V2000
   38.5770   22.0110   34.2580 C   0  0  0  0  0  0  0  0  0  0  0  0
   39.5360   21.5280   33.5790 O   0  0  0  0  0  0  0  0  0  0  0  0
   37.3490   22.0780   33.5380 N   0  0  0  0  0  0  0  0  0  0  0  0
   36.3250   21.1020   33.8580 C   0  0  0  0  0  3  0  0  0  0  0  0
   35.5040   21.5760   34.4460 H   0  0  0  0  0  0  0  0  0  0  0  0
   35.7040   20.6770   32.5340 C   0  0  0  0  0  3  0  0  0  0  0  0
   35.6080   19.5660   32.5780 H   0  0  0  0  0  0  0  0  0  0  0  0
   36.6100   20.9480   31.4510 N   0  0  0  0  0  0  0  0  0  0  0  0
   36.4790   20.3860   30.6130 H   0  0  0  0  0  0  0  0  0  0  0  0
   36.8250   22.3540   31.2190 C   0  0  0  0  0  2  0  0  0  0  0  0
   37.0700   23.0640   32.5070 C   0  0  0  0  0  2  0  0  0  0  0  0
   40.0560   22.5460   37.5300 C   0  0  0  0  0  0  0  0  0  0  0  0
   39.0700   23.2450   38.2350 C   0  0  0  0  0  0  0  0  0  0  0  0
   37.8710   23.5380   37.5630 C   0  0  0  0  0  0  0  0  0  0  0  0
   37.7590   23.1190   36.2820 N   0  0  0  0  0  0  0  0  0  0  0  0
   38.7170   22.4510   35.6320 C   0  0  0  0  0  0  0  0  0  0  0  0
   39.8720   22.1600   36.2510 N   0  0  0  0  0  0  0  0  0  0  0  0
   41.0110   22.2800   37.9760 H   0  0  0  0  0  0  0  0  0  0  0  0
   39.2720   23.5280   39.2550 H   0  0  0  0  0  0  0  0  0  0  0  0
   37.1020   24.0780   38.0990 H   0  0  0  0  0  0  0  0  0  0  0  0
  1 16  1  0  0  0  0
  2  1  2  0  0  0  0
  3  4  1  0  0  0  0
  3  1  1  0  0  0  0
  4  5  1  0  0  0  0
  6  7  1  0  0  0  0
  6  4  1  0  0  0  0
  8  6  1  0  0  0  0
  9  8  1  0  0  0  0
 10  8  1  0  0  0  0
 10 11  1  0  0  0  0
 11  3  1  0  0  0  0
 12 18  1  0  0  0  0
 12 13  1  0  0  0  0
 13 19  1  0  0  0  0
 14 20  1  0  0  0  0
 14 13  2  0  0  0  0
 15 14  1  0  0  0  0
 16 17  1  0  0  0  0
 16 15  2  0  0  0  0
 17 12  2  0  0  0  0
M  END
>  <minimizedAffinity>
-3.91699576

$$$$

 OpenBabel03272508433D

 20 21  0  0  0  0  0  0  0  0999 V2000
   38.8140   24.7100   33.8020 C   0  0  0  0  0  0  0  0  0  0  0  0
   39.8350   25.1920   33.2200 O   0  0  0  0  0  0  0  0  0  0  0  0
   37.6470   24.6990   32.9850 N   0  0  0  0  0  0  0  0  0  0  0  0
   37.2200   23.4260   32.4350 C   0  0  0  0  0  3  0  0  0  0  0  0
   36.3190   23.0500   32.9720 H   0  0  0  0  0  0  0  0  0  0  0  0
   36.7740   23.7020   31.0050 C   0  0  0  0  0  3  0  0  0  0  0  0
   37.2090   22.8860   30.3800 H   0  0  0  0  0  0  0  0  0  0  0  0
   37.3680   24.9200   30.5250 N   0  0  0  0  0  0  0  0  0  0  0  0
   37.4520   25.0030   29.5140 H   0  0  0  0  0  0  0  0  0  0  0  0
   36.8860   26.0990   31.1990 C   0  0  0  0  0  2  0  0  0  0  0  0
   36.8670   25.8850   32.6740 C   0  0  0  0  0  2  0  0  0  0  0  0
   37.8670   24.2710   37.2800 C   0  0  0  0  0  0  0  0  0  0  0  0
   38.7940   23.3430   37.7670 C   0  0  0  0  0  0  0  0  0  0  0  0
   39.7660   22.8590   36.8720 C   0  0  0  0  0  0  0  0  0  0  0  0
   39.7310   23.3300   35.6050 N   0  0  0  0  0  0  0  0  0  0  0  0
   38.8330   24.2180   35.1660 C   0  0  0  0  0  0  0  0  0  0  0  0
   37.8960   24.6950   35.9990 N   0  0  0  0  0  0  0  0  0  0  0  0
   37.0860   24.6930   37.9050 H   0  0  0  0  0  0  0  0  0  0  0  0
   38.7250   23.0400   38.7980 H   0  0  0  0  0  0  0  0  0  0  0  0
   40.4870   22.1410   37.2380 H   0  0  0  0  0  0  0  0  0  0  0  0
  1 16  1  0  0  0  0
  2  1  2  0  0  0  0
  3  1  1  0  0  0  0
  4  5  1  0  0  0  0
  4  3  1  0  0  0  0
  6  4  1  0  0  0  0
  7  6  1  0  0  0  0
  8  6  1  0  0  0  0
  8 10  1  0  0  0  0
  9  8  1  0  0  0  0
 10 11  1  0  0  0  0
 11  3  1  0  0  0  0
 12 13  1  0  0  0  0
 12 18  1  0  0  0  0
 13 19  1  0  0  0  0
 14 20  1  0  0  0  0
 14 13  2  0  0  0  0
 15 14  1  0  0  0  0
 16 15  2  0  0  0  0
 16 17  1  0  0  0  0
 17 12  2  0  0  0  0
M  END
>  <minimizedAffinity>
-3.83751702

$$$$

 OpenBabel03272508433D

 20 21  0  0  0  0  0  0  0  0999 V2000
   37.5390   22.0010   34.7540 C   0  0  0  0  0  0  0  0  0  0  0  0
   36.5320   21.2310   34.6750 O   0  0  0  0  0  0  0  0  0  0  0  0
   38.0630   22.3830   33.4850 N   0  0  0  0  0  0  0  0  0  0  0  0
   37.7940   23.7310   33.0220 C   0  0  0  0  0  3  0  0  0  0  0  0
   38.7090   24.3630   33.1040 H   0  0  0  0  0  0  0  0  0  0  0  0
   37.4880   23.6240   31.5340 C   0  0  0  0  0  3  0  0  0  0  0  0
   36.5970   24.2710   31.3520 H   0  0  0  0  0  0  0  0  0  0  0  0
   37.0720   22.2860   31.2070 N   0  0  0  0  0  0  0  0  0  0  0  0
   36.5020   22.1930   30.3710 H   0  0  0  0  0  0  0  0  0  0  0  0
   38.1210   21.3080   31.3470 C   0  0  0  0  0  2  0  0  0  0  0  0
   38.8470   21.5020   32.6350 C   0  0  0  0  0  2  0  0  0  0  0  0
   39.9850   22.6080   37.3680 C   0  0  0  0  0  0  0  0  0  0  0  0
   39.2540   23.2580   38.3690 C   0  0  0  0  0  0  0  0  0  0  0  0
   37.8880   23.4900   38.1330 C   0  0  0  0  0  0  0  0  0  0  0  0
   37.3810   23.0670   36.9520 N   0  0  0  0  0  0  0  0  0  0  0  0
   38.1030   22.4480   36.0130 C   0  0  0  0  0  0  0  0  0  0  0  0
   39.4090   22.2140   36.2130 N   0  0  0  0  0  0  0  0  0  0  0  0
   41.0450   22.3910   37.4710 H   0  0  0  0  0  0  0  0  0  0  0  0
   39.7660   23.5500   39.2700 H   0  0  0  0  0  0  0  0  0  0  0  0
   37.3130   23.9920   38.9000 H   0  0  0  0  0  0  0  0  0  0  0  0
  1 16  1  0  0  0  0
  2  1  2  0  0  0  0
  3  1  1  0  0  0  0
  4  5  1  0  0  0  0
  4  3  1  0  0  0  0
  6  4  1  0  0  0  0
  7  6  1  0  0  0  0
  8 10  1  0  0  0  0
  8  6  1  0  0  0  0
  9  8  1  0  0  0  0
 10 11  1  0  0  0  0
 11  3  1  0  0  0  0
 12 18  1  0  0  0  0
 12 13  1  0  0  0  0
 13 19  1  0  0  0  0
 14 13  2  0  0  0  0
 14 20  1  0  0  0  0
 15 14  1  0  0  0  0
 16 17  1  0  0  0  0
 16 15  2  0  0  0  0
 17 12  2  0  0  0  0
M  END
>  <minimizedAffinity>
-3.83554339

$$$$

 OpenBabel03272508433D

 20 21  0  0  0  0  0  0  0  0999 V2000
   38.0810   26.9940   31.4090 C   0  0  0  0  0  0  0  0  0  0  0  0
   37.5980   25.9610   30.8490 O   0  0  0  0  0  0  0  0  0  0  0  0
   38.4510   28.0180   30.4910 N   0  0  0  0  0  0  0  0  0  0  0  0
   37.5880   29.1800   30.3940 C   0  0  0  0  0  3  0  0  0  0  0  0
   38.0580   30.0590   30.8920 H   0  0  0  0  0  0  0  0  0  0  0  0
   37.5020   29.5310   28.9140 C   0  0  0  0  0  3  0  0  0  0  0  0
   36.4260   29.7450   28.7070 H   0  0  0  0  0  0  0  0  0  0  0  0
   37.8330   28.3850   28.1110 N   0  0  0  0  0  0  0  0  0  0  0  0
   37.4570   28.3830   27.1660 H   0  0  0  0  0  0  0  0  0  0  0  0
   39.2130   27.9860   28.2230 C   0  0  0  0  0  2  0  0  0  0  0  0
   39.6360   27.9630   29.6530 C   0  0  0  0  0  2  0  0  0  0  0  0
   39.6770   27.0260   34.6710 C   0  0  0  0  0  0  0  0  0  0  0  0
   38.6360   27.3340   35.5530 C   0  0  0  0  0  0  0  0  0  0  0  0
   37.3560   27.5340   35.0070 C   0  0  0  0  0  0  0  0  0  0  0  0
   37.2270   27.4140   33.6660 N   0  0  0  0  0  0  0  0  0  0  0  0
   38.2400   27.1180   32.8460 C   0  0  0  0  0  0  0  0  0  0  0  0
   39.4720   26.9220   33.3410 N   0  0  0  0  0  0  0  0  0  0  0  0
   40.6950   26.8560   35.0110 H   0  0  0  0  0  0  0  0  0  0  0  0
   38.8570   27.4030   36.6040 H   0  0  0  0  0  0  0  0  0  0  0  0
   36.5430   27.7730   35.6790 H   0  0  0  0  0  0  0  0  0  0  0  0
  1 16  1  0  0  0  0
  2  1  2  0  0  0  0
  3  1  1  0  0  0  0
  4  3  1  0  0  0  0
  4  5  1  0  0  0  0
  6  4  1  0  0  0  0
  7  6  1  0  0  0  0
  8 10  1  0  0  0  0
  8  6  1  0  0  0  0
  9  8  1  0  0  0  0
 10 11  1  0  0  0  0
 11  3  1  0  0  0  0
 12 18  1  0  0  0  0
 12 13  1  0  0  0  0
 13 19  1  0  0  0  0
 14 13  2  0  0  0  0
 14 20  1  0  0  0  0
 15 14  1  0  0  0  0
 16 17  1  0  0  0  0
 16 15  2  0  0  0  0
 17 12  2  0  0  0  0
M  END
>  <minimizedAffinity>
-3.82370949

$$$$
