
 OpenBabel03272508583D

 40 43  0  0  1  0  0  0  0  0999 V2000
   38.3890   31.8460   44.5550 C   0  0  0  0  0  0  0  0  0  0  0  0
   37.3060   32.4280   44.4360 O   0  0  0  0  0  0  0  0  0  0  0  0
   38.9340   31.5480   45.8720 N   0  0  0  0  0  0  0  0  0  0  0  0
   39.9070   31.2510   46.0440 H   0  0  0  0  0  0  0  0  0  0  0  0
   39.1940   31.4220   43.3900 C   0  0  0  0  0  0  0  0  0  0  0  0
   40.2680   30.5960   43.5760 C   0  0  0  0  0  0  0  0  0  0  0  0
   40.9990   30.2220   42.4670 C   0  0  0  0  0  0  0  0  0  0  0  0
   40.5980   30.7070   41.2350 C   0  0  0  0  0  0  0  0  0  0  0  0
   39.5080   31.5460   41.0340 C   0  0  0  0  0  0  0  0  0  0  0  0
   38.8440   31.8700   42.1540 N   0  0  0  0  0  0  0  0  0  0  0  0
   40.5650   30.2280   44.5430 H   0  0  0  0  0  0  0  0  0  0  0  0
   41.8500   29.5720   42.5800 H   0  0  0  0  0  0  0  0  0  0  0  0
   41.2130   30.3760   40.4100 H   0  0  0  0  0  0  0  0  0  0  0  0
   39.1440   32.0140   39.7100 C   0  0  0  0  0  0  0  0  0  0  0  0
   39.0870   33.2470   39.5030 O   0  0  0  0  0  0  0  0  0  0  0  0
   38.8330   31.2040   38.5890 N   0  0  0  0  0  0  0  0  0  0  0  0
   37.9500   30.0730   38.7880 C   0  0  0  0  0  3  0  0  0  0  0  0
   37.4760   30.1150   39.7690 H   0  0  0  0  0  0  0  0  0  0  0  0
   38.7970   28.8250   38.6800 C   0  0  0  0  0  3  0  0  0  0  0  0
   38.1460   27.9740   38.3650 H   0  0  0  0  0  0  0  0  0  0  0  0
   39.8390   29.0100   37.6910 N   0  0  0  0  0  0  0  0  0  0  0  0
   40.0720   28.1150   37.2190 H   0  0  0  0  0  0  0  0  0  0  0  0
   39.3550   29.9320   36.6550 C   0  0  0  0  0  2  0  0  0  0  0  0
   39.2970   31.3570   37.2240 C   0  0  0  0  0  2  0  0  0  0  0  0
   38.4070   31.0990   48.2610 C   0  0  2  0  0  0  0  0  0  0  0  0
   38.6210   32.5640   48.1340 C   0  0  0  0  0  0  0  0  0  0  0  0
   38.0520   31.6770   47.0070 C   0  0  1  0  0  0  0  0  0  0  0  0
   39.3330   30.5010   48.3820 H   0  0  0  0  0  0  0  0  0  0  0  0
   37.9420   33.2310   48.6790 H   0  0  0  0  0  0  0  0  0  0  0  0
   39.6460   32.9210   48.0270 H   0  0  0  0  0  0  0  0  0  0  0  0
   36.9860   31.9130   46.8000 H   0  0  0  0  0  0  0  0  0  0  0  0
   35.0300   30.2080   49.5460 C   0  0  0  0  0  0  0  0  0  0  0  0
   35.3590   29.5780   50.7930 C   0  0  0  0  0  0  0  0  0  0  0  0
   36.7580   29.4810   51.1720 C   0  0  0  0  0  0  0  0  0  0  0  0
   37.7120   29.9920   50.3310 N   0  0  0  0  0  0  0  0  0  0  0  0
   37.3150   30.5770   49.1630 C   0  0  0  0  0  0  0  0  0  0  0  0
   35.9950   30.7000   48.7420 N   0  0  0  0  0  0  0  0  0  0  0  0
   33.9880   30.2490   49.3220 H   0  0  0  0  0  0  0  0  0  0  0  0
   34.6090   29.1800   51.4450 H   0  0  0  0  0  0  0  0  0  0  0  0
   36.9870   29.0140   52.0960 H   0  0  0  0  0  0  0  0  0  0  0  0
  1  3  1  0  0  0  0
  2  1  2  0  0  0  0
  3  4  1  0  0  0  0
  3 27  1  0  0  0  0
  5  6  1  0  0  0  0
  5  1  1  0  0  0  0
  6 11  1  0  0  0  0
  7 12  1  0  0  0  0
  7  6  2  0  0  0  0
  8  7  1  0  0  0  0
  9  8  2  0  0  0  0
  9 10  1  0  0  0  0
 10  5  2  0  0  0  0
 13  8  1  0  0  0  0
 14  9  1  0  0  0  0
 15 14  2  0  0  0  0
 16 17  1  0  0  0  0
 16 14  1  0  0  0  0
 17 18  1  0  0  0  0
 19 17  1  0  0  0  0
 20 19  1  0  0  0  0
 21 19  1  0  0  0  0
 22 21  1  0  0  0  0
 23 24  1  0  0  0  0
 23 21  1  0  0  0  0
 24 16  1  0  0  0  0
 25 28  1  6  0  0  0
 25 36  1  0  0  0  0
 26 25  1  0  0  0  0
 26 29  1  0  0  0  0
 27 31  1  6  0  0  0
 27 26  1  0  0  0  0
 27 25  1  0  0  0  0
 30 26  1  0  0  0  0
 32 33  1  0  0  0  0
 33 34  2  0  0  0  0
 33 39  1  0  0  0  0
 34 40  1  0  0  0  0
 35 34  1  0  0  0  0
 36 35  2  0  0  0  0
 37 36  1  0  0  0  0
 37 32  2  0  0  0  0
 38 32  1  0  0  0  0
M  END
>  <minimizedAffinity>
-5.13582754

>  <minimizedRMSD>
0.61288178

$$$$
