
 OpenBabel03272507313D

 29 31  0  0  0  0  0  0  0  0999 V2000
   35.9170   29.2320   49.7720 C   0  0  0  0  0  0  0  0  0  0  0  0
   34.9350   29.6270   50.6500 C   0  0  0  0  0  0  0  0  0  0  0  0
   33.7310   29.0900   50.1680 C   0  0  0  0  0  0  0  0  0  0  0  0
   34.0790   28.3990   49.0140 C   0  0  0  0  0  0  0  0  0  0  0  0
   35.3520   28.5130   48.8330 O   0  0  0  0  0  0  0  0  0  0  0  0
   34.9730   30.2240   51.5520 H   0  0  0  0  0  0  0  0  0  0  0  0
   32.7350   29.1680   50.5650 H   0  0  0  0  0  0  0  0  0  0  0  0
   33.1070   27.6790   48.1860 C   0  0  0  0  0  0  0  0  0  0  0  0
   31.8920   27.6060   48.5090 O   0  0  0  0  0  0  0  0  0  0  0  0
   33.4350   27.0180   46.9780 N   0  0  0  0  0  0  0  0  0  0  0  0
   33.8010   25.6600   47.2330 C   0  0  0  0  0  3  0  0  0  0  0  0
   34.7190   25.5640   47.8820 H   0  0  0  0  0  0  0  0  0  0  0  0
   34.2190   25.0570   45.8860 C   0  0  0  0  0  3  0  0  0  0  0  0
   34.3760   23.9750   46.0550 H   0  0  0  0  0  0  0  0  0  0  0  0
   33.1610   25.1950   44.9350 N   0  0  0  0  0  0  0  0  0  0  0  0
   32.4010   24.5260   45.2050 H   0  0  0  0  0  0  0  0  0  0  0  0
   32.6110   26.5080   44.8000 C   0  0  0  0  0  2  0  0  0  0  0  0
   33.4460   27.5050   45.6150 C   0  0  0  0  0  2  0  0  0  0  0  0
   37.3070   29.6060   49.9550 C   0  0  0  0  0  0  0  0  0  0  0  0
   37.9670   29.0470   50.8610 O   0  0  0  0  0  0  0  0  0  0  0  0
   37.8430   30.6130   49.0660 C   0  0  0  0  0  0  0  0  0  0  0  0
   38.1780   31.8360   49.6450 C   0  0  0  0  0  0  0  0  0  0  0  0
   38.7000   32.8340   48.8090 C   0  0  0  0  0  0  0  0  0  0  0  0
   38.8500   32.5530   47.4770 N   0  0  0  0  0  0  0  0  0  0  0  0
   38.5100   31.3510   46.9570 C   0  0  0  0  0  0  0  0  0  0  0  0
   38.0150   30.4040   47.7480 N   0  0  0  0  0  0  0  0  0  0  0  0
   38.0800   32.1040   50.6820 H   0  0  0  0  0  0  0  0  0  0  0  0
   38.9710   33.7940   49.2260 H   0  0  0  0  0  0  0  0  0  0  0  0
   38.6800   31.2630   45.8910 H   0  0  0  0  0  0  0  0  0  0  0  0
  1 19  1  0  0  0  0
  1  2  2  0  0  0  0
  2  6  1  0  0  0  0
  3  7  1  0  0  0  0
  3  2  1  0  0  0  0
  4  3  2  0  0  0  0
  5  4  1  0  0  0  0
  5  1  1  0  0  0  0
  8  9  2  0  0  0  0
  8  4  1  0  0  0  0
 10 11  1  0  0  0  0
 10  8  1  0  0  0  0
 11 12  1  0  0  0  0
 13 14  1  0  0  0  0
 13 11  1  0  0  0  0
 15 16  1  0  0  0  0
 15 13  1  0  0  0  0
 17 15  1  0  0  0  0
 17 18  1  0  0  0  0
 18 10  1  0  0  0  0
 19 20  2  0  0  0  0
 21 22  1  0  0  0  0
 21 19  1  0  0  0  0
 22 27  1  0  0  0  0
 23 28  1  0  0  0  0
 23 22  2  0  0  0  0
 24 23  1  0  0  0  0
 25 24  2  0  0  0  0
 25 26  1  0  0  0  0
 26 21  2  0  0  0  0
 29 25  1  0  0  0  0
M  END
>  <minimizedAffinity>
-5.17273569

>  <minimizedRMSD>
1.23755181

$$$$
