
 OpenBabel03272508583D

 40 43  0  0  1  0  0  0  0  0999 V2000
   38.3230   31.8610   44.4880 C   0  0  0  0  0  0  0  0  0  0  0  0
   37.2110   32.3900   44.3920 O   0  0  0  0  0  0  0  0  0  0  0  0
   38.9190   31.6110   45.7930 N   0  0  0  0  0  0  0  0  0  0  0  0
   39.9090   31.3630   45.9410 H   0  0  0  0  0  0  0  0  0  0  0  0
   39.1130   31.4530   43.3070 C   0  0  0  0  0  0  0  0  0  0  0  0
   40.2250   30.6760   43.4740 C   0  0  0  0  0  0  0  0  0  0  0  0
   40.9400   30.3160   42.3500 C   0  0  0  0  0  0  0  0  0  0  0  0
   40.4850   30.7650   41.1230 C   0  0  0  0  0  0  0  0  0  0  0  0
   39.3550   31.5550   40.9420 C   0  0  0  0  0  0  0  0  0  0  0  0
   38.7090   31.8670   42.0750 N   0  0  0  0  0  0  0  0  0  0  0  0
   40.5640   30.3350   44.4370 H   0  0  0  0  0  0  0  0  0  0  0  0
   41.8210   29.7040   42.4480 H   0  0  0  0  0  0  0  0  0  0  0  0
   41.0900   30.4480   40.2860 H   0  0  0  0  0  0  0  0  0  0  0  0
   38.9350   31.9860   39.6220 C   0  0  0  0  0  0  0  0  0  0  0  0
   39.2950   33.1140   39.2160 O   0  0  0  0  0  0  0  0  0  0  0  0
   38.1340   31.2510   38.7130 N   0  0  0  0  0  0  0  0  0  0  0  0
   37.6770   29.9360   39.1160 C   0  0  0  0  0  3  0  0  0  0  0  0
   37.8610   29.7660   40.1770 H   0  0  0  0  0  0  0  0  0  0  0  0
   38.4510   28.9280   38.2930 C   0  0  0  0  0  3  0  0  0  0  0  0
   37.8490   27.9910   38.2140 H   0  0  0  0  0  0  0  0  0  0  0  0
   38.6920   29.4460   36.9640 N   0  0  0  0  0  0  0  0  0  0  0  0
   38.7160   28.6820   36.2600 H   0  0  0  0  0  0  0  0  0  0  0  0
   37.5870   30.3410   36.5910 C   0  0  0  0  0  2  0  0  0  0  0  0
   37.6950   31.6470   37.3890 C   0  0  0  0  0  2  0  0  0  0  0  0
   38.4340   31.0900   48.1760 C   0  0  2  0  0  0  0  0  0  0  0  0
   38.6790   32.5540   48.0950 C   0  0  0  0  0  0  0  0  0  0  0  0
   38.0650   31.7200   46.9520 C   0  0  1  0  0  0  0  0  0  0  0  0
   39.3480   30.4680   48.2550 H   0  0  0  0  0  0  0  0  0  0  0  0
   38.0280   33.2170   48.6790 H   0  0  0  0  0  0  0  0  0  0  0  0
   39.7090   32.8910   47.9780 H   0  0  0  0  0  0  0  0  0  0  0  0
   37.0010   31.9870   46.7770 H   0  0  0  0  0  0  0  0  0  0  0  0
   35.0660   30.2320   49.5070 C   0  0  0  0  0  0  0  0  0  0  0  0
   35.4070   29.5500   50.7230 C   0  0  0  0  0  0  0  0  0  0  0  0
   36.8120   29.4070   51.0660 C   0  0  0  0  0  0  0  0  0  0  0  0
   37.7590   29.9260   50.2220 N   0  0  0  0  0  0  0  0  0  0  0  0
   37.3500   30.5620   49.0840 C   0  0  0  0  0  0  0  0  0  0  0  0
   36.0250   30.7310   48.6990 N   0  0  0  0  0  0  0  0  0  0  0  0
   34.0210   30.3050   49.3080 H   0  0  0  0  0  0  0  0  0  0  0  0
   34.6630   29.1460   51.3770 H   0  0  0  0  0  0  0  0  0  0  0  0
   37.0510   28.9020   51.9670 H   0  0  0  0  0  0  0  0  0  0  0  0
  1  3  1  0  0  0  0
  2  1  2  0  0  0  0
  3  4  1  0  0  0  0
  3 27  1  0  0  0  0
  5  6  1  0  0  0  0
  5  1  1  0  0  0  0
  6 11  1  0  0  0  0
  7 12  1  0  0  0  0
  7  6  2  0  0  0  0
  8  7  1  0  0  0  0
  9  8  2  0  0  0  0
  9 10  1  0  0  0  0
 10  5  2  0  0  0  0
 13  8  1  0  0  0  0
 14  9  1  0  0  0  0
 15 14  2  0  0  0  0
 16 17  1  0  0  0  0
 16 14  1  0  0  0  0
 17 18  1  0  0  0  0
 19 17  1  0  0  0  0
 20 19  1  0  0  0  0
 21 19  1  0  0  0  0
 22 21  1  0  0  0  0
 23 21  1  0  0  0  0
 23 24  1  0  0  0  0
 24 16  1  0  0  0  0
 25 28  1  6  0  0  0
 25 36  1  0  0  0  0
 26 25  1  0  0  0  0
 26 29  1  0  0  0  0
 27 31  1  6  0  0  0
 27 26  1  0  0  0  0
 27 25  1  0  0  0  0
 30 26  1  0  0  0  0
 32 33  1  0  0  0  0
 33 34  2  0  0  0  0
 33 39  1  0  0  0  0
 34 40  1  0  0  0  0
 35 34  1  0  0  0  0
 36 35  2  0  0  0  0
 37 36  1  0  0  0  0
 37 32  2  0  0  0  0
 38 32  1  0  0  0  0
M  END
>  <minimizedAffinity>
-5.02886391

>  <minimizedRMSD>
1.17607427

$$$$
