
 OpenBabel03272503393D

 29 31  0  0  1  0  0  0  0  0999 V2000
   38.1070   26.3190   34.3460 C   0  0  0  0  0  0  0  0  0  0  0  0
   39.3570   26.6780   34.7650 C   0  0  0  0  0  0  0  0  0  0  0  0
   39.9270   25.4960   35.2110 C   0  0  0  0  0  0  0  0  0  0  0  0
   39.0550   24.4910   35.0620 N   0  0  0  0  0  0  0  0  0  0  0  0
   37.9450   24.9950   34.5340 N   0  0  0  0  0  0  0  0  0  0  0  0
   39.8440   27.6230   34.7750 H   0  0  0  0  0  0  0  0  0  0  0  0
   40.9080   25.3060   35.6310 H   0  0  0  0  0  0  0  0  0  0  0  0
   40.6870   21.9660   36.2560 H   0  0  0  0  0  0  0  0  0  0  0  0
   40.2480   22.9020   36.4080 N   0  0  0  0  0  0  0  0  0  0  0  0
   39.2250   23.0820   35.3960 C   0  0  1  0  0  3  0  0  0  0  0  0
   37.9370   22.4870   35.9180 C   0  0  0  0  0  3  0  0  0  0  0  0
   37.2000   22.2870   35.1360 H   0  0  0  0  0  0  0  0  0  0  0  0
   37.4370   23.4110   36.9130 N   0  0  0  0  0  0  0  0  0  0  0  0
   37.0080   24.2610   36.5180 H   0  0  0  0  0  0  0  0  0  0  0  0
   38.4360   23.6860   37.9010 C   0  0  0  0  0  2  0  0  0  0  0  0
   39.7120   22.9120   37.7440 C   0  0  0  0  0  2  0  0  0  0  0  0
   35.5340   29.0200   33.9480 C   0  0  0  0  0  0  0  0  0  0  0  0
   36.4880   28.1890   34.5440 C   0  0  0  0  0  0  0  0  0  0  0  0
   37.1080   27.2140   33.7860 C   0  0  0  0  0  0  0  0  0  0  0  0
   36.7600   27.1070   32.4820 N   0  0  0  0  0  0  0  0  0  0  0  0
   35.8280   27.9290   31.9260 C   0  0  0  0  0  0  0  0  0  0  0  0
   35.2230   28.8690   32.6380 N   0  0  0  0  0  0  0  0  0  0  0  0
   36.7850   28.2480   35.5700 H   0  0  0  0  0  0  0  0  0  0  0  0
   35.6030   27.7850   30.8890 H   0  0  0  0  0  0  0  0  0  0  0  0
   35.0020   29.9450   34.8300 O   0  0  0  0  0  0  0  0  0  0  0  0
   35.5420   31.2220   35.0470 C   0  0  0  0  0  0  0  0  0  0  0  0
   36.0730   31.7670   33.9000 F   0  0  0  0  0  0  0  0  0  0  0  0
   36.5000   31.1370   36.0310 F   0  0  0  0  0  0  0  0  0  0  0  0
   34.5320   32.0470   35.5110 F   0  0  0  0  0  0  0  0  0  0  0  0
  1  5  2  0  0  0  0
  1  2  1  0  0  0  0
  2  6  1  0  0  0  0
  2  3  2  0  0  0  0
  3  7  1  0  0  0  0
  4  3  1  0  0  0  0
  5  4  1  0  0  0  0
  8  9  1  0  0  0  0
  9 16  1  0  0  0  0
 10  4  1  1  0  0  0
 10 11  1  0  0  0  0
 10  9  1  0  0  0  0
 11 13  1  0  0  0  0
 12 11  1  0  0  0  0
 13 15  1  0  0  0  0
 14 13  1  0  0  0  0
 16 15  1  0  0  0  0
 17 18  1  0  0  0  0
 17 25  1  0  0  0  0
 18 23  1  0  0  0  0
 19  1  1  0  0  0  0
 19 18  2  0  0  0  0
 20 19  1  0  0  0  0
 21 20  2  0  0  0  0
 21 22  1  0  0  0  0
 22 17  2  0  0  0  0
 24 21  1  0  0  0  0
 25 26  1  0  0  0  0
 26 29  1  0  0  0  0
 26 28  1  0  0  0  0
 27 26  1  0  0  0  0
M  END
>  <minimizedAffinity>
-5.30464792

$$$$

 OpenBabel03272503393D

 29 31  0  0  1  0  0  0  0  0999 V2000
   36.8750   27.9050   33.7910 C   0  0  0  0  0  0  0  0  0  0  0  0
   36.8350   28.1580   32.4480 C   0  0  0  0  0  0  0  0  0  0  0  0
   35.8080   29.0760   32.2970 C   0  0  0  0  0  0  0  0  0  0  0  0
   35.2690   29.3500   33.4920 N   0  0  0  0  0  0  0  0  0  0  0  0
   35.9210   28.6340   34.4020 N   0  0  0  0  0  0  0  0  0  0  0  0
   37.4250   27.7760   31.6500 H   0  0  0  0  0  0  0  0  0  0  0  0
   35.4220   29.5560   31.4060 H   0  0  0  0  0  0  0  0  0  0  0  0
   32.8980   30.4920   35.3740 H   0  0  0  0  0  0  0  0  0  0  0  0
   33.9150   30.2910   35.2350 N   0  0  0  0  0  0  0  0  0  0  0  0
   34.1700   30.2540   33.8090 C   0  0  1  0  0  3  0  0  0  0  0  0
   34.4730   31.6620   33.3490 C   0  0  0  0  0  3  0  0  0  0  0  0
   34.3720   31.8010   32.2700 H   0  0  0  0  0  0  0  0  0  0  0  0
   35.8120   31.9610   33.8120 N   0  0  0  0  0  0  0  0  0  0  0  0
   36.5560   31.5070   33.2620 H   0  0  0  0  0  0  0  0  0  0  0  0
   35.9270   31.7320   35.2200 C   0  0  0  0  0  2  0  0  0  0  0  0
   34.6520   31.3310   35.9030 C   0  0  0  0  0  2  0  0  0  0  0  0
   38.2860   25.1580   35.9200 C   0  0  0  0  0  0  0  0  0  0  0  0
   37.3530   25.9990   35.3070 C   0  0  0  0  0  0  0  0  0  0  0  0
   37.7920   26.9980   34.4580 C   0  0  0  0  0  0  0  0  0  0  0  0
   39.1260   27.1160   34.2570 N   0  0  0  0  0  0  0  0  0  0  0  0
   40.0140   26.2830   34.8660 C   0  0  0  0  0  0  0  0  0  0  0  0
   39.6100   25.3200   35.6820 N   0  0  0  0  0  0  0  0  0  0  0  0
   36.2940   25.9320   35.4450 H   0  0  0  0  0  0  0  0  0  0  0  0
   41.0520   26.4380   34.6590 H   0  0  0  0  0  0  0  0  0  0  0  0
   37.6960   24.2090   36.7380 O   0  0  0  0  0  0  0  0  0  0  0  0
   38.1150   23.9350   38.0500 C   0  0  0  0  0  0  0  0  0  0  0  0
   39.3930   23.4250   38.0940 F   0  0  0  0  0  0  0  0  0  0  0  0
   37.2240   23.0610   38.6260 F   0  0  0  0  0  0  0  0  0  0  0  0
   38.0770   25.1160   38.7720 F   0  0  0  0  0  0  0  0  0  0  0  0
  1  5  2  0  0  0  0
  1 19  1  0  0  0  0
  2  1  1  0  0  0  0
  3  2  2  0  0  0  0
  3  4  1  0  0  0  0
  4  5  1  0  0  0  0
  6  2  1  0  0  0  0
  7  3  1  0  0  0  0
  9  8  1  0  0  0  0
  9 16  1  0  0  0  0
 10  4  1  1  0  0  0
 10  9  1  0  0  0  0
 11 10  1  0  0  0  0
 11 13  1  0  0  0  0
 12 11  1  0  0  0  0
 13 15  1  0  0  0  0
 14 13  1  0  0  0  0
 15 16  1  0  0  0  0
 17 25  1  0  0  0  0
 18 23  1  0  0  0  0
 18 17  2  0  0  0  0
 19 18  1  0  0  0  0
 20 19  2  0  0  0  0
 20 21  1  0  0  0  0
 21 22  2  0  0  0  0
 22 17  1  0  0  0  0
 24 21  1  0  0  0  0
 25 26  1  0  0  0  0
 26 27  1  0  0  0  0
 26 28  1  0  0  0  0
 26 29  1  0  0  0  0
M  END
>  <minimizedAffinity>
-5.20368862

$$$$

 OpenBabel03272503393D

 29 31  0  0  1  0  0  0  0  0999 V2000
   37.8900   25.7660   35.3570 C   0  0  0  0  0  0  0  0  0  0  0  0
   37.8010   27.1140   35.5670 C   0  0  0  0  0  0  0  0  0  0  0  0
   37.3210   27.6210   34.3700 C   0  0  0  0  0  0  0  0  0  0  0  0
   37.1370   26.6210   33.4980 N   0  0  0  0  0  0  0  0  0  0  0  0
   37.4850   25.4910   34.1020 N   0  0  0  0  0  0  0  0  0  0  0  0
   38.0280   27.7030   36.4230 H   0  0  0  0  0  0  0  0  0  0  0  0
   37.0970   28.6410   34.0800 H   0  0  0  0  0  0  0  0  0  0  0  0
   36.0850   28.1750   30.8620 H   0  0  0  0  0  0  0  0  0  0  0  0
   36.8420   28.0110   31.5640 N   0  0  0  0  0  0  0  0  0  0  0  0
   36.6490   26.6890   32.1260 C   0  0  1  0  0  3  0  0  0  0  0  0
   37.3690   25.6940   31.2430 C   0  0  0  0  0  3  0  0  0  0  0  0
   37.0370   24.6620   31.3860 H   0  0  0  0  0  0  0  0  0  0  0  0
   38.7810   25.8530   31.5180 N   0  0  0  0  0  0  0  0  0  0  0  0
   39.0830   25.4390   32.4120 H   0  0  0  0  0  0  0  0  0  0  0  0
   39.1790   27.2200   31.3620 C   0  0  0  0  0  2  0  0  0  0  0  0
   38.1000   28.1420   30.8760 C   0  0  0  0  0  2  0  0  0  0  0  0
   39.5960   22.8330   36.9550 C   0  0  0  0  0  0  0  0  0  0  0  0
   39.1910   23.7460   35.9780 C   0  0  0  0  0  0  0  0  0  0  0  0
   38.3470   24.7840   36.3250 C   0  0  0  0  0  0  0  0  0  0  0  0
   37.9440   24.8680   37.6150 N   0  0  0  0  0  0  0  0  0  0  0  0
   38.3530   23.9650   38.5480 C   0  0  0  0  0  0  0  0  0  0  0  0
   39.1630   22.9640   38.2330 N   0  0  0  0  0  0  0  0  0  0  0  0
   39.4910   23.7080   34.9510 H   0  0  0  0  0  0  0  0  0  0  0  0
   37.9930   24.0950   39.5480 H   0  0  0  0  0  0  0  0  0  0  0  0
   40.4390   21.8530   36.4580 O   0  0  0  0  0  0  0  0  0  0  0  0
   41.7660   21.6720   36.8800 C   0  0  0  0  0  0  0  0  0  0  0  0
   42.5120   20.9600   35.9680 F   0  0  0  0  0  0  0  0  0  0  0  0
   41.7600   21.0390   38.1000 F   0  0  0  0  0  0  0  0  0  0  0  0
   42.3400   22.9200   37.0520 F   0  0  0  0  0  0  0  0  0  0  0  0
  1  2  1  0  0  0  0
  1 19  1  0  0  0  0
  2  6  1  0  0  0  0
  3  2  2  0  0  0  0
  4  5  1  0  0  0  0
  4  3  1  0  0  0  0
  5  1  2  0  0  0  0
  7  3  1  0  0  0  0
  8  9  1  0  0  0  0
  9 10  1  0  0  0  0
 10  4  1  1  0  0  0
 11 12  1  0  0  0  0
 11 13  1  0  0  0  0
 11 10  1  0  0  0  0
 13 14  1  0  0  0  0
 15 13  1  0  0  0  0
 16 15  1  0  0  0  0
 16  9  1  0  0  0  0
 17 22  1  0  0  0  0
 18 19  1  0  0  0  0
 18 17  2  0  0  0  0
 19 20  2  0  0  0  0
 20 21  1  0  0  0  0
 21 24  1  0  0  0  0
 22 21  2  0  0  0  0
 23 18  1  0  0  0  0
 25 26  1  0  0  0  0
 25 17  1  0  0  0  0
 26 29  1  0  0  0  0
 26 28  1  0  0  0  0
 27 26  1  0  0  0  0
M  END
>  <minimizedAffinity>
-5.19238043

$$$$

 OpenBabel03272503393D

 29 31  0  0  1  0  0  0  0  0999 V2000
   35.0090   29.8430   34.4400 C   0  0  0  0  0  0  0  0  0  0  0  0
   35.5860   30.8890   35.1050 C   0  0  0  0  0  0  0  0  0  0  0  0
   34.5180   31.6570   35.5390 C   0  0  0  0  0  0  0  0  0  0  0  0
   33.3680   31.0920   35.1480 N   0  0  0  0  0  0  0  0  0  0  0  0
   33.6700   29.9860   34.4780 N   0  0  0  0  0  0  0  0  0  0  0  0
   36.6080   31.1210   35.2860 H   0  0  0  0  0  0  0  0  0  0  0  0
   34.5030   32.5810   36.1060 H   0  0  0  0  0  0  0  0  0  0  0  0
   30.1780   31.1080   34.6100 H   0  0  0  0  0  0  0  0  0  0  0  0
   31.0360   30.5860   34.8990 N   0  0  0  0  0  0  0  0  0  0  0  0
   32.0040   31.5520   35.3800 C   0  0  1  0  0  3  0  0  0  0  0  0
   31.7490   31.7800   36.8530 C   0  0  0  0  0  3  0  0  0  0  0  0
   32.2000   32.6980   37.2380 H   0  0  0  0  0  0  0  0  0  0  0  0
   32.2420   30.6040   37.5380 N   0  0  0  0  0  0  0  0  0  0  0  0
   33.2700   30.5630   37.6130 H   0  0  0  0  0  0  0  0  0  0  0  0
   31.6660   29.4140   36.9860 C   0  0  0  0  0  2  0  0  0  0  0  0
   30.6420   29.6450   35.9150 C   0  0  0  0  0  2  0  0  0  0  0  0
   37.2660   26.9170   33.7990 C   0  0  0  0  0  0  0  0  0  0  0  0
   36.6160   27.9520   34.4760 C   0  0  0  0  0  0  0  0  0  0  0  0
   35.7180   28.7520   33.7950 C   0  0  0  0  0  0  0  0  0  0  0  0
   35.5050   28.4900   32.4830 N   0  0  0  0  0  0  0  0  0  0  0  0
   36.1520   27.4740   31.8480 C   0  0  0  0  0  0  0  0  0  0  0  0
   37.0170   26.6990   32.4860 N   0  0  0  0  0  0  0  0  0  0  0  0
   36.7610   28.1850   35.5110 H   0  0  0  0  0  0  0  0  0  0  0  0
   35.9340   27.3280   30.8100 H   0  0  0  0  0  0  0  0  0  0  0  0
   38.1330   26.2060   34.6120 O   0  0  0  0  0  0  0  0  0  0  0  0
   39.4090   26.6580   34.9840 C   0  0  0  0  0  0  0  0  0  0  0  0
   39.9840   27.4510   34.0170 F   0  0  0  0  0  0  0  0  0  0  0  0
   40.2040   25.5690   35.2530 F   0  0  0  0  0  0  0  0  0  0  0  0
   39.2850   27.3910   36.1520 F   0  0  0  0  0  0  0  0  0  0  0  0
  1  5  2  0  0  0  0
  1  2  1  0  0  0  0
  2  6  1  0  0  0  0
  2  3  2  0  0  0  0
  3  7  1  0  0  0  0
  4  3  1  0  0  0  0
  5  4  1  0  0  0  0
  8  9  1  0  0  0  0
  9 10  1  0  0  0  0
  9 16  1  0  0  0  0
 10  4  1  1  0  0  0
 10 11  1  0  0  0  0
 11 12  1  0  0  0  0
 11 13  1  0  0  0  0
 13 14  1  0  0  0  0
 15 13  1  0  0  0  0
 16 15  1  0  0  0  0
 17 18  1  0  0  0  0
 17 25  1  0  0  0  0
 18 23  1  0  0  0  0
 19  1  1  0  0  0  0
 19 18  2  0  0  0  0
 20 19  1  0  0  0  0
 21 20  2  0  0  0  0
 21 22  1  0  0  0  0
 22 17  2  0  0  0  0
 24 21  1  0  0  0  0
 25 26  1  0  0  0  0
 26 28  1  0  0  0  0
 26 29  1  0  0  0  0
 27 26  1  0  0  0  0
M  END
>  <minimizedAffinity>
-5.17753839

$$$$

 OpenBabel03272503393D

 29 31  0  0  1  0  0  0  0  0999 V2000
   36.6820   27.2430   32.9610 C   0  0  0  0  0  0  0  0  0  0  0  0
   36.4820   27.3550   31.6130 C   0  0  0  0  0  0  0  0  0  0  0  0
   35.9380   28.6180   31.4470 C   0  0  0  0  0  0  0  0  0  0  0  0
   35.8230   29.2200   32.6370 N   0  0  0  0  0  0  0  0  0  0  0  0
   36.2770   28.3790   33.5600 N   0  0  0  0  0  0  0  0  0  0  0  0
   36.6760   26.6730   30.8210 H   0  0  0  0  0  0  0  0  0  0  0  0
   35.6210   29.1320   30.5460 H   0  0  0  0  0  0  0  0  0  0  0  0
   34.4710   32.0560   31.8600 H   0  0  0  0  0  0  0  0  0  0  0  0
   34.4100   31.0130   31.8960 N   0  0  0  0  0  0  0  0  0  0  0  0
   35.3040   30.5490   32.9380 C   0  0  1  0  0  3  0  0  0  0  0  0
   34.5430   30.5530   34.2450 C   0  0  0  0  0  3  0  0  0  0  0  0
   35.1890   30.5270   35.1270 H   0  0  0  0  0  0  0  0  0  0  0  0
   33.6450   29.4200   34.1960 N   0  0  0  0  0  0  0  0  0  0  0  0
   34.1080   28.5110   34.3460 H   0  0  0  0  0  0  0  0  0  0  0  0
   32.8400   29.4580   33.0120 C   0  0  0  0  0  2  0  0  0  0  0  0
   33.0350   30.6740   32.1540 C   0  0  0  0  0  2  0  0  0  0  0  0
   38.0940   24.9700   35.5900 C   0  0  0  0  0  0  0  0  0  0  0  0
   37.5600   26.1130   34.9890 C   0  0  0  0  0  0  0  0  0  0  0  0
   37.2400   26.0890   33.6440 C   0  0  0  0  0  0  0  0  0  0  0  0
   37.4610   24.9410   32.9610 N   0  0  0  0  0  0  0  0  0  0  0  0
   37.9830   23.8400   33.5710 C   0  0  0  0  0  0  0  0  0  0  0  0
   38.2950   23.8460   34.8590 N   0  0  0  0  0  0  0  0  0  0  0  0
   37.3720   27.0350   35.5000 H   0  0  0  0  0  0  0  0  0  0  0  0
   38.1310   22.9690   32.9670 H   0  0  0  0  0  0  0  0  0  0  0  0
   38.3620   25.1470   36.9370 O   0  0  0  0  0  0  0  0  0  0  0  0
   38.1100   24.1780   37.9210 C   0  0  0  0  0  0  0  0  0  0  0  0
   39.2110   23.3890   38.1700 F   0  0  0  0  0  0  0  0  0  0  0  0
   37.0430   23.4090   37.5220 F   0  0  0  0  0  0  0  0  0  0  0  0
   37.7510   24.8290   39.0880 F   0  0  0  0  0  0  0  0  0  0  0  0
  1  5  2  0  0  0  0
  1 19  1  0  0  0  0
  2  1  1  0  0  0  0
  3  2  2  0  0  0  0
  3  4  1  0  0  0  0
  4  5  1  0  0  0  0
  6  2  1  0  0  0  0
  7  3  1  0  0  0  0
  8  9  1  0  0  0  0
  9 16  1  0  0  0  0
  9 10  1  0  0  0  0
 10  4  1  6  0  0  0
 10 11  1  0  0  0  0
 11 12  1  0  0  0  0
 13 11  1  0  0  0  0
 13 14  1  0  0  0  0
 15 13  1  0  0  0  0
 16 15  1  0  0  0  0
 17 25  1  0  0  0  0
 18 23  1  0  0  0  0
 18 17  1  0  0  0  0
 19 18  2  0  0  0  0
 20 21  2  0  0  0  0
 20 19  1  0  0  0  0
 21 22  1  0  0  0  0
 22 17  2  0  0  0  0
 24 21  1  0  0  0  0
 25 26  1  0  0  0  0
 26 27  1  0  0  0  0
 26 29  1  0  0  0  0
 28 26  1  0  0  0  0
M  END
>  <minimizedAffinity>
-5.13145351

$$$$

 OpenBabel03272503393D

 29 31  0  0  1  0  0  0  0  0999 V2000
   38.0540   26.4390   34.5080 C   0  0  0  0  0  0  0  0  0  0  0  0
   39.4070   26.5840   34.3800 C   0  0  0  0  0  0  0  0  0  0  0  0
   39.9400   25.5540   35.1390 C   0  0  0  0  0  0  0  0  0  0  0  0
   38.9500   24.8380   35.6870 N   0  0  0  0  0  0  0  0  0  0  0  0
   37.8000   25.3800   35.3010 N   0  0  0  0  0  0  0  0  0  0  0  0
   39.9830   27.2960   33.8410 H   0  0  0  0  0  0  0  0  0  0  0  0
   40.9730   25.2840   35.3260 H   0  0  0  0  0  0  0  0  0  0  0  0
   37.7470   22.6190   37.7110 H   0  0  0  0  0  0  0  0  0  0  0  0
   37.7430   23.0670   36.7660 N   0  0  0  0  0  0  0  0  0  0  0  0
   39.0440   23.6710   36.5550 C   0  0  1  0  0  3  0  0  0  0  0  0
   39.9580   22.6230   35.9620 C   0  0  0  0  0  3  0  0  0  0  0  0
   41.0200   22.8660   36.0530 H   0  0  0  0  0  0  0  0  0  0  0  0
   39.5540   22.4660   34.5800 N   0  0  0  0  0  0  0  0  0  0  0  0
   39.8590   23.2350   33.9650 H   0  0  0  0  0  0  0  0  0  0  0  0
   38.1520   22.1890   34.4890 C   0  0  0  0  0  2  0  0  0  0  0  0
   37.4490   22.0360   35.8060 C   0  0  0  0  0  2  0  0  0  0  0  0
   35.4350   29.0640   33.9440 C   0  0  0  0  0  0  0  0  0  0  0  0
   36.3950   28.2830   34.5930 C   0  0  0  0  0  0  0  0  0  0  0  0
   37.0460   27.2850   33.8920 C   0  0  0  0  0  0  0  0  0  0  0  0
   36.7180   27.1070   32.5900 N   0  0  0  0  0  0  0  0  0  0  0  0
   35.7780   27.8830   31.9820 C   0  0  0  0  0  0  0  0  0  0  0  0
   35.1450   28.8440   32.6380 N   0  0  0  0  0  0  0  0  0  0  0  0
   36.6770   28.3980   35.6180 H   0  0  0  0  0  0  0  0  0  0  0  0
   35.5720   27.6830   30.9510 H   0  0  0  0  0  0  0  0  0  0  0  0
   34.8720   30.0210   34.7720 O   0  0  0  0  0  0  0  0  0  0  0  0
   35.4690   31.2580   35.0600 C   0  0  0  0  0  0  0  0  0  0  0  0
   36.3980   31.1680   36.0720 F   0  0  0  0  0  0  0  0  0  0  0  0
   34.4840   32.1600   35.3870 F   0  0  0  0  0  0  0  0  0  0  0  0
   36.0970   31.7130   33.9140 F   0  0  0  0  0  0  0  0  0  0  0  0
  1  5  2  0  0  0  0
  2  1  1  0  0  0  0
  2  3  2  0  0  0  0
  3  7  1  0  0  0  0
  3  4  1  0  0  0  0
  5  4  1  0  0  0  0
  6  2  1  0  0  0  0
  9  8  1  0  0  0  0
 10  4  1  6  0  0  0
 10  9  1  0  0  0  0
 11 12  1  0  0  0  0
 11 10  1  0  0  0  0
 13 11  1  0  0  0  0
 14 13  1  0  0  0  0
 15 13  1  0  0  0  0
 15 16  1  0  0  0  0
 16  9  1  0  0  0  0
 17 18  1  0  0  0  0
 17 25  1  0  0  0  0
 18 23  1  0  0  0  0
 19  1  1  0  0  0  0
 19 18  2  0  0  0  0
 20 19  1  0  0  0  0
 21 20  2  0  0  0  0
 21 22  1  0  0  0  0
 22 17  2  0  0  0  0
 24 21  1  0  0  0  0
 25 26  1  0  0  0  0
 26 28  1  0  0  0  0
 26 27  1  0  0  0  0
 29 26  1  0  0  0  0
M  END
>  <minimizedAffinity>
-5.05900621

$$$$

 OpenBabel03272503393D

 29 31  0  0  1  0  0  0  0  0999 V2000
   40.2810   25.6110   33.4210 C   0  0  0  0  0  0  0  0  0  0  0  0
   40.9970   26.7350   33.1170 C   0  0  0  0  0  0  0  0  0  0  0  0
   40.3730   27.2510   31.9920 C   0  0  0  0  0  0  0  0  0  0  0  0
   39.3410   26.4690   31.6500 N   0  0  0  0  0  0  0  0  0  0  0  0
   39.2870   25.4690   32.5230 N   0  0  0  0  0  0  0  0  0  0  0  0
   41.8440   27.1710   33.5900 H   0  0  0  0  0  0  0  0  0  0  0  0
   40.6020   28.1330   31.4060 H   0  0  0  0  0  0  0  0  0  0  0  0
   37.0550   25.4330   29.6090 H   0  0  0  0  0  0  0  0  0  0  0  0
   37.3600   25.6270   30.5900 N   0  0  0  0  0  0  0  0  0  0  0  0
   38.4100   26.6250   30.5390 C   0  0  1  0  0  3  0  0  0  0  0  0
   37.7620   27.9910   30.5610 C   0  0  0  0  0  3  0  0  0  0  0  0
   38.4200   28.7930   30.2160 H   0  0  0  0  0  0  0  0  0  0  0  0
   37.3100   28.2050   31.9190 N   0  0  0  0  0  0  0  0  0  0  0  0
   38.0660   28.4360   32.5810 H   0  0  0  0  0  0  0  0  0  0  0  0
   36.4840   27.1210   32.3580 C   0  0  0  0  0  2  0  0  0  0  0  0
   36.2020   26.0770   31.3170 C   0  0  0  0  0  2  0  0  0  0  0  0
   39.8490   23.3690   36.3970 C   0  0  0  0  0  0  0  0  0  0  0  0
   39.5330   24.2330   35.3450 C   0  0  0  0  0  0  0  0  0  0  0  0
   40.5430   24.7110   34.5310 C   0  0  0  0  0  0  0  0  0  0  0  0
   41.8100   24.3130   34.7940 N   0  0  0  0  0  0  0  0  0  0  0  0
   42.0910   23.4700   35.8250 C   0  0  0  0  0  0  0  0  0  0  0  0
   41.1350   23.0020   36.6160 N   0  0  0  0  0  0  0  0  0  0  0  0
   38.5430   24.5660   35.1110 H   0  0  0  0  0  0  0  0  0  0  0  0
   43.1160   23.2000   35.9720 H   0  0  0  0  0  0  0  0  0  0  0  0
   38.7360   22.9760   37.1210 O   0  0  0  0  0  0  0  0  0  0  0  0
   38.3210   23.5870   38.3150 C   0  0  0  0  0  0  0  0  0  0  0  0
   37.8830   24.8770   38.1160 F   0  0  0  0  0  0  0  0  0  0  0  0
   39.3640   23.5630   39.2110 F   0  0  0  0  0  0  0  0  0  0  0  0
   37.2870   22.8380   38.8480 F   0  0  0  0  0  0  0  0  0  0  0  0
  1 19  1  0  0  0  0
  2  1  1  0  0  0  0
  2  6  1  0  0  0  0
  3  2  2  0  0  0  0
  4  3  1  0  0  0  0
  4  5  1  0  0  0  0
  5  1  2  0  0  0  0
  7  3  1  0  0  0  0
  8  9  1  0  0  0  0
  9 16  1  0  0  0  0
 10 11  1  0  0  0  0
 10  9  1  0  0  0  0
 10  4  1  1  0  0  0
 11 13  1  0  0  0  0
 12 11  1  0  0  0  0
 13 15  1  0  0  0  0
 13 14  1  0  0  0  0
 16 15  1  0  0  0  0
 17 22  1  0  0  0  0
 17 25  1  0  0  0  0
 18 17  2  0  0  0  0
 19 20  2  0  0  0  0
 19 18  1  0  0  0  0
 20 21  1  0  0  0  0
 21 24  1  0  0  0  0
 21 22  2  0  0  0  0
 23 18  1  0  0  0  0
 25 26  1  0  0  0  0
 26 29  1  0  0  0  0
 26 28  1  0  0  0  0
 27 26  1  0  0  0  0
M  END
>  <minimizedAffinity>
-5.01113319

$$$$

 OpenBabel03272503393D

 29 31  0  0  1  0  0  0  0  0999 V2000
   38.4240   26.2010   34.2490 C   0  0  0  0  0  0  0  0  0  0  0  0
   39.6900   26.4770   34.6860 C   0  0  0  0  0  0  0  0  0  0  0  0
   40.1540   25.2730   35.1900 C   0  0  0  0  0  0  0  0  0  0  0  0
   39.2090   24.3340   35.0570 N   0  0  0  0  0  0  0  0  0  0  0  0
   38.1540   24.9020   34.4830 N   0  0  0  0  0  0  0  0  0  0  0  0
   40.2500   27.3810   34.6720 H   0  0  0  0  0  0  0  0  0  0  0  0
   41.1070   25.0220   35.6410 H   0  0  0  0  0  0  0  0  0  0  0  0
   40.6090   21.7370   36.3870 H   0  0  0  0  0  0  0  0  0  0  0  0
   40.2410   22.7110   36.4910 N   0  0  0  0  0  0  0  0  0  0  0  0
   39.2590   22.9300   35.4480 C   0  0  1  0  0  3  0  0  0  0  0  0
   37.9170   22.4590   35.9600 C   0  0  0  0  0  3  0  0  0  0  0  0
   37.1830   22.2870   35.1690 H   0  0  0  0  0  0  0  0  0  0  0  0
   37.4690   23.4580   36.9070 N   0  0  0  0  0  0  0  0  0  0  0  0
   37.1190   24.3230   36.4700 H   0  0  0  0  0  0  0  0  0  0  0  0
   38.4660   23.6930   37.9080 C   0  0  0  0  0  2  0  0  0  0  0  0
   39.6790   22.8160   37.8120 C   0  0  0  0  0  2  0  0  0  0  0  0
   36.5300   28.2300   31.7260 C   0  0  0  0  0  0  0  0  0  0  0  0
   37.4280   27.3010   32.2600 C   0  0  0  0  0  0  0  0  0  0  0  0
   37.5120   27.1480   33.6310 C   0  0  0  0  0  0  0  0  0  0  0  0
   36.7100   27.9160   34.4050 N   0  0  0  0  0  0  0  0  0  0  0  0
   35.8430   28.8140   33.8590 C   0  0  0  0  0  0  0  0  0  0  0  0
   35.7490   28.9730   32.5470 N   0  0  0  0  0  0  0  0  0  0  0  0
   38.0750   26.6800   31.6770 H   0  0  0  0  0  0  0  0  0  0  0  0
   35.2410   29.3860   34.5340 H   0  0  0  0  0  0  0  0  0  0  0  0
   36.5580   28.2690   30.3420 O   0  0  0  0  0  0  0  0  0  0  0  0
   37.1750   29.2870   29.5990 C   0  0  0  0  0  0  0  0  0  0  0  0
   36.4550   30.4600   29.6200 F   0  0  0  0  0  0  0  0  0  0  0  0
   37.3500   28.8490   28.3070 F   0  0  0  0  0  0  0  0  0  0  0  0
   38.4280   29.5200   30.1400 F   0  0  0  0  0  0  0  0  0  0  0  0
  1  5  2  0  0  0  0
  1  2  1  0  0  0  0
  2  3  2  0  0  0  0
  3  7  1  0  0  0  0
  4  3  1  0  0  0  0
  5  4  1  0  0  0  0
  6  2  1  0  0  0  0
  8  9  1  0  0  0  0
  9 16  1  0  0  0  0
 10  4  1  1  0  0  0
 10 11  1  0  0  0  0
 10  9  1  0  0  0  0
 11 13  1  0  0  0  0
 12 11  1  0  0  0  0
 13 15  1  0  0  0  0
 14 13  1  0  0  0  0
 16 15  1  0  0  0  0
 17 18  2  0  0  0  0
 17 22  1  0  0  0  0
 18 19  1  0  0  0  0
 19  1  1  0  0  0  0
 19 20  2  0  0  0  0
 21 20  1  0  0  0  0
 21 24  1  0  0  0  0
 22 21  2  0  0  0  0
 23 18  1  0  0  0  0
 25 17  1  0  0  0  0
 26 27  1  0  0  0  0
 26 29  1  0  0  0  0
 26 25  1  0  0  0  0
 28 26  1  0  0  0  0
M  END
>  <minimizedAffinity>
-4.90523863

$$$$

 OpenBabel03272503393D

 29 31  0  0  1  0  0  0  0  0999 V2000
   35.5300   29.4540   32.2900 C   0  0  0  0  0  0  0  0  0  0  0  0
   35.6640   30.7490   31.8740 C   0  0  0  0  0  0  0  0  0  0  0  0
   34.3750   31.2570   31.8980 C   0  0  0  0  0  0  0  0  0  0  0  0
   33.5240   30.3080   32.3070 N   0  0  0  0  0  0  0  0  0  0  0  0
   34.2310   29.2090   32.5450 N   0  0  0  0  0  0  0  0  0  0  0  0
   36.5250   31.3030   31.5860 H   0  0  0  0  0  0  0  0  0  0  0  0
   34.0060   32.2440   31.6460 H   0  0  0  0  0  0  0  0  0  0  0  0
   30.5390   29.0710   32.4770 H   0  0  0  0  0  0  0  0  0  0  0  0
   31.5160   29.1110   32.8480 N   0  0  0  0  0  0  0  0  0  0  0  0
   32.0790   30.3950   32.4810 C   0  0  1  0  0  3  0  0  0  0  0  0
   31.7190   31.3910   33.5590 C   0  0  0  0  0  3  0  0  0  0  0  0
   31.8160   32.4330   33.2430 H   0  0  0  0  0  0  0  0  0  0  0  0
   32.5670   31.0870   34.6930 N   0  0  0  0  0  0  0  0  0  0  0  0
   33.5430   31.3990   34.5810 H   0  0  0  0  0  0  0  0  0  0  0  0
   32.4500   29.7080   35.0600 C   0  0  0  0  0  2  0  0  0  0  0  0
   31.4400   28.9260   34.2730 C   0  0  0  0  0  2  0  0  0  0  0  0
   37.7810   26.7660   33.6240 C   0  0  0  0  0  0  0  0  0  0  0  0
   36.7200   27.6720   33.5430 C   0  0  0  0  0  0  0  0  0  0  0  0
   36.6090   28.4920   32.4360 C   0  0  0  0  0  0  0  0  0  0  0  0
   37.5470   28.3770   31.4660 N   0  0  0  0  0  0  0  0  0  0  0  0
   38.5710   27.4860   31.5700 C   0  0  0  0  0  0  0  0  0  0  0  0
   38.6930   26.6920   32.6250 N   0  0  0  0  0  0  0  0  0  0  0  0
   35.9620   27.7870   34.2900 H   0  0  0  0  0  0  0  0  0  0  0  0
   39.2760   27.4520   30.7650 H   0  0  0  0  0  0  0  0  0  0  0  0
   37.7570   26.0160   34.7880 O   0  0  0  0  0  0  0  0  0  0  0  0
   38.6860   26.1570   35.8310 C   0  0  0  0  0  0  0  0  0  0  0  0
   38.9840   27.4760   36.0910 F   0  0  0  0  0  0  0  0  0  0  0  0
   39.8250   25.4590   35.5070 F   0  0  0  0  0  0  0  0  0  0  0  0
   38.1480   25.5850   36.9710 F   0  0  0  0  0  0  0  0  0  0  0  0
  1 19  1  0  0  0  0
  1  5  2  0  0  0  0
  2  3  2  0  0  0  0
  2  1  1  0  0  0  0
  3  4  1  0  0  0  0
  4  5  1  0  0  0  0
  6  2  1  0  0  0  0
  7  3  1  0  0  0  0
  8  9  1  0  0  0  0
  9 16  1  0  0  0  0
 10  4  1  1  0  0  0
 10  9  1  0  0  0  0
 10 11  1  0  0  0  0
 11 13  1  0  0  0  0
 12 11  1  0  0  0  0
 13 15  1  0  0  0  0
 14 13  1  0  0  0  0
 16 15  1  0  0  0  0
 17 25  1  0  0  0  0
 18 17  1  0  0  0  0
 18 23  1  0  0  0  0
 19 18  2  0  0  0  0
 20 21  2  0  0  0  0
 20 19  1  0  0  0  0
 21 22  1  0  0  0  0
 22 17  2  0  0  0  0
 24 21  1  0  0  0  0
 25 26  1  0  0  0  0
 26 27  1  0  0  0  0
 26 29  1  0  0  0  0
 28 26  1  0  0  0  0
M  END
>  <minimizedAffinity>
-4.83914375

$$$$
