
 OpenBabel03272503393D

 29 31  0  0  1  0  0  0  0  0999 V2000
   37.7720   30.4650   45.6040 C   0  0  0  0  0  0  0  0  0  0  0  0
   38.2200   29.3670   44.9240 C   0  0  0  0  0  0  0  0  0  0  0  0
   39.0840   29.8780   43.9690 C   0  0  0  0  0  0  0  0  0  0  0  0
   39.1420   31.2120   44.0800 N   0  0  0  0  0  0  0  0  0  0  0  0
   38.3410   31.5680   45.0780 N   0  0  0  0  0  0  0  0  0  0  0  0
   38.0000   28.3340   45.0470 H   0  0  0  0  0  0  0  0  0  0  0  0
   39.6670   29.3720   43.2080 H   0  0  0  0  0  0  0  0  0  0  0  0
   41.0980   32.0380   41.6400 H   0  0  0  0  0  0  0  0  0  0  0  0
   40.1910   31.6350   41.9640 N   0  0  0  0  0  0  0  0  0  0  0  0
   39.9180   32.1580   43.2870 C   0  0  1  0  0  3  0  0  0  0  0  0
   39.1810   33.4690   43.1310 C   0  0  0  0  0  3  0  0  0  0  0  0
   39.2040   34.0920   44.0290 H   0  0  0  0  0  0  0  0  0  0  0  0
   37.8300   33.1320   42.7370 N   0  0  0  0  0  0  0  0  0  0  0  0
   37.2450   32.7730   43.5080 H   0  0  0  0  0  0  0  0  0  0  0  0
   37.8330   32.2830   41.5840 C   0  0  0  0  0  2  0  0  0  0  0  0
   39.1880   32.0100   41.0020 C   0  0  0  0  0  2  0  0  0  0  0  0
   36.2960   30.5770   49.0500 C   0  0  0  0  0  0  0  0  0  0  0  0
   37.2470   30.5950   48.0260 C   0  0  0  0  0  0  0  0  0  0  0  0
   36.8350   30.4550   46.7140 C   0  0  0  0  0  0  0  0  0  0  0  0
   35.5100   30.3030   46.4780 N   0  0  0  0  0  0  0  0  0  0  0  0
   34.6050   30.2890   47.4950 C   0  0  0  0  0  0  0  0  0  0  0  0
   34.9820   30.4230   48.7580 N   0  0  0  0  0  0  0  0  0  0  0  0
   38.2990   30.7130   48.1780 H   0  0  0  0  0  0  0  0  0  0  0  0
   33.5750   30.1650   47.2320 H   0  0  0  0  0  0  0  0  0  0  0  0
   36.8590   30.7290   50.3070 O   0  0  0  0  0  0  0  0  0  0  0  0
   36.9300   29.7050   51.2630 C   0  0  0  0  0  0  0  0  0  0  0  0
   35.6850   29.2700   51.6580 F   0  0  0  0  0  0  0  0  0  0  0  0
   37.6490   30.1570   52.3440 F   0  0  0  0  0  0  0  0  0  0  0  0
   37.6230   28.6420   50.7090 F   0  0  0  0  0  0  0  0  0  0  0  0
  1 19  1  0  0  0  0
  2  6  1  0  0  0  0
  2  1  1  0  0  0  0
  3  4  1  0  0  0  0
  3  2  2  0  0  0  0
  4  5  1  0  0  0  0
  5  1  2  0  0  0  0
  7  3  1  0  0  0  0
  8  9  1  0  0  0  0
  9 10  1  0  0  0  0
 10  4  1  1  0  0  0
 11 10  1  0  0  0  0
 11 12  1  0  0  0  0
 13 11  1  0  0  0  0
 13 14  1  0  0  0  0
 15 13  1  0  0  0  0
 16 15  1  0  0  0  0
 16  9  1  0  0  0  0
 17 25  1  0  0  0  0
 18 23  1  0  0  0  0
 18 17  2  0  0  0  0
 19 18  1  0  0  0  0
 20 19  2  0  0  0  0
 20 21  1  0  0  0  0
 21 22  2  0  0  0  0
 22 17  1  0  0  0  0
 24 21  1  0  0  0  0
 25 26  1  0  0  0  0
 26 27  1  0  0  0  0
 26 28  1  0  0  0  0
 29 26  1  0  0  0  0
M  END
>  <minimizedAffinity>
-4.96176529

>  <minimizedRMSD>
2.24859953

$$$$
