
 OpenBabel03272503393D

 29 31  0  0  1  0  0  0  0  0999 V2000
   37.8050   31.0050   45.7970 C   0  0  0  0  0  0  0  0  0  0  0  0
   39.0320   30.4160   45.6640 C   0  0  0  0  0  0  0  0  0  0  0  0
   39.5740   30.9970   44.5290 C   0  0  0  0  0  0  0  0  0  0  0  0
   38.7100   31.8840   44.0190 N   0  0  0  0  0  0  0  0  0  0  0  0
   37.6310   31.8870   44.7940 N   0  0  0  0  0  0  0  0  0  0  0  0
   39.5190   29.6800   46.2560 H   0  0  0  0  0  0  0  0  0  0  0  0
   40.5310   30.8330   44.0470 H   0  0  0  0  0  0  0  0  0  0  0  0
   40.2500   32.9210   41.3690 H   0  0  0  0  0  0  0  0  0  0  0  0
   39.7930   32.1400   41.8930 N   0  0  0  0  0  0  0  0  0  0  0  0
   38.8600   32.7230   42.8360 C   0  0  1  0  0  0  0  0  0  0  0  0
   37.5350   32.9110   42.1310 C   0  0  0  0  0  0  0  0  0  0  0  0
   36.8680   33.6150   42.6340 H   0  0  0  0  0  0  0  0  0  0  0  0
   36.9470   31.5930   42.0140 N   0  0  0  0  0  0  0  0  0  0  0  0
   36.5480   31.2320   42.8940 H   0  0  0  0  0  0  0  0  0  0  0  0
   37.8580   30.6830   41.3880 C   0  0  0  0  0  0  0  0  0  0  0  0
   39.1470   31.2950   40.9240 C   0  0  0  0  0  0  0  0  0  0  0  0
   36.1830   30.5690   49.1520 C   0  0  0  0  0  0  0  0  0  0  0  0
   37.1570   30.8470   48.1880 C   0  0  0  0  0  0  0  0  0  0  0  0
   36.8400   30.7300   46.8470 C   0  0  0  0  0  0  0  0  0  0  0  0
   35.5820   30.3450   46.5250 N   0  0  0  0  0  0  0  0  0  0  0  0
   34.6520   30.0800   47.4850 C   0  0  0  0  0  0  0  0  0  0  0  0
   34.9390   30.1870   48.7740 N   0  0  0  0  0  0  0  0  0  0  0  0
   38.1580   31.1530   48.4090 H   0  0  0  0  0  0  0  0  0  0  0  0
   33.6790   29.7810   47.1540 H   0  0  0  0  0  0  0  0  0  0  0  0
   36.6490   30.7310   50.4460 O   0  0  0  0  0  0  0  0  0  0  0  0
   36.7860   29.6810   51.3670 C   0  0  0  0  0  0  0  0  0  0  0  0
   35.5710   29.1490   51.7390 F   0  0  0  0  0  0  0  0  0  0  0  0
   37.4690   30.1420   52.4670 F   0  0  0  0  0  0  0  0  0  0  0  0
   37.5500   28.6870   50.7800 F   0  0  0  0  0  0  0  0  0  0  0  0
  1 19  1  0  0  0  0
  2  1  1  0  0  0  0
  2  6  1  0  0  0  0
  3  2  2  0  0  0  0
  4  3  1  0  0  0  0
  4  5  1  0  0  0  0
  5  1  2  0  0  0  0
  7  3  1  0  0  0  0
  8  9  1  0  0  0  0
  9 10  1  0  0  0  0
 10  4  1  1  0  0  0
 11 12  1  0  0  0  0
 11 10  1  0  0  0  0
 13 11  1  0  0  0  0
 13 14  1  0  0  0  0
 15 13  1  0  0  0  0
 16 15  1  0  0  0  0
 16  9  1  0  0  0  0
 17 25  1  0  0  0  0
 18 23  1  0  0  0  0
 18 17  2  0  0  0  0
 19 18  1  0  0  0  0
 20 19  2  0  0  0  0
 20 21  1  0  0  0  0
 21 22  2  0  0  0  0
 22 17  1  0  0  0  0
 24 21  1  0  0  0  0
 25 26  1  0  0  0  0
 26 27  1  0  0  0  0
 26 28  1  0  0  0  0
 29 26  1  0  0  0  0
M  END
>  <minimizedAffinity>
-5.71785593

>  <minimizedRMSD>
2.57234311

$$$$
