
 OpenBabel03272503393D

 29 31  0  0  1  0  0  0  0  0999 V2000
   37.6420   30.4410   45.5240 C   0  0  0  0  0  0  0  0  0  0  0  0
   38.0310   29.3480   44.8010 C   0  0  0  0  0  0  0  0  0  0  0  0
   38.9280   29.8490   43.8710 C   0  0  0  0  0  0  0  0  0  0  0  0
   39.0610   31.1710   44.0380 N   0  0  0  0  0  0  0  0  0  0  0  0
   38.2750   31.5300   45.0470 N   0  0  0  0  0  0  0  0  0  0  0  0
   37.7520   28.3260   44.8800 H   0  0  0  0  0  0  0  0  0  0  0  0
   39.4860   29.3420   43.0920 H   0  0  0  0  0  0  0  0  0  0  0  0
   41.1080   31.9760   41.6660 H   0  0  0  0  0  0  0  0  0  0  0  0
   40.1780   31.6020   41.9580 N   0  0  0  0  0  0  0  0  0  0  0  0
   39.8930   32.1040   43.2880 C   0  0  1  0  0  3  0  0  0  0  0  0
   39.2140   33.4480   43.1470 C   0  0  0  0  0  3  0  0  0  0  0  0
   39.2390   34.0470   44.0610 H   0  0  0  0  0  0  0  0  0  0  0  0
   37.8600   33.1750   42.7140 N   0  0  0  0  0  0  0  0  0  0  0  0
   37.2430   32.8220   43.4610 H   0  0  0  0  0  0  0  0  0  0  0  0
   37.8570   32.3560   41.5390 C   0  0  0  0  0  2  0  0  0  0  0  0
   39.2140   32.0410   40.9830 C   0  0  0  0  0  2  0  0  0  0  0  0
   36.1470   30.5960   48.9610 C   0  0  0  0  0  0  0  0  0  0  0  0
   37.1020   30.6090   47.9410 C   0  0  0  0  0  0  0  0  0  0  0  0
   36.6990   30.4380   46.6300 C   0  0  0  0  0  0  0  0  0  0  0  0
   35.3780   30.2630   46.3910 N   0  0  0  0  0  0  0  0  0  0  0  0
   34.4680   30.2550   47.4030 C   0  0  0  0  0  0  0  0  0  0  0  0
   34.8370   30.4180   48.6660 N   0  0  0  0  0  0  0  0  0  0  0  0
   38.1530   30.7450   48.0960 H   0  0  0  0  0  0  0  0  0  0  0  0
   33.4410   30.1110   47.1380 H   0  0  0  0  0  0  0  0  0  0  0  0
   36.7010   30.7800   50.2170 O   0  0  0  0  0  0  0  0  0  0  0  0
   36.8180   29.7640   51.1790 C   0  0  0  0  0  0  0  0  0  0  0  0
   35.5930   29.2900   51.5900 F   0  0  0  0  0  0  0  0  0  0  0  0
   37.5340   30.2470   52.2490 F   0  0  0  0  0  0  0  0  0  0  0  0
   37.5390   28.7220   50.6220 F   0  0  0  0  0  0  0  0  0  0  0  0
  1 19  1  0  0  0  0
  2  6  1  0  0  0  0
  2  1  1  0  0  0  0
  3  4  1  0  0  0  0
  3  2  2  0  0  0  0
  4  5  1  0  0  0  0
  5  1  2  0  0  0  0
  7  3  1  0  0  0  0
  8  9  1  0  0  0  0
  9 10  1  0  0  0  0
 10  4  1  6  0  0  0
 11 10  1  0  0  0  0
 11 12  1  0  0  0  0
 13 11  1  0  0  0  0
 13 14  1  0  0  0  0
 15 13  1  0  0  0  0
 16 15  1  0  0  0  0
 16  9  1  0  0  0  0
 17 25  1  0  0  0  0
 18 23  1  0  0  0  0
 18 17  2  0  0  0  0
 19 18  1  0  0  0  0
 20 19  2  0  0  0  0
 20 21  1  0  0  0  0
 21 22  2  0  0  0  0
 22 17  1  0  0  0  0
 24 21  1  0  0  0  0
 25 26  1  0  0  0  0
 26 27  1  0  0  0  0
 26 28  1  0  0  0  0
 29 26  1  0  0  0  0
M  END
>  <minimizedAffinity>
-4.94864035

>  <minimizedRMSD>
2.43131018

$$$$
