
 OpenBabel03272503393D

 29 31  0  0  1  0  0  0  0  0999 V2000
   37.9230   30.9650   47.6580 C   0  0  0  0  0  0  0  0  0  0  0  0
   38.2880   30.6990   48.9480 C   0  0  0  0  0  0  0  0  0  0  0  0
   37.0880   30.5390   49.6230 C   0  0  0  0  0  0  0  0  0  0  0  0
   36.0670   30.7030   48.7720 N   0  0  0  0  0  0  0  0  0  0  0  0
   36.5790   30.9630   47.5740 N   0  0  0  0  0  0  0  0  0  0  0  0
   39.2480   30.6190   49.3980 H   0  0  0  0  0  0  0  0  0  0  0  0
   36.8950   30.3170   50.6660 H   0  0  0  0  0  0  0  0  0  0  0  0
   32.9450   31.0670   48.0110 H   0  0  0  0  0  0  0  0  0  0  0  0
   33.8690   30.6250   47.8120 N   0  0  0  0  0  0  0  0  0  0  0  0
   34.6370   30.6250   49.0420 C   0  0  1  0  0  3  0  0  0  0  0  0
   34.2950   29.3670   49.8090 C   0  0  0  0  0  3  0  0  0  0  0  0
   34.5650   29.4140   50.8670 H   0  0  0  0  0  0  0  0  0  0  0  0
   34.9630   28.2810   49.1250 N   0  0  0  0  0  0  0  0  0  0  0  0
   35.9790   28.2380   49.2980 H   0  0  0  0  0  0  0  0  0  0  0  0
   34.6230   28.2680   47.7350 C   0  0  0  0  0  2  0  0  0  0  0  0
   33.6110   29.2970   47.3210 C   0  0  0  0  0  2  0  0  0  0  0  0
   39.7980   30.6610   44.4230 C   0  0  0  0  0  0  0  0  0  0  0  0
   38.9040   30.3700   45.4570 C   0  0  0  0  0  0  0  0  0  0  0  0
   38.8310   31.2120   46.5510 C   0  0  0  0  0  0  0  0  0  0  0  0
   39.6420   32.2960   46.5710 N   0  0  0  0  0  0  0  0  0  0  0  0
   40.5040   32.5570   45.5500 C   0  0  0  0  0  0  0  0  0  0  0  0
   40.5870   31.7610   44.4940 N   0  0  0  0  0  0  0  0  0  0  0  0
   38.2500   29.5230   45.4720 H   0  0  0  0  0  0  0  0  0  0  0  0
   41.1140   33.4330   45.6350 H   0  0  0  0  0  0  0  0  0  0  0  0
   39.7560   29.7300   43.4000 O   0  0  0  0  0  0  0  0  0  0  0  0
   40.5300   29.8130   42.2310 C   0  0  0  0  0  0  0  0  0  0  0  0
   40.5350   31.0820   41.6980 F   0  0  0  0  0  0  0  0  0  0  0  0
   40.0500   28.9060   41.3160 F   0  0  0  0  0  0  0  0  0  0  0  0
   41.8290   29.4520   42.5450 F   0  0  0  0  0  0  0  0  0  0  0  0
  1  2  1  0  0  0  0
  2  6  1  0  0  0  0
  2  3  2  0  0  0  0
  3  7  1  0  0  0  0
  4  3  1  0  0  0  0
  5  1  2  0  0  0  0
  5  4  1  0  0  0  0
  9  8  1  0  0  0  0
  9 10  1  0  0  0  0
 10  4  1  6  0  0  0
 10 11  1  0  0  0  0
 11 12  1  0  0  0  0
 13 14  1  0  0  0  0
 13 11  1  0  0  0  0
 15 13  1  0  0  0  0
 16 15  1  0  0  0  0
 16  9  1  0  0  0  0
 17 22  2  0  0  0  0
 17 18  1  0  0  0  0
 18 23  1  0  0  0  0
 18 19  2  0  0  0  0
 19 20  1  0  0  0  0
 19  1  1  0  0  0  0
 21 24  1  0  0  0  0
 21 20  2  0  0  0  0
 22 21  1  0  0  0  0
 25 17  1  0  0  0  0
 26 29  1  0  0  0  0
 26 25  1  0  0  0  0
 27 26  1  0  0  0  0
 28 26  1  0  0  0  0
M  END
>  <minimizedAffinity>
-5.53727055

>  <minimizedRMSD>
7.75592518

$$$$
