
 OpenBabel03272510253D

 45 49  0  0  1  0  0  0  0  0999 V2000
   39.5260   33.6410   43.4960 O   0  0  0  0  0  0  0  0  0  0  0  0
   36.2080   30.2490   47.0050 C   0  0  0  0  0  0  0  0  0  0  0  0
   37.0630   30.7640   47.9750 C   0  0  0  0  0  0  0  0  0  0  0  0
   38.0790   31.6600   47.6360 C   0  0  0  0  0  0  0  0  0  0  0  0
   38.1740   31.9940   46.2930 C   0  0  0  0  0  0  0  0  0  0  0  0
   39.0820   32.8480   45.7170 N   0  0  0  0  0  0  0  0  0  0  0  0
   38.8010   32.8700   44.4060 C   0  0  0  0  0  0  0  0  0  0  0  0
   37.7770   32.0780   44.1570 N   0  0  0  0  0  0  0  0  0  0  0  0
   37.3540   31.5110   45.3000 C   0  0  0  0  0  0  0  0  0  0  0  0
   36.3450   30.6150   45.6710 C   0  0  0  0  0  0  0  0  0  0  0  0
   35.4100   29.5470   47.2630 H   0  0  0  0  0  0  0  0  0  0  0  0
   38.7440   32.0630   48.3790 H   0  0  0  0  0  0  0  0  0  0  0  0
   39.8460   33.3760   46.2310 H   0  0  0  0  0  0  0  0  0  0  0  0
   35.7020   30.2380   44.8880 H   0  0  0  0  0  0  0  0  0  0  0  0
   37.4110   30.0730   51.6480 C   0  0  0  0  0  0  0  0  0  0  0  0
   37.7530   30.5460   50.3830 C   0  0  0  0  0  0  0  0  0  0  0  0
   36.8620   30.3390   49.3440 C   0  0  0  0  0  0  0  0  0  0  0  0
   35.6990   29.6770   49.6370 N   0  0  0  0  0  0  0  0  0  0  0  0
   35.3880   29.2290   50.8660 C   0  0  0  0  0  0  0  0  0  0  0  0
   36.2420   29.4300   51.8530 N   0  0  0  0  0  0  0  0  0  0  0  0
   38.1670   30.2740   52.4230 H   0  0  0  0  0  0  0  0  0  0  0  0
   38.6660   31.0620   50.1610 H   0  0  0  0  0  0  0  0  0  0  0  0
   34.4610   28.7150   51.0500 H   0  0  0  0  0  0  0  0  0  0  0  0
   39.6060   31.7030   42.2480 N   0  0  0  0  0  0  0  0  0  0  0  0
   39.5600   33.1550   42.1620 C   0  0  1  0  0  0  0  0  0  0  0  0
   38.3800   33.5830   41.4270 C   0  0  0  0  0  0  0  0  0  0  0  0
   38.4700   33.0960   40.1120 O   0  0  0  0  0  0  0  0  0  0  0  0
   38.6520   31.7490   39.9950 C   0  0  0  0  0  0  0  0  0  0  0  0
   39.7820   31.2660   40.8860 C   0  0  2  0  0  0  0  0  0  0  0  0
   38.7880   31.2240   42.5840 H   0  0  0  0  0  0  0  0  0  0  0  0
   40.4810   33.4620   41.6420 H   0  0  0  0  0  0  0  0  0  0  0  0
   37.3790   33.3910   41.6990 H   0  0  0  0  0  0  0  0  0  0  0  0
   38.4650   34.7040   41.2880 H   0  0  0  0  0  0  0  0  0  0  0  0
   38.9970   31.5640   38.9570 H   0  0  0  0  0  0  0  0  0  0  0  0
   37.6770   31.2660   40.2370 H   0  0  0  0  0  0  0  0  0  0  0  0
   40.6880   31.8310   40.5170 H   0  0  0  0  0  0  0  0  0  0  0  0
   40.0810   29.8860   40.7460 N   0  0  1  0  0  0  0  0  0  0  0  0
   40.8900   29.5890   39.5750 C   0  0  0  0  0  3  0  0  0  0  0  0
   41.6800   30.3110   39.3740 H   0  0  0  0  0  0  0  0  0  0  0  0
   41.5030   28.2220   39.7500 C   0  0  0  0  0  3  0  0  0  0  0  0
   42.4800   28.2360   40.2640 H   0  0  0  0  0  0  0  0  0  0  0  0
   40.6100   27.2970   40.4180 N   0  0  0  0  0  0  0  0  0  0  0  0
   39.7770   27.1730   39.7810 H   0  0  0  0  0  0  0  0  0  0  0  0
   40.2730   27.7430   41.7380 C   0  0  0  0  0  2  0  0  0  0  0  0
   40.6470   29.2260   41.8720 C   0  0  0  0  0  2  0  0  0  0  0  0
  1  7  1  0  0  0  0
  2 11  1  0  0  0  0
  2  3  1  0  0  0  0
  3 17  1  0  0  0  0
  4  3  2  0  0  0  0
  4 12  1  0  0  0  0
  5  4  1  0  0  0  0
  6 13  1  0  0  0  0
  6  5  1  0  0  0  0
  7  6  1  0  0  0  0
  8  7  2  0  0  0  0
  8  9  1  0  0  0  0
  9 10  1  0  0  0  0
  9  5  2  0  0  0  0
 10  2  2  0  0  0  0
 14 10  1  0  0  0  0
 15 20  1  0  0  0  0
 15 21  1  0  0  0  0
 16 15  2  0  0  0  0
 17 18  2  0  0  0  0
 17 16  1  0  0  0  0
 18 19  1  0  0  0  0
 19 23  1  0  0  0  0
 19 20  2  0  0  0  0
 22 16  1  0  0  0  0
 24 30  1  0  0  0  0
 25 31  1  6  0  0  0
 25 24  1  0  0  0  0
 25  1  1  0  0  0  0
 26 32  1  0  0  0  0
 26 25  1  0  0  0  0
 27 26  1  0  0  0  0
 28 27  1  0  0  0  0
 28 35  1  0  0  0  0
 28 29  1  0  0  0  0
 29 36  1  6  0  0  0
 29 24  1  0  0  0  0
 33 26  1  0  0  0  0
 34 28  1  0  0  0  0
 37 29  1  0  0  0  0
 37 45  1  1  0  0  0
 38 40  1  0  0  0  0
 38 37  1  0  0  0  0
 39 38  1  0  0  0  0
 40 41  1  0  0  0  0
 40 42  1  0  0  0  0
 42 44  1  0  0  0  0
 43 42  1  0  0  0  0
 44 45  1  0  0  0  0
M  END
>  <minimizedAffinity>
-6.14069939

>  <minimizedRMSD>
0.737749159

$$$$
