
 OpenBabel03262520573D

 19 20  0  0  1  0  0  0  0  0999 V2000
   38.5070   30.6330   46.9950 S   0  0  0  0  0  0  0  0  0  0  0  0
   37.4540   30.6430   50.9210 C   0  0  0  0  0  0  0  0  0  0  0  0
   38.1850   30.9300   49.7690 C   0  0  0  0  0  0  0  0  0  0  0  0
   37.7200   30.3820   48.5840 C   0  0  0  0  0  0  0  0  0  0  0  0
   36.5920   29.6030   48.6020 N   0  0  0  0  0  0  0  0  0  0  0  0
   35.9300   29.3590   49.7370 C   0  0  0  0  0  0  0  0  0  0  0  0
   36.3610   29.8810   50.9070 N   0  0  0  0  0  0  0  0  0  0  0  0
   37.8160   31.0700   51.8470 H   0  0  0  0  0  0  0  0  0  0  0  0
   39.0670   31.5360   49.7350 H   0  0  0  0  0  0  0  0  0  0  0  0
   35.0410   28.7440   49.7480 H   0  0  0  0  0  0  0  0  0  0  0  0
   39.8850   32.9520   47.5720 H   0  0  0  0  0  0  0  0  0  0  0  0
   39.5120   33.1330   46.5950 N   0  0  0  0  0  0  0  0  0  0  0  0
   38.3030   32.3810   46.4690 C   0  0  1  0  0  0  0  0  0  0  0  0
   37.8440   32.3160   45.0320 C   0  0  0  0  0  0  0  0  0  0  0  0
   37.6570   33.3300   44.6280 H   0  0  0  0  0  0  0  0  0  0  0  0
   38.9050   31.6880   44.2690 N   0  0  0  0  0  0  0  0  0  0  0  0
   39.2540   30.8220   44.7640 H   0  0  0  0  0  0  0  0  0  0  0  0
   39.9950   32.6770   44.2600 C   0  0  0  0  0  0  0  0  0  0  0  0
   40.5340   32.6880   45.6810 C   0  0  0  0  0  0  0  0  0  0  0  0
  1  4  1  0  0  0  0
  2  8  1  0  0  0  0
  3  2  2  0  0  0  0
  4  5  2  0  0  0  0
  4  3  1  0  0  0  0
  5  6  1  0  0  0  0
  6 10  1  0  0  0  0
  6  7  2  0  0  0  0
  7  2  1  0  0  0  0
  9  3  1  0  0  0  0
 12 11  1  0  0  0  0
 13 12  1  0  0  0  0
 13  1  1  6  0  0  0
 14 13  1  0  0  0  0
 15 14  1  0  0  0  0
 16 17  1  0  0  0  0
 16 14  1  0  0  0  0
 18 16  1  0  0  0  0
 18 19  1  0  0  0  0
 19 12  1  0  0  0  0
M  END
>  <minimizedAffinity>
-4.30207205

>  <minimizedRMSD>
2.99622107

$$$$
