
 OpenBabel03272510253D

 45 49  0  0  1  0  0  0  0  0999 V2000
   39.4530   33.5760   43.2780 O   0  0  0  0  0  0  0  0  0  0  0  0
   36.2280   30.2020   46.8900 C   0  0  0  0  0  0  0  0  0  0  0  0
   37.0790   30.7560   47.8410 C   0  0  0  0  0  0  0  0  0  0  0  0
   38.0750   31.6650   47.4740 C   0  0  0  0  0  0  0  0  0  0  0  0
   38.1540   31.9680   46.1220 C   0  0  0  0  0  0  0  0  0  0  0  0
   39.0410   32.8270   45.5200 N   0  0  0  0  0  0  0  0  0  0  0  0
   38.7500   32.8120   44.2110 C   0  0  0  0  0  0  0  0  0  0  0  0
   37.7410   31.9950   43.9880 N   0  0  0  0  0  0  0  0  0  0  0  0
   37.3370   31.4470   45.1470 C   0  0  0  0  0  0  0  0  0  0  0  0
   36.3490   30.5390   45.5460 C   0  0  0  0  0  0  0  0  0  0  0  0
   35.4470   29.4910   47.1700 H   0  0  0  0  0  0  0  0  0  0  0  0
   38.7370   32.0980   48.2020 H   0  0  0  0  0  0  0  0  0  0  0  0
   39.7970   33.3820   46.0160 H   0  0  0  0  0  0  0  0  0  0  0  0
   35.7080   30.1310   44.7770 H   0  0  0  0  0  0  0  0  0  0  0  0
   37.4720   30.1490   51.5240 C   0  0  0  0  0  0  0  0  0  0  0  0
   37.7970   30.5960   50.2450 C   0  0  0  0  0  0  0  0  0  0  0  0
   36.8970   30.3600   49.2210 C   0  0  0  0  0  0  0  0  0  0  0  0
   35.7420   29.6960   49.5410 N   0  0  0  0  0  0  0  0  0  0  0  0
   35.4480   29.2720   50.7820 C   0  0  0  0  0  0  0  0  0  0  0  0
   36.3110   29.5010   51.7560 N   0  0  0  0  0  0  0  0  0  0  0  0
   38.2350   30.3720   52.2860 H   0  0  0  0  0  0  0  0  0  0  0  0
   38.7040   31.1150   50.0020 H   0  0  0  0  0  0  0  0  0  0  0  0
   34.5270   28.7550   50.9870 H   0  0  0  0  0  0  0  0  0  0  0  0
   39.6510   31.7770   41.8480 N   0  0  0  0  0  0  0  0  0  0  0  0
   39.3010   33.1880   41.9200 C   0  0  1  0  0  0  0  0  0  0  0  0
   37.9320   33.3960   41.4750 C   0  0  0  0  0  0  0  0  0  0  0  0
   37.8380   33.0170   40.1240 O   0  0  0  0  0  0  0  0  0  0  0  0
   38.2540   31.7510   39.8380 C   0  0  0  0  0  0  0  0  0  0  0  0
   39.6180   31.4700   40.4400 C   0  0  2  0  0  0  0  0  0  0  0  0
   39.0330   31.1150   42.2850 H   0  0  0  0  0  0  0  0  0  0  0  0
   40.0120   33.7160   41.2660 H   0  0  0  0  0  0  0  0  0  0  0  0
   37.0690   32.9780   41.9140 H   0  0  0  0  0  0  0  0  0  0  0  0
   37.7620   34.5150   41.4360 H   0  0  0  0  0  0  0  0  0  0  0  0
   38.4020   31.7050   38.7400 H   0  0  0  0  0  0  0  0  0  0  0  0
   37.4670   31.0560   40.2130 H   0  0  0  0  0  0  0  0  0  0  0  0
   40.2970   32.2370   39.9610 H   0  0  0  0  0  0  0  0  0  0  0  0
   40.1480   30.1970   40.1050 N   0  0  1  0  0  0  0  0  0  0  0  0
   39.3360   29.4710   39.1410 C   0  0  0  0  0  3  0  0  0  0  0  0
   38.9240   30.0840   38.3410 H   0  0  0  0  0  0  0  0  0  0  0  0
   40.1740   28.3720   38.5380 C   0  0  0  0  0  3  0  0  0  0  0  0
   40.7350   28.6840   37.6390 H   0  0  0  0  0  0  0  0  0  0  0  0
   41.0800   27.7770   39.5000 N   0  0  0  0  0  0  0  0  0  0  0  0
   40.4760   27.3230   40.2380 H   0  0  0  0  0  0  0  0  0  0  0  0
   42.0110   28.7360   40.0170 C   0  0  0  0  0  2  0  0  0  0  0  0
   41.5070   30.1480   39.6860 C   0  0  0  0  0  2  0  0  0  0  0  0
  1  7  1  0  0  0  0
  2 11  1  0  0  0  0
  2  3  1  0  0  0  0
  3 17  1  0  0  0  0
  4  3  2  0  0  0  0
  4 12  1  0  0  0  0
  5  4  1  0  0  0  0
  6 13  1  0  0  0  0
  6  5  1  0  0  0  0
  7  6  1  0  0  0  0
  8  7  2  0  0  0  0
  8  9  1  0  0  0  0
  9 10  1  0  0  0  0
  9  5  2  0  0  0  0
 10  2  2  0  0  0  0
 14 10  1  0  0  0  0
 15 20  1  0  0  0  0
 15 21  1  0  0  0  0
 16 15  2  0  0  0  0
 17 18  2  0  0  0  0
 17 16  1  0  0  0  0
 18 19  1  0  0  0  0
 19 23  1  0  0  0  0
 19 20  2  0  0  0  0
 22 16  1  0  0  0  0
 24 25  1  0  0  0  0
 24 30  1  0  0  0  0
 25 31  1  6  0  0  0
 25  1  1  0  0  0  0
 26 32  1  0  0  0  0
 26 25  1  0  0  0  0
 27 26  1  0  0  0  0
 28 27  1  0  0  0  0
 28 35  1  0  0  0  0
 28 29  1  0  0  0  0
 29 36  1  6  0  0  0
 29 24  1  0  0  0  0
 33 26  1  0  0  0  0
 34 28  1  0  0  0  0
 37 45  1  6  0  0  0
 37 29  1  0  0  0  0
 38 37  1  0  0  0  0
 39 38  1  0  0  0  0
 40 38  1  0  0  0  0
 40 42  1  0  0  0  0
 41 40  1  0  0  0  0
 42 44  1  0  0  0  0
 42 43  1  0  0  0  0
 45 44  1  0  0  0  0
M  END
>  <minimizedAffinity>
-5.99389219

>  <minimizedRMSD>
0.207933903

$$$$
