
 OpenBabel03272510253D

 45 49  0  0  1  0  0  0  0  0999 V2000
   39.5250   33.6140   43.4800 O   0  0  0  0  0  0  0  0  0  0  0  0
   36.2050   30.2350   47.0000 C   0  0  0  0  0  0  0  0  0  0  0  0
   37.0600   30.7540   47.9680 C   0  0  0  0  0  0  0  0  0  0  0  0
   38.0760   31.6490   47.6270 C   0  0  0  0  0  0  0  0  0  0  0  0
   38.1720   31.9770   46.2820 C   0  0  0  0  0  0  0  0  0  0  0  0
   39.0800   32.8300   45.7030 N   0  0  0  0  0  0  0  0  0  0  0  0
   38.8000   32.8460   44.3920 C   0  0  0  0  0  0  0  0  0  0  0  0
   37.7760   32.0530   44.1450 N   0  0  0  0  0  0  0  0  0  0  0  0
   37.3530   31.4910   45.2900 C   0  0  0  0  0  0  0  0  0  0  0  0
   36.3440   30.5960   45.6640 C   0  0  0  0  0  0  0  0  0  0  0  0
   35.4080   29.5340   47.2610 H   0  0  0  0  0  0  0  0  0  0  0  0
   38.7410   32.0550   48.3680 H   0  0  0  0  0  0  0  0  0  0  0  0
   39.8430   33.3600   46.2150 H   0  0  0  0  0  0  0  0  0  0  0  0
   35.7010   30.2160   44.8830 H   0  0  0  0  0  0  0  0  0  0  0  0
   37.4060   30.0780   51.6440 C   0  0  0  0  0  0  0  0  0  0  0  0
   37.7490   30.5450   50.3770 C   0  0  0  0  0  0  0  0  0  0  0  0
   36.8580   30.3350   49.3390 C   0  0  0  0  0  0  0  0  0  0  0  0
   35.6940   29.6750   49.6340 N   0  0  0  0  0  0  0  0  0  0  0  0
   35.3830   29.2320   50.8640 C   0  0  0  0  0  0  0  0  0  0  0  0
   36.2370   29.4360   51.8510 N   0  0  0  0  0  0  0  0  0  0  0  0
   38.1620   30.2810   52.4190 H   0  0  0  0  0  0  0  0  0  0  0  0
   38.6620   31.0600   50.1530 H   0  0  0  0  0  0  0  0  0  0  0  0
   34.4550   28.7190   51.0500 H   0  0  0  0  0  0  0  0  0  0  0  0
   39.7290   31.7530   42.1310 N   0  0  0  0  0  0  0  0  0  0  0  0
   39.4670   33.1850   42.1260 C   0  0  1  0  0  0  0  0  0  0  0  0
   38.1590   33.4610   41.5540 C   0  0  0  0  0  0  0  0  0  0  0  0
   38.1590   33.0380   40.2130 O   0  0  0  0  0  0  0  0  0  0  0  0
   38.5150   31.7380   40.0060 C   0  0  0  0  0  0  0  0  0  0  0  0
   39.8000   31.3950   40.7360 C   0  0  2  0  0  0  0  0  0  0  0  0
   39.0330   31.1480   42.5320 H   0  0  0  0  0  0  0  0  0  0  0  0
   40.2670   33.6420   41.5220 H   0  0  0  0  0  0  0  0  0  0  0  0
   37.2360   33.1140   41.9270 H   0  0  0  0  0  0  0  0  0  0  0  0
   38.0670   34.5860   41.4640 H   0  0  0  0  0  0  0  0  0  0  0  0
   38.7560   31.6420   38.9280 H   0  0  0  0  0  0  0  0  0  0  0  0
   37.6540   31.1080   40.3310 H   0  0  0  0  0  0  0  0  0  0  0  0
   40.5670   32.1000   40.2970 H   0  0  0  0  0  0  0  0  0  0  0  0
   40.2720   30.0800   40.4920 N   0  0  1  0  0  0  0  0  0  0  0  0
   41.3910   30.0340   39.5650 C   0  0  0  0  0  3  0  0  0  0  0  0
   42.1240   30.8300   39.6970 H   0  0  0  0  0  0  0  0  0  0  0  0
   42.0810   28.7010   39.7090 C   0  0  0  0  0  3  0  0  0  0  0  0
   42.8770   28.6920   40.4720 H   0  0  0  0  0  0  0  0  0  0  0  0
   41.1470   27.6220   39.9620 N   0  0  0  0  0  0  0  0  0  0  0  0
   40.5320   27.5510   39.1070 H   0  0  0  0  0  0  0  0  0  0  0  0
   40.4250   27.8200   41.1840 C   0  0  0  0  0  2  0  0  0  0  0  0
   40.5870   29.2810   41.6260 C   0  0  0  0  0  2  0  0  0  0  0  0
  1  7  1  0  0  0  0
  2 11  1  0  0  0  0
  2  3  1  0  0  0  0
  3 17  1  0  0  0  0
  4  3  2  0  0  0  0
  4 12  1  0  0  0  0
  5  4  1  0  0  0  0
  6 13  1  0  0  0  0
  6  5  1  0  0  0  0
  7  6  1  0  0  0  0
  8  7  2  0  0  0  0
  8  9  1  0  0  0  0
  9 10  1  0  0  0  0
  9  5  2  0  0  0  0
 10  2  2  0  0  0  0
 14 10  1  0  0  0  0
 15 20  1  0  0  0  0
 15 21  1  0  0  0  0
 16 15  2  0  0  0  0
 17 18  2  0  0  0  0
 17 16  1  0  0  0  0
 18 19  1  0  0  0  0
 19 23  1  0  0  0  0
 19 20  2  0  0  0  0
 22 16  1  0  0  0  0
 24 30  1  0  0  0  0
 25 31  1  6  0  0  0
 25 24  1  0  0  0  0
 25  1  1  0  0  0  0
 26 32  1  0  0  0  0
 26 25  1  0  0  0  0
 27 26  1  0  0  0  0
 28 27  1  0  0  0  0
 28 35  1  0  0  0  0
 28 29  1  0  0  0  0
 29 36  1  6  0  0  0
 29 24  1  0  0  0  0
 33 26  1  0  0  0  0
 34 28  1  0  0  0  0
 37 29  1  0  0  0  0
 37 45  1  1  0  0  0
 38 39  1  0  0  0  0
 38 40  1  0  0  0  0
 38 37  1  0  0  0  0
 40 42  1  0  0  0  0
 40 41  1  0  0  0  0
 42 44  1  0  0  0  0
 43 42  1  0  0  0  0
 44 45  1  0  0  0  0
M  END
>  <minimizedAffinity>
-6.13839197

>  <minimizedRMSD>
0.48129794

$$$$
