
 OpenBabel03272510253D

 45 49  0  0  1  0  0  0  0  0999 V2000
   39.4850   33.6180   43.3560 O   0  0  0  0  0  0  0  0  0  0  0  0
   36.2510   30.1970   46.9150 C   0  0  0  0  0  0  0  0  0  0  0  0
   37.0840   30.7570   47.8790 C   0  0  0  0  0  0  0  0  0  0  0  0
   38.0750   31.6770   47.5270 C   0  0  0  0  0  0  0  0  0  0  0  0
   38.1680   31.9870   46.1780 C   0  0  0  0  0  0  0  0  0  0  0  0
   39.0530   32.8570   45.5900 N   0  0  0  0  0  0  0  0  0  0  0  0
   38.7780   32.8440   44.2770 C   0  0  0  0  0  0  0  0  0  0  0  0
   37.7810   32.0160   44.0390 N   0  0  0  0  0  0  0  0  0  0  0  0
   37.3690   31.4600   45.1910 C   0  0  0  0  0  0  0  0  0  0  0  0
   36.3850   30.5410   45.5750 C   0  0  0  0  0  0  0  0  0  0  0  0
   35.4740   29.4770   47.1830 H   0  0  0  0  0  0  0  0  0  0  0  0
   38.7230   32.1150   48.2650 H   0  0  0  0  0  0  0  0  0  0  0  0
   39.7970   33.4180   46.0970 H   0  0  0  0  0  0  0  0  0  0  0  0
   35.7580   30.1290   44.7960 H   0  0  0  0  0  0  0  0  0  0  0  0
   37.4430   30.1310   51.5630 C   0  0  0  0  0  0  0  0  0  0  0  0
   37.7800   30.5850   50.2890 C   0  0  0  0  0  0  0  0  0  0  0  0
   36.8890   30.3540   49.2550 C   0  0  0  0  0  0  0  0  0  0  0  0
   35.7310   29.6890   49.5610 N   0  0  0  0  0  0  0  0  0  0  0  0
   35.4260   29.2590   50.7970 C   0  0  0  0  0  0  0  0  0  0  0  0
   36.2790   29.4830   51.7800 N   0  0  0  0  0  0  0  0  0  0  0  0
   38.1980   30.3510   52.3330 H   0  0  0  0  0  0  0  0  0  0  0  0
   38.6890   31.1050   50.0570 H   0  0  0  0  0  0  0  0  0  0  0  0
   34.5030   28.7410   50.9910 H   0  0  0  0  0  0  0  0  0  0  0  0
   39.6770   31.8550   41.8800 N   0  0  0  0  0  0  0  0  0  0  0  0
   39.3180   33.2620   41.9910 C   0  0  1  0  0  0  0  0  0  0  0  0
   37.9420   33.4700   41.5680 C   0  0  0  0  0  0  0  0  0  0  0  0
   37.8340   33.1230   40.2100 O   0  0  0  0  0  0  0  0  0  0  0  0
   38.2550   31.8670   39.8880 C   0  0  0  0  0  0  0  0  0  0  0  0
   39.6290   31.5820   40.4660 C   0  0  2  0  0  0  0  0  0  0  0  0
   39.0690   31.1790   42.3100 H   0  0  0  0  0  0  0  0  0  0  0  0
   40.0170   33.8100   41.3410 H   0  0  0  0  0  0  0  0  0  0  0  0
   37.0880   33.0350   42.0080 H   0  0  0  0  0  0  0  0  0  0  0  0
   37.7630   34.5880   41.5580 H   0  0  0  0  0  0  0  0  0  0  0  0
   38.3890   31.8480   38.7880 H   0  0  0  0  0  0  0  0  0  0  0  0
   37.4770   31.1570   40.2570 H   0  0  0  0  0  0  0  0  0  0  0  0
   40.2960   32.3640   39.9980 H   0  0  0  0  0  0  0  0  0  0  0  0
   40.1630   30.3200   40.0940 N   0  0  1  0  0  0  0  0  0  0  0  0
   41.0270   29.7400   41.1100 C   0  0  0  0  0  3  0  0  0  0  0  0
   40.6760   29.8710   42.1340 H   0  0  0  0  0  0  0  0  0  0  0  0
   41.1800   28.2680   40.8270 C   0  0  0  0  0  3  0  0  0  0  0  0
   40.4090   27.6400   41.3060 H   0  0  0  0  0  0  0  0  0  0  0  0
   41.2340   27.9820   39.4080 N   0  0  0  0  0  0  0  0  0  0  0  0
   42.1060   28.4500   39.0400 H   0  0  0  0  0  0  0  0  0  0  0  0
   40.0300   28.3820   38.7390 C   0  0  0  0  0  2  0  0  0  0  0  0
   39.2430   29.3270   39.6570 C   0  0  0  0  0  2  0  0  0  0  0  0
  1  7  1  0  0  0  0
  2 11  1  0  0  0  0
  2  3  1  0  0  0  0
  3 17  1  0  0  0  0
  4  3  2  0  0  0  0
  4 12  1  0  0  0  0
  5  4  1  0  0  0  0
  6 13  1  0  0  0  0
  6  5  1  0  0  0  0
  7  6  1  0  0  0  0
  8  7  2  0  0  0  0
  8  9  1  0  0  0  0
  9 10  1  0  0  0  0
  9  5  2  0  0  0  0
 10  2  2  0  0  0  0
 14 10  1  0  0  0  0
 15 20  1  0  0  0  0
 15 21  1  0  0  0  0
 16 15  2  0  0  0  0
 17 18  2  0  0  0  0
 17 16  1  0  0  0  0
 18 19  1  0  0  0  0
 19 23  1  0  0  0  0
 19 20  2  0  0  0  0
 22 16  1  0  0  0  0
 24 25  1  0  0  0  0
 24 30  1  0  0  0  0
 25 31  1  6  0  0  0
 25  1  1  0  0  0  0
 26 25  1  0  0  0  0
 26 32  1  0  0  0  0
 27 26  1  0  0  0  0
 28 27  1  0  0  0  0
 28 35  1  0  0  0  0
 28 29  1  0  0  0  0
 29 36  1  6  0  0  0
 29 24  1  0  0  0  0
 33 26  1  0  0  0  0
 34 28  1  0  0  0  0
 37 45  1  1  0  0  0
 37 29  1  0  0  0  0
 37 38  1  0  0  0  0
 38 39  1  0  0  0  0
 40 38  1  0  0  0  0
 40 41  1  0  0  0  0
 42 40  1  0  0  0  0
 43 42  1  0  0  0  0
 44 42  1  0  0  0  0
 44 45  1  0  0  0  0
M  END
>  <minimizedAffinity>
-6.00355005

>  <minimizedRMSD>
0.169264525

$$$$
