
 OpenBabel03272508023D

 28 30  0  0  1  0  0  0  0  0999 V2000
   38.7510   30.8180   45.6640 C   0  0  0  0  0  0  0  0  0  0  0  0
   40.0330   31.2730   45.9000 C   0  0  0  0  0  0  0  0  0  0  0  0
   40.7960   31.2030   44.7320 C   0  0  0  0  0  0  0  0  0  0  0  0
   39.9240   30.7000   43.8270 N   0  0  0  0  0  0  0  0  0  0  0  0
   38.7240   30.4690   44.3520 N   0  0  0  0  0  0  0  0  0  0  0  0
   40.4300   31.6390   46.8450 H   0  0  0  0  0  0  0  0  0  0  0  0
   41.8160   31.4720   44.5590 H   0  0  0  0  0  0  0  0  0  0  0  0
   38.1960   30.0420   42.4010 H   0  0  0  0  0  0  0  0  0  0  0  0
   39.0280   29.6860   41.8420 N   0  0  0  0  0  0  0  0  0  0  0  0
   40.1610   30.4060   42.4170 C   0  0  2  0  0  0  0  0  0  0  0  0
   41.3610   29.5260   42.2400 C   0  0  0  0  0  0  0  0  0  0  0  0
   41.4750   28.8910   43.1430 H   0  0  0  0  0  0  0  0  0  0  0  0
   41.1850   28.6220   41.1220 N   0  0  0  0  0  0  0  0  0  0  0  0
   40.9690   29.1070   40.2230 H   0  0  0  0  0  0  0  0  0  0  0  0
   40.2200   27.5870   41.4330 C   0  0  0  0  0  0  0  0  0  0  0  0
   39.1000   28.2640   42.2020 C   0  0  0  0  0  0  0  0  0  0  0  0
   37.6480   30.7150   46.6130 C   0  0  0  0  0  0  0  0  0  0  0  0
   37.9510   30.9920   47.9820 C   0  0  0  0  0  0  0  0  0  0  0  0
   36.9110   30.8950   48.9060 C   0  0  0  0  0  0  0  0  0  0  0  0
   35.6860   30.5490   48.4560 N   0  0  0  0  0  0  0  0  0  0  0  0
   35.4310   30.2920   47.1450 C   0  0  0  0  0  0  0  0  0  0  0  0
   36.4300   30.3820   46.2430 N   0  0  0  0  0  0  0  0  0  0  0  0
   38.9640   31.2650   48.2580 H   0  0  0  0  0  0  0  0  0  0  0  0
   34.4280   30.0140   46.8200 H   0  0  0  0  0  0  0  0  0  0  0  0
   37.2040   31.1780   50.3350 C   0  0  0  0  0  0  0  0  0  0  0  0
   36.6960   32.4230   50.5960 F   0  0  0  0  0  0  0  0  0  0  0  0
   36.5990   30.2570   51.1880 F   0  0  0  0  0  0  0  0  0  0  0  0
   38.5730   31.1850   50.5970 F   0  0  0  0  0  0  0  0  0  0  0  0
  1  2  1  0  0  0  0
  1 17  1  0  0  0  0
  2  6  1  0  0  0  0
  3  2  2  0  0  0  0
  4  5  1  0  0  0  0
  4  3  1  0  0  0  0
  5  1  2  0  0  0  0
  7  3  1  0  0  0  0
  9 16  1  0  0  0  0
  9  8  1  0  0  0  0
  9 10  1  0  0  0  0
 10  4  1  1  0  0  0
 11 10  1  0  0  0  0
 11 12  1  0  0  0  0
 13 15  1  0  0  0  0
 13 11  1  0  0  0  0
 14 13  1  0  0  0  0
 15 16  1  0  0  0  0
 17 18  1  0  0  0  0
 18 23  1  0  0  0  0
 18 19  2  0  0  0  0
 19 25  1  0  0  0  0
 20 19  1  0  0  0  0
 21 20  2  0  0  0  0
 22 17  2  0  0  0  0
 22 21  1  0  0  0  0
 24 21  1  0  0  0  0
 25 26  1  0  0  0  0
 25 28  1  0  0  0  0
 25 27  1  0  0  0  0
M  END
>  <minimizedAffinity>
-5.94593096

>  <minimizedRMSD>
1.29468834

$$$$
