
 OpenBabel03272510253D

 45 49  0  0  1  0  0  0  0  0999 V2000
   39.5100   33.6120   43.4510 O   0  0  0  0  0  0  0  0  0  0  0  0
   36.2040   30.2340   46.9840 C   0  0  0  0  0  0  0  0  0  0  0  0
   37.0590   30.7560   47.9500 C   0  0  0  0  0  0  0  0  0  0  0  0
   38.0740   31.6530   47.6050 C   0  0  0  0  0  0  0  0  0  0  0  0
   38.1660   31.9790   46.2590 C   0  0  0  0  0  0  0  0  0  0  0  0
   39.0720   32.8320   45.6770 N   0  0  0  0  0  0  0  0  0  0  0  0
   38.7880   32.8450   44.3670 C   0  0  0  0  0  0  0  0  0  0  0  0
   37.7660   32.0500   44.1230 N   0  0  0  0  0  0  0  0  0  0  0  0
   37.3460   31.4890   45.2700 C   0  0  0  0  0  0  0  0  0  0  0  0
   36.3390   30.5930   45.6480 C   0  0  0  0  0  0  0  0  0  0  0  0
   35.4080   29.5320   47.2480 H   0  0  0  0  0  0  0  0  0  0  0  0
   38.7390   32.0610   48.3440 H   0  0  0  0  0  0  0  0  0  0  0  0
   39.8350   33.3640   46.1870 H   0  0  0  0  0  0  0  0  0  0  0  0
   35.6950   30.2100   44.8680 H   0  0  0  0  0  0  0  0  0  0  0  0
   37.4150   30.0860   51.6260 C   0  0  0  0  0  0  0  0  0  0  0  0
   37.7550   30.5510   50.3570 C   0  0  0  0  0  0  0  0  0  0  0  0
   36.8620   30.3390   49.3220 C   0  0  0  0  0  0  0  0  0  0  0  0
   35.6990   29.6790   49.6210 N   0  0  0  0  0  0  0  0  0  0  0  0
   35.3900   29.2380   50.8520 C   0  0  0  0  0  0  0  0  0  0  0  0
   36.2460   29.4440   51.8370 N   0  0  0  0  0  0  0  0  0  0  0  0
   38.1720   30.2910   52.3980 H   0  0  0  0  0  0  0  0  0  0  0  0
   38.6670   31.0670   50.1300 H   0  0  0  0  0  0  0  0  0  0  0  0
   34.4640   28.7250   51.0410 H   0  0  0  0  0  0  0  0  0  0  0  0
   39.6370   31.7190   42.1390 N   0  0  0  0  0  0  0  0  0  0  0  0
   39.4740   33.1650   42.1030 C   0  0  1  0  0  0  0  0  0  0  0  0
   38.2090   33.5180   41.4780 C   0  0  0  0  0  0  0  0  0  0  0  0
   38.2300   33.0730   40.1440 O   0  0  0  0  0  0  0  0  0  0  0  0
   38.5040   31.7490   39.9700 C   0  0  0  0  0  0  0  0  0  0  0  0
   39.7350   31.3330   40.7540 C   0  0  2  0  0  0  0  0  0  0  0  0
   38.8880   31.1690   42.5230 H   0  0  0  0  0  0  0  0  0  0  0  0
   40.3240   33.5570   41.5230 H   0  0  0  0  0  0  0  0  0  0  0  0
   37.2510   33.2410   41.8210 H   0  0  0  0  0  0  0  0  0  0  0  0
   38.1960   34.6450   41.3680 H   0  0  0  0  0  0  0  0  0  0  0  0
   38.7770   31.6180   38.9030 H   0  0  0  0  0  0  0  0  0  0  0  0
   37.5910   31.1840   40.2720 H   0  0  0  0  0  0  0  0  0  0  0  0
   40.5630   31.9770   40.3330 H   0  0  0  0  0  0  0  0  0  0  0  0
   40.1260   29.9850   40.5470 N   0  0  1  0  0  0  0  0  0  0  0  0
   39.0050   29.0600   40.5190 C   0  0  0  0  0  3  0  0  0  0  0  0
   38.1240   29.4270   39.9940 H   0  0  0  0  0  0  0  0  0  0  0  0
   39.4600   27.7730   39.8770 C   0  0  0  0  0  3  0  0  0  0  0  0
   39.3370   27.7560   38.7810 H   0  0  0  0  0  0  0  0  0  0  0  0
   40.8260   27.4370   40.2220 N   0  0  0  0  0  0  0  0  0  0  0  0
   40.8390   27.2720   41.2650 H   0  0  0  0  0  0  0  0  0  0  0  0
   41.7490   28.4400   39.7780 C   0  0  0  0  0  2  0  0  0  0  0  0
   40.9680   29.7160   39.4320 C   0  0  0  0  0  2  0  0  0  0  0  0
  1  7  1  0  0  0  0
  2 11  1  0  0  0  0
  2  3  1  0  0  0  0
  3 17  1  0  0  0  0
  4  3  2  0  0  0  0
  4 12  1  0  0  0  0
  5  4  1  0  0  0  0
  6 13  1  0  0  0  0
  6  5  1  0  0  0  0
  7  6  1  0  0  0  0
  8  7  2  0  0  0  0
  8  9  1  0  0  0  0
  9 10  1  0  0  0  0
  9  5  2  0  0  0  0
 10  2  2  0  0  0  0
 14 10  1  0  0  0  0
 15 20  1  0  0  0  0
 15 21  1  0  0  0  0
 16 15  2  0  0  0  0
 17 18  2  0  0  0  0
 17 16  1  0  0  0  0
 18 19  1  0  0  0  0
 19 23  1  0  0  0  0
 19 20  2  0  0  0  0
 22 16  1  0  0  0  0
 24 30  1  0  0  0  0
 25 31  1  6  0  0  0
 25 24  1  0  0  0  0
 25  1  1  0  0  0  0
 26 32  1  0  0  0  0
 26 25  1  0  0  0  0
 27 26  1  0  0  0  0
 28 27  1  0  0  0  0
 28 35  1  0  0  0  0
 28 29  1  0  0  0  0
 29 36  1  6  0  0  0
 29 24  1  0  0  0  0
 33 26  1  0  0  0  0
 34 28  1  0  0  0  0
 37 45  1  6  0  0  0
 37 29  1  0  0  0  0
 38 37  1  0  0  0  0
 39 38  1  0  0  0  0
 40 42  1  0  0  0  0
 40 38  1  0  0  0  0
 41 40  1  0  0  0  0
 42 43  1  0  0  0  0
 44 42  1  0  0  0  0
 45 44  1  0  0  0  0
M  END
>  <minimizedAffinity>
-5.93407679

>  <minimizedRMSD>
0.512637019

$$$$
