
 OpenBabel03272504263D

 42 45  0  0  0  0  0  0  0  0999 V2000
   34.6010   29.2490   48.0730 C   0  0  0  0  0  0  0  0  0  0  0  0
   34.6290   27.9810   48.5350 C   0  0  0  0  0  0  0  0  0  0  0  0
   33.6980   27.0900   48.1780 C   0  0  0  0  0  0  0  0  0  0  0  0
   32.7100   27.4810   47.3320 N   0  0  0  0  0  0  0  0  0  0  0  0
   32.6920   28.7300   46.8830 C   0  0  0  0  0  0  0  0  0  0  0  0
   33.6190   29.6260   47.2350 N   0  0  0  0  0  0  0  0  0  0  0  0
   35.4490   27.7420   49.2080 H   0  0  0  0  0  0  0  0  0  0  0  0
   33.7380   26.0780   48.5600 H   0  0  0  0  0  0  0  0  0  0  0  0
   36.6550   31.6220   49.9680 C   0  0  0  0  0  0  0  0  0  0  0  0
   37.5340   32.1290   49.0080 C   0  0  0  0  0  0  0  0  0  0  0  0
   37.4000   31.6330   47.6930 C   0  0  0  0  0  0  0  0  0  0  0  0
   36.4280   30.7100   47.4850 N   0  0  0  0  0  0  0  0  0  0  0  0
   35.5990   30.2460   48.4360 C   0  0  0  0  0  0  0  0  0  0  0  0
   35.7290   30.7160   49.6760 N   0  0  0  0  0  0  0  0  0  0  0  0
   36.7960   32.0370   50.9730 H   0  0  0  0  0  0  0  0  0  0  0  0
   38.3040   32.8660   49.1920 H   0  0  0  0  0  0  0  0  0  0  0  0
   38.2440   32.0690   46.6010 N   0  0  0  0  0  0  0  0  0  0  0  0
   37.6060   32.0440   45.2740 C   0  0  0  0  0  0  0  0  0  0  0  0
   36.6880   32.6800   45.3560 H   0  0  0  0  0  0  0  0  0  0  0  0
   38.5830   32.5930   44.2900 C   0  0  0  0  0  0  0  0  0  0  0  0
   38.0250   33.1550   43.5140 H   0  0  0  0  0  0  0  0  0  0  0  0
   39.5180   33.5140   44.9010 N   0  0  0  0  0  0  0  0  0  0  0  0
   38.9450   34.1850   45.4890 H   0  0  0  0  0  0  0  0  0  0  0  0
   40.3920   32.8320   45.8290 C   0  0  0  0  0  0  0  0  0  0  0  0
   39.5920   32.4570   47.0470 C   0  0  0  0  0  0  0  0  0  0  0  0
   30.2850   28.8640   46.3870 C   0  0  0  0  0  0  0  0  0  0  0  0
   31.6120   29.0240   45.9710 C   0  0  0  0  0  0  0  0  0  0  0  0
   31.9760   29.4330   44.7010 C   0  0  0  0  0  0  0  0  0  0  0  0
   30.9890   29.7010   43.7780 C   0  0  0  0  0  0  0  0  0  0  0  0
   29.6540   29.5710   44.1000 C   0  0  0  0  0  0  0  0  0  0  0  0
   29.3930   29.1660   45.3670 C   0  0  0  0  0  0  0  0  0  0  0  0
   33.0160   29.5430   44.4260 H   0  0  0  0  0  0  0  0  0  0  0  0
   31.2810   30.0230   42.7800 H   0  0  0  0  0  0  0  0  0  0  0  0
   28.8510   29.7710   43.4030 H   0  0  0  0  0  0  0  0  0  0  0  0
   28.3350   29.0580   45.6340 H   0  0  0  0  0  0  0  0  0  0  0  0
   29.8100   28.4030   47.9140 S   0  0  0  0  0  0  0  0  0  0  0  0
   29.3330   26.9620   47.5300 O   0  0  0  0  0  0  0  0  0  0  0  0
   28.6020   29.2270   48.2780 O   0  0  0  0  0  0  0  0  0  0  0  0
   30.1050   27.8410   49.3780 C   0  0  0  0  0  0  0  0  0  0  0  0
   29.7200   26.5730   49.8600 F   0  0  0  0  0  0  0  0  0  0  0  0
   29.1920   28.4720   50.3470 F   0  0  0  0  0  0  0  0  0  0  0  0
   31.1670   28.3600   50.1770 F   0  0  0  0  0  0  0  0  0  0  0  0
  1 13  1  0  0  0  0
  1  2  1  0  0  0  0
  2  7  1  0  0  0  0
  3  2  2  0  0  0  0
  3  8  1  0  0  0  0
  4  3  1  0  0  0  0
  5  6  1  0  0  0  0
  5  4  2  0  0  0  0
  6  1  2  0  0  0  0
  9 15  1  0  0  0  0
 10 16  1  0  0  0  0
 10  9  2  0  0  0  0
 11 10  1  0  0  0  0
 12 11  2  0  0  0  0
 12 13  1  0  0  0  0
 13 14  2  0  0  0  0
 14  9  1  0  0  0  0
 17 25  1  0  0  0  0
 17 11  1  0  0  0  0
 18 19  1  0  0  0  0
 18 17  1  0  0  0  0
 20 22  1  0  0  0  0
 20 18  1  0  0  0  0
 21 20  1  0  0  0  0
 22 23  1  0  0  0  0
 22 24  1  0  0  0  0
 24 25  1  0  0  0  0
 26 36  1  0  0  0  0
 27 26  1  0  0  0  0
 27  5  1  0  0  0  0
 28 27  2  0  0  0  0
 29 30  2  0  0  0  0
 29 28  1  0  0  0  0
 30 31  1  0  0  0  0
 31 35  1  0  0  0  0
 31 26  2  0  0  0  0
 32 28  1  0  0  0  0
 33 29  1  0  0  0  0
 34 30  1  0  0  0  0
 36 38  2  0  0  0  0
 36 39  1  0  0  0  0
 37 36  2  0  0  0  0
 39 40  1  0  0  0  0
 39 42  1  0  0  0  0
 39 41  1  0  0  0  0
M  END
>  <minimizedAffinity>
-6.92166042

>  <minimizedRMSD>
1.71505737

$$$$
