
 OpenBabel03272510283D

 45 49  0  0  1  0  0  0  0  0999 V2000
   38.8630   25.1820   31.9620 O   0  0  0  0  0  0  0  0  0  0  0  0
   34.8480   29.4050   32.9000 C   0  0  0  0  0  0  0  0  0  0  0  0
   35.4650   29.4350   34.1470 C   0  0  0  0  0  0  0  0  0  0  0  0
   36.5290   28.5800   34.4450 C   0  0  0  0  0  0  0  0  0  0  0  0
   36.9190   27.7170   33.4300 C   0  0  0  0  0  0  0  0  0  0  0  0
   37.9320   26.7910   33.4790 N   0  0  0  0  0  0  0  0  0  0  0  0
   37.9510   26.1900   32.2810 C   0  0  0  0  0  0  0  0  0  0  0  0
   37.0090   26.6980   31.5130 N   0  0  0  0  0  0  0  0  0  0  0  0
   36.3410   27.6510   32.1850 C   0  0  0  0  0  0  0  0  0  0  0  0
   35.2770   28.5200   31.9170 C   0  0  0  0  0  0  0  0  0  0  0  0
   34.0140   30.0710   32.6610 H   0  0  0  0  0  0  0  0  0  0  0  0
   37.0120   28.5970   35.4050 H   0  0  0  0  0  0  0  0  0  0  0  0
   38.5630   26.6080   34.3130 H   0  0  0  0  0  0  0  0  0  0  0  0
   34.8240   28.4660   30.9360 H   0  0  0  0  0  0  0  0  0  0  0  0
   35.1020   32.1530   36.7100 C   0  0  0  0  0  0  0  0  0  0  0  0
   35.7360   31.3120   35.7980 C   0  0  0  0  0  0  0  0  0  0  0  0
   34.9660   30.3800   35.1230 C   0  0  0  0  0  0  0  0  0  0  0  0
   33.6250   30.3520   35.4030 N   0  0  0  0  0  0  0  0  0  0  0  0
   33.0340   31.1730   36.2870 C   0  0  0  0  0  0  0  0  0  0  0  0
   33.7730   32.0600   36.9290 N   0  0  0  0  0  0  0  0  0  0  0  0
   35.7770   32.8670   37.2080 H   0  0  0  0  0  0  0  0  0  0  0  0
   36.7860   31.3390   35.5840 H   0  0  0  0  0  0  0  0  0  0  0  0
   31.9760   31.1160   36.4750 H   0  0  0  0  0  0  0  0  0  0  0  0
   38.6630   24.1350   34.0070 N   0  0  0  0  0  0  0  0  0  0  0  0
   38.6270   23.9190   32.5680 C   0  0  1  0  0  0  0  0  0  0  0  0
   37.3340   23.3880   32.1660 C   0  0  0  0  0  0  0  0  0  0  0  0
   37.1570   22.1330   32.7740 O   0  0  0  0  0  0  0  0  0  0  0  0
   37.2880   22.1130   34.1310 C   0  0  0  0  0  0  0  0  0  0  0  0
   38.5610   22.8120   34.5720 C   0  0  2  0  0  0  0  0  0  0  0  0
   37.9170   24.6660   34.4230 H   0  0  0  0  0  0  0  0  0  0  0  0
   39.4340   23.2050   32.3430 H   0  0  0  0  0  0  0  0  0  0  0  0
   36.4030   23.8650   32.2960 H   0  0  0  0  0  0  0  0  0  0  0  0
   37.4100   23.1270   31.0660 H   0  0  0  0  0  0  0  0  0  0  0  0
   37.4210   21.0510   34.4230 H   0  0  0  0  0  0  0  0  0  0  0  0
   36.3710   22.5840   34.5550 H   0  0  0  0  0  0  0  0  0  0  0  0
   39.3880   22.2230   34.0760 H   0  0  0  0  0  0  0  0  0  0  0  0
   38.8020   22.7510   35.9690 N   0  0  1  0  0  0  0  0  0  0  0  0
   40.0920   22.1710   36.3060 C   0  0  0  0  0  3  0  0  0  0  0  0
   40.9100   22.4750   35.6530 H   0  0  0  0  0  0  0  0  0  0  0  0
   40.4300   22.5440   37.7270 C   0  0  0  0  0  3  0  0  0  0  0  0
   40.9780   23.4980   37.8180 H   0  0  0  0  0  0  0  0  0  0  0  0
   39.2630   22.5650   38.5850 N   0  0  0  0  0  0  0  0  0  0  0  0
   38.8950   21.5760   38.6130 H   0  0  0  0  0  0  0  0  0  0  0  0
   38.3000   23.5320   38.1490 C   0  0  0  0  0  2  0  0  0  0  0  0
   38.6350   23.9540   36.7110 C   0  0  0  0  0  2  0  0  0  0  0  0
  1  7  1  0  0  0  0
  1 25  1  0  0  0  0
  2  3  1  0  0  0  0
  3  4  2  0  0  0  0
  3 17  1  0  0  0  0
  4 12  1  0  0  0  0
  5  6  1  0  0  0  0
  5  4  1  0  0  0  0
  6 13  1  0  0  0  0
  7  6  1  0  0  0  0
  8  9  1  0  0  0  0
  8  7  2  0  0  0  0
  9  5  2  0  0  0  0
 10  9  1  0  0  0  0
 10  2  2  0  0  0  0
 11  2  1  0  0  0  0
 14 10  1  0  0  0  0
 15 20  1  0  0  0  0
 15 21  1  0  0  0  0
 16 15  2  0  0  0  0
 17 18  2  0  0  0  0
 17 16  1  0  0  0  0
 18 19  1  0  0  0  0
 19 23  1  0  0  0  0
 19 20  2  0  0  0  0
 22 16  1  0  0  0  0
 24 30  1  0  0  0  0
 24 29  1  0  0  0  0
 25 31  1  6  0  0  0
 25 24  1  0  0  0  0
 26 32  1  0  0  0  0
 26 25  1  0  0  0  0
 26 27  1  0  0  0  0
 27 28  1  0  0  0  0
 28 34  1  0  0  0  0
 28 35  1  0  0  0  0
 28 29  1  0  0  0  0
 29 36  1  6  0  0  0
 29 37  1  0  0  0  0
 33 26  1  0  0  0  0
 37 38  1  0  0  0  0
 37 45  1  6  0  0  0
 38 40  1  0  0  0  0
 39 38  1  0  0  0  0
 40 41  1  0  0  0  0
 40 42  1  0  0  0  0
 42 43  1  0  0  0  0
 44 42  1  0  0  0  0
 45 44  1  0  0  0  0
M  END
>  <minimizedAffinity>
-6.65147877

$$$$

 OpenBabel03272510283D

 45 49  0  0  1  0  0  0  0  0999 V2000
   38.0540   25.2290   31.7240 O   0  0  0  0  0  0  0  0  0  0  0  0
   35.4710   30.4230   32.8080 C   0  0  0  0  0  0  0  0  0  0  0  0
   35.5050   29.9400   34.1130 C   0  0  0  0  0  0  0  0  0  0  0  0
   36.0470   28.6860   34.4020 C   0  0  0  0  0  0  0  0  0  0  0  0
   36.5380   27.9700   33.3200 C   0  0  0  0  0  0  0  0  0  0  0  0
   37.1150   26.7240   33.3490 N   0  0  0  0  0  0  0  0  0  0  0  0
   37.4390   26.4300   32.0810 C   0  0  0  0  0  0  0  0  0  0  0  0
   37.0900   27.4240   31.2900 N   0  0  0  0  0  0  0  0  0  0  0  0
   36.5260   28.4040   32.0160 C   0  0  0  0  0  0  0  0  0  0  0  0
   35.9770   29.6650   31.7570 C   0  0  0  0  0  0  0  0  0  0  0  0
   35.0490   31.4040   32.5740 H   0  0  0  0  0  0  0  0  0  0  0  0
   36.0770   28.3050   35.4070 H   0  0  0  0  0  0  0  0  0  0  0  0
   37.2650   26.1320   34.2160 H   0  0  0  0  0  0  0  0  0  0  0  0
   35.9690   30.0040   30.7310 H   0  0  0  0  0  0  0  0  0  0  0  0
   35.0050   32.4460   36.8630 C   0  0  0  0  0  0  0  0  0  0  0  0
   35.6790   31.7120   35.8890 C   0  0  0  0  0  0  0  0  0  0  0  0
   34.9610   30.7820   35.1570 C   0  0  0  0  0  0  0  0  0  0  0  0
   33.6280   30.6480   35.4460 N   0  0  0  0  0  0  0  0  0  0  0  0
   32.9980   31.3670   36.3910 C   0  0  0  0  0  0  0  0  0  0  0  0
   33.6880   32.2530   37.0870 N   0  0  0  0  0  0  0  0  0  0  0  0
   35.6400   33.1640   37.4040 H   0  0  0  0  0  0  0  0  0  0  0  0
   36.7220   31.8210   35.6680 H   0  0  0  0  0  0  0  0  0  0  0  0
   31.9480   31.2290   36.5840 H   0  0  0  0  0  0  0  0  0  0  0  0
   38.8300   24.2400   33.6580 N   0  0  0  0  0  0  0  0  0  0  0  0
   39.2430   24.9070   32.4310 C   0  0  1  0  0  0  0  0  0  0  0  0
   40.0930   24.0330   31.6390 C   0  0  0  0  0  0  0  0  0  0  0  0
   41.2610   23.7600   32.3720 O   0  0  0  0  0  0  0  0  0  0  0  0
   41.0660   23.2450   33.6200 C   0  0  0  0  0  0  0  0  0  0  0  0
   40.0530   24.0620   34.4000 C   0  0  2  0  0  0  0  0  0  0  0  0
   38.4220   23.3240   33.5820 H   0  0  0  0  0  0  0  0  0  0  0  0
   39.7880   25.8120   32.7410 H   0  0  0  0  0  0  0  0  0  0  0  0
   39.8180   23.0940   31.2450 H   0  0  0  0  0  0  0  0  0  0  0  0
   40.4790   24.6450   30.7680 H   0  0  0  0  0  0  0  0  0  0  0  0
   42.0230   23.3650   34.1670 H   0  0  0  0  0  0  0  0  0  0  0  0
   40.7540   22.1830   33.4900 H   0  0  0  0  0  0  0  0  0  0  0  0
   40.5100   25.0940   34.4550 H   0  0  0  0  0  0  0  0  0  0  0  0
   39.8680   23.6310   35.7390 N   0  0  1  0  0  0  0  0  0  0  0  0
   38.5780   24.0080   36.2930 C   0  0  0  0  0  3  0  0  0  0  0  0
   37.7420   23.9150   35.6000 H   0  0  0  0  0  0  0  0  0  0  0  0
   38.3080   23.1570   37.5080 C   0  0  0  0  0  3  0  0  0  0  0  0
   37.7910   22.2090   37.2800 H   0  0  0  0  0  0  0  0  0  0  0  0
   39.5100   22.8890   38.2710 N   0  0  0  0  0  0  0  0  0  0  0  0
   39.8520   23.8220   38.6280 H   0  0  0  0  0  0  0  0  0  0  0  0
   40.4800   22.1690   37.5010 C   0  0  0  0  0  2  0  0  0  0  0  0
   40.0980   22.2540   36.0160 C   0  0  0  0  0  2  0  0  0  0  0  0
  1  7  1  0  0  0  0
  1 25  1  0  0  0  0
  2  3  1  0  0  0  0
  3  4  2  0  0  0  0
  3 17  1  0  0  0  0
  4 12  1  0  0  0  0
  5  6  1  0  0  0  0
  5  4  1  0  0  0  0
  6 13  1  0  0  0  0
  7  6  1  0  0  0  0
  8  9  1  0  0  0  0
  8  7  2  0  0  0  0
  9  5  2  0  0  0  0
 10  9  1  0  0  0  0
 10  2  2  0  0  0  0
 11  2  1  0  0  0  0
 14 10  1  0  0  0  0
 15 20  1  0  0  0  0
 15 21  1  0  0  0  0
 16 15  2  0  0  0  0
 17 18  2  0  0  0  0
 17 16  1  0  0  0  0
 18 19  1  0  0  0  0
 19 23  1  0  0  0  0
 19 20  2  0  0  0  0
 22 16  1  0  0  0  0
 24 29  1  0  0  0  0
 25 31  1  1  0  0  0
 25 24  1  0  0  0  0
 26 27  1  0  0  0  0
 26 25  1  0  0  0  0
 27 28  1  0  0  0  0
 28 34  1  0  0  0  0
 28 29  1  0  0  0  0
 29 36  1  1  0  0  0
 29 37  1  0  0  0  0
 30 24  1  0  0  0  0
 32 26  1  0  0  0  0
 33 26  1  0  0  0  0
 35 28  1  0  0  0  0
 37 45  1  6  0  0  0
 37 38  1  0  0  0  0
 38 40  1  0  0  0  0
 39 38  1  0  0  0  0
 40 42  1  0  0  0  0
 41 40  1  0  0  0  0
 42 43  1  0  0  0  0
 44 42  1  0  0  0  0
 45 44  1  0  0  0  0
M  END
>  <minimizedAffinity>
-6.39472628

$$$$

 OpenBabel03272510283D

 45 49  0  0  1  0  0  0  0  0999 V2000
   35.4580   29.6410   32.5910 O   0  0  0  0  0  0  0  0  0  0  0  0
   38.0670   24.5070   33.8770 C   0  0  0  0  0  0  0  0  0  0  0  0
   38.0760   25.0610   35.1540 C   0  0  0  0  0  0  0  0  0  0  0  0
   37.5450   26.3310   35.3910 C   0  0  0  0  0  0  0  0  0  0  0  0
   37.0210   26.9880   34.2870 C   0  0  0  0  0  0  0  0  0  0  0  0
   36.4460   28.2350   34.2650 N   0  0  0  0  0  0  0  0  0  0  0  0
   36.0820   28.4600   32.9940 C   0  0  0  0  0  0  0  0  0  0  0  0
   36.4040   27.4220   32.2480 N   0  0  0  0  0  0  0  0  0  0  0  0
   36.9900   26.4820   33.0090 C   0  0  0  0  0  0  0  0  0  0  0  0
   37.5290   25.2070   32.8030 C   0  0  0  0  0  0  0  0  0  0  0  0
   38.4810   23.5130   33.6850 H   0  0  0  0  0  0  0  0  0  0  0  0
   37.5480   26.7670   36.3740 H   0  0  0  0  0  0  0  0  0  0  0  0
   36.3250   28.8740   35.1030 H   0  0  0  0  0  0  0  0  0  0  0  0
   37.5030   24.8110   31.7970 H   0  0  0  0  0  0  0  0  0  0  0  0
   38.8130   23.3730   38.4250 C   0  0  0  0  0  0  0  0  0  0  0  0
   38.1360   24.1720   37.5050 C   0  0  0  0  0  0  0  0  0  0  0  0
   38.6530   24.2760   36.2250 C   0  0  0  0  0  0  0  0  0  0  0  0
   39.8020   23.5820   35.9520 N   0  0  0  0  0  0  0  0  0  0  0  0
   40.4390   22.8170   36.8550 C   0  0  0  0  0  0  0  0  0  0  0  0
   39.9420   22.7200   38.0750 N   0  0  0  0  0  0  0  0  0  0  0  0
   38.3450   23.3380   39.4210 H   0  0  0  0  0  0  0  0  0  0  0  0
   37.2380   24.7130   37.7260 H   0  0  0  0  0  0  0  0  0  0  0  0
   41.3400   22.2880   36.5960 H   0  0  0  0  0  0  0  0  0  0  0  0
   33.6250   29.5990   33.9900 N   0  0  0  0  0  0  0  0  0  0  0  0
   34.0370   29.6230   32.5950 C   0  0  1  0  0  0  0  0  0  0  0  0
   33.5060   30.8010   31.9280 C   0  0  0  0  0  0  0  0  0  0  0  0
   32.1020   30.7280   31.9400 O   0  0  0  0  0  0  0  0  0  0  0  0
   31.5320   30.5680   33.1690 C   0  0  0  0  0  0  0  0  0  0  0  0
   32.1930   29.4400   33.9400 C   0  0  2  0  0  0  0  0  0  0  0  0
   33.7880   30.4220   34.5450 H   0  0  0  0  0  0  0  0  0  0  0  0
   33.6420   28.7010   32.1410 H   0  0  0  0  0  0  0  0  0  0  0  0
   33.7080   31.8030   32.1890 H   0  0  0  0  0  0  0  0  0  0  0  0
   33.7540   30.7000   30.8270 H   0  0  0  0  0  0  0  0  0  0  0  0
   30.4890   30.2330   32.9950 H   0  0  0  0  0  0  0  0  0  0  0  0
   31.6070   31.5490   33.6940 H   0  0  0  0  0  0  0  0  0  0  0  0
   32.0270   28.5270   33.2950 H   0  0  0  0  0  0  0  0  0  0  0  0
   31.5890   29.1640   35.1940 N   0  0  1  0  0  0  0  0  0  0  0  0
   30.7040   30.2230   35.6520 C   0  0  0  0  0  3  0  0  0  0  0  0
   30.0910   30.6710   34.8700 H   0  0  0  0  0  0  0  0  0  0  0  0
   29.8040   29.6660   36.7260 C   0  0  0  0  0  3  0  0  0  0  0  0
   28.8690   29.2260   36.3390 H   0  0  0  0  0  0  0  0  0  0  0  0
   30.4840   28.7070   37.5730 N   0  0  0  0  0  0  0  0  0  0  0  0
   31.2510   29.2370   38.0690 H   0  0  0  0  0  0  0  0  0  0  0  0
   30.9460   27.5730   36.8280 C   0  0  0  0  0  2  0  0  0  0  0  0
   30.9170   27.9170   35.3320 C   0  0  0  0  0  2  0  0  0  0  0  0
  1 25  1  0  0  0  0
  1  7  1  0  0  0  0
  2  3  1  0  0  0  0
  3  4  2  0  0  0  0
  3 17  1  0  0  0  0
  4 12  1  0  0  0  0
  5  4  1  0  0  0  0
  6  5  1  0  0  0  0
  6 13  1  0  0  0  0
  7  6  1  0  0  0  0
  8  7  2  0  0  0  0
  8  9  1  0  0  0  0
  9  5  2  0  0  0  0
 10  9  1  0  0  0  0
 10  2  2  0  0  0  0
 11  2  1  0  0  0  0
 14 10  1  0  0  0  0
 15 21  1  0  0  0  0
 16 22  1  0  0  0  0
 16 15  2  0  0  0  0
 17 16  1  0  0  0  0
 18 17  2  0  0  0  0
 18 19  1  0  0  0  0
 19 20  2  0  0  0  0
 20 15  1  0  0  0  0
 23 19  1  0  0  0  0
 24 30  1  0  0  0  0
 25 31  1  6  0  0  0
 25 24  1  0  0  0  0
 26 27  1  0  0  0  0
 26 32  1  0  0  0  0
 26 25  1  0  0  0  0
 27 28  1  0  0  0  0
 28 35  1  0  0  0  0
 28 29  1  0  0  0  0
 29 36  1  6  0  0  0
 29 24  1  0  0  0  0
 29 37  1  0  0  0  0
 33 26  1  0  0  0  0
 34 28  1  0  0  0  0
 37 45  1  6  0  0  0
 37 38  1  0  0  0  0
 38 40  1  0  0  0  0
 39 38  1  0  0  0  0
 40 42  1  0  0  0  0
 41 40  1  0  0  0  0
 42 43  1  0  0  0  0
 44 42  1  0  0  0  0
 45 44  1  0  0  0  0
M  END
>  <minimizedAffinity>
-6.35786152

$$$$

 OpenBabel03272510283D

 45 49  0  0  1  0  0  0  0  0999 V2000
   37.9320   25.5090   31.6560 O   0  0  0  0  0  0  0  0  0  0  0  0
   35.5900   30.7570   32.9990 C   0  0  0  0  0  0  0  0  0  0  0  0
   35.4730   30.1600   34.2500 C   0  0  0  0  0  0  0  0  0  0  0  0
   35.9060   28.8490   34.4660 C   0  0  0  0  0  0  0  0  0  0  0  0
   36.4490   28.1990   33.3670 C   0  0  0  0  0  0  0  0  0  0  0  0
   36.9430   26.9170   33.3280 N   0  0  0  0  0  0  0  0  0  0  0  0
   37.3630   26.7140   32.0710 C   0  0  0  0  0  0  0  0  0  0  0  0
   37.1520   27.7970   31.3490 N   0  0  0  0  0  0  0  0  0  0  0  0
   36.5850   28.7460   32.1130 C   0  0  0  0  0  0  0  0  0  0  0  0
   36.1420   30.0610   31.9290 C   0  0  0  0  0  0  0  0  0  0  0  0
   35.2530   31.7820   32.8230 H   0  0  0  0  0  0  0  0  0  0  0  0
   35.8200   28.3800   35.4290 H   0  0  0  0  0  0  0  0  0  0  0  0
   36.9740   26.2420   34.1450 H   0  0  0  0  0  0  0  0  0  0  0  0
   36.2510   30.4890   30.9420 H   0  0  0  0  0  0  0  0  0  0  0  0
   34.8370   32.5910   37.0380 C   0  0  0  0  0  0  0  0  0  0  0  0
   35.5430   31.9270   36.0370 C   0  0  0  0  0  0  0  0  0  0  0  0
   34.8880   30.9420   35.3180 C   0  0  0  0  0  0  0  0  0  0  0  0
   33.5820   30.6880   35.6460 N   0  0  0  0  0  0  0  0  0  0  0  0
   32.9200   31.3420   36.6160 C   0  0  0  0  0  0  0  0  0  0  0  0
   33.5490   32.2800   37.2990 N   0  0  0  0  0  0  0  0  0  0  0  0
   35.4220   33.3600   37.5670 H   0  0  0  0  0  0  0  0  0  0  0  0
   36.5660   32.1300   35.7870 H   0  0  0  0  0  0  0  0  0  0  0  0
   31.8930   31.1090   36.8380 H   0  0  0  0  0  0  0  0  0  0  0  0
   37.4250   23.2640   31.8040 N   0  0  0  0  0  0  0  0  0  0  0  0
   37.8340   24.4290   32.5740 C   0  0  1  0  0  0  0  0  0  0  0  0
   39.1130   24.1870   33.2230 C   0  0  0  0  0  0  0  0  0  0  0  0
   38.9590   23.1260   34.1320 O   0  0  0  0  0  0  0  0  0  0  0  0
   38.4540   21.9720   33.6110 C   0  0  0  0  0  0  0  0  0  0  0  0
   37.2030   22.2390   32.7930 C   0  0  2  0  0  0  0  0  0  0  0  0
   38.0840   22.8750   31.1510 H   0  0  0  0  0  0  0  0  0  0  0  0
   37.0410   24.6010   33.3180 H   0  0  0  0  0  0  0  0  0  0  0  0
   40.0220   23.9700   32.7340 H   0  0  0  0  0  0  0  0  0  0  0  0
   39.3150   25.0720   33.8990 H   0  0  0  0  0  0  0  0  0  0  0  0
   38.1170   21.3560   34.4690 H   0  0  0  0  0  0  0  0  0  0  0  0
   39.2670   21.5010   33.0110 H   0  0  0  0  0  0  0  0  0  0  0  0
   36.4820   22.7000   33.5300 H   0  0  0  0  0  0  0  0  0  0  0  0
   36.5770   21.0670   32.2930 N   0  0  1  0  0  0  0  0  0  0  0  0
   37.5180   20.0080   31.9650 C   0  0  0  0  0  3  0  0  0  0  0  0
   38.3380   19.8940   32.6740 H   0  0  0  0  0  0  0  0  0  0  0  0
   36.7620   18.7070   31.8720 C   0  0  0  0  0  3  0  0  0  0  0  0
   36.6850   18.1670   32.8320 H   0  0  0  0  0  0  0  0  0  0  0  0
   35.4430   18.8740   31.2960 N   0  0  0  0  0  0  0  0  0  0  0  0
   35.5890   19.2090   30.3050 H   0  0  0  0  0  0  0  0  0  0  0  0
   34.6230   19.7430   32.0890 C   0  0  0  0  0  2  0  0  0  0  0  0
   35.5190   20.5140   33.0680 C   0  0  0  0  0  2  0  0  0  0  0  0
  1  7  1  0  0  0  0
  1 25  1  0  0  0  0
  2  3  1  0  0  0  0
  3  4  2  0  0  0  0
  3 17  1  0  0  0  0
  4 12  1  0  0  0  0
  5  4  1  0  0  0  0
  6  5  1  0  0  0  0
  6 13  1  0  0  0  0
  7  6  1  0  0  0  0
  8  7  2  0  0  0  0
  8  9  1  0  0  0  0
  9  5  2  0  0  0  0
 10  9  1  0  0  0  0
 10  2  2  0  0  0  0
 11  2  1  0  0  0  0
 14 10  1  0  0  0  0
 15 20  1  0  0  0  0
 15 21  1  0  0  0  0
 16 15  2  0  0  0  0
 17 18  2  0  0  0  0
 17 16  1  0  0  0  0
 18 19  1  0  0  0  0
 19 23  1  0  0  0  0
 19 20  2  0  0  0  0
 22 16  1  0  0  0  0
 24 25  1  0  0  0  0
 24 29  1  0  0  0  0
 25 26  1  0  0  0  0
 25 31  1  1  0  0  0
 26 33  1  0  0  0  0
 26 27  1  0  0  0  0
 28 27  1  0  0  0  0
 28 34  1  0  0  0  0
 29 36  1  1  0  0  0
 29 28  1  0  0  0  0
 30 24  1  0  0  0  0
 32 26  1  0  0  0  0
 35 28  1  0  0  0  0
 37 29  1  0  0  0  0
 37 45  1  1  0  0  0
 38 37  1  0  0  0  0
 38 39  1  0  0  0  0
 40 38  1  0  0  0  0
 40 41  1  0  0  0  0
 42 40  1  0  0  0  0
 42 44  1  0  0  0  0
 43 42  1  0  0  0  0
 44 45  1  0  0  0  0
M  END
>  <minimizedAffinity>
-6.1333127

$$$$

 OpenBabel03272510283D

 45 49  0  0  1  0  0  0  0  0999 V2000
   37.2080   24.9080   31.7050 O   0  0  0  0  0  0  0  0  0  0  0  0
   35.5220   30.5440   32.1790 C   0  0  0  0  0  0  0  0  0  0  0  0
   35.6330   30.2540   33.5350 C   0  0  0  0  0  0  0  0  0  0  0  0
   36.0210   28.9840   33.9710 C   0  0  0  0  0  0  0  0  0  0  0  0
   36.2820   28.0520   32.9760 C   0  0  0  0  0  0  0  0  0  0  0  0
   36.6770   26.7490   33.1500 N   0  0  0  0  0  0  0  0  0  0  0  0
   36.8130   26.2290   31.9210 C   0  0  0  0  0  0  0  0  0  0  0  0
   36.5220   27.1420   31.0160 N   0  0  0  0  0  0  0  0  0  0  0  0
   36.1860   28.2920   31.6250 C   0  0  0  0  0  0  0  0  0  0  0  0
   35.7950   29.5740   31.2210 C   0  0  0  0  0  0  0  0  0  0  0  0
   35.2190   31.5350   31.8310 H   0  0  0  0  0  0  0  0  0  0  0  0
   36.1090   28.7510   35.0170 H   0  0  0  0  0  0  0  0  0  0  0  0
   36.8380   26.2710   34.0830 H   0  0  0  0  0  0  0  0  0  0  0  0
   35.7210   29.7600   30.1580 H   0  0  0  0  0  0  0  0  0  0  0  0
   35.2340   32.3680   36.6110 C   0  0  0  0  0  0  0  0  0  0  0  0
   35.5840   31.2630   35.8380 C   0  0  0  0  0  0  0  0  0  0  0  0
   35.3330   31.3110   34.4780 C   0  0  0  0  0  0  0  0  0  0  0  0
   34.7540   32.4500   33.9850 N   0  0  0  0  0  0  0  0  0  0  0  0
   34.4250   33.5060   34.7500 C   0  0  0  0  0  0  0  0  0  0  0  0
   34.6660   33.4550   36.0470 N   0  0  0  0  0  0  0  0  0  0  0  0
   35.4630   32.2580   37.6830 H   0  0  0  0  0  0  0  0  0  0  0  0
   36.0360   30.3730   36.2300 H   0  0  0  0  0  0  0  0  0  0  0  0
   33.9710   34.3820   34.3190 H   0  0  0  0  0  0  0  0  0  0  0  0
   37.9850   23.9440   33.6510 N   0  0  0  0  0  0  0  0  0  0  0  0
   38.3950   24.5000   32.3700 C   0  0  1  0  0  0  0  0  0  0  0  0
   39.1070   23.5020   31.5870 C   0  0  0  0  0  0  0  0  0  0  0  0
   40.2800   23.1460   32.2750 O   0  0  0  0  0  0  0  0  0  0  0  0
   40.1030   22.7200   33.5590 C   0  0  0  0  0  0  0  0  0  0  0  0
   39.2230   23.6780   34.3410 C   0  0  2  0  0  0  0  0  0  0  0  0
   37.4820   23.0730   33.6480 H   0  0  0  0  0  0  0  0  0  0  0  0
   39.0460   25.3580   32.6000 H   0  0  0  0  0  0  0  0  0  0  0  0
   38.7150   22.5780   31.2610 H   0  0  0  0  0  0  0  0  0  0  0  0
   39.5040   24.0250   30.6640 H   0  0  0  0  0  0  0  0  0  0  0  0
   41.0960   22.7670   34.0490 H   0  0  0  0  0  0  0  0  0  0  0  0
   39.6770   21.6910   33.5050 H   0  0  0  0  0  0  0  0  0  0  0  0
   39.7850   24.6580   34.3130 H   0  0  0  0  0  0  0  0  0  0  0  0
   39.0700   23.3380   35.7100 N   0  0  1  0  0  0  0  0  0  0  0  0
   40.2190   22.6370   36.2600 C   0  0  0  0  0  3  0  0  0  0  0  0
   41.1850   23.0170   35.9260 H   0  0  0  0  0  0  0  0  0  0  0  0
   40.1530   22.7120   37.7640 C   0  0  0  0  0  3  0  0  0  0  0  0
   40.6520   23.6010   38.1880 H   0  0  0  0  0  0  0  0  0  0  0  0
   38.7940   22.6290   38.2610 N   0  0  0  0  0  0  0  0  0  0  0  0
   38.4350   21.6740   37.9920 H   0  0  0  0  0  0  0  0  0  0  0  0
   37.9860   23.7120   37.7830 C   0  0  0  0  0  2  0  0  0  0  0  0
   38.7030   24.3830   36.6030 C   0  0  0  0  0  2  0  0  0  0  0  0
  1  7  1  0  0  0  0
  1 25  1  0  0  0  0
  2  3  1  0  0  0  0
  3  4  2  0  0  0  0
  3 17  1  0  0  0  0
  4 12  1  0  0  0  0
  5  6  1  0  0  0  0
  5  4  1  0  0  0  0
  6 13  1  0  0  0  0
  7  6  1  0  0  0  0
  8  9  1  0  0  0  0
  8  7  2  0  0  0  0
  9  5  2  0  0  0  0
 10  9  1  0  0  0  0
 10  2  2  0  0  0  0
 11  2  1  0  0  0  0
 14 10  1  0  0  0  0
 15 21  1  0  0  0  0
 16 22  1  0  0  0  0
 16 15  2  0  0  0  0
 17 16  1  0  0  0  0
 18 17  2  0  0  0  0
 18 19  1  0  0  0  0
 19 20  2  0  0  0  0
 20 15  1  0  0  0  0
 23 19  1  0  0  0  0
 24 29  1  0  0  0  0
 25 31  1  1  0  0  0
 25 24  1  0  0  0  0
 26 27  1  0  0  0  0
 26 25  1  0  0  0  0
 27 28  1  0  0  0  0
 28 34  1  0  0  0  0
 28 29  1  0  0  0  0
 29 36  1  6  0  0  0
 29 37  1  0  0  0  0
 30 24  1  0  0  0  0
 32 26  1  0  0  0  0
 33 26  1  0  0  0  0
 35 28  1  0  0  0  0
 37 38  1  0  0  0  0
 37 45  1  1  0  0  0
 38 40  1  0  0  0  0
 39 38  1  0  0  0  0
 40 41  1  0  0  0  0
 40 42  1  0  0  0  0
 43 42  1  0  0  0  0
 44 42  1  0  0  0  0
 45 44  1  0  0  0  0
M  END
>  <minimizedAffinity>
-6.08518314

$$$$

 OpenBabel03272510283D

 45 49  0  0  1  0  0  0  0  0999 V2000
   36.6210   29.1740   31.7960 O   0  0  0  0  0  0  0  0  0  0  0  0
   37.6800   23.4970   33.0130 C   0  0  0  0  0  0  0  0  0  0  0  0
   36.6200   23.3180   32.1290 C   0  0  0  0  0  0  0  0  0  0  0  0
   35.9860   24.4110   31.5340 C   0  0  0  0  0  0  0  0  0  0  0  0
   36.4770   25.6620   31.8790 C   0  0  0  0  0  0  0  0  0  0  0  0
   36.0260   26.8790   31.4280 N   0  0  0  0  0  0  0  0  0  0  0  0
   36.7910   27.8070   32.0200 C   0  0  0  0  0  0  0  0  0  0  0  0
   37.6770   27.2230   32.8010 N   0  0  0  0  0  0  0  0  0  0  0  0
   37.5200   25.8890   32.7460 C   0  0  0  0  0  0  0  0  0  0  0  0
   38.1350   24.7740   33.3260 C   0  0  0  0  0  0  0  0  0  0  0  0
   38.1810   22.6460   33.4820 H   0  0  0  0  0  0  0  0  0  0  0  0
   35.1670   24.2820   30.8500 H   0  0  0  0  0  0  0  0  0  0  0  0
   35.2270   27.0270   30.7460 H   0  0  0  0  0  0  0  0  0  0  0  0
   38.9550   24.9550   34.0070 H   0  0  0  0  0  0  0  0  0  0  0  0
   34.8250   20.0230   32.0310 C   0  0  0  0  0  0  0  0  0  0  0  0
   35.0970   21.3370   32.4070 C   0  0  0  0  0  0  0  0  0  0  0  0
   36.1990   21.9620   31.8490 C   0  0  0  0  0  0  0  0  0  0  0  0
   36.9500   21.2370   30.9610 N   0  0  0  0  0  0  0  0  0  0  0  0
   36.6690   19.9690   30.6130 C   0  0  0  0  0  0  0  0  0  0  0  0
   35.6170   19.3780   31.1480 N   0  0  0  0  0  0  0  0  0  0  0  0
   33.9350   19.5920   32.5150 H   0  0  0  0  0  0  0  0  0  0  0  0
   34.5050   21.8980   33.1030 H   0  0  0  0  0  0  0  0  0  0  0  0
   37.2880   19.4380   29.9100 H   0  0  0  0  0  0  0  0  0  0  0  0
   35.4460   30.3190   33.4180 N   0  0  0  0  0  0  0  0  0  0  0  0
   35.3370   29.6970   32.1060 C   0  0  1  0  0  0  0  0  0  0  0  0
   34.9250   30.6750   31.1130 C   0  0  0  0  0  0  0  0  0  0  0  0
   33.6450   31.1470   31.4520 O   0  0  0  0  0  0  0  0  0  0  0  0
   33.5190   31.6530   32.7120 C   0  0  0  0  0  0  0  0  0  0  0  0
   34.0970   30.7050   33.7470 C   0  0  2  0  0  0  0  0  0  0  0  0
   35.9960   31.1570   33.4980 H   0  0  0  0  0  0  0  0  0  0  0  0
   34.5870   28.8970   32.2060 H   0  0  0  0  0  0  0  0  0  0  0  0
   35.4540   31.5490   30.8500 H   0  0  0  0  0  0  0  0  0  0  0  0
   34.7390   30.1110   30.1480 H   0  0  0  0  0  0  0  0  0  0  0  0
   32.4330   31.6990   32.9300 H   0  0  0  0  0  0  0  0  0  0  0  0
   34.0200   32.6500   32.7150 H   0  0  0  0  0  0  0  0  0  0  0  0
   33.4890   29.7600   33.6280 H   0  0  0  0  0  0  0  0  0  0  0  0
   33.9200   31.1340   35.0880 N   0  0  1  0  0  0  0  0  0  0  0  0
   35.1690   31.4600   35.7570 C   0  0  0  0  0  3  0  0  0  0  0  0
   35.8920   31.9880   35.1360 H   0  0  0  0  0  0  0  0  0  0  0  0
   34.8590   32.2950   36.9730 C   0  0  0  0  0  3  0  0  0  0  0  0
   34.8310   33.3800   36.7720 H   0  0  0  0  0  0  0  0  0  0  0  0
   33.6320   31.8850   37.6260 N   0  0  0  0  0  0  0  0  0  0  0  0
   33.7910   30.9000   37.9710 H   0  0  0  0  0  0  0  0  0  0  0  0
   32.4980   32.0240   36.7610 C   0  0  0  0  0  2  0  0  0  0  0  0
   32.9910   32.1880   35.3170 C   0  0  0  0  0  2  0  0  0  0  0  0
  1  7  1  0  0  0  0
  1 25  1  0  0  0  0
  2 10  1  0  0  0  0
  2 11  1  0  0  0  0
  3  2  2  0  0  0  0
  4  5  2  0  0  0  0
  4  3  1  0  0  0  0
  5  9  1  0  0  0  0
  6  5  1  0  0  0  0
  6  7  1  0  0  0  0
  7  8  2  0  0  0  0
  9  8  1  0  0  0  0
  9 10  2  0  0  0  0
 10 14  1  0  0  0  0
 12  4  1  0  0  0  0
 13  6  1  0  0  0  0
 15 16  1  0  0  0  0
 15 21  1  0  0  0  0
 16 22  1  0  0  0  0
 17  3  1  0  0  0  0
 17 16  2  0  0  0  0
 18 17  1  0  0  0  0
 19 18  2  0  0  0  0
 19 20  1  0  0  0  0
 20 15  2  0  0  0  0
 23 19  1  0  0  0  0
 24 30  1  0  0  0  0
 24 29  1  0  0  0  0
 25 31  1  1  0  0  0
 25 24  1  0  0  0  0
 26 27  1  0  0  0  0
 26 25  1  0  0  0  0
 27 28  1  0  0  0  0
 28 35  1  0  0  0  0
 28 34  1  0  0  0  0
 28 29  1  0  0  0  0
 29 36  1  6  0  0  0
 29 37  1  0  0  0  0
 32 26  1  0  0  0  0
 33 26  1  0  0  0  0
 37 45  1  6  0  0  0
 37 38  1  0  0  0  0
 38 40  1  0  0  0  0
 39 38  1  0  0  0  0
 40 42  1  0  0  0  0
 41 40  1  0  0  0  0
 42 43  1  0  0  0  0
 44 42  1  0  0  0  0
 45 44  1  0  0  0  0
M  END
>  <minimizedAffinity>
-6.03966427

$$$$

 OpenBabel03272510283D

 45 49  0  0  1  0  0  0  0  0999 V2000
   36.1320   28.5370   30.5950 O   0  0  0  0  0  0  0  0  0  0  0  0
   39.9180   26.0520   34.3790 C   0  0  0  0  0  0  0  0  0  0  0  0
   38.7380   25.5410   34.9110 C   0  0  0  0  0  0  0  0  0  0  0  0
   37.4990   25.8500   34.3450 C   0  0  0  0  0  0  0  0  0  0  0  0
   37.5270   26.6870   33.2380 C   0  0  0  0  0  0  0  0  0  0  0  0
   36.4490   27.1300   32.5120 N   0  0  0  0  0  0  0  0  0  0  0  0
   36.9450   27.9070   31.5380 C   0  0  0  0  0  0  0  0  0  0  0  0
   38.2580   27.9590   31.6350 N   0  0  0  0  0  0  0  0  0  0  0  0
   38.6650   27.2160   32.6770 C   0  0  0  0  0  0  0  0  0  0  0  0
   39.8910   26.8870   33.2670 C   0  0  0  0  0  0  0  0  0  0  0  0
   40.8910   25.8140   34.8170 H   0  0  0  0  0  0  0  0  0  0  0  0
   36.5830   25.4600   34.7500 H   0  0  0  0  0  0  0  0  0  0  0  0
   35.4330   26.8900   32.7040 H   0  0  0  0  0  0  0  0  0  0  0  0
   40.7850   27.3040   32.8230 H   0  0  0  0  0  0  0  0  0  0  0  0
   39.6820   22.8740   37.3790 C   0  0  0  0  0  0  0  0  0  0  0  0
   39.7080   23.6080   36.1940 C   0  0  0  0  0  0  0  0  0  0  0  0
   38.8390   24.6780   36.0700 C   0  0  0  0  0  0  0  0  0  0  0  0
   38.0100   24.9410   37.1280 N   0  0  0  0  0  0  0  0  0  0  0  0
   38.0010   24.2200   38.2620 C   0  0  0  0  0  0  0  0  0  0  0  0
   38.8320   23.1990   38.3760 N   0  0  0  0  0  0  0  0  0  0  0  0
   40.3990   22.0390   37.4060 H   0  0  0  0  0  0  0  0  0  0  0  0
   40.3600   23.3970   35.3700 H   0  0  0  0  0  0  0  0  0  0  0  0
   37.3320   24.4630   39.0680 H   0  0  0  0  0  0  0  0  0  0  0  0
   36.0870   30.1930   32.2000 N   0  0  0  0  0  0  0  0  0  0  0  0
   35.9400   29.9330   30.7760 C   0  0  1  0  0  0  0  0  0  0  0  0
   36.9220   30.6910   30.0170 C   0  0  0  0  0  0  0  0  0  0  0  0
   36.6780   32.0610   30.2120 O   0  0  0  0  0  0  0  0  0  0  0  0
   36.6470   32.4740   31.5120 C   0  0  0  0  0  0  0  0  0  0  0  0
   35.7460   31.5850   32.3500 C   0  0  2  0  0  0  0  0  0  0  0  0
   37.0020   30.0910   32.6060 H   0  0  0  0  0  0  0  0  0  0  0  0
   34.9160   30.2390   30.5110 H   0  0  0  0  0  0  0  0  0  0  0  0
   37.9700   30.6060   30.1040 H   0  0  0  0  0  0  0  0  0  0  0  0
   36.6780   30.5450   28.9200 H   0  0  0  0  0  0  0  0  0  0  0  0
   36.1620   33.4710   31.5170 H   0  0  0  0  0  0  0  0  0  0  0  0
   37.7000   32.4850   31.8770 H   0  0  0  0  0  0  0  0  0  0  0  0
   34.7290   31.6860   31.8680 H   0  0  0  0  0  0  0  0  0  0  0  0
   35.6010   32.0120   33.6950 N   0  0  1  0  0  0  0  0  0  0  0  0
   35.6020   30.9150   34.6500 C   0  0  0  0  0  3  0  0  0  0  0  0
   36.3200   30.1250   34.4330 H   0  0  0  0  0  0  0  0  0  0  0  0
   35.8810   31.4730   36.0230 C   0  0  0  0  0  3  0  0  0  0  0  0
   36.9560   31.5240   36.2720 H   0  0  0  0  0  0  0  0  0  0  0  0
   35.2690   32.7710   36.2260 N   0  0  0  0  0  0  0  0  0  0  0  0
   34.2260   32.6220   36.1690 H   0  0  0  0  0  0  0  0  0  0  0  0
   35.7700   33.7450   35.3020 C   0  0  0  0  0  2  0  0  0  0  0  0
   36.4920   33.0200   34.1580 C   0  0  0  0  0  2  0  0  0  0  0  0
  1 25  1  0  0  0  0
  1  7  1  0  0  0  0
  2 11  1  0  0  0  0
  2  3  1  0  0  0  0
  3 17  1  0  0  0  0
  4 12  1  0  0  0  0
  4  3  2  0  0  0  0
  5  4  1  0  0  0  0
  6 13  1  0  0  0  0
  6  5  1  0  0  0  0
  7  8  2  0  0  0  0
  7  6  1  0  0  0  0
  8  9  1  0  0  0  0
  9  5  2  0  0  0  0
  9 10  1  0  0  0  0
 10  2  2  0  0  0  0
 14 10  1  0  0  0  0
 15 21  1  0  0  0  0
 15 20  1  0  0  0  0
 16 15  2  0  0  0  0
 17 16  1  0  0  0  0
 17 18  2  0  0  0  0
 18 19  1  0  0  0  0
 19 20  2  0  0  0  0
 19 23  1  0  0  0  0
 22 16  1  0  0  0  0
 24 29  1  0  0  0  0
 24 30  1  0  0  0  0
 25 31  1  6  0  0  0
 25 24  1  0  0  0  0
 26 32  1  0  0  0  0
 26 27  1  0  0  0  0
 26 25  1  0  0  0  0
 27 28  1  0  0  0  0
 28 34  1  0  0  0  0
 28 35  1  0  0  0  0
 28 29  1  0  0  0  0
 29 36  1  6  0  0  0
 29 37  1  0  0  0  0
 33 26  1  0  0  0  0
 37 45  1  1  0  0  0
 37 38  1  0  0  0  0
 38 40  1  0  0  0  0
 39 38  1  0  0  0  0
 40 42  1  0  0  0  0
 40 41  1  0  0  0  0
 43 42  1  0  0  0  0
 44 42  1  0  0  0  0
 45 44  1  0  0  0  0
M  END
>  <minimizedAffinity>
-5.96680546

$$$$

 OpenBabel03272510283D

 45 49  0  0  1  0  0  0  0  0999 V2000
   36.0900   29.6250   31.5520 O   0  0  0  0  0  0  0  0  0  0  0  0
   39.4320   25.3550   33.8830 C   0  0  0  0  0  0  0  0  0  0  0  0
   38.5300   25.4990   34.9330 C   0  0  0  0  0  0  0  0  0  0  0  0
   37.4920   26.4320   34.8680 C   0  0  0  0  0  0  0  0  0  0  0  0
   37.4250   27.1890   33.7070 C   0  0  0  0  0  0  0  0  0  0  0  0
   36.5020   28.1610   33.4080 N   0  0  0  0  0  0  0  0  0  0  0  0
   36.8190   28.6190   32.1880 C   0  0  0  0  0  0  0  0  0  0  0  0
   37.8800   27.9820   31.7340 N   0  0  0  0  0  0  0  0  0  0  0  0
   38.2920   27.0820   32.6450 C   0  0  0  0  0  0  0  0  0  0  0  0
   39.3210   26.1390   32.7400 C   0  0  0  0  0  0  0  0  0  0  0  0
   40.2460   24.6270   33.9270 H   0  0  0  0  0  0  0  0  0  0  0  0
   36.7910   26.5500   35.6750 H   0  0  0  0  0  0  0  0  0  0  0  0
   35.7040   28.4690   34.0350 H   0  0  0  0  0  0  0  0  0  0  0  0
   40.0010   26.0570   31.9020 H   0  0  0  0  0  0  0  0  0  0  0  0
   39.6440   22.8740   37.3740 C   0  0  0  0  0  0  0  0  0  0  0  0
   39.5970   23.5960   36.1830 C   0  0  0  0  0  0  0  0  0  0  0  0
   38.7050   24.6510   36.0930 C   0  0  0  0  0  0  0  0  0  0  0  0
   37.9270   24.9110   37.1900 N   0  0  0  0  0  0  0  0  0  0  0  0
   37.9890   24.2010   38.3290 C   0  0  0  0  0  0  0  0  0  0  0  0
   38.8410   23.1960   38.4100 N   0  0  0  0  0  0  0  0  0  0  0  0
   40.3750   22.0510   37.3720 H   0  0  0  0  0  0  0  0  0  0  0  0
   40.2090   23.3870   35.3280 H   0  0  0  0  0  0  0  0  0  0  0  0
   37.3570   24.4420   39.1670 H   0  0  0  0  0  0  0  0  0  0  0  0
   35.0570   30.6710   33.3290 N   0  0  0  0  0  0  0  0  0  0  0  0
   34.8160   29.9130   32.1100 C   0  0  1  0  0  0  0  0  0  0  0  0
   34.0110   30.6890   31.1800 C   0  0  0  0  0  0  0  0  0  0  0  0
   32.7570   30.9310   31.7680 O   0  0  0  0  0  0  0  0  0  0  0  0
   32.7870   31.5250   32.9950 C   0  0  0  0  0  0  0  0  0  0  0  0
   33.7530   30.8160   33.9260 C   0  0  2  0  0  0  0  0  0  0  0  0
   35.4210   31.6050   33.2400 H   0  0  0  0  0  0  0  0  0  0  0  0
   34.2910   28.9960   32.4160 H   0  0  0  0  0  0  0  0  0  0  0  0
   34.2760   31.6190   30.7600 H   0  0  0  0  0  0  0  0  0  0  0  0
   33.7550   30.0070   30.3130 H   0  0  0  0  0  0  0  0  0  0  0  0
   31.7840   31.3780   33.4450 H   0  0  0  0  0  0  0  0  0  0  0  0
   33.0540   32.5960   32.8330 H   0  0  0  0  0  0  0  0  0  0  0  0
   33.3490   29.7630   33.9960 H   0  0  0  0  0  0  0  0  0  0  0  0
   33.7670   31.3320   35.2480 N   0  0  1  0  0  0  0  0  0  0  0  0
   35.1050   31.6310   35.7340 C   0  0  0  0  0  3  0  0  0  0  0  0
   35.7660   32.0830   34.9950 H   0  0  0  0  0  0  0  0  0  0  0  0
   34.9900   32.5520   36.9220 C   0  0  0  0  0  3  0  0  0  0  0  0
   34.9850   33.6230   36.6560 H   0  0  0  0  0  0  0  0  0  0  0  0
   33.8390   32.2460   37.7480 N   0  0  0  0  0  0  0  0  0  0  0  0
   33.9960   31.2760   38.1340 H   0  0  0  0  0  0  0  0  0  0  0  0
   32.6110   32.3930   37.0230 C   0  0  0  0  0  2  0  0  0  0  0  0
   32.9240   32.4450   35.5210 C   0  0  0  0  0  2  0  0  0  0  0  0
  1 25  1  0  0  0  0
  1  7  1  0  0  0  0
  2 11  1  0  0  0  0
  2  3  1  0  0  0  0
  3 17  1  0  0  0  0
  4  3  2  0  0  0  0
  4 12  1  0  0  0  0
  5  4  1  0  0  0  0
  6  5  1  0  0  0  0
  6 13  1  0  0  0  0
  7  6  1  0  0  0  0
  8  7  2  0  0  0  0
  8  9  1  0  0  0  0
  9 10  1  0  0  0  0
  9  5  2  0  0  0  0
 10  2  2  0  0  0  0
 14 10  1  0  0  0  0
 15 20  1  0  0  0  0
 16 15  2  0  0  0  0
 17 16  1  0  0  0  0
 17 18  2  0  0  0  0
 18 19  1  0  0  0  0
 19 20  2  0  0  0  0
 19 23  1  0  0  0  0
 21 15  1  0  0  0  0
 22 16  1  0  0  0  0
 24 29  1  0  0  0  0
 25 31  1  1  0  0  0
 25 24  1  0  0  0  0
 26 27  1  0  0  0  0
 26 25  1  0  0  0  0
 27 28  1  0  0  0  0
 28 34  1  0  0  0  0
 28 29  1  0  0  0  0
 29 36  1  1  0  0  0
 29 37  1  0  0  0  0
 30 24  1  0  0  0  0
 32 26  1  0  0  0  0
 33 26  1  0  0  0  0
 35 28  1  0  0  0  0
 37 45  1  6  0  0  0
 37 38  1  0  0  0  0
 38 40  1  0  0  0  0
 39 38  1  0  0  0  0
 40 42  1  0  0  0  0
 41 40  1  0  0  0  0
 42 43  1  0  0  0  0
 44 42  1  0  0  0  0
 45 44  1  0  0  0  0
M  END
>  <minimizedAffinity>
-5.95422983

$$$$

 OpenBabel03272510283D

 45 49  0  0  1  0  0  0  0  0999 V2000
   35.6850   29.4310   31.4700 O   0  0  0  0  0  0  0  0  0  0  0  0
   37.4010   23.9630   32.8800 C   0  0  0  0  0  0  0  0  0  0  0  0
   36.4170   23.6320   31.9540 C   0  0  0  0  0  0  0  0  0  0  0  0
   35.6780   24.6220   31.3020 C   0  0  0  0  0  0  0  0  0  0  0  0
   35.9880   25.9330   31.6370 C   0  0  0  0  0  0  0  0  0  0  0  0
   35.4070   27.0720   31.1360 N   0  0  0  0  0  0  0  0  0  0  0  0
   36.0180   28.1030   31.7370 C   0  0  0  0  0  0  0  0  0  0  0  0
   36.9330   27.6520   32.5730 N   0  0  0  0  0  0  0  0  0  0  0  0
   36.9500   26.3090   32.5440 C   0  0  0  0  0  0  0  0  0  0  0  0
   37.6740   25.2940   33.1800 C   0  0  0  0  0  0  0  0  0  0  0  0
   37.9830   23.1930   33.3930 H   0  0  0  0  0  0  0  0  0  0  0  0
   34.9160   24.3750   30.5860 H   0  0  0  0  0  0  0  0  0  0  0  0
   34.6300   27.1030   30.4140 H   0  0  0  0  0  0  0  0  0  0  0  0
   38.4300   25.5920   33.8930 H   0  0  0  0  0  0  0  0  0  0  0  0
   36.6330   20.0810   30.7560 C   0  0  0  0  0  0  0  0  0  0  0  0
   36.9950   21.4170   30.9120 C   0  0  0  0  0  0  0  0  0  0  0  0
   36.1860   22.2270   31.6900 C   0  0  0  0  0  0  0  0  0  0  0  0
   35.0770   21.6520   32.2540 N   0  0  0  0  0  0  0  0  0  0  0  0
   34.7460   20.3600   32.0890 C   0  0  0  0  0  0  0  0  0  0  0  0
   35.5220   19.5920   31.3460 N   0  0  0  0  0  0  0  0  0  0  0  0
   37.3220   19.4990   30.1250 H   0  0  0  0  0  0  0  0  0  0  0  0
   37.8640   21.8610   30.4680 H   0  0  0  0  0  0  0  0  0  0  0  0
   33.8650   19.9510   32.5520 H   0  0  0  0  0  0  0  0  0  0  0  0
   34.2430   29.3700   33.2700 N   0  0  0  0  0  0  0  0  0  0  0  0
   34.3970   29.8460   31.9030 C   0  0  1  0  0  0  0  0  0  0  0  0
   34.2790   31.2940   31.8530 C   0  0  0  0  0  0  0  0  0  0  0  0
   32.9850   31.6530   32.2700 O   0  0  0  0  0  0  0  0  0  0  0  0
   32.6080   31.1770   33.4910 C   0  0  0  0  0  0  0  0  0  0  0  0
   32.8790   29.6890   33.6100 C   0  0  2  0  0  0  0  0  0  0  0  0
   34.8090   29.7950   33.9840 H   0  0  0  0  0  0  0  0  0  0  0  0
   33.5990   29.3650   31.3170 H   0  0  0  0  0  0  0  0  0  0  0  0
   34.9040   31.9830   32.3510 H   0  0  0  0  0  0  0  0  0  0  0  0
   34.2830   31.5910   30.7600 H   0  0  0  0  0  0  0  0  0  0  0  0
   31.5050   31.2790   33.5450 H   0  0  0  0  0  0  0  0  0  0  0  0
   33.1520   31.7770   34.2570 H   0  0  0  0  0  0  0  0  0  0  0  0
   32.2600   29.2260   32.7860 H   0  0  0  0  0  0  0  0  0  0  0  0
   32.4290   29.1140   34.8270 N   0  0  1  0  0  0  0  0  0  0  0  0
   32.6120   29.9850   35.9770 C   0  0  0  0  0  3  0  0  0  0  0  0
   32.3930   31.0350   35.7900 H   0  0  0  0  0  0  0  0  0  0  0  0
   31.7340   29.4900   37.0980 C   0  0  0  0  0  3  0  0  0  0  0  0
   30.7180   29.9220   37.0920 H   0  0  0  0  0  0  0  0  0  0  0  0
   31.6510   28.0440   37.1380 N   0  0  0  0  0  0  0  0  0  0  0  0
   32.6250   27.6930   37.3420 H   0  0  0  0  0  0  0  0  0  0  0  0
   31.0810   27.5110   35.9350 C   0  0  0  0  0  2  0  0  0  0  0  0
   31.1030   28.5980   34.8510 C   0  0  0  0  0  2  0  0  0  0  0  0
  1  7  1  0  0  0  0
  1 25  1  0  0  0  0
  2 10  1  0  0  0  0
  2 11  1  0  0  0  0
  3  2  2  0  0  0  0
  4  5  2  0  0  0  0
  4  3  1  0  0  0  0
  5  9  1  0  0  0  0
  6  5  1  0  0  0  0
  6  7  1  0  0  0  0
  7  8  2  0  0  0  0
  9  8  1  0  0  0  0
  9 10  2  0  0  0  0
 10 14  1  0  0  0  0
 12  4  1  0  0  0  0
 13  6  1  0  0  0  0
 15 16  2  0  0  0  0
 15 20  1  0  0  0  0
 16 17  1  0  0  0  0
 17  3  1  0  0  0  0
 17 18  2  0  0  0  0
 19 18  1  0  0  0  0
 19 23  1  0  0  0  0
 20 19  2  0  0  0  0
 21 15  1  0  0  0  0
 22 16  1  0  0  0  0
 24 29  1  0  0  0  0
 24 30  1  0  0  0  0
 25 31  1  6  0  0  0
 25 24  1  0  0  0  0
 26 25  1  0  0  0  0
 26 27  1  0  0  0  0
 26 32  1  0  0  0  0
 27 28  1  0  0  0  0
 28 34  1  0  0  0  0
 28 29  1  0  0  0  0
 28 35  1  0  0  0  0
 29 36  1  6  0  0  0
 29 37  1  0  0  0  0
 33 26  1  0  0  0  0
 37 45  1  6  0  0  0
 37 38  1  0  0  0  0
 38 40  1  0  0  0  0
 39 38  1  0  0  0  0
 40 42  1  0  0  0  0
 41 40  1  0  0  0  0
 42 43  1  0  0  0  0
 44 42  1  0  0  0  0
 45 44  1  0  0  0  0
M  END
>  <minimizedAffinity>
-5.83264923

$$$$
