
 OpenBabel03272508343D

 25 27  0  0  1  0  0  0  0  0999 V2000
   37.1620   30.8090   47.7530 C   0  0  0  0  0  0  0  0  0  0  0  0
   36.3960   30.3460   46.6960 C   0  0  0  0  0  0  0  0  0  0  0  0
   36.8600   30.9480   45.5340 C   0  0  0  0  0  0  0  0  0  0  0  0
   37.8740   31.7410   45.9230 N   0  0  0  0  0  0  0  0  0  0  0  0
   38.0870   31.6830   47.2630 N   0  0  0  0  0  0  0  0  0  0  0  0
   35.5770   29.6370   46.7640 H   0  0  0  0  0  0  0  0  0  0  0  0
   36.5030   30.8230   44.5430 H   0  0  0  0  0  0  0  0  0  0  0  0
   37.5260   30.1900   51.4450 C   0  0  0  0  0  0  0  0  0  0  0  0
   37.8660   30.6500   50.1730 C   0  0  0  0  0  0  0  0  0  0  0  0
   36.9500   30.3900   49.1290 C   0  0  0  0  0  0  0  0  0  0  0  0
   35.7820   29.7030   49.4220 N   0  0  0  0  0  0  0  0  0  0  0  0
   35.5310   29.2910   50.6950 C   0  0  0  0  0  0  0  0  0  0  0  0
   36.3890   29.5290   51.6930 N   0  0  0  0  0  0  0  0  0  0  0  0
   38.2370   30.3960   52.2340 H   0  0  0  0  0  0  0  0  0  0  0  0
   38.7660   31.1850   49.9210 H   0  0  0  0  0  0  0  0  0  0  0  0
   34.5800   28.7710   50.7550 H   0  0  0  0  0  0  0  0  0  0  0  0
   37.6440   33.8690   43.6770 H   0  0  0  0  0  0  0  0  0  0  0  0
   37.8550   32.8660   43.8380 N   0  0  0  0  0  0  0  0  0  0  0  0
   38.6510   32.5710   44.9850 C   0  0  2  0  0  0  0  0  0  0  0  0
   40.0020   31.9960   44.7380 C   0  0  0  0  0  0  0  0  0  0  0  0
   40.8510   32.6980   44.9810 H   0  0  0  0  0  0  0  0  0  0  0  0
   40.2640   31.5040   43.4250 N   0  0  0  0  0  0  0  0  0  0  0  0
   40.1400   30.5010   43.2710 H   0  0  0  0  0  0  0  0  0  0  0  0
   39.6450   32.2690   42.3610 C   0  0  0  0  0  0  0  0  0  0  0  0
   38.1570   32.1720   42.6430 C   0  0  0  0  0  0  0  0  0  0  0  0
  1 10  1  0  0  0  0
  2  6  1  0  0  0  0
  2  1  1  0  0  0  0
  3  4  1  0  0  0  0
  3  2  2  0  0  0  0
  4  5  1  0  0  0  0
  5  1  2  0  0  0  0
  7  3  1  0  0  0  0
  8 13  1  0  0  0  0
  8 14  1  0  0  0  0
  9  8  2  0  0  0  0
 10 11  2  0  0  0  0
 10  9  1  0  0  0  0
 11 12  1  0  0  0  0
 12 16  1  0  0  0  0
 12 13  2  0  0  0  0
 15  9  1  0  0  0  0
 17 18  1  0  0  0  0
 18 19  1  0  0  0  0
 19  4  1  1  0  0  0
 20 21  1  0  0  0  0
 20 19  1  0  0  0  0
 22 20  1  0  0  0  0
 23 22  1  0  0  0  0
 24 25  1  0  0  0  0
 24 22  1  0  0  0  0
 25 18  1  0  0  0  0
M  END
>  <minimizedAffinity>
-5.14403486

>  <minimizedRMSD>
4.09402847

$$$$
