
 OpenBabel03272510253D

 45 49  0  0  1  0  0  0  0  0999 V2000
   39.4450   33.6110   43.2870 O   0  0  0  0  0  0  0  0  0  0  0  0
   36.2450   30.1950   46.8820 C   0  0  0  0  0  0  0  0  0  0  0  0
   37.0850   30.7600   47.8380 C   0  0  0  0  0  0  0  0  0  0  0  0
   38.0710   31.6810   47.4760 C   0  0  0  0  0  0  0  0  0  0  0  0
   38.1530   31.9860   46.1240 C   0  0  0  0  0  0  0  0  0  0  0  0
   39.0320   32.8560   45.5270 N   0  0  0  0  0  0  0  0  0  0  0  0
   38.7470   32.8380   44.2170 C   0  0  0  0  0  0  0  0  0  0  0  0
   37.7500   32.0080   43.9890 N   0  0  0  0  0  0  0  0  0  0  0  0
   37.3470   31.4540   45.1450 C   0  0  0  0  0  0  0  0  0  0  0  0
   36.3690   30.5350   45.5390 C   0  0  0  0  0  0  0  0  0  0  0  0
   35.4710   29.4740   47.1590 H   0  0  0  0  0  0  0  0  0  0  0  0
   38.7240   32.1220   48.2070 H   0  0  0  0  0  0  0  0  0  0  0  0
   39.7790   33.4200   46.0260 H   0  0  0  0  0  0  0  0  0  0  0  0
   35.7360   30.1190   44.7670 H   0  0  0  0  0  0  0  0  0  0  0  0
   37.4750   30.1420   51.5200 C   0  0  0  0  0  0  0  0  0  0  0  0
   37.8020   30.5920   50.2420 C   0  0  0  0  0  0  0  0  0  0  0  0
   36.9010   30.3610   49.2170 C   0  0  0  0  0  0  0  0  0  0  0  0
   35.7440   29.7000   49.5350 N   0  0  0  0  0  0  0  0  0  0  0  0
   35.4480   29.2750   50.7750 C   0  0  0  0  0  0  0  0  0  0  0  0
   36.3110   29.4980   51.7500 N   0  0  0  0  0  0  0  0  0  0  0  0
   38.2380   30.3610   52.2820 H   0  0  0  0  0  0  0  0  0  0  0  0
   38.7100   31.1080   50.0000 H   0  0  0  0  0  0  0  0  0  0  0  0
   34.5250   28.7600   50.9790 H   0  0  0  0  0  0  0  0  0  0  0  0
   39.6440   31.8330   41.8310 N   0  0  0  0  0  0  0  0  0  0  0  0
   39.2810   33.2390   41.9260 C   0  0  1  0  0  0  0  0  0  0  0  0
   37.9060   33.4390   41.4990 C   0  0  0  0  0  0  0  0  0  0  0  0
   37.8000   33.0780   40.1450 O   0  0  0  0  0  0  0  0  0  0  0  0
   38.2250   31.8190   39.8370 C   0  0  0  0  0  0  0  0  0  0  0  0
   39.5990   31.5440   40.4190 C   0  0  2  0  0  0  0  0  0  0  0  0
   39.0380   31.1590   42.2660 H   0  0  0  0  0  0  0  0  0  0  0  0
   39.9800   33.7830   41.2710 H   0  0  0  0  0  0  0  0  0  0  0  0
   37.0520   33.0070   41.9430 H   0  0  0  0  0  0  0  0  0  0  0  0
   37.7240   34.5570   41.4770 H   0  0  0  0  0  0  0  0  0  0  0  0
   38.3610   31.7900   38.7370 H   0  0  0  0  0  0  0  0  0  0  0  0
   37.4490   31.1120   40.2120 H   0  0  0  0  0  0  0  0  0  0  0  0
   40.2640   32.3240   39.9440 H   0  0  0  0  0  0  0  0  0  0  0  0
   40.1370   30.2810   40.0620 N   0  0  1  0  0  0  0  0  0  0  0  0
   41.3200   29.9240   40.8270 C   0  0  0  0  0  3  0  0  0  0  0  0
   41.2750   30.1850   41.8840 H   0  0  0  0  0  0  0  0  0  0  0  0
   41.5480   28.4390   40.6960 C   0  0  0  0  0  3  0  0  0  0  0  0
   41.0270   27.8400   41.4630 H   0  0  0  0  0  0  0  0  0  0  0  0
   41.2120   27.9430   39.3770 N   0  0  0  0  0  0  0  0  0  0  0  0
   41.8790   28.4090   38.7040 H   0  0  0  0  0  0  0  0  0  0  0  0
   39.8280   28.1530   39.0660 C   0  0  0  0  0  2  0  0  0  0  0  0
   39.2460   29.1710   40.0560 C   0  0  0  0  0  2  0  0  0  0  0  0
  1  7  1  0  0  0  0
  2 11  1  0  0  0  0
  2  3  1  0  0  0  0
  3 17  1  0  0  0  0
  4  3  2  0  0  0  0
  4 12  1  0  0  0  0
  5  4  1  0  0  0  0
  6 13  1  0  0  0  0
  6  5  1  0  0  0  0
  7  6  1  0  0  0  0
  8  7  2  0  0  0  0
  8  9  1  0  0  0  0
  9 10  1  0  0  0  0
  9  5  2  0  0  0  0
 10  2  2  0  0  0  0
 14 10  1  0  0  0  0
 15 20  1  0  0  0  0
 15 21  1  0  0  0  0
 16 15  2  0  0  0  0
 17 18  2  0  0  0  0
 17 16  1  0  0  0  0
 18 19  1  0  0  0  0
 19 23  1  0  0  0  0
 19 20  2  0  0  0  0
 22 16  1  0  0  0  0
 24 25  1  0  0  0  0
 24 30  1  0  0  0  0
 25 31  1  6  0  0  0
 25  1  1  0  0  0  0
 26 25  1  0  0  0  0
 26 32  1  0  0  0  0
 27 26  1  0  0  0  0
 28 27  1  0  0  0  0
 28 35  1  0  0  0  0
 28 29  1  0  0  0  0
 29 36  1  6  0  0  0
 29 24  1  0  0  0  0
 33 26  1  0  0  0  0
 34 28  1  0  0  0  0
 37 45  1  1  0  0  0
 37 29  1  0  0  0  0
 37 38  1  0  0  0  0
 38 39  1  0  0  0  0
 40 38  1  0  0  0  0
 40 41  1  0  0  0  0
 42 40  1  0  0  0  0
 43 42  1  0  0  0  0
 44 42  1  0  0  0  0
 44 45  1  0  0  0  0
M  END
>  <minimizedAffinity>
-6.02430344

>  <minimizedRMSD>
0.145608693

$$$$
