
 OpenBabel03272510113D

 35 38  0  0  1  0  0  0  0  0999 V2000
   33.1590   28.3300   49.0260 C   0  0  0  0  0  0  0  0  0  0  0  0
   33.4550   28.9810   50.1700 C   0  0  0  0  0  0  0  0  0  0  0  0
   34.6910   29.5070   50.4870 C   0  0  0  0  0  0  0  0  0  0  0  0
   35.7230   29.3780   49.5980 C   0  0  0  0  0  0  0  0  0  0  0  0
   35.4220   28.7000   48.4050 C   0  0  0  0  0  0  0  0  0  0  0  0
   34.1930   28.2070   48.1500 N   0  0  0  0  0  0  0  0  0  0  0  0
   32.7050   29.1320   50.9330 H   0  0  0  0  0  0  0  0  0  0  0  0
   34.9300   30.0280   51.4030 H   0  0  0  0  0  0  0  0  0  0  0  0
   36.2030   28.5670   47.6580 H   0  0  0  0  0  0  0  0  0  0  0  0
   30.7360   27.8860   49.5570 C   0  0  0  0  0  0  0  0  0  0  0  0
   31.8730   27.7880   48.7070 C   0  0  0  0  0  0  0  0  0  0  0  0
   31.6690   27.1240   47.5230 C   0  0  0  0  0  0  0  0  0  0  0  0
   30.4350   26.6090   47.2260 N   0  0  0  0  0  0  0  0  0  0  0  0
   29.3990   26.7370   48.0780 C   0  0  0  0  0  0  0  0  0  0  0  0
   29.5420   27.3760   49.2500 N   0  0  0  0  0  0  0  0  0  0  0  0
   30.8610   28.4020   50.4980 H   0  0  0  0  0  0  0  0  0  0  0  0
   32.5020   27.0140   46.8250 H   0  0  0  0  0  0  0  0  0  0  0  0
   28.4910   26.2800   47.7100 H   0  0  0  0  0  0  0  0  0  0  0  0
   37.0290   29.8360   49.7360 O   0  0  0  0  0  0  0  0  0  0  0  0
   37.5970   30.7270   48.8300 C   0  0  0  0  0  0  0  0  0  0  0  0
   38.2110   31.8210   49.4380 C   0  0  0  0  0  0  0  0  0  0  0  0
   38.7250   32.6120   48.4120 C   0  0  0  0  0  0  0  0  0  0  0  0
   38.4190   31.9940   47.2630 N   0  0  0  0  0  0  0  0  0  0  0  0
   37.7590   30.8940   47.5190 N   0  0  0  0  0  0  0  0  0  0  0  0
   38.3660   32.1720   50.4590 H   0  0  0  0  0  0  0  0  0  0  0  0
   39.2710   33.5450   48.4430 H   0  0  0  0  0  0  0  0  0  0  0  0
   40.8060   32.5640   45.9750 H   0  0  0  0  0  0  0  0  0  0  0  0
   39.9610   33.1820   45.8580 N   0  0  0  0  0  0  0  0  0  0  0  0
   38.7320   32.4170   45.9340 C   0  0  1  0  0  3  0  0  0  0  0  0
   38.8760   31.2990   44.9370 C   0  0  0  0  0  3  0  0  0  0  0  0
   38.0980   30.5350   44.9950 H   0  0  0  0  0  0  0  0  0  0  0  0
   38.8060   31.9050   43.6270 N   0  0  0  0  0  0  0  0  0  0  0  0
   37.8270   32.0820   43.3160 H   0  0  0  0  0  0  0  0  0  0  0  0
   39.7020   32.9890   43.4120 C   0  0  0  0  0  2  0  0  0  0  0  0
   39.9890   33.8630   44.5800 C   0  0  0  0  0  2  0  0  0  0  0  0
  1  2  1  0  0  0  0
  2  3  2  0  0  0  0
  2  7  1  0  0  0  0
  3  8  1  0  0  0  0
  4 19  1  0  0  0  0
  4  3  1  0  0  0  0
  5  4  2  0  0  0  0
  6  5  1  0  0  0  0
  6  1  2  0  0  0  0
  9  5  1  0  0  0  0
 10 16  1  0  0  0  0
 11  1  1  0  0  0  0
 11 10  2  0  0  0  0
 12 11  1  0  0  0  0
 13 12  2  0  0  0  0
 13 14  1  0  0  0  0
 14 15  2  0  0  0  0
 15 10  1  0  0  0  0
 17 12  1  0  0  0  0
 18 14  1  0  0  0  0
 20 21  1  0  0  0  0
 20 19  1  0  0  0  0
 21 25  1  0  0  0  0
 22 26  1  0  0  0  0
 22 21  2  0  0  0  0
 23 24  1  0  0  0  0
 23 22  1  0  0  0  0
 24 20  2  0  0  0  0
 28 29  1  0  0  0  0
 28 27  1  0  0  0  0
 29 23  1  1  0  0  0
 30 31  1  0  0  0  0
 30 29  1  0  0  0  0
 32 30  1  0  0  0  0
 33 32  1  0  0  0  0
 34 32  1  0  0  0  0
 34 35  1  0  0  0  0
 35 28  1  0  0  0  0
M  END
>  <minimizedAffinity>
-5.60920048

>  <minimizedRMSD>
1.9469502

$$$$
