
 OpenBabel03272509523D

 43 46  0  0  0  0  0  0  0  0999 V2000
   34.4790   28.6360   48.2170 C   0  0  0  0  0  0  0  0  0  0  0  0
   33.8780   29.5790   48.2690 H   0  0  0  0  0  0  0  0  0  0  0  0
   35.3200   28.7930   47.5050 H   0  0  0  0  0  0  0  0  0  0  0  0
   33.6540   27.4760   47.7480 C   0  0  0  0  0  0  0  0  0  0  0  0
   33.7430   26.5810   48.4000 H   0  0  0  0  0  0  0  0  0  0  0  0
   33.9640   27.1380   46.7220 H   0  0  0  0  0  0  0  0  0  0  0  0
   32.2150   27.8190   47.6250 C   0  0  0  0  0  0  0  0  0  0  0  0
   31.3860   27.5760   48.7070 C   0  0  0  0  0  0  0  0  0  0  0  0
   30.0520   27.8590   48.6860 C   0  0  0  0  0  0  0  0  0  0  0  0
   29.5180   28.3870   47.5980 N   0  0  0  0  0  0  0  0  0  0  0  0
   30.3260   28.6320   46.5260 C   0  0  0  0  0  0  0  0  0  0  0  0
   31.6510   28.3620   46.5160 N   0  0  0  0  0  0  0  0  0  0  0  0
   31.8200   27.1380   49.6160 H   0  0  0  0  0  0  0  0  0  0  0  0
   29.4380   27.6540   49.5530 H   0  0  0  0  0  0  0  0  0  0  0  0
   29.7930   29.1990   45.3330 N   0  0  0  0  0  0  0  0  0  0  0  0
   29.1420   30.4950   45.2830 C   0  0  0  0  0  3  0  0  0  0  0  0
   29.7210   31.2820   45.7810 H   0  0  0  0  0  0  0  0  0  0  0  0
   28.9200   30.8120   43.8120 C   0  0  0  0  0  3  0  0  0  0  0  0
   28.0460   30.3020   43.3970 H   0  0  0  0  0  0  0  0  0  0  0  0
   30.1040   30.6060   43.0310 N   0  0  0  0  0  0  0  0  0  0  0  0
   30.7790   31.3700   43.3030 H   0  0  0  0  0  0  0  0  0  0  0  0
   30.6820   29.3030   43.1260 C   0  0  0  0  0  2  0  0  0  0  0  0
   29.8960   28.4560   44.0920 C   0  0  0  0  0  2  0  0  0  0  0  0
   35.0210   28.3670   49.5100 O   0  0  0  0  0  0  0  0  0  0  0  0
   37.3670   30.1870   51.5590 C   0  0  0  0  0  0  0  0  0  0  0  0
   38.0930   30.8790   50.5480 C   0  0  0  0  0  0  0  0  0  0  0  0
   37.7140   30.6620   49.2370 C   0  0  0  0  0  0  0  0  0  0  0  0
   36.6680   29.7970   49.0150 N   0  0  0  0  0  0  0  0  0  0  0  0
   36.0150   29.1700   49.9840 C   0  0  0  0  0  0  0  0  0  0  0  0
   36.3650   29.3630   51.2700 N   0  0  0  0  0  0  0  0  0  0  0  0
   37.7160   30.4030   52.5580 H   0  0  0  0  0  0  0  0  0  0  0  0
   38.9060   31.5500   50.7320 H   0  0  0  0  0  0  0  0  0  0  0  0
   38.9510   33.2750   49.0310 F   0  0  0  0  0  0  0  0  0  0  0  0
   38.9130   32.4860   47.9590 C   0  0  0  0  0  0  0  0  0  0  0  0
   38.3300   31.2740   48.0820 C   0  0  0  0  0  0  0  0  0  0  0  0
   38.3440   30.5270   46.8980 C   0  0  0  0  0  0  0  0  0  0  0  0
   38.8980   30.9920   45.7310 C   0  0  0  0  0  0  0  0  0  0  0  0
   39.4790   32.2400   45.6680 C   0  0  0  0  0  0  0  0  0  0  0  0
   39.4790   32.9910   46.8130 C   0  0  0  0  0  0  0  0  0  0  0  0
   37.9180   29.5350   46.8270 H   0  0  0  0  0  0  0  0  0  0  0  0
   38.9060   30.4080   44.8150 H   0  0  0  0  0  0  0  0  0  0  0  0
   39.9100   32.5910   44.7450 H   0  0  0  0  0  0  0  0  0  0  0  0
   39.9250   33.9590   46.7780 H   0  0  0  0  0  0  0  0  0  0  0  0
  1  2  1  0  0  0  0
  1 24  1  0  0  0  0
  3  1  1  0  0  0  0
  4  1  1  0  0  0  0
  4  5  1  0  0  0  0
  6  4  1  0  0  0  0
  7  4  1  0  0  0  0
  7  8  1  0  0  0  0
  8 13  1  0  0  0  0
  9  8  2  0  0  0  0
  9 14  1  0  0  0  0
 10  9  1  0  0  0  0
 11 10  2  0  0  0  0
 12 11  1  0  0  0  0
 12  7  2  0  0  0  0
 15 11  1  0  0  0  0
 16 15  1  0  0  0  0
 16 17  1  0  0  0  0
 18 16  1  0  0  0  0
 19 18  1  0  0  0  0
 20 22  1  0  0  0  0
 20 21  1  0  0  0  0
 20 18  1  0  0  0  0
 22 23  1  0  0  0  0
 23 15  1  0  0  0  0
 24 29  1  0  0  0  0
 25 31  1  0  0  0  0
 26 32  1  0  0  0  0
 26 25  2  0  0  0  0
 27 26  1  0  0  0  0
 28 27  2  0  0  0  0
 28 29  1  0  0  0  0
 29 30  2  0  0  0  0
 30 25  1  0  0  0  0
 34 35  1  0  0  0  0
 34 33  1  0  0  0  0
 35 27  1  0  0  0  0
 36 35  2  0  0  0  0
 37 36  1  0  0  0  0
 38 37  2  0  0  0  0
 38 39  1  0  0  0  0
 39 34  2  0  0  0  0
 40 36  1  0  0  0  0
 41 37  1  0  0  0  0
 42 38  1  0  0  0  0
 43 39  1  0  0  0  0
M  END
>  <minimizedAffinity>
-6.58472919

>  <minimizedRMSD>
0.406465888

$$$$
