
 OpenBabel03262523043D

 41 45  0  0  0  0  0  0  0  0999 V2000
   37.5120   31.1290   49.6280 C   0  0  0  0  0  0  0  0  0  0  0  0
   37.7540   30.6580   50.8980 C   0  0  0  0  0  0  0  0  0  0  0  0
   36.9310   29.6890   51.4120 C   0  0  0  0  0  0  0  0  0  0  0  0
   35.8980   29.2120   50.6660 N   0  0  0  0  0  0  0  0  0  0  0  0
   35.6970   29.6900   49.4480 C   0  0  0  0  0  0  0  0  0  0  0  0
   36.4880   30.6520   48.8980 N   0  0  0  0  0  0  0  0  0  0  0  0
   38.5720   31.0460   51.4720 H   0  0  0  0  0  0  0  0  0  0  0  0
   37.1360   29.3340   52.4030 H   0  0  0  0  0  0  0  0  0  0  0  0
   34.5900   29.1880   48.6340 C   0  0  0  0  0  0  0  0  0  0  0  0
   34.5250   29.3950   47.2870 C   0  0  0  0  0  0  0  0  0  0  0  0
   33.5470   28.9800   46.4100 C   0  0  0  0  0  0  0  0  0  0  0  0
   32.5180   28.2640   47.0210 C   0  0  0  0  0  0  0  0  0  0  0  0
   31.5160   27.8200   46.2170 N   0  0  0  0  0  0  0  0  0  0  0  0
   30.4810   27.1240   46.7020 C   0  0  0  0  0  0  0  0  0  0  0  0
   30.4200   26.8410   48.0540 C   0  0  0  0  0  0  0  0  0  0  0  0
   31.4390   27.2910   48.8720 C   0  0  0  0  0  0  0  0  0  0  0  0
   32.5200   28.0160   48.3820 C   0  0  0  0  0  0  0  0  0  0  0  0
   33.5380   28.4680   49.1850 C   0  0  0  0  0  0  0  0  0  0  0  0
   35.3540   29.9610   46.8570 H   0  0  0  0  0  0  0  0  0  0  0  0
   33.5890   29.1970   45.3530 H   0  0  0  0  0  0  0  0  0  0  0  0
   29.6600   26.7480   46.1160 H   0  0  0  0  0  0  0  0  0  0  0  0
   29.6060   26.2800   48.5040 H   0  0  0  0  0  0  0  0  0  0  0  0
   31.4410   27.0980   49.9330 H   0  0  0  0  0  0  0  0  0  0  0  0
   33.5170   28.2620   50.2470 H   0  0  0  0  0  0  0  0  0  0  0  0
   39.4470   34.2090   49.1150 C   0  0  0  0  0  0  0  0  0  0  0  0
   39.9480   34.0560   47.8290 C   0  0  0  0  0  0  0  0  0  0  0  0
   39.6070   32.8710   47.1380 C   0  0  0  0  0  0  0  0  0  0  0  0
   38.8190   31.9800   47.7860 N   0  0  0  0  0  0  0  0  0  0  0  0
   38.3560   32.1630   49.0280 C   0  0  0  0  0  0  0  0  0  0  0  0
   38.6820   33.2870   49.6770 N   0  0  0  0  0  0  0  0  0  0  0  0
   39.7510   35.1390   49.5790 H   0  0  0  0  0  0  0  0  0  0  0  0
   40.5730   34.7170   47.2600 H   0  0  0  0  0  0  0  0  0  0  0  0
   39.9980   32.4940   45.8210 N   0  0  0  0  0  0  0  0  0  0  0  0
   39.8840   33.3890   44.6580 C   0  0  0  0  0  0  0  0  0  0  0  0
   39.4500   34.3680   44.9280 H   0  0  0  0  0  0  0  0  0  0  0  0
   38.9240   32.7130   43.7130 C   0  0  0  0  0  0  0  0  0  0  0  0
   38.9880   33.2740   42.7380 H   0  0  0  0  0  0  0  0  0  0  0  0
   39.3250   31.3570   43.4070 N   0  0  0  0  0  0  0  0  0  0  0  0
   38.8290   30.9480   42.6120 H   0  0  0  0  0  0  0  0  0  0  0  0
   39.4990   30.5400   44.5610 C   0  0  0  0  0  0  0  0  0  0  0  0
   40.5490   31.2020   45.4630 C   0  0  0  0  0  0  0  0  0  0  0  0
  1  2  1  0  0  0  0
  2  3  2  0  0  0  0
  2  7  1  0  0  0  0
  3  8  1  0  0  0  0
  4  3  1  0  0  0  0
  5  4  2  0  0  0  0
  6  5  1  0  0  0  0
  6  1  2  0  0  0  0
  9 18  1  0  0  0  0
  9  5  1  0  0  0  0
 10  9  2  0  0  0  0
 11 12  2  0  0  0  0
 11 10  1  0  0  0  0
 12 17  1  0  0  0  0
 13 14  2  0  0  0  0
 13 12  1  0  0  0  0
 14 15  1  0  0  0  0
 15 22  1  0  0  0  0
 15 16  2  0  0  0  0
 16 23  1  0  0  0  0
 17 16  1  0  0  0  0
 17 18  2  0  0  0  0
 18 24  1  0  0  0  0
 19 10  1  0  0  0  0
 20 11  1  0  0  0  0
 21 14  1  0  0  0  0
 25 31  1  0  0  0  0
 25 30  1  0  0  0  0
 26 25  2  0  0  0  0
 27 28  2  0  0  0  0
 27 26  1  0  0  0  0
 28 29  1  0  0  0  0
 29  1  1  0  0  0  0
 29 30  2  0  0  0  0
 32 26  1  0  0  0  0
 33 27  1  0  0  0  0
 34 35  1  0  0  0  0
 34 33  1  0  0  0  0
 36 34  1  0  0  0  0
 37 36  1  0  0  0  0
 38 36  1  0  0  0  0
 38 40  1  0  0  0  0
 39 38  1  0  0  0  0
 40 41  1  0  0  0  0
 41 33  1  0  0  0  0
M  END
>  <minimizedAffinity>
-7.72186613

>  <minimizedRMSD>
0.397792846

$$$$
