
 OpenBabel03272510113D

 35 38  0  0  1  0  0  0  0  0999 V2000
   32.6880   28.1530   49.0520 C   0  0  0  0  0  0  0  0  0  0  0  0
   32.9750   29.0730   49.9960 C   0  0  0  0  0  0  0  0  0  0  0  0
   34.2460   29.4480   50.3800 C   0  0  0  0  0  0  0  0  0  0  0  0
   35.3280   28.8630   49.7790 C   0  0  0  0  0  0  0  0  0  0  0  0
   35.0370   27.9040   48.7960 C   0  0  0  0  0  0  0  0  0  0  0  0
   33.7720   27.5780   48.4620 N   0  0  0  0  0  0  0  0  0  0  0  0
   32.1870   29.5890   50.5260 H   0  0  0  0  0  0  0  0  0  0  0  0
   34.4780   30.1850   51.1370 H   0  0  0  0  0  0  0  0  0  0  0  0
   35.8570   27.4040   48.2820 H   0  0  0  0  0  0  0  0  0  0  0  0
   30.2760   27.6390   49.5690 C   0  0  0  0  0  0  0  0  0  0  0  0
   31.3650   27.7710   48.6620 C   0  0  0  0  0  0  0  0  0  0  0  0
   31.0740   27.5040   47.3480 C   0  0  0  0  0  0  0  0  0  0  0  0
   29.8050   27.1390   46.9840 N   0  0  0  0  0  0  0  0  0  0  0  0
   28.8190   27.0330   47.8940 C   0  0  0  0  0  0  0  0  0  0  0  0
   29.0470   27.2810   49.1940 N   0  0  0  0  0  0  0  0  0  0  0  0
   30.4700   27.8410   50.6120 H   0  0  0  0  0  0  0  0  0  0  0  0
   31.8670   27.5870   46.6010 H   0  0  0  0  0  0  0  0  0  0  0  0
   27.8740   26.7360   47.4610 H   0  0  0  0  0  0  0  0  0  0  0  0
   36.6750   29.1060   50.0270 O   0  0  0  0  0  0  0  0  0  0  0  0
   37.3900   30.0740   49.3290 C   0  0  0  0  0  0  0  0  0  0  0  0
   37.7850   31.1510   50.1220 C   0  0  0  0  0  0  0  0  0  0  0  0
   38.4810   32.0250   49.2890 C   0  0  0  0  0  0  0  0  0  0  0  0
   38.4860   31.4710   48.0690 N   0  0  0  0  0  0  0  0  0  0  0  0
   37.8450   30.3310   48.1040 N   0  0  0  0  0  0  0  0  0  0  0  0
   37.6790   31.4420   51.1670 H   0  0  0  0  0  0  0  0  0  0  0  0
   38.9550   32.9760   49.4970 H   0  0  0  0  0  0  0  0  0  0  0  0
   39.6640   30.2680   45.8670 H   0  0  0  0  0  0  0  0  0  0  0  0
   40.0940   31.1150   46.3210 N   0  0  0  0  0  0  0  0  0  0  0  0
   39.0780   31.9890   46.8760 C   0  0  1  0  0  0  0  0  0  0  0  0
   38.1070   32.2590   45.7590 C   0  0  0  0  0  0  0  0  0  0  0  0
   37.1910   32.7690   46.0650 H   0  0  0  0  0  0  0  0  0  0  0  0
   38.7930   33.1100   44.8150 N   0  0  0  0  0  0  0  0  0  0  0  0
   38.7800   34.1150   45.0930 H   0  0  0  0  0  0  0  0  0  0  0  0
   40.0590   32.6320   44.3750 C   0  0  0  0  0  0  0  0  0  0  0  0
   40.8710   31.8790   45.3680 C   0  0  0  0  0  0  0  0  0  0  0  0
  1  2  1  0  0  0  0
  2  3  2  0  0  0  0
  2  7  1  0  0  0  0
  3  8  1  0  0  0  0
  4 19  1  0  0  0  0
  4  3  1  0  0  0  0
  5  4  2  0  0  0  0
  6  5  1  0  0  0  0
  6  1  2  0  0  0  0
  9  5  1  0  0  0  0
 10 16  1  0  0  0  0
 11  1  1  0  0  0  0
 11 10  2  0  0  0  0
 12 11  1  0  0  0  0
 13 12  2  0  0  0  0
 13 14  1  0  0  0  0
 14 15  2  0  0  0  0
 15 10  1  0  0  0  0
 17 12  1  0  0  0  0
 18 14  1  0  0  0  0
 20 19  1  0  0  0  0
 20 21  1  0  0  0  0
 21 25  1  0  0  0  0
 22 26  1  0  0  0  0
 22 21  2  0  0  0  0
 23 24  1  0  0  0  0
 23 22  1  0  0  0  0
 24 20  2  0  0  0  0
 27 28  1  0  0  0  0
 28 29  1  0  0  0  0
 29 23  1  1  0  0  0
 30 31  1  0  0  0  0
 30 29  1  0  0  0  0
 32 33  1  0  0  0  0
 32 30  1  0  0  0  0
 34 32  1  0  0  0  0
 34 35  1  0  0  0  0
 35 28  1  0  0  0  0
M  END
>  <minimizedAffinity>
-6.24822998

>  <minimizedRMSD>
2.07325983

$$$$
