
 OpenBabel03272509523D

 43 46  0  0  0  0  0  0  0  0999 V2000
   34.3660   29.1420   47.8090 C   0  0  0  0  0  0  0  0  0  0  0  0
   33.7410   29.9310   48.3010 H   0  0  0  0  0  0  0  0  0  0  0  0
   35.0360   29.6350   47.0710 H   0  0  0  0  0  0  0  0  0  0  0  0
   33.5210   28.1270   47.1000 C   0  0  0  0  0  0  0  0  0  0  0  0
   33.9230   27.0940   47.1740 H   0  0  0  0  0  0  0  0  0  0  0  0
   33.4480   28.3490   46.0020 H   0  0  0  0  0  0  0  0  0  0  0  0
   32.1200   28.1170   47.5890 C   0  0  0  0  0  0  0  0  0  0  0  0
   31.8760   27.6710   48.8770 C   0  0  0  0  0  0  0  0  0  0  0  0
   30.6220   27.6260   49.4110 C   0  0  0  0  0  0  0  0  0  0  0  0
   29.5920   28.0220   48.6820 N   0  0  0  0  0  0  0  0  0  0  0  0
   29.8210   28.4640   47.4120 C   0  0  0  0  0  0  0  0  0  0  0  0
   31.0520   28.5200   46.8550 N   0  0  0  0  0  0  0  0  0  0  0  0
   32.7240   27.3400   49.4900 H   0  0  0  0  0  0  0  0  0  0  0  0
   30.4720   27.2710   50.4220 H   0  0  0  0  0  0  0  0  0  0  0  0
   28.7410   28.8990   46.5920 N   0  0  0  0  0  0  0  0  0  0  0  0
   28.7340   28.7870   45.1450 C   0  0  0  0  0  0  0  0  0  0  0  0
   29.0200   27.7860   44.7950 H   0  0  0  0  0  0  0  0  0  0  0  0
   27.3340   29.1590   44.6860 C   0  0  0  0  0  0  0  0  0  0  0  0
   27.1730   30.2410   44.6530 H   0  0  0  0  0  0  0  0  0  0  0  0
   26.3200   28.4740   45.4340 N   0  0  0  0  0  0  0  0  0  0  0  0
   26.3670   27.4610   45.1430 H   0  0  0  0  0  0  0  0  0  0  0  0
   26.3870   28.6380   46.8530 C   0  0  0  0  0  0  0  0  0  0  0  0
   27.5740   29.4910   47.2200 C   0  0  0  0  0  0  0  0  0  0  0  0
   35.1690   28.5090   48.8050 O   0  0  0  0  0  0  0  0  0  0  0  0
   37.2770   30.0820   51.2750 C   0  0  0  0  0  0  0  0  0  0  0  0
   38.0900   30.8890   50.4280 C   0  0  0  0  0  0  0  0  0  0  0  0
   37.8450   30.8260   49.0700 C   0  0  0  0  0  0  0  0  0  0  0  0
   36.8370   29.9900   48.6460 N   0  0  0  0  0  0  0  0  0  0  0  0
   36.1010   29.2530   49.4650 C   0  0  0  0  0  0  0  0  0  0  0  0
   36.3190   29.2960   50.7940 N   0  0  0  0  0  0  0  0  0  0  0  0
   37.5230   30.1800   52.3220 H   0  0  0  0  0  0  0  0  0  0  0  0
   38.8710   31.5360   50.7690 H   0  0  0  0  0  0  0  0  0  0  0  0
   38.8640   33.5350   49.2180 F   0  0  0  0  0  0  0  0  0  0  0  0
   39.0480   32.8290   48.1040 C   0  0  0  0  0  0  0  0  0  0  0  0
   38.5640   31.5700   48.0610 C   0  0  0  0  0  0  0  0  0  0  0  0
   38.8120   30.9190   46.8470 C   0  0  0  0  0  0  0  0  0  0  0  0
   39.4850   31.5130   45.8070 C   0  0  0  0  0  0  0  0  0  0  0  0
   39.9560   32.8030   45.9110 C   0  0  0  0  0  0  0  0  0  0  0  0
   39.7260   33.4630   47.0900 C   0  0  0  0  0  0  0  0  0  0  0  0
   38.4900   29.9050   46.6510 H   0  0  0  0  0  0  0  0  0  0  0  0
   39.6750   31.0030   44.8670 H   0  0  0  0  0  0  0  0  0  0  0  0
   40.4820   33.2560   45.0870 H   0  0  0  0  0  0  0  0  0  0  0  0
   40.0860   34.4630   47.1830 H   0  0  0  0  0  0  0  0  0  0  0  0
  1  2  1  0  0  0  0
  1 24  1  0  0  0  0
  3  1  1  0  0  0  0
  4  5  1  0  0  0  0
  4  7  1  0  0  0  0
  4  1  1  0  0  0  0
  6  4  1  0  0  0  0
  7  8  1  0  0  0  0
  8  9  2  0  0  0  0
  8 13  1  0  0  0  0
  9 14  1  0  0  0  0
 10  9  1  0  0  0  0
 11 10  2  0  0  0  0
 12 11  1  0  0  0  0
 12  7  2  0  0  0  0
 15 23  1  0  0  0  0
 15 11  1  0  0  0  0
 16 15  1  0  0  0  0
 17 16  1  0  0  0  0
 18 16  1  0  0  0  0
 18 20  1  0  0  0  0
 19 18  1  0  0  0  0
 20 22  1  0  0  0  0
 21 20  1  0  0  0  0
 22 23  1  0  0  0  0
 24 29  1  0  0  0  0
 25 31  1  0  0  0  0
 26 32  1  0  0  0  0
 26 25  2  0  0  0  0
 27 26  1  0  0  0  0
 28 27  2  0  0  0  0
 28 29  1  0  0  0  0
 29 30  2  0  0  0  0
 30 25  1  0  0  0  0
 34 33  1  0  0  0  0
 35 34  1  0  0  0  0
 35 27  1  0  0  0  0
 36 35  2  0  0  0  0
 37 38  2  0  0  0  0
 37 36  1  0  0  0  0
 38 39  1  0  0  0  0
 39 43  1  0  0  0  0
 39 34  2  0  0  0  0
 40 36  1  0  0  0  0
 41 37  1  0  0  0  0
 42 38  1  0  0  0  0
M  END
>  <minimizedAffinity>
-7.11884546

>  <minimizedRMSD>
1.08973229

$$$$
