
 OpenBabel03272509523D

 43 46  0  0  0  0  0  0  0  0999 V2000
   34.4120   28.6760   48.2480 C   0  0  0  0  0  0  0  0  0  0  0  0
   33.7820   29.5920   48.3830 H   0  0  0  0  0  0  0  0  0  0  0  0
   35.2140   28.9050   47.5120 H   0  0  0  0  0  0  0  0  0  0  0  0
   33.6060   27.5160   47.7470 C   0  0  0  0  0  0  0  0  0  0  0  0
   33.7270   26.5990   48.3630 H   0  0  0  0  0  0  0  0  0  0  0  0
   33.9080   27.2260   46.7050 H   0  0  0  0  0  0  0  0  0  0  0  0
   32.1580   27.8300   47.6600 C   0  0  0  0  0  0  0  0  0  0  0  0
   31.3620   27.5740   48.7630 C   0  0  0  0  0  0  0  0  0  0  0  0
   30.0230   27.8300   48.7750 C   0  0  0  0  0  0  0  0  0  0  0  0
   29.4500   28.3420   47.6990 N   0  0  0  0  0  0  0  0  0  0  0  0
   30.2260   28.5990   46.6060 C   0  0  0  0  0  0  0  0  0  0  0  0
   31.5550   28.3560   46.5630 N   0  0  0  0  0  0  0  0  0  0  0  0
   31.8270   27.1490   49.6620 H   0  0  0  0  0  0  0  0  0  0  0  0
   29.4340   27.6160   49.6580 H   0  0  0  0  0  0  0  0  0  0  0  0
   29.6510   29.1500   45.4240 N   0  0  0  0  0  0  0  0  0  0  0  0
   29.2550   30.5410   45.2980 C   0  0  0  0  0  3  0  0  0  0  0  0
   30.0360   31.2360   45.6300 H   0  0  0  0  0  0  0  0  0  0  0  0
   28.8990   30.7600   43.8370 C   0  0  0  0  0  3  0  0  0  0  0  0
   27.8950   30.4010   43.5880 H   0  0  0  0  0  0  0  0  0  0  0  0
   29.9030   30.2470   42.9530 N   0  0  0  0  0  0  0  0  0  0  0  0
   30.7420   30.8790   43.0530 H   0  0  0  0  0  0  0  0  0  0  0  0
   30.2340   28.8680   43.1330 C   0  0  0  0  0  2  0  0  0  0  0  0
   29.4420   28.2900   44.2750 C   0  0  0  0  0  2  0  0  0  0  0  0
   35.0200   28.3530   49.4990 O   0  0  0  0  0  0  0  0  0  0  0  0
   37.3530   30.1850   51.5510 C   0  0  0  0  0  0  0  0  0  0  0  0
   38.0810   30.8770   50.5410 C   0  0  0  0  0  0  0  0  0  0  0  0
   37.7060   30.6570   49.2290 C   0  0  0  0  0  0  0  0  0  0  0  0
   36.6640   29.7870   49.0070 N   0  0  0  0  0  0  0  0  0  0  0  0
   36.0100   29.1600   49.9740 C   0  0  0  0  0  0  0  0  0  0  0  0
   36.3550   29.3570   51.2610 N   0  0  0  0  0  0  0  0  0  0  0  0
   37.6990   30.4040   52.5510 H   0  0  0  0  0  0  0  0  0  0  0  0
   38.8900   31.5520   50.7260 H   0  0  0  0  0  0  0  0  0  0  0  0
   38.9480   33.2680   49.0260 F   0  0  0  0  0  0  0  0  0  0  0  0
   38.9080   32.4790   47.9530 C   0  0  0  0  0  0  0  0  0  0  0  0
   38.3240   31.2680   48.0750 C   0  0  0  0  0  0  0  0  0  0  0  0
   38.3380   30.5220   46.8910 C   0  0  0  0  0  0  0  0  0  0  0  0
   38.8930   30.9870   45.7240 C   0  0  0  0  0  0  0  0  0  0  0  0
   39.4750   32.2330   45.6630 C   0  0  0  0  0  0  0  0  0  0  0  0
   39.4760   32.9840   46.8080 C   0  0  0  0  0  0  0  0  0  0  0  0
   37.9110   29.5300   46.8200 H   0  0  0  0  0  0  0  0  0  0  0  0
   38.9010   30.4030   44.8080 H   0  0  0  0  0  0  0  0  0  0  0  0
   39.9080   32.5840   44.7400 H   0  0  0  0  0  0  0  0  0  0  0  0
   39.9240   33.9510   46.7730 H   0  0  0  0  0  0  0  0  0  0  0  0
  1  2  1  0  0  0  0
  1 24  1  0  0  0  0
  3  1  1  0  0  0  0
  4  1  1  0  0  0  0
  4  5  1  0  0  0  0
  6  4  1  0  0  0  0
  7  4  1  0  0  0  0
  7  8  1  0  0  0  0
  8  9  2  0  0  0  0
  8 13  1  0  0  0  0
  9 14  1  0  0  0  0
 10  9  1  0  0  0  0
 11 10  2  0  0  0  0
 12 11  1  0  0  0  0
 12  7  2  0  0  0  0
 15 11  1  0  0  0  0
 16 15  1  0  0  0  0
 16 17  1  0  0  0  0
 18 16  1  0  0  0  0
 19 18  1  0  0  0  0
 20 21  1  0  0  0  0
 20 22  1  0  0  0  0
 20 18  1  0  0  0  0
 22 23  1  0  0  0  0
 23 15  1  0  0  0  0
 24 29  1  0  0  0  0
 25 31  1  0  0  0  0
 26 32  1  0  0  0  0
 26 25  2  0  0  0  0
 27 26  1  0  0  0  0
 28 27  2  0  0  0  0
 28 29  1  0  0  0  0
 29 30  2  0  0  0  0
 30 25  1  0  0  0  0
 34 35  1  0  0  0  0
 34 33  1  0  0  0  0
 35 27  1  0  0  0  0
 36 35  2  0  0  0  0
 37 36  1  0  0  0  0
 38 37  2  0  0  0  0
 38 39  1  0  0  0  0
 39 34  2  0  0  0  0
 40 36  1  0  0  0  0
 41 37  1  0  0  0  0
 42 38  1  0  0  0  0
 43 39  1  0  0  0  0
M  END
>  <minimizedAffinity>
-6.56443405

>  <minimizedRMSD>
0.379188627

$$$$
