
 OpenBabel03272509523D

 43 46  0  0  0  0  0  0  0  0999 V2000
   34.3240   29.0060   47.8540 C   0  0  0  0  0  0  0  0  0  0  0  0
   33.7160   29.8670   48.2320 H   0  0  0  0  0  0  0  0  0  0  0  0
   35.0610   29.3920   47.1160 H   0  0  0  0  0  0  0  0  0  0  0  0
   33.4670   27.9690   47.1930 C   0  0  0  0  0  0  0  0  0  0  0  0
   33.7880   26.9280   47.4150 H   0  0  0  0  0  0  0  0  0  0  0  0
   33.4950   28.0650   46.0740 H   0  0  0  0  0  0  0  0  0  0  0  0
   32.0350   28.1020   47.5590 C   0  0  0  0  0  0  0  0  0  0  0  0
   31.6120   27.5710   48.7650 C   0  0  0  0  0  0  0  0  0  0  0  0
   30.3170   27.6460   49.1850 C   0  0  0  0  0  0  0  0  0  0  0  0
   29.4210   28.2460   48.4200 N   0  0  0  0  0  0  0  0  0  0  0  0
   29.8270   28.7730   47.2290 C   0  0  0  0  0  0  0  0  0  0  0  0
   31.1030   28.7150   46.7850 N   0  0  0  0  0  0  0  0  0  0  0  0
   32.3480   27.0710   49.4080 H   0  0  0  0  0  0  0  0  0  0  0  0
   30.0260   27.2180   50.1350 H   0  0  0  0  0  0  0  0  0  0  0  0
   28.8950   29.4280   46.3730 N   0  0  0  0  0  0  0  0  0  0  0  0
   27.5780   29.8620   46.8030 C   0  0  0  0  0  3  0  0  0  0  0  0
   27.6030   30.4270   47.7440 H   0  0  0  0  0  0  0  0  0  0  0  0
   27.0030   30.6950   45.6680 C   0  0  0  0  0  3  0  0  0  0  0  0
   26.5920   30.0820   44.8600 H   0  0  0  0  0  0  0  0  0  0  0  0
   27.9320   31.6790   45.1960 N   0  0  0  0  0  0  0  0  0  0  0  0
   28.0130   32.4040   45.9570 H   0  0  0  0  0  0  0  0  0  0  0  0
   29.2050   31.1750   44.7840 C   0  0  0  0  0  2  0  0  0  0  0  0
   29.2650   29.6830   44.9940 C   0  0  0  0  0  2  0  0  0  0  0  0
   35.0350   28.4330   48.9520 O   0  0  0  0  0  0  0  0  0  0  0  0
   37.2180   30.0340   51.3370 C   0  0  0  0  0  0  0  0  0  0  0  0
   38.0210   30.8120   50.4550 C   0  0  0  0  0  0  0  0  0  0  0  0
   37.7440   30.7220   49.1040 C   0  0  0  0  0  0  0  0  0  0  0  0
   36.7170   29.8890   48.7220 N   0  0  0  0  0  0  0  0  0  0  0  0
   35.9900   29.1800   49.5740 C   0  0  0  0  0  0  0  0  0  0  0  0
   36.2400   29.2490   50.8960 N   0  0  0  0  0  0  0  0  0  0  0  0
   37.4890   30.1520   52.3760 H   0  0  0  0  0  0  0  0  0  0  0  0
   38.8170   31.4560   50.7630 H   0  0  0  0  0  0  0  0  0  0  0  0
   38.8210   33.4120   49.1770 F   0  0  0  0  0  0  0  0  0  0  0  0
   38.9590   32.6840   48.0700 C   0  0  0  0  0  0  0  0  0  0  0  0
   38.4480   31.4340   48.0630 C   0  0  0  0  0  0  0  0  0  0  0  0
   38.6490   30.7580   46.8540 C   0  0  0  0  0  0  0  0  0  0  0  0
   39.3030   31.3210   45.7850 C   0  0  0  0  0  0  0  0  0  0  0  0
   39.8030   32.6020   45.8540 C   0  0  0  0  0  0  0  0  0  0  0  0
   39.6200   33.2860   47.0270 C   0  0  0  0  0  0  0  0  0  0  0  0
   38.3020   29.7470   46.6840 H   0  0  0  0  0  0  0  0  0  0  0  0
   39.4570   30.7910   44.8490 H   0  0  0  0  0  0  0  0  0  0  0  0
   40.3140   33.0310   45.0070 H   0  0  0  0  0  0  0  0  0  0  0  0
   40.0020   34.2800   47.0920 H   0  0  0  0  0  0  0  0  0  0  0  0
  1  2  1  0  0  0  0
  1 24  1  0  0  0  0
  3  1  1  0  0  0  0
  4  5  1  0  0  0  0
  4  7  1  0  0  0  0
  4  1  1  0  0  0  0
  6  4  1  0  0  0  0
  7  8  1  0  0  0  0
  8  9  2  0  0  0  0
  8 13  1  0  0  0  0
  9 14  1  0  0  0  0
 10  9  1  0  0  0  0
 11 10  2  0  0  0  0
 12 11  1  0  0  0  0
 12  7  2  0  0  0  0
 15 16  1  0  0  0  0
 15 11  1  0  0  0  0
 16 17  1  0  0  0  0
 18 16  1  0  0  0  0
 19 18  1  0  0  0  0
 20 18  1  0  0  0  0
 20 21  1  0  0  0  0
 22 23  1  0  0  0  0
 22 20  1  0  0  0  0
 23 15  1  0  0  0  0
 24 29  1  0  0  0  0
 25 31  1  0  0  0  0
 26 32  1  0  0  0  0
 26 25  2  0  0  0  0
 27 26  1  0  0  0  0
 28 27  2  0  0  0  0
 28 29  1  0  0  0  0
 29 30  2  0  0  0  0
 30 25  1  0  0  0  0
 34 33  1  0  0  0  0
 35 34  1  0  0  0  0
 35 27  1  0  0  0  0
 36 35  2  0  0  0  0
 37 38  2  0  0  0  0
 37 36  1  0  0  0  0
 38 39  1  0  0  0  0
 39 43  1  0  0  0  0
 39 34  2  0  0  0  0
 40 36  1  0  0  0  0
 41 37  1  0  0  0  0
 42 38  1  0  0  0  0
M  END
>  <minimizedAffinity>
-7.08814049

>  <minimizedRMSD>
0.735993743

$$$$
