
 OpenBabel03272509523D

 43 46  0  0  0  0  0  0  0  0999 V2000
   34.4610   28.6290   48.1960 C   0  0  0  0  0  0  0  0  0  0  0  0
   33.8880   29.5880   48.2580 H   0  0  0  0  0  0  0  0  0  0  0  0
   35.2930   28.7620   47.4700 H   0  0  0  0  0  0  0  0  0  0  0  0
   33.5950   27.4920   47.7430 C   0  0  0  0  0  0  0  0  0  0  0  0
   33.7200   26.5740   48.3560 H   0  0  0  0  0  0  0  0  0  0  0  0
   33.8340   27.1900   46.6880 H   0  0  0  0  0  0  0  0  0  0  0  0
   32.1550   27.8510   47.7280 C   0  0  0  0  0  0  0  0  0  0  0  0
   31.3950   27.5630   48.8500 C   0  0  0  0  0  0  0  0  0  0  0  0
   30.0650   27.8560   48.9270 C   0  0  0  0  0  0  0  0  0  0  0  0
   29.4670   28.4360   47.9010 N   0  0  0  0  0  0  0  0  0  0  0  0
   30.2070   28.7240   46.7910 C   0  0  0  0  0  0  0  0  0  0  0  0
   31.5260   28.4470   46.6830 N   0  0  0  0  0  0  0  0  0  0  0  0
   31.8810   27.0820   49.7080 H   0  0  0  0  0  0  0  0  0  0  0  0
   29.5050   27.6150   49.8210 H   0  0  0  0  0  0  0  0  0  0  0  0
   29.6040   29.3480   45.6610 N   0  0  0  0  0  0  0  0  0  0  0  0
   30.0250   30.6330   45.1340 C   0  0  0  0  0  3  0  0  0  0  0  0
   31.1120   30.7010   44.9960 H   0  0  0  0  0  0  0  0  0  0  0  0
   29.2830   30.8290   43.8220 C   0  0  0  0  0  3  0  0  0  0  0  0
   28.2520   31.1700   43.9650 H   0  0  0  0  0  0  0  0  0  0  0  0
   29.3700   29.6750   42.9750 N   0  0  0  0  0  0  0  0  0  0  0  0
   30.3670   29.6260   42.6380 H   0  0  0  0  0  0  0  0  0  0  0  0
   28.9290   28.4490   43.5620 C   0  0  0  0  0  2  0  0  0  0  0  0
   28.5060   28.6780   44.9890 C   0  0  0  0  0  2  0  0  0  0  0  0
   35.0170   28.3460   49.4800 O   0  0  0  0  0  0  0  0  0  0  0  0
   37.3410   30.1810   51.5420 C   0  0  0  0  0  0  0  0  0  0  0  0
   38.0710   30.8740   50.5340 C   0  0  0  0  0  0  0  0  0  0  0  0
   37.7020   30.6530   49.2210 C   0  0  0  0  0  0  0  0  0  0  0  0
   36.6610   29.7820   48.9940 N   0  0  0  0  0  0  0  0  0  0  0  0
   36.0040   29.1540   49.9590 C   0  0  0  0  0  0  0  0  0  0  0  0
   36.3450   29.3520   51.2470 N   0  0  0  0  0  0  0  0  0  0  0  0
   37.6820   30.4000   52.5430 H   0  0  0  0  0  0  0  0  0  0  0  0
   38.8790   31.5490   50.7220 H   0  0  0  0  0  0  0  0  0  0  0  0
   38.9470   33.2620   49.0240 F   0  0  0  0  0  0  0  0  0  0  0  0
   38.9090   32.4750   47.9500 C   0  0  0  0  0  0  0  0  0  0  0  0
   38.3240   31.2650   48.0690 C   0  0  0  0  0  0  0  0  0  0  0  0
   38.3390   30.5200   46.8840 C   0  0  0  0  0  0  0  0  0  0  0  0
   38.8980   30.9860   45.7190 C   0  0  0  0  0  0  0  0  0  0  0  0
   39.4820   32.2320   45.6600 C   0  0  0  0  0  0  0  0  0  0  0  0
   39.4810   32.9810   46.8070 C   0  0  0  0  0  0  0  0  0  0  0  0
   37.9110   29.5300   46.8100 H   0  0  0  0  0  0  0  0  0  0  0  0
   38.9070   30.4040   44.8020 H   0  0  0  0  0  0  0  0  0  0  0  0
   39.9170   32.5840   44.7390 H   0  0  0  0  0  0  0  0  0  0  0  0
   39.9300   33.9480   46.7750 H   0  0  0  0  0  0  0  0  0  0  0  0
  1  2  1  0  0  0  0
  1 24  1  0  0  0  0
  3  1  1  0  0  0  0
  4  1  1  0  0  0  0
  4  5  1  0  0  0  0
  6  4  1  0  0  0  0
  7  4  1  0  0  0  0
  7  8  1  0  0  0  0
  8  9  2  0  0  0  0
  8 13  1  0  0  0  0
  9 14  1  0  0  0  0
 10  9  1  0  0  0  0
 11 10  2  0  0  0  0
 12 11  1  0  0  0  0
 12  7  2  0  0  0  0
 15 11  1  0  0  0  0
 16 15  1  0  0  0  0
 17 16  1  0  0  0  0
 18 19  1  0  0  0  0
 18 16  1  0  0  0  0
 20 22  1  0  0  0  0
 20 18  1  0  0  0  0
 21 20  1  0  0  0  0
 22 23  1  0  0  0  0
 23 15  1  0  0  0  0
 24 29  1  0  0  0  0
 25 31  1  0  0  0  0
 26 32  1  0  0  0  0
 26 25  2  0  0  0  0
 27 26  1  0  0  0  0
 28 27  2  0  0  0  0
 28 29  1  0  0  0  0
 29 30  2  0  0  0  0
 30 25  1  0  0  0  0
 34 35  1  0  0  0  0
 34 33  1  0  0  0  0
 35 27  1  0  0  0  0
 36 35  2  0  0  0  0
 37 36  1  0  0  0  0
 38 37  2  0  0  0  0
 38 39  1  0  0  0  0
 39 34  2  0  0  0  0
 40 36  1  0  0  0  0
 41 37  1  0  0  0  0
 42 38  1  0  0  0  0
 43 39  1  0  0  0  0
M  END
>  <minimizedAffinity>
-6.68130541

>  <minimizedRMSD>
0.203640372

$$$$
