
 OpenBabel03272509523D

 43 46  0  0  0  0  0  0  0  0999 V2000
   34.4460   28.6620   48.1650 C   0  0  0  0  0  0  0  0  0  0  0  0
   33.8860   29.6270   48.2490 H   0  0  0  0  0  0  0  0  0  0  0  0
   35.2690   28.7960   47.4290 H   0  0  0  0  0  0  0  0  0  0  0  0
   33.5590   27.5430   47.7070 C   0  0  0  0  0  0  0  0  0  0  0  0
   33.6910   26.6100   48.2950 H   0  0  0  0  0  0  0  0  0  0  0  0
   33.7680   27.2640   46.6400 H   0  0  0  0  0  0  0  0  0  0  0  0
   32.1220   27.9130   47.7370 C   0  0  0  0  0  0  0  0  0  0  0  0
   31.3610   27.5090   48.8210 C   0  0  0  0  0  0  0  0  0  0  0  0
   30.0350   27.8020   48.9360 C   0  0  0  0  0  0  0  0  0  0  0  0
   29.4400   28.4990   47.9820 N   0  0  0  0  0  0  0  0  0  0  0  0
   30.1800   28.9030   46.9090 C   0  0  0  0  0  0  0  0  0  0  0  0
   31.4960   28.6280   46.7670 N   0  0  0  0  0  0  0  0  0  0  0  0
   31.8460   26.9300   49.6190 H   0  0  0  0  0  0  0  0  0  0  0  0
   29.4740   27.4680   49.7990 H   0  0  0  0  0  0  0  0  0  0  0  0
   29.5800   29.6550   45.8590 N   0  0  0  0  0  0  0  0  0  0  0  0
   28.1810   30.0400   45.8450 C   0  0  0  0  0  3  0  0  0  0  0  0
   27.8540   30.4920   46.7920 H   0  0  0  0  0  0  0  0  0  0  0  0
   28.0050   31.0000   44.6800 C   0  0  0  0  0  3  0  0  0  0  0  0
   27.9250   30.4860   43.7170 H   0  0  0  0  0  0  0  0  0  0  0  0
   29.0020   32.0300   44.6730 N   0  0  0  0  0  0  0  0  0  0  0  0
   28.7850   32.6620   45.4890 H   0  0  0  0  0  0  0  0  0  0  0  0
   30.3570   31.5730   44.6800 C   0  0  0  0  0  2  0  0  0  0  0  0
   30.3960   30.0680   44.7340 C   0  0  0  0  0  2  0  0  0  0  0  0
   35.0160   28.3520   49.4360 O   0  0  0  0  0  0  0  0  0  0  0  0
   37.3760   30.1400   51.4980 C   0  0  0  0  0  0  0  0  0  0  0  0
   38.1090   30.8330   50.4920 C   0  0  0  0  0  0  0  0  0  0  0  0
   37.7280   30.6280   49.1790 C   0  0  0  0  0  0  0  0  0  0  0  0
   36.6750   29.7720   48.9520 N   0  0  0  0  0  0  0  0  0  0  0  0
   36.0160   29.1440   49.9160 C   0  0  0  0  0  0  0  0  0  0  0  0
   36.3680   29.3260   51.2030 N   0  0  0  0  0  0  0  0  0  0  0  0
   37.7260   30.3460   52.4990 H   0  0  0  0  0  0  0  0  0  0  0  0
   38.9260   31.4970   50.6800 H   0  0  0  0  0  0  0  0  0  0  0  0
   38.9650   33.2420   48.9850 F   0  0  0  0  0  0  0  0  0  0  0  0
   38.9320   32.4550   47.9110 C   0  0  0  0  0  0  0  0  0  0  0  0
   38.3500   31.2420   48.0280 C   0  0  0  0  0  0  0  0  0  0  0  0
   38.3700   30.4980   46.8430 C   0  0  0  0  0  0  0  0  0  0  0  0
   38.9290   30.9660   45.6790 C   0  0  0  0  0  0  0  0  0  0  0  0
   39.5090   32.2140   45.6220 C   0  0  0  0  0  0  0  0  0  0  0  0
   39.5040   32.9620   46.7690 C   0  0  0  0  0  0  0  0  0  0  0  0
   37.9450   29.5060   46.7690 H   0  0  0  0  0  0  0  0  0  0  0  0
   38.9420   30.3830   44.7630 H   0  0  0  0  0  0  0  0  0  0  0  0
   39.9450   32.5670   44.7020 H   0  0  0  0  0  0  0  0  0  0  0  0
   39.9490   33.9310   46.7370 H   0  0  0  0  0  0  0  0  0  0  0  0
  1  2  1  0  0  0  0
  1 24  1  0  0  0  0
  3  1  1  0  0  0  0
  4  7  1  0  0  0  0
  4  1  1  0  0  0  0
  4  5  1  0  0  0  0
  6  4  1  0  0  0  0
  7  8  1  0  0  0  0
  8  9  2  0  0  0  0
  8 13  1  0  0  0  0
  9 14  1  0  0  0  0
 10  9  1  0  0  0  0
 11 10  2  0  0  0  0
 12 11  1  0  0  0  0
 12  7  2  0  0  0  0
 15 11  1  0  0  0  0
 16 15  1  0  0  0  0
 16 17  1  0  0  0  0
 18 16  1  0  0  0  0
 19 18  1  0  0  0  0
 20 22  1  0  0  0  0
 20 18  1  0  0  0  0
 20 21  1  0  0  0  0
 22 23  1  0  0  0  0
 23 15  1  0  0  0  0
 24 29  1  0  0  0  0
 25 31  1  0  0  0  0
 26 32  1  0  0  0  0
 26 25  2  0  0  0  0
 27 26  1  0  0  0  0
 28 27  2  0  0  0  0
 28 29  1  0  0  0  0
 29 30  2  0  0  0  0
 30 25  1  0  0  0  0
 34 35  1  0  0  0  0
 34 33  1  0  0  0  0
 35 27  1  0  0  0  0
 36 35  2  0  0  0  0
 37 36  1  0  0  0  0
 38 37  2  0  0  0  0
 38 39  1  0  0  0  0
 39 34  2  0  0  0  0
 40 36  1  0  0  0  0
 41 37  1  0  0  0  0
 42 38  1  0  0  0  0
 43 39  1  0  0  0  0
M  END
>  <minimizedAffinity>
-6.97039843

>  <minimizedRMSD>
0.082900092

$$$$
