
 OpenBabel03262522123D

 30 32  0  0  1  0  0  0  0  0999 V2000
   37.1410   24.7140   32.2370 C   0  0  0  0  0  0  0  0  0  0  0  0
   36.2430   24.0100   31.4310 C   0  0  0  0  0  0  0  0  0  0  0  0
   35.9990   22.6590   31.6680 C   0  0  0  0  0  0  0  0  0  0  0  0
   36.6950   22.1020   32.7280 C   0  0  0  0  0  0  0  0  0  0  0  0
   37.5700   22.8150   33.5030 C   0  0  0  0  0  0  0  0  0  0  0  0
   37.7990   24.1270   33.2610 N   0  0  0  0  0  0  0  0  0  0  0  0
   35.7270   24.5090   30.6120 H   0  0  0  0  0  0  0  0  0  0  0  0
   35.3110   22.0800   31.0660 H   0  0  0  0  0  0  0  0  0  0  0  0
   36.5200   21.0540   32.9270 H   0  0  0  0  0  0  0  0  0  0  0  0
   37.3200   26.1090   31.9050 C   0  0  0  0  0  0  0  0  0  0  0  0
   38.0880   26.4360   30.9850 O   0  0  0  0  0  0  0  0  0  0  0  0
   35.6440   27.9090   31.9100 C   0  0  0  0  0  0  0  0  0  0  0  0
   36.6430   27.1870   32.5920 C   0  0  0  0  0  0  0  0  0  0  0  0
   36.9170   27.5640   33.9050 C   0  0  0  0  0  0  0  0  0  0  0  0
   36.2270   28.5920   34.4690 N   0  0  0  0  0  0  0  0  0  0  0  0
   35.2700   29.2620   33.7750 C   0  0  0  0  0  0  0  0  0  0  0  0
   34.9940   28.9220   32.5320 N   0  0  0  0  0  0  0  0  0  0  0  0
   35.4400   27.6020   30.8790 H   0  0  0  0  0  0  0  0  0  0  0  0
   37.6860   26.9960   34.4100 H   0  0  0  0  0  0  0  0  0  0  0  0
   34.7430   30.0740   34.2620 H   0  0  0  0  0  0  0  0  0  0  0  0
   38.4660   22.0740   34.8770 S   0  0  0  0  0  0  0  0  0  0  0  0
   37.5190   24.4070   35.5150 H   0  0  0  0  0  0  0  0  0  0  0  0
   38.2350   24.3080   36.2700 N   0  0  0  0  0  0  0  0  0  0  0  0
   39.2650   23.4420   35.7460 C   0  0  1  0  0  3  0  0  0  0  0  0
   40.2260   23.0080   36.8030 C   0  0  0  0  0  3  0  0  0  0  0  0
   40.9950   22.3490   36.3610 H   0  0  0  0  0  0  0  0  0  0  0  0
   39.6370   22.4620   37.9850 N   0  0  0  0  0  0  0  0  0  0  0  0
   40.4110   22.4400   38.7140 H   0  0  0  0  0  0  0  0  0  0  0  0
   38.6620   23.4030   38.4810 C   0  0  0  0  0  2  0  0  0  0  0  0
   37.6240   23.6860   37.4070 C   0  0  0  0  0  2  0  0  0  0  0  0
  1  6  1  0  0  0  0
  2  3  1  0  0  0  0
  2  1  2  0  0  0  0
  3  4  2  0  0  0  0
  4  9  1  0  0  0  0
  4  5  1  0  0  0  0
  5 21  1  0  0  0  0
  6  5  2  0  0  0  0
  7  2  1  0  0  0  0
  8  3  1  0  0  0  0
 10  1  1  0  0  0  0
 10 13  1  0  0  0  0
 11 10  2  0  0  0  0
 12 17  2  0  0  0  0
 12 13  1  0  0  0  0
 13 14  2  0  0  0  0
 14 19  1  0  0  0  0
 14 15  1  0  0  0  0
 16 20  1  0  0  0  0
 16 15  2  0  0  0  0
 17 16  1  0  0  0  0
 18 12  1  0  0  0  0
 22 23  1  0  0  0  0
 23 30  1  0  0  0  0
 24 21  1  1  0  0  0
 24 23  1  0  0  0  0
 24 25  1  0  0  0  0
 25 27  1  0  0  0  0
 26 25  1  0  0  0  0
 27 29  1  0  0  0  0
 27 28  1  0  0  0  0
 30 29  1  0  0  0  0
M  END
>  <minimizedAffinity>
-5.32708263

$$$$

 OpenBabel03262522123D

 30 32  0  0  1  0  0  0  0  0999 V2000
   37.0910   25.1160   32.4700 C   0  0  0  0  0  0  0  0  0  0  0  0
   36.2580   24.4690   31.5550 C   0  0  0  0  0  0  0  0  0  0  0  0
   36.0990   23.0850   31.6090 C   0  0  0  0  0  0  0  0  0  0  0  0
   36.8090   22.4390   32.6070 C   0  0  0  0  0  0  0  0  0  0  0  0
   37.6200   23.0990   33.4920 C   0  0  0  0  0  0  0  0  0  0  0  0
   37.7660   24.4430   33.4280 N   0  0  0  0  0  0  0  0  0  0  0  0
   35.7270   25.0370   30.7930 H   0  0  0  0  0  0  0  0  0  0  0  0
   35.4620   22.5480   30.9180 H   0  0  0  0  0  0  0  0  0  0  0  0
   36.6990   21.3650   32.6640 H   0  0  0  0  0  0  0  0  0  0  0  0
   37.1840   26.5510   32.3270 C   0  0  0  0  0  0  0  0  0  0  0  0
   36.9000   27.2920   33.2820 O   0  0  0  0  0  0  0  0  0  0  0  0
   36.7060   28.0810   30.4620 C   0  0  0  0  0  0  0  0  0  0  0  0
   37.6020   27.2060   31.1070 C   0  0  0  0  0  0  0  0  0  0  0  0
   38.8520   27.0260   30.5170 C   0  0  0  0  0  0  0  0  0  0  0  0
   39.1560   27.6860   29.3670 N   0  0  0  0  0  0  0  0  0  0  0  0
   38.2610   28.5230   28.7780 C   0  0  0  0  0  0  0  0  0  0  0  0
   37.0730   28.7080   29.3180 N   0  0  0  0  0  0  0  0  0  0  0  0
   35.7280   28.2120   30.9360 H   0  0  0  0  0  0  0  0  0  0  0  0
   39.5240   26.3520   31.0280 H   0  0  0  0  0  0  0  0  0  0  0  0
   38.5430   29.0300   27.8630 H   0  0  0  0  0  0  0  0  0  0  0  0
   38.5350   22.2420   34.7840 S   0  0  0  0  0  0  0  0  0  0  0  0
   37.6500   24.5640   35.5410 H   0  0  0  0  0  0  0  0  0  0  0  0
   38.3470   24.3970   36.3020 N   0  0  0  0  0  0  0  0  0  0  0  0
   39.3590   23.5290   35.7470 C   0  0  1  0  0  3  0  0  0  0  0  0
   40.2830   23.0020   36.7940 C   0  0  0  0  0  3  0  0  0  0  0  0
   41.0400   22.3450   36.3300 H   0  0  0  0  0  0  0  0  0  0  0  0
   39.6520   22.4080   37.9310 N   0  0  0  0  0  0  0  0  0  0  0  0
   40.4100   22.3170   38.6720 H   0  0  0  0  0  0  0  0  0  0  0  0
   38.6980   23.3500   38.4630 C   0  0  0  0  0  2  0  0  0  0  0  0
   37.6930   23.7310   37.3880 C   0  0  0  0  0  2  0  0  0  0  0  0
  1  6  1  0  0  0  0
  2  3  1  0  0  0  0
  2  1  2  0  0  0  0
  3  4  2  0  0  0  0
  4  9  1  0  0  0  0
  4  5  1  0  0  0  0
  5 21  1  0  0  0  0
  6  5  2  0  0  0  0
  7  2  1  0  0  0  0
  8  3  1  0  0  0  0
 10  1  1  0  0  0  0
 10 11  2  0  0  0  0
 12 18  1  0  0  0  0
 12 13  1  0  0  0  0
 13 10  1  0  0  0  0
 14 19  1  0  0  0  0
 14 13  2  0  0  0  0
 15 14  1  0  0  0  0
 16 17  1  0  0  0  0
 16 15  2  0  0  0  0
 17 12  2  0  0  0  0
 20 16  1  0  0  0  0
 22 23  1  0  0  0  0
 23 30  1  0  0  0  0
 24 21  1  1  0  0  0
 24 23  1  0  0  0  0
 24 25  1  0  0  0  0
 25 27  1  0  0  0  0
 26 25  1  0  0  0  0
 27 29  1  0  0  0  0
 27 28  1  0  0  0  0
 30 29  1  0  0  0  0
M  END
>  <minimizedAffinity>
-5.1568079

$$$$

 OpenBabel03262522123D

 30 32  0  0  1  0  0  0  0  0999 V2000
   38.2640   25.1080   35.3390 C   0  0  0  0  0  0  0  0  0  0  0  0
   38.0620   24.7730   36.6800 C   0  0  0  0  0  0  0  0  0  0  0  0
   37.8330   23.4480   37.0440 C   0  0  0  0  0  0  0  0  0  0  0  0
   37.8240   22.5330   36.0040 C   0  0  0  0  0  0  0  0  0  0  0  0
   38.0240   22.8890   34.6960 C   0  0  0  0  0  0  0  0  0  0  0  0
   38.2450   24.1810   34.3560 N   0  0  0  0  0  0  0  0  0  0  0  0
   38.0820   25.5420   37.4510 H   0  0  0  0  0  0  0  0  0  0  0  0
   37.6730   23.1490   38.0720 H   0  0  0  0  0  0  0  0  0  0  0  0
   37.6460   21.5000   36.2660 H   0  0  0  0  0  0  0  0  0  0  0  0
   38.4930   26.5100   35.0710 C   0  0  0  0  0  0  0  0  0  0  0  0
   39.3730   27.1260   35.6940 O   0  0  0  0  0  0  0  0  0  0  0  0
   38.1990   27.3020   32.7620 C   0  0  0  0  0  0  0  0  0  0  0  0
   37.7450   27.2690   34.0940 C   0  0  0  0  0  0  0  0  0  0  0  0
   36.5840   27.9820   34.3890 C   0  0  0  0  0  0  0  0  0  0  0  0
   35.9460   28.6680   33.4020 N   0  0  0  0  0  0  0  0  0  0  0  0
   36.4190   28.6720   32.1280 C   0  0  0  0  0  0  0  0  0  0  0  0
   37.5150   28.0050   31.8270 N   0  0  0  0  0  0  0  0  0  0  0  0
   39.1130   26.7380   32.5460 H   0  0  0  0  0  0  0  0  0  0  0  0
   36.2510   27.9430   35.4170 H   0  0  0  0  0  0  0  0  0  0  0  0
   35.8810   29.2310   31.3720 H   0  0  0  0  0  0  0  0  0  0  0  0
   38.0090   21.6870   33.3570 S   0  0  0  0  0  0  0  0  0  0  0  0
   37.2070   22.0830   30.9180 H   0  0  0  0  0  0  0  0  0  0  0  0
   36.4110   21.4990   31.2600 N   0  0  0  0  0  0  0  0  0  0  0  0
   36.3310   21.7110   32.6860 C   0  0  1  0  0  3  0  0  0  0  0  0
   35.4020   20.7470   33.3470 C   0  0  0  0  0  3  0  0  0  0  0  0
   35.3700   20.9430   34.4340 H   0  0  0  0  0  0  0  0  0  0  0  0
   35.6200   19.3690   33.0350 N   0  0  0  0  0  0  0  0  0  0  0  0
   34.7510   18.8530   33.3680 H   0  0  0  0  0  0  0  0  0  0  0  0
   35.6320   19.2260   31.6000 C   0  0  0  0  0  2  0  0  0  0  0  0
   36.7040   20.1220   31.0000 C   0  0  0  0  0  2  0  0  0  0  0  0
  1  2  1  0  0  0  0
  2  3  2  0  0  0  0
  2  7  1  0  0  0  0
  3  8  1  0  0  0  0
  4  9  1  0  0  0  0
  4  3  1  0  0  0  0
  5  4  2  0  0  0  0
  6  5  1  0  0  0  0
  6  1  2  0  0  0  0
 10  1  1  0  0  0  0
 10 11  2  0  0  0  0
 12 13  1  0  0  0  0
 13 14  2  0  0  0  0
 13 10  1  0  0  0  0
 14 19  1  0  0  0  0
 15 14  1  0  0  0  0
 16 15  2  0  0  0  0
 17 16  1  0  0  0  0
 17 12  2  0  0  0  0
 18 12  1  0  0  0  0
 20 16  1  0  0  0  0
 21  5  1  0  0  0  0
 22 23  1  0  0  0  0
 23 24  1  0  0  0  0
 24 25  1  0  0  0  0
 24 21  1  1  0  0  0
 25 26  1  0  0  0  0
 27 25  1  0  0  0  0
 27 28  1  0  0  0  0
 29 27  1  0  0  0  0
 30 23  1  0  0  0  0
 30 29  1  0  0  0  0
M  END
>  <minimizedAffinity>
-5.02711916

$$$$

 OpenBabel03262522123D

 30 32  0  0  1  0  0  0  0  0999 V2000
   38.0120   24.1600   33.4780 C   0  0  0  0  0  0  0  0  0  0  0  0
   37.6400   22.8480   33.1750 C   0  0  0  0  0  0  0  0  0  0  0  0
   36.6380   22.6020   32.2380 C   0  0  0  0  0  0  0  0  0  0  0  0
   36.0700   23.7250   31.6600 C   0  0  0  0  0  0  0  0  0  0  0  0
   36.4540   25.0020   31.9750 C   0  0  0  0  0  0  0  0  0  0  0  0
   37.4280   25.2260   32.8880 N   0  0  0  0  0  0  0  0  0  0  0  0
   38.1280   22.0070   33.6670 H   0  0  0  0  0  0  0  0  0  0  0  0
   36.3230   21.6000   31.9770 H   0  0  0  0  0  0  0  0  0  0  0  0
   35.2910   23.5550   30.9310 H   0  0  0  0  0  0  0  0  0  0  0  0
   39.0610   24.3020   34.4620 C   0  0  0  0  0  0  0  0  0  0  0  0
   40.1890   24.6910   34.1180 O   0  0  0  0  0  0  0  0  0  0  0  0
   39.8040   23.1720   36.5160 C   0  0  0  0  0  0  0  0  0  0  0  0
   38.8810   24.0150   35.8680 C   0  0  0  0  0  0  0  0  0  0  0  0
   37.8370   24.5270   36.6370 C   0  0  0  0  0  0  0  0  0  0  0  0
   37.7490   24.2010   37.9560 N   0  0  0  0  0  0  0  0  0  0  0  0
   38.6630   23.3830   38.5410 C   0  0  0  0  0  0  0  0  0  0  0  0
   39.6580   22.8880   37.8330 N   0  0  0  0  0  0  0  0  0  0  0  0
   40.6180   22.7770   35.8980 H   0  0  0  0  0  0  0  0  0  0  0  0
   37.1400   25.1730   36.1220 H   0  0  0  0  0  0  0  0  0  0  0  0
   38.5570   23.1490   39.5940 H   0  0  0  0  0  0  0  0  0  0  0  0
   35.7050   26.4500   31.2130 S   0  0  0  0  0  0  0  0  0  0  0  0
   38.2550   26.8820   31.4540 H   0  0  0  0  0  0  0  0  0  0  0  0
   37.9240   27.8720   31.4010 N   0  0  0  0  0  0  0  0  0  0  0  0
   36.5700   27.8780   31.9020 C   0  0  1  0  0  3  0  0  0  0  0  0
   35.8840   29.1800   31.6490 C   0  0  0  0  0  3  0  0  0  0  0  0
   34.8530   29.1430   32.0460 H   0  0  0  0  0  0  0  0  0  0  0  0
   35.9460   29.6590   30.3040 N   0  0  0  0  0  0  0  0  0  0  0  0
   35.6440   30.6780   30.3410 H   0  0  0  0  0  0  0  0  0  0  0  0
   37.3280   29.6770   29.8920 C   0  0  0  0  0  2  0  0  0  0  0  0
   37.9270   28.2860   30.0300 C   0  0  0  0  0  2  0  0  0  0  0  0
  1 10  1  0  0  0  0
  2  1  1  0  0  0  0
  2  7  1  0  0  0  0
  3  2  2  0  0  0  0
  4  5  2  0  0  0  0
  4  3  1  0  0  0  0
  5  6  1  0  0  0  0
  6  1  2  0  0  0  0
  8  3  1  0  0  0  0
  9  4  1  0  0  0  0
 10 13  1  0  0  0  0
 11 10  2  0  0  0  0
 12 17  1  0  0  0  0
 13 12  2  0  0  0  0
 13 14  1  0  0  0  0
 14 15  2  0  0  0  0
 15 16  1  0  0  0  0
 16 20  1  0  0  0  0
 17 16  2  0  0  0  0
 18 12  1  0  0  0  0
 19 14  1  0  0  0  0
 21  5  1  0  0  0  0
 23 22  1  0  0  0  0
 23 24  1  0  0  0  0
 24 21  1  6  0  0  0
 25 24  1  0  0  0  0
 25 26  1  0  0  0  0
 27 28  1  0  0  0  0
 27 25  1  0  0  0  0
 29 30  1  0  0  0  0
 29 27  1  0  0  0  0
 30 23  1  0  0  0  0
M  END
>  <minimizedAffinity>
-5.01440191

$$$$

 OpenBabel03262522123D

 30 32  0  0  1  0  0  0  0  0999 V2000
   37.4390   25.4350   32.4890 C   0  0  0  0  0  0  0  0  0  0  0  0
   38.2610   26.4300   31.9580 C   0  0  0  0  0  0  0  0  0  0  0  0
   39.1080   27.1590   32.7910 C   0  0  0  0  0  0  0  0  0  0  0  0
   39.0640   26.8190   34.1340 C   0  0  0  0  0  0  0  0  0  0  0  0
   38.2480   25.8370   34.6280 C   0  0  0  0  0  0  0  0  0  0  0  0
   37.4290   25.1390   33.8080 N   0  0  0  0  0  0  0  0  0  0  0  0
   38.2480   26.6480   30.8910 H   0  0  0  0  0  0  0  0  0  0  0  0
   39.7600   27.9370   32.4170 H   0  0  0  0  0  0  0  0  0  0  0  0
   39.7140   27.3730   34.7960 H   0  0  0  0  0  0  0  0  0  0  0  0
   36.6000   24.7410   31.5370 C   0  0  0  0  0  0  0  0  0  0  0  0
   35.7460   25.3670   30.8890 O   0  0  0  0  0  0  0  0  0  0  0  0
   35.5660   22.5100   31.5250 C   0  0  0  0  0  0  0  0  0  0  0  0
   36.6910   23.3210   31.2800 C   0  0  0  0  0  0  0  0  0  0  0  0
   37.8370   22.6920   30.7960 C   0  0  0  0  0  0  0  0  0  0  0  0
   37.8280   21.3480   30.5820 N   0  0  0  0  0  0  0  0  0  0  0  0
   36.7190   20.6020   30.8330 C   0  0  0  0  0  0  0  0  0  0  0  0
   35.6250   21.1760   31.2910 N   0  0  0  0  0  0  0  0  0  0  0  0
   34.6740   23.0180   31.9070 H   0  0  0  0  0  0  0  0  0  0  0  0
   38.6880   23.3320   30.6120 H   0  0  0  0  0  0  0  0  0  0  0  0
   36.7540   19.5350   30.6490 H   0  0  0  0  0  0  0  0  0  0  0  0
   38.2040   25.4100   36.3760 S   0  0  0  0  0  0  0  0  0  0  0  0
   38.9850   23.5870   34.6980 H   0  0  0  0  0  0  0  0  0  0  0  0
   38.9730   23.0130   35.5720 N   0  0  0  0  0  0  0  0  0  0  0  0
   37.9940   23.6170   36.4450 C   0  0  1  0  0  3  0  0  0  0  0  0
   38.0510   23.0540   37.8270 C   0  0  0  0  0  3  0  0  0  0  0  0
   37.2900   23.5420   38.4610 H   0  0  0  0  0  0  0  0  0  0  0  0
   39.3470   23.0310   38.4300 N   0  0  0  0  0  0  0  0  0  0  0  0
   39.2640   22.3930   39.2770 H   0  0  0  0  0  0  0  0  0  0  0  0
   40.2550   22.3670   37.5280 C   0  0  0  0  0  2  0  0  0  0  0  0
   40.2650   23.0810   36.1850 C   0  0  0  0  0  2  0  0  0  0  0  0
  1  6  1  0  0  0  0
  2  1  2  0  0  0  0
  2  3  1  0  0  0  0
  3  4  2  0  0  0  0
  4  5  1  0  0  0  0
  4  9  1  0  0  0  0
  5 21  1  0  0  0  0
  6  5  2  0  0  0  0
  7  2  1  0  0  0  0
  8  3  1  0  0  0  0
 10  1  1  0  0  0  0
 11 10  2  0  0  0  0
 12 18  1  0  0  0  0
 13 12  2  0  0  0  0
 13 10  1  0  0  0  0
 14 13  1  0  0  0  0
 15 14  2  0  0  0  0
 15 16  1  0  0  0  0
 16 17  2  0  0  0  0
 17 12  1  0  0  0  0
 19 14  1  0  0  0  0
 20 16  1  0  0  0  0
 22 23  1  0  0  0  0
 23 30  1  0  0  0  0
 23 24  1  0  0  0  0
 24 21  1  1  0  0  0
 24 25  1  0  0  0  0
 25 27  1  0  0  0  0
 25 26  1  0  0  0  0
 27 28  1  0  0  0  0
 29 27  1  0  0  0  0
 30 29  1  0  0  0  0
M  END
>  <minimizedAffinity>
-5.00254536

$$$$

 OpenBabel03262522123D

 30 32  0  0  1  0  0  0  0  0999 V2000
   39.8880   25.9620   32.3360 C   0  0  0  0  0  0  0  0  0  0  0  0
   40.5540   27.1720   32.5380 C   0  0  0  0  0  0  0  0  0  0  0  0
   41.3150   27.3690   33.6890 C   0  0  0  0  0  0  0  0  0  0  0  0
   41.3490   26.3040   34.5740 C   0  0  0  0  0  0  0  0  0  0  0  0
   40.6860   25.1270   34.3510 C   0  0  0  0  0  0  0  0  0  0  0  0
   39.9490   24.9490   33.2290 N   0  0  0  0  0  0  0  0  0  0  0  0
   40.4860   27.9710   31.8010 H   0  0  0  0  0  0  0  0  0  0  0  0
   41.8460   28.2930   33.8810 H   0  0  0  0  0  0  0  0  0  0  0  0
   41.9340   26.4390   35.4740 H   0  0  0  0  0  0  0  0  0  0  0  0
   39.1280   25.8620   31.1100 C   0  0  0  0  0  0  0  0  0  0  0  0
   39.6810   26.0650   30.0170 O   0  0  0  0  0  0  0  0  0  0  0  0
   36.7720   26.5610   31.2140 C   0  0  0  0  0  0  0  0  0  0  0  0
   37.7210   25.5300   31.0680 C   0  0  0  0  0  0  0  0  0  0  0  0
   37.2340   24.2360   30.8880 C   0  0  0  0  0  0  0  0  0  0  0  0
   35.8910   24.0210   30.8610 N   0  0  0  0  0  0  0  0  0  0  0  0
   35.0090   25.0450   31.0060 C   0  0  0  0  0  0  0  0  0  0  0  0
   35.4480   26.2760   31.1770 N   0  0  0  0  0  0  0  0  0  0  0  0
   37.1700   27.5710   31.3550 H   0  0  0  0  0  0  0  0  0  0  0  0
   37.9780   23.4610   30.7770 H   0  0  0  0  0  0  0  0  0  0  0  0
   33.9480   24.8300   30.9780 H   0  0  0  0  0  0  0  0  0  0  0  0
   40.7420   23.7540   35.5130 S   0  0  0  0  0  0  0  0  0  0  0  0
   39.8030   21.6880   36.7770 H   0  0  0  0  0  0  0  0  0  0  0  0
   38.9810   22.3270   36.8720 N   0  0  0  0  0  0  0  0  0  0  0  0
   39.0300   23.2260   35.7440 C   0  0  1  0  0  3  0  0  0  0  0  0
   38.0630   24.3550   35.8830 C   0  0  0  0  0  3  0  0  0  0  0  0
   38.1320   25.0180   35.0020 H   0  0  0  0  0  0  0  0  0  0  0  0
   38.1210   25.0670   37.1210 N   0  0  0  0  0  0  0  0  0  0  0  0
   37.2340   25.6530   37.1640 H   0  0  0  0  0  0  0  0  0  0  0  0
   38.0120   24.1130   38.1980 C   0  0  0  0  0  2  0  0  0  0  0  0
   39.1180   23.0770   38.0840 C   0  0  0  0  0  2  0  0  0  0  0  0
  1  2  2  0  0  0  0
  1  6  1  0  0  0  0
  2  3  1  0  0  0  0
  3  8  1  0  0  0  0
  3  4  2  0  0  0  0
  4  9  1  0  0  0  0
  5  4  1  0  0  0  0
  5 21  1  0  0  0  0
  6  5  2  0  0  0  0
  7  2  1  0  0  0  0
 10  1  1  0  0  0  0
 11 10  2  0  0  0  0
 12 18  1  0  0  0  0
 13 10  1  0  0  0  0
 13 12  2  0  0  0  0
 14 13  1  0  0  0  0
 15 14  2  0  0  0  0
 15 16  1  0  0  0  0
 16 17  2  0  0  0  0
 17 12  1  0  0  0  0
 19 14  1  0  0  0  0
 20 16  1  0  0  0  0
 22 23  1  0  0  0  0
 23 30  1  0  0  0  0
 24 21  1  1  0  0  0
 24 25  1  0  0  0  0
 24 23  1  0  0  0  0
 25 27  1  0  0  0  0
 26 25  1  0  0  0  0
 27 28  1  0  0  0  0
 27 29  1  0  0  0  0
 30 29  1  0  0  0  0
M  END
>  <minimizedAffinity>
-4.95265388

$$$$

 OpenBabel03262522123D

 30 32  0  0  1  0  0  0  0  0999 V2000
   36.6120   25.9850   32.0700 C   0  0  0  0  0  0  0  0  0  0  0  0
   35.4780   26.2450   31.2980 C   0  0  0  0  0  0  0  0  0  0  0  0
   34.7510   25.1920   30.7430 C   0  0  0  0  0  0  0  0  0  0  0  0
   35.2330   23.9230   31.0160 C   0  0  0  0  0  0  0  0  0  0  0  0
   36.3490   23.6960   31.7770 C   0  0  0  0  0  0  0  0  0  0  0  0
   37.0460   24.7280   32.3090 N   0  0  0  0  0  0  0  0  0  0  0  0
   35.1510   27.2690   31.1210 H   0  0  0  0  0  0  0  0  0  0  0  0
   33.8670   25.3530   30.1400 H   0  0  0  0  0  0  0  0  0  0  0  0
   34.6830   23.0930   30.5940 H   0  0  0  0  0  0  0  0  0  0  0  0
   37.2910   27.1480   32.5970 C   0  0  0  0  0  0  0  0  0  0  0  0
   38.5050   27.0970   32.8490 O   0  0  0  0  0  0  0  0  0  0  0  0
   36.0670   28.6320   34.1290 C   0  0  0  0  0  0  0  0  0  0  0  0
   36.6310   28.4080   32.8580 C   0  0  0  0  0  0  0  0  0  0  0  0
   36.5130   29.4310   31.9200 C   0  0  0  0  0  0  0  0  0  0  0  0
   35.8740   30.5840   32.2570 N   0  0  0  0  0  0  0  0  0  0  0  0
   35.3450   30.7590   33.4970 C   0  0  0  0  0  0  0  0  0  0  0  0
   35.4440   29.8040   34.3990 N   0  0  0  0  0  0  0  0  0  0  0  0
   36.1670   27.8180   34.8550 H   0  0  0  0  0  0  0  0  0  0  0  0
   36.9530   29.2400   30.9510 H   0  0  0  0  0  0  0  0  0  0  0  0
   34.8440   31.6930   33.7250 H   0  0  0  0  0  0  0  0  0  0  0  0
   36.9610   22.0390   32.1210 S   0  0  0  0  0  0  0  0  0  0  0  0
   37.3340   20.5140   30.0520 H   0  0  0  0  0  0  0  0  0  0  0  0
   36.5850   19.9620   30.5290 N   0  0  0  0  0  0  0  0  0  0  0  0
   35.8140   20.9060   31.3040 C   0  0  1  0  0  3  0  0  0  0  0  0
   34.8680   20.2260   32.2370 C   0  0  0  0  0  3  0  0  0  0  0  0
   34.3000   20.9810   32.8100 H   0  0  0  0  0  0  0  0  0  0  0  0
   35.4420   19.2140   33.0680 N   0  0  0  0  0  0  0  0  0  0  0  0
   34.6230   18.6700   33.4750 H   0  0  0  0  0  0  0  0  0  0  0  0
   36.1470   18.2810   32.2230 C   0  0  0  0  0  2  0  0  0  0  0  0
   37.2000   19.0150   31.4090 C   0  0  0  0  0  2  0  0  0  0  0  0
  1  6  1  0  0  0  0
  1 10  1  0  0  0  0
  2  1  2  0  0  0  0
  3  4  2  0  0  0  0
  3  2  1  0  0  0  0
  4  5  1  0  0  0  0
  5 21  1  0  0  0  0
  5  6  2  0  0  0  0
  7  2  1  0  0  0  0
  8  3  1  0  0  0  0
  9  4  1  0  0  0  0
 10 11  2  0  0  0  0
 10 13  1  0  0  0  0
 12 17  1  0  0  0  0
 12 18  1  0  0  0  0
 13 12  2  0  0  0  0
 14 15  2  0  0  0  0
 14 13  1  0  0  0  0
 15 16  1  0  0  0  0
 16 20  1  0  0  0  0
 16 17  2  0  0  0  0
 19 14  1  0  0  0  0
 22 23  1  0  0  0  0
 23 24  1  0  0  0  0
 23 30  1  0  0  0  0
 24 21  1  1  0  0  0
 24 25  1  0  0  0  0
 25 26  1  0  0  0  0
 25 27  1  0  0  0  0
 27 28  1  0  0  0  0
 29 27  1  0  0  0  0
 30 29  1  0  0  0  0
M  END
>  <minimizedAffinity>
-4.8041234

$$$$

 OpenBabel03262522123D

 30 32  0  0  1  0  0  0  0  0999 V2000
   35.5620   30.2480   34.0400 C   0  0  0  0  0  0  0  0  0  0  0  0
   35.6440   31.0820   32.9240 C   0  0  0  0  0  0  0  0  0  0  0  0
   36.0790   30.5760   31.7000 C   0  0  0  0  0  0  0  0  0  0  0  0
   36.4070   29.2310   31.6920 C   0  0  0  0  0  0  0  0  0  0  0  0
   36.3180   28.4340   32.8030 C   0  0  0  0  0  0  0  0  0  0  0  0
   35.8950   28.9400   33.9850 N   0  0  0  0  0  0  0  0  0  0  0  0
   35.3690   32.1340   32.9980 H   0  0  0  0  0  0  0  0  0  0  0  0
   36.1550   31.1910   30.8130 H   0  0  0  0  0  0  0  0  0  0  0  0
   36.7480   28.8190   30.7520 H   0  0  0  0  0  0  0  0  0  0  0  0
   35.0990   30.8740   35.2580 C   0  0  0  0  0  0  0  0  0  0  0  0
   35.9140   31.3850   36.0440 O   0  0  0  0  0  0  0  0  0  0  0  0
   33.3440   31.7300   36.7530 C   0  0  0  0  0  0  0  0  0  0  0  0
   33.7060   30.9500   35.6370 C   0  0  0  0  0  0  0  0  0  0  0  0
   32.6800   30.2910   34.9610 C   0  0  0  0  0  0  0  0  0  0  0  0
   31.3970   30.4220   35.3920 N   0  0  0  0  0  0  0  0  0  0  0  0
   31.0910   31.1870   36.4730 C   0  0  0  0  0  0  0  0  0  0  0  0
   32.0450   31.8180   37.1280 N   0  0  0  0  0  0  0  0  0  0  0  0
   34.1600   32.2410   37.2740 H   0  0  0  0  0  0  0  0  0  0  0  0
   32.9790   29.6990   34.1080 H   0  0  0  0  0  0  0  0  0  0  0  0
   30.0560   31.2650   36.7830 H   0  0  0  0  0  0  0  0  0  0  0  0
   36.7500   26.6870   32.7730 S   0  0  0  0  0  0  0  0  0  0  0  0
   38.2120   26.4080   30.6440 H   0  0  0  0  0  0  0  0  0  0  0  0
   37.4930   25.6760   30.4460 N   0  0  0  0  0  0  0  0  0  0  0  0
   36.2900   26.0890   31.1310 C   0  0  1  0  0  3  0  0  0  0  0  0
   35.2550   25.0140   31.1470 C   0  0  0  0  0  3  0  0  0  0  0  0
   34.3540   25.3690   31.6790 H   0  0  0  0  0  0  0  0  0  0  0  0
   35.7020   23.7340   31.6030 N   0  0  0  0  0  0  0  0  0  0  0  0
   34.9440   23.0430   31.3240 H   0  0  0  0  0  0  0  0  0  0  0  0
   36.8690   23.3640   30.8390 C   0  0  0  0  0  2  0  0  0  0  0  0
   37.9430   24.4290   30.9870 C   0  0  0  0  0  2  0  0  0  0  0  0
  1 10  1  0  0  0  0
  2  7  1  0  0  0  0
  2  1  2  0  0  0  0
  3  2  1  0  0  0  0
  4  3  2  0  0  0  0
  4  5  1  0  0  0  0
  5  6  2  0  0  0  0
  6  1  1  0  0  0  0
  8  3  1  0  0  0  0
  9  4  1  0  0  0  0
 10 13  1  0  0  0  0
 10 11  2  0  0  0  0
 12 17  1  0  0  0  0
 12 18  1  0  0  0  0
 13 12  2  0  0  0  0
 14 15  2  0  0  0  0
 14 13  1  0  0  0  0
 15 16  1  0  0  0  0
 16 20  1  0  0  0  0
 16 17  2  0  0  0  0
 19 14  1  0  0  0  0
 21  5  1  0  0  0  0
 23 22  1  0  0  0  0
 23 30  1  0  0  0  0
 23 24  1  0  0  0  0
 24 25  1  0  0  0  0
 24 21  1  1  0  0  0
 25 27  1  0  0  0  0
 25 26  1  0  0  0  0
 28 27  1  0  0  0  0
 29 30  1  0  0  0  0
 29 27  1  0  0  0  0
M  END
>  <minimizedAffinity>
-4.78963709

$$$$

 OpenBabel03262522123D

 30 32  0  0  1  0  0  0  0  0999 V2000
   37.4330   25.5580   33.0520 C   0  0  0  0  0  0  0  0  0  0  0  0
   36.8100   26.6750   32.4930 C   0  0  0  0  0  0  0  0  0  0  0  0
   35.8420   26.5160   31.5030 C   0  0  0  0  0  0  0  0  0  0  0  0
   35.5660   25.2070   31.1410 C   0  0  0  0  0  0  0  0  0  0  0  0
   36.1920   24.1290   31.7070 C   0  0  0  0  0  0  0  0  0  0  0  0
   37.1310   24.2990   32.6660 N   0  0  0  0  0  0  0  0  0  0  0  0
   37.0740   27.6790   32.8230 H   0  0  0  0  0  0  0  0  0  0  0  0
   35.3370   27.3560   31.0450 H   0  0  0  0  0  0  0  0  0  0  0  0
   34.8180   25.0630   30.3740 H   0  0  0  0  0  0  0  0  0  0  0  0
   38.4210   25.8360   34.0700 C   0  0  0  0  0  0  0  0  0  0  0  0
   39.1020   26.8730   34.0090 O   0  0  0  0  0  0  0  0  0  0  0  0
   37.7740   24.9530   36.2720 C   0  0  0  0  0  0  0  0  0  0  0  0
   38.6790   24.9610   35.1930 C   0  0  0  0  0  0  0  0  0  0  0  0
   39.7810   24.1130   35.2790 C   0  0  0  0  0  0  0  0  0  0  0  0
   39.9400   23.3240   36.3760 N   0  0  0  0  0  0  0  0  0  0  0  0
   39.0410   23.3460   37.3950 C   0  0  0  0  0  0  0  0  0  0  0  0
   37.9920   24.1420   37.3350 N   0  0  0  0  0  0  0  0  0  0  0  0
   36.9140   25.6250   36.1900 H   0  0  0  0  0  0  0  0  0  0  0  0
   40.4620   24.1340   34.4400 H   0  0  0  0  0  0  0  0  0  0  0  0
   39.2050   22.7020   38.2510 H   0  0  0  0  0  0  0  0  0  0  0  0
   35.8200   22.4350   31.2240 S   0  0  0  0  0  0  0  0  0  0  0  0
   34.3860   21.4410   33.1480 H   0  0  0  0  0  0  0  0  0  0  0  0
   35.1500   20.7270   33.1270 N   0  0  0  0  0  0  0  0  0  0  0  0
   36.3220   21.3990   32.6160 C   0  0  1  0  0  3  0  0  0  0  0  0
   37.4210   20.4420   32.2920 C   0  0  0  0  0  3  0  0  0  0  0  0
   38.2960   20.9950   31.9060 H   0  0  0  0  0  0  0  0  0  0  0  0
   37.0520   19.3360   31.4660 N   0  0  0  0  0  0  0  0  0  0  0  0
   37.8520   18.6380   31.5350 H   0  0  0  0  0  0  0  0  0  0  0  0
   35.9130   18.6830   32.0650 C   0  0  0  0  0  2  0  0  0  0  0  0
   34.7750   19.6770   32.2290 C   0  0  0  0  0  2  0  0  0  0  0  0
  1 10  1  0  0  0  0
  2  7  1  0  0  0  0
  2  1  2  0  0  0  0
  3  2  1  0  0  0  0
  4  3  2  0  0  0  0
  4  5  1  0  0  0  0
  5  6  2  0  0  0  0
  6  1  1  0  0  0  0
  8  3  1  0  0  0  0
  9  4  1  0  0  0  0
 10 13  1  0  0  0  0
 11 10  2  0  0  0  0
 12 17  1  0  0  0  0
 13 14  1  0  0  0  0
 13 12  2  0  0  0  0
 14 15  2  0  0  0  0
 15 16  1  0  0  0  0
 16 20  1  0  0  0  0
 17 16  2  0  0  0  0
 18 12  1  0  0  0  0
 19 14  1  0  0  0  0
 21  5  1  0  0  0  0
 23 22  1  0  0  0  0
 24 21  1  6  0  0  0
 24 23  1  0  0  0  0
 25 24  1  0  0  0  0
 26 25  1  0  0  0  0
 27 28  1  0  0  0  0
 27 29  1  0  0  0  0
 27 25  1  0  0  0  0
 29 30  1  0  0  0  0
 30 23  1  0  0  0  0
M  END
>  <minimizedAffinity>
-4.75782681

$$$$
