
 OpenBabel03272507593D

 32 34  0  0  0  0  0  0  0  0999 V2000
   38.9270   26.8720   33.3320 C   0  0  0  0  0  0  0  0  0  0  0  0
   40.2080   27.3760   33.1690 C   0  0  0  0  0  0  0  0  0  0  0  0
   41.2420   26.8710   33.9430 C   0  0  0  0  0  0  0  0  0  0  0  0
   40.9910   25.8750   34.8660 C   0  0  0  0  0  0  0  0  0  0  0  0
   39.7090   25.3970   35.0030 C   0  0  0  0  0  0  0  0  0  0  0  0
   38.7290   25.9040   34.2420 N   0  0  0  0  0  0  0  0  0  0  0  0
   40.5580   28.1540   32.4890 H   0  0  0  0  0  0  0  0  0  0  0  0
   42.2630   27.2000   33.8860 H   0  0  0  0  0  0  0  0  0  0  0  0
   41.7890   25.4660   35.4830 H   0  0  0  0  0  0  0  0  0  0  0  0
   39.4380   24.3870   35.9350 N   0  0  0  0  0  0  0  0  0  0  0  0
   38.2800   24.4890   36.8000 C   0  0  0  0  0  3  0  0  0  0  0  0
   37.3690   24.6980   36.2060 H   0  0  0  0  0  0  0  0  0  0  0  0
   38.1270   23.1050   37.4350 C   0  0  0  0  0  3  0  0  0  0  0  0
   37.2050   23.0940   38.0460 H   0  0  0  0  0  0  0  0  0  0  0  0
   38.1490   22.1570   36.3580 N   0  0  0  0  0  0  0  0  0  0  0  0
   37.6270   21.2800   36.5700 H   0  0  0  0  0  0  0  0  0  0  0  0
   39.5040   21.9260   35.9480 C   0  0  0  0  0  2  0  0  0  0  0  0
   40.2770   23.2140   36.0830 C   0  0  0  0  0  2  0  0  0  0  0  0
   35.8880   28.6950   32.0960 C   0  0  0  0  0  0  0  0  0  0  0  0
   36.8190   28.0830   32.9830 C   0  0  0  0  0  0  0  0  0  0  0  0
   37.9600   27.5030   32.4500 C   0  0  0  0  0  0  0  0  0  0  0  0
   38.1390   27.5440   31.0900 N   0  0  0  0  0  0  0  0  0  0  0  0
   37.2150   28.1430   30.2810 C   0  0  0  0  0  0  0  0  0  0  0  0
   36.1130   28.7080   30.7580 N   0  0  0  0  0  0  0  0  0  0  0  0
   37.6220   28.0570   28.9170 N   0  0  0  0  0  0  0  0  0  0  0  0
   34.9910   29.1550   32.4880 H   0  0  0  0  0  0  0  0  0  0  0  0
   38.5010   28.4280   28.4910 H   0  0  0  0  0  0  0  0  0  0  0  0
   36.8730   27.5410   28.3710 H   0  0  0  0  0  0  0  0  0  0  0  0
   36.5100   28.1050   34.4420 C   0  0  0  0  0  0  0  0  0  0  0  0
   37.5710   28.6590   35.1630 F   0  0  0  0  0  0  0  0  0  0  0  0
   35.4090   28.8790   34.6410 F   0  0  0  0  0  0  0  0  0  0  0  0
   36.2740   26.8530   34.9650 F   0  0  0  0  0  0  0  0  0  0  0  0
  1  6  1  0  0  0  0
  2  1  2  0  0  0  0
  2  3  1  0  0  0  0
  3  4  2  0  0  0  0
  4  5  1  0  0  0  0
  4  9  1  0  0  0  0
  5 10  1  0  0  0  0
  6  5  2  0  0  0  0
  7  2  1  0  0  0  0
  8  3  1  0  0  0  0
 10 18  1  0  0  0  0
 10 11  1  0  0  0  0
 11 13  1  0  0  0  0
 12 11  1  0  0  0  0
 13 14  1  0  0  0  0
 15 16  1  0  0  0  0
 15 13  1  0  0  0  0
 17 18  1  0  0  0  0
 17 15  1  0  0  0  0
 19 26  1  0  0  0  0
 19 20  1  0  0  0  0
 20 29  1  0  0  0  0
 21 20  2  0  0  0  0
 21  1  1  0  0  0  0
 22 21  1  0  0  0  0
 23 24  1  0  0  0  0
 23 22  2  0  0  0  0
 24 19  2  0  0  0  0
 25 23  1  0  0  0  0
 27 25  1  0  0  0  0
 28 25  1  0  0  0  0
 29 31  1  0  0  0  0
 29 32  1  0  0  0  0
 29 30  1  0  0  0  0
M  END
>  <minimizedAffinity>
-5.90132141

$$$$

 OpenBabel03272507593D

 32 34  0  0  0  0  0  0  0  0999 V2000
   35.2320   29.3930   33.2740 C   0  0  0  0  0  0  0  0  0  0  0  0
   35.5790   30.7210   33.4650 C   0  0  0  0  0  0  0  0  0  0  0  0
   34.7440   31.5430   34.2090 C   0  0  0  0  0  0  0  0  0  0  0  0
   33.5800   31.0350   34.7510 C   0  0  0  0  0  0  0  0  0  0  0  0
   33.2650   29.7130   34.5430 C   0  0  0  0  0  0  0  0  0  0  0  0
   34.0900   28.9430   33.8200 N   0  0  0  0  0  0  0  0  0  0  0  0
   36.4550   31.2610   33.1030 H   0  0  0  0  0  0  0  0  0  0  0  0
   34.9310   32.5820   34.4080 H   0  0  0  0  0  0  0  0  0  0  0  0
   32.9120   31.6630   35.3380 H   0  0  0  0  0  0  0  0  0  0  0  0
   32.0880   29.1830   35.0870 N   0  0  0  0  0  0  0  0  0  0  0  0
   31.2310   28.3390   34.2780 C   0  0  0  0  0  3  0  0  0  0  0  0
   31.8190   27.5270   33.8080 H   0  0  0  0  0  0  0  0  0  0  0  0
   30.2460   27.7040   35.2630 C   0  0  0  0  0  3  0  0  0  0  0  0
   29.6150   26.9780   34.7150 H   0  0  0  0  0  0  0  0  0  0  0  0
   31.0340   27.1400   36.3220 N   0  0  0  0  0  0  0  0  0  0  0  0
   30.5740   26.3290   36.7910 H   0  0  0  0  0  0  0  0  0  0  0  0
   31.4260   28.1750   37.2330 C   0  0  0  0  0  2  0  0  0  0  0  0
   31.6710   29.4410   36.4520 C   0  0  0  0  0  2  0  0  0  0  0  0
   38.1030   27.1830   32.2970 C   0  0  0  0  0  0  0  0  0  0  0  0
   37.1610   27.8830   33.1030 C   0  0  0  0  0  0  0  0  0  0  0  0
   36.2070   28.6690   32.4760 C   0  0  0  0  0  0  0  0  0  0  0  0
   36.2140   28.7380   31.1050 N   0  0  0  0  0  0  0  0  0  0  0  0
   37.1410   28.0470   30.3770 C   0  0  0  0  0  0  0  0  0  0  0  0
   38.0680   27.2850   30.9440 N   0  0  0  0  0  0  0  0  0  0  0  0
   36.9460   28.2770   28.9830 N   0  0  0  0  0  0  0  0  0  0  0  0
   38.8580   26.5630   32.7620 H   0  0  0  0  0  0  0  0  0  0  0  0
   36.0890   28.0770   28.4190 H   0  0  0  0  0  0  0  0  0  0  0  0
   37.8320   28.6980   28.5800 H   0  0  0  0  0  0  0  0  0  0  0  0
   37.2570   27.7250   34.5830 C   0  0  0  0  0  0  0  0  0  0  0  0
   36.3090   26.8080   35.0450 F   0  0  0  0  0  0  0  0  0  0  0  0
   38.4950   27.2520   34.8900 F   0  0  0  0  0  0  0  0  0  0  0  0
   37.0490   28.9020   35.2680 F   0  0  0  0  0  0  0  0  0  0  0  0
  1  2  2  0  0  0  0
  1  6  1  0  0  0  0
  2  3  1  0  0  0  0
  3  8  1  0  0  0  0
  3  4  2  0  0  0  0
  4  9  1  0  0  0  0
  5  4  1  0  0  0  0
  5 10  1  0  0  0  0
  6  5  2  0  0  0  0
  7  2  1  0  0  0  0
 10 18  1  0  0  0  0
 11 10  1  0  0  0  0
 11 13  1  0  0  0  0
 12 11  1  0  0  0  0
 13 15  1  0  0  0  0
 14 13  1  0  0  0  0
 15 16  1  0  0  0  0
 15 17  1  0  0  0  0
 18 17  1  0  0  0  0
 19 26  1  0  0  0  0
 19 20  1  0  0  0  0
 20 29  1  0  0  0  0
 21 20  2  0  0  0  0
 21  1  1  0  0  0  0
 22 21  1  0  0  0  0
 23 24  1  0  0  0  0
 23 22  2  0  0  0  0
 24 19  2  0  0  0  0
 25 23  1  0  0  0  0
 27 25  1  0  0  0  0
 28 25  1  0  0  0  0
 29 31  1  0  0  0  0
 29 30  1  0  0  0  0
 29 32  1  0  0  0  0
M  END
>  <minimizedAffinity>
-5.67635345

$$$$

 OpenBabel03272507593D

 32 34  0  0  0  0  0  0  0  0999 V2000
   38.5780   24.3160   34.5370 C   0  0  0  0  0  0  0  0  0  0  0  0
   37.8040   23.4230   35.2600 C   0  0  0  0  0  0  0  0  0  0  0  0
   38.4260   22.4430   36.0190 C   0  0  0  0  0  0  0  0  0  0  0  0
   39.8040   22.3630   36.0490 C   0  0  0  0  0  0  0  0  0  0  0  0
   40.5430   23.2660   35.3200 C   0  0  0  0  0  0  0  0  0  0  0  0
   39.9150   24.2020   34.5960 N   0  0  0  0  0  0  0  0  0  0  0  0
   36.7180   23.3600   35.3350 H   0  0  0  0  0  0  0  0  0  0  0  0
   37.9090   21.7090   36.6100 H   0  0  0  0  0  0  0  0  0  0  0  0
   40.3120   21.6020   36.6380 H   0  0  0  0  0  0  0  0  0  0  0  0
   41.9420   23.1980   35.3400 N   0  0  0  0  0  0  0  0  0  0  0  0
   42.6910   23.3090   34.1050 C   0  0  0  0  0  3  0  0  0  0  0  0
   42.3730   24.2040   33.5370 H   0  0  0  0  0  0  0  0  0  0  0  0
   44.1470   23.5110   34.5330 C   0  0  0  0  0  3  0  0  0  0  0  0
   44.7620   23.6870   33.6300 H   0  0  0  0  0  0  0  0  0  0  0  0
   44.1480   24.5860   35.4840 N   0  0  0  0  0  0  0  0  0  0  0  0
   45.0480   25.1110   35.5120 H   0  0  0  0  0  0  0  0  0  0  0  0
   43.7370   24.0940   36.7660 C   0  0  0  0  0  2  0  0  0  0  0  0
   42.6990   23.0200   36.5640 C   0  0  0  0  0  2  0  0  0  0  0  0
   36.8620   27.4970   33.5250 C   0  0  0  0  0  0  0  0  0  0  0  0
   37.6500   26.5750   34.2700 C   0  0  0  0  0  0  0  0  0  0  0  0
   37.7790   25.2790   33.7960 C   0  0  0  0  0  0  0  0  0  0  0  0
   37.1390   24.9420   32.6300 N   0  0  0  0  0  0  0  0  0  0  0  0
   36.3940   25.8650   31.9510 C   0  0  0  0  0  0  0  0  0  0  0  0
   36.2500   27.1150   32.3760 N   0  0  0  0  0  0  0  0  0  0  0  0
   35.8320   25.2810   30.7780 N   0  0  0  0  0  0  0  0  0  0  0  0
   36.7470   28.5150   33.8730 H   0  0  0  0  0  0  0  0  0  0  0  0
   36.3430   24.8410   29.9790 H   0  0  0  0  0  0  0  0  0  0  0  0
   34.7760   25.3600   30.8310 H   0  0  0  0  0  0  0  0  0  0  0  0
   38.2960   27.0630   35.5230 C   0  0  0  0  0  0  0  0  0  0  0  0
   39.6750   27.2070   35.3450 F   0  0  0  0  0  0  0  0  0  0  0  0
   37.7760   28.2810   35.8340 F   0  0  0  0  0  0  0  0  0  0  0  0
   38.1120   26.2160   36.5930 F   0  0  0  0  0  0  0  0  0  0  0  0
  1  6  2  0  0  0  0
  1  2  1  0  0  0  0
  2  7  1  0  0  0  0
  2  3  2  0  0  0  0
  3  4  1  0  0  0  0
  3  8  1  0  0  0  0
  4  9  1  0  0  0  0
  5 10  1  0  0  0  0
  5  4  2  0  0  0  0
  6  5  1  0  0  0  0
 10 18  1  0  0  0  0
 11 13  1  0  0  0  0
 11 10  1  0  0  0  0
 12 11  1  0  0  0  0
 13 15  1  0  0  0  0
 14 13  1  0  0  0  0
 15 16  1  0  0  0  0
 15 17  1  0  0  0  0
 18 17  1  0  0  0  0
 19 26  1  0  0  0  0
 19 20  1  0  0  0  0
 20 29  1  0  0  0  0
 21 20  2  0  0  0  0
 21  1  1  0  0  0  0
 22 21  1  0  0  0  0
 23 24  1  0  0  0  0
 23 22  2  0  0  0  0
 24 19  2  0  0  0  0
 25 28  1  0  0  0  0
 25 23  1  0  0  0  0
 27 25  1  0  0  0  0
 29 31  1  0  0  0  0
 29 32  1  0  0  0  0
 30 29  1  0  0  0  0
M  END
>  <minimizedAffinity>
-5.62143612

$$$$

 OpenBabel03272507593D

 32 34  0  0  0  0  0  0  0  0999 V2000
   35.1290   29.2830   33.7350 C   0  0  0  0  0  0  0  0  0  0  0  0
   35.1650   29.7700   32.4390 C   0  0  0  0  0  0  0  0  0  0  0  0
   36.1320   29.3000   31.5620 C   0  0  0  0  0  0  0  0  0  0  0  0
   37.0470   28.3560   31.9840 C   0  0  0  0  0  0  0  0  0  0  0  0
   36.9830   27.8930   33.2770 C   0  0  0  0  0  0  0  0  0  0  0  0
   36.0380   28.3650   34.1020 N   0  0  0  0  0  0  0  0  0  0  0  0
   34.5180   30.5090   31.9650 H   0  0  0  0  0  0  0  0  0  0  0  0
   36.2360   29.6200   30.5410 H   0  0  0  0  0  0  0  0  0  0  0  0
   37.8130   27.9740   31.3110 H   0  0  0  0  0  0  0  0  0  0  0  0
   37.9040   26.9350   33.7200 N   0  0  0  0  0  0  0  0  0  0  0  0
   38.5480   27.0900   35.0090 C   0  0  0  0  0  3  0  0  0  0  0  0
   37.7960   27.2720   35.8000 H   0  0  0  0  0  0  0  0  0  0  0  0
   39.2160   25.7420   35.2900 C   0  0  0  0  0  3  0  0  0  0  0  0
   39.6570   25.7680   36.3050 H   0  0  0  0  0  0  0  0  0  0  0  0
   38.2090   24.7380   35.0960 N   0  0  0  0  0  0  0  0  0  0  0  0
   38.3710   23.8760   35.6600 H   0  0  0  0  0  0  0  0  0  0  0  0
   38.0530   24.4780   33.6940 C   0  0  0  0  0  2  0  0  0  0  0  0
   38.2540   25.7660   32.9370 C   0  0  0  0  0  2  0  0  0  0  0  0
   33.2810   31.4680   36.1640 C   0  0  0  0  0  0  0  0  0  0  0  0
   34.3450   30.9090   35.4020 C   0  0  0  0  0  0  0  0  0  0  0  0
   34.0610   29.8720   34.5260 C   0  0  0  0  0  0  0  0  0  0  0  0
   32.7650   29.4300   34.4350 N   0  0  0  0  0  0  0  0  0  0  0  0
   31.7780   30.0010   35.1890 C   0  0  0  0  0  0  0  0  0  0  0  0
   32.0150   30.9950   36.0360 N   0  0  0  0  0  0  0  0  0  0  0  0
   30.5260   29.3750   34.9190 N   0  0  0  0  0  0  0  0  0  0  0  0
   33.4770   32.2780   36.8530 H   0  0  0  0  0  0  0  0  0  0  0  0
   30.0330   29.3080   34.0000 H   0  0  0  0  0  0  0  0  0  0  0  0
   30.1470   28.9690   35.8230 H   0  0  0  0  0  0  0  0  0  0  0  0
   35.7120   31.4770   35.5910 C   0  0  0  0  0  0  0  0  0  0  0  0
   36.1620   32.0830   34.4150 F   0  0  0  0  0  0  0  0  0  0  0  0
   35.6570   32.4250   36.5650 F   0  0  0  0  0  0  0  0  0  0  0  0
   36.6480   30.5310   35.9440 F   0  0  0  0  0  0  0  0  0  0  0  0
  1  6  1  0  0  0  0
  1 21  1  0  0  0  0
  2  1  2  0  0  0  0
  3  4  2  0  0  0  0
  3  2  1  0  0  0  0
  4  5  1  0  0  0  0
  5 10  1  0  0  0  0
  5  6  2  0  0  0  0
  7  2  1  0  0  0  0
  8  3  1  0  0  0  0
  9  4  1  0  0  0  0
 10 11  1  0  0  0  0
 11 13  1  0  0  0  0
 11 12  1  0  0  0  0
 13 14  1  0  0  0  0
 15 13  1  0  0  0  0
 15 16  1  0  0  0  0
 17 15  1  0  0  0  0
 18 17  1  0  0  0  0
 18 10  1  0  0  0  0
 19 26  1  0  0  0  0
 20 29  1  0  0  0  0
 20 19  2  0  0  0  0
 21 20  1  0  0  0  0
 22 21  2  0  0  0  0
 22 23  1  0  0  0  0
 23 24  2  0  0  0  0
 24 19  1  0  0  0  0
 25 23  1  0  0  0  0
 25 28  1  0  0  0  0
 27 25  1  0  0  0  0
 29 32  1  0  0  0  0
 29 31  1  0  0  0  0
 30 29  1  0  0  0  0
M  END
>  <minimizedAffinity>
-5.57953691

$$$$

 OpenBabel03272507593D

 32 34  0  0  0  0  0  0  0  0999 V2000
   37.7740   26.3980   33.0350 C   0  0  0  0  0  0  0  0  0  0  0  0
   38.7810   26.4320   32.0840 C   0  0  0  0  0  0  0  0  0  0  0  0
   38.7900   27.4460   31.1370 C   0  0  0  0  0  0  0  0  0  0  0  0
   37.8000   28.4090   31.1480 C   0  0  0  0  0  0  0  0  0  0  0  0
   36.8140   28.3460   32.1050 C   0  0  0  0  0  0  0  0  0  0  0  0
   36.8320   27.3550   33.0070 N   0  0  0  0  0  0  0  0  0  0  0  0
   39.6210   25.7500   31.9480 H   0  0  0  0  0  0  0  0  0  0  0  0
   39.5280   27.5520   30.3650 H   0  0  0  0  0  0  0  0  0  0  0  0
   37.7880   29.2130   30.4140 H   0  0  0  0  0  0  0  0  0  0  0  0
   35.8030   29.3160   32.1300 N   0  0  0  0  0  0  0  0  0  0  0  0
   34.4210   28.9180   32.3040 C   0  0  0  0  0  3  0  0  0  0  0  0
   34.3160   28.2530   33.1830 H   0  0  0  0  0  0  0  0  0  0  0  0
   33.6630   30.2140   32.5950 C   0  0  0  0  0  3  0  0  0  0  0  0
   32.6080   29.9660   32.8230 H   0  0  0  0  0  0  0  0  0  0  0  0
   34.3700   30.8720   33.6570 N   0  0  0  0  0  0  0  0  0  0  0  0
   33.7610   31.4870   34.2390 H   0  0  0  0  0  0  0  0  0  0  0  0
   35.5160   31.5490   33.1230 C   0  0  0  0  0  2  0  0  0  0  0  0
   36.0750   30.7330   31.9860 C   0  0  0  0  0  2  0  0  0  0  0  0
   38.2810   24.3990   36.1700 C   0  0  0  0  0  0  0  0  0  0  0  0
   38.1560   25.5140   35.2940 C   0  0  0  0  0  0  0  0  0  0  0  0
   37.9060   25.2780   33.9520 C   0  0  0  0  0  0  0  0  0  0  0  0
   37.7910   23.9780   33.5270 N   0  0  0  0  0  0  0  0  0  0  0  0
   37.9190   22.9420   34.4080 C   0  0  0  0  0  0  0  0  0  0  0  0
   38.1580   23.1320   35.7000 N   0  0  0  0  0  0  0  0  0  0  0  0
   37.7600   21.6960   33.7330 N   0  0  0  0  0  0  0  0  0  0  0  0
   38.4760   24.5570   37.2230 H   0  0  0  0  0  0  0  0  0  0  0  0
   36.9300   21.3670   33.1910 H   0  0  0  0  0  0  0  0  0  0  0  0
   38.6430   21.1220   33.8660 H   0  0  0  0  0  0  0  0  0  0  0  0
   38.3020   26.8790   35.8780 C   0  0  0  0  0  0  0  0  0  0  0  0
   37.1920   27.6700   35.5680 F   0  0  0  0  0  0  0  0  0  0  0  0
   38.3810   26.7670   37.2320 F   0  0  0  0  0  0  0  0  0  0  0  0
   39.4160   27.5480   35.4220 F   0  0  0  0  0  0  0  0  0  0  0  0
  1 21  1  0  0  0  0
  2  1  2  0  0  0  0
  3  4  2  0  0  0  0
  3  2  1  0  0  0  0
  4  5  1  0  0  0  0
  5 10  1  0  0  0  0
  5  6  2  0  0  0  0
  6  1  1  0  0  0  0
  7  2  1  0  0  0  0
  8  3  1  0  0  0  0
  9  4  1  0  0  0  0
 10 11  1  0  0  0  0
 11 13  1  0  0  0  0
 11 12  1  0  0  0  0
 13 14  1  0  0  0  0
 13 15  1  0  0  0  0
 15 16  1  0  0  0  0
 17 15  1  0  0  0  0
 18 10  1  0  0  0  0
 18 17  1  0  0  0  0
 19 26  1  0  0  0  0
 20 29  1  0  0  0  0
 20 19  2  0  0  0  0
 21 20  1  0  0  0  0
 22 21  2  0  0  0  0
 22 23  1  0  0  0  0
 23 24  2  0  0  0  0
 24 19  1  0  0  0  0
 25 28  1  0  0  0  0
 25 23  1  0  0  0  0
 27 25  1  0  0  0  0
 29 31  1  0  0  0  0
 30 29  1  0  0  0  0
 32 29  1  0  0  0  0
M  END
>  <minimizedAffinity>
-5.47694111

$$$$

 OpenBabel03272507593D

 32 34  0  0  0  0  0  0  0  0999 V2000
   38.5880   22.9610   34.3810 C   0  0  0  0  0  0  0  0  0  0  0  0
   37.9060   21.8600   33.8890 C   0  0  0  0  0  0  0  0  0  0  0  0
   36.9580   22.0360   32.8920 C   0  0  0  0  0  0  0  0  0  0  0  0
   36.7000   23.3010   32.4000 C   0  0  0  0  0  0  0  0  0  0  0  0
   37.3940   24.3720   32.9100 C   0  0  0  0  0  0  0  0  0  0  0  0
   38.3050   24.1720   33.8730 N   0  0  0  0  0  0  0  0  0  0  0  0
   37.9980   20.8110   34.1740 H   0  0  0  0  0  0  0  0  0  0  0  0
   36.3820   21.2440   32.4510 H   0  0  0  0  0  0  0  0  0  0  0  0
   35.9590   23.4600   31.6180 H   0  0  0  0  0  0  0  0  0  0  0  0
   37.1440   25.6610   32.4210 N   0  0  0  0  0  0  0  0  0  0  0  0
   36.9940   26.7700   33.3420 C   0  0  0  0  0  3  0  0  0  0  0  0
   37.8430   26.8020   34.0520 H   0  0  0  0  0  0  0  0  0  0  0  0
   37.0540   28.0270   32.4720 C   0  0  0  0  0  3  0  0  0  0  0  0
   37.0300   28.9170   33.1310 H   0  0  0  0  0  0  0  0  0  0  0  0
   38.2330   27.9080   31.6620 N   0  0  0  0  0  0  0  0  0  0  0  0
   38.6320   28.8290   31.3780 H   0  0  0  0  0  0  0  0  0  0  0  0
   37.9680   27.0370   30.5540 C   0  0  0  0  0  2  0  0  0  0  0  0
   37.0250   25.9510   31.0060 C   0  0  0  0  0  2  0  0  0  0  0  0
   40.1980   22.5080   37.7410 C   0  0  0  0  0  0  0  0  0  0  0  0
   39.2420   22.8610   36.7460 C   0  0  0  0  0  0  0  0  0  0  0  0
   39.5450   22.6110   35.4170 C   0  0  0  0  0  0  0  0  0  0  0  0
   40.7540   22.0330   35.1200 N   0  0  0  0  0  0  0  0  0  0  0  0
   41.6380   21.7130   36.1120 C   0  0  0  0  0  0  0  0  0  0  0  0
   41.3790   21.9380   37.3940 N   0  0  0  0  0  0  0  0  0  0  0  0
   42.8140   21.1280   35.5570 N   0  0  0  0  0  0  0  0  0  0  0  0
   39.9840   22.6930   38.7850 H   0  0  0  0  0  0  0  0  0  0  0  0
   42.8810   20.2650   34.9720 H   0  0  0  0  0  0  0  0  0  0  0  0
   43.6500   21.7190   35.8340 H   0  0  0  0  0  0  0  0  0  0  0  0
   37.9640   23.4830   37.1980 C   0  0  0  0  0  0  0  0  0  0  0  0
   36.8750   22.6740   36.8600 F   0  0  0  0  0  0  0  0  0  0  0  0
   37.9970   23.6110   38.5520 F   0  0  0  0  0  0  0  0  0  0  0  0
   37.7360   24.7210   36.6400 F   0  0  0  0  0  0  0  0  0  0  0  0
  1 21  1  0  0  0  0
  2  7  1  0  0  0  0
  2  1  1  0  0  0  0
  3  2  2  0  0  0  0
  4  3  1  0  0  0  0
  4  5  2  0  0  0  0
  5  6  1  0  0  0  0
  6  1  2  0  0  0  0
  8  3  1  0  0  0  0
  9  4  1  0  0  0  0
 10  5  1  0  0  0  0
 10 11  1  0  0  0  0
 11 12  1  0  0  0  0
 13 14  1  0  0  0  0
 13 11  1  0  0  0  0
 15 13  1  0  0  0  0
 16 15  1  0  0  0  0
 17 18  1  0  0  0  0
 17 15  1  0  0  0  0
 18 10  1  0  0  0  0
 19 26  1  0  0  0  0
 20 29  1  0  0  0  0
 20 19  2  0  0  0  0
 21 20  1  0  0  0  0
 22 21  2  0  0  0  0
 22 23  1  0  0  0  0
 23 24  2  0  0  0  0
 24 19  1  0  0  0  0
 25 28  1  0  0  0  0
 25 23  1  0  0  0  0
 27 25  1  0  0  0  0
 29 31  1  0  0  0  0
 30 29  1  0  0  0  0
 32 29  1  0  0  0  0
M  END
>  <minimizedAffinity>
-5.45833302

$$$$

 OpenBabel03272507593D

 32 34  0  0  0  0  0  0  0  0999 V2000
   35.3690   30.0620   33.2850 C   0  0  0  0  0  0  0  0  0  0  0  0
   35.6150   30.9950   32.2910 C   0  0  0  0  0  0  0  0  0  0  0  0
   36.4460   30.6580   31.2320 C   0  0  0  0  0  0  0  0  0  0  0  0
   37.0190   29.4030   31.1760 C   0  0  0  0  0  0  0  0  0  0  0  0
   36.7540   28.5000   32.1800 C   0  0  0  0  0  0  0  0  0  0  0  0
   35.9480   28.8540   33.1900 N   0  0  0  0  0  0  0  0  0  0  0  0
   35.2400   32.0150   32.1970 H   0  0  0  0  0  0  0  0  0  0  0  0
   36.6930   31.3140   30.4180 H   0  0  0  0  0  0  0  0  0  0  0  0
   37.6740   29.1190   30.3550 H   0  0  0  0  0  0  0  0  0  0  0  0
   37.3280   27.2230   32.1380 N   0  0  0  0  0  0  0  0  0  0  0  0
   37.9210   26.6550   33.3320 C   0  0  0  0  0  3  0  0  0  0  0  0
   37.2140   26.7140   34.1820 H   0  0  0  0  0  0  0  0  0  0  0  0
   38.1470   25.1770   33.0050 C   0  0  0  0  0  3  0  0  0  0  0  0
   38.5220   24.6650   33.9120 H   0  0  0  0  0  0  0  0  0  0  0  0
   36.9010   24.6740   32.5010 N   0  0  0  0  0  0  0  0  0  0  0  0
   36.7730   23.6520   32.6620 H   0  0  0  0  0  0  0  0  0  0  0  0
   36.7500   25.0550   31.1260 C   0  0  0  0  0  2  0  0  0  0  0  0
   37.3600   26.4200   30.9310 C   0  0  0  0  0  2  0  0  0  0  0  0
   32.2630   30.9430   35.2000 C   0  0  0  0  0  0  0  0  0  0  0  0
   33.1090   30.4400   34.1710 C   0  0  0  0  0  0  0  0  0  0  0  0
   34.4820   30.5670   34.3200 C   0  0  0  0  0  0  0  0  0  0  0  0
   34.9630   31.1730   35.4530 N   0  0  0  0  0  0  0  0  0  0  0  0
   34.1090   31.6400   36.4120 C   0  0  0  0  0  0  0  0  0  0  0  0
   32.7900   31.5340   36.3020 N   0  0  0  0  0  0  0  0  0  0  0  0
   34.8420   32.2250   37.4860 N   0  0  0  0  0  0  0  0  0  0  0  0
   31.1890   30.8550   35.1070 H   0  0  0  0  0  0  0  0  0  0  0  0
   35.5580   31.7650   38.0920 H   0  0  0  0  0  0  0  0  0  0  0  0
   34.5450   33.2380   37.5880 H   0  0  0  0  0  0  0  0  0  0  0  0
   32.4640   29.8010   32.9880 C   0  0  0  0  0  0  0  0  0  0  0  0
   31.0960   29.6200   33.2100 F   0  0  0  0  0  0  0  0  0  0  0  0
   32.6170   30.6210   31.9140 F   0  0  0  0  0  0  0  0  0  0  0  0
   32.9920   28.5660   32.6830 F   0  0  0  0  0  0  0  0  0  0  0  0
  1 21  1  0  0  0  0
  2  1  2  0  0  0  0
  3  2  1  0  0  0  0
  4  3  2  0  0  0  0
  4  5  1  0  0  0  0
  5  6  2  0  0  0  0
  6  1  1  0  0  0  0
  7  2  1  0  0  0  0
  8  3  1  0  0  0  0
  9  4  1  0  0  0  0
 10  5  1  0  0  0  0
 10 11  1  0  0  0  0
 11 12  1  0  0  0  0
 13 11  1  0  0  0  0
 13 14  1  0  0  0  0
 15 16  1  0  0  0  0
 15 13  1  0  0  0  0
 17 15  1  0  0  0  0
 18 17  1  0  0  0  0
 18 10  1  0  0  0  0
 19 24  1  0  0  0  0
 20 21  1  0  0  0  0
 20 19  2  0  0  0  0
 21 22  2  0  0  0  0
 22 23  1  0  0  0  0
 23 25  1  0  0  0  0
 24 23  2  0  0  0  0
 25 28  1  0  0  0  0
 25 27  1  0  0  0  0
 26 19  1  0  0  0  0
 29 30  1  0  0  0  0
 29 20  1  0  0  0  0
 31 29  1  0  0  0  0
 32 29  1  0  0  0  0
M  END
>  <minimizedAffinity>
-5.28791046

$$$$

 OpenBabel03272507593D

 32 34  0  0  0  0  0  0  0  0999 V2000
   37.1260   27.2250   32.7000 C   0  0  0  0  0  0  0  0  0  0  0  0
   37.4650   27.5400   31.3940 C   0  0  0  0  0  0  0  0  0  0  0  0
   37.0890   28.7690   30.8710 C   0  0  0  0  0  0  0  0  0  0  0  0
   36.3830   29.6650   31.6500 C   0  0  0  0  0  0  0  0  0  0  0  0
   36.0620   29.3210   32.9420 C   0  0  0  0  0  0  0  0  0  0  0  0
   36.4390   28.1260   33.4210 N   0  0  0  0  0  0  0  0  0  0  0  0
   38.0130   26.9440   30.6640 H   0  0  0  0  0  0  0  0  0  0  0  0
   37.3070   29.0990   29.8720 H   0  0  0  0  0  0  0  0  0  0  0  0
   36.0790   30.6340   31.2580 H   0  0  0  0  0  0  0  0  0  0  0  0
   35.3470   30.2180   33.7450 N   0  0  0  0  0  0  0  0  0  0  0  0
   34.2350   29.7470   34.5460 C   0  0  0  0  0  3  0  0  0  0  0  0
   34.5370   28.8700   35.1510 H   0  0  0  0  0  0  0  0  0  0  0  0
   33.9130   30.8970   35.5040 C   0  0  0  0  0  3  0  0  0  0  0  0
   33.1220   30.5660   36.2040 H   0  0  0  0  0  0  0  0  0  0  0  0
   35.1520   31.2700   36.1260 N   0  0  0  0  0  0  0  0  0  0  0  0
   35.0280   31.6900   37.0720 H   0  0  0  0  0  0  0  0  0  0  0  0
   35.9070   32.0980   35.2310 C   0  0  0  0  0  2  0  0  0  0  0  0
   35.6690   31.6300   33.8180 C   0  0  0  0  0  2  0  0  0  0  0  0
   39.1020   24.4850   34.3350 C   0  0  0  0  0  0  0  0  0  0  0  0
   38.6680   25.7890   33.9620 C   0  0  0  0  0  0  0  0  0  0  0  0
   37.5910   25.9060   33.0970 C   0  0  0  0  0  0  0  0  0  0  0  0
   36.9920   24.7600   32.6380 N   0  0  0  0  0  0  0  0  0  0  0  0
   37.4480   23.5320   33.0260 C   0  0  0  0  0  0  0  0  0  0  0  0
   38.4750   23.3820   33.8530 N   0  0  0  0  0  0  0  0  0  0  0  0
   36.6690   22.5020   32.4210 N   0  0  0  0  0  0  0  0  0  0  0  0
   39.9400   24.3670   35.0080 H   0  0  0  0  0  0  0  0  0  0  0  0
   35.6390   22.3470   32.5100 H   0  0  0  0  0  0  0  0  0  0  0  0
   37.3100   21.8860   31.8430 H   0  0  0  0  0  0  0  0  0  0  0  0
   39.4020   26.9570   34.5290 C   0  0  0  0  0  0  0  0  0  0  0  0
   40.4330   26.5310   35.3710 F   0  0  0  0  0  0  0  0  0  0  0  0
   39.9510   27.6640   33.5050 F   0  0  0  0  0  0  0  0  0  0  0  0
   38.5970   27.7960   35.2670 F   0  0  0  0  0  0  0  0  0  0  0  0
  1 21  1  0  0  0  0
  1  6  1  0  0  0  0
  2  1  2  0  0  0  0
  3  2  1  0  0  0  0
  3  4  2  0  0  0  0
  4  5  1  0  0  0  0
  5  6  2  0  0  0  0
  5 10  1  0  0  0  0
  7  2  1  0  0  0  0
  8  3  1  0  0  0  0
  9  4  1  0  0  0  0
 10 18  1  0  0  0  0
 10 11  1  0  0  0  0
 11 12  1  0  0  0  0
 11 13  1  0  0  0  0
 13 15  1  0  0  0  0
 13 14  1  0  0  0  0
 15 16  1  0  0  0  0
 17 15  1  0  0  0  0
 18 17  1  0  0  0  0
 19 26  1  0  0  0  0
 20 19  1  0  0  0  0
 20 29  1  0  0  0  0
 21 20  2  0  0  0  0
 22 23  2  0  0  0  0
 22 21  1  0  0  0  0
 23 24  1  0  0  0  0
 24 19  2  0  0  0  0
 25 27  1  0  0  0  0
 25 23  1  0  0  0  0
 28 25  1  0  0  0  0
 29 32  1  0  0  0  0
 29 30  1  0  0  0  0
 31 29  1  0  0  0  0
M  END
>  <minimizedAffinity>
-5.28114939

$$$$

 OpenBabel03272507593D

 32 34  0  0  0  0  0  0  0  0999 V2000
   37.8730   22.2630   33.0070 C   0  0  0  0  0  0  0  0  0  0  0  0
   38.1100   22.2800   34.3720 C   0  0  0  0  0  0  0  0  0  0  0  0
   38.1890   23.4970   35.0350 C   0  0  0  0  0  0  0  0  0  0  0  0
   38.0320   24.6760   34.3330 C   0  0  0  0  0  0  0  0  0  0  0  0
   37.7980   24.6240   32.9790 C   0  0  0  0  0  0  0  0  0  0  0  0
   37.7260   23.4340   32.3660 N   0  0  0  0  0  0  0  0  0  0  0  0
   38.2550   21.4420   35.0550 H   0  0  0  0  0  0  0  0  0  0  0  0
   38.3700   23.6070   36.0880 H   0  0  0  0  0  0  0  0  0  0  0  0
   38.0910   25.6410   34.8340 H   0  0  0  0  0  0  0  0  0  0  0  0
   37.6360   25.8110   32.2540 N   0  0  0  0  0  0  0  0  0  0  0  0
   38.3100   25.9820   30.9830 C   0  0  0  0  0  3  0  0  0  0  0  0
   38.1170   25.1160   30.3210 H   0  0  0  0  0  0  0  0  0  0  0  0
   37.6670   27.2180   30.3490 C   0  0  0  0  0  3  0  0  0  0  0  0
   38.0830   27.3530   29.3320 H   0  0  0  0  0  0  0  0  0  0  0  0
   36.2480   27.0110   30.3970 N   0  0  0  0  0  0  0  0  0  0  0  0
   35.7320   27.5110   29.6420 H   0  0  0  0  0  0  0  0  0  0  0  0
   35.7630   27.3140   31.7130 C   0  0  0  0  0  2  0  0  0  0  0  0
   36.8070   26.9060   32.7210 C   0  0  0  0  0  2  0  0  0  0  0  0
   36.5680   18.9660   31.7770 C   0  0  0  0  0  0  0  0  0  0  0  0
   36.5930   20.2860   32.3110 C   0  0  0  0  0  0  0  0  0  0  0  0
   37.8180   20.9160   32.4650 C   0  0  0  0  0  0  0  0  0  0  0  0
   38.9530   20.2380   32.0960 N   0  0  0  0  0  0  0  0  0  0  0  0
   38.8750   18.9720   31.5880 C   0  0  0  0  0  0  0  0  0  0  0  0
   37.7190   18.3390   31.4260 N   0  0  0  0  0  0  0  0  0  0  0  0
   40.1790   18.4820   31.2800 N   0  0  0  0  0  0  0  0  0  0  0  0
   35.6240   18.4530   31.6470 H   0  0  0  0  0  0  0  0  0  0  0  0
   40.8760   18.8970   30.6220 H   0  0  0  0  0  0  0  0  0  0  0  0
   40.3490   17.5960   31.8390 H   0  0  0  0  0  0  0  0  0  0  0  0
   35.2900   20.9150   32.6740 C   0  0  0  0  0  0  0  0  0  0  0  0
   34.2220   20.1490   32.2000 F   0  0  0  0  0  0  0  0  0  0  0  0
   35.2010   20.9780   34.0300 F   0  0  0  0  0  0  0  0  0  0  0  0
   35.1390   22.1830   32.1600 F   0  0  0  0  0  0  0  0  0  0  0  0
  1  2  1  0  0  0  0
  2  3  2  0  0  0  0
  2  7  1  0  0  0  0
  3  8  1  0  0  0  0
  4  9  1  0  0  0  0
  4  3  1  0  0  0  0
  5  4  2  0  0  0  0
  6  5  1  0  0  0  0
  6  1  2  0  0  0  0
 10 18  1  0  0  0  0
 10  5  1  0  0  0  0
 11 10  1  0  0  0  0
 12 11  1  0  0  0  0
 13 15  1  0  0  0  0
 13 11  1  0  0  0  0
 14 13  1  0  0  0  0
 15 17  1  0  0  0  0
 16 15  1  0  0  0  0
 17 18  1  0  0  0  0
 19 20  1  0  0  0  0
 20 21  2  0  0  0  0
 20 29  1  0  0  0  0
 21  1  1  0  0  0  0
 22 21  1  0  0  0  0
 23 22  2  0  0  0  0
 24 23  1  0  0  0  0
 24 19  2  0  0  0  0
 25 23  1  0  0  0  0
 25 28  1  0  0  0  0
 26 19  1  0  0  0  0
 27 25  1  0  0  0  0
 29 31  1  0  0  0  0
 30 29  1  0  0  0  0
 32 29  1  0  0  0  0
M  END
>  <minimizedAffinity>
-5.22247219

$$$$
