
 OpenBabel03272510133D

 41 44  0  0  0  0  0  0  0  0999 V2000
   38.3790   31.6320   48.9190 C   0  0  0  0  0  0  0  0  0  0  0  0
   38.5290   32.9060   49.4730 C   0  0  0  0  0  0  0  0  0  0  0  0
   39.1730   33.7060   48.5420 C   0  0  0  0  0  0  0  0  0  0  0  0
   39.3980   32.9250   47.4670 N   0  0  0  0  0  0  0  0  0  0  0  0
   38.9320   31.7170   47.6930 N   0  0  0  0  0  0  0  0  0  0  0  0
   38.2580   33.3640   50.4260 H   0  0  0  0  0  0  0  0  0  0  0  0
   39.4660   34.7590   48.6070 H   0  0  0  0  0  0  0  0  0  0  0  0
   40.0470   33.3210   46.2150 C   0  0  0  0  0  0  0  0  0  0  0  0
   39.4500   34.0160   45.6420 H   0  0  0  0  0  0  0  0  0  0  0  0
   40.9920   33.8380   46.5670 H   0  0  0  0  0  0  0  0  0  0  0  0
   40.5030   32.0750   45.5370 C   0  0  0  0  0  0  0  0  0  0  0  0
   41.5740   31.8400   45.7360 H   0  0  0  0  0  0  0  0  0  0  0  0
   39.9580   31.1560   45.8830 H   0  0  0  0  0  0  0  0  0  0  0  0
   40.2760   32.2020   44.1020 N   0  0  0  0  0  0  0  0  0  0  0  0
   40.4560   30.8840   43.4680 C   0  0  0  0  0  3  0  0  0  0  0  0
   40.3420   30.0730   44.1820 H   0  0  0  0  0  0  0  0  0  0  0  0
   39.5400   30.7570   42.2640 C   0  0  0  0  0  3  0  0  0  0  0  0
   39.8040   29.7990   41.7750 H   0  0  0  0  0  0  0  0  0  0  0  0
   38.1480   30.6550   42.6950 N   0  0  0  0  0  0  0  0  0  0  0  0
   37.8640   29.6640   42.8790 H   0  0  0  0  0  0  0  0  0  0  0  0
   37.9160   31.5000   43.8540 C   0  0  0  0  0  2  0  0  0  0  0  0
   38.9090   32.6540   43.8410 C   0  0  0  0  0  2  0  0  0  0  0  0
   37.7520   30.7240   49.7360 O   0  0  0  0  0  0  0  0  0  0  0  0
   34.1900   28.9310   48.3510 C   0  0  0  0  0  0  0  0  0  0  0  0
   34.8960   28.4010   49.3800 C   0  0  0  0  0  0  0  0  0  0  0  0
   36.0600   28.9210   49.8880 C   0  0  0  0  0  0  0  0  0  0  0  0
   36.5920   30.0590   49.3550 C   0  0  0  0  0  0  0  0  0  0  0  0
   35.8710   30.6200   48.2890 C   0  0  0  0  0  0  0  0  0  0  0  0
   34.7310   30.0800   47.8160 N   0  0  0  0  0  0  0  0  0  0  0  0
   34.5430   27.4850   49.8700 H   0  0  0  0  0  0  0  0  0  0  0  0
   36.6170   28.4860   50.7130 H   0  0  0  0  0  0  0  0  0  0  0  0
   36.2320   31.5240   47.8140 H   0  0  0  0  0  0  0  0  0  0  0  0
   32.1980   27.4530   48.4840 C   0  0  0  0  0  0  0  0  0  0  0  0
   32.9910   28.3900   47.8180 C   0  0  0  0  0  0  0  0  0  0  0  0
   32.5550   28.7820   46.5720 C   0  0  0  0  0  0  0  0  0  0  0  0
   31.3980   28.2570   46.0440 N   0  0  0  0  0  0  0  0  0  0  0  0
   30.6780   27.3420   46.7650 C   0  0  0  0  0  0  0  0  0  0  0  0
   31.0630   26.9300   47.9850 N   0  0  0  0  0  0  0  0  0  0  0  0
   32.4920   27.1110   49.4640 H   0  0  0  0  0  0  0  0  0  0  0  0
   33.1350   29.5110   46.0110 H   0  0  0  0  0  0  0  0  0  0  0  0
   29.7880   27.0310   46.1940 H   0  0  0  0  0  0  0  0  0  0  0  0
  1  2  1  0  0  0  0
  1 23  1  0  0  0  0
  2  6  1  0  0  0  0
  3  7  1  0  0  0  0
  3  2  2  0  0  0  0
  4  5  1  0  0  0  0
  4  3  1  0  0  0  0
  5  1  2  0  0  0  0
  8 10  1  0  0  0  0
  8  4  1  0  0  0  0
  9  8  1  0  0  0  0
 11 12  1  0  0  0  0
 11 13  1  0  0  0  0
 11  8  1  0  0  0  0
 14 11  1  0  0  0  0
 15 14  1  0  0  0  0
 15 16  1  0  0  0  0
 17 19  1  0  0  0  0
 17 15  1  0  0  0  0
 18 17  1  0  0  0  0
 19 20  1  0  0  0  0
 19 21  1  0  0  0  0
 22 21  1  0  0  0  0
 22 14  1  0  0  0  0
 24 25  1  0  0  0  0
 25 30  1  0  0  0  0
 25 26  2  0  0  0  0
 26 31  1  0  0  0  0
 27 23  1  0  0  0  0
 27 26  1  0  0  0  0
 28 27  2  0  0  0  0
 29 28  1  0  0  0  0
 29 24  2  0  0  0  0
 32 28  1  0  0  0  0
 33 39  1  0  0  0  0
 34 24  1  0  0  0  0
 34 33  2  0  0  0  0
 35 34  1  0  0  0  0
 36 35  2  0  0  0  0
 36 37  1  0  0  0  0
 37 38  2  0  0  0  0
 38 33  1  0  0  0  0
 40 35  1  0  0  0  0
 41 37  1  0  0  0  0
M  END
>  <minimizedAffinity>
-6.05969524

>  <minimizedRMSD>
0.98214525

$$$$
