
 OpenBabel03272509523D

 43 46  0  0  0  0  0  0  0  0999 V2000
   34.4450   28.6350   48.2080 C   0  0  0  0  0  0  0  0  0  0  0  0
   33.8690   29.5920   48.2810 H   0  0  0  0  0  0  0  0  0  0  0  0
   35.2710   28.7770   47.4760 H   0  0  0  0  0  0  0  0  0  0  0  0
   33.5800   27.4980   47.7530 C   0  0  0  0  0  0  0  0  0  0  0  0
   33.6400   26.6090   48.4170 H   0  0  0  0  0  0  0  0  0  0  0  0
   33.8780   27.1380   46.7320 H   0  0  0  0  0  0  0  0  0  0  0  0
   32.1540   27.8900   47.6260 C   0  0  0  0  0  0  0  0  0  0  0  0
   31.3040   27.6320   48.6890 C   0  0  0  0  0  0  0  0  0  0  0  0
   29.9800   27.9560   48.6630 C   0  0  0  0  0  0  0  0  0  0  0  0
   29.4760   28.5390   47.5880 N   0  0  0  0  0  0  0  0  0  0  0  0
   30.3050   28.7980   46.5350 C   0  0  0  0  0  0  0  0  0  0  0  0
   31.6210   28.4890   46.5310 N   0  0  0  0  0  0  0  0  0  0  0  0
   31.7130   27.1490   49.5860 H   0  0  0  0  0  0  0  0  0  0  0  0
   29.3480   27.7380   49.5130 H   0  0  0  0  0  0  0  0  0  0  0  0
   29.8040   29.4240   45.3580 N   0  0  0  0  0  0  0  0  0  0  0  0
   28.5600   29.0430   44.7130 C   0  0  0  0  0  3  0  0  0  0  0  0
   27.7220   28.9660   45.4180 H   0  0  0  0  0  0  0  0  0  0  0  0
   28.2910   30.0850   43.6390 C   0  0  0  0  0  3  0  0  0  0  0  0
   28.8740   29.9140   42.7280 H   0  0  0  0  0  0  0  0  0  0  0  0
   28.4260   31.4220   44.1380 N   0  0  0  0  0  0  0  0  0  0  0  0
   27.6100   31.5840   44.7850 H   0  0  0  0  0  0  0  0  0  0  0  0
   29.6810   31.7240   44.7520 C   0  0  0  0  0  2  0  0  0  0  0  0
   30.5640   30.5040   44.7570 C   0  0  0  0  0  2  0  0  0  0  0  0
   35.0130   28.3450   49.4850 O   0  0  0  0  0  0  0  0  0  0  0  0
   37.3400   30.1810   51.5410 C   0  0  0  0  0  0  0  0  0  0  0  0
   38.0690   30.8740   50.5320 C   0  0  0  0  0  0  0  0  0  0  0  0
   37.6980   30.6510   49.2200 C   0  0  0  0  0  0  0  0  0  0  0  0
   36.6570   29.7800   48.9950 N   0  0  0  0  0  0  0  0  0  0  0  0
   36.0010   29.1530   49.9620 C   0  0  0  0  0  0  0  0  0  0  0  0
   36.3430   29.3520   51.2490 N   0  0  0  0  0  0  0  0  0  0  0  0
   37.6820   30.4020   52.5420 H   0  0  0  0  0  0  0  0  0  0  0  0
   38.8770   31.5490   50.7180 H   0  0  0  0  0  0  0  0  0  0  0  0
   38.9550   33.2550   49.0210 F   0  0  0  0  0  0  0  0  0  0  0  0
   38.9090   32.4700   47.9470 C   0  0  0  0  0  0  0  0  0  0  0  0
   38.3180   31.2620   48.0660 C   0  0  0  0  0  0  0  0  0  0  0  0
   38.3250   30.5190   46.8800 C   0  0  0  0  0  0  0  0  0  0  0  0
   38.8820   30.9840   45.7130 C   0  0  0  0  0  0  0  0  0  0  0  0
   39.4710   32.2270   45.6550 C   0  0  0  0  0  0  0  0  0  0  0  0
   39.4790   32.9740   46.8020 C   0  0  0  0  0  0  0  0  0  0  0  0
   37.8920   29.5310   46.8060 H   0  0  0  0  0  0  0  0  0  0  0  0
   38.8840   30.4030   44.7960 H   0  0  0  0  0  0  0  0  0  0  0  0
   39.9040   32.5780   44.7320 H   0  0  0  0  0  0  0  0  0  0  0  0
   39.9320   33.9390   46.7700 H   0  0  0  0  0  0  0  0  0  0  0  0
  1  2  1  0  0  0  0
  1 24  1  0  0  0  0
  3  1  1  0  0  0  0
  4  1  1  0  0  0  0
  4  5  1  0  0  0  0
  6  4  1  0  0  0  0
  7  4  1  0  0  0  0
  7  8  1  0  0  0  0
  8 13  1  0  0  0  0
  9  8  2  0  0  0  0
  9 14  1  0  0  0  0
 10  9  1  0  0  0  0
 11 10  2  0  0  0  0
 12 11  1  0  0  0  0
 12  7  2  0  0  0  0
 15 11  1  0  0  0  0
 16 15  1  0  0  0  0
 16 17  1  0  0  0  0
 18 20  1  0  0  0  0
 18 16  1  0  0  0  0
 19 18  1  0  0  0  0
 20 22  1  0  0  0  0
 20 21  1  0  0  0  0
 22 23  1  0  0  0  0
 23 15  1  0  0  0  0
 24 29  1  0  0  0  0
 25 31  1  0  0  0  0
 26 32  1  0  0  0  0
 26 25  2  0  0  0  0
 27 26  1  0  0  0  0
 28 27  2  0  0  0  0
 28 29  1  0  0  0  0
 29 30  2  0  0  0  0
 30 25  1  0  0  0  0
 34 35  1  0  0  0  0
 34 33  1  0  0  0  0
 35 27  1  0  0  0  0
 36 35  2  0  0  0  0
 37 36  1  0  0  0  0
 38 37  2  0  0  0  0
 38 39  1  0  0  0  0
 39 34  2  0  0  0  0
 40 36  1  0  0  0  0
 41 37  1  0  0  0  0
 42 38  1  0  0  0  0
 43 39  1  0  0  0  0
M  END
>  <minimizedAffinity>
-6.70005417

>  <minimizedRMSD>
0.323192745

$$$$
