
 OpenBabel03272509523D

 43 46  0  0  0  0  0  0  0  0999 V2000
   34.4340   28.6390   48.1660 C   0  0  0  0  0  0  0  0  0  0  0  0
   33.8750   29.6060   48.2350 H   0  0  0  0  0  0  0  0  0  0  0  0
   35.2630   28.7630   47.4350 H   0  0  0  0  0  0  0  0  0  0  0  0
   33.5490   27.5170   47.7150 C   0  0  0  0  0  0  0  0  0  0  0  0
   33.6900   26.5830   48.3010 H   0  0  0  0  0  0  0  0  0  0  0  0
   33.7510   27.2390   46.6450 H   0  0  0  0  0  0  0  0  0  0  0  0
   32.1110   27.8800   47.7570 C   0  0  0  0  0  0  0  0  0  0  0  0
   31.3760   27.5270   48.8770 C   0  0  0  0  0  0  0  0  0  0  0  0
   30.0500   27.8180   49.0050 C   0  0  0  0  0  0  0  0  0  0  0  0
   29.4310   28.4620   48.0300 N   0  0  0  0  0  0  0  0  0  0  0  0
   30.1450   28.8150   46.9230 C   0  0  0  0  0  0  0  0  0  0  0  0
   31.4590   28.5410   46.7660 N   0  0  0  0  0  0  0  0  0  0  0  0
   31.8810   26.9920   49.6920 H   0  0  0  0  0  0  0  0  0  0  0  0
   29.5110   27.5260   49.8960 H   0  0  0  0  0  0  0  0  0  0  0  0
   29.5170   29.5100   45.8480 N   0  0  0  0  0  0  0  0  0  0  0  0
   30.1040   30.6580   45.1840 C   0  0  0  0  0  3  0  0  0  0  0  0
   31.1490   30.4930   44.8920 H   0  0  0  0  0  0  0  0  0  0  0  0
   29.2280   30.9560   43.9770 C   0  0  0  0  0  3  0  0  0  0  0  0
   28.3200   31.5080   44.2390 H   0  0  0  0  0  0  0  0  0  0  0  0
   28.9550   29.7800   43.2050 N   0  0  0  0  0  0  0  0  0  0  0  0
   29.8610   29.5110   42.7360 H   0  0  0  0  0  0  0  0  0  0  0  0
   28.3710   28.6930   43.9270 C   0  0  0  0  0  2  0  0  0  0  0  0
   28.2190   29.0590   45.3810 C   0  0  0  0  0  2  0  0  0  0  0  0
   34.9940   28.3430   49.4450 O   0  0  0  0  0  0  0  0  0  0  0  0
   37.3150   30.1670   51.5200 C   0  0  0  0  0  0  0  0  0  0  0  0
   38.0520   30.8600   50.5170 C   0  0  0  0  0  0  0  0  0  0  0  0
   37.6880   30.6420   49.2020 C   0  0  0  0  0  0  0  0  0  0  0  0
   36.6450   29.7750   48.9690 N   0  0  0  0  0  0  0  0  0  0  0  0
   35.9820   29.1470   49.9300 C   0  0  0  0  0  0  0  0  0  0  0  0
   36.3170   29.3420   51.2200 N   0  0  0  0  0  0  0  0  0  0  0  0
   37.6520   30.3840   52.5230 H   0  0  0  0  0  0  0  0  0  0  0  0
   38.8610   31.5330   50.7100 H   0  0  0  0  0  0  0  0  0  0  0  0
   38.9480   33.2450   49.0160 F   0  0  0  0  0  0  0  0  0  0  0  0
   38.9090   32.4620   47.9400 C   0  0  0  0  0  0  0  0  0  0  0  0
   38.3160   31.2540   48.0530 C   0  0  0  0  0  0  0  0  0  0  0  0
   38.3300   30.5130   46.8660 C   0  0  0  0  0  0  0  0  0  0  0  0
   38.8950   30.9790   45.7040 C   0  0  0  0  0  0  0  0  0  0  0  0
   39.4870   32.2220   45.6510 C   0  0  0  0  0  0  0  0  0  0  0  0
   39.4870   32.9670   46.8000 C   0  0  0  0  0  0  0  0  0  0  0  0
   37.8970   29.5250   46.7880 H   0  0  0  0  0  0  0  0  0  0  0  0
   38.9040   30.4000   44.7860 H   0  0  0  0  0  0  0  0  0  0  0  0
   39.9260   32.5740   44.7320 H   0  0  0  0  0  0  0  0  0  0  0  0
   39.9420   33.9320   46.7720 H   0  0  0  0  0  0  0  0  0  0  0  0
  1  2  1  0  0  0  0
  1 24  1  0  0  0  0
  3  1  1  0  0  0  0
  4  7  1  0  0  0  0
  4  1  1  0  0  0  0
  4  5  1  0  0  0  0
  6  4  1  0  0  0  0
  7  8  1  0  0  0  0
  8  9  2  0  0  0  0
  8 13  1  0  0  0  0
  9 14  1  0  0  0  0
 10  9  1  0  0  0  0
 11 10  2  0  0  0  0
 12 11  1  0  0  0  0
 12  7  2  0  0  0  0
 15 11  1  0  0  0  0
 16 15  1  0  0  0  0
 17 16  1  0  0  0  0
 18 19  1  0  0  0  0
 18 16  1  0  0  0  0
 20 22  1  0  0  0  0
 20 18  1  0  0  0  0
 21 20  1  0  0  0  0
 22 23  1  0  0  0  0
 23 15  1  0  0  0  0
 24 29  1  0  0  0  0
 25 31  1  0  0  0  0
 26 32  1  0  0  0  0
 26 25  2  0  0  0  0
 27 26  1  0  0  0  0
 28 27  2  0  0  0  0
 28 29  1  0  0  0  0
 29 30  2  0  0  0  0
 30 25  1  0  0  0  0
 34 35  1  0  0  0  0
 34 33  1  0  0  0  0
 35 27  1  0  0  0  0
 36 35  2  0  0  0  0
 37 36  1  0  0  0  0
 38 37  2  0  0  0  0
 38 39  1  0  0  0  0
 39 34  2  0  0  0  0
 40 36  1  0  0  0  0
 41 37  1  0  0  0  0
 42 38  1  0  0  0  0
 43 39  1  0  0  0  0
M  END
>  <minimizedAffinity>
-6.77021027

>  <minimizedRMSD>
0.124910474

$$$$
