
 OpenBabel03272510133D

 41 44  0  0  0  0  0  0  0  0999 V2000
   38.3910   31.6300   48.9340 C   0  0  0  0  0  0  0  0  0  0  0  0
   38.5330   32.9060   49.4820 C   0  0  0  0  0  0  0  0  0  0  0  0
   39.1670   33.7090   48.5460 C   0  0  0  0  0  0  0  0  0  0  0  0
   39.3940   32.9260   47.4730 N   0  0  0  0  0  0  0  0  0  0  0  0
   38.9380   31.7150   47.7050 N   0  0  0  0  0  0  0  0  0  0  0  0
   38.2630   33.3660   50.4360 H   0  0  0  0  0  0  0  0  0  0  0  0
   39.4520   34.7640   48.6070 H   0  0  0  0  0  0  0  0  0  0  0  0
   40.0340   33.3230   46.2170 C   0  0  0  0  0  0  0  0  0  0  0  0
   39.4290   34.0100   45.6440 H   0  0  0  0  0  0  0  0  0  0  0  0
   40.9760   33.8490   46.5640 H   0  0  0  0  0  0  0  0  0  0  0  0
   40.4980   32.0780   45.5420 C   0  0  0  0  0  0  0  0  0  0  0  0
   41.5700   31.8490   45.7430 H   0  0  0  0  0  0  0  0  0  0  0  0
   39.9560   31.1570   45.8880 H   0  0  0  0  0  0  0  0  0  0  0  0
   40.2740   32.2020   44.1060 N   0  0  0  0  0  0  0  0  0  0  0  0
   40.4550   30.8820   43.4760 C   0  0  0  0  0  3  0  0  0  0  0  0
   40.3390   30.0730   44.1910 H   0  0  0  0  0  0  0  0  0  0  0  0
   39.5400   30.7530   42.2700 C   0  0  0  0  0  3  0  0  0  0  0  0
   39.8050   29.7950   41.7840 H   0  0  0  0  0  0  0  0  0  0  0  0
   38.1470   30.6520   42.6990 N   0  0  0  0  0  0  0  0  0  0  0  0
   37.8640   29.6620   42.8850 H   0  0  0  0  0  0  0  0  0  0  0  0
   37.9140   31.4980   43.8560 C   0  0  0  0  0  2  0  0  0  0  0  0
   38.9060   32.6530   43.8420 C   0  0  0  0  0  2  0  0  0  0  0  0
   37.7740   30.7200   49.7560 O   0  0  0  0  0  0  0  0  0  0  0  0
   34.1780   28.9510   48.4260 C   0  0  0  0  0  0  0  0  0  0  0  0
   34.9130   28.3990   49.4220 C   0  0  0  0  0  0  0  0  0  0  0  0
   36.0890   28.9100   49.9110 C   0  0  0  0  0  0  0  0  0  0  0  0
   36.6040   30.0610   49.3910 C   0  0  0  0  0  0  0  0  0  0  0  0
   35.8540   30.6460   48.3590 C   0  0  0  0  0  0  0  0  0  0  0  0
   34.7020   30.1140   47.9050 N   0  0  0  0  0  0  0  0  0  0  0  0
   34.5750   27.4710   49.8990 H   0  0  0  0  0  0  0  0  0  0  0  0
   36.6700   28.4560   50.7090 H   0  0  0  0  0  0  0  0  0  0  0  0
   36.2000   31.5620   47.8960 H   0  0  0  0  0  0  0  0  0  0  0  0
   32.0820   27.6400   48.6600 C   0  0  0  0  0  0  0  0  0  0  0  0
   32.9660   28.4210   47.9130 C   0  0  0  0  0  0  0  0  0  0  0  0
   32.6100   28.6620   46.6050 C   0  0  0  0  0  0  0  0  0  0  0  0
   31.4400   28.1450   46.0970 N   0  0  0  0  0  0  0  0  0  0  0  0
   30.6280   27.3880   46.9000 C   0  0  0  0  0  0  0  0  0  0  0  0
   30.9340   27.1270   48.1820 N   0  0  0  0  0  0  0  0  0  0  0  0
   32.3110   27.4190   49.6920 H   0  0  0  0  0  0  0  0  0  0  0  0
   33.2620   29.2670   45.9790 H   0  0  0  0  0  0  0  0  0  0  0  0
   29.7420   27.0590   46.3330 H   0  0  0  0  0  0  0  0  0  0  0  0
  1  2  1  0  0  0  0
  1 23  1  0  0  0  0
  2  6  1  0  0  0  0
  3  7  1  0  0  0  0
  3  2  2  0  0  0  0
  4  5  1  0  0  0  0
  4  3  1  0  0  0  0
  5  1  2  0  0  0  0
  8 10  1  0  0  0  0
  8  4  1  0  0  0  0
  9  8  1  0  0  0  0
 11 12  1  0  0  0  0
 11 13  1  0  0  0  0
 11  8  1  0  0  0  0
 14 11  1  0  0  0  0
 15 14  1  0  0  0  0
 15 16  1  0  0  0  0
 17 19  1  0  0  0  0
 17 15  1  0  0  0  0
 18 17  1  0  0  0  0
 19 20  1  0  0  0  0
 19 21  1  0  0  0  0
 22 21  1  0  0  0  0
 22 14  1  0  0  0  0
 24 25  1  0  0  0  0
 25 30  1  0  0  0  0
 25 26  2  0  0  0  0
 26 31  1  0  0  0  0
 27 23  1  0  0  0  0
 27 26  1  0  0  0  0
 28 27  2  0  0  0  0
 29 28  1  0  0  0  0
 29 24  2  0  0  0  0
 32 28  1  0  0  0  0
 33 39  1  0  0  0  0
 34 24  1  0  0  0  0
 34 33  2  0  0  0  0
 35 34  1  0  0  0  0
 36 35  2  0  0  0  0
 36 37  1  0  0  0  0
 37 38  2  0  0  0  0
 38 33  1  0  0  0  0
 40 35  1  0  0  0  0
 41 37  1  0  0  0  0
M  END
>  <minimizedAffinity>
-6.05863762

>  <minimizedRMSD>
1.0639497

$$$$
