
 OpenBabel03272509523D

 43 46  0  0  0  0  0  0  0  0999 V2000
   34.4500   28.6660   48.2160 C   0  0  0  0  0  0  0  0  0  0  0  0
   33.8350   29.5980   48.2920 H   0  0  0  0  0  0  0  0  0  0  0  0
   35.2830   28.8510   47.5030 H   0  0  0  0  0  0  0  0  0  0  0  0
   33.6400   27.5030   47.7290 C   0  0  0  0  0  0  0  0  0  0  0  0
   33.7510   26.5950   48.3600 H   0  0  0  0  0  0  0  0  0  0  0  0
   33.9450   27.1950   46.6930 H   0  0  0  0  0  0  0  0  0  0  0  0
   32.1940   27.8250   47.6290 C   0  0  0  0  0  0  0  0  0  0  0  0
   31.3900   27.5860   48.7300 C   0  0  0  0  0  0  0  0  0  0  0  0
   30.0520   27.8500   48.7310 C   0  0  0  0  0  0  0  0  0  0  0  0
   29.4900   28.3540   47.6460 N   0  0  0  0  0  0  0  0  0  0  0  0
   30.2730   28.5940   46.5540 C   0  0  0  0  0  0  0  0  0  0  0  0
   31.6010   28.3430   46.5230 N   0  0  0  0  0  0  0  0  0  0  0  0
   31.8470   27.1680   49.6370 H   0  0  0  0  0  0  0  0  0  0  0  0
   29.4570   27.6500   49.6120 H   0  0  0  0  0  0  0  0  0  0  0  0
   29.7090   29.1350   45.3640 N   0  0  0  0  0  0  0  0  0  0  0  0
   28.8960   28.3670   44.4390 C   0  0  0  0  0  3  0  0  0  0  0  0
   28.1020   27.8000   44.9410 H   0  0  0  0  0  0  0  0  0  0  0  0
   28.3230   29.3580   43.4380 C   0  0  0  0  0  3  0  0  0  0  0  0
   29.0400   29.6320   42.6570 H   0  0  0  0  0  0  0  0  0  0  0  0
   27.7430   30.5010   44.0790 N   0  0  0  0  0  0  0  0  0  0  0  0
   26.8640   30.1630   44.5540 H   0  0  0  0  0  0  0  0  0  0  0  0
   28.6070   31.2100   44.9700 C   0  0  0  0  0  2  0  0  0  0  0  0
   29.9490   30.5290   45.0430 C   0  0  0  0  0  2  0  0  0  0  0  0
   35.0050   28.3790   49.5000 O   0  0  0  0  0  0  0  0  0  0  0  0
   37.3590   30.1840   51.5540 C   0  0  0  0  0  0  0  0  0  0  0  0
   38.0890   30.8750   50.5440 C   0  0  0  0  0  0  0  0  0  0  0  0
   37.7090   30.6620   49.2320 C   0  0  0  0  0  0  0  0  0  0  0  0
   36.6590   29.8020   49.0090 N   0  0  0  0  0  0  0  0  0  0  0  0
   36.0020   29.1760   49.9760 C   0  0  0  0  0  0  0  0  0  0  0  0
   36.3530   29.3660   51.2630 N   0  0  0  0  0  0  0  0  0  0  0  0
   37.7080   30.3960   52.5530 H   0  0  0  0  0  0  0  0  0  0  0  0
   38.9040   31.5420   50.7290 H   0  0  0  0  0  0  0  0  0  0  0  0
   38.9430   33.2770   49.0270 F   0  0  0  0  0  0  0  0  0  0  0  0
   38.9100   32.4860   47.9560 C   0  0  0  0  0  0  0  0  0  0  0  0
   38.3290   31.2730   48.0790 C   0  0  0  0  0  0  0  0  0  0  0  0
   38.3490   30.5240   46.8970 C   0  0  0  0  0  0  0  0  0  0  0  0
   38.9060   30.9880   45.7300 C   0  0  0  0  0  0  0  0  0  0  0  0
   39.4850   32.2370   45.6680 C   0  0  0  0  0  0  0  0  0  0  0  0
   39.4800   32.9900   46.8120 C   0  0  0  0  0  0  0  0  0  0  0  0
   37.9250   29.5310   46.8260 H   0  0  0  0  0  0  0  0  0  0  0  0
   38.9190   30.4030   44.8150 H   0  0  0  0  0  0  0  0  0  0  0  0
   39.9190   32.5870   44.7460 H   0  0  0  0  0  0  0  0  0  0  0  0
   39.9250   33.9580   46.7760 H   0  0  0  0  0  0  0  0  0  0  0  0
  1  2  1  0  0  0  0
  1 24  1  0  0  0  0
  3  1  1  0  0  0  0
  4  1  1  0  0  0  0
  4  5  1  0  0  0  0
  6  4  1  0  0  0  0
  7  4  1  0  0  0  0
  7  8  1  0  0  0  0
  8  9  2  0  0  0  0
  8 13  1  0  0  0  0
  9 14  1  0  0  0  0
 10  9  1  0  0  0  0
 11 10  2  0  0  0  0
 12 11  1  0  0  0  0
 12  7  2  0  0  0  0
 15 11  1  0  0  0  0
 16 17  1  0  0  0  0
 16 15  1  0  0  0  0
 18 20  1  0  0  0  0
 18 16  1  0  0  0  0
 19 18  1  0  0  0  0
 20 21  1  0  0  0  0
 20 22  1  0  0  0  0
 22 23  1  0  0  0  0
 23 15  1  0  0  0  0
 24 29  1  0  0  0  0
 25 31  1  0  0  0  0
 26 32  1  0  0  0  0
 26 25  2  0  0  0  0
 27 26  1  0  0  0  0
 28 27  2  0  0  0  0
 28 29  1  0  0  0  0
 29 30  2  0  0  0  0
 30 25  1  0  0  0  0
 34 35  1  0  0  0  0
 34 33  1  0  0  0  0
 35 27  1  0  0  0  0
 36 35  2  0  0  0  0
 37 36  1  0  0  0  0
 38 37  2  0  0  0  0
 38 39  1  0  0  0  0
 39 34  2  0  0  0  0
 40 36  1  0  0  0  0
 41 37  1  0  0  0  0
 42 38  1  0  0  0  0
 43 39  1  0  0  0  0
M  END
>  <minimizedAffinity>
-6.70896196

>  <minimizedRMSD>
0.407826722

$$$$
