
 OpenBabel03272510133D

 41 44  0  0  0  0  0  0  0  0999 V2000
   38.3940   31.6330   48.9250 C   0  0  0  0  0  0  0  0  0  0  0  0
   38.5420   32.9090   49.4720 C   0  0  0  0  0  0  0  0  0  0  0  0
   39.1730   33.7090   48.5330 C   0  0  0  0  0  0  0  0  0  0  0  0
   39.3920   32.9260   47.4580 N   0  0  0  0  0  0  0  0  0  0  0  0
   38.9350   31.7160   47.6930 N   0  0  0  0  0  0  0  0  0  0  0  0
   38.2780   33.3690   50.4270 H   0  0  0  0  0  0  0  0  0  0  0  0
   39.4610   34.7640   48.5920 H   0  0  0  0  0  0  0  0  0  0  0  0
   40.0270   33.3200   46.1990 C   0  0  0  0  0  0  0  0  0  0  0  0
   39.4040   33.9790   45.6110 H   0  0  0  0  0  0  0  0  0  0  0  0
   40.9510   33.8810   46.5410 H   0  0  0  0  0  0  0  0  0  0  0  0
   40.5320   32.0790   45.5470 C   0  0  0  0  0  0  0  0  0  0  0  0
   41.6230   31.9170   45.7090 H   0  0  0  0  0  0  0  0  0  0  0  0
   40.0590   31.1430   45.9490 H   0  0  0  0  0  0  0  0  0  0  0  0
   40.2410   32.1370   44.1190 N   0  0  0  0  0  0  0  0  0  0  0  0
   40.4810   30.8110   43.5260 C   0  0  0  0  0  3  0  0  0  0  0  0
   40.4480   30.0220   44.2720 H   0  0  0  0  0  0  0  0  0  0  0  0
   39.5280   30.5800   42.3650 C   0  0  0  0  0  3  0  0  0  0  0  0
   39.8350   29.6240   41.9000 H   0  0  0  0  0  0  0  0  0  0  0  0
   38.1630   30.4060   42.8580 N   0  0  0  0  0  0  0  0  0  0  0  0
   37.9530   29.4070   43.0880 H   0  0  0  0  0  0  0  0  0  0  0  0
   37.9250   31.2770   43.9950 C   0  0  0  0  0  2  0  0  0  0  0  0
   38.8380   32.4910   43.9000 C   0  0  0  0  0  2  0  0  0  0  0  0
   37.7790   30.7240   49.7510 O   0  0  0  0  0  0  0  0  0  0  0  0
   34.1780   28.9550   48.4370 C   0  0  0  0  0  0  0  0  0  0  0  0
   34.9250   28.3950   49.4190 C   0  0  0  0  0  0  0  0  0  0  0  0
   36.1040   28.9050   49.9020 C   0  0  0  0  0  0  0  0  0  0  0  0
   36.6090   30.0640   49.3900 C   0  0  0  0  0  0  0  0  0  0  0  0
   35.8450   30.6570   48.3710 C   0  0  0  0  0  0  0  0  0  0  0  0
   34.6920   30.1250   47.9230 N   0  0  0  0  0  0  0  0  0  0  0  0
   34.5960   27.4600   49.8900 H   0  0  0  0  0  0  0  0  0  0  0  0
   36.6940   28.4450   50.6900 H   0  0  0  0  0  0  0  0  0  0  0  0
   36.1830   31.5800   47.9160 H   0  0  0  0  0  0  0  0  0  0  0  0
   32.0830   27.6420   48.6810 C   0  0  0  0  0  0  0  0  0  0  0  0
   32.9630   28.4240   47.9300 C   0  0  0  0  0  0  0  0  0  0  0  0
   32.6000   28.6670   46.6240 C   0  0  0  0  0  0  0  0  0  0  0  0
   31.4270   28.1510   46.1220 N   0  0  0  0  0  0  0  0  0  0  0  0
   30.6200   27.3920   46.9290 C   0  0  0  0  0  0  0  0  0  0  0  0
   30.9330   27.1300   48.2080 N   0  0  0  0  0  0  0  0  0  0  0  0
   32.3180   27.4210   49.7110 H   0  0  0  0  0  0  0  0  0  0  0  0
   33.2480   29.2730   45.9950 H   0  0  0  0  0  0  0  0  0  0  0  0
   29.7310   27.0640   46.3660 H   0  0  0  0  0  0  0  0  0  0  0  0
  1  2  1  0  0  0  0
  1 23  1  0  0  0  0
  2  6  1  0  0  0  0
  3  7  1  0  0  0  0
  3  2  2  0  0  0  0
  4  5  1  0  0  0  0
  4  3  1  0  0  0  0
  5  1  2  0  0  0  0
  8 10  1  0  0  0  0
  8  4  1  0  0  0  0
  9  8  1  0  0  0  0
 11 12  1  0  0  0  0
 11 13  1  0  0  0  0
 11  8  1  0  0  0  0
 14 11  1  0  0  0  0
 15 14  1  0  0  0  0
 15 16  1  0  0  0  0
 17 19  1  0  0  0  0
 17 15  1  0  0  0  0
 18 17  1  0  0  0  0
 19 20  1  0  0  0  0
 19 21  1  0  0  0  0
 22 21  1  0  0  0  0
 22 14  1  0  0  0  0
 24 25  1  0  0  0  0
 25 30  1  0  0  0  0
 25 26  2  0  0  0  0
 26 31  1  0  0  0  0
 27 23  1  0  0  0  0
 27 26  1  0  0  0  0
 28 27  2  0  0  0  0
 29 28  1  0  0  0  0
 29 24  2  0  0  0  0
 32 28  1  0  0  0  0
 33 39  1  0  0  0  0
 34 24  1  0  0  0  0
 34 33  2  0  0  0  0
 35 34  1  0  0  0  0
 36 35  2  0  0  0  0
 36 37  1  0  0  0  0
 37 38  2  0  0  0  0
 38 33  1  0  0  0  0
 40 35  1  0  0  0  0
 41 37  1  0  0  0  0
M  END
>  <minimizedAffinity>
-6.03113842

>  <minimizedRMSD>
1.748083

$$$$
