
 OpenBabel03272506373D

 37 39  0  0  1  0  0  0  0  0999 V2000
   34.5340   29.6460   50.0000 O   0  0  0  0  0  0  0  0  0  0  0  0
   34.3440   29.6160   48.7720 C   0  0  0  0  0  0  0  0  0  0  0  0
   35.1600   30.3890   47.8600 C   0  0  2  0  0  0  0  0  0  0  0  0
   34.6710   29.8260   46.4820 C   0  0  0  0  0  0  0  0  0  0  0  0
   33.2560   29.4060   46.7910 C   0  0  0  0  0  0  0  0  0  0  0  0
   33.3280   28.8380   48.1310 N   0  0  0  0  0  0  0  0  0  0  0  0
   34.9830   31.4620   47.8170 H   0  0  0  0  0  0  0  0  0  0  0  0
   34.7080   30.6300   45.7370 H   0  0  0  0  0  0  0  0  0  0  0  0
   35.2780   28.9410   46.2170 H   0  0  0  0  0  0  0  0  0  0  0  0
   32.5280   30.2220   46.7200 H   0  0  0  0  0  0  0  0  0  0  0  0
   32.9540   28.5920   46.1100 H   0  0  0  0  0  0  0  0  0  0  0  0
   32.5340   27.7380   48.6470 C   0  0  0  0  0  0  0  0  0  0  0  0
   32.9260   27.5240   49.6620 H   0  0  0  0  0  0  0  0  0  0  0  0
   31.5010   28.0750   48.7700 H   0  0  0  0  0  0  0  0  0  0  0  0
   32.5610   26.5540   47.8860 N   0  0  0  0  0  0  0  0  0  0  0  0
   33.7810   26.0450   47.4250 C   0  0  0  0  0  0  0  0  0  0  0  0
   34.6650   26.6300   47.7430 H   0  0  0  0  0  0  0  0  0  0  0  0
   33.8830   25.8100   45.9450 C   0  0  0  0  0  0  0  0  0  0  0  0
   34.6860   25.0470   45.7870 H   0  0  0  0  0  0  0  0  0  0  0  0
   32.6840   25.2790   45.3630 N   0  0  0  0  0  0  0  0  0  0  0  0
   32.8720   24.4540   44.7370 H   0  0  0  0  0  0  0  0  0  0  0  0
   31.7120   24.9310   46.3960 C   0  0  0  0  0  0  0  0  0  0  0  0
   31.4020   26.2570   47.1030 C   0  0  0  0  0  0  0  0  0  0  0  0
   36.5520   30.0820   47.9190 O   0  0  0  0  0  0  0  0  0  0  0  0
   37.4370   31.1470   48.0680 C   0  0  0  0  0  0  0  0  0  0  0  0
   37.5870   31.6520   49.3450 C   0  0  0  0  0  0  0  0  0  0  0  0
   38.4650   32.7170   49.5300 C   0  0  0  0  0  0  0  0  0  0  0  0
   39.1300   33.2090   48.4570 N   0  0  0  0  0  0  0  0  0  0  0  0
   38.9730   32.7050   47.2170 C   0  0  0  0  0  0  0  0  0  0  0  0
   38.1380   31.6940   47.0530 N   0  0  0  0  0  0  0  0  0  0  0  0
   40.5250   32.2900   45.4760 C   0  0  0  0  0  0  0  0  0  0  0  0
   40.6880   31.0750   45.7760 O   0  0  0  0  0  0  0  0  0  0  0  0
   39.6870   33.2500   46.1130 N   0  0  0  0  0  0  0  0  0  0  0  0
   37.0750   31.2840   50.2120 H   0  0  0  0  0  0  0  0  0  0  0  0
   38.6030   33.1350   50.5200 H   0  0  0  0  0  0  0  0  0  0  0  0
   41.1470   32.5120   44.6160 H   0  0  0  0  0  0  0  0  0  0  0  0
   39.6700   34.2220   45.7300 H   0  0  0  0  0  0  0  0  0  0  0  0
  2  1  2  0  0  0  0
  3  7  1  1  0  0  0
  3 24  1  0  0  0  0
  3  2  1  0  0  0  0
  4  5  1  0  0  0  0
  4  3  1  0  0  0  0
  5  6  1  0  0  0  0
  6 12  1  0  0  0  0
  6  2  1  0  0  0  0
  8  4  1  0  0  0  0
  9  4  1  0  0  0  0
 10  5  1  0  0  0  0
 11  5  1  0  0  0  0
 12 14  1  0  0  0  0
 12 13  1  0  0  0  0
 15 12  1  0  0  0  0
 16 17  1  0  0  0  0
 16 15  1  0  0  0  0
 18 16  1  0  0  0  0
 19 18  1  0  0  0  0
 20 18  1  0  0  0  0
 20 22  1  0  0  0  0
 21 20  1  0  0  0  0
 22 23  1  0  0  0  0
 23 15  1  0  0  0  0
 24 25  1  0  0  0  0
 25 26  1  0  0  0  0
 26 27  2  0  0  0  0
 26 34  1  0  0  0  0
 27 35  1  0  0  0  0
 28 27  1  0  0  0  0
 29 28  2  0  0  0  0
 30 29  1  0  0  0  0
 30 25  2  0  0  0  0
 31 32  2  0  0  0  0
 31 33  1  0  0  0  0
 33 29  1  0  0  0  0
 36 31  1  0  0  0  0
 37 33  1  0  0  0  0
M  END
>  <minimizedAffinity>
-5.47437954

>  <minimizedRMSD>
1.43696725

$$$$
