
 OpenBabel03272509523D

 43 46  0  0  0  0  0  0  0  0999 V2000
   34.4310   28.6450   48.1790 C   0  0  0  0  0  0  0  0  0  0  0  0
   33.8550   29.6000   48.2680 H   0  0  0  0  0  0  0  0  0  0  0  0
   35.2520   28.7960   47.4440 H   0  0  0  0  0  0  0  0  0  0  0  0
   33.5640   27.5130   47.7170 C   0  0  0  0  0  0  0  0  0  0  0  0
   33.6820   26.5920   48.3260 H   0  0  0  0  0  0  0  0  0  0  0  0
   33.8060   27.2150   46.6610 H   0  0  0  0  0  0  0  0  0  0  0  0
   32.1250   27.8760   47.6970 C   0  0  0  0  0  0  0  0  0  0  0  0
   31.3640   27.6120   48.8240 C   0  0  0  0  0  0  0  0  0  0  0  0
   30.0360   27.9100   48.8980 C   0  0  0  0  0  0  0  0  0  0  0  0
   29.4400   28.4740   47.8610 N   0  0  0  0  0  0  0  0  0  0  0  0
   30.1790   28.7400   46.7460 C   0  0  0  0  0  0  0  0  0  0  0  0
   31.4970   28.4560   46.6420 N   0  0  0  0  0  0  0  0  0  0  0  0
   31.8500   27.1440   49.6900 H   0  0  0  0  0  0  0  0  0  0  0  0
   29.4760   27.6870   49.7960 H   0  0  0  0  0  0  0  0  0  0  0  0
   29.5770   29.3460   45.6060 N   0  0  0  0  0  0  0  0  0  0  0  0
   28.1830   29.1680   45.2450 C   0  0  0  0  0  3  0  0  0  0  0  0
   27.5000   29.3240   46.0900 H   0  0  0  0  0  0  0  0  0  0  0  0
   27.8990   30.1420   44.1130 C   0  0  0  0  0  3  0  0  0  0  0  0
   28.2500   29.7760   43.1420 H   0  0  0  0  0  0  0  0  0  0  0  0
   28.3700   31.4640   44.4060 N   0  0  0  0  0  0  0  0  0  0  0  0
   27.7410   31.8440   45.1630 H   0  0  0  0  0  0  0  0  0  0  0  0
   29.7560   31.5610   44.7470 C   0  0  0  0  0  2  0  0  0  0  0  0
   30.3860   30.1920   44.7490 C   0  0  0  0  0  2  0  0  0  0  0  0
   35.0070   28.3400   49.4490 O   0  0  0  0  0  0  0  0  0  0  0  0
   37.3230   30.1730   51.5210 C   0  0  0  0  0  0  0  0  0  0  0  0
   38.0580   30.8650   50.5170 C   0  0  0  0  0  0  0  0  0  0  0  0
   37.6950   30.6440   49.2030 C   0  0  0  0  0  0  0  0  0  0  0  0
   36.6550   29.7740   48.9710 N   0  0  0  0  0  0  0  0  0  0  0  0
   35.9930   29.1470   49.9330 C   0  0  0  0  0  0  0  0  0  0  0  0
   36.3270   29.3450   51.2230 N   0  0  0  0  0  0  0  0  0  0  0  0
   37.6590   30.3920   52.5240 H   0  0  0  0  0  0  0  0  0  0  0  0
   38.8660   31.5400   50.7090 H   0  0  0  0  0  0  0  0  0  0  0  0
   38.9460   33.2520   49.0120 F   0  0  0  0  0  0  0  0  0  0  0  0
   38.9110   32.4650   47.9380 C   0  0  0  0  0  0  0  0  0  0  0  0
   38.3220   31.2560   48.0530 C   0  0  0  0  0  0  0  0  0  0  0  0
   38.3410   30.5120   46.8680 C   0  0  0  0  0  0  0  0  0  0  0  0
   38.9060   30.9770   45.7050 C   0  0  0  0  0  0  0  0  0  0  0  0
   39.4920   32.2220   45.6500 C   0  0  0  0  0  0  0  0  0  0  0  0
   39.4890   32.9700   46.7970 C   0  0  0  0  0  0  0  0  0  0  0  0
   37.9110   29.5220   46.7920 H   0  0  0  0  0  0  0  0  0  0  0  0
   38.9170   30.3950   44.7880 H   0  0  0  0  0  0  0  0  0  0  0  0
   39.9320   32.5730   44.7310 H   0  0  0  0  0  0  0  0  0  0  0  0
   39.9390   33.9360   46.7670 H   0  0  0  0  0  0  0  0  0  0  0  0
  1  2  1  0  0  0  0
  1 24  1  0  0  0  0
  3  1  1  0  0  0  0
  4  1  1  0  0  0  0
  4  5  1  0  0  0  0
  6  4  1  0  0  0  0
  7  4  1  0  0  0  0
  7  8  1  0  0  0  0
  8  9  2  0  0  0  0
  8 13  1  0  0  0  0
  9 14  1  0  0  0  0
 10  9  1  0  0  0  0
 11 10  2  0  0  0  0
 12 11  1  0  0  0  0
 12  7  2  0  0  0  0
 15 11  1  0  0  0  0
 16 15  1  0  0  0  0
 16 17  1  0  0  0  0
 18 20  1  0  0  0  0
 18 16  1  0  0  0  0
 19 18  1  0  0  0  0
 20 22  1  0  0  0  0
 20 21  1  0  0  0  0
 22 23  1  0  0  0  0
 23 15  1  0  0  0  0
 24 29  1  0  0  0  0
 25 31  1  0  0  0  0
 26 32  1  0  0  0  0
 26 25  2  0  0  0  0
 27 26  1  0  0  0  0
 28 27  2  0  0  0  0
 28 29  1  0  0  0  0
 29 30  2  0  0  0  0
 30 25  1  0  0  0  0
 34 35  1  0  0  0  0
 34 33  1  0  0  0  0
 35 27  1  0  0  0  0
 36 35  2  0  0  0  0
 37 36  1  0  0  0  0
 38 37  2  0  0  0  0
 38 39  1  0  0  0  0
 39 34  2  0  0  0  0
 40 36  1  0  0  0  0
 41 37  1  0  0  0  0
 42 38  1  0  0  0  0
 43 39  1  0  0  0  0
M  END
>  <minimizedAffinity>
-6.78900337

>  <minimizedRMSD>
0.214050144

$$$$
