
 OpenBabel03272508403D

 42 45  0  0  1  0  0  0  0  0999 V2000
   32.1820   30.8900   44.1130 N   0  0  0  0  0  0  0  0  0  0  0  0
   32.6440   30.6650   45.4780 C   0  0  0  0  0  0  0  0  0  0  0  0
   33.6690   29.6310   45.6140 C   0  0  2  0  0  0  0  0  0  0  0  0
   33.3390   28.4190   44.8130 N   0  0  0  0  0  0  0  0  0  0  0  0
   33.1510   28.8720   43.4210 C   0  0  0  0  0  0  0  0  0  0  0  0
   31.8540   29.6490   43.5010 C   0  0  0  0  0  0  0  0  0  0  0  0
   32.9170   31.6260   45.9060 H   0  0  0  0  0  0  0  0  0  0  0  0
   31.6870   30.2300   45.9290 H   0  0  0  0  0  0  0  0  0  0  0  0
   34.6540   29.8670   45.1700 H   0  0  0  0  0  0  0  0  0  0  0  0
   34.1380   27.7890   44.8260 H   0  0  0  0  0  0  0  0  0  0  0  0
   34.0020   29.4830   43.0970 H   0  0  0  0  0  0  0  0  0  0  0  0
   33.0430   27.9910   42.7830 H   0  0  0  0  0  0  0  0  0  0  0  0
   31.1190   29.0400   44.0590 H   0  0  0  0  0  0  0  0  0  0  0  0
   31.5030   29.8210   42.4740 H   0  0  0  0  0  0  0  0  0  0  0  0
   36.0250   30.7810   47.0130 Cl  0  0  0  0  0  0  0  0  0  0  0  0
   34.8380   29.7310   47.7840 C   0  0  0  0  0  0  0  0  0  0  0  0
   33.8200   29.2480   47.0070 C   0  0  0  0  0  0  0  0  0  0  0  0
   32.8020   28.4030   47.4790 C   0  0  0  0  0  0  0  0  0  0  0  0
   32.8890   28.0640   48.8380 C   0  0  0  0  0  0  0  0  0  0  0  0
   33.9280   28.5510   49.6370 C   0  0  0  0  0  0  0  0  0  0  0  0
   34.8780   29.3720   49.1020 C   0  0  0  0  0  0  0  0  0  0  0  0
   31.9330   27.9120   47.1170 H   0  0  0  0  0  0  0  0  0  0  0  0
   32.2240   27.4320   49.4110 H   0  0  0  0  0  0  0  0  0  0  0  0
   34.0390   28.3170   50.6930 H   0  0  0  0  0  0  0  0  0  0  0  0
   35.9390   29.8760   49.9060 N   0  0  0  0  0  0  0  0  0  0  0  0
   36.1370   29.3060   51.1980 C   0  0  0  0  0  0  0  0  0  0  0  0
   35.6920   28.3150   51.3210 H   0  0  0  0  0  0  0  0  0  0  0  0
   37.6170   29.2580   51.5030 C   0  0  0  0  0  0  0  0  0  0  0  0
   37.7560   29.1620   52.6010 H   0  0  0  0  0  0  0  0  0  0  0  0
   38.2680   30.4910   51.1270 N   0  0  0  0  0  0  0  0  0  0  0  0
   37.7790   31.2980   51.6100 H   0  0  0  0  0  0  0  0  0  0  0  0
   38.1670   30.7300   49.6920 C   0  0  0  0  0  0  0  0  0  0  0  0
   36.7170   30.9310   49.3180 C   0  0  0  0  0  0  0  0  0  0  0  0
   32.0820   32.1790   43.5400 C   0  0  0  0  0  0  0  0  0  0  0  0
   32.3480   32.4170   42.1920 C   0  0  0  0  0  0  0  0  0  0  0  0
   32.2220   33.7180   41.6990 C   0  0  0  0  0  0  0  0  0  0  0  0
   31.8370   34.7060   42.5890 N   0  0  0  0  0  0  0  0  0  0  0  0
   31.5920   34.4260   43.8850 C   0  0  0  0  0  0  0  0  0  0  0  0
   31.7070   33.1960   44.3620 N   0  0  0  0  0  0  0  0  0  0  0  0
   32.6390   31.5930   41.5810 H   0  0  0  0  0  0  0  0  0  0  0  0
   32.4210   33.9270   40.6570 H   0  0  0  0  0  0  0  0  0  0  0  0
   31.2990   35.2760   44.4840 H   0  0  0  0  0  0  0  0  0  0  0  0
  1  2  1  0  0  0  0
  2  3  1  0  0  0  0
  2  7  1  0  0  0  0
  2  8  1  0  0  0  0
  3  9  1  6  0  0  0
  3 17  1  0  0  0  0
  4 10  1  0  0  0  0
  4  3  1  0  0  0  0
  5  6  1  0  0  0  0
  5  4  1  0  0  0  0
  6 13  1  0  0  0  0
  6  1  1  0  0  0  0
 11  5  1  0  0  0  0
 12  5  1  0  0  0  0
 14  6  1  0  0  0  0
 15 16  1  0  0  0  0
 16 21  1  0  0  0  0
 17 18  1  0  0  0  0
 17 16  2  0  0  0  0
 18 19  2  0  0  0  0
 19 23  1  0  0  0  0
 19 20  1  0  0  0  0
 20 24  1  0  0  0  0
 21 20  2  0  0  0  0
 21 25  1  0  0  0  0
 22 18  1  0  0  0  0
 25 26  1  0  0  0  0
 26 27  1  0  0  0  0
 26 28  1  0  0  0  0
 28 29  1  0  0  0  0
 30 28  1  0  0  0  0
 30 31  1  0  0  0  0
 32 30  1  0  0  0  0
 33 32  1  0  0  0  0
 33 25  1  0  0  0  0
 34  1  1  0  0  0  0
 34 39  1  0  0  0  0
 35 34  2  0  0  0  0
 36 35  1  0  0  0  0
 36 37  2  0  0  0  0
 37 38  1  0  0  0  0
 38 39  2  0  0  0  0
 38 42  1  0  0  0  0
 40 35  1  0  0  0  0
 41 36  1  0  0  0  0
M  END
>  <minimizedAffinity>
-5.39642429

>  <minimizedRMSD>
3.82295871

$$$$
