
 OpenBabel03272503313D

 34 36  0  0  1  0  0  0  0  0999 V2000
   36.9610   27.1010   33.5710 C   0  0  0  0  0  0  0  0  0  0  0  0
   37.4790   26.5980   32.3730 C   0  0  0  0  0  0  0  0  0  0  0  0
   38.3510   25.5180   32.4530 C   0  0  0  0  0  0  0  0  0  0  0  0
   38.6290   25.0360   33.7090 N   0  0  0  0  0  0  0  0  0  0  0  0
   38.1230   25.5340   34.8270 C   0  0  0  0  0  0  0  0  0  0  0  0
   37.2800   26.5750   34.7700 N   0  0  0  0  0  0  0  0  0  0  0  0
   37.2280   27.0130   31.4120 H   0  0  0  0  0  0  0  0  0  0  0  0
   38.8040   25.0580   31.5860 H   0  0  0  0  0  0  0  0  0  0  0  0
   36.0600   28.2190   33.4670 N   0  0  0  0  0  0  0  0  0  0  0  0
   35.3760   28.8780   34.5380 C   0  0  0  0  0  0  0  0  0  0  0  0
   35.2130   30.3000   34.0010 C   0  0  2  0  0  0  0  0  0  0  0  0
   35.9470   30.3210   32.6700 C   0  0  0  0  0  0  0  0  0  0  0  0
   35.6830   28.8850   32.2450 C   0  0  0  0  0  0  0  0  0  0  0  0
   34.4220   28.4330   34.8320 H   0  0  0  0  0  0  0  0  0  0  0  0
   36.0760   28.9510   35.4190 H   0  0  0  0  0  0  0  0  0  0  0  0
   34.1460   30.4300   33.7910 H   0  0  0  0  0  0  0  0  0  0  0  0
   35.4850   31.0610   32.0010 H   0  0  0  0  0  0  0  0  0  0  0  0
   37.0390   30.4560   32.7890 H   0  0  0  0  0  0  0  0  0  0  0  0
   34.6010   28.7940   32.0110 H   0  0  0  0  0  0  0  0  0  0  0  0
   36.3240   28.5970   31.3940 H   0  0  0  0  0  0  0  0  0  0  0  0
   35.7100   31.3410   34.9460 C   0  0  0  0  0  0  0  0  0  0  0  0
   36.5020   30.6940   35.8760 F   0  0  0  0  0  0  0  0  0  0  0  0
   34.6070   31.8270   35.6250 F   0  0  0  0  0  0  0  0  0  0  0  0
   36.3810   32.3620   34.3370 F   0  0  0  0  0  0  0  0  0  0  0  0
   38.5260   24.8600   36.4270 S   0  0  0  0  0  0  0  0  0  0  0  0
   37.7210   22.3260   35.1390 H   0  0  0  0  0  0  0  0  0  0  0  0
   37.9780   22.3030   36.1510 N   0  0  0  0  0  0  0  0  0  0  0  0
   37.4820   23.4670   36.8640 C   0  0  1  0  0  3  0  0  0  0  0  0
   37.6890   23.1460   38.3180 C   0  0  0  0  0  3  0  0  0  0  0  0
   37.1720   22.1870   38.5260 H   0  0  0  0  0  0  0  0  0  0  0  0
   39.0750   22.9870   38.6420 N   0  0  0  0  0  0  0  0  0  0  0  0
   39.4180   23.6640   39.3540 H   0  0  0  0  0  0  0  0  0  0  0  0
   39.9680   22.7770   37.5550 C   0  0  0  0  0  3  0  0  0  0  0  0
   39.3960   22.2950   36.2870 C   0  0  0  0  0  3  0  0  0  0  0  0
  1  6  1  0  0  0  0
  2  3  1  0  0  0  0
  2  1  2  0  0  0  0
  3  4  2  0  0  0  0
  4  5  1  0  0  0  0
  5 25  1  0  0  0  0
  6  5  2  0  0  0  0
  7  2  1  0  0  0  0
  8  3  1  0  0  0  0
  9  1  1  0  0  0  0
  9 10  1  0  0  0  0
 10 14  1  0  0  0  0
 10 15  1  0  0  0  0
 11 16  1  6  0  0  0
 11 10  1  0  0  0  0
 11 21  1  0  0  0  0
 12 18  1  0  0  0  0
 12 11  1  0  0  0  0
 13 12  1  0  0  0  0
 13  9  1  0  0  0  0
 17 12  1  0  0  0  0
 19 13  1  0  0  0  0
 20 13  1  0  0  0  0
 21 23  1  0  0  0  0
 21 22  1  0  0  0  0
 24 21  1  0  0  0  0
 26 27  1  0  0  0  0
 27 34  1  0  0  0  0
 27 28  1  0  0  0  0
 28 25  1  6  0  0  0
 28 29  1  0  0  0  0
 29 30  1  0  0  0  0
 29 31  1  0  0  0  0
 31 32  1  0  0  0  0
 33 31  1  0  0  0  0
 34 33  2  0  0  0  0
M  END
>  <minimizedAffinity>
-5.64215755

$$$$

 OpenBabel03272503313D

 34 36  0  0  1  0  0  0  0  0999 V2000
   37.5970   23.6710   33.2420 C   0  0  0  0  0  0  0  0  0  0  0  0
   37.1230   22.4610   32.7220 C   0  0  0  0  0  0  0  0  0  0  0  0
   36.2220   22.5250   31.6660 C   0  0  0  0  0  0  0  0  0  0  0  0
   35.8730   23.7770   31.2220 N   0  0  0  0  0  0  0  0  0  0  0  0
   36.3390   24.9060   31.7340 C   0  0  0  0  0  0  0  0  0  0  0  0
   37.2090   24.8650   32.7530 N   0  0  0  0  0  0  0  0  0  0  0  0
   37.4290   21.5050   33.1080 H   0  0  0  0  0  0  0  0  0  0  0  0
   35.7990   21.6480   31.1960 H   0  0  0  0  0  0  0  0  0  0  0  0
   38.5290   23.5830   34.3360 N   0  0  0  0  0  0  0  0  0  0  0  0
   38.6740   24.5070   35.4200 C   0  0  0  0  0  0  0  0  0  0  0  0
   39.1910   23.6140   36.5480 C   0  0  2  0  0  0  0  0  0  0  0  0
   39.1820   22.2000   35.9870 C   0  0  0  0  0  0  0  0  0  0  0  0
   39.4950   22.5330   34.5370 C   0  0  0  0  0  0  0  0  0  0  0  0
   39.3330   25.3580   35.2290 H   0  0  0  0  0  0  0  0  0  0  0  0
   37.6490   24.8540   35.7360 H   0  0  0  0  0  0  0  0  0  0  0  0
   40.2360   23.8970   36.7110 H   0  0  0  0  0  0  0  0  0  0  0  0
   39.9670   21.6020   36.4720 H   0  0  0  0  0  0  0  0  0  0  0  0
   38.1800   21.7320   36.0300 H   0  0  0  0  0  0  0  0  0  0  0  0
   40.5470   22.8870   34.4890 H   0  0  0  0  0  0  0  0  0  0  0  0
   39.3140   21.6640   33.8800 H   0  0  0  0  0  0  0  0  0  0  0  0
   38.3930   23.7370   37.8020 C   0  0  0  0  0  0  0  0  0  0  0  0
   38.0490   25.0700   37.9280 F   0  0  0  0  0  0  0  0  0  0  0  0
   39.2460   23.4400   38.8510 F   0  0  0  0  0  0  0  0  0  0  0  0
   37.2950   22.9270   37.8380 F   0  0  0  0  0  0  0  0  0  0  0  0
   35.8440   26.5010   31.1080 S   0  0  0  0  0  0  0  0  0  0  0  0
   38.3450   27.2380   32.4970 H   0  0  0  0  0  0  0  0  0  0  0  0
   37.8180   27.9910   32.0010 N   0  0  0  0  0  0  0  0  0  0  0  0
   36.3820   27.8470   32.1660 C   0  0  1  0  0  3  0  0  0  0  0  0
   35.8030   29.1320   31.6450 C   0  0  0  0  0  3  0  0  0  0  0  0
   36.2790   29.9640   32.2020 H   0  0  0  0  0  0  0  0  0  0  0  0
   36.0700   29.3160   30.2500 N   0  0  0  0  0  0  0  0  0  0  0  0
   35.2120   29.3830   29.6650 H   0  0  0  0  0  0  0  0  0  0  0  0
   37.1040   28.5190   29.6850 C   0  0  0  0  0  3  0  0  0  0  0  0
   38.0920   27.9320   30.6050 C   0  0  0  0  0  3  0  0  0  0  0  0
  1  9  1  0  0  0  0
  2  7  1  0  0  0  0
  2  1  2  0  0  0  0
  3  2  1  0  0  0  0
  4  3  2  0  0  0  0
  4  5  1  0  0  0  0
  5  6  2  0  0  0  0
  6  1  1  0  0  0  0
  8  3  1  0  0  0  0
  9 13  1  0  0  0  0
  9 10  1  0  0  0  0
 10 15  1  0  0  0  0
 10 11  1  0  0  0  0
 11 16  1  1  0  0  0
 11 21  1  0  0  0  0
 12 18  1  0  0  0  0
 12 17  1  0  0  0  0
 12 11  1  0  0  0  0
 13 12  1  0  0  0  0
 14 10  1  0  0  0  0
 19 13  1  0  0  0  0
 20 13  1  0  0  0  0
 21 24  1  0  0  0  0
 21 22  1  0  0  0  0
 21 23  1  0  0  0  0
 25  5  1  0  0  0  0
 27 28  1  0  0  0  0
 27 26  1  0  0  0  0
 28 25  1  6  0  0  0
 29 28  1  0  0  0  0
 29 30  1  0  0  0  0
 31 29  1  0  0  0  0
 32 31  1  0  0  0  0
 33 31  1  0  0  0  0
 33 34  2  0  0  0  0
 34 27  1  0  0  0  0
M  END
>  <minimizedAffinity>
-5.50517178

$$$$

 OpenBabel03272503313D

 34 36  0  0  1  0  0  0  0  0999 V2000
   37.2360   24.1190   32.2660 C   0  0  0  0  0  0  0  0  0  0  0  0
   36.5910   23.1800   31.4540 C   0  0  0  0  0  0  0  0  0  0  0  0
   36.4670   21.8850   31.9430 C   0  0  0  0  0  0  0  0  0  0  0  0
   36.9910   21.6390   33.1890 N   0  0  0  0  0  0  0  0  0  0  0  0
   37.5970   22.5500   33.9360 C   0  0  0  0  0  0  0  0  0  0  0  0
   37.7260   23.8040   33.4810 N   0  0  0  0  0  0  0  0  0  0  0  0
   36.1990   23.4250   30.4820 H   0  0  0  0  0  0  0  0  0  0  0  0
   35.9860   21.0890   31.3920 H   0  0  0  0  0  0  0  0  0  0  0  0
   37.3550   25.4550   31.7410 N   0  0  0  0  0  0  0  0  0  0  0  0
   36.2880   26.3640   31.4500 C   0  0  0  0  0  0  0  0  0  0  0  0
   36.9520   27.7260   31.6490 C   0  0  2  0  0  0  0  0  0  0  0  0
   38.3540   27.4280   32.1550 C   0  0  0  0  0  0  0  0  0  0  0  0
   38.5890   26.1230   31.4110 C   0  0  0  0  0  0  0  0  0  0  0  0
   35.8390   26.2620   30.4590 H   0  0  0  0  0  0  0  0  0  0  0  0
   35.5070   26.2720   32.2580 H   0  0  0  0  0  0  0  0  0  0  0  0
   37.0490   28.1700   30.6520 H   0  0  0  0  0  0  0  0  0  0  0  0
   39.0410   28.2300   31.8470 H   0  0  0  0  0  0  0  0  0  0  0  0
   38.3780   27.2210   33.2420 H   0  0  0  0  0  0  0  0  0  0  0  0
   38.6850   26.3610   30.3300 H   0  0  0  0  0  0  0  0  0  0  0  0
   39.4730   25.5920   31.8050 H   0  0  0  0  0  0  0  0  0  0  0  0
   36.1880   28.6190   32.5680 C   0  0  0  0  0  0  0  0  0  0  0  0
   36.5340   28.2580   33.8570 F   0  0  0  0  0  0  0  0  0  0  0  0
   34.8500   28.3090   32.4080 F   0  0  0  0  0  0  0  0  0  0  0  0
   36.3980   29.9490   32.3430 F   0  0  0  0  0  0  0  0  0  0  0  0
   38.2540   22.1620   35.5470 S   0  0  0  0  0  0  0  0  0  0  0  0
   38.9340   25.0280   35.3140 H   0  0  0  0  0  0  0  0  0  0  0  0
   39.1650   24.5390   36.2080 N   0  0  0  0  0  0  0  0  0  0  0  0
   39.6590   23.1920   35.9770 C   0  0  1  0  0  3  0  0  0  0  0  0
   40.1970   22.7450   37.3080 C   0  0  0  0  0  3  0  0  0  0  0  0
   40.9470   23.4940   37.6340 H   0  0  0  0  0  0  0  0  0  0  0  0
   39.1720   22.6750   38.3050 N   0  0  0  0  0  0  0  0  0  0  0  0
   39.0430   21.7220   38.7050 H   0  0  0  0  0  0  0  0  0  0  0  0
   37.9580   23.3630   38.0290 C   0  0  0  0  0  3  0  0  0  0  0  0
   37.9960   24.4290   37.0140 C   0  0  0  0  0  3  0  0  0  0  0  0
  1  6  1  0  0  0  0
  2  3  1  0  0  0  0
  2  1  2  0  0  0  0
  3  4  2  0  0  0  0
  4  5  1  0  0  0  0
  5 25  1  0  0  0  0
  6  5  2  0  0  0  0
  7  2  1  0  0  0  0
  8  3  1  0  0  0  0
  9  1  1  0  0  0  0
 10 11  1  0  0  0  0
 10  9  1  0  0  0  0
 10 15  1  0  0  0  0
 11 16  1  6  0  0  0
 11 12  1  0  0  0  0
 11 21  1  0  0  0  0
 12 18  1  0  0  0  0
 13  9  1  0  0  0  0
 13 20  1  0  0  0  0
 13 12  1  0  0  0  0
 14 10  1  0  0  0  0
 17 12  1  0  0  0  0
 19 13  1  0  0  0  0
 21 22  1  0  0  0  0
 23 21  1  0  0  0  0
 24 21  1  0  0  0  0
 26 27  1  0  0  0  0
 27 34  1  0  0  0  0
 28 25  1  1  0  0  0
 28 27  1  0  0  0  0
 28 29  1  0  0  0  0
 29 30  1  0  0  0  0
 29 31  1  0  0  0  0
 31 32  1  0  0  0  0
 33 31  1  0  0  0  0
 34 33  2  0  0  0  0
M  END
>  <minimizedAffinity>
-5.37259245

$$$$

 OpenBabel03272503313D

 34 36  0  0  1  0  0  0  0  0999 V2000
   37.5350   24.1360   32.4810 C   0  0  0  0  0  0  0  0  0  0  0  0
   37.7530   25.3760   31.8690 C   0  0  0  0  0  0  0  0  0  0  0  0
   38.2540   26.4030   32.6590 C   0  0  0  0  0  0  0  0  0  0  0  0
   38.4920   26.1100   33.9810 N   0  0  0  0  0  0  0  0  0  0  0  0
   38.2750   24.9260   34.5320 C   0  0  0  0  0  0  0  0  0  0  0  0
   37.7930   23.9230   33.7850 N   0  0  0  0  0  0  0  0  0  0  0  0
   37.5490   25.5530   30.8270 H   0  0  0  0  0  0  0  0  0  0  0  0
   38.4560   27.3960   32.2810 H   0  0  0  0  0  0  0  0  0  0  0  0
   37.0160   23.0850   31.6440 N   0  0  0  0  0  0  0  0  0  0  0  0
   37.7330   21.9550   31.1360 C   0  0  0  0  0  0  0  0  0  0  0  0
   36.6340   20.9020   30.9970 C   0  0  2  0  0  0  0  0  0  0  0  0
   35.3780   21.5440   31.5660 C   0  0  0  0  0  0  0  0  0  0  0  0
   35.6600   22.9830   31.1650 C   0  0  0  0  0  0  0  0  0  0  0  0
   38.2700   22.1210   30.1980 H   0  0  0  0  0  0  0  0  0  0  0  0
   38.4300   21.5810   31.9390 H   0  0  0  0  0  0  0  0  0  0  0  0
   36.4750   20.7630   29.9220 H   0  0  0  0  0  0  0  0  0  0  0  0
   34.4890   21.1250   31.0720 H   0  0  0  0  0  0  0  0  0  0  0  0
   35.3360   21.4900   32.6700 H   0  0  0  0  0  0  0  0  0  0  0  0
   35.5790   23.0500   30.0590 H   0  0  0  0  0  0  0  0  0  0  0  0
   34.9780   23.6820   31.6800 H   0  0  0  0  0  0  0  0  0  0  0  0
   36.9720   19.6130   31.6670 C   0  0  0  0  0  0  0  0  0  0  0  0
   36.1620   19.5160   32.7820 F   0  0  0  0  0  0  0  0  0  0  0  0
   38.2740   19.7280   32.1230 F   0  0  0  0  0  0  0  0  0  0  0  0
   36.8480   18.5220   30.8550 F   0  0  0  0  0  0  0  0  0  0  0  0
   38.6070   24.6140   36.2560 S   0  0  0  0  0  0  0  0  0  0  0  0
   37.7970   21.9310   35.3220 H   0  0  0  0  0  0  0  0  0  0  0  0
   38.1050   22.0340   36.3140 N   0  0  0  0  0  0  0  0  0  0  0  0
   37.6180   23.2670   36.9090 C   0  0  1  0  0  3  0  0  0  0  0  0
   37.9040   23.1260   38.3780 C   0  0  0  0  0  3  0  0  0  0  0  0
   37.4200   22.1900   38.7250 H   0  0  0  0  0  0  0  0  0  0  0  0
   39.3070   23.0300   38.6460 N   0  0  0  0  0  0  0  0  0  0  0  0
   39.6690   23.7930   39.2540 H   0  0  0  0  0  0  0  0  0  0  0  0
   40.1500   22.7060   37.5470 C   0  0  0  0  0  3  0  0  0  0  0  0
   39.5270   22.0650   36.3760 C   0  0  0  0  0  3  0  0  0  0  0  0
  1  6  1  0  0  0  0
  2  1  2  0  0  0  0
  2  3  1  0  0  0  0
  3  4  2  0  0  0  0
  4  5  1  0  0  0  0
  5 25  1  0  0  0  0
  6  5  2  0  0  0  0
  7  2  1  0  0  0  0
  8  3  1  0  0  0  0
  9  1  1  0  0  0  0
 10  9  1  0  0  0  0
 10 15  1  0  0  0  0
 11 16  1  6  0  0  0
 11 10  1  0  0  0  0
 11 12  1  0  0  0  0
 11 21  1  0  0  0  0
 12 18  1  0  0  0  0
 13 12  1  0  0  0  0
 13  9  1  0  0  0  0
 13 20  1  0  0  0  0
 14 10  1  0  0  0  0
 17 12  1  0  0  0  0
 19 13  1  0  0  0  0
 21 23  1  0  0  0  0
 21 22  1  0  0  0  0
 24 21  1  0  0  0  0
 26 27  1  0  0  0  0
 27 34  1  0  0  0  0
 27 28  1  0  0  0  0
 28 25  1  6  0  0  0
 28 29  1  0  0  0  0
 29 31  1  0  0  0  0
 29 30  1  0  0  0  0
 31 32  1  0  0  0  0
 33 31  1  0  0  0  0
 34 33  2  0  0  0  0
M  END
>  <minimizedAffinity>
-5.36205053

$$$$

 OpenBabel03272503313D

 34 36  0  0  1  0  0  0  0  0999 V2000
   37.2620   24.8500   33.0600 C   0  0  0  0  0  0  0  0  0  0  0  0
   36.7560   26.0030   32.4500 C   0  0  0  0  0  0  0  0  0  0  0  0
   35.9130   25.8350   31.3570 C   0  0  0  0  0  0  0  0  0  0  0  0
   35.6490   24.5430   30.9700 N   0  0  0  0  0  0  0  0  0  0  0  0
   36.1440   23.4700   31.5680 C   0  0  0  0  0  0  0  0  0  0  0  0
   36.9580   23.6130   32.6230 N   0  0  0  0  0  0  0  0  0  0  0  0
   36.9950   26.9940   32.7940 H   0  0  0  0  0  0  0  0  0  0  0  0
   35.4710   26.6610   30.8180 H   0  0  0  0  0  0  0  0  0  0  0  0
   38.1330   25.0460   34.1890 N   0  0  0  0  0  0  0  0  0  0  0  0
   37.7650   25.5220   35.4890 C   0  0  0  0  0  0  0  0  0  0  0  0
   38.8050   24.8560   36.3900 C   0  0  2  0  0  0  0  0  0  0  0  0
   39.6200   23.9530   35.4780 C   0  0  0  0  0  0  0  0  0  0  0  0
   39.5520   24.7930   34.2120 C   0  0  0  0  0  0  0  0  0  0  0  0
   37.7490   26.6080   35.6050 H   0  0  0  0  0  0  0  0  0  0  0  0
   36.7700   25.0710   35.7680 H   0  0  0  0  0  0  0  0  0  0  0  0
   39.4670   25.6560   36.7390 H   0  0  0  0  0  0  0  0  0  0  0  0
   40.6410   23.8490   35.8720 H   0  0  0  0  0  0  0  0  0  0  0  0
   39.1210   22.9850   35.2830 H   0  0  0  0  0  0  0  0  0  0  0  0
   40.1590   25.7080   34.3790 H   0  0  0  0  0  0  0  0  0  0  0  0
   39.8910   24.2180   33.3330 H   0  0  0  0  0  0  0  0  0  0  0  0
   38.1980   24.1170   37.5350 C   0  0  0  0  0  0  0  0  0  0  0  0
   37.9870   25.0400   38.5420 F   0  0  0  0  0  0  0  0  0  0  0  0
   39.1560   23.2310   37.9940 F   0  0  0  0  0  0  0  0  0  0  0  0
   37.0500   23.4510   37.2120 F   0  0  0  0  0  0  0  0  0  0  0  0
   35.7600   21.8200   31.0120 S   0  0  0  0  0  0  0  0  0  0  0  0
   37.5050   21.1910   33.3110 H   0  0  0  0  0  0  0  0  0  0  0  0
   37.1010   20.3950   32.7690 N   0  0  0  0  0  0  0  0  0  0  0  0
   37.0900   20.6620   31.3410 C   0  0  1  0  0  3  0  0  0  0  0  0
   36.7500   19.3430   30.7050 C   0  0  0  0  0  3  0  0  0  0  0  0
   37.4930   18.5990   31.0590 H   0  0  0  0  0  0  0  0  0  0  0  0
   35.4460   18.8860   31.0780 N   0  0  0  0  0  0  0  0  0  0  0  0
   34.7980   18.7680   30.2720 H   0  0  0  0  0  0  0  0  0  0  0  0
   34.8550   19.4940   32.2200 C   0  0  0  0  0  3  0  0  0  0  0  0
   35.7510   20.1760   33.1690 C   0  0  0  0  0  3  0  0  0  0  0  0
  1  9  1  0  0  0  0
  2  7  1  0  0  0  0
  2  1  2  0  0  0  0
  3  2  1  0  0  0  0
  4  3  2  0  0  0  0
  4  5  1  0  0  0  0
  5  6  2  0  0  0  0
  6  1  1  0  0  0  0
  8  3  1  0  0  0  0
  9 13  1  0  0  0  0
  9 10  1  0  0  0  0
 10 14  1  0  0  0  0
 10 15  1  0  0  0  0
 10 11  1  0  0  0  0
 11 16  1  1  0  0  0
 11 21  1  0  0  0  0
 12 17  1  0  0  0  0
 12 11  1  0  0  0  0
 13 19  1  0  0  0  0
 13 12  1  0  0  0  0
 18 12  1  0  0  0  0
 20 13  1  0  0  0  0
 21 23  1  0  0  0  0
 21 22  1  0  0  0  0
 24 21  1  0  0  0  0
 25  5  1  0  0  0  0
 27 34  1  0  0  0  0
 27 26  1  0  0  0  0
 28 25  1  1  0  0  0
 28 27  1  0  0  0  0
 29 30  1  0  0  0  0
 29 31  1  0  0  0  0
 29 28  1  0  0  0  0
 31 33  1  0  0  0  0
 32 31  1  0  0  0  0
 33 34  2  0  0  0  0
M  END
>  <minimizedAffinity>
-5.30824041

$$$$

 OpenBabel03272503313D

 34 36  0  0  1  0  0  0  0  0999 V2000
   36.7690   27.2890   33.7590 C   0  0  0  0  0  0  0  0  0  0  0  0
   36.7740   26.5680   32.5600 C   0  0  0  0  0  0  0  0  0  0  0  0
   37.2960   25.2810   32.5870 C   0  0  0  0  0  0  0  0  0  0  0  0
   37.7640   24.8260   33.7960 N   0  0  0  0  0  0  0  0  0  0  0  0
   37.7470   25.5320   34.9150 C   0  0  0  0  0  0  0  0  0  0  0  0
   37.2470   26.7760   34.9090 N   0  0  0  0  0  0  0  0  0  0  0  0
   36.3940   26.9730   31.6380 H   0  0  0  0  0  0  0  0  0  0  0  0
   37.3450   24.6440   31.7150 H   0  0  0  0  0  0  0  0  0  0  0  0
   36.2240   28.6210   33.7100 N   0  0  0  0  0  0  0  0  0  0  0  0
   35.6940   29.2930   32.5620 C   0  0  0  0  0  0  0  0  0  0  0  0
   34.6690   30.2430   33.1790 C   0  0  2  0  0  0  0  0  0  0  0  0
   34.6520   29.9180   34.6650 C   0  0  0  0  0  0  0  0  0  0  0  0
   36.1130   29.5270   34.8250 C   0  0  0  0  0  0  0  0  0  0  0  0
   36.4270   29.8180   31.9430 H   0  0  0  0  0  0  0  0  0  0  0  0
   35.1080   28.5500   31.9490 H   0  0  0  0  0  0  0  0  0  0  0  0
   35.0770   31.2530   33.0680 H   0  0  0  0  0  0  0  0  0  0  0  0
   34.3790   30.8150   35.2400 H   0  0  0  0  0  0  0  0  0  0  0  0
   34.0260   29.0360   34.9000 H   0  0  0  0  0  0  0  0  0  0  0  0
   36.7250   30.4470   34.7070 H   0  0  0  0  0  0  0  0  0  0  0  0
   36.2880   29.0260   35.7930 H   0  0  0  0  0  0  0  0  0  0  0  0
   33.3190   30.1320   32.5530 C   0  0  0  0  0  0  0  0  0  0  0  0
   32.4330   30.7800   33.3930 F   0  0  0  0  0  0  0  0  0  0  0  0
   32.9800   28.7910   32.5660 F   0  0  0  0  0  0  0  0  0  0  0  0
   33.2610   30.6250   31.2810 F   0  0  0  0  0  0  0  0  0  0  0  0
   38.3710   24.8790   36.4520 S   0  0  0  0  0  0  0  0  0  0  0  0
   37.3110   22.3810   35.2870 H   0  0  0  0  0  0  0  0  0  0  0  0
   37.7470   22.3340   36.2350 N   0  0  0  0  0  0  0  0  0  0  0  0
   37.4050   23.4890   37.0470 C   0  0  1  0  0  3  0  0  0  0  0  0
   37.8670   23.1370   38.4330 C   0  0  0  0  0  3  0  0  0  0  0  0
   37.3840   22.1790   38.7140 H   0  0  0  0  0  0  0  0  0  0  0  0
   39.2870   22.9570   38.4970 N   0  0  0  0  0  0  0  0  0  0  0  0
   39.7620   23.6170   39.1470 H   0  0  0  0  0  0  0  0  0  0  0  0
   39.9650   22.7600   37.2620 C   0  0  0  0  0  3  0  0  0  0  0  0
   39.1660   22.3090   36.1110 C   0  0  0  0  0  3  0  0  0  0  0  0
  1  6  1  0  0  0  0
  2  3  1  0  0  0  0
  2  1  2  0  0  0  0
  3  4  2  0  0  0  0
  4  5  1  0  0  0  0
  5 25  1  0  0  0  0
  6  5  2  0  0  0  0
  7  2  1  0  0  0  0
  8  3  1  0  0  0  0
  9  1  1  0  0  0  0
  9 13  1  0  0  0  0
 10 11  1  0  0  0  0
 10  9  1  0  0  0  0
 11 16  1  6  0  0  0
 11 12  1  0  0  0  0
 12 13  1  0  0  0  0
 12 18  1  0  0  0  0
 12 17  1  0  0  0  0
 13 20  1  0  0  0  0
 14 10  1  0  0  0  0
 15 10  1  0  0  0  0
 19 13  1  0  0  0  0
 21 23  1  0  0  0  0
 21 11  1  0  0  0  0
 21 22  1  0  0  0  0
 24 21  1  0  0  0  0
 26 27  1  0  0  0  0
 27 28  1  0  0  0  0
 28 25  1  6  0  0  0
 28 29  1  0  0  0  0
 29 31  1  0  0  0  0
 29 30  1  0  0  0  0
 31 32  1  0  0  0  0
 33 31  1  0  0  0  0
 34 27  1  0  0  0  0
 34 33  2  0  0  0  0
M  END
>  <minimizedAffinity>
-5.30310726

$$$$

 OpenBabel03272503313D

 34 36  0  0  1  0  0  0  0  0999 V2000
   36.1710   29.0420   32.4880 C   0  0  0  0  0  0  0  0  0  0  0  0
   36.3650   29.0430   31.1020 C   0  0  0  0  0  0  0  0  0  0  0  0
   36.9900   27.9360   30.5410 C   0  0  0  0  0  0  0  0  0  0  0  0
   37.3650   26.9320   31.4000 N   0  0  0  0  0  0  0  0  0  0  0  0
   37.1680   26.9600   32.7100 C   0  0  0  0  0  0  0  0  0  0  0  0
   36.5670   28.0190   33.2690 N   0  0  0  0  0  0  0  0  0  0  0  0
   36.0510   29.8580   30.4730 H   0  0  0  0  0  0  0  0  0  0  0  0
   37.1850   27.8410   29.4820 H   0  0  0  0  0  0  0  0  0  0  0  0
   35.5220   30.1990   33.0500 N   0  0  0  0  0  0  0  0  0  0  0  0
   34.9700   30.3230   34.3650 C   0  0  0  0  0  0  0  0  0  0  0  0
   35.1130   31.8190   34.6440 C   0  0  2  0  0  0  0  0  0  0  0  0
   35.8590   32.3880   33.4480 C   0  0  0  0  0  0  0  0  0  0  0  0
   35.3120   31.4560   32.3780 C   0  0  0  0  0  0  0  0  0  0  0  0
   33.9390   29.9760   34.4780 H   0  0  0  0  0  0  0  0  0  0  0  0
   35.6540   29.7990   35.0930 H   0  0  0  0  0  0  0  0  0  0  0  0
   34.0990   32.2330   34.6280 H   0  0  0  0  0  0  0  0  0  0  0  0
   35.5710   33.4380   33.2940 H   0  0  0  0  0  0  0  0  0  0  0  0
   36.9530   32.2370   33.5180 H   0  0  0  0  0  0  0  0  0  0  0  0
   34.2390   31.7020   32.2300 H   0  0  0  0  0  0  0  0  0  0  0  0
   35.8950   31.5360   31.4430 H   0  0  0  0  0  0  0  0  0  0  0  0
   35.7970   32.1090   35.9370 C   0  0  0  0  0  0  0  0  0  0  0  0
   36.7120   31.0930   36.1440 F   0  0  0  0  0  0  0  0  0  0  0  0
   34.8410   31.9980   36.9310 F   0  0  0  0  0  0  0  0  0  0  0  0
   36.3890   33.3380   35.9830 F   0  0  0  0  0  0  0  0  0  0  0  0
   37.6800   25.6200   33.7690 S   0  0  0  0  0  0  0  0  0  0  0  0
   37.5150   24.2430   36.3760 H   0  0  0  0  0  0  0  0  0  0  0  0
   38.2560   24.9680   36.2500 N   0  0  0  0  0  0  0  0  0  0  0  0
   37.7730   26.1100   35.4930 C   0  0  1  0  0  3  0  0  0  0  0  0
   38.8460   27.1530   35.6410 C   0  0  0  0  0  3  0  0  0  0  0  0
   39.0060   27.3160   36.7270 H   0  0  0  0  0  0  0  0  0  0  0  0
   40.0880   26.7330   35.0650 N   0  0  0  0  0  0  0  0  0  0  0  0
   40.4220   27.3520   34.2970 H   0  0  0  0  0  0  0  0  0  0  0  0
   40.2370   25.3430   34.8050 C   0  0  0  0  0  3  0  0  0  0  0  0
   39.3540   24.4150   35.5300 C   0  0  0  0  0  3  0  0  0  0  0  0
  1  9  1  0  0  0  0
  1  6  1  0  0  0  0
  2  1  2  0  0  0  0
  3  2  1  0  0  0  0
  3  4  2  0  0  0  0
  4  5  1  0  0  0  0
  5  6  2  0  0  0  0
  5 25  1  0  0  0  0
  7  2  1  0  0  0  0
  8  3  1  0  0  0  0
  9 10  1  0  0  0  0
 10 14  1  0  0  0  0
 10 11  1  0  0  0  0
 10 15  1  0  0  0  0
 11 16  1  1  0  0  0
 11 21  1  0  0  0  0
 12 18  1  0  0  0  0
 12 11  1  0  0  0  0
 13  9  1  0  0  0  0
 13 12  1  0  0  0  0
 17 12  1  0  0  0  0
 19 13  1  0  0  0  0
 20 13  1  0  0  0  0
 21 24  1  0  0  0  0
 21 22  1  0  0  0  0
 21 23  1  0  0  0  0
 27 26  1  0  0  0  0
 28 25  1  6  0  0  0
 28 29  1  0  0  0  0
 28 27  1  0  0  0  0
 29 30  1  0  0  0  0
 31 29  1  0  0  0  0
 32 31  1  0  0  0  0
 33 31  1  0  0  0  0
 33 34  2  0  0  0  0
 34 27  1  0  0  0  0
M  END
>  <minimizedAffinity>
-5.19451666

$$$$

 OpenBabel03272503313D

 34 36  0  0  1  0  0  0  0  0999 V2000
   36.1740   29.0310   32.3770 C   0  0  0  0  0  0  0  0  0  0  0  0
   36.2030   29.0090   30.9780 C   0  0  0  0  0  0  0  0  0  0  0  0
   36.8170   27.9230   30.3660 C   0  0  0  0  0  0  0  0  0  0  0  0
   37.3450   26.9610   31.1930 N   0  0  0  0  0  0  0  0  0  0  0  0
   37.3030   27.0090   32.5150 C   0  0  0  0  0  0  0  0  0  0  0  0
   36.7140   28.0490   33.1230 N   0  0  0  0  0  0  0  0  0  0  0  0
   35.7740   29.7900   30.3760 H   0  0  0  0  0  0  0  0  0  0  0  0
   36.8910   27.8130   29.2930 H   0  0  0  0  0  0  0  0  0  0  0  0
   35.5330   30.1650   32.9920 N   0  0  0  0  0  0  0  0  0  0  0  0
   34.9300   30.2150   34.2890 C   0  0  0  0  0  0  0  0  0  0  0  0
   35.1010   31.6830   34.6770 C   0  0  2  0  0  0  0  0  0  0  0  0
   35.9120   32.3110   33.5540 C   0  0  0  0  0  0  0  0  0  0  0  0
   35.3860   31.4710   32.4010 C   0  0  0  0  0  0  0  0  0  0  0  0
   33.8870   29.8910   34.3360 H   0  0  0  0  0  0  0  0  0  0  0  0
   35.5680   29.6220   35.0050 H   0  0  0  0  0  0  0  0  0  0  0  0
   34.1000   32.1280   34.6490 H   0  0  0  0  0  0  0  0  0  0  0  0
   35.6590   33.3770   33.4630 H   0  0  0  0  0  0  0  0  0  0  0  0
   36.9970   32.1220   33.6570 H   0  0  0  0  0  0  0  0  0  0  0  0
   34.3270   31.7580   32.2280 H   0  0  0  0  0  0  0  0  0  0  0  0
   36.0090   31.5970   31.4980 H   0  0  0  0  0  0  0  0  0  0  0  0
   35.7380   31.8630   36.0140 C   0  0  0  0  0  0  0  0  0  0  0  0
   36.4310   33.0590   35.9700 F   0  0  0  0  0  0  0  0  0  0  0  0
   36.6780   30.8570   36.1490 F   0  0  0  0  0  0  0  0  0  0  0  0
   34.8530   31.8300   37.0530 F   0  0  0  0  0  0  0  0  0  0  0  0
   38.0090   25.7240   33.5290 S   0  0  0  0  0  0  0  0  0  0  0  0
   39.0570   28.1050   34.9290 H   0  0  0  0  0  0  0  0  0  0  0  0
   39.3040   27.1640   35.3080 N   0  0  0  0  0  0  0  0  0  0  0  0
   39.5800   26.2080   34.2490 C   0  0  1  0  0  3  0  0  0  0  0  0
   40.1770   25.0190   34.9490 C   0  0  0  0  0  3  0  0  0  0  0  0
   41.0530   25.3760   35.5270 H   0  0  0  0  0  0  0  0  0  0  0  0
   39.2550   24.4130   35.8620 N   0  0  0  0  0  0  0  0  0  0  0  0
   39.0330   23.4210   35.6360 H   0  0  0  0  0  0  0  0  0  0  0  0
   38.1290   25.1920   36.2480 C   0  0  0  0  0  3  0  0  0  0  0  0
   38.2160   26.6510   36.0700 C   0  0  0  0  0  3  0  0  0  0  0  0
  1  9  1  0  0  0  0
  1  6  1  0  0  0  0
  2  1  2  0  0  0  0
  3  2  1  0  0  0  0
  3  4  2  0  0  0  0
  4  5  1  0  0  0  0
  5  6  2  0  0  0  0
  5 25  1  0  0  0  0
  7  2  1  0  0  0  0
  8  3  1  0  0  0  0
  9 10  1  0  0  0  0
 10 14  1  0  0  0  0
 10 11  1  0  0  0  0
 10 15  1  0  0  0  0
 11 16  1  1  0  0  0
 11 21  1  0  0  0  0
 12 18  1  0  0  0  0
 12 11  1  0  0  0  0
 13  9  1  0  0  0  0
 13 12  1  0  0  0  0
 17 12  1  0  0  0  0
 19 13  1  0  0  0  0
 20 13  1  0  0  0  0
 21 23  1  0  0  0  0
 21 24  1  0  0  0  0
 22 21  1  0  0  0  0
 26 27  1  0  0  0  0
 27 34  1  0  0  0  0
 28 25  1  1  0  0  0
 28 29  1  0  0  0  0
 28 27  1  0  0  0  0
 29 30  1  0  0  0  0
 29 31  1  0  0  0  0
 31 33  1  0  0  0  0
 32 31  1  0  0  0  0
 34 33  2  0  0  0  0
M  END
>  <minimizedAffinity>
-5.15238619

$$$$

 OpenBabel03272503313D

 34 36  0  0  1  0  0  0  0  0999 V2000
   38.1590   26.8250   32.8720 C   0  0  0  0  0  0  0  0  0  0  0  0
   37.1560   27.6830   33.3390 C   0  0  0  0  0  0  0  0  0  0  0  0
   36.7480   27.5350   34.6600 C   0  0  0  0  0  0  0  0  0  0  0  0
   37.3690   26.5550   35.3960 N   0  0  0  0  0  0  0  0  0  0  0  0
   38.3150   25.7570   34.9260 C   0  0  0  0  0  0  0  0  0  0  0  0
   38.7220   25.8850   33.6550 N   0  0  0  0  0  0  0  0  0  0  0  0
   36.7010   28.4360   32.7200 H   0  0  0  0  0  0  0  0  0  0  0  0
   35.9820   28.1480   35.1140 H   0  0  0  0  0  0  0  0  0  0  0  0
   38.5660   26.9940   31.5020 N   0  0  0  0  0  0  0  0  0  0  0  0
   37.7800   27.5210   30.4280 C   0  0  0  0  0  0  0  0  0  0  0  0
   38.8400   28.1280   29.5090 C   0  0  2  0  0  0  0  0  0  0  0  0
   40.1600   27.9660   30.2450 C   0  0  0  0  0  0  0  0  0  0  0  0
   39.8590   26.6590   30.9600 C   0  0  0  0  0  0  0  0  0  0  0  0
   37.1460   26.7970   29.9090 H   0  0  0  0  0  0  0  0  0  0  0  0
   37.1690   28.3840   30.8200 H   0  0  0  0  0  0  0  0  0  0  0  0
   38.8780   27.4910   28.6190 H   0  0  0  0  0  0  0  0  0  0  0  0
   40.9830   27.8830   29.5200 H   0  0  0  0  0  0  0  0  0  0  0  0
   40.3220   28.7520   31.0070 H   0  0  0  0  0  0  0  0  0  0  0  0
   39.8200   25.8540   30.1950 H   0  0  0  0  0  0  0  0  0  0  0  0
   40.6050   26.4540   31.7490 H   0  0  0  0  0  0  0  0  0  0  0  0
   38.5550   29.5470   29.1480 C   0  0  0  0  0  0  0  0  0  0  0  0
   37.6640   30.0290   30.0890 F   0  0  0  0  0  0  0  0  0  0  0  0
   37.8890   29.5270   27.9360 F   0  0  0  0  0  0  0  0  0  0  0  0
   39.6720   30.3280   29.0650 F   0  0  0  0  0  0  0  0  0  0  0  0
   39.0800   24.5040   35.9370 S   0  0  0  0  0  0  0  0  0  0  0  0
   38.3410   21.7940   35.0210 H   0  0  0  0  0  0  0  0  0  0  0  0
   38.4500   21.9530   36.0480 N   0  0  0  0  0  0  0  0  0  0  0  0
   37.9160   23.2410   36.4570 C   0  0  1  0  0  3  0  0  0  0  0  0
   37.8960   23.1920   37.9590 C   0  0  0  0  0  3  0  0  0  0  0  0
   37.3070   22.3000   38.2570 H   0  0  0  0  0  0  0  0  0  0  0  0
   39.2120   23.0640   38.5100 N   0  0  0  0  0  0  0  0  0  0  0  0
   39.4830   23.8540   39.1320 H   0  0  0  0  0  0  0  0  0  0  0  0
   40.2390   22.6340   37.6250 C   0  0  0  0  0  3  0  0  0  0  0  0
   39.8320   21.9380   36.3940 C   0  0  0  0  0  3  0  0  0  0  0  0
  1  2  2  0  0  0  0
  1  6  1  0  0  0  0
  2  3  1  0  0  0  0
  3  8  1  0  0  0  0
  3  4  2  0  0  0  0
  5  4  1  0  0  0  0
  5 25  1  0  0  0  0
  6  5  2  0  0  0  0
  7  2  1  0  0  0  0
  9  1  1  0  0  0  0
 10 15  1  0  0  0  0
 10  9  1  0  0  0  0
 11 16  1  6  0  0  0
 11 12  1  0  0  0  0
 11 10  1  0  0  0  0
 12 13  1  0  0  0  0
 12 18  1  0  0  0  0
 13  9  1  0  0  0  0
 13 20  1  0  0  0  0
 14 10  1  0  0  0  0
 17 12  1  0  0  0  0
 19 13  1  0  0  0  0
 21 11  1  0  0  0  0
 21 22  1  0  0  0  0
 23 21  1  0  0  0  0
 24 21  1  0  0  0  0
 26 27  1  0  0  0  0
 27 34  1  0  0  0  0
 27 28  1  0  0  0  0
 28 25  1  1  0  0  0
 28 29  1  0  0  0  0
 29 30  1  0  0  0  0
 29 31  1  0  0  0  0
 31 32  1  0  0  0  0
 33 31  1  0  0  0  0
 34 33  2  0  0  0  0
M  END
>  <minimizedAffinity>
-5.07215977

$$$$
