
 OpenBabel03272510003D

 21 22  0  0  0  0  0  0  0  0999 V2000
   38.2600   31.3550   50.2210 C   0  0  0  0  0  0  0  0  0  0  0  0
   38.5050   31.3960   48.8450 C   0  0  0  0  0  0  0  0  0  0  0  0
   37.6100   30.7400   48.0020 C   0  0  0  0  0  0  0  0  0  0  0  0
   36.5570   30.1010   48.5710 N   0  0  0  0  0  0  0  0  0  0  0  0
   36.3400   30.0730   49.8890 C   0  0  0  0  0  0  0  0  0  0  0  0
   37.1990   30.7060   50.7140 N   0  0  0  0  0  0  0  0  0  0  0  0
   38.9780   31.8800   50.8710 H   0  0  0  0  0  0  0  0  0  0  0  0
   39.3430   31.9030   48.3780 H   0  0  0  0  0  0  0  0  0  0  0  0
   37.7370   30.7000   46.5920 N   0  0  0  0  0  0  0  0  0  0  0  0
   39.0140   30.8090   45.8950 C   0  0  0  0  0  3  0  0  0  0  0  0
   39.8590   30.5180   46.5530 H   0  0  0  0  0  0  0  0  0  0  0  0
   39.0640   29.9400   44.6790 C   0  0  0  0  0  3  0  0  0  0  0  0
   39.8750   30.3300   44.0320 H   0  0  0  0  0  0  0  0  0  0  0  0
   37.8580   29.8790   43.9150 N   0  0  0  0  0  0  0  0  0  0  0  0
   37.4650   28.9040   44.0170 H   0  0  0  0  0  0  0  0  0  0  0  0
   36.8340   30.7780   44.3690 C   0  0  0  0  0  2  0  0  0  0  0  0
   36.5120   30.5440   45.8430 C   0  0  0  0  0  2  0  0  0  0  0  0
   35.1530   29.3420   50.3990 C   0  0  0  0  0  0  0  0  0  0  0  0
   35.2360   29.0990   51.7630 F   0  0  0  0  0  0  0  0  0  0  0  0
   33.9950   30.0820   50.2070 F   0  0  0  0  0  0  0  0  0  0  0  0
   34.9600   28.1370   49.7720 F   0  0  0  0  0  0  0  0  0  0  0  0
  1  6  1  0  0  0  0
  1  7  1  0  0  0  0
  2  1  2  0  0  0  0
  3  4  2  0  0  0  0
  3  2  1  0  0  0  0
  4  5  1  0  0  0  0
  5 18  1  0  0  0  0
  5  6  2  0  0  0  0
  8  2  1  0  0  0  0
  9  3  1  0  0  0  0
 10 11  1  0  0  0  0
 10  9  1  0  0  0  0
 12 10  1  0  0  0  0
 13 12  1  0  0  0  0
 14 15  1  0  0  0  0
 14 16  1  0  0  0  0
 14 12  1  0  0  0  0
 16 17  1  0  0  0  0
 17  9  1  0  0  0  0
 18 19  1  0  0  0  0
 20 18  1  0  0  0  0
 21 18  1  0  0  0  0
M  END
>  <minimizedAffinity>
-5.14871788

>  <minimizedRMSD>
1.06011808

$$$$
