
 OpenBabel03272509183D

 33 35  0  0  1  0  0  0  0  0999 V2000
   38.0650   31.2720   47.8950 C   0  0  0  0  0  0  0  0  0  0  0  0
   37.2450   31.5430   48.9950 C   0  0  0  0  0  0  0  0  0  0  0  0
   37.5040   32.7520   49.6420 C   0  0  0  0  0  0  0  0  0  0  0  0
   38.5210   33.6110   49.1930 C   0  0  0  0  0  0  0  0  0  0  0  0
   39.2840   33.2480   48.0820 C   0  0  0  0  0  0  0  0  0  0  0  0
   39.0500   32.0680   47.4310 C   0  0  0  0  0  0  0  0  0  0  0  0
   36.9130   33.0390   50.5040 H   0  0  0  0  0  0  0  0  0  0  0  0
   38.6480   34.5260   49.7550 H   0  0  0  0  0  0  0  0  0  0  0  0
   40.0180   34.0010   47.8600 H   0  0  0  0  0  0  0  0  0  0  0  0
   35.0580   30.4880   48.6950 C   0  0  0  0  0  0  0  0  0  0  0  0
   36.2100   30.6650   49.4490 C   0  0  0  0  0  0  0  0  0  0  0  0
   36.3070   29.9530   50.6570 C   0  0  0  0  0  0  0  0  0  0  0  0
   35.2790   29.1400   51.0150 N   0  0  0  0  0  0  0  0  0  0  0  0
   34.1770   28.9970   50.2530 C   0  0  0  0  0  0  0  0  0  0  0  0
   34.0670   29.6640   49.1060 N   0  0  0  0  0  0  0  0  0  0  0  0
   34.9740   31.0330   47.7630 H   0  0  0  0  0  0  0  0  0  0  0  0
   33.4710   28.3100   50.7020 H   0  0  0  0  0  0  0  0  0  0  0  0
   37.5140   30.0930   51.5140 C   0  0  0  0  0  0  0  0  0  0  0  0
   37.6380   29.1950   52.1480 H   0  0  0  0  0  0  0  0  0  0  0  0
   37.3530   30.9690   52.1760 H   0  0  0  0  0  0  0  0  0  0  0  0
   38.3850   30.3000   50.8640 H   0  0  0  0  0  0  0  0  0  0  0  0
   37.8630   30.0760   47.1950 O   0  0  0  0  0  0  0  0  0  0  0  0
   38.3710   29.2840   47.5700 H   0  0  0  0  0  0  0  0  0  0  0  0
   39.8240   31.7460   46.3440 O   0  0  0  0  0  0  0  0  0  0  0  0
   41.7080   31.4390   44.5220 H   0  0  0  0  0  0  0  0  0  0  0  0
   40.7580   31.6450   44.1670 N   0  0  0  0  0  0  0  0  0  0  0  0
   40.0630   32.4360   45.1820 C   0  0  1  0  0  3  0  0  0  0  0  0
   38.8240   33.0020   44.5250 C   0  0  0  0  0  3  0  0  0  0  0  0
   38.0300   33.2640   45.2470 H   0  0  0  0  0  0  0  0  0  0  0  0
   38.3630   32.0170   43.5680 N   0  0  0  0  0  0  0  0  0  0  0  0
   38.8760   32.1100   42.6630 H   0  0  0  0  0  0  0  0  0  0  0  0
   38.5940   30.6570   44.0380 C   0  0  0  0  0  2  0  0  0  0  0  0
   40.0690   30.3640   43.9790 C   0  0  0  0  0  2  0  0  0  0  0  0
  1  2  1  0  0  0  0
  2 11  1  0  0  0  0
  2  3  2  0  0  0  0
  3  7  1  0  0  0  0
  4  3  1  0  0  0  0
  4  8  1  0  0  0  0
  5  4  2  0  0  0  0
  6  1  2  0  0  0  0
  6  5  1  0  0  0  0
  9  5  1  0  0  0  0
 10 15  2  0  0  0  0
 10 11  1  0  0  0  0
 11 12  2  0  0  0  0
 12 13  1  0  0  0  0
 12 18  1  0  0  0  0
 14 17  1  0  0  0  0
 14 13  2  0  0  0  0
 15 14  1  0  0  0  0
 16 10  1  0  0  0  0
 18 19  1  0  0  0  0
 18 20  1  0  0  0  0
 21 18  1  0  0  0  0
 22 23  1  0  0  0  0
 22  1  1  0  0  0  0
 24  6  1  0  0  0  0
 26 25  1  0  0  0  0
 26 27  1  0  0  0  0
 27 24  1  1  0  0  0
 28 27  1  0  0  0  0
 28 29  1  0  0  0  0
 30 32  1  0  0  0  0
 30 28  1  0  0  0  0
 31 30  1  0  0  0  0
 33 32  1  0  0  0  0
 33 26  1  0  0  0  0
M  END
>  <minimizedAffinity>
-6.25392914

>  <minimizedRMSD>
1.99033558

$$$$
