
 OpenBabel03272510003D

 21 22  0  0  0  0  0  0  0  0999 V2000
   38.2600   31.3570   50.2190 C   0  0  0  0  0  0  0  0  0  0  0  0
   38.5040   31.3980   48.8440 C   0  0  0  0  0  0  0  0  0  0  0  0
   37.6100   30.7400   48.0010 C   0  0  0  0  0  0  0  0  0  0  0  0
   36.5570   30.1010   48.5710 N   0  0  0  0  0  0  0  0  0  0  0  0
   36.3400   30.0740   49.8890 C   0  0  0  0  0  0  0  0  0  0  0  0
   37.1990   30.7080   50.7130 N   0  0  0  0  0  0  0  0  0  0  0  0
   38.9770   31.8830   50.8690 H   0  0  0  0  0  0  0  0  0  0  0  0
   39.3420   31.9040   48.3760 H   0  0  0  0  0  0  0  0  0  0  0  0
   37.7370   30.7000   46.5910 N   0  0  0  0  0  0  0  0  0  0  0  0
   39.0140   30.8090   45.8940 C   0  0  0  0  0  3  0  0  0  0  0  0
   39.8600   30.5160   46.5520 H   0  0  0  0  0  0  0  0  0  0  0  0
   39.0640   29.9390   44.6780 C   0  0  0  0  0  3  0  0  0  0  0  0
   39.8760   30.3280   44.0320 H   0  0  0  0  0  0  0  0  0  0  0  0
   37.8580   29.8780   43.9140 N   0  0  0  0  0  0  0  0  0  0  0  0
   37.4630   28.9030   44.0160 H   0  0  0  0  0  0  0  0  0  0  0  0
   36.8350   30.7780   44.3670 C   0  0  0  0  0  2  0  0  0  0  0  0
   36.5120   30.5440   45.8420 C   0  0  0  0  0  2  0  0  0  0  0  0
   35.1530   29.3430   50.3980 C   0  0  0  0  0  0  0  0  0  0  0  0
   35.2370   29.1000   51.7630 F   0  0  0  0  0  0  0  0  0  0  0  0
   33.9960   30.0820   50.2070 F   0  0  0  0  0  0  0  0  0  0  0  0
   34.9610   28.1380   49.7720 F   0  0  0  0  0  0  0  0  0  0  0  0
  1  6  1  0  0  0  0
  1  7  1  0  0  0  0
  2  1  2  0  0  0  0
  3  4  2  0  0  0  0
  3  2  1  0  0  0  0
  4  5  1  0  0  0  0
  5 18  1  0  0  0  0
  5  6  2  0  0  0  0
  8  2  1  0  0  0  0
  9  3  1  0  0  0  0
 10 11  1  0  0  0  0
 10  9  1  0  0  0  0
 12 10  1  0  0  0  0
 13 12  1  0  0  0  0
 14 15  1  0  0  0  0
 14 16  1  0  0  0  0
 14 12  1  0  0  0  0
 16 17  1  0  0  0  0
 17  9  1  0  0  0  0
 18 19  1  0  0  0  0
 20 18  1  0  0  0  0
 21 18  1  0  0  0  0
M  END
>  <minimizedAffinity>
-5.1489234

>  <minimizedRMSD>
0.97002703

$$$$
