
 OpenBabel03272508523D

 38 41  0  0  1  0  0  0  0  0999 V2000
   38.3680   31.8870   44.4790 C   0  0  0  0  0  0  0  0  0  0  0  0
   37.2670   32.4620   44.3780 O   0  0  0  0  0  0  0  0  0  0  0  0
   38.9360   31.5900   45.7780 N   0  0  0  0  0  0  0  0  0  0  0  0
   39.9070   31.2850   45.9330 H   0  0  0  0  0  0  0  0  0  0  0  0
   39.1590   31.4750   43.2860 C   0  0  0  0  0  0  0  0  0  0  0  0
   40.1850   30.5810   43.4470 C   0  0  0  0  0  0  0  0  0  0  0  0
   40.8990   30.2290   42.3160 C   0  0  0  0  0  0  0  0  0  0  0  0
   40.5390   30.7910   41.1140 C   0  0  0  0  0  0  0  0  0  0  0  0
   39.5030   31.6930   40.9520 C   0  0  0  0  0  0  0  0  0  0  0  0
   38.8430   32.0010   42.0800 N   0  0  0  0  0  0  0  0  0  0  0  0
   40.4500   30.1520   44.4040 H   0  0  0  0  0  0  0  0  0  0  0  0
   41.7250   29.5310   42.3490 H   0  0  0  0  0  0  0  0  0  0  0  0
   41.0900   30.5270   40.2060 H   0  0  0  0  0  0  0  0  0  0  0  0
   39.0910   32.2960   39.7590 N   0  0  0  0  0  0  0  0  0  0  0  0
   38.4860   33.6170   39.6950 C   0  0  0  0  0  0  0  0  0  0  0  0
   37.3770   33.4650   39.8090 H   0  0  0  0  0  0  0  0  0  0  0  0
   38.6820   34.1880   38.3230 C   0  0  0  0  0  0  0  0  0  0  0  0
   37.8670   33.8940   37.6370 H   0  0  0  0  0  0  0  0  0  0  0  0
   39.9720   33.8970   37.7400 N   0  0  0  0  0  0  0  0  0  0  0  0
   40.7430   34.4680   38.0990 H   0  0  0  0  0  0  0  0  0  0  0  0
   40.2410   32.4810   37.6380 C   0  0  0  0  0  0  0  0  0  0  0  0
   39.2070   31.6960   38.4440 C   0  0  0  0  0  0  0  0  0  0  0  0
   38.4360   31.1060   48.1660 C   0  0  2  0  0  0  0  0  0  0  0  0
   38.7110   32.5500   48.0800 C   0  0  0  0  0  0  0  0  0  0  0  0
   38.0580   31.7430   46.9280 C   0  0  1  0  0  0  0  0  0  0  0  0
   39.3520   30.4850   48.2440 H   0  0  0  0  0  0  0  0  0  0  0  0
   39.7380   32.9010   47.9380 H   0  0  0  0  0  0  0  0  0  0  0  0
   38.0500   33.2570   48.6260 H   0  0  0  0  0  0  0  0  0  0  0  0
   37.0040   32.0460   46.7430 H   0  0  0  0  0  0  0  0  0  0  0  0
   35.0890   30.2380   49.5030 C   0  0  0  0  0  0  0  0  0  0  0  0
   35.4160   29.5540   50.7180 C   0  0  0  0  0  0  0  0  0  0  0  0
   36.8160   29.4170   51.0500 C   0  0  0  0  0  0  0  0  0  0  0  0
   37.7470   29.9360   50.2050 N   0  0  0  0  0  0  0  0  0  0  0  0
   37.3580   30.5750   49.0660 C   0  0  0  0  0  0  0  0  0  0  0  0
   36.0410   30.7420   48.6880 N   0  0  0  0  0  0  0  0  0  0  0  0
   34.0320   30.3170   49.2950 H   0  0  0  0  0  0  0  0  0  0  0  0
   34.6390   29.1700   51.3360 H   0  0  0  0  0  0  0  0  0  0  0  0
   37.0660   28.9070   51.9560 H   0  0  0  0  0  0  0  0  0  0  0  0
  1  3  1  0  0  0  0
  2  1  2  0  0  0  0
  3  4  1  0  0  0  0
  3 25  1  0  0  0  0
  5  6  1  0  0  0  0
  5  1  1  0  0  0  0
  6 11  1  0  0  0  0
  7 12  1  0  0  0  0
  7  6  2  0  0  0  0
  8  7  1  0  0  0  0
  9  8  2  0  0  0  0
  9 10  1  0  0  0  0
 10  5  2  0  0  0  0
 13  8  1  0  0  0  0
 14  9  1  0  0  0  0
 15 14  1  0  0  0  0
 15 16  1  0  0  0  0
 17 15  1  0  0  0  0
 18 17  1  0  0  0  0
 19 20  1  0  0  0  0
 19 17  1  0  0  0  0
 21 19  1  0  0  0  0
 21 22  1  0  0  0  0
 22 14  1  0  0  0  0
 23 26  1  6  0  0  0
 23 34  1  0  0  0  0
 24 23  1  0  0  0  0
 24 28  1  0  0  0  0
 25 29  1  6  0  0  0
 25 24  1  0  0  0  0
 25 23  1  0  0  0  0
 27 24  1  0  0  0  0
 30 31  1  0  0  0  0
 31 32  2  0  0  0  0
 31 37  1  0  0  0  0
 32 38  1  0  0  0  0
 33 32  1  0  0  0  0
 34 33  2  0  0  0  0
 35 34  1  0  0  0  0
 35 30  2  0  0  0  0
 36 30  1  0  0  0  0
M  END
>  <minimizedAffinity>
-5.53344202

>  <minimizedRMSD>
0.173616007

$$$$
