
 OpenBabel03272505153D

 28 30  0  0  0  0  0  0  0  0999 V2000
   37.9780   23.2890   33.4360 Cl  0  0  0  0  0  0  0  0  0  0  0  0
   36.8930   24.2280   32.4550 C   0  0  0  0  0  0  0  0  0  0  0  0
   35.9960   23.6150   31.6350 C   0  0  0  0  0  0  0  0  0  0  0  0
   35.1750   24.4360   30.8920 C   0  0  0  0  0  0  0  0  0  0  0  0
   35.2050   25.7950   30.9270 C   0  0  0  0  0  0  0  0  0  0  0  0
   36.1200   26.3910   31.7640 C   0  0  0  0  0  0  0  0  0  0  0  0
   36.9780   25.6140   32.5400 C   0  0  0  0  0  0  0  0  0  0  0  0
   34.4530   23.9720   30.2330 H   0  0  0  0  0  0  0  0  0  0  0  0
   34.5240   26.3720   30.3110 H   0  0  0  0  0  0  0  0  0  0  0  0
   36.1640   27.4740   31.8100 H   0  0  0  0  0  0  0  0  0  0  0  0
   35.0610   20.0040   32.2660 C   0  0  0  0  0  0  0  0  0  0  0  0
   35.0610   21.4010   32.3300 C   0  0  0  0  0  0  0  0  0  0  0  0
   35.9640   22.1650   31.5960 C   0  0  0  0  0  0  0  0  0  0  0  0
   36.8300   21.4580   30.8270 N   0  0  0  0  0  0  0  0  0  0  0  0
   36.8380   20.1230   30.7600 C   0  0  0  0  0  0  0  0  0  0  0  0
   35.9560   19.3910   31.4760 N   0  0  0  0  0  0  0  0  0  0  0  0
   34.3510   19.4280   32.8430 H   0  0  0  0  0  0  0  0  0  0  0  0
   34.3720   21.9350   32.9420 H   0  0  0  0  0  0  0  0  0  0  0  0
   37.5490   19.6020   30.1300 H   0  0  0  0  0  0  0  0  0  0  0  0
   37.9280   26.2460   33.4080 N   0  0  0  0  0  0  0  0  0  0  0  0
   39.3240   26.4810   33.0880 C   0  0  0  0  0  3  0  0  0  0  0  0
   39.7580   25.4920   32.8250 H   0  0  0  0  0  0  0  0  0  0  0  0
   39.9660   26.9710   34.3870 C   0  0  0  0  0  3  0  0  0  0  0  0
   41.0430   27.0720   34.2130 H   0  0  0  0  0  0  0  0  0  0  0  0
   39.6780   25.9690   35.3730 N   0  0  0  0  0  0  0  0  0  0  0  0
   40.3520   25.9590   36.1710 H   0  0  0  0  0  0  0  0  0  0  0  0
   38.2950   25.9600   35.7460 C   0  0  0  0  0  2  0  0  0  0  0  0
   37.4540   26.6860   34.7140 C   0  0  0  0  0  2  0  0  0  0  0  0
  2  7  1  0  0  0  0
  2  1  1  0  0  0  0
  3  2  2  0  0  0  0
  4  5  2  0  0  0  0
  4  3  1  0  0  0  0
  5  6  1  0  0  0  0
  6 10  1  0  0  0  0
  6  7  2  0  0  0  0
  7 20  1  0  0  0  0
  8  4  1  0  0  0  0
  9  5  1  0  0  0  0
 11 12  1  0  0  0  0
 11 17  1  0  0  0  0
 12 18  1  0  0  0  0
 13  3  1  0  0  0  0
 13 12  2  0  0  0  0
 14 13  1  0  0  0  0
 15 14  2  0  0  0  0
 15 16  1  0  0  0  0
 16 11  2  0  0  0  0
 19 15  1  0  0  0  0
 20 28  1  0  0  0  0
 21 20  1  0  0  0  0
 21 23  1  0  0  0  0
 22 21  1  0  0  0  0
 23 25  1  0  0  0  0
 24 23  1  0  0  0  0
 25 27  1  0  0  0  0
 25 26  1  0  0  0  0
 28 27  1  0  0  0  0
M  END
>  <minimizedAffinity>
-4.84958696

$$$$

 OpenBabel03272505153D

 28 30  0  0  0  0  0  0  0  0999 V2000
   38.3050   22.7170   33.9410 Cl  0  0  0  0  0  0  0  0  0  0  0  0
   37.2290   23.5100   32.8290 C   0  0  0  0  0  0  0  0  0  0  0  0
   37.1600   24.8680   32.7830 C   0  0  0  0  0  0  0  0  0  0  0  0
   36.2800   25.4130   31.8720 C   0  0  0  0  0  0  0  0  0  0  0  0
   35.4910   24.6900   31.0330 C   0  0  0  0  0  0  0  0  0  0  0  0
   35.5780   23.3180   31.0990 C   0  0  0  0  0  0  0  0  0  0  0  0
   36.4500   22.7090   32.0000 C   0  0  0  0  0  0  0  0  0  0  0  0
   36.2080   26.4910   31.8150 H   0  0  0  0  0  0  0  0  0  0  0  0
   34.8230   25.1930   30.3430 H   0  0  0  0  0  0  0  0  0  0  0  0
   34.9590   22.7190   30.4400 H   0  0  0  0  0  0  0  0  0  0  0  0
   38.4220   26.8300   35.7610 C   0  0  0  0  0  0  0  0  0  0  0  0
   37.5810   26.0870   34.9270 C   0  0  0  0  0  0  0  0  0  0  0  0
   38.0010   25.6400   33.6770 C   0  0  0  0  0  0  0  0  0  0  0  0
   39.2720   25.9760   33.3400 N   0  0  0  0  0  0  0  0  0  0  0  0
   40.0830   26.6860   34.1320 C   0  0  0  0  0  0  0  0  0  0  0  0
   39.6640   27.1150   35.3420 N   0  0  0  0  0  0  0  0  0  0  0  0
   38.0770   27.1670   36.7290 H   0  0  0  0  0  0  0  0  0  0  0  0
   36.5860   25.8350   35.2130 H   0  0  0  0  0  0  0  0  0  0  0  0
   41.0910   26.9300   33.8180 H   0  0  0  0  0  0  0  0  0  0  0  0
   36.5320   21.2790   32.0600 N   0  0  0  0  0  0  0  0  0  0  0  0
   37.4790   20.4650   31.3200 C   0  0  0  0  0  3  0  0  0  0  0  0
   37.3420   20.7200   30.2470 H   0  0  0  0  0  0  0  0  0  0  0  0
   37.0380   19.0180   31.5430 C   0  0  0  0  0  3  0  0  0  0  0  0
   37.6720   18.3740   30.9240 H   0  0  0  0  0  0  0  0  0  0  0  0
   35.6620   18.9570   31.1380 N   0  0  0  0  0  0  0  0  0  0  0  0
   35.3480   17.9990   30.8650 H   0  0  0  0  0  0  0  0  0  0  0  0
   34.8000   19.6420   32.0540 C   0  0  0  0  0  2  0  0  0  0  0  0
   35.5910   20.5890   32.9340 C   0  0  0  0  0  2  0  0  0  0  0  0
  2  1  1  0  0  0  0
  3  2  1  0  0  0  0
  3 13  1  0  0  0  0
  4  3  2  0  0  0  0
  5  6  2  0  0  0  0
  5  4  1  0  0  0  0
  6  7  1  0  0  0  0
  7 20  1  0  0  0  0
  7  2  2  0  0  0  0
  8  4  1  0  0  0  0
  9  5  1  0  0  0  0
 10  6  1  0  0  0  0
 11 17  1  0  0  0  0
 12 18  1  0  0  0  0
 12 11  2  0  0  0  0
 13 12  1  0  0  0  0
 14 13  2  0  0  0  0
 14 15  1  0  0  0  0
 15 16  2  0  0  0  0
 16 11  1  0  0  0  0
 19 15  1  0  0  0  0
 20 28  1  0  0  0  0
 21 23  1  0  0  0  0
 21 20  1  0  0  0  0
 22 21  1  0  0  0  0
 24 23  1  0  0  0  0
 25 23  1  0  0  0  0
 25 27  1  0  0  0  0
 26 25  1  0  0  0  0
 27 28  1  0  0  0  0
M  END
>  <minimizedAffinity>
-4.82756758

$$$$

 OpenBabel03272505153D

 28 30  0  0  0  0  0  0  0  0999 V2000
   38.8720   25.9340   34.3790 Cl  0  0  0  0  0  0  0  0  0  0  0  0
   38.1400   24.4510   33.8450 C   0  0  0  0  0  0  0  0  0  0  0  0
   37.5340   24.3780   32.6280 C   0  0  0  0  0  0  0  0  0  0  0  0
   36.9790   23.1640   32.2850 C   0  0  0  0  0  0  0  0  0  0  0  0
   37.0000   22.0550   33.0720 C   0  0  0  0  0  0  0  0  0  0  0  0
   37.6190   22.1530   34.2960 C   0  0  0  0  0  0  0  0  0  0  0  0
   38.1980   23.3550   34.7000 C   0  0  0  0  0  0  0  0  0  0  0  0
   36.4920   23.0800   31.3220 H   0  0  0  0  0  0  0  0  0  0  0  0
   36.5410   21.1330   32.7290 H   0  0  0  0  0  0  0  0  0  0  0  0
   37.6500   21.2820   34.9420 H   0  0  0  0  0  0  0  0  0  0  0  0
   36.4460   27.5680   30.9100 C   0  0  0  0  0  0  0  0  0  0  0  0
   36.4310   26.4370   31.7330 C   0  0  0  0  0  0  0  0  0  0  0  0
   37.5100   25.5610   31.7890 C   0  0  0  0  0  0  0  0  0  0  0  0
   38.5620   25.8860   30.9950 N   0  0  0  0  0  0  0  0  0  0  0  0
   38.5850   26.9640   30.2050 C   0  0  0  0  0  0  0  0  0  0  0  0
   37.5310   27.8080   30.1590 N   0  0  0  0  0  0  0  0  0  0  0  0
   35.5980   28.2380   30.8810 H   0  0  0  0  0  0  0  0  0  0  0  0
   35.5930   26.2020   32.3480 H   0  0  0  0  0  0  0  0  0  0  0  0
   39.4480   27.1830   29.5880 H   0  0  0  0  0  0  0  0  0  0  0  0
   38.8400   23.4460   35.9790 N   0  0  0  0  0  0  0  0  0  0  0  0
   40.0530   22.7450   36.3560 C   0  0  0  0  0  3  0  0  0  0  0  0
   39.8580   21.6640   36.1870 H   0  0  0  0  0  0  0  0  0  0  0  0
   40.2170   22.9870   37.8570 C   0  0  0  0  0  3  0  0  0  0  0  0
   41.0730   22.3960   38.2020 H   0  0  0  0  0  0  0  0  0  0  0  0
   38.9910   22.5520   38.4640 N   0  0  0  0  0  0  0  0  0  0  0  0
   39.0910   22.2900   39.4700 H   0  0  0  0  0  0  0  0  0  0  0  0
   37.9010   23.4330   38.1690 C   0  0  0  0  0  2  0  0  0  0  0  0
   38.2250   24.3110   36.9770 C   0  0  0  0  0  2  0  0  0  0  0  0
  2  1  1  0  0  0  0
  2  7  1  0  0  0  0
  3  2  2  0  0  0  0
  4  3  1  0  0  0  0
  4  5  2  0  0  0  0
  5  6  1  0  0  0  0
  6  7  2  0  0  0  0
  6 10  1  0  0  0  0
  7 20  1  0  0  0  0
  8  4  1  0  0  0  0
  9  5  1  0  0  0  0
 11 12  1  0  0  0  0
 12 13  2  0  0  0  0
 12 18  1  0  0  0  0
 13  3  1  0  0  0  0
 14 13  1  0  0  0  0
 15 14  2  0  0  0  0
 16 15  1  0  0  0  0
 16 11  2  0  0  0  0
 17 11  1  0  0  0  0
 19 15  1  0  0  0  0
 20 21  1  0  0  0  0
 20 28  1  0  0  0  0
 21 23  1  0  0  0  0
 22 21  1  0  0  0  0
 23 24  1  0  0  0  0
 23 25  1  0  0  0  0
 25 26  1  0  0  0  0
 27 25  1  0  0  0  0
 28 27  1  0  0  0  0
M  END
>  <minimizedAffinity>
-4.80346489

$$$$

 OpenBabel03272505153D

 28 30  0  0  0  0  0  0  0  0999 V2000
   37.1100   25.4730   33.1300 Cl  0  0  0  0  0  0  0  0  0  0  0  0
   38.7200   26.0010   33.5200 C   0  0  0  0  0  0  0  0  0  0  0  0
   39.3240   26.9760   32.7880 C   0  0  0  0  0  0  0  0  0  0  0  0
   40.6010   27.3330   33.1660 C   0  0  0  0  0  0  0  0  0  0  0  0
   41.2810   26.7800   34.2060 C   0  0  0  0  0  0  0  0  0  0  0  0
   40.6490   25.7960   34.9300 C   0  0  0  0  0  0  0  0  0  0  0  0
   39.3580   25.3920   34.5960 C   0  0  0  0  0  0  0  0  0  0  0  0
   41.1030   28.1070   32.6000 H   0  0  0  0  0  0  0  0  0  0  0  0
   42.2850   27.1160   34.4420 H   0  0  0  0  0  0  0  0  0  0  0  0
   41.1710   25.3390   35.7640 H   0  0  0  0  0  0  0  0  0  0  0  0
   38.2600   28.0060   29.3060 C   0  0  0  0  0  0  0  0  0  0  0  0
   38.9860   27.4210   30.3490 C   0  0  0  0  0  0  0  0  0  0  0  0
   38.5990   27.5660   31.6780 C   0  0  0  0  0  0  0  0  0  0  0  0
   37.4800   28.3080   31.8780 N   0  0  0  0  0  0  0  0  0  0  0  0
   36.7810   28.8710   30.8880 C   0  0  0  0  0  0  0  0  0  0  0  0
   37.1650   28.7230   29.6010 N   0  0  0  0  0  0  0  0  0  0  0  0
   38.5760   27.8810   28.2800 H   0  0  0  0  0  0  0  0  0  0  0  0
   39.8620   26.8430   30.1680 H   0  0  0  0  0  0  0  0  0  0  0  0
   35.8920   29.4540   31.0970 H   0  0  0  0  0  0  0  0  0  0  0  0
   38.7090   24.3650   35.3570 N   0  0  0  0  0  0  0  0  0  0  0  0
   37.8580   24.5930   36.5100 C   0  0  0  0  0  3  0  0  0  0  0  0
   38.4610   25.1790   37.2370 H   0  0  0  0  0  0  0  0  0  0  0  0
   37.5870   23.2080   37.1000 C   0  0  0  0  0  3  0  0  0  0  0  0
   37.0230   23.3420   38.0290 H   0  0  0  0  0  0  0  0  0  0  0  0
   38.8750   22.6220   37.3400 N   0  0  0  0  0  0  0  0  0  0  0  0
   38.8680   21.8780   38.0740 H   0  0  0  0  0  0  0  0  0  0  0  0
   39.5420   22.2670   36.1230 C   0  0  0  0  0  2  0  0  0  0  0  0
   38.9230   22.9850   34.9400 C   0  0  0  0  0  2  0  0  0  0  0  0
  1  2  1  0  0  0  0
  2  7  1  0  0  0  0
  3  4  1  0  0  0  0
  3  2  2  0  0  0  0
  4  5  2  0  0  0  0
  5  9  1  0  0  0  0
  5  6  1  0  0  0  0
  6 10  1  0  0  0  0
  7  6  2  0  0  0  0
  7 20  1  0  0  0  0
  8  4  1  0  0  0  0
 11 16  2  0  0  0  0
 11 12  1  0  0  0  0
 12 13  2  0  0  0  0
 13 14  1  0  0  0  0
 13  3  1  0  0  0  0
 15 19  1  0  0  0  0
 15 14  2  0  0  0  0
 16 15  1  0  0  0  0
 17 11  1  0  0  0  0
 18 12  1  0  0  0  0
 20 21  1  0  0  0  0
 21 23  1  0  0  0  0
 21 22  1  0  0  0  0
 23 25  1  0  0  0  0
 23 24  1  0  0  0  0
 25 26  1  0  0  0  0
 27 25  1  0  0  0  0
 28 20  1  0  0  0  0
 28 27  1  0  0  0  0
M  END
>  <minimizedAffinity>
-4.79445696

$$$$

 OpenBabel03272505153D

 28 30  0  0  0  0  0  0  0  0999 V2000
   39.4640   26.4130   31.7550 Cl  0  0  0  0  0  0  0  0  0  0  0  0
   39.0230   26.6730   33.4160 C   0  0  0  0  0  0  0  0  0  0  0  0
   39.9760   26.7110   34.3870 C   0  0  0  0  0  0  0  0  0  0  0  0
   39.5380   26.9210   35.6770 C   0  0  0  0  0  0  0  0  0  0  0  0
   38.2360   27.0890   36.0330 C   0  0  0  0  0  0  0  0  0  0  0  0
   37.2910   27.0470   35.0330 C   0  0  0  0  0  0  0  0  0  0  0  0
   37.6720   26.8380   33.7100 C   0  0  0  0  0  0  0  0  0  0  0  0
   40.2770   26.9560   36.4670 H   0  0  0  0  0  0  0  0  0  0  0  0
   37.9710   27.2510   37.0720 H   0  0  0  0  0  0  0  0  0  0  0  0
   36.2460   27.1790   35.2920 H   0  0  0  0  0  0  0  0  0  0  0  0
   43.4180   25.2260   33.8750 C   0  0  0  0  0  0  0  0  0  0  0  0
   42.0790   25.3620   34.2560 C   0  0  0  0  0  0  0  0  0  0  0  0
   41.3650   26.5310   34.0080 C   0  0  0  0  0  0  0  0  0  0  0  0
   42.0590   27.5110   33.3770 N   0  0  0  0  0  0  0  0  0  0  0  0
   43.3390   27.3900   33.0100 C   0  0  0  0  0  0  0  0  0  0  0  0
   44.0230   26.2510   33.2560 N   0  0  0  0  0  0  0  0  0  0  0  0
   43.9560   24.3100   34.0760 H   0  0  0  0  0  0  0  0  0  0  0  0
   41.5540   24.5780   34.7510 H   0  0  0  0  0  0  0  0  0  0  0  0
   43.8520   28.2020   32.5080 H   0  0  0  0  0  0  0  0  0  0  0  0
   36.6800   26.7950   32.6770 N   0  0  0  0  0  0  0  0  0  0  0  0
   36.2350   25.5930   31.9960 C   0  0  0  0  0  3  0  0  0  0  0  0
   37.1440   25.1180   31.5680 H   0  0  0  0  0  0  0  0  0  0  0  0
   35.3450   26.0770   30.8490 C   0  0  0  0  0  3  0  0  0  0  0  0
   35.0630   25.2040   30.2510 H   0  0  0  0  0  0  0  0  0  0  0  0
   36.1420   27.0020   30.0950 N   0  0  0  0  0  0  0  0  0  0  0  0
   35.8330   27.1100   29.1020 H   0  0  0  0  0  0  0  0  0  0  0  0
   36.3570   28.2300   30.8010 C   0  0  0  0  0  2  0  0  0  0  0  0
   36.0710   28.0580   32.2800 C   0  0  0  0  0  2  0  0  0  0  0  0
  1  2  1  0  0  0  0
  2  7  2  0  0  0  0
  2  3  1  0  0  0  0
  3  4  2  0  0  0  0
  4  5  1  0  0  0  0
  4  8  1  0  0  0  0
  5  9  1  0  0  0  0
  6 10  1  0  0  0  0
  6  5  2  0  0  0  0
  7  6  1  0  0  0  0
 11 17  1  0  0  0  0
 11 12  1  0  0  0  0
 12 18  1  0  0  0  0
 13 12  2  0  0  0  0
 13  3  1  0  0  0  0
 14 13  1  0  0  0  0
 15 16  1  0  0  0  0
 15 14  2  0  0  0  0
 16 11  2  0  0  0  0
 19 15  1  0  0  0  0
 20  7  1  0  0  0  0
 21 20  1  0  0  0  0
 22 21  1  0  0  0  0
 23 21  1  0  0  0  0
 24 23  1  0  0  0  0
 25 27  1  0  0  0  0
 25 23  1  0  0  0  0
 26 25  1  0  0  0  0
 27 28  1  0  0  0  0
 28 20  1  0  0  0  0
M  END
>  <minimizedAffinity>
-4.77380419

$$$$

 OpenBabel03272505153D

 28 30  0  0  0  0  0  0  0  0999 V2000
   38.1090   23.5200   33.9110 Cl  0  0  0  0  0  0  0  0  0  0  0  0
   39.1470   24.9150   33.8890 C   0  0  0  0  0  0  0  0  0  0  0  0
   40.1810   25.0200   34.7680 C   0  0  0  0  0  0  0  0  0  0  0  0
   40.9530   26.1590   34.6810 C   0  0  0  0  0  0  0  0  0  0  0  0
   40.7480   27.1650   33.7890 C   0  0  0  0  0  0  0  0  0  0  0  0
   39.6970   27.0340   32.9110 C   0  0  0  0  0  0  0  0  0  0  0  0
   38.8800   25.9060   32.9500 C   0  0  0  0  0  0  0  0  0  0  0  0
   41.7820   26.2660   35.3680 H   0  0  0  0  0  0  0  0  0  0  0  0
   41.4020   28.0300   33.7830 H   0  0  0  0  0  0  0  0  0  0  0  0
   39.5130   27.8230   32.1900 H   0  0  0  0  0  0  0  0  0  0  0  0
   41.6540   22.0480   36.5880 C   0  0  0  0  0  0  0  0  0  0  0  0
   41.4780   23.0710   35.6500 C   0  0  0  0  0  0  0  0  0  0  0  0
   40.4000   23.9480   35.7200 C   0  0  0  0  0  0  0  0  0  0  0  0
   39.5480   23.7370   36.7560 N   0  0  0  0  0  0  0  0  0  0  0  0
   39.7080   22.7620   37.6570 C   0  0  0  0  0  0  0  0  0  0  0  0
   40.7590   21.9160   37.5780 N   0  0  0  0  0  0  0  0  0  0  0  0
   42.4990   21.3770   36.5160 H   0  0  0  0  0  0  0  0  0  0  0  0
   42.1600   23.2180   34.8440 H   0  0  0  0  0  0  0  0  0  0  0  0
   39.0010   22.6330   38.4670 H   0  0  0  0  0  0  0  0  0  0  0  0
   37.7870   25.7810   32.0320 N   0  0  0  0  0  0  0  0  0  0  0  0
   36.4380   26.2600   32.2700 C   0  0  0  0  0  3  0  0  0  0  0  0
   36.0990   25.7890   33.2180 H   0  0  0  0  0  0  0  0  0  0  0  0
   35.5980   25.7090   31.1170 C   0  0  0  0  0  3  0  0  0  0  0  0
   34.5510   25.9710   31.3080 H   0  0  0  0  0  0  0  0  0  0  0  0
   35.8000   24.2880   31.1240 N   0  0  0  0  0  0  0  0  0  0  0  0
   35.0240   23.7510   30.6770 H   0  0  0  0  0  0  0  0  0  0  0  0
   37.1170   23.9290   30.6890 C   0  0  0  0  0  2  0  0  0  0  0  0
   38.0520   25.1200   30.7600 C   0  0  0  0  0  2  0  0  0  0  0  0
  2  1  1  0  0  0  0
  2  3  1  0  0  0  0
  3 13  1  0  0  0  0
  4  3  2  0  0  0  0
  4  8  1  0  0  0  0
  5  4  1  0  0  0  0
  6  7  1  0  0  0  0
  6  5  2  0  0  0  0
  7  2  2  0  0  0  0
  9  5  1  0  0  0  0
 10  6  1  0  0  0  0
 11 16  1  0  0  0  0
 12 13  1  0  0  0  0
 12 11  2  0  0  0  0
 13 14  2  0  0  0  0
 14 15  1  0  0  0  0
 15 19  1  0  0  0  0
 16 15  2  0  0  0  0
 17 11  1  0  0  0  0
 18 12  1  0  0  0  0
 20 21  1  0  0  0  0
 20  7  1  0  0  0  0
 21 22  1  0  0  0  0
 23 25  1  0  0  0  0
 23 24  1  0  0  0  0
 23 21  1  0  0  0  0
 26 25  1  0  0  0  0
 27 28  1  0  0  0  0
 27 25  1  0  0  0  0
 28 20  1  0  0  0  0
M  END
>  <minimizedAffinity>
-4.65881395

$$$$

 OpenBabel03272505153D

 28 30  0  0  0  0  0  0  0  0999 V2000
   40.6220   24.6940   34.3000 Cl  0  0  0  0  0  0  0  0  0  0  0  0
   39.7790   24.1760   35.7300 C   0  0  0  0  0  0  0  0  0  0  0  0
   38.5290   24.6420   36.0030 C   0  0  0  0  0  0  0  0  0  0  0  0
   37.9350   24.1790   37.1570 C   0  0  0  0  0  0  0  0  0  0  0  0
   38.5100   23.3050   38.0260 C   0  0  0  0  0  0  0  0  0  0  0  0
   39.7740   22.8490   37.7280 C   0  0  0  0  0  0  0  0  0  0  0  0
   40.4270   23.2800   36.5750 C   0  0  0  0  0  0  0  0  0  0  0  0
   36.9410   24.5340   37.3960 H   0  0  0  0  0  0  0  0  0  0  0  0
   37.9770   22.9870   38.9150 H   0  0  0  0  0  0  0  0  0  0  0  0
   40.2540   22.1500   38.4040 H   0  0  0  0  0  0  0  0  0  0  0  0
   37.0810   27.7810   34.4670 C   0  0  0  0  0  0  0  0  0  0  0  0
   37.6760   26.9110   35.3870 C   0  0  0  0  0  0  0  0  0  0  0  0
   37.9150   25.5750   35.0780 C   0  0  0  0  0  0  0  0  0  0  0  0
   37.5340   25.1910   33.8330 N   0  0  0  0  0  0  0  0  0  0  0  0
   36.9640   26.0160   32.9480 C   0  0  0  0  0  0  0  0  0  0  0  0
   36.7360   27.3100   33.2590 N   0  0  0  0  0  0  0  0  0  0  0  0
   36.9030   28.8160   34.7260 H   0  0  0  0  0  0  0  0  0  0  0  0
   37.9670   27.2350   36.3590 H   0  0  0  0  0  0  0  0  0  0  0  0
   36.6760   25.6630   31.9650 H   0  0  0  0  0  0  0  0  0  0  0  0
   41.7440   22.7990   36.2750 N   0  0  0  0  0  0  0  0  0  0  0  0
   42.9750   23.5230   36.5320 C   0  0  0  0  0  3  0  0  0  0  0  0
   42.8790   24.5020   36.0140 H   0  0  0  0  0  0  0  0  0  0  0  0
   44.0780   22.7100   35.8520 C   0  0  0  0  0  3  0  0  0  0  0  0
   45.0140   23.2720   35.9430 H   0  0  0  0  0  0  0  0  0  0  0  0
   43.6750   22.5670   34.4820 N   0  0  0  0  0  0  0  0  0  0  0  0
   44.4700   22.3930   33.8270 H   0  0  0  0  0  0  0  0  0  0  0  0
   42.5610   21.6780   34.3370 C   0  0  0  0  0  2  0  0  0  0  0  0
   41.8530   21.4810   35.6630 C   0  0  0  0  0  2  0  0  0  0  0  0
  1  2  1  0  0  0  0
  2  3  2  0  0  0  0
  2  7  1  0  0  0  0
  3  4  1  0  0  0  0
  4  8  1  0  0  0  0
  4  5  2  0  0  0  0
  5  9  1  0  0  0  0
  6  5  1  0  0  0  0
  6 10  1  0  0  0  0
  7  6  2  0  0  0  0
 11 17  1  0  0  0  0
 11 12  1  0  0  0  0
 12 18  1  0  0  0  0
 13 12  2  0  0  0  0
 13  3  1  0  0  0  0
 14 13  1  0  0  0  0
 15 16  1  0  0  0  0
 15 14  2  0  0  0  0
 16 11  2  0  0  0  0
 19 15  1  0  0  0  0
 20 21  1  0  0  0  0
 20  7  1  0  0  0  0
 22 21  1  0  0  0  0
 23 24  1  0  0  0  0
 23 21  1  0  0  0  0
 25 23  1  0  0  0  0
 26 25  1  0  0  0  0
 27 25  1  0  0  0  0
 27 28  1  0  0  0  0
 28 20  1  0  0  0  0
M  END
>  <minimizedAffinity>
-4.65137577

$$$$

 OpenBabel03272505153D

 28 30  0  0  0  0  0  0  0  0999 V2000
   38.5990   25.4940   34.3990 Cl  0  0  0  0  0  0  0  0  0  0  0  0
   37.9640   24.0070   33.7610 C   0  0  0  0  0  0  0  0  0  0  0  0
   37.9190   22.8860   34.5330 C   0  0  0  0  0  0  0  0  0  0  0  0
   37.4010   21.7510   33.9480 C   0  0  0  0  0  0  0  0  0  0  0  0
   36.9410   21.6830   32.6700 C   0  0  0  0  0  0  0  0  0  0  0  0
   36.9960   22.8280   31.9100 C   0  0  0  0  0  0  0  0  0  0  0  0
   37.5100   24.0080   32.4460 C   0  0  0  0  0  0  0  0  0  0  0  0
   37.3540   20.8480   34.5410 H   0  0  0  0  0  0  0  0  0  0  0  0
   36.5460   20.7500   32.2810 H   0  0  0  0  0  0  0  0  0  0  0  0
   36.6340   22.7990   30.8870 H   0  0  0  0  0  0  0  0  0  0  0  0
   40.1380   22.6700   37.5900 C   0  0  0  0  0  0  0  0  0  0  0  0
   39.7000   22.5860   36.2640 C   0  0  0  0  0  0  0  0  0  0  0  0
   38.4110   22.9580   35.8960 C   0  0  0  0  0  0  0  0  0  0  0  0
   37.6250   23.4040   36.9090 N   0  0  0  0  0  0  0  0  0  0  0  0
   38.0350   23.4870   38.1790 C   0  0  0  0  0  0  0  0  0  0  0  0
   39.2890   23.1220   38.5250 N   0  0  0  0  0  0  0  0  0  0  0  0
   41.1440   22.3760   37.8560 H   0  0  0  0  0  0  0  0  0  0  0  0
   40.3350   22.2330   35.4850 H   0  0  0  0  0  0  0  0  0  0  0  0
   37.3710   23.8490   38.9540 H   0  0  0  0  0  0  0  0  0  0  0  0
   37.5630   25.1950   31.6440 N   0  0  0  0  0  0  0  0  0  0  0  0
   38.7340   25.6660   30.9280 C   0  0  0  0  0  3  0  0  0  0  0  0
   39.5450   25.7660   31.6810 H   0  0  0  0  0  0  0  0  0  0  0  0
   38.3660   27.0580   30.4110 C   0  0  0  0  0  3  0  0  0  0  0  0
   39.2570   27.4890   29.9430 H   0  0  0  0  0  0  0  0  0  0  0  0
   37.9540   27.8100   31.5630 N   0  0  0  0  0  0  0  0  0  0  0  0
   38.0500   28.8440   31.4450 H   0  0  0  0  0  0  0  0  0  0  0  0
   36.6880   27.3710   32.0690 C   0  0  0  0  0  2  0  0  0  0  0  0
   36.3470   25.9910   31.5430 C   0  0  0  0  0  2  0  0  0  0  0  0
  2  1  1  0  0  0  0
  2  3  1  0  0  0  0
  3 13  1  0  0  0  0
  4  3  2  0  0  0  0
  4  8  1  0  0  0  0
  5  4  1  0  0  0  0
  6  7  1  0  0  0  0
  6  5  2  0  0  0  0
  7  2  2  0  0  0  0
  9  5  1  0  0  0  0
 10  6  1  0  0  0  0
 11 17  1  0  0  0  0
 11 16  1  0  0  0  0
 12 11  2  0  0  0  0
 13 12  1  0  0  0  0
 13 14  2  0  0  0  0
 14 15  1  0  0  0  0
 15 16  2  0  0  0  0
 15 19  1  0  0  0  0
 18 12  1  0  0  0  0
 20  7  1  0  0  0  0
 21 20  1  0  0  0  0
 21 22  1  0  0  0  0
 23 21  1  0  0  0  0
 23 25  1  0  0  0  0
 24 23  1  0  0  0  0
 25 27  1  0  0  0  0
 26 25  1  0  0  0  0
 28 20  1  0  0  0  0
 28 27  1  0  0  0  0
M  END
>  <minimizedAffinity>
-4.61130571

$$$$

 OpenBabel03272505153D

 28 30  0  0  0  0  0  0  0  0999 V2000
   38.3490   26.5500   34.7980 Cl  0  0  0  0  0  0  0  0  0  0  0  0
   37.7740   25.3090   33.7250 C   0  0  0  0  0  0  0  0  0  0  0  0
   37.8850   23.9960   34.0640 C   0  0  0  0  0  0  0  0  0  0  0  0
   37.4040   23.0790   33.1550 C   0  0  0  0  0  0  0  0  0  0  0  0
   36.8360   23.3990   31.9610 C   0  0  0  0  0  0  0  0  0  0  0  0
   36.7340   24.7340   31.6420 C   0  0  0  0  0  0  0  0  0  0  0  0
   37.2030   25.7080   32.5200 C   0  0  0  0  0  0  0  0  0  0  0  0
   37.4810   22.0280   33.4010 H   0  0  0  0  0  0  0  0  0  0  0  0
   36.4800   22.6180   31.2990 H   0  0  0  0  0  0  0  0  0  0  0  0
   36.2850   25.0150   30.6960 H   0  0  0  0  0  0  0  0  0  0  0  0
   40.3710   22.9420   36.7140 C   0  0  0  0  0  0  0  0  0  0  0  0
   39.8220   23.2660   35.4690 C   0  0  0  0  0  0  0  0  0  0  0  0
   38.4920   23.6530   35.3360 C   0  0  0  0  0  0  0  0  0  0  0  0
   37.7820   23.6920   36.4920 N   0  0  0  0  0  0  0  0  0  0  0  0
   38.2980   23.3840   37.6870 C   0  0  0  0  0  0  0  0  0  0  0  0
   39.5910   23.0090   37.8040 N   0  0  0  0  0  0  0  0  0  0  0  0
   41.4070   22.6450   36.7970 H   0  0  0  0  0  0  0  0  0  0  0  0
   40.3990   23.2280   34.5740 H   0  0  0  0  0  0  0  0  0  0  0  0
   37.6920   23.4300   38.5830 H   0  0  0  0  0  0  0  0  0  0  0  0
   37.0930   27.0960   32.1770 N   0  0  0  0  0  0  0  0  0  0  0  0
   36.0120   27.9730   32.5850 C   0  0  0  0  0  3  0  0  0  0  0  0
   35.0700   27.4950   32.2400 H   0  0  0  0  0  0  0  0  0  0  0  0
   36.2210   29.2720   31.8050 C   0  0  0  0  0  3  0  0  0  0  0  0
   35.3710   29.9300   32.0140 H   0  0  0  0  0  0  0  0  0  0  0  0
   36.2740   28.8960   30.4200 N   0  0  0  0  0  0  0  0  0  0  0  0
   36.0220   29.6700   29.7650 H   0  0  0  0  0  0  0  0  0  0  0  0
   37.4800   28.1940   30.0970 C   0  0  0  0  0  2  0  0  0  0  0  0
   38.1490   27.6680   31.3510 C   0  0  0  0  0  2  0  0  0  0  0  0
  2  3  1  0  0  0  0
  2  1  1  0  0  0  0
  3 13  1  0  0  0  0
  4  8  1  0  0  0  0
  4  3  2  0  0  0  0
  5  4  1  0  0  0  0
  6  5  2  0  0  0  0
  6  7  1  0  0  0  0
  7  2  2  0  0  0  0
  9  5  1  0  0  0  0
 10  6  1  0  0  0  0
 11 17  1  0  0  0  0
 11 16  1  0  0  0  0
 12 11  2  0  0  0  0
 13 12  1  0  0  0  0
 13 14  2  0  0  0  0
 14 15  1  0  0  0  0
 15 16  2  0  0  0  0
 15 19  1  0  0  0  0
 18 12  1  0  0  0  0
 20  7  1  0  0  0  0
 20 21  1  0  0  0  0
 22 21  1  0  0  0  0
 23 24  1  0  0  0  0
 23 21  1  0  0  0  0
 25 23  1  0  0  0  0
 26 25  1  0  0  0  0
 27 25  1  0  0  0  0
 27 28  1  0  0  0  0
 28 20  1  0  0  0  0
M  END
>  <minimizedAffinity>
-4.60835266

$$$$
