
 OpenBabel03272505393D

 31 33  0  0  0  0  0  0  0  0999 V2000
   37.8530   23.4890   33.5860 C   0  0  0  0  0  0  0  0  0  0  0  0
   37.2920   22.4750   32.8180 C   0  0  0  0  0  0  0  0  0  0  0  0
   36.5820   22.8070   31.6750 C   0  0  0  0  0  0  0  0  0  0  0  0
   36.3900   24.0910   31.2380 C   0  0  0  0  0  0  0  0  0  0  0  0
   36.9490   25.1140   32.0010 C   0  0  0  0  0  0  0  0  0  0  0  0
   37.6530   24.7680   33.1390 C   0  0  0  0  0  0  0  0  0  0  0  0
   37.4400   21.4680   33.1570 H   0  0  0  0  0  0  0  0  0  0  0  0
   36.1930   21.9380   31.1610 H   0  0  0  0  0  0  0  0  0  0  0  0
   35.8130   24.2230   30.3230 H   0  0  0  0  0  0  0  0  0  0  0  0
   36.7720   26.1000   31.6210 H   0  0  0  0  0  0  0  0  0  0  0  0
   38.1270   25.9350   33.8010 N   0  0  0  0  0  0  0  0  0  0  0  0
   39.3550   26.6920   33.9130 C   0  0  0  0  0  3  0  0  0  0  0  0
   40.1940   26.1690   33.4150 H   0  0  0  0  0  0  0  0  0  0  0  0
   39.6220   26.7660   35.4330 C   0  0  0  0  0  3  0  0  0  0  0  0
   39.3370   25.7880   35.8960 H   0  0  0  0  0  0  0  0  0  0  0  0
   38.6980   27.7500   35.9460 N   0  0  0  0  0  0  0  0  0  0  0  0
   38.5200   27.5530   36.9350 H   0  0  0  0  0  0  0  0  0  0  0  0
   37.4600   27.7920   35.2320 C   0  0  0  0  0  2  0  0  0  0  0  0
   37.0480   26.5180   34.5770 C   0  0  0  0  0  2  0  0  0  0  0  0
   38.8230   23.2510   37.0960 C   0  0  0  0  0  0  0  0  0  0  0  0
   40.0510   22.5710   37.0350 C   0  0  0  0  0  0  0  0  0  0  0  0
   40.5270   22.1990   35.7660 C   0  0  0  0  0  0  0  0  0  0  0  0
   39.7560   22.5280   34.6990 N   0  0  0  0  0  0  0  0  0  0  0  0
   38.5910   23.1760   34.7850 C   0  0  0  0  0  0  0  0  0  0  0  0
   38.1260   23.5370   35.9890 N   0  0  0  0  0  0  0  0  0  0  0  0
   40.6590   22.3130   37.8920 H   0  0  0  0  0  0  0  0  0  0  0  0
   41.4570   21.6760   35.6280 H   0  0  0  0  0  0  0  0  0  0  0  0
   38.3320   23.6480   38.4610 C   0  0  0  0  0  0  0  0  0  0  0  0
   37.9300   24.9870   38.4180 F   0  0  0  0  0  0  0  0  0  0  0  0
   37.3230   22.8200   38.8050 F   0  0  0  0  0  0  0  0  0  0  0  0
   39.3960   23.5870   39.3350 F   0  0  0  0  0  0  0  0  0  0  0  0
  1 24  1  0  0  0  0
  2  7  1  0  0  0  0
  2  1  2  0  0  0  0
  3  2  1  0  0  0  0
  4  3  2  0  0  0  0
  4  5  1  0  0  0  0
  5  6  2  0  0  0  0
  6  1  1  0  0  0  0
  6 11  1  0  0  0  0
  8  3  1  0  0  0  0
  9  4  1  0  0  0  0
 10  5  1  0  0  0  0
 11 12  1  0  0  0  0
 11 19  1  0  0  0  0
 12 14  1  0  0  0  0
 13 12  1  0  0  0  0
 14 15  1  0  0  0  0
 14 16  1  0  0  0  0
 16 17  1  0  0  0  0
 18 16  1  0  0  0  0
 19 18  1  0  0  0  0
 20 28  1  0  0  0  0
 21 20  1  0  0  0  0
 21 26  1  0  0  0  0
 22 21  2  0  0  0  0
 23 24  2  0  0  0  0
 23 22  1  0  0  0  0
 24 25  1  0  0  0  0
 25 20  2  0  0  0  0
 27 22  1  0  0  0  0
 28 30  1  0  0  0  0
 28 31  1  0  0  0  0
 29 28  1  0  0  0  0
M  END
>  <minimizedAffinity>
-6.24821758

$$$$

 OpenBabel03272505393D

 31 33  0  0  0  0  0  0  0  0999 V2000
   36.8880   21.5870   33.6540 C   0  0  0  0  0  0  0  0  0  0  0  0
   36.1840   20.4170   33.9180 C   0  0  0  0  0  0  0  0  0  0  0  0
   35.1780   20.0230   33.0500 C   0  0  0  0  0  0  0  0  0  0  0  0
   34.8200   20.7200   31.9260 C   0  0  0  0  0  0  0  0  0  0  0  0
   35.5200   21.8940   31.6530 C   0  0  0  0  0  0  0  0  0  0  0  0
   36.5200   22.2750   32.5290 C   0  0  0  0  0  0  0  0  0  0  0  0
   36.4620   19.8680   34.7970 H   0  0  0  0  0  0  0  0  0  0  0  0
   34.7030   19.1010   33.3560 H   0  0  0  0  0  0  0  0  0  0  0  0
   34.0130   20.3070   31.3220 H   0  0  0  0  0  0  0  0  0  0  0  0
   35.2050   22.4040   30.7650 H   0  0  0  0  0  0  0  0  0  0  0  0
   37.1040   23.5010   32.1080 N   0  0  0  0  0  0  0  0  0  0  0  0
   37.1940   24.8710   32.5650 C   0  0  0  0  0  3  0  0  0  0  0  0
   36.5530   25.0390   33.4500 H   0  0  0  0  0  0  0  0  0  0  0  0
   36.6670   25.7070   31.3780 C   0  0  0  0  0  3  0  0  0  0  0  0
   35.8110   25.1630   30.9070 H   0  0  0  0  0  0  0  0  0  0  0  0
   37.7340   25.7210   30.4040 N   0  0  0  0  0  0  0  0  0  0  0  0
   37.3300   25.8700   29.4750 H   0  0  0  0  0  0  0  0  0  0  0  0
   38.5160   24.5240   30.4030 C   0  0  0  0  0  2  0  0  0  0  0  0
   37.8120   23.2910   30.8580 C   0  0  0  0  0  2  0  0  0  0  0  0
   38.6200   22.9430   36.5660 C   0  0  0  0  0  0  0  0  0  0  0  0
   39.9710   22.8690   36.1880 C   0  0  0  0  0  0  0  0  0  0  0  0
   40.2650   22.3410   34.9180 C   0  0  0  0  0  0  0  0  0  0  0  0
   39.2120   21.9450   34.1600 N   0  0  0  0  0  0  0  0  0  0  0  0
   37.9360   22.0260   34.5430 C   0  0  0  0  0  0  0  0  0  0  0  0
   37.6420   22.5280   35.7510 N   0  0  0  0  0  0  0  0  0  0  0  0
   40.8050   23.1880   36.8010 H   0  0  0  0  0  0  0  0  0  0  0  0
   41.2710   22.2490   34.5500 H   0  0  0  0  0  0  0  0  0  0  0  0
   38.3240   23.5160   37.9250 C   0  0  0  0  0  0  0  0  0  0  0  0
   38.1060   24.8910   37.7910 F   0  0  0  0  0  0  0  0  0  0  0  0
   37.2510   22.8720   38.4310 F   0  0  0  0  0  0  0  0  0  0  0  0
   39.4510   23.3730   38.7060 F   0  0  0  0  0  0  0  0  0  0  0  0
  1  2  1  0  0  0  0
  1 24  1  0  0  0  0
  2  7  1  0  0  0  0
  3  8  1  0  0  0  0
  3  2  2  0  0  0  0
  4  3  1  0  0  0  0
  5  4  2  0  0  0  0
  5  6  1  0  0  0  0
  6  1  2  0  0  0  0
  9  4  1  0  0  0  0
 10  5  1  0  0  0  0
 11  6  1  0  0  0  0
 11 12  1  0  0  0  0
 12 13  1  0  0  0  0
 14 12  1  0  0  0  0
 15 14  1  0  0  0  0
 16 14  1  0  0  0  0
 17 16  1  0  0  0  0
 18 16  1  0  0  0  0
 18 19  1  0  0  0  0
 19 11  1  0  0  0  0
 20 28  1  0  0  0  0
 21 20  1  0  0  0  0
 21 26  1  0  0  0  0
 22 21  2  0  0  0  0
 23 24  2  0  0  0  0
 23 22  1  0  0  0  0
 24 25  1  0  0  0  0
 25 20  2  0  0  0  0
 27 22  1  0  0  0  0
 28 30  1  0  0  0  0
 28 31  1  0  0  0  0
 29 28  1  0  0  0  0
M  END
>  <minimizedAffinity>
-6.02783442

$$$$

 OpenBabel03272505393D

 31 33  0  0  0  0  0  0  0  0999 V2000
   38.0030   24.4950   33.7050 C   0  0  0  0  0  0  0  0  0  0  0  0
   37.8200   25.5640   32.8340 C   0  0  0  0  0  0  0  0  0  0  0  0
   37.8640   26.8570   33.3320 C   0  0  0  0  0  0  0  0  0  0  0  0
   38.0800   27.1630   34.6490 C   0  0  0  0  0  0  0  0  0  0  0  0
   38.2650   26.0980   35.5300 C   0  0  0  0  0  0  0  0  0  0  0  0
   38.2170   24.8150   35.0190 C   0  0  0  0  0  0  0  0  0  0  0  0
   37.6510   25.3280   31.8010 H   0  0  0  0  0  0  0  0  0  0  0  0
   37.7080   27.6020   32.5640 H   0  0  0  0  0  0  0  0  0  0  0  0
   38.0930   28.2190   34.9180 H   0  0  0  0  0  0  0  0  0  0  0  0
   38.4300   26.3870   36.5480 H   0  0  0  0  0  0  0  0  0  0  0  0
   38.4010   23.8620   36.0590 N   0  0  0  0  0  0  0  0  0  0  0  0
   37.5910   23.0950   36.9800 C   0  0  0  0  0  3  0  0  0  0  0  0
   36.5290   23.3980   36.9250 H   0  0  0  0  0  0  0  0  0  0  0  0
   38.1580   23.4480   38.3740 C   0  0  0  0  0  3  0  0  0  0  0  0
   38.4270   24.5330   38.3880 H   0  0  0  0  0  0  0  0  0  0  0  0
   39.3950   22.7130   38.4910 N   0  0  0  0  0  0  0  0  0  0  0  0
   40.0060   23.1980   39.1540 H   0  0  0  0  0  0  0  0  0  0  0  0
   40.0750   22.5440   37.2440 C   0  0  0  0  0  2  0  0  0  0  0  0
   39.8190   23.5960   36.2210 C   0  0  0  0  0  2  0  0  0  0  0  0
   36.8580   21.1010   33.0080 C   0  0  0  0  0  0  0  0  0  0  0  0
   37.9280   20.5520   32.2830 C   0  0  0  0  0  0  0  0  0  0  0  0
   39.0420   21.3770   32.0410 C   0  0  0  0  0  0  0  0  0  0  0  0
   38.9870   22.6410   32.5300 N   0  0  0  0  0  0  0  0  0  0  0  0
   37.9560   23.1380   33.2170 C   0  0  0  0  0  0  0  0  0  0  0  0
   36.8880   22.3630   33.4550 N   0  0  0  0  0  0  0  0  0  0  0  0
   37.9620   19.5420   31.8970 H   0  0  0  0  0  0  0  0  0  0  0  0
   39.9040   21.0380   31.4950 H   0  0  0  0  0  0  0  0  0  0  0  0
   35.6780   20.2040   33.2630 C   0  0  0  0  0  0  0  0  0  0  0  0
   34.5790   20.6990   32.5510 F   0  0  0  0  0  0  0  0  0  0  0  0
   36.0090   18.9500   32.8890 F   0  0  0  0  0  0  0  0  0  0  0  0
   35.3500   20.2940   34.6000 F   0  0  0  0  0  0  0  0  0  0  0  0
  1  6  1  0  0  0  0
  2  3  1  0  0  0  0
  2  1  2  0  0  0  0
  3  4  2  0  0  0  0
  4  9  1  0  0  0  0
  4  5  1  0  0  0  0
  5 10  1  0  0  0  0
  6  5  2  0  0  0  0
  6 11  1  0  0  0  0
  7  2  1  0  0  0  0
  8  3  1  0  0  0  0
 11 19  1  0  0  0  0
 11 12  1  0  0  0  0
 12 14  1  0  0  0  0
 13 12  1  0  0  0  0
 14 15  1  0  0  0  0
 14 16  1  0  0  0  0
 16 17  1  0  0  0  0
 18 16  1  0  0  0  0
 19 18  1  0  0  0  0
 20 28  1  0  0  0  0
 20 25  1  0  0  0  0
 21 20  2  0  0  0  0
 22 21  1  0  0  0  0
 22 23  2  0  0  0  0
 23 24  1  0  0  0  0
 24 25  2  0  0  0  0
 24  1  1  0  0  0  0
 26 21  1  0  0  0  0
 27 22  1  0  0  0  0
 28 31  1  0  0  0  0
 29 28  1  0  0  0  0
 30 28  1  0  0  0  0
M  END
>  <minimizedAffinity>
-5.98701239

$$$$

 OpenBabel03272505393D

 31 33  0  0  0  0  0  0  0  0999 V2000
   37.4240   22.3620   33.6240 C   0  0  0  0  0  0  0  0  0  0  0  0
   36.5970   21.2520   33.4930 C   0  0  0  0  0  0  0  0  0  0  0  0
   35.7320   21.1770   32.4120 C   0  0  0  0  0  0  0  0  0  0  0  0
   35.6320   22.1400   31.4430 C   0  0  0  0  0  0  0  0  0  0  0  0
   36.4570   23.2560   31.5660 C   0  0  0  0  0  0  0  0  0  0  0  0
   37.3140   23.3170   32.6490 C   0  0  0  0  0  0  0  0  0  0  0  0
   36.6720   20.4950   34.2500 H   0  0  0  0  0  0  0  0  0  0  0  0
   35.1400   20.2720   32.4170 H   0  0  0  0  0  0  0  0  0  0  0  0
   34.9140   21.9660   30.6430 H   0  0  0  0  0  0  0  0  0  0  0  0
   36.3440   23.9810   30.7860 H   0  0  0  0  0  0  0  0  0  0  0  0
   38.0570   24.5300   32.6240 N   0  0  0  0  0  0  0  0  0  0  0  0
   39.4040   24.9690   32.3320 C   0  0  0  0  0  3  0  0  0  0  0  0
   40.0770   24.1070   32.1660 H   0  0  0  0  0  0  0  0  0  0  0  0
   39.8430   25.7300   33.6030 C   0  0  0  0  0  3  0  0  0  0  0  0
   39.4410   25.1950   34.4990 H   0  0  0  0  0  0  0  0  0  0  0  0
   39.1700   27.0070   33.5470 N   0  0  0  0  0  0  0  0  0  0  0  0
   39.0680   27.3690   34.4990 H   0  0  0  0  0  0  0  0  0  0  0  0
   37.8890   26.9450   32.9150 C   0  0  0  0  0  2  0  0  0  0  0  0
   37.1890   25.6310   33.0000 C   0  0  0  0  0  2  0  0  0  0  0  0
   38.7610   23.0700   36.9440 C   0  0  0  0  0  0  0  0  0  0  0  0
   40.1050   22.6770   36.8310 C   0  0  0  0  0  0  0  0  0  0  0  0
   40.5310   22.1640   35.5930 C   0  0  0  0  0  0  0  0  0  0  0  0
   39.6030   22.0900   34.6060 N   0  0  0  0  0  0  0  0  0  0  0  0
   38.3300   22.4710   34.7410 C   0  0  0  0  0  0  0  0  0  0  0  0
   37.9100   22.9630   35.9160 N   0  0  0  0  0  0  0  0  0  0  0  0
   40.8380   22.7400   37.6240 H   0  0  0  0  0  0  0  0  0  0  0  0
   41.5410   21.8400   35.4190 H   0  0  0  0  0  0  0  0  0  0  0  0
   38.3240   23.6230   38.2730 C   0  0  0  0  0  0  0  0  0  0  0  0
   37.9960   24.9730   38.1090 F   0  0  0  0  0  0  0  0  0  0  0  0
   37.2790   22.8910   38.7140 F   0  0  0  0  0  0  0  0  0  0  0  0
   39.4030   23.5840   39.1310 F   0  0  0  0  0  0  0  0  0  0  0  0
  1 24  1  0  0  0  0
  2  1  1  0  0  0  0
  2  7  1  0  0  0  0
  3  8  1  0  0  0  0
  3  2  2  0  0  0  0
  4  5  2  0  0  0  0
  4  3  1  0  0  0  0
  5  6  1  0  0  0  0
  6  1  2  0  0  0  0
  9  4  1  0  0  0  0
 10  5  1  0  0  0  0
 11  6  1  0  0  0  0
 11 19  1  0  0  0  0
 12 11  1  0  0  0  0
 12 14  1  0  0  0  0
 13 12  1  0  0  0  0
 14 15  1  0  0  0  0
 16 14  1  0  0  0  0
 16 17  1  0  0  0  0
 18 19  1  0  0  0  0
 18 16  1  0  0  0  0
 20 28  1  0  0  0  0
 21 20  1  0  0  0  0
 21 26  1  0  0  0  0
 22 21  2  0  0  0  0
 23 24  2  0  0  0  0
 23 22  1  0  0  0  0
 24 25  1  0  0  0  0
 25 20  2  0  0  0  0
 27 22  1  0  0  0  0
 28 30  1  0  0  0  0
 28 31  1  0  0  0  0
 29 28  1  0  0  0  0
M  END
>  <minimizedAffinity>
-5.80684376

$$$$

 OpenBabel03272505393D

 31 33  0  0  0  0  0  0  0  0999 V2000
   37.3780   26.4080   33.8950 C   0  0  0  0  0  0  0  0  0  0  0  0
   37.0620   27.6690   34.3870 C   0  0  0  0  0  0  0  0  0  0  0  0
   36.2660   28.5120   33.6260 C   0  0  0  0  0  0  0  0  0  0  0  0
   35.7590   28.1820   32.3970 C   0  0  0  0  0  0  0  0  0  0  0  0
   36.0710   26.9200   31.8960 C   0  0  0  0  0  0  0  0  0  0  0  0
   36.8660   26.0920   32.6650 C   0  0  0  0  0  0  0  0  0  0  0  0
   37.4560   27.9300   35.3500 H   0  0  0  0  0  0  0  0  0  0  0  0
   36.0880   29.4630   34.1100 H   0  0  0  0  0  0  0  0  0  0  0  0
   35.1460   28.9310   31.8970 H   0  0  0  0  0  0  0  0  0  0  0  0
   35.6530   26.7090   30.9320 H   0  0  0  0  0  0  0  0  0  0  0  0
   37.1000   24.8630   31.9880 N   0  0  0  0  0  0  0  0  0  0  0  0
   36.6530   23.4880   32.0550 C   0  0  0  0  0  3  0  0  0  0  0  0
   36.0120   23.3190   32.9410 H   0  0  0  0  0  0  0  0  0  0  0  0
   37.9540   22.6680   32.1940 C   0  0  0  0  0  3  0  0  0  0  0  0
   38.6610   23.2250   32.8580 H   0  0  0  0  0  0  0  0  0  0  0  0
   38.5500   22.6520   30.8780 N   0  0  0  0  0  0  0  0  0  0  0  0
   39.5600   22.5140   30.9740 H   0  0  0  0  0  0  0  0  0  0  0  0
   38.2940   23.8400   30.1250 C   0  0  0  0  0  2  0  0  0  0  0  0
   38.0660   25.0760   30.9260 C   0  0  0  0  0  2  0  0  0  0  0  0
   38.5660   24.1930   36.5410 C   0  0  0  0  0  0  0  0  0  0  0  0
   39.8450   23.8260   36.0910 C   0  0  0  0  0  0  0  0  0  0  0  0
   40.2800   24.3550   34.8620 C   0  0  0  0  0  0  0  0  0  0  0  0
   39.4220   25.1790   34.2100 N   0  0  0  0  0  0  0  0  0  0  0  0
   38.2100   25.5120   34.6610 C   0  0  0  0  0  0  0  0  0  0  0  0
   37.7830   25.0160   35.8310 N   0  0  0  0  0  0  0  0  0  0  0  0
   40.5230   23.1680   36.6180 H   0  0  0  0  0  0  0  0  0  0  0  0
   41.2440   24.1270   34.4440 H   0  0  0  0  0  0  0  0  0  0  0  0
   38.1190   23.6230   37.8590 C   0  0  0  0  0  0  0  0  0  0  0  0
   37.7760   24.6810   38.7080 F   0  0  0  0  0  0  0  0  0  0  0  0
   37.0830   22.7900   37.6310 F   0  0  0  0  0  0  0  0  0  0  0  0
   39.1970   22.9890   38.4400 F   0  0  0  0  0  0  0  0  0  0  0  0
  1  2  1  0  0  0  0
  1 24  1  0  0  0  0
  2  7  1  0  0  0  0
  3  8  1  0  0  0  0
  3  2  2  0  0  0  0
  4  3  1  0  0  0  0
  5  4  2  0  0  0  0
  5  6  1  0  0  0  0
  6  1  2  0  0  0  0
  9  4  1  0  0  0  0
 10  5  1  0  0  0  0
 11 12  1  0  0  0  0
 11  6  1  0  0  0  0
 12 14  1  0  0  0  0
 12 13  1  0  0  0  0
 14 15  1  0  0  0  0
 16 17  1  0  0  0  0
 16 14  1  0  0  0  0
 18 16  1  0  0  0  0
 18 19  1  0  0  0  0
 19 11  1  0  0  0  0
 20 28  1  0  0  0  0
 21 20  1  0  0  0  0
 21 26  1  0  0  0  0
 22 21  2  0  0  0  0
 23 24  2  0  0  0  0
 23 22  1  0  0  0  0
 24 25  1  0  0  0  0
 25 20  2  0  0  0  0
 27 22  1  0  0  0  0
 28 31  1  0  0  0  0
 28 29  1  0  0  0  0
 30 28  1  0  0  0  0
M  END
>  <minimizedAffinity>
-5.58477402

$$$$

 OpenBabel03272505393D

 31 33  0  0  0  0  0  0  0  0999 V2000
   37.3730   24.2560   33.0110 C   0  0  0  0  0  0  0  0  0  0  0  0
   37.1240   25.5690   32.6300 C   0  0  0  0  0  0  0  0  0  0  0  0
   36.2200   25.8180   31.6090 C   0  0  0  0  0  0  0  0  0  0  0  0
   35.5400   24.8390   30.9340 C   0  0  0  0  0  0  0  0  0  0  0  0
   35.7830   23.5190   31.3090 C   0  0  0  0  0  0  0  0  0  0  0  0
   36.6880   23.2870   32.3280 C   0  0  0  0  0  0  0  0  0  0  0  0
   37.6550   26.3390   33.1570 H   0  0  0  0  0  0  0  0  0  0  0  0
   36.1080   26.8730   31.4010 H   0  0  0  0  0  0  0  0  0  0  0  0
   34.8540   25.1610   30.1500 H   0  0  0  0  0  0  0  0  0  0  0  0
   35.2290   22.7900   30.7530 H   0  0  0  0  0  0  0  0  0  0  0  0
   36.8270   21.8900   32.5560 N   0  0  0  0  0  0  0  0  0  0  0  0
   37.8690   20.8880   32.5340 C   0  0  0  0  0  3  0  0  0  0  0  0
   38.8160   21.3050   32.1400 H   0  0  0  0  0  0  0  0  0  0  0  0
   37.3400   19.8050   31.5670 C   0  0  0  0  0  3  0  0  0  0  0  0
   36.8100   20.3080   30.7190 H   0  0  0  0  0  0  0  0  0  0  0  0
   36.3380   19.0750   32.3060 N   0  0  0  0  0  0  0  0  0  0  0  0
   35.6770   18.6580   31.6440 H   0  0  0  0  0  0  0  0  0  0  0  0
   35.6300   19.8830   33.2500 C   0  0  0  0  0  2  0  0  0  0  0  0
   35.5360   21.3330   32.9190 C   0  0  0  0  0  2  0  0  0  0  0  0
   38.8010   23.6800   36.3190 C   0  0  0  0  0  0  0  0  0  0  0  0
   40.1550   23.4300   36.0370 C   0  0  0  0  0  0  0  0  0  0  0  0
   40.5550   23.4620   34.6890 C   0  0  0  0  0  0  0  0  0  0  0  0
   39.5950   23.7320   33.7690 N   0  0  0  0  0  0  0  0  0  0  0  0
   38.3140   23.9660   34.0650 C   0  0  0  0  0  0  0  0  0  0  0  0
   37.9180   23.9390   35.3460 N   0  0  0  0  0  0  0  0  0  0  0  0
   40.9130   23.2160   36.7780 H   0  0  0  0  0  0  0  0  0  0  0  0
   41.5710   23.2830   34.3840 H   0  0  0  0  0  0  0  0  0  0  0  0
   38.3910   23.6480   37.7660 C   0  0  0  0  0  0  0  0  0  0  0  0
   38.1150   24.9560   38.1800 F   0  0  0  0  0  0  0  0  0  0  0  0
   37.3210   22.8350   37.8850 F   0  0  0  0  0  0  0  0  0  0  0  0
   39.4720   23.2220   38.5090 F   0  0  0  0  0  0  0  0  0  0  0  0
  1 24  1  0  0  0  0
  2  1  1  0  0  0  0
  2  7  1  0  0  0  0
  3  2  2  0  0  0  0
  4  5  2  0  0  0  0
  4  3  1  0  0  0  0
  5  6  1  0  0  0  0
  6 11  1  0  0  0  0
  6  1  2  0  0  0  0
  8  3  1  0  0  0  0
  9  4  1  0  0  0  0
 10  5  1  0  0  0  0
 11 19  1  0  0  0  0
 12 11  1  0  0  0  0
 13 12  1  0  0  0  0
 14 16  1  0  0  0  0
 14 12  1  0  0  0  0
 15 14  1  0  0  0  0
 16 18  1  0  0  0  0
 17 16  1  0  0  0  0
 19 18  1  0  0  0  0
 20 28  1  0  0  0  0
 21 20  1  0  0  0  0
 21 26  1  0  0  0  0
 22 21  2  0  0  0  0
 23 24  2  0  0  0  0
 23 22  1  0  0  0  0
 24 25  1  0  0  0  0
 25 20  2  0  0  0  0
 27 22  1  0  0  0  0
 28 30  1  0  0  0  0
 28 29  1  0  0  0  0
 28 31  1  0  0  0  0
M  END
>  <minimizedAffinity>
-5.56498671

$$$$

 OpenBabel03272505393D

 31 33  0  0  0  0  0  0  0  0999 V2000
   37.4960   22.6180   33.2600 C   0  0  0  0  0  0  0  0  0  0  0  0
   36.9590   21.3570   33.0260 C   0  0  0  0  0  0  0  0  0  0  0  0
   36.0530   21.1890   31.9910 C   0  0  0  0  0  0  0  0  0  0  0  0
   35.6390   22.2000   31.1640 C   0  0  0  0  0  0  0  0  0  0  0  0
   36.1720   23.4670   31.3900 C   0  0  0  0  0  0  0  0  0  0  0  0
   37.0740   23.6200   32.4270 C   0  0  0  0  0  0  0  0  0  0  0  0
   37.2810   20.5630   33.6720 H   0  0  0  0  0  0  0  0  0  0  0  0
   35.7040   20.1690   31.9060 H   0  0  0  0  0  0  0  0  0  0  0  0
   34.9220   21.9410   30.3850 H   0  0  0  0  0  0  0  0  0  0  0  0
   35.8190   24.2240   30.7190 H   0  0  0  0  0  0  0  0  0  0  0  0
   37.4900   24.9760   32.5240 N   0  0  0  0  0  0  0  0  0  0  0  0
   37.1860   26.1480   33.3150 C   0  0  0  0  0  3  0  0  0  0  0  0
   36.3180   25.9680   33.9780 H   0  0  0  0  0  0  0  0  0  0  0  0
   36.8250   27.2310   32.2740 C   0  0  0  0  0  3  0  0  0  0  0  0
   36.2430   26.7540   31.4460 H   0  0  0  0  0  0  0  0  0  0  0  0
   38.0800   27.6600   31.7040 N   0  0  0  0  0  0  0  0  0  0  0  0
   37.9070   28.0310   30.7650 H   0  0  0  0  0  0  0  0  0  0  0  0
   39.0580   26.6200   31.6380 C   0  0  0  0  0  2  0  0  0  0  0  0
   38.5210   25.2330   31.5350 C   0  0  0  0  0  2  0  0  0  0  0  0
   38.8890   23.3380   36.5550 C   0  0  0  0  0  0  0  0  0  0  0  0
   40.2730   23.2310   36.3390 C   0  0  0  0  0  0  0  0  0  0  0  0
   40.7070   22.9040   35.0420 C   0  0  0  0  0  0  0  0  0  0  0  0
   39.7470   22.7180   34.1020 N   0  0  0  0  0  0  0  0  0  0  0  0
   38.4360   22.8250   34.3340 C   0  0  0  0  0  0  0  0  0  0  0  0
   38.0090   23.1370   35.5660 N   0  0  0  0  0  0  0  0  0  0  0  0
   41.0320   23.3820   37.0960 H   0  0  0  0  0  0  0  0  0  0  0  0
   41.7470   22.8030   34.7890 H   0  0  0  0  0  0  0  0  0  0  0  0
   38.4430   23.6940   37.9460 C   0  0  0  0  0  0  0  0  0  0  0  0
   37.3120   22.9320   38.2600 F   0  0  0  0  0  0  0  0  0  0  0  0
   39.4680   23.4630   38.7930 F   0  0  0  0  0  0  0  0  0  0  0  0
   38.0380   25.0120   37.9430 F   0  0  0  0  0  0  0  0  0  0  0  0
  1 24  1  0  0  0  0
  2  1  1  0  0  0  0
  2  7  1  0  0  0  0
  3  2  2  0  0  0  0
  4  5  2  0  0  0  0
  4  3  1  0  0  0  0
  5  6  1  0  0  0  0
  6 11  1  0  0  0  0
  6  1  2  0  0  0  0
  8  3  1  0  0  0  0
  9  4  1  0  0  0  0
 10  5  1  0  0  0  0
 11 12  1  0  0  0  0
 12 13  1  0  0  0  0
 14 12  1  0  0  0  0
 15 14  1  0  0  0  0
 16 14  1  0  0  0  0
 17 16  1  0  0  0  0
 18 16  1  0  0  0  0
 19 18  1  0  0  0  0
 19 11  1  0  0  0  0
 20 28  1  0  0  0  0
 21 20  1  0  0  0  0
 21 26  1  0  0  0  0
 22 21  2  0  0  0  0
 23 24  2  0  0  0  0
 23 22  1  0  0  0  0
 24 25  1  0  0  0  0
 25 20  2  0  0  0  0
 27 22  1  0  0  0  0
 28 29  1  0  0  0  0
 28 30  1  0  0  0  0
 31 28  1  0  0  0  0
M  END
>  <minimizedAffinity>
-5.52282

$$$$

 OpenBabel03272505393D

 31 33  0  0  0  0  0  0  0  0999 V2000
   34.9160   30.8010   35.2060 C   0  0  0  0  0  0  0  0  0  0  0  0
   35.7010   31.7860   35.7950 C   0  0  0  0  0  0  0  0  0  0  0  0
   35.1460   32.5970   36.7730 C   0  0  0  0  0  0  0  0  0  0  0  0
   33.8510   32.4950   37.2080 C   0  0  0  0  0  0  0  0  0  0  0  0
   33.0570   31.5110   36.6230 C   0  0  0  0  0  0  0  0  0  0  0  0
   33.6240   30.7100   35.6490 C   0  0  0  0  0  0  0  0  0  0  0  0
   36.7150   31.8690   35.4570 H   0  0  0  0  0  0  0  0  0  0  0  0
   35.8480   33.3250   37.1570 H   0  0  0  0  0  0  0  0  0  0  0  0
   33.5320   33.1910   37.9840 H   0  0  0  0  0  0  0  0  0  0  0  0
   32.0530   31.4690   36.9960 H   0  0  0  0  0  0  0  0  0  0  0  0
   32.6650   29.7840   35.1510 N   0  0  0  0  0  0  0  0  0  0  0  0
   32.0810   29.4090   33.8820 C   0  0  0  0  0  3  0  0  0  0  0  0
   32.4030   30.0940   33.0760 H   0  0  0  0  0  0  0  0  0  0  0  0
   30.5590   29.5510   34.1040 C   0  0  0  0  0  3  0  0  0  0  0  0
   30.3700   30.4500   34.7420 H   0  0  0  0  0  0  0  0  0  0  0  0
   30.1680   28.4010   34.8850 N   0  0  0  0  0  0  0  0  0  0  0  0
   29.3190   28.6310   35.4100 H   0  0  0  0  0  0  0  0  0  0  0  0
   31.1850   27.9550   35.7860 C   0  0  0  0  0  2  0  0  0  0  0  0
   32.1390   29.0000   36.2530 C   0  0  0  0  0  2  0  0  0  0  0  0
   36.5380   27.9880   33.5420 C   0  0  0  0  0  0  0  0  0  0  0  0
   36.5130   28.3670   32.1890 C   0  0  0  0  0  0  0  0  0  0  0  0
   35.9250   29.6040   31.8710 C   0  0  0  0  0  0  0  0  0  0  0  0
   35.4270   30.3320   32.9030 N   0  0  0  0  0  0  0  0  0  0  0  0
   35.4640   29.9460   34.1810 C   0  0  0  0  0  0  0  0  0  0  0  0
   36.0220   28.7700   34.4990 N   0  0  0  0  0  0  0  0  0  0  0  0
   36.9130   27.7800   31.3730 H   0  0  0  0  0  0  0  0  0  0  0  0
   35.8630   29.9720   30.8620 H   0  0  0  0  0  0  0  0  0  0  0  0
   37.1760   26.6650   33.8650 C   0  0  0  0  0  0  0  0  0  0  0  0
   36.8660   26.3320   35.1890 F   0  0  0  0  0  0  0  0  0  0  0  0
   36.7220   25.7480   32.9850 F   0  0  0  0  0  0  0  0  0  0  0  0
   38.5450   26.8240   33.8130 F   0  0  0  0  0  0  0  0  0  0  0  0
  1  6  2  0  0  0  0
  1  2  1  0  0  0  0
  2  3  2  0  0  0  0
  3  8  1  0  0  0  0
  3  4  1  0  0  0  0
  4  9  1  0  0  0  0
  5 10  1  0  0  0  0
  5  4  2  0  0  0  0
  6  5  1  0  0  0  0
  7  2  1  0  0  0  0
 11  6  1  0  0  0  0
 11 19  1  0  0  0  0
 12 14  1  0  0  0  0
 12 11  1  0  0  0  0
 13 12  1  0  0  0  0
 14 15  1  0  0  0  0
 14 16  1  0  0  0  0
 16 17  1  0  0  0  0
 16 18  1  0  0  0  0
 18 19  1  0  0  0  0
 20 28  1  0  0  0  0
 20 25  1  0  0  0  0
 21 20  2  0  0  0  0
 22 21  1  0  0  0  0
 22 23  2  0  0  0  0
 23 24  1  0  0  0  0
 24 25  2  0  0  0  0
 24  1  1  0  0  0  0
 26 21  1  0  0  0  0
 27 22  1  0  0  0  0
 28 29  1  0  0  0  0
 30 28  1  0  0  0  0
 31 28  1  0  0  0  0
M  END
>  <minimizedAffinity>
-5.46183825

$$$$

 OpenBabel03272505393D

 31 33  0  0  0  0  0  0  0  0999 V2000
   38.0790   25.5330   33.3610 C   0  0  0  0  0  0  0  0  0  0  0  0
   36.8540   25.9830   32.8820 C   0  0  0  0  0  0  0  0  0  0  0  0
   36.8210   27.0780   32.0320 C   0  0  0  0  0  0  0  0  0  0  0  0
   37.9340   27.7630   31.6220 C   0  0  0  0  0  0  0  0  0  0  0  0
   39.1670   27.3190   32.0970 C   0  0  0  0  0  0  0  0  0  0  0  0
   39.1840   26.2270   32.9440 C   0  0  0  0  0  0  0  0  0  0  0  0
   35.9790   25.4490   33.2010 H   0  0  0  0  0  0  0  0  0  0  0  0
   35.8160   27.3360   31.7270 H   0  0  0  0  0  0  0  0  0  0  0  0
   37.7780   28.6080   30.9520 H   0  0  0  0  0  0  0  0  0  0  0  0
   40.0070   27.8850   31.7500 H   0  0  0  0  0  0  0  0  0  0  0  0
   40.5170   25.9330   33.3450 N   0  0  0  0  0  0  0  0  0  0  0  0
   41.3630   24.7730   33.5230 C   0  0  0  0  0  3  0  0  0  0  0  0
   40.7870   23.8360   33.3990 H   0  0  0  0  0  0  0  0  0  0  0  0
   41.8620   24.8840   34.9810 C   0  0  0  0  0  3  0  0  0  0  0  0
   41.0280   25.2670   35.6190 H   0  0  0  0  0  0  0  0  0  0  0  0
   42.8790   25.9090   34.9700 N   0  0  0  0  0  0  0  0  0  0  0  0
   42.9430   26.3210   35.9050 H   0  0  0  0  0  0  0  0  0  0  0  0
   42.6370   26.9370   34.0060 C   0  0  0  0  0  2  0  0  0  0  0  0
   41.2070   27.1710   33.6560 C   0  0  0  0  0  2  0  0  0  0  0  0
   38.2750   23.5210   36.3990 C   0  0  0  0  0  0  0  0  0  0  0  0
   38.2900   22.2060   35.9030 C   0  0  0  0  0  0  0  0  0  0  0  0
   38.2280   22.0360   34.5080 C   0  0  0  0  0  0  0  0  0  0  0  0
   38.1570   23.1620   33.7540 N   0  0  0  0  0  0  0  0  0  0  0  0
   38.1440   24.4010   34.2520 C   0  0  0  0  0  0  0  0  0  0  0  0
   38.2040   24.5780   35.5800 N   0  0  0  0  0  0  0  0  0  0  0  0
   38.3470   21.3140   36.5120 H   0  0  0  0  0  0  0  0  0  0  0  0
   38.2340   21.0660   34.0440 H   0  0  0  0  0  0  0  0  0  0  0  0
   38.3490   23.6850   37.8920 C   0  0  0  0  0  0  0  0  0  0  0  0
   37.3140   22.9430   38.4730 F   0  0  0  0  0  0  0  0  0  0  0  0
   39.5670   23.2780   38.3040 F   0  0  0  0  0  0  0  0  0  0  0  0
   38.0970   25.0080   38.1910 F   0  0  0  0  0  0  0  0  0  0  0  0
  1 24  1  0  0  0  0
  2  7  1  0  0  0  0
  2  1  2  0  0  0  0
  3  2  1  0  0  0  0
  4  3  2  0  0  0  0
  4  5  1  0  0  0  0
  5  6  2  0  0  0  0
  6 11  1  0  0  0  0
  6  1  1  0  0  0  0
  8  3  1  0  0  0  0
  9  4  1  0  0  0  0
 10  5  1  0  0  0  0
 11 12  1  0  0  0  0
 11 19  1  0  0  0  0
 12 14  1  0  0  0  0
 13 12  1  0  0  0  0
 14 15  1  0  0  0  0
 16 14  1  0  0  0  0
 16 17  1  0  0  0  0
 18 16  1  0  0  0  0
 19 18  1  0  0  0  0
 20 28  1  0  0  0  0
 21 20  1  0  0  0  0
 21 26  1  0  0  0  0
 22 21  2  0  0  0  0
 23 24  2  0  0  0  0
 23 22  1  0  0  0  0
 24 25  1  0  0  0  0
 25 20  2  0  0  0  0
 27 22  1  0  0  0  0
 28 31  1  0  0  0  0
 28 30  1  0  0  0  0
 28 29  1  0  0  0  0
M  END
>  <minimizedAffinity>
-5.43529272

$$$$
