
 OpenBabel03272508363D

 44 47  0  0  1  0  0  0  0  0999 V2000
   40.6410   31.9830   44.9900 C   0  0  0  0  0  0  0  0  0  0  0  0
   40.6140   30.9380   45.4200 H   0  0  0  0  0  0  0  0  0  0  0  0
   41.7170   32.2520   45.0460 H   0  0  0  0  0  0  0  0  0  0  0  0
   40.2980   31.8780   43.6330 N   0  0  0  0  0  0  0  0  0  0  0  0
   39.5760   32.9600   43.0730 C   0  0  0  0  0  0  0  0  0  0  0  0
   38.2110   32.6720   42.5730 C   0  0  0  0  0  0  0  0  0  0  0  0
   38.2030   31.4550   41.8320 O   0  0  0  0  0  0  0  0  0  0  0  0
   38.5680   30.4590   42.7150 C   0  0  0  0  0  0  0  0  0  0  0  0
   40.0200   30.6380   43.0600 C   0  0  1  0  0  0  0  0  0  0  0  0
   39.7150   33.9550   43.4600 H   0  0  0  0  0  0  0  0  0  0  0  0
   40.1840   33.0680   42.1030 H   0  0  0  0  0  0  0  0  0  0  0  0
   37.3300   32.8860   43.0990 H   0  0  0  0  0  0  0  0  0  0  0  0
   38.0850   33.4050   41.6710 H   0  0  0  0  0  0  0  0  0  0  0  0
   37.9020   30.2770   43.5490 H   0  0  0  0  0  0  0  0  0  0  0  0
   38.5080   29.5060   42.0980 H   0  0  0  0  0  0  0  0  0  0  0  0
   40.2290   29.8290   43.8210 H   0  0  0  0  0  0  0  0  0  0  0  0
   40.8620   30.3640   41.9460 N   0  0  1  0  0  0  0  0  0  0  0  0
   41.5230   29.1210   41.9200 C   0  0  0  0  0  0  0  0  0  0  0  0
   42.5740   29.2820   42.2820 H   0  0  0  0  0  0  0  0  0  0  0  0
   41.4520   28.3360   40.6630 C   0  0  0  0  0  0  0  0  0  0  0  0
   40.7180   27.4820   40.7340 H   0  0  0  0  0  0  0  0  0  0  0  0
   41.1760   29.0870   39.4710 N   0  0  0  0  0  0  0  0  0  0  0  0
   41.6180   28.6760   38.6180 H   0  0  0  0  0  0  0  0  0  0  0  0
   41.5560   30.4600   39.6900 C   0  0  0  0  0  0  0  0  0  0  0  0
   40.5590   31.0010   40.7220 C   0  0  0  0  0  0  0  0  0  0  0  0
   39.8370   32.8370   45.8490 C   0  0  0  0  0  0  0  0  0  0  0  0
   39.2950   33.7030   45.4820 H   0  0  0  0  0  0  0  0  0  0  0  0
   40.5010   33.2560   46.6530 H   0  0  0  0  0  0  0  0  0  0  0  0
   37.7140   31.0270   48.1050 C   0  0  0  0  0  0  0  0  0  0  0  0
   37.0240   30.9160   46.9370 C   0  0  0  0  0  0  0  0  0  0  0  0
   37.7310   31.5760   45.9530 C   0  0  0  0  0  0  0  0  0  0  0  0
   38.8260   32.0610   46.5580 N   0  0  0  0  0  0  0  0  0  0  0  0
   38.8070   31.7270   47.8450 N   0  0  0  0  0  0  0  0  0  0  0  0
   36.0600   30.3780   46.8360 H   0  0  0  0  0  0  0  0  0  0  0  0
   37.2620   31.5500   44.9930 H   0  0  0  0  0  0  0  0  0  0  0  0
   37.3520   30.0510   51.7280 C   0  0  0  0  0  0  0  0  0  0  0  0
   37.9020   30.5980   50.5870 C   0  0  0  0  0  0  0  0  0  0  0  0
   37.2510   30.4830   49.3710 C   0  0  0  0  0  0  0  0  0  0  0  0
   36.0720   29.8070   49.4210 N   0  0  0  0  0  0  0  0  0  0  0  0
   35.5450   29.2770   50.5390 C   0  0  0  0  0  0  0  0  0  0  0  0
   36.1960   29.4060   51.6870 N   0  0  0  0  0  0  0  0  0  0  0  0
   37.9700   30.2180   52.6080 H   0  0  0  0  0  0  0  0  0  0  0  0
   38.8560   31.1450   50.5530 H   0  0  0  0  0  0  0  0  0  0  0  0
   34.6030   28.7460   50.5260 H   0  0  0  0  0  0  0  0  0  0  0  0
  1  3  1  0  0  0  0
  1  2  1  0  0  0  0
  1 26  1  0  0  0  0
  4  1  1  0  0  0  0
  5 10  1  0  0  0  0
  5  4  1  0  0  0  0
  6  5  1  0  0  0  0
  6 12  1  0  0  0  0
  7  6  1  0  0  0  0
  7  8  1  0  0  0  0
  8  9  1  0  0  0  0
  8 14  1  0  0  0  0
  9  4  1  0  0  0  0
  9 16  1  1  0  0  0
 11  5  1  0  0  0  0
 13  6  1  0  0  0  0
 15  8  1  0  0  0  0
 17 25  1  6  0  0  0
 17  9  1  0  0  0  0
 18 17  1  0  0  0  0
 18 19  1  0  0  0  0
 20 21  1  0  0  0  0
 20 18  1  0  0  0  0
 22 24  1  0  0  0  0
 22 20  1  0  0  0  0
 23 22  1  0  0  0  0
 24 25  1  0  0  0  0
 26 32  1  0  0  0  0
 26 28  1  0  0  0  0
 27 26  1  0  0  0  0
 29 38  1  0  0  0  0
 30 29  1  0  0  0  0
 31 32  1  0  0  0  0
 31 30  2  0  0  0  0
 32 33  1  0  0  0  0
 33 29  2  0  0  0  0
 34 30  1  0  0  0  0
 35 31  1  0  0  0  0
 36 42  1  0  0  0  0
 37 36  2  0  0  0  0
 38 39  2  0  0  0  0
 38 37  1  0  0  0  0
 39 40  1  0  0  0  0
 40 41  2  0  0  0  0
 41 36  1  0  0  0  0
 43 37  1  0  0  0  0
 44 40  1  0  0  0  0
M  END
>  <minimizedAffinity>
-6.00113201

>  <minimizedRMSD>
0.428286195

$$$$
