
 OpenBabel03272501203D

 40 43  0  0  0  0  0  0  0  0999 V2000
   38.3350   32.2260   47.4030 C   0  0  0  0  0  0  0  0  0  0  0  0
   38.1560   32.0980   48.7740 C   0  0  0  0  0  0  0  0  0  0  0  0
   38.8630   33.0300   49.5380 C   0  0  0  0  0  0  0  0  0  0  0  0
   39.6770   33.9990   48.9390 C   0  0  0  0  0  0  0  0  0  0  0  0
   39.7960   34.0530   47.5710 C   0  0  0  0  0  0  0  0  0  0  0  0
   39.1190   33.1580   46.7840 C   0  0  0  0  0  0  0  0  0  0  0  0
   38.7240   32.9300   50.6140 H   0  0  0  0  0  0  0  0  0  0  0  0
   40.1730   34.6620   49.6290 H   0  0  0  0  0  0  0  0  0  0  0  0
   40.4420   34.8280   47.1800 H   0  0  0  0  0  0  0  0  0  0  0  0
   35.9350   31.2060   49.3120 C   0  0  0  0  0  0  0  0  0  0  0  0
   37.3250   31.1060   49.3690 C   0  0  0  0  0  0  0  0  0  0  0  0
   37.8580   29.9890   50.0350 C   0  0  0  0  0  0  0  0  0  0  0  0
   37.0070   29.0810   50.5790 N   0  0  0  0  0  0  0  0  0  0  0  0
   35.6620   29.2280   50.4940 C   0  0  0  0  0  0  0  0  0  0  0  0
   35.1200   30.2960   49.8570 N   0  0  0  0  0  0  0  0  0  0  0  0
   35.5450   32.0720   48.7950 H   0  0  0  0  0  0  0  0  0  0  0  0
   38.9400   29.9000   50.0860 H   0  0  0  0  0  0  0  0  0  0  0  0
   34.9790   28.5180   50.9190 H   0  0  0  0  0  0  0  0  0  0  0  0
   37.6630   31.3310   46.5430 O   0  0  0  0  0  0  0  0  0  0  0  0
   38.2000   30.5090   46.3020 H   0  0  0  0  0  0  0  0  0  0  0  0
   39.2560   33.2320   45.4010 O   0  0  0  0  0  0  0  0  0  0  0  0
   36.9900   32.5510   43.5050 Cl  0  0  0  0  0  0  0  0  0  0  0  0
   38.5000   31.6750   43.6220 C   0  0  0  0  0  0  0  0  0  0  0  0
   39.4040   32.1580   44.5620 C   0  0  0  0  0  0  0  0  0  0  0  0
   40.5970   31.4760   44.6630 C   0  0  0  0  0  0  0  0  0  0  0  0
   40.9400   30.3830   43.9200 C   0  0  0  0  0  0  0  0  0  0  0  0
   40.0280   29.9080   42.9850 C   0  0  0  0  0  0  0  0  0  0  0  0
   38.8120   30.5690   42.8500 C   0  0  0  0  0  0  0  0  0  0  0  0
   41.3740   31.7820   45.3760 H   0  0  0  0  0  0  0  0  0  0  0  0
   41.8920   29.8660   44.0250 H   0  0  0  0  0  0  0  0  0  0  0  0
   40.2120   29.0580   42.3600 H   0  0  0  0  0  0  0  0  0  0  0  0
   37.8390   30.1190   41.9010 N   0  0  0  0  0  0  0  0  0  0  0  0
   36.8560   29.0540   42.1010 C   0  0  0  0  0  0  0  0  0  0  0  0
   36.9450   28.3750   41.2330 H   0  0  0  0  0  0  0  0  0  0  0  0
   35.5030   29.7650   41.9690 C   0  0  0  0  0  0  0  0  0  0  0  0
   34.6650   29.1640   42.3350 H   0  0  0  0  0  0  0  0  0  0  0  0
   35.3650   30.0500   40.5470 N   0  0  0  0  0  0  0  0  0  0  0  0
   35.3270   29.1640   40.0110 H   0  0  0  0  0  0  0  0  0  0  0  0
   36.3610   30.9870   40.1110 C   0  0  0  0  0  0  0  0  0  0  0  0
   37.7410   30.7150   40.5890 C   0  0  0  0  0  0  0  0  0  0  0  0
  1  2  1  0  0  0  0
  2 11  1  0  0  0  0
  2  3  2  0  0  0  0
  3  7  1  0  0  0  0
  4  3  1  0  0  0  0
  4  8  1  0  0  0  0
  5  4  2  0  0  0  0
  6  1  2  0  0  0  0
  6  5  1  0  0  0  0
  9  5  1  0  0  0  0
 10 11  2  0  0  0  0
 10 15  1  0  0  0  0
 11 12  1  0  0  0  0
 12 17  1  0  0  0  0
 12 13  2  0  0  0  0
 14 13  1  0  0  0  0
 14 18  1  0  0  0  0
 15 14  2  0  0  0  0
 16 10  1  0  0  0  0
 19  1  1  0  0  0  0
 20 19  1  0  0  0  0
 21  6  1  0  0  0  0
 22 23  1  0  0  0  0
 23 24  1  0  0  0  0
 24 25  2  0  0  0  0
 24 21  1  0  0  0  0
 25 29  1  0  0  0  0
 26 30  1  0  0  0  0
 26 25  1  0  0  0  0
 27 26  2  0  0  0  0
 28 27  1  0  0  0  0
 28 23  2  0  0  0  0
 31 27  1  0  0  0  0
 32 33  1  0  0  0  0
 32 28  1  0  0  0  0
 34 33  1  0  0  0  0
 35 33  1  0  0  0  0
 35 36  1  0  0  0  0
 37 35  1  0  0  0  0
 38 37  1  0  0  0  0
 39 37  1  0  0  0  0
 39 40  1  0  0  0  0
 40 32  1  0  0  0  0
M  END
>  <minimizedAffinity>
-5.45293713

>  <minimizedRMSD>
0.241767764

$$$$
