
 OpenBabel03262523233D

 33 35  0  0  1  0  0  0  0  0999 V2000
   36.8860   21.7750   32.2210 C   0  0  0  0  0  0  0  0  0  0  0  0
   38.0120   21.1800   31.5940 C   0  0  0  0  0  0  0  0  0  0  0  0
   39.2620   21.8000   31.7400 C   0  0  0  0  0  0  0  0  0  0  0  0
   39.3200   22.9450   32.4830 N   0  0  0  0  0  0  0  0  0  0  0  0
   38.2170   23.4810   33.0670 C   0  0  0  0  0  0  0  0  0  0  0  0
   37.0230   22.8990   32.9340 N   0  0  0  0  0  0  0  0  0  0  0  0
   38.3620   24.6880   33.8330 N   0  0  0  0  0  0  0  0  0  0  0  0
   37.3990   25.7600   33.6420 C   0  0  0  0  0  0  0  0  0  0  0  0
   37.9850   27.1340   33.8700 C   0  0  0  0  0  0  0  0  0  0  0  0
   39.4880   27.0290   33.7170 C   0  0  0  0  0  0  0  0  0  0  0  0
   39.9520   26.2210   34.9210 C   0  0  0  0  0  0  0  0  0  0  0  0
   39.4500   24.8230   34.7740 C   0  0  1  0  0  0  0  0  0  0  0  0
   35.9060   21.3220   32.1270 H   0  0  0  0  0  0  0  0  0  0  0  0
   37.9120   20.2820   31.0230 H   0  0  0  0  0  0  0  0  0  0  0  0
   40.1560   21.3920   31.2850 H   0  0  0  0  0  0  0  0  0  0  0  0
   36.4670   25.6210   34.2110 H   0  0  0  0  0  0  0  0  0  0  0  0
   37.0910   25.7470   32.5640 H   0  0  0  0  0  0  0  0  0  0  0  0
   37.6420   27.8930   33.1430 H   0  0  0  0  0  0  0  0  0  0  0  0
   37.7670   27.4520   34.9060 H   0  0  0  0  0  0  0  0  0  0  0  0
   39.9590   28.0350   33.7200 H   0  0  0  0  0  0  0  0  0  0  0  0
   39.7430   26.4370   32.8150 H   0  0  0  0  0  0  0  0  0  0  0  0
   39.5850   26.7670   35.7980 H   0  0  0  0  0  0  0  0  0  0  0  0
   41.0750   26.2770   34.9950 H   0  0  0  0  0  0  0  0  0  0  0  0
   40.3040   24.2710   34.2760 H   0  0  0  0  0  0  0  0  0  0  0  0
   39.2750   24.2160   36.0310 N   0  0  1  0  0  0  0  0  0  0  0  0
   38.0380   24.4070   36.6960 C   0  0  0  0  0  3  0  0  0  0  0  0
   37.2190   24.2830   35.9380 H   0  0  0  0  0  0  0  0  0  0  0  0
   37.7740   23.3840   37.7580 C   0  0  0  0  0  3  0  0  0  0  0  0
   37.1270   23.8600   38.5260 H   0  0  0  0  0  0  0  0  0  0  0  0
   38.9280   22.8630   38.4030 N   0  0  0  0  0  0  0  0  0  0  0  0
   39.1270   23.2510   39.3410 H   0  0  0  0  0  0  0  0  0  0  0  0
   40.0660   22.6340   37.5790 C   0  0  0  0  0  2  0  0  0  0  0  0
   39.6520   22.8320   36.1120 C   0  0  0  0  0  2  0  0  0  0  0  0
  1  6  1  0  0  0  0
  2  3  1  0  0  0  0
  2  1  2  0  0  0  0
  3  4  2  0  0  0  0
  4  5  1  0  0  0  0
  5  7  1  0  0  0  0
  6  5  2  0  0  0  0
  7 12  1  0  0  0  0
  8  7  1  0  0  0  0
  8  9  1  0  0  0  0
  8 16  1  0  0  0  0
  9 19  1  0  0  0  0
 10 20  1  0  0  0  0
 10  9  1  0  0  0  0
 10 11  1  0  0  0  0
 11 23  1  0  0  0  0
 11 22  1  0  0  0  0
 12 24  1  6  0  0  0
 12 11  1  0  0  0  0
 12 25  1  0  0  0  0
 13  1  1  0  0  0  0
 14  2  1  0  0  0  0
 15  3  1  0  0  0  0
 17  8  1  0  0  0  0
 18  9  1  0  0  0  0
 21 10  1  0  0  0  0
 25 33  1  6  0  0  0
 25 26  1  0  0  0  0
 26 28  1  0  0  0  0
 27 26  1  0  0  0  0
 28 30  1  0  0  0  0
 28 29  1  0  0  0  0
 30 31  1  0  0  0  0
 32 30  1  0  0  0  0
 33 32  1  0  0  0  0
M  END
>  <minimizedAffinity>
-4.96817827

$$$$

 OpenBabel03262523233D

 33 35  0  0  1  0  0  0  0  0999 V2000
   38.2440   22.9930   37.1980 C   0  0  0  0  0  0  0  0  0  0  0  0
   39.6500   22.9370   37.0180 C   0  0  0  0  0  0  0  0  0  0  0  0
   40.1480   22.4610   35.7960 C   0  0  0  0  0  0  0  0  0  0  0  0
   39.2420   22.0790   34.8470 N   0  0  0  0  0  0  0  0  0  0  0  0
   37.9030   22.1490   35.0600 C   0  0  0  0  0  0  0  0  0  0  0  0
   37.4190   22.6010   36.2190 N   0  0  0  0  0  0  0  0  0  0  0  0
   37.0160   21.7280   34.0110 N   0  0  0  0  0  0  0  0  0  0  0  0
   35.8870   20.8770   34.3460 C   0  0  0  0  0  0  0  0  0  0  0  0
   35.4920   19.9430   33.2260 C   0  0  0  0  0  0  0  0  0  0  0  0
   36.6830   19.7960   32.3030 C   0  0  0  0  0  0  0  0  0  0  0  0
   36.8280   21.1520   31.6250 C   0  0  0  0  0  0  0  0  0  0  0  0
   37.2540   22.1490   32.6490 C   0  0  1  0  0  0  0  0  0  0  0  0
   37.8260   23.3550   38.1300 H   0  0  0  0  0  0  0  0  0  0  0  0
   40.3160   23.2480   37.7940 H   0  0  0  0  0  0  0  0  0  0  0  0
   41.2120   22.3950   35.6010 H   0  0  0  0  0  0  0  0  0  0  0  0
   35.0170   21.4320   34.7320 H   0  0  0  0  0  0  0  0  0  0  0  0
   36.2070   20.2090   35.1870 H   0  0  0  0  0  0  0  0  0  0  0  0
   35.2230   18.9250   33.5660 H   0  0  0  0  0  0  0  0  0  0  0  0
   34.6660   20.3980   32.6490 H   0  0  0  0  0  0  0  0  0  0  0  0
   36.5060   19.0010   31.5470 H   0  0  0  0  0  0  0  0  0  0  0  0
   37.6090   19.6310   32.8920 H   0  0  0  0  0  0  0  0  0  0  0  0
   35.8590   21.3440   31.1480 H   0  0  0  0  0  0  0  0  0  0  0  0
   37.5570   21.0630   30.7700 H   0  0  0  0  0  0  0  0  0  0  0  0
   38.3830   22.1690   32.5680 H   0  0  0  0  0  0  0  0  0  0  0  0
   36.8170   23.4430   32.3040 N   0  0  1  0  0  0  0  0  0  0  0  0
   37.7380   24.5120   32.4340 C   0  0  0  0  0  3  0  0  0  0  0  0
   38.7240   24.1680   32.0220 H   0  0  0  0  0  0  0  0  0  0  0  0
   37.3580   25.7190   31.6330 C   0  0  0  0  0  3  0  0  0  0  0  0
   37.7730   26.6090   32.1530 H   0  0  0  0  0  0  0  0  0  0  0  0
   35.9620   25.9160   31.4520 N   0  0  0  0  0  0  0  0  0  0  0  0
   35.5310   26.6350   32.0590 H   0  0  0  0  0  0  0  0  0  0  0  0
   35.1790   24.7460   31.2370 C   0  0  0  0  0  2  0  0  0  0  0  0
   36.1300   23.5540   31.0480 C   0  0  0  0  0  2  0  0  0  0  0  0
  1 13  1  0  0  0  0
  2  1  1  0  0  0  0
  2 14  1  0  0  0  0
  3  2  2  0  0  0  0
  4  5  2  0  0  0  0
  4  3  1  0  0  0  0
  5  6  1  0  0  0  0
  6  1  2  0  0  0  0
  7  8  1  0  0  0  0
  7  5  1  0  0  0  0
  8 16  1  0  0  0  0
  8 17  1  0  0  0  0
  9 18  1  0  0  0  0
  9  8  1  0  0  0  0
 10 21  1  0  0  0  0
 10  9  1  0  0  0  0
 11 10  1  0  0  0  0
 11 12  1  0  0  0  0
 12 24  1  6  0  0  0
 12  7  1  0  0  0  0
 15  3  1  0  0  0  0
 19  9  1  0  0  0  0
 20 10  1  0  0  0  0
 22 11  1  0  0  0  0
 23 11  1  0  0  0  0
 25 33  1  6  0  0  0
 25 26  1  0  0  0  0
 25 12  1  0  0  0  0
 27 26  1  0  0  0  0
 28 29  1  0  0  0  0
 28 26  1  0  0  0  0
 30 28  1  0  0  0  0
 30 31  1  0  0  0  0
 32 30  1  0  0  0  0
 33 32  1  0  0  0  0
M  END
>  <minimizedAffinity>
-4.89933348

$$$$

 OpenBabel03262523233D

 33 35  0  0  1  0  0  0  0  0999 V2000
   36.1400   24.8480   31.8380 C   0  0  0  0  0  0  0  0  0  0  0  0
   36.4650   23.7830   30.9590 C   0  0  0  0  0  0  0  0  0  0  0  0
   37.7500   23.2240   31.0330 C   0  0  0  0  0  0  0  0  0  0  0  0
   38.6160   23.7440   31.9540 N   0  0  0  0  0  0  0  0  0  0  0  0
   38.2640   24.7650   32.7780 C   0  0  0  0  0  0  0  0  0  0  0  0
   37.0440   25.3030   32.7150 N   0  0  0  0  0  0  0  0  0  0  0  0
   39.2320   25.2550   33.7190 N   0  0  0  0  0  0  0  0  0  0  0  0
   39.4050   26.6910   33.8640 C   0  0  0  0  0  0  0  0  0  0  0  0
   40.8130   27.0840   34.2500 C   0  0  0  0  0  0  0  0  0  0  0  0
   41.7350   25.9460   33.8660 C   0  0  0  0  0  0  0  0  0  0  0  0
   41.3870   24.8150   34.8250 C   0  0  0  0  0  0  0  0  0  0  0  0
   40.0150   24.3270   34.5020 C   0  0  1  0  0  0  0  0  0  0  0  0
   35.1570   25.3020   31.8060 H   0  0  0  0  0  0  0  0  0  0  0  0
   35.7500   23.4130   30.2560 H   0  0  0  0  0  0  0  0  0  0  0  0
   38.0550   22.4090   30.3880 H   0  0  0  0  0  0  0  0  0  0  0  0
   38.6620   27.1590   34.5270 H   0  0  0  0  0  0  0  0  0  0  0  0
   39.2360   27.1530   32.8570 H   0  0  0  0  0  0  0  0  0  0  0  0
   41.1840   27.9860   33.7280 H   0  0  0  0  0  0  0  0  0  0  0  0
   40.8650   27.2120   35.3470 H   0  0  0  0  0  0  0  0  0  0  0  0
   42.8000   26.2400   33.9820 H   0  0  0  0  0  0  0  0  0  0  0  0
   41.4970   25.5840   32.8450 H   0  0  0  0  0  0  0  0  0  0  0  0
   41.5180   25.2350   35.8300 H   0  0  0  0  0  0  0  0  0  0  0  0
   42.1690   24.0080   34.7460 H   0  0  0  0  0  0  0  0  0  0  0  0
   40.1860   23.4580   33.7960 H   0  0  0  0  0  0  0  0  0  0  0  0
   39.3930   23.7830   35.6420 N   0  0  1  0  0  0  0  0  0  0  0  0
   40.1860   23.0160   36.5320 C   0  0  0  0  0  3  0  0  0  0  0  0
   41.1590   23.5580   36.6770 H   0  0  0  0  0  0  0  0  0  0  0  0
   39.5830   22.8830   37.8960 C   0  0  0  0  0  3  0  0  0  0  0  0
   39.9390   21.9220   38.3260 H   0  0  0  0  0  0  0  0  0  0  0  0
   38.1620   22.8940   37.9380 N   0  0  0  0  0  0  0  0  0  0  0  0
   37.7120   21.9680   38.0490 H   0  0  0  0  0  0  0  0  0  0  0  0
   37.5090   23.7910   37.0460 C   0  0  0  0  0  2  0  0  0  0  0  0
   38.5720   24.6900   36.3950 C   0  0  0  0  0  2  0  0  0  0  0  0
  1  6  1  0  0  0  0
  2  3  1  0  0  0  0
  2  1  2  0  0  0  0
  3  4  2  0  0  0  0
  4  5  1  0  0  0  0
  5  7  1  0  0  0  0
  6  5  2  0  0  0  0
  7  8  1  0  0  0  0
  7 12  1  0  0  0  0
  8  9  1  0  0  0  0
  8 16  1  0  0  0  0
  9 19  1  0  0  0  0
 10 20  1  0  0  0  0
 10  9  1  0  0  0  0
 10 11  1  0  0  0  0
 11 22  1  0  0  0  0
 12 24  1  6  0  0  0
 12 11  1  0  0  0  0
 12 25  1  0  0  0  0
 13  1  1  0  0  0  0
 14  2  1  0  0  0  0
 15  3  1  0  0  0  0
 17  8  1  0  0  0  0
 18  9  1  0  0  0  0
 21 10  1  0  0  0  0
 23 11  1  0  0  0  0
 25 33  1  1  0  0  0
 25 26  1  0  0  0  0
 26 27  1  0  0  0  0
 26 28  1  0  0  0  0
 28 30  1  0  0  0  0
 28 29  1  0  0  0  0
 30 31  1  0  0  0  0
 32 30  1  0  0  0  0
 33 32  1  0  0  0  0
M  END
>  <minimizedAffinity>
-4.74408007

$$$$

 OpenBabel03262523233D

 33 35  0  0  1  0  0  0  0  0999 V2000
   40.0280   26.2980   32.9020 C   0  0  0  0  0  0  0  0  0  0  0  0
   38.9150   27.1780   32.9290 C   0  0  0  0  0  0  0  0  0  0  0  0
   37.6460   26.6410   33.1930 C   0  0  0  0  0  0  0  0  0  0  0  0
   37.5590   25.2950   33.4110 N   0  0  0  0  0  0  0  0  0  0  0  0
   38.6510   24.4880   33.3770 C   0  0  0  0  0  0  0  0  0  0  0  0
   39.8630   24.9890   33.1270 N   0  0  0  0  0  0  0  0  0  0  0  0
   38.4750   23.0820   33.6170 N   0  0  0  0  0  0  0  0  0  0  0  0
   39.1430   22.1330   32.7410 C   0  0  0  0  0  0  0  0  0  0  0  0
   38.3830   20.8350   32.5820 C   0  0  0  0  0  0  0  0  0  0  0  0
   36.9370   21.0970   32.9450 C   0  0  0  0  0  0  0  0  0  0  0  0
   36.9440   21.3430   34.4470 C   0  0  0  0  0  0  0  0  0  0  0  0
   37.6470   22.6320   34.7110 C   0  0  1  0  0  0  0  0  0  0  0  0
   41.0220   26.6800   32.7010 H   0  0  0  0  0  0  0  0  0  0  0  0
   39.0390   28.2250   32.7520 H   0  0  0  0  0  0  0  0  0  0  0  0
   36.7600   27.2640   33.2260 H   0  0  0  0  0  0  0  0  0  0  0  0
   40.1950   21.9520   33.0090 H   0  0  0  0  0  0  0  0  0  0  0  0
   39.1720   22.5840   31.7160 H   0  0  0  0  0  0  0  0  0  0  0  0
   38.3880   20.4380   31.5500 H   0  0  0  0  0  0  0  0  0  0  0  0
   38.7860   20.0910   33.2940 H   0  0  0  0  0  0  0  0  0  0  0  0
   36.3000   20.2200   32.6980 H   0  0  0  0  0  0  0  0  0  0  0  0
   36.5830   22.0340   32.4670 H   0  0  0  0  0  0  0  0  0  0  0  0
   37.4060   20.4510   34.8860 H   0  0  0  0  0  0  0  0  0  0  0  0
   35.8830   21.3370   34.8290 H   0  0  0  0  0  0  0  0  0  0  0  0
   36.8160   23.4010   34.7520 H   0  0  0  0  0  0  0  0  0  0  0  0
   38.2370   22.6310   35.9890 N   0  0  1  0  0  0  0  0  0  0  0  0
   39.5770   22.1830   36.1030 C   0  0  0  0  0  3  0  0  0  0  0  0
   40.1620   22.6350   35.2580 H   0  0  0  0  0  0  0  0  0  0  0  0
   40.2490   22.6420   37.3600 C   0  0  0  0  0  3  0  0  0  0  0  0
   41.0210   21.8870   37.6210 H   0  0  0  0  0  0  0  0  0  0  0  0
   39.3920   22.8150   38.4810 N   0  0  0  0  0  0  0  0  0  0  0  0
   39.4160   22.0530   39.1810 H   0  0  0  0  0  0  0  0  0  0  0  0
   38.1070   23.3670   38.2170 C   0  0  0  0  0  2  0  0  0  0  0  0
   38.0700   23.8360   36.7530 C   0  0  0  0  0  2  0  0  0  0  0  0
  1  2  2  0  0  0  0
  1  6  1  0  0  0  0
  2  3  1  0  0  0  0
  3 15  1  0  0  0  0
  3  4  2  0  0  0  0
  5  4  1  0  0  0  0
  5  7  1  0  0  0  0
  6  5  2  0  0  0  0
  7 12  1  0  0  0  0
  8 16  1  0  0  0  0
  8  7  1  0  0  0  0
  9  8  1  0  0  0  0
  9 10  1  0  0  0  0
  9 19  1  0  0  0  0
 10 11  1  0  0  0  0
 11 12  1  0  0  0  0
 11 23  1  0  0  0  0
 11 22  1  0  0  0  0
 12 24  1  1  0  0  0
 12 25  1  0  0  0  0
 13  1  1  0  0  0  0
 14  2  1  0  0  0  0
 17  8  1  0  0  0  0
 18  9  1  0  0  0  0
 20 10  1  0  0  0  0
 21 10  1  0  0  0  0
 25 26  1  0  0  0  0
 25 33  1  6  0  0  0
 26 28  1  0  0  0  0
 27 26  1  0  0  0  0
 28 29  1  0  0  0  0
 28 30  1  0  0  0  0
 30 31  1  0  0  0  0
 32 30  1  0  0  0  0
 33 32  1  0  0  0  0
M  END
>  <minimizedAffinity>
-4.7190733

$$$$

 OpenBabel03262523233D

 33 35  0  0  1  0  0  0  0  0999 V2000
   35.5930   29.0810   31.5480 C   0  0  0  0  0  0  0  0  0  0  0  0
   36.4140   29.3720   30.4290 C   0  0  0  0  0  0  0  0  0  0  0  0
   37.7170   28.8540   30.4040 C   0  0  0  0  0  0  0  0  0  0  0  0
   38.1190   28.0940   31.4660 N   0  0  0  0  0  0  0  0  0  0  0  0
   37.3000   27.8380   32.5190 C   0  0  0  0  0  0  0  0  0  0  0  0
   36.0580   28.3270   32.5520 N   0  0  0  0  0  0  0  0  0  0  0  0
   37.7970   27.0300   33.5970 N   0  0  0  0  0  0  0  0  0  0  0  0
   37.5590   27.4610   34.9650 C   0  0  0  0  0  0  0  0  0  0  0  0
   38.6490   27.0350   35.9220 C   0  0  0  0  0  0  0  0  0  0  0  0
   39.8940   26.7510   35.1090 C   0  0  0  0  0  0  0  0  0  0  0  0
   39.5740   25.4870   34.3220 C   0  0  0  0  0  0  0  0  0  0  0  0
   38.5220   25.8120   33.3150 C   0  0  1  0  0  0  0  0  0  0  0  0
   34.5800   29.4660   31.5990 H   0  0  0  0  0  0  0  0  0  0  0  0
   36.0500   29.9730   29.6230 H   0  0  0  0  0  0  0  0  0  0  0  0
   38.3890   29.0430   29.5760 H   0  0  0  0  0  0  0  0  0  0  0  0
   36.5630   27.1900   35.3450 H   0  0  0  0  0  0  0  0  0  0  0  0
   37.5820   28.5820   34.9730 H   0  0  0  0  0  0  0  0  0  0  0  0
   38.9210   27.8090   36.6640 H   0  0  0  0  0  0  0  0  0  0  0  0
   38.3440   26.0970   36.4220 H   0  0  0  0  0  0  0  0  0  0  0  0
   40.7720   26.5840   35.7700 H   0  0  0  0  0  0  0  0  0  0  0  0
   40.0630   27.5570   34.3660 H   0  0  0  0  0  0  0  0  0  0  0  0
   39.2960   24.7380   35.0740 H   0  0  0  0  0  0  0  0  0  0  0  0
   40.5190   25.0910   33.8540 H   0  0  0  0  0  0  0  0  0  0  0  0
   39.1020   26.0570   32.3740 H   0  0  0  0  0  0  0  0  0  0  0  0
   37.7490   24.6760   33.0100 N   0  0  1  0  0  0  0  0  0  0  0  0
   36.9170   24.7250   31.8630 C   0  0  0  0  0  3  0  0  0  0  0  0
   37.5080   25.1930   31.0310 H   0  0  0  0  0  0  0  0  0  0  0  0
   36.5120   23.3710   31.3690 C   0  0  0  0  0  3  0  0  0  0  0  0
   35.5280   23.4810   30.8650 H   0  0  0  0  0  0  0  0  0  0  0  0
   36.3950   22.3670   32.3680 N   0  0  0  0  0  0  0  0  0  0  0  0
   35.4290   22.1440   32.6650 H   0  0  0  0  0  0  0  0  0  0  0  0
   37.3670   22.3920   33.4080 C   0  0  0  0  0  2  0  0  0  0  0  0
   38.4470   23.4210   33.0400 C   0  0  0  0  0  2  0  0  0  0  0  0
  1 13  1  0  0  0  0
  1  6  1  0  0  0  0
  2  1  2  0  0  0  0
  3  2  1  0  0  0  0
  3  4  2  0  0  0  0
  4  5  1  0  0  0  0
  5  6  2  0  0  0  0
  5  7  1  0  0  0  0
  7  8  1  0  0  0  0
  8 17  1  0  0  0  0
  8 16  1  0  0  0  0
  8  9  1  0  0  0  0
  9 19  1  0  0  0  0
  9 18  1  0  0  0  0
 10 20  1  0  0  0  0
 10  9  1  0  0  0  0
 11 22  1  0  0  0  0
 11 10  1  0  0  0  0
 12 24  1  6  0  0  0
 12  7  1  0  0  0  0
 12 11  1  0  0  0  0
 14  2  1  0  0  0  0
 15  3  1  0  0  0  0
 21 10  1  0  0  0  0
 23 11  1  0  0  0  0
 25 33  1  6  0  0  0
 25 12  1  0  0  0  0
 26 25  1  0  0  0  0
 27 26  1  0  0  0  0
 28 26  1  0  0  0  0
 28 30  1  0  0  0  0
 29 28  1  0  0  0  0
 30 31  1  0  0  0  0
 30 32  1  0  0  0  0
 33 32  1  0  0  0  0
M  END
>  <minimizedAffinity>
-4.66767979

$$$$

 OpenBabel03262523233D

 33 35  0  0  1  0  0  0  0  0999 V2000
   42.5650   22.2810   35.8750 C   0  0  0  0  0  0  0  0  0  0  0  0
   42.0370   21.5740   36.9850 C   0  0  0  0  0  0  0  0  0  0  0  0
   40.7740   21.9410   37.4720 C   0  0  0  0  0  0  0  0  0  0  0  0
   40.1240   22.9640   36.8410 N   0  0  0  0  0  0  0  0  0  0  0  0
   40.6650   23.6150   35.7790 C   0  0  0  0  0  0  0  0  0  0  0  0
   41.8670   23.2730   35.3090 N   0  0  0  0  0  0  0  0  0  0  0  0
   39.9170   24.6810   35.1710 N   0  0  0  0  0  0  0  0  0  0  0  0
   40.6020   25.9210   34.8450 C   0  0  0  0  0  0  0  0  0  0  0  0
   39.7030   27.1340   34.9200 C   0  0  0  0  0  0  0  0  0  0  0  0
   38.5230   26.7830   35.8000 C   0  0  0  0  0  0  0  0  0  0  0  0
   37.7170   25.7710   34.9970 C   0  0  0  0  0  0  0  0  0  0  0  0
   38.5090   24.5120   34.8940 C   0  0  1  0  0  0  0  0  0  0  0  0
   43.5390   22.0230   35.4740 H   0  0  0  0  0  0  0  0  0  0  0  0
   42.5880   20.7800   37.4420 H   0  0  0  0  0  0  0  0  0  0  0  0
   40.3200   21.4370   38.3160 H   0  0  0  0  0  0  0  0  0  0  0  0
   41.1480   25.8840   33.8900 H   0  0  0  0  0  0  0  0  0  0  0  0
   41.3870   26.0880   35.6270 H   0  0  0  0  0  0  0  0  0  0  0  0
   40.1860   28.0210   35.3710 H   0  0  0  0  0  0  0  0  0  0  0  0
   39.3210   27.3640   33.9090 H   0  0  0  0  0  0  0  0  0  0  0  0
   37.9080   27.6830   36.0190 H   0  0  0  0  0  0  0  0  0  0  0  0
   38.8670   26.2640   36.7180 H   0  0  0  0  0  0  0  0  0  0  0  0
   37.4900   26.2690   34.0470 H   0  0  0  0  0  0  0  0  0  0  0  0
   36.7160   25.6190   35.4910 H   0  0  0  0  0  0  0  0  0  0  0  0
   38.1410   23.8780   35.7570 H   0  0  0  0  0  0  0  0  0  0  0  0
   38.1790   23.8030   33.7230 N   0  0  1  0  0  0  0  0  0  0  0  0
   37.6580   22.4930   33.8630 C   0  0  0  0  0  3  0  0  0  0  0  0
   36.9020   22.5110   34.6930 H   0  0  0  0  0  0  0  0  0  0  0  0
   36.9240   22.0160   32.6490 C   0  0  0  0  0  3  0  0  0  0  0  0
   37.0110   20.9090   32.6190 H   0  0  0  0  0  0  0  0  0  0  0  0
   37.3900   22.5360   31.4110 N   0  0  0  0  0  0  0  0  0  0  0  0
   37.9830   21.8970   30.8540 H   0  0  0  0  0  0  0  0  0  0  0  0
   37.7900   23.9020   31.4080 C   0  0  0  0  0  2  0  0  0  0  0  0
   37.3990   24.5260   32.7570 C   0  0  0  0  0  2  0  0  0  0  0  0
  1  2  1  0  0  0  0
  2 14  1  0  0  0  0
  2  3  2  0  0  0  0
  3 15  1  0  0  0  0
  4  3  1  0  0  0  0
  5  4  2  0  0  0  0
  6  5  1  0  0  0  0
  6  1  2  0  0  0  0
  7  5  1  0  0  0  0
  8  9  1  0  0  0  0
  8  7  1  0  0  0  0
  8 17  1  0  0  0  0
  9 18  1  0  0  0  0
  9 10  1  0  0  0  0
 10 20  1  0  0  0  0
 10 21  1  0  0  0  0
 11 23  1  0  0  0  0
 11 10  1  0  0  0  0
 12 11  1  0  0  0  0
 12  7  1  0  0  0  0
 12 24  1  1  0  0  0
 13  1  1  0  0  0  0
 16  8  1  0  0  0  0
 19  9  1  0  0  0  0
 22 11  1  0  0  0  0
 25 33  1  1  0  0  0
 25 26  1  0  0  0  0
 25 12  1  0  0  0  0
 26 27  1  0  0  0  0
 28 26  1  0  0  0  0
 29 28  1  0  0  0  0
 30 28  1  0  0  0  0
 31 30  1  0  0  0  0
 32 30  1  0  0  0  0
 32 33  1  0  0  0  0
M  END
>  <minimizedAffinity>
-4.61061287

$$$$

 OpenBabel03262523233D

 33 35  0  0  1  0  0  0  0  0999 V2000
   38.8750   20.5510   32.3920 C   0  0  0  0  0  0  0  0  0  0  0  0
   37.4920   20.3360   32.1620 C   0  0  0  0  0  0  0  0  0  0  0  0
   36.5690   20.9730   33.0060 C   0  0  0  0  0  0  0  0  0  0  0  0
   37.0620   21.7660   34.0030 N   0  0  0  0  0  0  0  0  0  0  0  0
   38.3960   21.9450   34.1870 C   0  0  0  0  0  0  0  0  0  0  0  0
   39.2820   21.3440   33.3900 N   0  0  0  0  0  0  0  0  0  0  0  0
   38.8340   22.7960   35.2580 N   0  0  0  0  0  0  0  0  0  0  0  0
   39.9200   22.3450   36.1130 C   0  0  0  0  0  0  0  0  0  0  0  0
   39.8220   22.8700   37.5270 C   0  0  0  0  0  0  0  0  0  0  0  0
   38.3830   23.2680   37.7750 C   0  0  0  0  0  0  0  0  0  0  0  0
   38.1560   24.4970   36.9040 C   0  0  0  0  0  0  0  0  0  0  0  0
   38.1990   24.0760   35.4740 C   0  0  1  0  0  0  0  0  0  0  0  0
   39.6140   20.0730   31.7580 H   0  0  0  0  0  0  0  0  0  0  0  0
   37.1580   19.7050   31.3670 H   0  0  0  0  0  0  0  0  0  0  0  0
   35.5000   20.8470   32.8800 H   0  0  0  0  0  0  0  0  0  0  0  0
   40.9190   22.5230   35.6870 H   0  0  0  0  0  0  0  0  0  0  0  0
   39.8340   21.2310   36.2070 H   0  0  0  0  0  0  0  0  0  0  0  0
   40.0860   22.1250   38.3000 H   0  0  0  0  0  0  0  0  0  0  0  0
   40.4490   23.7750   37.6210 H   0  0  0  0  0  0  0  0  0  0  0  0
   38.2170   23.5160   38.8460 H   0  0  0  0  0  0  0  0  0  0  0  0
   37.6950   22.4810   37.4040 H   0  0  0  0  0  0  0  0  0  0  0  0
   38.9250   25.2170   37.2110 H   0  0  0  0  0  0  0  0  0  0  0  0
   37.1780   24.9790   37.1890 H   0  0  0  0  0  0  0  0  0  0  0  0
   37.1160   23.8850   35.2060 H   0  0  0  0  0  0  0  0  0  0  0  0
   38.6230   25.1360   34.6490 N   0  0  1  0  0  0  0  0  0  0  0  0
   37.7230   25.6140   33.6650 C   0  0  0  0  0  3  0  0  0  0  0  0
   36.7080   25.6950   34.1390 H   0  0  0  0  0  0  0  0  0  0  0  0
   38.0580   26.9880   33.1750 C   0  0  0  0  0  3  0  0  0  0  0  0
   37.6860   27.0710   32.1320 H   0  0  0  0  0  0  0  0  0  0  0  0
   39.4400   27.3190   33.1870 N   0  0  0  0  0  0  0  0  0  0  0  0
   39.9170   27.2730   32.2700 H   0  0  0  0  0  0  0  0  0  0  0  0
   40.1960   26.8450   34.2960 C   0  0  0  0  0  2  0  0  0  0  0  0
   39.2250   26.2500   35.3280 C   0  0  0  0  0  2  0  0  0  0  0  0
  1  6  1  0  0  0  0
  2  1  2  0  0  0  0
  2  3  1  0  0  0  0
  3  4  2  0  0  0  0
  4  5  1  0  0  0  0
  5  7  1  0  0  0  0
  6  5  2  0  0  0  0
  7 12  1  0  0  0  0
  7  8  1  0  0  0  0
  8 17  1  0  0  0  0
  8  9  1  0  0  0  0
  9 19  1  0  0  0  0
  9 10  1  0  0  0  0
  9 18  1  0  0  0  0
 10 20  1  0  0  0  0
 11 23  1  0  0  0  0
 11 22  1  0  0  0  0
 11 10  1  0  0  0  0
 12 24  1  6  0  0  0
 12 11  1  0  0  0  0
 13  1  1  0  0  0  0
 14  2  1  0  0  0  0
 15  3  1  0  0  0  0
 16  8  1  0  0  0  0
 21 10  1  0  0  0  0
 25 33  1  1  0  0  0
 25 12  1  0  0  0  0
 26 27  1  0  0  0  0
 26 25  1  0  0  0  0
 28 30  1  0  0  0  0
 28 26  1  0  0  0  0
 29 28  1  0  0  0  0
 30 32  1  0  0  0  0
 31 30  1  0  0  0  0
 32 33  1  0  0  0  0
M  END
>  <minimizedAffinity>
-4.60775709

$$$$

 OpenBabel03262523233D

 33 35  0  0  1  0  0  0  0  0999 V2000
   35.5860   21.6840   31.4650 C   0  0  0  0  0  0  0  0  0  0  0  0
   36.5370   20.8620   30.8070 C   0  0  0  0  0  0  0  0  0  0  0  0
   37.8880   21.2380   30.8470 C   0  0  0  0  0  0  0  0  0  0  0  0
   38.2080   22.3810   31.5250 N   0  0  0  0  0  0  0  0  0  0  0  0
   37.2660   23.1390   32.1430 C   0  0  0  0  0  0  0  0  0  0  0  0
   35.9780   22.7900   32.1100 N   0  0  0  0  0  0  0  0  0  0  0  0
   37.6840   24.3270   32.8350 N   0  0  0  0  0  0  0  0  0  0  0  0
   36.9280   25.5540   32.6440 C   0  0  0  0  0  0  0  0  0  0  0  0
   37.7740   26.8000   32.7660 C   0  0  0  0  0  0  0  0  0  0  0  0
   39.2170   26.4060   32.5320 C   0  0  0  0  0  0  0  0  0  0  0  0
   39.6020   25.5730   33.7470 C   0  0  0  0  0  0  0  0  0  0  0  0
   38.8390   24.2910   33.7020 C   0  0  1  0  0  0  0  0  0  0  0  0
   34.5350   21.4220   31.4530 H   0  0  0  0  0  0  0  0  0  0  0  0
   36.2330   19.9770   30.2900 H   0  0  0  0  0  0  0  0  0  0  0  0
   38.6580   20.6500   30.3630 H   0  0  0  0  0  0  0  0  0  0  0  0
   36.0270   25.6170   33.2720 H   0  0  0  0  0  0  0  0  0  0  0  0
   36.5520   25.5560   31.5880 H   0  0  0  0  0  0  0  0  0  0  0  0
   37.5310   27.5800   32.0210 H   0  0  0  0  0  0  0  0  0  0  0  0
   37.6890   27.1950   33.7950 H   0  0  0  0  0  0  0  0  0  0  0  0
   39.8680   27.3030   32.4550 H   0  0  0  0  0  0  0  0  0  0  0  0
   39.2960   25.7390   31.6480 H   0  0  0  0  0  0  0  0  0  0  0  0
   39.4030   26.2140   34.6150 H   0  0  0  0  0  0  0  0  0  0  0  0
   40.7180   25.4180   33.7530 H   0  0  0  0  0  0  0  0  0  0  0  0
   39.5400   23.5670   33.1860 H   0  0  0  0  0  0  0  0  0  0  0  0
   38.6380   23.7790   34.9980 N   0  0  1  0  0  0  0  0  0  0  0  0
   39.5190   22.7700   35.4600 C   0  0  0  0  0  3  0  0  0  0  0  0
   40.5630   23.0700   35.1730 H   0  0  0  0  0  0  0  0  0  0  0  0
   39.5270   22.6280   36.9500 C   0  0  0  0  0  3  0  0  0  0  0  0
   39.7870   21.5740   37.1840 H   0  0  0  0  0  0  0  0  0  0  0  0
   38.3020   22.9430   37.5990 N   0  0  0  0  0  0  0  0  0  0  0  0
   37.7310   22.1310   37.8910 H   0  0  0  0  0  0  0  0  0  0  0  0
   37.5740   24.0490   37.0760 C   0  0  0  0  0  2  0  0  0  0  0  0
   38.4500   24.7590   36.0320 C   0  0  0  0  0  2  0  0  0  0  0  0
  1  6  1  0  0  0  0
  2  3  1  0  0  0  0
  2  1  2  0  0  0  0
  3  4  2  0  0  0  0
  4  5  1  0  0  0  0
  5  7  1  0  0  0  0
  6  5  2  0  0  0  0
  7 12  1  0  0  0  0
  8  9  1  0  0  0  0
  8  7  1  0  0  0  0
  8 16  1  0  0  0  0
  9 19  1  0  0  0  0
 10  9  1  0  0  0  0
 10 11  1  0  0  0  0
 11 23  1  0  0  0  0
 11 22  1  0  0  0  0
 12 24  1  6  0  0  0
 12 11  1  0  0  0  0
 12 25  1  0  0  0  0
 13  1  1  0  0  0  0
 14  2  1  0  0  0  0
 15  3  1  0  0  0  0
 17  8  1  0  0  0  0
 18  9  1  0  0  0  0
 20 10  1  0  0  0  0
 21 10  1  0  0  0  0
 25 26  1  0  0  0  0
 25 33  1  1  0  0  0
 26 28  1  0  0  0  0
 27 26  1  0  0  0  0
 28 29  1  0  0  0  0
 28 30  1  0  0  0  0
 30 31  1  0  0  0  0
 32 30  1  0  0  0  0
 33 32  1  0  0  0  0
M  END
>  <minimizedAffinity>
-4.54178715

$$$$

 OpenBabel03262523233D

 33 35  0  0  1  0  0  0  0  0999 V2000
   35.5240   22.2420   31.5510 C   0  0  0  0  0  0  0  0  0  0  0  0
   36.6140   21.4690   31.0750 C   0  0  0  0  0  0  0  0  0  0  0  0
   37.8240   22.1210   30.7950 C   0  0  0  0  0  0  0  0  0  0  0  0
   37.8790   23.4710   31.0000 N   0  0  0  0  0  0  0  0  0  0  0  0
   36.8110   24.1740   31.4590 C   0  0  0  0  0  0  0  0  0  0  0  0
   35.6550   23.5620   31.7280 N   0  0  0  0  0  0  0  0  0  0  0  0
   36.9500   25.5910   31.6490 N   0  0  0  0  0  0  0  0  0  0  0  0
   35.8950   26.4700   31.1700 C   0  0  0  0  0  0  0  0  0  0  0  0
   36.4010   27.8310   30.7480 C   0  0  0  0  0  0  0  0  0  0  0  0
   37.8810   27.7060   30.4560 C   0  0  0  0  0  0  0  0  0  0  0  0
   38.5330   27.4690   31.8110 C   0  0  0  0  0  0  0  0  0  0  0  0
   38.1220   26.1230   32.3050 C   0  0  1  0  0  0  0  0  0  0  0  0
   34.5750   21.7680   31.7760 H   0  0  0  0  0  0  0  0  0  0  0  0
   36.5180   20.4140   30.9310 H   0  0  0  0  0  0  0  0  0  0  0  0
   38.6900   21.5830   30.4290 H   0  0  0  0  0  0  0  0  0  0  0  0
   35.0450   26.5550   31.8630 H   0  0  0  0  0  0  0  0  0  0  0  0
   35.4730   26.0120   30.2390 H   0  0  0  0  0  0  0  0  0  0  0  0
   35.9250   28.2190   29.8290 H   0  0  0  0  0  0  0  0  0  0  0  0
   36.2760   28.5390   31.5880 H   0  0  0  0  0  0  0  0  0  0  0  0
   38.2750   28.6360   29.9930 H   0  0  0  0  0  0  0  0  0  0  0  0
   38.0780   26.8030   29.8430 H   0  0  0  0  0  0  0  0  0  0  0  0
   38.2260   28.3180   32.4350 H   0  0  0  0  0  0  0  0  0  0  0  0
   39.6500   27.5750   31.7090 H   0  0  0  0  0  0  0  0  0  0  0  0
   38.9550   25.4340   31.9640 H   0  0  0  0  0  0  0  0  0  0  0  0
   38.1320   26.0770   33.7120 N   0  0  1  0  0  0  0  0  0  0  0  0
   38.4370   24.8420   34.3360 C   0  0  0  0  0  3  0  0  0  0  0  0
   39.3110   24.3900   33.7930 H   0  0  0  0  0  0  0  0  0  0  0  0
   38.8710   24.9910   35.7610 C   0  0  0  0  0  3  0  0  0  0  0  0
   38.5930   24.0570   36.2940 H   0  0  0  0  0  0  0  0  0  0  0  0
   38.3050   26.0930   36.4590 N   0  0  0  0  0  0  0  0  0  0  0  0
   37.5290   25.8600   37.1030 H   0  0  0  0  0  0  0  0  0  0  0  0
   38.1490   27.2990   35.7190 C   0  0  0  0  0  2  0  0  0  0  0  0
   38.8550   27.1330   34.3640 C   0  0  0  0  0  2  0  0  0  0  0  0
  1  6  1  0  0  0  0
  1 13  1  0  0  0  0
  2  1  2  0  0  0  0
  3  4  2  0  0  0  0
  3  2  1  0  0  0  0
  4  5  1  0  0  0  0
  5  7  1  0  0  0  0
  5  6  2  0  0  0  0
  7 12  1  0  0  0  0
  8  7  1  0  0  0  0
  8 16  1  0  0  0  0
  9  8  1  0  0  0  0
  9 19  1  0  0  0  0
 10  9  1  0  0  0  0
 10 11  1  0  0  0  0
 11 12  1  0  0  0  0
 11 22  1  0  0  0  0
 12 24  1  6  0  0  0
 12 25  1  0  0  0  0
 14  2  1  0  0  0  0
 15  3  1  0  0  0  0
 17  8  1  0  0  0  0
 18  9  1  0  0  0  0
 20 10  1  0  0  0  0
 21 10  1  0  0  0  0
 23 11  1  0  0  0  0
 25 26  1  0  0  0  0
 25 33  1  1  0  0  0
 26 28  1  0  0  0  0
 27 26  1  0  0  0  0
 28 29  1  0  0  0  0
 28 30  1  0  0  0  0
 30 31  1  0  0  0  0
 32 30  1  0  0  0  0
 33 32  1  0  0  0  0
M  END
>  <minimizedAffinity>
-4.50154686

$$$$
