
 OpenBabel03272510053D

 37 39  0  0  0  0  0  0  0  0999 V2000
   36.8440   25.2720   32.3500 C   0  0  0  0  0  0  0  0  0  0  0  0
   37.4010   25.8800   33.4340 C   0  0  0  0  0  0  0  0  0  0  0  0
   37.1510   27.2270   33.6690 C   0  0  0  0  0  0  0  0  0  0  0  0
   36.3550   27.9930   32.8420 C   0  0  0  0  0  0  0  0  0  0  0  0
   35.7790   27.4040   31.7310 C   0  0  0  0  0  0  0  0  0  0  0  0
   36.0450   26.0780   31.5340 C   0  0  0  0  0  0  0  0  0  0  0  0
   37.6110   27.6910   34.5520 H   0  0  0  0  0  0  0  0  0  0  0  0
   36.2270   29.0160   33.1110 H   0  0  0  0  0  0  0  0  0  0  0  0
   35.1650   28.0390   31.1110 H   0  0  0  0  0  0  0  0  0  0  0  0
   35.5380   25.7320   30.6250 H   0  0  0  0  0  0  0  0  0  0  0  0
   40.3960   24.1910   34.7370 C   0  0  0  0  0  0  0  0  0  0  0  0
   39.5260   24.8830   33.9050 C   0  0  0  0  0  0  0  0  0  0  0  0
   38.2650   25.1790   34.3210 C   0  0  0  0  0  0  0  0  0  0  0  0
   37.9090   24.7730   35.5720 N   0  0  0  0  0  0  0  0  0  0  0  0
   38.7460   24.1080   36.3790 C   0  0  0  0  0  0  0  0  0  0  0  0
   39.9800   23.8210   35.9560 N   0  0  0  0  0  0  0  0  0  0  0  0
   41.4040   23.8790   34.5700 H   0  0  0  0  0  0  0  0  0  0  0  0
   40.1020   25.0860   33.0350 H   0  0  0  0  0  0  0  0  0  0  0  0
   38.2470   23.7850   37.7430 C   0  0  0  0  0  0  0  0  0  0  0  0
   37.2080   22.8720   37.7120 F   0  0  0  0  0  0  0  0  0  0  0  0
   39.2770   23.0470   38.4440 F   0  0  0  0  0  0  0  0  0  0  0  0
   37.9900   24.7920   38.5460 F   0  0  0  0  0  0  0  0  0  0  0  0
   37.0440   23.6160   31.9750 S   0  0  0  0  0  0  0  0  0  0  0  0
   37.6470   23.3980   30.6640 O   0  0  0  0  0  0  0  0  0  0  0  0
   35.6100   23.2960   31.5770 O   0  0  0  0  0  0  0  0  0  0  0  0
   36.9230   22.2670   33.0170 C   0  0  0  0  0  0  0  0  0  0  0  0
   36.6950   22.4540   34.0860 H   0  0  0  0  0  0  0  0  0  0  0  0
   38.0290   21.9470   33.1380 H   0  0  0  0  0  0  0  0  0  0  0  0
   36.3380   21.1310   32.4200 N   0  0  0  0  0  0  0  0  0  0  0  0
   35.5980   20.3660   33.3930 C   0  0  0  0  0  3  0  0  0  0  0  0
   34.6330   20.8370   33.6930 H   0  0  0  0  0  0  0  0  0  0  0  0
   35.3670   18.9390   32.9140 C   0  0  0  0  0  3  0  0  0  0  0  0
   34.3790   18.6280   33.3180 H   0  0  0  0  0  0  0  0  0  0  0  0
   35.2760   18.8700   31.4760 N   0  0  0  0  0  0  0  0  0  0  0  0
   34.4240   19.3010   31.0840 H   0  0  0  0  0  0  0  0  0  0  0  0
   36.4770   19.3250   30.8170 C   0  0  0  0  0  2  0  0  0  0  0  0
   37.2480   20.2390   31.7360 C   0  0  0  0  0  2  0  0  0  0  0  0
  1  2  1  0  0  0  0
  2  3  2  0  0  0  0
  2 13  1  0  0  0  0
  3  7  1  0  0  0  0
  4  8  1  0  0  0  0
  4  3  1  0  0  0  0
  5  4  2  0  0  0  0
  6  5  1  0  0  0  0
  6  1  2  0  0  0  0
  9  5  1  0  0  0  0
 10  6  1  0  0  0  0
 11 16  1  0  0  0  0
 12 13  1  0  0  0  0
 12 11  2  0  0  0  0
 13 14  2  0  0  0  0
 14 15  1  0  0  0  0
 15 19  1  0  0  0  0
 16 15  2  0  0  0  0
 17 11  1  0  0  0  0
 18 12  1  0  0  0  0
 19 21  1  0  0  0  0
 19 22  1  0  0  0  0
 20 19  1  0  0  0  0
 23  1  1  0  0  0  0
 23 26  1  0  0  0  0
 24 23  2  0  0  0  0
 25 23  2  0  0  0  0
 26 28  1  0  0  0  0
 26 27  1  0  0  0  0
 29 26  1  0  0  0  0
 29 30  1  0  0  0  0
 30 31  1  0  0  0  0
 32 33  1  0  0  0  0
 32 30  1  0  0  0  0
 34 32  1  0  0  0  0
 35 34  1  0  0  0  0
 36 34  1  0  0  0  0
 36 37  1  0  0  0  0
 37 29  1  0  0  0  0
M  END
>  <minimizedAffinity>
-6.2597003

$$$$

 OpenBabel03272510053D

 37 39  0  0  0  0  0  0  0  0999 V2000
   37.0720   27.3670   34.0930 C   0  0  0  0  0  0  0  0  0  0  0  0
   36.7870   27.0070   32.8110 C   0  0  0  0  0  0  0  0  0  0  0  0
   35.9500   27.8070   32.0430 C   0  0  0  0  0  0  0  0  0  0  0  0
   35.3820   28.9680   32.5240 C   0  0  0  0  0  0  0  0  0  0  0  0
   35.6500   29.3590   33.8240 C   0  0  0  0  0  0  0  0  0  0  0  0
   36.4770   28.5470   34.5470 C   0  0  0  0  0  0  0  0  0  0  0  0
   35.7400   27.4940   31.0110 H   0  0  0  0  0  0  0  0  0  0  0  0
   34.7550   29.5110   31.8540 H   0  0  0  0  0  0  0  0  0  0  0  0
   35.1830   30.2720   34.1600 H   0  0  0  0  0  0  0  0  0  0  0  0
   36.6070   28.9600   35.5560 H   0  0  0  0  0  0  0  0  0  0  0  0
   38.9900   24.7140   30.9630 C   0  0  0  0  0  0  0  0  0  0  0  0
   38.4630   25.8610   31.5420 C   0  0  0  0  0  0  0  0  0  0  0  0
   37.2980   25.8060   32.2410 C   0  0  0  0  0  0  0  0  0  0  0  0
   36.6900   24.5920   32.3460 N   0  0  0  0  0  0  0  0  0  0  0  0
   37.1950   23.4820   31.7920 C   0  0  0  0  0  0  0  0  0  0  0  0
   38.3390   23.5520   31.1040 N   0  0  0  0  0  0  0  0  0  0  0  0
   39.8790   24.5820   30.3860 H   0  0  0  0  0  0  0  0  0  0  0  0
   39.1770   26.6170   31.3180 H   0  0  0  0  0  0  0  0  0  0  0  0
   36.4610   22.2130   32.0420 C   0  0  0  0  0  0  0  0  0  0  0  0
   36.7170   21.7080   33.3060 F   0  0  0  0  0  0  0  0  0  0  0  0
   35.0460   22.5090   32.1160 F   0  0  0  0  0  0  0  0  0  0  0  0
   36.5330   21.2810   31.1190 F   0  0  0  0  0  0  0  0  0  0  0  0
   38.1150   26.4880   35.1230 S   0  0  0  0  0  0  0  0  0  0  0  0
   38.2310   27.0770   36.4530 O   0  0  0  0  0  0  0  0  0  0  0  0
   39.4480   26.9850   34.5810 O   0  0  0  0  0  0  0  0  0  0  0  0
   38.7550   24.9190   34.9020 C   0  0  0  0  0  0  0  0  0  0  0  0
   39.4340   24.7500   34.0420 H   0  0  0  0  0  0  0  0  0  0  0  0
   37.8390   24.3300   34.5070 H   0  0  0  0  0  0  0  0  0  0  0  0
   39.0560   24.2470   36.1050 N   0  0  0  0  0  0  0  0  0  0  0  0
   40.1190   23.2930   35.9050 C   0  0  0  0  0  3  0  0  0  0  0  0
   41.1240   23.7600   35.7910 H   0  0  0  0  0  0  0  0  0  0  0  0
   40.1410   22.2490   37.0150 C   0  0  0  0  0  3  0  0  0  0  0  0
   41.2080   21.9780   37.1690 H   0  0  0  0  0  0  0  0  0  0  0  0
   39.6580   22.7910   38.2620 N   0  0  0  0  0  0  0  0  0  0  0  0
   40.2860   23.4850   38.6940 H   0  0  0  0  0  0  0  0  0  0  0  0
   38.2950   23.2580   38.1780 C   0  0  0  0  0  2  0  0  0  0  0  0
   37.9490   23.5680   36.7420 C   0  0  0  0  0  2  0  0  0  0  0  0
  1  6  1  0  0  0  0
  1 23  1  0  0  0  0
  2  1  2  0  0  0  0
  3  4  2  0  0  0  0
  3  2  1  0  0  0  0
  4  5  1  0  0  0  0
  5  9  1  0  0  0  0
  5  6  2  0  0  0  0
  6 10  1  0  0  0  0
  7  3  1  0  0  0  0
  8  4  1  0  0  0  0
 11 16  2  0  0  0  0
 11 12  1  0  0  0  0
 12 13  2  0  0  0  0
 13 14  1  0  0  0  0
 13  2  1  0  0  0  0
 15 19  1  0  0  0  0
 15 14  2  0  0  0  0
 16 15  1  0  0  0  0
 17 11  1  0  0  0  0
 18 12  1  0  0  0  0
 19 21  1  0  0  0  0
 19 20  1  0  0  0  0
 22 19  1  0  0  0  0
 23 24  2  0  0  0  0
 25 23  2  0  0  0  0
 26 23  1  0  0  0  0
 26 29  1  0  0  0  0
 27 26  1  0  0  0  0
 28 26  1  0  0  0  0
 29 37  1  0  0  0  0
 30 29  1  0  0  0  0
 30 32  1  0  0  0  0
 31 30  1  0  0  0  0
 32 33  1  0  0  0  0
 32 34  1  0  0  0  0
 34 35  1  0  0  0  0
 36 34  1  0  0  0  0
 37 36  1  0  0  0  0
M  END
>  <minimizedAffinity>
-6.04248857

$$$$

 OpenBabel03272510053D

 37 39  0  0  0  0  0  0  0  0999 V2000
   37.7400   24.9310   33.8220 C   0  0  0  0  0  0  0  0  0  0  0  0
   37.9790   25.3490   35.0960 C   0  0  0  0  0  0  0  0  0  0  0  0
   37.7280   26.6710   35.4430 C   0  0  0  0  0  0  0  0  0  0  0  0
   37.2410   27.5980   34.5450 C   0  0  0  0  0  0  0  0  0  0  0  0
   36.9910   27.2040   33.2430 C   0  0  0  0  0  0  0  0  0  0  0  0
   37.2490   25.8970   32.9390 C   0  0  0  0  0  0  0  0  0  0  0  0
   37.9280   26.9800   36.4790 H   0  0  0  0  0  0  0  0  0  0  0  0
   37.0810   28.5860   34.9130 H   0  0  0  0  0  0  0  0  0  0  0  0
   36.6120   27.9610   32.5740 H   0  0  0  0  0  0  0  0  0  0  0  0
   37.0150   25.7120   31.8830 H   0  0  0  0  0  0  0  0  0  0  0  0
   38.2800   23.3820   38.1880 C   0  0  0  0  0  0  0  0  0  0  0  0
   37.7860   24.2230   37.2000 C   0  0  0  0  0  0  0  0  0  0  0  0
   38.5170   24.4720   36.0800 C   0  0  0  0  0  0  0  0  0  0  0  0
   39.7310   23.8620   35.9780 N   0  0  0  0  0  0  0  0  0  0  0  0
   40.2090   23.0480   36.9270 C   0  0  0  0  0  0  0  0  0  0  0  0
   39.4820   22.8150   38.0240 N   0  0  0  0  0  0  0  0  0  0  0  0
   37.8460   23.0850   39.1180 H   0  0  0  0  0  0  0  0  0  0  0  0
   36.8220   24.5010   37.5520 H   0  0  0  0  0  0  0  0  0  0  0  0
   41.5190   22.3970   36.6540 C   0  0  0  0  0  0  0  0  0  0  0  0
   42.5810   23.2550   36.8840 F   0  0  0  0  0  0  0  0  0  0  0  0
   41.7380   21.3710   37.6520 F   0  0  0  0  0  0  0  0  0  0  0  0
   41.6480   21.7520   35.5170 F   0  0  0  0  0  0  0  0  0  0  0  0
   37.9720   23.3260   33.2830 S   0  0  0  0  0  0  0  0  0  0  0  0
   39.0940   23.1930   32.3580 O   0  0  0  0  0  0  0  0  0  0  0  0
   36.8630   23.2700   32.2410 O   0  0  0  0  0  0  0  0  0  0  0  0
   37.2900   21.8860   33.9010 C   0  0  0  0  0  0  0  0  0  0  0  0
   36.7940   21.9290   34.8910 H   0  0  0  0  0  0  0  0  0  0  0  0
   38.2280   21.2820   34.2130 H   0  0  0  0  0  0  0  0  0  0  0  0
   36.7050   21.0600   32.9200 N   0  0  0  0  0  0  0  0  0  0  0  0
   35.6000   20.3160   33.4700 C   0  0  0  0  0  3  0  0  0  0  0  0
   34.6890   20.9330   33.6460 H   0  0  0  0  0  0  0  0  0  0  0  0
   35.2630   19.1060   32.6090 C   0  0  0  0  0  3  0  0  0  0  0  0
   34.1640   18.9640   32.6810 H   0  0  0  0  0  0  0  0  0  0  0  0
   35.5680   19.3430   31.2190 N   0  0  0  0  0  0  0  0  0  0  0  0
   34.9500   20.0310   30.7610 H   0  0  0  0  0  0  0  0  0  0  0  0
   36.9660   19.6210   30.9920 C   0  0  0  0  0  2  0  0  0  0  0  0
   37.5980   20.1300   32.2640 C   0  0  0  0  0  2  0  0  0  0  0  0
  1  2  1  0  0  0  0
  2  3  2  0  0  0  0
  2 13  1  0  0  0  0
  3  7  1  0  0  0  0
  4  8  1  0  0  0  0
  4  3  1  0  0  0  0
  5  4  2  0  0  0  0
  6  5  1  0  0  0  0
  6  1  2  0  0  0  0
  9  5  1  0  0  0  0
 10  6  1  0  0  0  0
 11 17  1  0  0  0  0
 12 18  1  0  0  0  0
 12 11  2  0  0  0  0
 13 12  1  0  0  0  0
 14 13  2  0  0  0  0
 14 15  1  0  0  0  0
 15 16  2  0  0  0  0
 16 11  1  0  0  0  0
 19 20  1  0  0  0  0
 19 15  1  0  0  0  0
 19 21  1  0  0  0  0
 22 19  1  0  0  0  0
 23  1  1  0  0  0  0
 23 26  1  0  0  0  0
 24 23  2  0  0  0  0
 25 23  2  0  0  0  0
 26 28  1  0  0  0  0
 26 27  1  0  0  0  0
 29 30  1  0  0  0  0
 29 26  1  0  0  0  0
 30 31  1  0  0  0  0
 32 33  1  0  0  0  0
 32 30  1  0  0  0  0
 34 32  1  0  0  0  0
 35 34  1  0  0  0  0
 36 34  1  0  0  0  0
 36 37  1  0  0  0  0
 37 29  1  0  0  0  0
M  END
>  <minimizedAffinity>
-6.00104332

$$$$

 OpenBabel03272510053D

 37 39  0  0  0  0  0  0  0  0999 V2000
   37.0050   23.0790   32.6460 C   0  0  0  0  0  0  0  0  0  0  0  0
   37.2470   22.1320   33.5950 C   0  0  0  0  0  0  0  0  0  0  0  0
   36.5430   20.9340   33.5650 C   0  0  0  0  0  0  0  0  0  0  0  0
   35.5930   20.6530   32.6060 C   0  0  0  0  0  0  0  0  0  0  0  0
   35.3220   21.5960   31.6310 C   0  0  0  0  0  0  0  0  0  0  0  0
   36.0350   22.7600   31.6920 C   0  0  0  0  0  0  0  0  0  0  0  0
   36.7610   20.1880   34.3410 H   0  0  0  0  0  0  0  0  0  0  0  0
   35.1100   19.7040   32.6710 H   0  0  0  0  0  0  0  0  0  0  0  0
   34.5710   21.3350   30.9020 H   0  0  0  0  0  0  0  0  0  0  0  0
   35.7280   23.4230   30.8730 H   0  0  0  0  0  0  0  0  0  0  0  0
   40.4320   22.2270   35.4310 C   0  0  0  0  0  0  0  0  0  0  0  0
   39.4900   22.0390   34.4290 C   0  0  0  0  0  0  0  0  0  0  0  0
   38.1840   22.3500   34.6450 C   0  0  0  0  0  0  0  0  0  0  0  0
   37.8560   22.8510   35.8690 N   0  0  0  0  0  0  0  0  0  0  0  0
   38.7620   23.0370   36.8370 C   0  0  0  0  0  0  0  0  0  0  0  0
   40.0410   22.7230   36.6120 N   0  0  0  0  0  0  0  0  0  0  0  0
   41.4830   22.0350   35.4310 H   0  0  0  0  0  0  0  0  0  0  0  0
   40.0560   21.6810   33.6030 H   0  0  0  0  0  0  0  0  0  0  0  0
   38.2750   23.6530   38.1010 C   0  0  0  0  0  0  0  0  0  0  0  0
   37.2740   22.9010   38.6920 F   0  0  0  0  0  0  0  0  0  0  0  0
   39.3340   23.5750   39.0860 F   0  0  0  0  0  0  0  0  0  0  0  0
   37.9750   24.9320   38.0730 F   0  0  0  0  0  0  0  0  0  0  0  0
   37.8310   24.5730   32.5540 S   0  0  0  0  0  0  0  0  0  0  0  0
   37.1620   25.6390   33.2930 O   0  0  0  0  0  0  0  0  0  0  0  0
   37.3810   24.9990   31.1630 O   0  0  0  0  0  0  0  0  0  0  0  0
   39.4170   24.8800   31.9980 C   0  0  0  0  0  0  0  0  0  0  0  0
   39.5490   25.1610   30.9330 H   0  0  0  0  0  0  0  0  0  0  0  0
   39.8720   23.8160   31.9450 H   0  0  0  0  0  0  0  0  0  0  0  0
   40.2430   25.5210   32.9430 N   0  0  0  0  0  0  0  0  0  0  0  0
   40.4300   26.9100   32.6010 C   0  0  0  0  0  3  0  0  0  0  0  0
   39.5340   27.5430   32.7960 H   0  0  0  0  0  0  0  0  0  0  0  0
   41.6540   27.4920   33.2960 C   0  0  0  0  0  3  0  0  0  0  0  0
   41.4180   28.5560   33.5090 H   0  0  0  0  0  0  0  0  0  0  0  0
   41.8970   26.8500   34.5650 N   0  0  0  0  0  0  0  0  0  0  0  0
   41.1950   27.0650   35.2900 H   0  0  0  0  0  0  0  0  0  0  0  0
   42.1430   25.4330   34.4390 C   0  0  0  0  0  2  0  0  0  0  0  0
   41.5440   24.9250   33.1500 C   0  0  0  0  0  2  0  0  0  0  0  0
  1  2  1  0  0  0  0
  2 13  1  0  0  0  0
  3  2  2  0  0  0  0
  3  7  1  0  0  0  0
  4  8  1  0  0  0  0
  4  3  1  0  0  0  0
  5  6  1  0  0  0  0
  5  4  2  0  0  0  0
  6  1  2  0  0  0  0
  9  5  1  0  0  0  0
 10  6  1  0  0  0  0
 11 16  1  0  0  0  0
 12 13  1  0  0  0  0
 12 11  2  0  0  0  0
 13 14  2  0  0  0  0
 14 15  1  0  0  0  0
 15 19  1  0  0  0  0
 16 15  2  0  0  0  0
 17 11  1  0  0  0  0
 18 12  1  0  0  0  0
 19 20  1  0  0  0  0
 19 21  1  0  0  0  0
 22 19  1  0  0  0  0
 23  1  1  0  0  0  0
 23 24  2  0  0  0  0
 25 23  2  0  0  0  0
 26 23  1  0  0  0  0
 26 29  1  0  0  0  0
 27 26  1  0  0  0  0
 28 26  1  0  0  0  0
 29 37  1  0  0  0  0
 30 31  1  0  0  0  0
 30 29  1  0  0  0  0
 30 32  1  0  0  0  0
 32 33  1  0  0  0  0
 32 34  1  0  0  0  0
 34 35  1  0  0  0  0
 36 34  1  0  0  0  0
 37 36  1  0  0  0  0
M  END
>  <minimizedAffinity>
-5.93257952

$$$$

 OpenBabel03272510053D

 37 39  0  0  0  0  0  0  0  0999 V2000
   36.8750   21.7340   32.9420 C   0  0  0  0  0  0  0  0  0  0  0  0
   36.4110   22.4310   31.8690 C   0  0  0  0  0  0  0  0  0  0  0  0
   35.3640   21.9150   31.1150 C   0  0  0  0  0  0  0  0  0  0  0  0
   34.7620   20.7080   31.4040 C   0  0  0  0  0  0  0  0  0  0  0  0
   35.2140   19.9740   32.4860 C   0  0  0  0  0  0  0  0  0  0  0  0
   36.2440   20.5140   33.2040 C   0  0  0  0  0  0  0  0  0  0  0  0
   35.0080   22.5010   30.2560 H   0  0  0  0  0  0  0  0  0  0  0  0
   33.9670   20.4020   30.7640 H   0  0  0  0  0  0  0  0  0  0  0  0
   34.7160   19.0350   32.6750 H   0  0  0  0  0  0  0  0  0  0  0  0
   36.5110   19.8400   34.0270 H   0  0  0  0  0  0  0  0  0  0  0  0
   38.5930   24.8360   30.1440 C   0  0  0  0  0  0  0  0  0  0  0  0
   37.9910   23.6520   30.5480 C   0  0  0  0  0  0  0  0  0  0  0  0
   36.9950   23.6680   31.4740 C   0  0  0  0  0  0  0  0  0  0  0  0
   36.6240   24.8810   31.9700 N   0  0  0  0  0  0  0  0  0  0  0  0
   37.1990   26.0260   31.5810 C   0  0  0  0  0  0  0  0  0  0  0  0
   38.1800   25.9950   30.6730 N   0  0  0  0  0  0  0  0  0  0  0  0
   39.3800   25.0020   29.4400 H   0  0  0  0  0  0  0  0  0  0  0  0
   38.4660   22.9040   29.9610 H   0  0  0  0  0  0  0  0  0  0  0  0
   36.6490   27.2830   32.1560 C   0  0  0  0  0  0  0  0  0  0  0  0
   37.3190   28.4010   31.6920 F   0  0  0  0  0  0  0  0  0  0  0  0
   35.3180   27.4860   31.6240 F   0  0  0  0  0  0  0  0  0  0  0  0
   36.4700   27.3250   33.4560 F   0  0  0  0  0  0  0  0  0  0  0  0
   38.1290   22.2790   33.9680 S   0  0  0  0  0  0  0  0  0  0  0  0
   39.4110   21.6410   33.6880 O   0  0  0  0  0  0  0  0  0  0  0  0
   37.7820   21.4660   35.2080 O   0  0  0  0  0  0  0  0  0  0  0  0
   38.1380   23.6320   35.0120 C   0  0  0  0  0  0  0  0  0  0  0  0
   37.3910   24.4320   34.8330 H   0  0  0  0  0  0  0  0  0  0  0  0
   39.0810   24.2070   34.6650 H   0  0  0  0  0  0  0  0  0  0  0  0
   38.4430   23.3210   36.3520 N   0  0  0  0  0  0  0  0  0  0  0  0
   37.6460   24.1140   37.2560 C   0  0  0  0  0  3  0  0  0  0  0  0
   36.5810   23.7910   37.3120 H   0  0  0  0  0  0  0  0  0  0  0  0
   38.2630   24.1550   38.6480 C   0  0  0  0  0  3  0  0  0  0  0  0
   37.4170   24.2020   39.3660 H   0  0  0  0  0  0  0  0  0  0  0  0
   38.9970   22.9470   38.9380 N   0  0  0  0  0  0  0  0  0  0  0  0
   38.4050   22.1110   39.0600 H   0  0  0  0  0  0  0  0  0  0  0  0
   40.0890   22.7210   38.0220 C   0  0  0  0  0  2  0  0  0  0  0  0
   39.8320   23.4590   36.7310 C   0  0  0  0  0  2  0  0  0  0  0  0
  1  6  1  0  0  0  0
  1 23  1  0  0  0  0
  2  1  2  0  0  0  0
  3  4  2  0  0  0  0
  3  2  1  0  0  0  0
  4  5  1  0  0  0  0
  5  9  1  0  0  0  0
  5  6  2  0  0  0  0
  6 10  1  0  0  0  0
  7  3  1  0  0  0  0
  8  4  1  0  0  0  0
 11 12  2  0  0  0  0
 11 16  1  0  0  0  0
 12 13  1  0  0  0  0
 13  2  1  0  0  0  0
 13 14  2  0  0  0  0
 15 14  1  0  0  0  0
 15 19  1  0  0  0  0
 16 15  2  0  0  0  0
 17 11  1  0  0  0  0
 18 12  1  0  0  0  0
 19 22  1  0  0  0  0
 20 19  1  0  0  0  0
 21 19  1  0  0  0  0
 23 26  1  0  0  0  0
 23 25  2  0  0  0  0
 24 23  2  0  0  0  0
 26 29  1  0  0  0  0
 27 26  1  0  0  0  0
 28 26  1  0  0  0  0
 29 37  1  0  0  0  0
 29 30  1  0  0  0  0
 30 31  1  0  0  0  0
 30 32  1  0  0  0  0
 32 34  1  0  0  0  0
 32 33  1  0  0  0  0
 34 35  1  0  0  0  0
 36 34  1  0  0  0  0
 37 36  1  0  0  0  0
M  END
>  <minimizedAffinity>
-5.81440783

$$$$

 OpenBabel03272510053D

 37 39  0  0  0  0  0  0  0  0999 V2000
   38.1300   23.9530   33.5430 C   0  0  0  0  0  0  0  0  0  0  0  0
   38.0480   22.8550   34.3450 C   0  0  0  0  0  0  0  0  0  0  0  0
   37.2530   21.7820   33.9600 C   0  0  0  0  0  0  0  0  0  0  0  0
   36.5270   21.7760   32.7870 C   0  0  0  0  0  0  0  0  0  0  0  0
   36.5870   22.8780   31.9540 C   0  0  0  0  0  0  0  0  0  0  0  0
   37.3800   23.9130   32.3640 C   0  0  0  0  0  0  0  0  0  0  0  0
   37.2080   20.9090   34.6240 H   0  0  0  0  0  0  0  0  0  0  0  0
   35.9490   20.9040   32.5840 H   0  0  0  0  0  0  0  0  0  0  0  0
   36.0030   22.8320   31.0480 H   0  0  0  0  0  0  0  0  0  0  0  0
   37.3400   24.7230   31.6250 H   0  0  0  0  0  0  0  0  0  0  0  0
   38.7760   23.2850   37.9230 C   0  0  0  0  0  0  0  0  0  0  0  0
   38.1370   23.3210   36.6910 C   0  0  0  0  0  0  0  0  0  0  0  0
   38.7330   22.7880   35.5910 C   0  0  0  0  0  0  0  0  0  0  0  0
   39.9620   22.2250   35.7580 N   0  0  0  0  0  0  0  0  0  0  0  0
   40.5810   22.1850   36.9450 C   0  0  0  0  0  0  0  0  0  0  0  0
   39.9850   22.7160   38.0160 N   0  0  0  0  0  0  0  0  0  0  0  0
   38.4570   23.6530   38.8740 H   0  0  0  0  0  0  0  0  0  0  0  0
   37.2000   23.7790   36.8970 H   0  0  0  0  0  0  0  0  0  0  0  0
   41.8910   21.4810   36.9950 C   0  0  0  0  0  0  0  0  0  0  0  0
   42.1340   20.7590   35.8390 F   0  0  0  0  0  0  0  0  0  0  0  0
   42.9450   22.4710   36.9610 F   0  0  0  0  0  0  0  0  0  0  0  0
   42.1590   20.7820   38.0740 F   0  0  0  0  0  0  0  0  0  0  0  0
   39.1010   25.3170   33.8870 S   0  0  0  0  0  0  0  0  0  0  0  0
   40.2860   24.9890   34.6730 O   0  0  0  0  0  0  0  0  0  0  0  0
   38.2780   25.9040   35.0260 O   0  0  0  0  0  0  0  0  0  0  0  0
   39.0260   26.8790   33.1970 C   0  0  0  0  0  0  0  0  0  0  0  0
   39.9710   27.4490   33.0950 H   0  0  0  0  0  0  0  0  0  0  0  0
   38.5480   27.5030   34.0480 H   0  0  0  0  0  0  0  0  0  0  0  0
   38.0810   27.0020   32.1580 N   0  0  0  0  0  0  0  0  0  0  0  0
   38.6880   27.5710   30.9800 C   0  0  0  0  0  3  0  0  0  0  0  0
   39.3540   26.8630   30.4340 H   0  0  0  0  0  0  0  0  0  0  0  0
   37.6380   28.1450   30.0380 C   0  0  0  0  0  3  0  0  0  0  0  0
   38.0230   27.9920   29.0070 H   0  0  0  0  0  0  0  0  0  0  0  0
   36.3900   27.4270   30.1340 N   0  0  0  0  0  0  0  0  0  0  0  0
   36.4230   26.4680   29.7570 H   0  0  0  0  0  0  0  0  0  0  0  0
   35.8150   27.4800   31.4570 C   0  0  0  0  0  2  0  0  0  0  0  0
   36.8940   27.7670   32.4720 C   0  0  0  0  0  2  0  0  0  0  0  0
  1 23  1  0  0  0  0
  1  2  1  0  0  0  0
  2 13  1  0  0  0  0
  3  2  2  0  0  0  0
  3  7  1  0  0  0  0
  4  3  1  0  0  0  0
  5  6  1  0  0  0  0
  5  4  2  0  0  0  0
  6  1  2  0  0  0  0
  8  4  1  0  0  0  0
  9  5  1  0  0  0  0
 10  6  1  0  0  0  0
 11 16  1  0  0  0  0
 11 17  1  0  0  0  0
 12 18  1  0  0  0  0
 12 11  2  0  0  0  0
 13 14  2  0  0  0  0
 13 12  1  0  0  0  0
 14 15  1  0  0  0  0
 15 19  1  0  0  0  0
 15 16  2  0  0  0  0
 19 22  1  0  0  0  0
 20 19  1  0  0  0  0
 21 19  1  0  0  0  0
 23 24  2  0  0  0  0
 23 25  2  0  0  0  0
 26 23  1  0  0  0  0
 26 28  1  0  0  0  0
 27 26  1  0  0  0  0
 29 37  1  0  0  0  0
 29 26  1  0  0  0  0
 30 29  1  0  0  0  0
 31 30  1  0  0  0  0
 32 34  1  0  0  0  0
 32 30  1  0  0  0  0
 33 32  1  0  0  0  0
 34 36  1  0  0  0  0
 35 34  1  0  0  0  0
 36 37  1  0  0  0  0
M  END
>  <minimizedAffinity>
-5.79478216

$$$$

 OpenBabel03272510053D

 37 39  0  0  0  0  0  0  0  0999 V2000
   37.2660   22.0490   32.6120 C   0  0  0  0  0  0  0  0  0  0  0  0
   36.4870   22.6830   31.6930 C   0  0  0  0  0  0  0  0  0  0  0  0
   35.5410   21.9580   30.9780 C   0  0  0  0  0  0  0  0  0  0  0  0
   35.3510   20.6030   31.1550 C   0  0  0  0  0  0  0  0  0  0  0  0
   36.1300   19.9310   32.0790 C   0  0  0  0  0  0  0  0  0  0  0  0
   37.0480   20.6770   32.7640 C   0  0  0  0  0  0  0  0  0  0  0  0
   34.9240   22.4960   30.2450 H   0  0  0  0  0  0  0  0  0  0  0  0
   34.5990   20.1410   30.5580 H   0  0  0  0  0  0  0  0  0  0  0  0
   35.9490   18.8720   32.1850 H   0  0  0  0  0  0  0  0  0  0  0  0
   37.6010   20.0330   33.4580 H   0  0  0  0  0  0  0  0  0  0  0  0
   35.6500   26.2350   31.2370 C   0  0  0  0  0  0  0  0  0  0  0  0
   35.5460   24.8770   31.5080 C   0  0  0  0  0  0  0  0  0  0  0  0
   36.6380   24.0710   31.4160 C   0  0  0  0  0  0  0  0  0  0  0  0
   37.8150   24.6550   31.0550 N   0  0  0  0  0  0  0  0  0  0  0  0
   37.9210   25.9640   30.7950 C   0  0  0  0  0  0  0  0  0  0  0  0
   36.8390   26.7430   30.8860 N   0  0  0  0  0  0  0  0  0  0  0  0
   34.9030   26.9990   31.2570 H   0  0  0  0  0  0  0  0  0  0  0  0
   34.5300   24.7450   31.7930 H   0  0  0  0  0  0  0  0  0  0  0  0
   39.2810   26.4770   30.4780 C   0  0  0  0  0  0  0  0  0  0  0  0
   40.2490   25.4980   30.6200 F   0  0  0  0  0  0  0  0  0  0  0  0
   39.3430   26.7620   29.0600 F   0  0  0  0  0  0  0  0  0  0  0  0
   39.6440   27.6090   31.0360 F   0  0  0  0  0  0  0  0  0  0  0  0
   38.4360   22.8360   33.5790 S   0  0  0  0  0  0  0  0  0  0  0  0
   39.7910   22.7040   33.0540 O   0  0  0  0  0  0  0  0  0  0  0  0
   38.5600   21.7950   34.6820 O   0  0  0  0  0  0  0  0  0  0  0  0
   38.1910   23.9610   34.8420 C   0  0  0  0  0  0  0  0  0  0  0  0
   37.3330   24.6580   34.7580 H   0  0  0  0  0  0  0  0  0  0  0  0
   39.0420   24.7250   34.6610 H   0  0  0  0  0  0  0  0  0  0  0  0
   38.4940   23.4600   36.1240 N   0  0  0  0  0  0  0  0  0  0  0  0
   37.6230   24.0360   37.1180 C   0  0  0  0  0  3  0  0  0  0  0  0
   36.5840   23.6330   37.0900 H   0  0  0  0  0  0  0  0  0  0  0  0
   38.2090   23.8960   38.5170 C   0  0  0  0  0  3  0  0  0  0  0  0
   37.3490   23.7660   39.2070 H   0  0  0  0  0  0  0  0  0  0  0  0
   39.0270   22.7130   38.6320 N   0  0  0  0  0  0  0  0  0  0  0  0
   38.4990   21.8280   38.6010 H   0  0  0  0  0  0  0  0  0  0  0  0
   40.1500   22.7170   37.7250 C   0  0  0  0  0  2  0  0  0  0  0  0
   39.8620   23.6350   36.5620 C   0  0  0  0  0  2  0  0  0  0  0  0
  1  6  1  0  0  0  0
  1 23  1  0  0  0  0
  2  1  2  0  0  0  0
  3  4  2  0  0  0  0
  3  2  1  0  0  0  0
  4  5  1  0  0  0  0
  5  9  1  0  0  0  0
  5  6  2  0  0  0  0
  6 10  1  0  0  0  0
  7  3  1  0  0  0  0
  8  4  1  0  0  0  0
 11 17  1  0  0  0  0
 11 12  1  0  0  0  0
 12 18  1  0  0  0  0
 13 12  2  0  0  0  0
 13  2  1  0  0  0  0
 14 13  1  0  0  0  0
 15 16  1  0  0  0  0
 15 14  2  0  0  0  0
 16 11  2  0  0  0  0
 19 20  1  0  0  0  0
 19 15  1  0  0  0  0
 19 22  1  0  0  0  0
 21 19  1  0  0  0  0
 23 25  2  0  0  0  0
 23 26  1  0  0  0  0
 24 23  2  0  0  0  0
 26 29  1  0  0  0  0
 27 26  1  0  0  0  0
 28 26  1  0  0  0  0
 29 37  1  0  0  0  0
 29 30  1  0  0  0  0
 30 32  1  0  0  0  0
 31 30  1  0  0  0  0
 32 34  1  0  0  0  0
 32 33  1  0  0  0  0
 35 34  1  0  0  0  0
 36 34  1  0  0  0  0
 37 36  1  0  0  0  0
M  END
>  <minimizedAffinity>
-5.70981789

$$$$

 OpenBabel03272510053D

 37 39  0  0  0  0  0  0  0  0999 V2000
   39.0680   26.5530   33.8990 C   0  0  0  0  0  0  0  0  0  0  0  0
   38.8940   26.1770   32.6020 C   0  0  0  0  0  0  0  0  0  0  0  0
   39.9340   26.3380   31.6950 C   0  0  0  0  0  0  0  0  0  0  0  0
   41.1550   26.8730   32.0490 C   0  0  0  0  0  0  0  0  0  0  0  0
   41.3620   27.2680   33.3580 C   0  0  0  0  0  0  0  0  0  0  0  0
   40.3170   27.0920   34.2220 C   0  0  0  0  0  0  0  0  0  0  0  0
   39.7660   26.0240   30.6560 H   0  0  0  0  0  0  0  0  0  0  0  0
   41.8870   26.9530   31.2780 H   0  0  0  0  0  0  0  0  0  0  0  0
   42.3300   27.6820   33.5910 H   0  0  0  0  0  0  0  0  0  0  0  0
   40.6020   27.4450   35.2210 H   0  0  0  0  0  0  0  0  0  0  0  0
   35.5330   26.0270   31.1170 C   0  0  0  0  0  0  0  0  0  0  0  0
   36.7560   26.5000   31.5730 C   0  0  0  0  0  0  0  0  0  0  0  0
   37.6550   25.6500   32.1380 C   0  0  0  0  0  0  0  0  0  0  0  0
   37.3020   24.3370   32.2280 N   0  0  0  0  0  0  0  0  0  0  0  0
   36.1250   23.8760   31.7870 C   0  0  0  0  0  0  0  0  0  0  0  0
   35.2500   24.7230   31.2370 N   0  0  0  0  0  0  0  0  0  0  0  0
   34.7220   26.5490   30.6580 H   0  0  0  0  0  0  0  0  0  0  0  0
   36.7440   27.5340   31.3280 H   0  0  0  0  0  0  0  0  0  0  0  0
   35.8990   22.4090   31.8880 C   0  0  0  0  0  0  0  0  0  0  0  0
   36.2300   21.7530   30.7150 F   0  0  0  0  0  0  0  0  0  0  0  0
   36.8580   21.8610   32.8230 F   0  0  0  0  0  0  0  0  0  0  0  0
   34.7420   22.0080   32.3640 F   0  0  0  0  0  0  0  0  0  0  0  0
   37.8810   26.3700   35.1150 S   0  0  0  0  0  0  0  0  0  0  0  0
   36.8300   27.3800   35.0410 O   0  0  0  0  0  0  0  0  0  0  0  0
   38.6480   26.9840   36.2790 O   0  0  0  0  0  0  0  0  0  0  0  0
   37.6180   25.0400   36.1550 C   0  0  0  0  0  0  0  0  0  0  0  0
   36.6100   24.5790   36.1650 H   0  0  0  0  0  0  0  0  0  0  0  0
   37.5790   25.5440   37.1970 H   0  0  0  0  0  0  0  0  0  0  0  0
   38.7260   24.1760   36.2740 N   0  0  0  0  0  0  0  0  0  0  0  0
   38.7790   23.2570   35.1640 C   0  0  0  0  0  3  0  0  0  0  0  0
   39.1130   23.7270   34.2100 H   0  0  0  0  0  0  0  0  0  0  0  0
   39.6420   22.0450   35.4890 C   0  0  0  0  0  3  0  0  0  0  0  0
   40.1290   21.7410   34.5380 H   0  0  0  0  0  0  0  0  0  0  0  0
   40.6960   22.3790   36.4160 N   0  0  0  0  0  0  0  0  0  0  0  0
   41.4320   22.9860   36.0220 H   0  0  0  0  0  0  0  0  0  0  0  0
   40.1970   22.8670   37.6800 C   0  0  0  0  0  2  0  0  0  0  0  0
   38.8020   23.4130   37.5000 C   0  0  0  0  0  2  0  0  0  0  0  0
  1  6  1  0  0  0  0
  1 23  1  0  0  0  0
  2  1  2  0  0  0  0
  3  4  2  0  0  0  0
  3  2  1  0  0  0  0
  4  5  1  0  0  0  0
  5  9  1  0  0  0  0
  5  6  2  0  0  0  0
  6 10  1  0  0  0  0
  7  3  1  0  0  0  0
  8  4  1  0  0  0  0
 11 16  2  0  0  0  0
 11 12  1  0  0  0  0
 12 13  2  0  0  0  0
 13 14  1  0  0  0  0
 13  2  1  0  0  0  0
 15 19  1  0  0  0  0
 15 14  2  0  0  0  0
 16 15  1  0  0  0  0
 17 11  1  0  0  0  0
 18 12  1  0  0  0  0
 19 22  1  0  0  0  0
 19 21  1  0  0  0  0
 20 19  1  0  0  0  0
 23 26  1  0  0  0  0
 23 25  2  0  0  0  0
 24 23  2  0  0  0  0
 26 27  1  0  0  0  0
 26 29  1  0  0  0  0
 26 28  1  0  0  0  0
 29 37  1  0  0  0  0
 30 32  1  0  0  0  0
 30 29  1  0  0  0  0
 31 30  1  0  0  0  0
 32 34  1  0  0  0  0
 33 32  1  0  0  0  0
 34 36  1  0  0  0  0
 35 34  1  0  0  0  0
 37 36  1  0  0  0  0
M  END
>  <minimizedAffinity>
-5.70962143

$$$$

 OpenBabel03272510053D

 37 39  0  0  0  0  0  0  0  0999 V2000
   35.9700   21.9070   32.3250 C   0  0  0  0  0  0  0  0  0  0  0  0
   36.6870   21.1830   33.2290 C   0  0  0  0  0  0  0  0  0  0  0  0
   36.3430   19.8590   33.4760 C   0  0  0  0  0  0  0  0  0  0  0  0
   35.2920   19.2320   32.8410 C   0  0  0  0  0  0  0  0  0  0  0  0
   34.5430   19.9420   31.9210 C   0  0  0  0  0  0  0  0  0  0  0  0
   34.9110   21.2390   31.7030 C   0  0  0  0  0  0  0  0  0  0  0  0
   36.9410   19.2990   34.2080 H   0  0  0  0  0  0  0  0  0  0  0  0
   35.1120   18.2140   33.1020 H   0  0  0  0  0  0  0  0  0  0  0  0
   33.7290   19.4130   31.4490 H   0  0  0  0  0  0  0  0  0  0  0  0
   34.2420   21.6920   30.9600 H   0  0  0  0  0  0  0  0  0  0  0  0
   40.0990   22.2230   34.1240 C   0  0  0  0  0  0  0  0  0  0  0  0
   39.0190   21.6830   33.4380 C   0  0  0  0  0  0  0  0  0  0  0  0
   37.7650   21.7590   33.9590 C   0  0  0  0  0  0  0  0  0  0  0  0
   37.6260   22.3830   35.1620 N   0  0  0  0  0  0  0  0  0  0  0  0
   38.6640   22.9080   35.8260 C   0  0  0  0  0  0  0  0  0  0  0  0
   39.8910   22.8230   35.3030 N   0  0  0  0  0  0  0  0  0  0  0  0
   41.1350   22.2480   33.8640 H   0  0  0  0  0  0  0  0  0  0  0  0
   39.4430   21.3110   32.5360 H   0  0  0  0  0  0  0  0  0  0  0  0
   38.3570   23.6200   37.0960 C   0  0  0  0  0  0  0  0  0  0  0  0
   37.2280   23.1110   37.7140 F   0  0  0  0  0  0  0  0  0  0  0  0
   39.3940   23.3090   38.0570 F   0  0  0  0  0  0  0  0  0  0  0  0
   38.3480   24.9330   37.0660 F   0  0  0  0  0  0  0  0  0  0  0  0
   36.3170   23.5270   31.9080 S   0  0  0  0  0  0  0  0  0  0  0  0
   35.2560   24.1540   31.1250 O   0  0  0  0  0  0  0  0  0  0  0  0
   37.2730   23.2680   30.7510 O   0  0  0  0  0  0  0  0  0  0  0  0
   37.5420   24.5470   32.5250 C   0  0  0  0  0  0  0  0  0  0  0  0
   38.5500   24.4840   32.0690 H   0  0  0  0  0  0  0  0  0  0  0  0
   37.7890   24.0500   33.5410 H   0  0  0  0  0  0  0  0  0  0  0  0
   37.0860   25.8240   32.9100 N   0  0  0  0  0  0  0  0  0  0  0  0
   37.2660   26.7760   31.8420 C   0  0  0  0  0  3  0  0  0  0  0  0
   36.5400   26.6520   31.0050 H   0  0  0  0  0  0  0  0  0  0  0  0
   37.2370   28.2060   32.3640 C   0  0  0  0  0  3  0  0  0  0  0  0
   36.7780   28.8240   31.5630 H   0  0  0  0  0  0  0  0  0  0  0  0
   36.3920   28.3280   33.5280 N   0  0  0  0  0  0  0  0  0  0  0  0
   35.3850   28.2180   33.3340 H   0  0  0  0  0  0  0  0  0  0  0  0
   36.8360   27.5080   34.6300 C   0  0  0  0  0  2  0  0  0  0  0  0
   37.6800   26.3700   34.1110 C   0  0  0  0  0  2  0  0  0  0  0  0
  1  2  1  0  0  0  0
  2  3  2  0  0  0  0
  2 13  1  0  0  0  0
  3  7  1  0  0  0  0
  4  8  1  0  0  0  0
  4  3  1  0  0  0  0
  5  4  2  0  0  0  0
  6  5  1  0  0  0  0
  6  1  2  0  0  0  0
  9  5  1  0  0  0  0
 10  6  1  0  0  0  0
 11 16  1  0  0  0  0
 12 13  1  0  0  0  0
 12 11  2  0  0  0  0
 13 14  2  0  0  0  0
 14 15  1  0  0  0  0
 15 19  1  0  0  0  0
 16 15  2  0  0  0  0
 17 11  1  0  0  0  0
 18 12  1  0  0  0  0
 19 20  1  0  0  0  0
 19 21  1  0  0  0  0
 22 19  1  0  0  0  0
 23  1  1  0  0  0  0
 23 26  1  0  0  0  0
 24 23  2  0  0  0  0
 25 23  2  0  0  0  0
 26 29  1  0  0  0  0
 26 28  1  0  0  0  0
 27 26  1  0  0  0  0
 29 37  1  0  0  0  0
 30 32  1  0  0  0  0
 30 29  1  0  0  0  0
 31 30  1  0  0  0  0
 32 34  1  0  0  0  0
 33 32  1  0  0  0  0
 34 36  1  0  0  0  0
 35 34  1  0  0  0  0
 37 36  1  0  0  0  0
M  END
>  <minimizedAffinity>
-5.67043591

$$$$
