
 OpenBabel03272510043D

 37 39  0  0  0  0  0  0  0  0999 V2000
   36.7550   30.4920   45.7220 C   0  0  0  0  0  0  0  0  0  0  0  0
   38.0840   30.7900   45.7120 C   0  0  0  0  0  0  0  0  0  0  0  0
   38.7470   31.0120   46.9130 C   0  0  0  0  0  0  0  0  0  0  0  0
   38.1150   30.9460   48.1370 C   0  0  0  0  0  0  0  0  0  0  0  0
   36.7650   30.6480   48.1800 C   0  0  0  0  0  0  0  0  0  0  0  0
   36.1470   30.4360   46.9790 C   0  0  0  0  0  0  0  0  0  0  0  0
   39.8200   31.2480   46.8740 H   0  0  0  0  0  0  0  0  0  0  0  0
   38.7140   31.1310   48.9980 H   0  0  0  0  0  0  0  0  0  0  0  0
   36.3090   30.6090   49.1570 H   0  0  0  0  0  0  0  0  0  0  0  0
   35.0850   30.2150   47.1460 H   0  0  0  0  0  0  0  0  0  0  0  0
   39.6460   32.3150   42.7520 C   0  0  0  0  0  0  0  0  0  0  0  0
   38.9530   32.1520   43.9450 C   0  0  0  0  0  0  0  0  0  0  0  0
   38.8110   30.9160   44.4940 C   0  0  0  0  0  0  0  0  0  0  0  0
   39.3750   29.8690   43.8300 N   0  0  0  0  0  0  0  0  0  0  0  0
   40.0470   30.0220   42.6820 C   0  0  0  0  0  0  0  0  0  0  0  0
   40.1760   31.2420   42.1520 N   0  0  0  0  0  0  0  0  0  0  0  0
   39.8470   33.2010   42.1900 H   0  0  0  0  0  0  0  0  0  0  0  0
   38.6770   33.1400   44.2230 H   0  0  0  0  0  0  0  0  0  0  0  0
   40.6690   28.8020   42.1000 C   0  0  0  0  0  0  0  0  0  0  0  0
   40.5790   28.7830   40.7190 F   0  0  0  0  0  0  0  0  0  0  0  0
   42.0990   28.8720   42.3090 F   0  0  0  0  0  0  0  0  0  0  0  0
   40.3370   27.6450   42.6280 F   0  0  0  0  0  0  0  0  0  0  0  0
   35.8380   30.1630   44.3180 S   0  0  0  0  0  0  0  0  0  0  0  0
   35.4190   31.3710   43.6150 O   0  0  0  0  0  0  0  0  0  0  0  0
   34.5020   29.8600   44.9810 O   0  0  0  0  0  0  0  0  0  0  0  0
   35.6300   28.6720   43.5080 C   0  0  0  0  0  0  0  0  0  0  0  0
   34.8310   27.9920   43.8680 H   0  0  0  0  0  0  0  0  0  0  0  0
   36.5430   28.0610   43.8740 H   0  0  0  0  0  0  0  0  0  0  0  0
   35.8440   28.7400   42.1160 N   0  0  0  0  0  0  0  0  0  0  0  0
   34.6870   28.2650   41.3980 C   0  0  0  0  0  3  0  0  0  0  0  0
   33.8300   28.9790   41.4090 H   0  0  0  0  0  0  0  0  0  0  0  0
   35.0420   27.8840   39.9660 C   0  0  0  0  0  3  0  0  0  0  0  0
   34.1520   28.1240   39.3480 H   0  0  0  0  0  0  0  0  0  0  0  0
   36.1350   28.6800   39.4620 N   0  0  0  0  0  0  0  0  0  0  0  0
   35.8990   29.6700   39.3000 H   0  0  0  0  0  0  0  0  0  0  0  0
   37.3460   28.5200   40.2320 C   0  0  0  0  0  2  0  0  0  0  0  0
   37.0060   28.0380   41.6210 C   0  0  0  0  0  2  0  0  0  0  0  0
  1  6  1  0  0  0  0
  2  1  2  0  0  0  0
  2  3  1  0  0  0  0
  3  4  2  0  0  0  0
  4  5  1  0  0  0  0
  4  8  1  0  0  0  0
  5  9  1  0  0  0  0
  6 10  1  0  0  0  0
  6  5  2  0  0  0  0
  7  3  1  0  0  0  0
 11 12  1  0  0  0  0
 12 18  1  0  0  0  0
 12 13  2  0  0  0  0
 13  2  1  0  0  0  0
 14 13  1  0  0  0  0
 15 14  2  0  0  0  0
 16 15  1  0  0  0  0
 16 11  2  0  0  0  0
 17 11  1  0  0  0  0
 19 21  1  0  0  0  0
 19 22  1  0  0  0  0
 19 15  1  0  0  0  0
 20 19  1  0  0  0  0
 23 25  2  0  0  0  0
 23  1  1  0  0  0  0
 24 23  2  0  0  0  0
 26 27  1  0  0  0  0
 26 28  1  0  0  0  0
 26 23  1  0  0  0  0
 29 26  1  0  0  0  0
 30 31  1  0  0  0  0
 30 29  1  0  0  0  0
 32 30  1  0  0  0  0
 33 32  1  0  0  0  0
 34 32  1  0  0  0  0
 34 36  1  0  0  0  0
 35 34  1  0  0  0  0
 36 37  1  0  0  0  0
 37 29  1  0  0  0  0
M  END
>  <minimizedAffinity>
-4.45294571

>  <minimizedRMSD>
7.27665424

$$$$
