
 OpenBabel03272510003D

 21 22  0  0  0  0  0  0  0  0999 V2000
   38.2970   31.3450   50.1910 C   0  0  0  0  0  0  0  0  0  0  0  0
   38.4140   31.5910   48.8200 C   0  0  0  0  0  0  0  0  0  0  0  0
   37.4250   31.0850   47.9780 C   0  0  0  0  0  0  0  0  0  0  0  0
   36.4080   30.3860   48.5440 N   0  0  0  0  0  0  0  0  0  0  0  0
   36.3140   30.1620   49.8580 C   0  0  0  0  0  0  0  0  0  0  0  0
   37.2660   30.6470   50.6810 N   0  0  0  0  0  0  0  0  0  0  0  0
   39.0880   31.7530   50.8400 H   0  0  0  0  0  0  0  0  0  0  0  0
   39.2210   32.1480   48.3550 H   0  0  0  0  0  0  0  0  0  0  0  0
   37.4190   31.2590   46.5730 N   0  0  0  0  0  0  0  0  0  0  0  0
   38.2530   32.2340   45.8790 C   0  0  0  0  0  3  0  0  0  0  0  0
   39.1420   32.5100   46.4850 H   0  0  0  0  0  0  0  0  0  0  0  0
   38.7440   31.7160   44.5640 C   0  0  0  0  0  3  0  0  0  0  0  0
   39.0480   32.5940   43.9590 H   0  0  0  0  0  0  0  0  0  0  0  0
   37.8010   30.9470   43.8130 N   0  0  0  0  0  0  0  0  0  0  0  0
   38.1430   29.9480   43.7980 H   0  0  0  0  0  0  0  0  0  0  0  0
   36.4850   30.9180   44.3870 C   0  0  0  0  0  2  0  0  0  0  0  0
   36.5250   30.4050   45.8250 C   0  0  0  0  0  2  0  0  0  0  0  0
   35.1570   29.3830   50.3640 C   0  0  0  0  0  0  0  0  0  0  0  0
   35.2600   29.1210   51.7240 F   0  0  0  0  0  0  0  0  0  0  0  0
   33.9740   30.0850   50.1940 F   0  0  0  0  0  0  0  0  0  0  0  0
   35.0000   28.1820   49.7200 F   0  0  0  0  0  0  0  0  0  0  0  0
  1  6  1  0  0  0  0
  1  7  1  0  0  0  0
  2  1  2  0  0  0  0
  3  4  2  0  0  0  0
  3  2  1  0  0  0  0
  4  5  1  0  0  0  0
  5 18  1  0  0  0  0
  5  6  2  0  0  0  0
  8  2  1  0  0  0  0
  9  3  1  0  0  0  0
 10 11  1  0  0  0  0
 10  9  1  0  0  0  0
 12 10  1  0  0  0  0
 13 12  1  0  0  0  0
 14 16  1  0  0  0  0
 14 12  1  0  0  0  0
 15 14  1  0  0  0  0
 16 17  1  0  0  0  0
 17  9  1  0  0  0  0
 18 19  1  0  0  0  0
 20 18  1  0  0  0  0
 21 18  1  0  0  0  0
M  END
>  <minimizedAffinity>
-5.12143707

>  <minimizedRMSD>
0.519017994

$$$$
