
 OpenBabel03272502413D

 28 30  0  0  0  0  0  0  0  0999 V2000
   37.9730   33.0750   49.6450 C   0  0  0  0  0  0  0  0  0  0  0  0
   38.9080   33.2070   48.6220 C   0  0  0  0  0  0  0  0  0  0  0  0
   38.8180   32.3130   47.5440 C   0  0  0  0  0  0  0  0  0  0  0  0
   37.8340   31.3870   47.5690 N   0  0  0  0  0  0  0  0  0  0  0  0
   36.9450   31.2890   48.5810 C   0  0  0  0  0  0  0  0  0  0  0  0
   37.0180   32.1400   49.6220 N   0  0  0  0  0  0  0  0  0  0  0  0
   38.0700   33.7710   50.4500 H   0  0  0  0  0  0  0  0  0  0  0  0
   39.7070   33.9130   48.5420 H   0  0  0  0  0  0  0  0  0  0  0  0
   39.6580   32.2610   46.3970 N   0  0  0  0  0  0  0  0  0  0  0  0
   40.2170   31.0390   45.8330 C   0  0  0  0  0  0  0  0  0  0  0  0
   39.9790   30.1590   46.4780 H   0  0  0  0  0  0  0  0  0  0  0  0
   39.5810   30.9010   44.4620 C   0  0  0  0  0  0  0  0  0  0  0  0
   38.5200   31.2060   44.5700 H   0  0  0  0  0  0  0  0  0  0  0  0
   40.2580   31.8880   43.6320 N   0  0  0  0  0  0  0  0  0  0  0  0
   39.8680   31.8250   42.6640 H   0  0  0  0  0  0  0  0  0  0  0  0
   39.9670   33.2080   44.1280 C   0  0  0  0  0  0  0  0  0  0  0  0
   40.0940   33.3680   45.6120 C   0  0  0  0  0  0  0  0  0  0  0  0
   37.2470   29.1050   50.5520 Cl  0  0  0  0  0  0  0  0  0  0  0  0
   35.9570   29.1980   49.3910 C   0  0  0  0  0  0  0  0  0  0  0  0
   35.9120   30.2540   48.5230 C   0  0  0  0  0  0  0  0  0  0  0  0
   34.9040   30.3720   47.5790 C   0  0  0  0  0  0  0  0  0  0  0  0
   33.9120   29.4130   47.4950 C   0  0  0  0  0  0  0  0  0  0  0  0
   33.9320   28.3360   48.3570 C   0  0  0  0  0  0  0  0  0  0  0  0
   32.7540   27.0410   48.3810 Cl  0  0  0  0  0  0  0  0  0  0  0  0
   34.9630   28.2630   49.2860 C   0  0  0  0  0  0  0  0  0  0  0  0
   34.8260   31.1750   46.8810 H   0  0  0  0  0  0  0  0  0  0  0  0
   33.1140   29.4530   46.7900 H   0  0  0  0  0  0  0  0  0  0  0  0
   35.0110   27.4250   49.9860 H   0  0  0  0  0  0  0  0  0  0  0  0
  1  7  1  0  0  0  0
  2  1  2  0  0  0  0
  3  4  2  0  0  0  0
  3  2  1  0  0  0  0
  4  5  1  0  0  0  0
  5  6  2  0  0  0  0
  6  1  1  0  0  0  0
  8  2  1  0  0  0  0
  9  3  1  0  0  0  0
 10  9  1  0  0  0  0
 10 11  1  0  0  0  0
 12 13  1  0  0  0  0
 12 10  1  0  0  0  0
 14 16  1  0  0  0  0
 14 12  1  0  0  0  0
 15 14  1  0  0  0  0
 16 17  1  0  0  0  0
 17  9  1  0  0  0  0
 19 18  1  0  0  0  0
 20  5  1  0  0  0  0
 20 19  2  0  0  0  0
 21 20  1  0  0  0  0
 22 21  2  0  0  0  0
 22 23  1  0  0  0  0
 23 24  1  0  0  0  0
 23 25  2  0  0  0  0
 25 19  1  0  0  0  0
 25 28  1  0  0  0  0
 26 21  1  0  0  0  0
 27 22  1  0  0  0  0
M  END
>  <minimizedAffinity>
-7.27944517

>  <minimizedRMSD>
0.37773934

$$$$
