
 OpenBabel03272505363D

 31 33  0  0  0  0  0  0  0  0999 V2000
   36.0830   30.4620   46.6500 C   0  0  0  0  0  0  0  0  0  0  0  0
   34.7460   30.0850   46.7150 C   0  0  0  0  0  0  0  0  0  0  0  0
   34.0600   29.8230   45.5390 C   0  0  0  0  0  0  0  0  0  0  0  0
   34.6180   29.9100   44.2910 C   0  0  0  0  0  0  0  0  0  0  0  0
   35.9570   30.2870   44.2160 C   0  0  0  0  0  0  0  0  0  0  0  0
   36.6280   30.5460   45.3970 C   0  0  0  0  0  0  0  0  0  0  0  0
   34.3060   30.0150   47.6900 H   0  0  0  0  0  0  0  0  0  0  0  0
   33.0300   29.5410   45.7140 H   0  0  0  0  0  0  0  0  0  0  0  0
   33.9740   29.6790   43.4430 H   0  0  0  0  0  0  0  0  0  0  0  0
   36.3490   30.3410   43.2200 H   0  0  0  0  0  0  0  0  0  0  0  0
   37.9690   30.9370   45.1270 N   0  0  0  0  0  0  0  0  0  0  0  0
   39.2810   30.3310   45.0610 C   0  0  0  0  0  0  0  0  0  0  0  0
   39.2530   29.2800   45.4040 H   0  0  0  0  0  0  0  0  0  0  0  0
   40.1400   31.1700   46.0340 C   0  0  0  0  0  0  0  0  0  0  0  0
   39.5180   31.4370   46.9240 H   0  0  0  0  0  0  0  0  0  0  0  0
   40.4240   32.4050   45.3410 N   0  0  0  0  0  0  0  0  0  0  0  0
   40.6020   33.1380   46.0330 H   0  0  0  0  0  0  0  0  0  0  0  0
   39.3730   32.8160   44.4620 C   0  0  0  0  0  0  0  0  0  0  0  0
   38.0040   32.3580   44.8330 C   0  0  0  0  0  0  0  0  0  0  0  0
   37.3790   30.2410   50.0540 C   0  0  0  0  0  0  0  0  0  0  0  0
   38.2350   31.3530   50.1350 C   0  0  0  0  0  0  0  0  0  0  0  0
   38.3530   32.1680   48.9960 C   0  0  0  0  0  0  0  0  0  0  0  0
   37.6280   31.8110   47.9060 N   0  0  0  0  0  0  0  0  0  0  0  0
   36.8210   30.7480   47.8560 C   0  0  0  0  0  0  0  0  0  0  0  0
   36.6980   29.9620   48.9350 N   0  0  0  0  0  0  0  0  0  0  0  0
   38.8100   31.6300   51.0090 H   0  0  0  0  0  0  0  0  0  0  0  0
   38.9850   33.0380   48.9710 H   0  0  0  0  0  0  0  0  0  0  0  0
   37.2600   29.3830   51.2830 C   0  0  0  0  0  0  0  0  0  0  0  0
   35.9050   29.1250   51.5160 F   0  0  0  0  0  0  0  0  0  0  0  0
   37.9710   28.2540   51.0830 F   0  0  0  0  0  0  0  0  0  0  0  0
   37.7100   30.1140   52.3620 F   0  0  0  0  0  0  0  0  0  0  0  0
  1  2  1  0  0  0  0
  1 24  1  0  0  0  0
  2  7  1  0  0  0  0
  3  8  1  0  0  0  0
  3  2  2  0  0  0  0
  4  3  1  0  0  0  0
  5  4  2  0  0  0  0
  5  6  1  0  0  0  0
  6  1  2  0  0  0  0
  9  4  1  0  0  0  0
 10  5  1  0  0  0  0
 11  6  1  0  0  0  0
 12 11  1  0  0  0  0
 12 13  1  0  0  0  0
 12 14  1  0  0  0  0
 14 15  1  0  0  0  0
 16 17  1  0  0  0  0
 16 14  1  0  0  0  0
 18 19  1  0  0  0  0
 18 16  1  0  0  0  0
 19 11  1  0  0  0  0
 20 21  1  0  0  0  0
 20 28  1  0  0  0  0
 21 26  1  0  0  0  0
 22 21  2  0  0  0  0
 23 22  1  0  0  0  0
 24 23  2  0  0  0  0
 24 25  1  0  0  0  0
 25 20  2  0  0  0  0
 27 22  1  0  0  0  0
 28 29  1  0  0  0  0
 28 31  1  0  0  0  0
 30 28  1  0  0  0  0
M  END
>  <minimizedAffinity>
-6.70195913

>  <minimizedRMSD>
0.377194494

$$$$
