
 OpenBabel03272509243D

 24 25  0  0  0  0  0  0  0  0999 V2000
   37.5120   30.8120   47.4630 C   0  0  0  0  0  0  0  0  0  0  0  0
   37.8170   29.9500   46.8390 H   0  0  0  0  0  0  0  0  0  0  0  0
   36.5600   31.1730   47.0010 H   0  0  0  0  0  0  0  0  0  0  0  0
   37.5110   30.2990   51.2180 C   0  0  0  0  0  0  0  0  0  0  0  0
   37.8940   30.7360   49.9410 C   0  0  0  0  0  0  0  0  0  0  0  0
   37.1820   30.3600   48.8290 C   0  0  0  0  0  0  0  0  0  0  0  0
   36.0960   29.5490   49.0370 N   0  0  0  0  0  0  0  0  0  0  0  0
   35.7380   29.1360   50.2600 C   0  0  0  0  0  0  0  0  0  0  0  0
   36.4390   29.5050   51.3580 N   0  0  0  0  0  0  0  0  0  0  0  0
   38.0330   30.5670   52.1380 H   0  0  0  0  0  0  0  0  0  0  0  0
   38.7500   31.3440   49.9920 H   0  0  0  0  0  0  0  0  0  0  0  0
   34.8660   28.4990   50.3170 H   0  0  0  0  0  0  0  0  0  0  0  0
   38.4660   31.9490   47.4480 C   0  0  0  0  0  0  0  0  0  0  0  0
   38.7920   32.1180   48.5070 H   0  0  0  0  0  0  0  0  0  0  0  0
   37.9150   32.8700   47.1440 H   0  0  0  0  0  0  0  0  0  0  0  0
   39.6570   31.8110   46.6720 N   0  0  0  0  0  0  0  0  0  0  0  0
   39.9970   33.0530   46.0650 C   0  0  0  0  0  0  0  0  0  0  0  0
   39.6060   33.8920   46.6810 H   0  0  0  0  0  0  0  0  0  0  0  0
   39.5760   33.2080   44.6290 C   0  0  0  0  0  0  0  0  0  0  0  0
   39.8730   34.2120   44.2590 H   0  0  0  0  0  0  0  0  0  0  0  0
   40.3220   32.1550   43.9220 N   0  0  0  0  0  0  0  0  0  0  0  0
   41.3030   32.1430   44.2610 H   0  0  0  0  0  0  0  0  0  0  0  0
   39.6840   30.9220   44.3420 C   0  0  0  0  0  0  0  0  0  0  0  0
   39.6570   30.6810   45.7980 C   0  0  0  0  0  0  0  0  0  0  0  0
  1  6  1  0  0  0  0
  2  1  1  0  0  0  0
  3  1  1  0  0  0  0
  4  9  1  0  0  0  0
  4 10  1  0  0  0  0
  5 11  1  0  0  0  0
  5  4  2  0  0  0  0
  6  7  2  0  0  0  0
  6  5  1  0  0  0  0
  7  8  1  0  0  0  0
  8 12  1  0  0  0  0
  8  9  2  0  0  0  0
 13  1  1  0  0  0  0
 13 14  1  0  0  0  0
 15 13  1  0  0  0  0
 16 13  1  0  0  0  0
 17 16  1  0  0  0  0
 17 18  1  0  0  0  0
 19 17  1  0  0  0  0
 20 19  1  0  0  0  0
 21 22  1  0  0  0  0
 21 23  1  0  0  0  0
 21 19  1  0  0  0  0
 23 24  1  0  0  0  0
 24 16  1  0  0  0  0
M  END
>  <minimizedAffinity>
-4.62418747

>  <minimizedRMSD>
3.85321879

$$$$
