
 OpenBabel03272502123D

 26 28  0  0  0  0  0  0  0  0999 V2000
   38.5510   25.3330   32.9720 C   0  0  0  0  0  0  0  0  0  0  0  0
   39.5460   26.2200   32.6210 C   0  0  0  0  0  0  0  0  0  0  0  0
   40.7730   26.3180   33.2820 C   0  0  0  0  0  0  0  0  0  0  0  0
   40.9720   25.4740   34.3340 N   0  0  0  0  0  0  0  0  0  0  0  0
   40.0030   24.6090   34.6780 C   0  0  0  0  0  0  0  0  0  0  0  0
   38.8310   24.5410   34.0170 N   0  0  0  0  0  0  0  0  0  0  0  0
   39.3990   26.8990   31.7850 H   0  0  0  0  0  0  0  0  0  0  0  0
   41.5310   27.0240   32.9830 H   0  0  0  0  0  0  0  0  0  0  0  0
   40.1980   23.7130   35.7830 N   0  0  0  0  0  0  0  0  0  0  0  0
   41.4930   23.2280   36.1510 C   0  0  0  0  0  3  0  0  0  0  0  0
   42.0990   23.9700   36.7110 H   0  0  0  0  0  0  0  0  0  0  0  0
   41.4640   21.8980   36.8480 C   0  0  0  0  0  3  0  0  0  0  0  0
   42.4680   21.7450   37.3130 H   0  0  0  0  0  0  0  0  0  0  0  0
   40.4840   21.8080   37.8900 N   0  0  0  0  0  0  0  0  0  0  0  0
   39.9860   20.8750   37.8830 H   0  0  0  0  0  0  0  0  0  0  0  0
   39.5550   22.9030   37.9250 C   0  0  0  0  0  2  0  0  0  0  0  0
   39.0400   23.2810   36.5600 C   0  0  0  0  0  2  0  0  0  0  0  0
   36.6430   24.0750   31.9240 C   0  0  0  0  0  0  0  0  0  0  0  0
   37.2940   25.2570   32.2670 C   0  0  0  0  0  0  0  0  0  0  0  0
   36.6720   26.4530   31.8950 C   0  0  0  0  0  0  0  0  0  0  0  0
   35.4920   26.4040   31.2340 N   0  0  0  0  0  0  0  0  0  0  0  0
   34.8930   25.2250   30.9210 C   0  0  0  0  0  0  0  0  0  0  0  0
   35.4760   24.0640   31.2700 N   0  0  0  0  0  0  0  0  0  0  0  0
   37.1150   23.1450   32.2080 H   0  0  0  0  0  0  0  0  0  0  0  0
   37.1490   27.4000   32.1450 H   0  0  0  0  0  0  0  0  0  0  0  0
   33.9620   25.3970   30.3940 H   0  0  0  0  0  0  0  0  0  0  0  0
  1  6  1  0  0  0  0
  2  1  2  0  0  0  0
  2  3  1  0  0  0  0
  3  4  2  0  0  0  0
  4  5  1  0  0  0  0
  5  9  1  0  0  0  0
  6  5  2  0  0  0  0
  7  2  1  0  0  0  0
  8  3  1  0  0  0  0
  9 10  1  0  0  0  0
  9 17  1  0  0  0  0
 10 11  1  0  0  0  0
 10 12  1  0  0  0  0
 12 13  1  0  0  0  0
 12 14  1  0  0  0  0
 14 16  1  0  0  0  0
 15 14  1  0  0  0  0
 17 16  1  0  0  0  0
 18 24  1  0  0  0  0
 18 19  1  0  0  0  0
 19  1  1  0  0  0  0
 20 25  1  0  0  0  0
 20 19  2  0  0  0  0
 21 20  1  0  0  0  0
 22 21  2  0  0  0  0
 22 23  1  0  0  0  0
 23 18  2  0  0  0  0
 26 22  1  0  0  0  0
M  END
>  <minimizedAffinity>
-5.05757141

$$$$

 OpenBabel03272502123D

 26 28  0  0  0  0  0  0  0  0999 V2000
   36.0690   23.0770   31.8820 C   0  0  0  0  0  0  0  0  0  0  0  0
   35.2640   23.8560   31.0790 C   0  0  0  0  0  0  0  0  0  0  0  0
   35.3650   25.2470   30.9890 C   0  0  0  0  0  0  0  0  0  0  0  0
   36.3260   25.8440   31.7510 N   0  0  0  0  0  0  0  0  0  0  0  0
   37.1120   25.0850   32.5340 C   0  0  0  0  0  0  0  0  0  0  0  0
   36.9860   23.7450   32.5960 N   0  0  0  0  0  0  0  0  0  0  0  0
   34.4940   23.3940   30.4670 H   0  0  0  0  0  0  0  0  0  0  0  0
   34.7200   25.8290   30.3510 H   0  0  0  0  0  0  0  0  0  0  0  0
   38.1280   25.6980   33.3420 N   0  0  0  0  0  0  0  0  0  0  0  0
   38.7840   26.9080   32.9520 C   0  0  0  0  0  3  0  0  0  0  0  0
   38.1700   27.8170   33.1230 H   0  0  0  0  0  0  0  0  0  0  0  0
   40.1650   27.0560   33.5220 C   0  0  0  0  0  3  0  0  0  0  0  0
   40.4720   28.1210   33.3770 H   0  0  0  0  0  0  0  0  0  0  0  0
   40.2520   26.7670   34.9220 N   0  0  0  0  0  0  0  0  0  0  0  0
   41.1200   26.2090   35.1570 H   0  0  0  0  0  0  0  0  0  0  0  0
   39.0710   26.1620   35.4750 C   0  0  0  0  0  2  0  0  0  0  0  0
   38.5070   25.0700   34.6040 C   0  0  0  0  0  2  0  0  0  0  0  0
   36.0750   20.7750   30.8710 C   0  0  0  0  0  0  0  0  0  0  0  0
   35.9380   21.6420   31.9520 C   0  0  0  0  0  0  0  0  0  0  0  0
   35.6540   21.0640   33.1940 C   0  0  0  0  0  0  0  0  0  0  0  0
   35.5280   19.7200   33.2820 N   0  0  0  0  0  0  0  0  0  0  0  0
   35.6700   18.9120   32.1980 C   0  0  0  0  0  0  0  0  0  0  0  0
   35.9430   19.4490   30.9950 N   0  0  0  0  0  0  0  0  0  0  0  0
   36.2950   21.2100   29.9060 H   0  0  0  0  0  0  0  0  0  0  0  0
   35.5400   21.7080   34.0650 H   0  0  0  0  0  0  0  0  0  0  0  0
   35.5330   17.8740   32.4740 H   0  0  0  0  0  0  0  0  0  0  0  0
  1 19  1  0  0  0  0
  1  6  1  0  0  0  0
  2  1  2  0  0  0  0
  3  2  1  0  0  0  0
  3  4  2  0  0  0  0
  4  5  1  0  0  0  0
  5  6  2  0  0  0  0
  5  9  1  0  0  0  0
  7  2  1  0  0  0  0
  8  3  1  0  0  0  0
  9 17  1  0  0  0  0
 10 11  1  0  0  0  0
 10  9  1  0  0  0  0
 10 12  1  0  0  0  0
 12 14  1  0  0  0  0
 13 12  1  0  0  0  0
 14 15  1  0  0  0  0
 14 16  1  0  0  0  0
 17 16  1  0  0  0  0
 18 23  2  0  0  0  0
 18 19  1  0  0  0  0
 19 20  2  0  0  0  0
 20 21  1  0  0  0  0
 20 25  1  0  0  0  0
 22 26  1  0  0  0  0
 22 21  2  0  0  0  0
 23 22  1  0  0  0  0
 24 18  1  0  0  0  0
M  END
>  <minimizedAffinity>
-4.85987854

$$$$

 OpenBabel03272502123D

 26 28  0  0  0  0  0  0  0  0999 V2000
   38.1560   23.7840   34.6120 C   0  0  0  0  0  0  0  0  0  0  0  0
   38.1140   22.7140   33.7460 C   0  0  0  0  0  0  0  0  0  0  0  0
   37.8240   22.8230   32.3830 C   0  0  0  0  0  0  0  0  0  0  0  0
   37.5710   24.0760   31.9080 N   0  0  0  0  0  0  0  0  0  0  0  0
   37.6120   25.1220   32.7520 C   0  0  0  0  0  0  0  0  0  0  0  0
   37.8960   24.9790   34.0610 N   0  0  0  0  0  0  0  0  0  0  0  0
   38.3120   21.7100   34.1120 H   0  0  0  0  0  0  0  0  0  0  0  0
   37.7980   21.9650   31.7320 H   0  0  0  0  0  0  0  0  0  0  0  0
   37.3480   26.4470   32.2670 N   0  0  0  0  0  0  0  0  0  0  0  0
   37.6500   26.8410   30.9250 C   0  0  0  0  0  3  0  0  0  0  0  0
   36.9100   26.4770   30.1820 H   0  0  0  0  0  0  0  0  0  0  0  0
   37.9110   28.3120   30.7710 C   0  0  0  0  0  3  0  0  0  0  0  0
   37.8730   28.5440   29.6790 H   0  0  0  0  0  0  0  0  0  0  0  0
   36.9470   29.1460   31.4260 N   0  0  0  0  0  0  0  0  0  0  0  0
   37.4020   29.9660   31.9150 H   0  0  0  0  0  0  0  0  0  0  0  0
   36.0520   28.4400   32.3010 C   0  0  0  0  0  2  0  0  0  0  0  0
   36.7540   27.4290   33.1690 C   0  0  0  0  0  2  0  0  0  0  0  0
   39.5280   22.9070   36.5270 C   0  0  0  0  0  0  0  0  0  0  0  0
   38.4590   23.6370   36.0150 C   0  0  0  0  0  0  0  0  0  0  0  0
   37.6240   24.2710   36.9410 C   0  0  0  0  0  0  0  0  0  0  0  0
   37.8900   24.1460   38.2620 N   0  0  0  0  0  0  0  0  0  0  0  0
   38.9470   23.4220   38.7160 C   0  0  0  0  0  0  0  0  0  0  0  0
   39.7620   22.8050   37.8410 N   0  0  0  0  0  0  0  0  0  0  0  0
   40.1810   22.4140   35.8200 H   0  0  0  0  0  0  0  0  0  0  0  0
   36.7760   24.8510   36.5810 H   0  0  0  0  0  0  0  0  0  0  0  0
   38.9890   23.4430   39.7980 H   0  0  0  0  0  0  0  0  0  0  0  0
  1 19  1  0  0  0  0
  2  7  1  0  0  0  0
  2  1  2  0  0  0  0
  3  2  1  0  0  0  0
  4  3  2  0  0  0  0
  4  5  1  0  0  0  0
  5  6  2  0  0  0  0
  6  1  1  0  0  0  0
  8  3  1  0  0  0  0
  9  5  1  0  0  0  0
  9 17  1  0  0  0  0
 10  9  1  0  0  0  0
 11 10  1  0  0  0  0
 12 10  1  0  0  0  0
 12 14  1  0  0  0  0
 13 12  1  0  0  0  0
 14 15  1  0  0  0  0
 14 16  1  0  0  0  0
 16 17  1  0  0  0  0
 18 23  1  0  0  0  0
 19 18  2  0  0  0  0
 19 20  1  0  0  0  0
 20 21  2  0  0  0  0
 21 22  1  0  0  0  0
 22 26  1  0  0  0  0
 23 22  2  0  0  0  0
 24 18  1  0  0  0  0
 25 20  1  0  0  0  0
M  END
>  <minimizedAffinity>
-4.67630577

$$$$

 OpenBabel03272502123D

 26 28  0  0  0  0  0  0  0  0999 V2000
   37.0380   27.5250   33.2030 C   0  0  0  0  0  0  0  0  0  0  0  0
   37.9280   27.5240   32.1510 C   0  0  0  0  0  0  0  0  0  0  0  0
   38.9220   26.5580   31.9700 C   0  0  0  0  0  0  0  0  0  0  0  0
   38.9920   25.5680   32.9050 N   0  0  0  0  0  0  0  0  0  0  0  0
   38.1250   25.5670   33.9320 C   0  0  0  0  0  0  0  0  0  0  0  0
   37.1780   26.5160   34.0740 N   0  0  0  0  0  0  0  0  0  0  0  0
   37.8830   28.3070   31.3990 H   0  0  0  0  0  0  0  0  0  0  0  0
   39.6030   26.5860   31.1360 H   0  0  0  0  0  0  0  0  0  0  0  0
   38.1860   24.5320   34.9250 N   0  0  0  0  0  0  0  0  0  0  0  0
   38.6420   23.2110   34.6200 C   0  0  0  0  0  3  0  0  0  0  0  0
   39.7460   23.1330   34.5420 H   0  0  0  0  0  0  0  0  0  0  0  0
   38.0730   22.1530   35.5210 C   0  0  0  0  0  3  0  0  0  0  0  0
   38.6810   21.2270   35.3710 H   0  0  0  0  0  0  0  0  0  0  0  0
   38.1250   22.4850   36.9140 N   0  0  0  0  0  0  0  0  0  0  0  0
   37.2360   22.2100   37.4180 H   0  0  0  0  0  0  0  0  0  0  0  0
   38.4840   23.8500   37.1840 C   0  0  0  0  0  2  0  0  0  0  0  0
   37.7710   24.8330   36.2920 C   0  0  0  0  0  2  0  0  0  0  0  0
   35.8170   29.2870   34.5150 C   0  0  0  0  0  0  0  0  0  0  0  0
   36.0220   28.5380   33.3600 C   0  0  0  0  0  0  0  0  0  0  0  0
   35.1740   28.7970   32.2790 C   0  0  0  0  0  0  0  0  0  0  0  0
   34.2150   29.7440   32.4050 N   0  0  0  0  0  0  0  0  0  0  0  0
   34.0520   30.4510   33.5540 C   0  0  0  0  0  0  0  0  0  0  0  0
   34.8580   30.2170   34.6050 N   0  0  0  0  0  0  0  0  0  0  0  0
   36.4670   29.0970   35.3570 H   0  0  0  0  0  0  0  0  0  0  0  0
   35.3020   28.2310   31.3570 H   0  0  0  0  0  0  0  0  0  0  0  0
   33.2360   31.1560   33.4550 H   0  0  0  0  0  0  0  0  0  0  0  0
  1 19  1  0  0  0  0
  1  6  1  0  0  0  0
  2  1  2  0  0  0  0
  3  2  1  0  0  0  0
  3  4  2  0  0  0  0
  4  5  1  0  0  0  0
  5  6  2  0  0  0  0
  5  9  1  0  0  0  0
  7  2  1  0  0  0  0
  8  3  1  0  0  0  0
  9 17  1  0  0  0  0
 10  9  1  0  0  0  0
 10 12  1  0  0  0  0
 11 10  1  0  0  0  0
 12 14  1  0  0  0  0
 13 12  1  0  0  0  0
 14 16  1  0  0  0  0
 14 15  1  0  0  0  0
 17 16  1  0  0  0  0
 18 23  1  0  0  0  0
 18 24  1  0  0  0  0
 19 18  2  0  0  0  0
 20 21  2  0  0  0  0
 20 19  1  0  0  0  0
 21 22  1  0  0  0  0
 22 23  2  0  0  0  0
 25 20  1  0  0  0  0
 26 22  1  0  0  0  0
M  END
>  <minimizedAffinity>
-4.67358065

$$$$

 OpenBabel03272502123D

 26 28  0  0  0  0  0  0  0  0999 V2000
   35.2560   29.7740   34.2680 C   0  0  0  0  0  0  0  0  0  0  0  0
   34.9000   29.8090   32.9370 C   0  0  0  0  0  0  0  0  0  0  0  0
   35.4090   28.9380   31.9690 C   0  0  0  0  0  0  0  0  0  0  0  0
   36.3120   28.0090   32.3940 N   0  0  0  0  0  0  0  0  0  0  0  0
   36.6610   27.9740   33.6920 C   0  0  0  0  0  0  0  0  0  0  0  0
   36.1490   28.8290   34.5980 N   0  0  0  0  0  0  0  0  0  0  0  0
   34.1820   30.5450   32.5850 H   0  0  0  0  0  0  0  0  0  0  0  0
   35.1090   28.9920   30.9360 H   0  0  0  0  0  0  0  0  0  0  0  0
   37.6100   27.0010   34.1540 N   0  0  0  0  0  0  0  0  0  0  0  0
   37.7480   25.7180   33.5370 C   0  0  0  0  0  3  0  0  0  0  0  0
   38.3170   25.7460   32.5850 H   0  0  0  0  0  0  0  0  0  0  0  0
   38.2680   24.6550   34.4620 C   0  0  0  0  0  3  0  0  0  0  0  0
   38.5790   23.7880   33.8300 H   0  0  0  0  0  0  0  0  0  0  0  0
   39.4040   25.0600   35.2340 N   0  0  0  0  0  0  0  0  0  0  0  0
   39.3410   24.7250   36.2350 H   0  0  0  0  0  0  0  0  0  0  0  0
   39.6940   26.4660   35.1670 C   0  0  0  0  0  2  0  0  0  0  0  0
   38.4640   27.3270   35.2920 C   0  0  0  0  0  2  0  0  0  0  0  0
   33.3560   30.8370   35.5240 C   0  0  0  0  0  0  0  0  0  0  0  0
   34.7110   30.6880   35.2420 C   0  0  0  0  0  0  0  0  0  0  0  0
   35.6000   31.4900   35.9660 C   0  0  0  0  0  0  0  0  0  0  0  0
   35.1090   32.3530   36.8850 N   0  0  0  0  0  0  0  0  0  0  0  0
   33.7770   32.4640   37.1270 C   0  0  0  0  0  0  0  0  0  0  0  0
   32.9060   31.7020   36.4410 N   0  0  0  0  0  0  0  0  0  0  0  0
   32.6600   30.2210   34.9710 H   0  0  0  0  0  0  0  0  0  0  0  0
   36.6690   31.4030   35.7740 H   0  0  0  0  0  0  0  0  0  0  0  0
   33.5880   33.2060   37.8930 H   0  0  0  0  0  0  0  0  0  0  0  0
  1  6  1  0  0  0  0
  1 19  1  0  0  0  0
  2  1  2  0  0  0  0
  3  4  2  0  0  0  0
  3  2  1  0  0  0  0
  4  5  1  0  0  0  0
  5  9  1  0  0  0  0
  5  6  2  0  0  0  0
  7  2  1  0  0  0  0
  8  3  1  0  0  0  0
  9 17  1  0  0  0  0
 10  9  1  0  0  0  0
 10 12  1  0  0  0  0
 11 10  1  0  0  0  0
 12 14  1  0  0  0  0
 13 12  1  0  0  0  0
 14 15  1  0  0  0  0
 16 14  1  0  0  0  0
 16 17  1  0  0  0  0
 18 23  1  0  0  0  0
 19 18  2  0  0  0  0
 19 20  1  0  0  0  0
 20 21  2  0  0  0  0
 21 22  1  0  0  0  0
 22 26  1  0  0  0  0
 23 22  2  0  0  0  0
 24 18  1  0  0  0  0
 25 20  1  0  0  0  0
M  END
>  <minimizedAffinity>
-4.66935968

$$$$

 OpenBabel03272502123D

 26 28  0  0  0  0  0  0  0  0999 V2000
   39.5080   26.7050   33.4660 C   0  0  0  0  0  0  0  0  0  0  0  0
   38.2140   27.1330   33.2650 C   0  0  0  0  0  0  0  0  0  0  0  0
   37.1170   26.6730   33.9970 C   0  0  0  0  0  0  0  0  0  0  0  0
   37.3700   25.7450   34.9640 N   0  0  0  0  0  0  0  0  0  0  0  0
   38.6310   25.3250   35.1610 C   0  0  0  0  0  0  0  0  0  0  0  0
   39.6660   25.7920   34.4350 N   0  0  0  0  0  0  0  0  0  0  0  0
   37.9990   27.8720   32.4980 H   0  0  0  0  0  0  0  0  0  0  0  0
   36.1160   27.0280   33.8150 H   0  0  0  0  0  0  0  0  0  0  0  0
   38.9140   24.3480   36.1750 N   0  0  0  0  0  0  0  0  0  0  0  0
   38.1300   24.2380   37.3660 C   0  0  0  0  0  3  0  0  0  0  0  0
   37.1600   23.7210   37.2090 H   0  0  0  0  0  0  0  0  0  0  0  0
   38.8810   23.6650   38.5330 C   0  0  0  0  0  3  0  0  0  0  0  0
   38.1270   23.3840   39.3080 H   0  0  0  0  0  0  0  0  0  0  0  0
   39.6380   22.4900   38.2170 N   0  0  0  0  0  0  0  0  0  0  0  0
   40.5890   22.4980   38.6800 H   0  0  0  0  0  0  0  0  0  0  0  0
   39.7380   22.2100   36.8110 C   0  0  0  0  0  2  0  0  0  0  0  0
   40.0380   23.4360   35.9880 C   0  0  0  0  0  2  0  0  0  0  0  0
   41.9030   27.4160   33.1870 C   0  0  0  0  0  0  0  0  0  0  0  0
   40.6200   27.2010   32.6910 C   0  0  0  0  0  0  0  0  0  0  0  0
   40.4070   27.4920   31.3400 C   0  0  0  0  0  0  0  0  0  0  0  0
   41.4360   27.9580   30.5960 N   0  0  0  0  0  0  0  0  0  0  0  0
   42.6730   28.1520   31.1230 C   0  0  0  0  0  0  0  0  0  0  0  0
   42.8990   27.8780   32.4210 N   0  0  0  0  0  0  0  0  0  0  0  0
   42.0800   27.1940   34.2300 H   0  0  0  0  0  0  0  0  0  0  0  0
   39.4160   27.3380   30.9140 H   0  0  0  0  0  0  0  0  0  0  0  0
   43.3550   28.5280   30.3700 H   0  0  0  0  0  0  0  0  0  0  0  0
  1  6  1  0  0  0  0
  2  1  2  0  0  0  0
  2  3  1  0  0  0  0
  3  4  2  0  0  0  0
  4  5  1  0  0  0  0
  5  9  1  0  0  0  0
  6  5  2  0  0  0  0
  7  2  1  0  0  0  0
  8  3  1  0  0  0  0
  9 10  1  0  0  0  0
 10 12  1  0  0  0  0
 11 10  1  0  0  0  0
 12 13  1  0  0  0  0
 14 12  1  0  0  0  0
 14 15  1  0  0  0  0
 16 14  1  0  0  0  0
 17  9  1  0  0  0  0
 17 16  1  0  0  0  0
 18 24  1  0  0  0  0
 19 18  1  0  0  0  0
 19  1  1  0  0  0  0
 20 19  2  0  0  0  0
 21 22  2  0  0  0  0
 21 20  1  0  0  0  0
 22 23  1  0  0  0  0
 23 18  2  0  0  0  0
 25 20  1  0  0  0  0
 26 22  1  0  0  0  0
M  END
>  <minimizedAffinity>
-4.60964489

$$$$

 OpenBabel03272502123D

 26 28  0  0  0  0  0  0  0  0999 V2000
   38.0740   23.4200   34.2350 C   0  0  0  0  0  0  0  0  0  0  0  0
   37.5230   22.4410   33.4360 C   0  0  0  0  0  0  0  0  0  0  0  0
   36.7780   22.7020   32.2830 C   0  0  0  0  0  0  0  0  0  0  0  0
   36.6020   24.0130   31.9500 N   0  0  0  0  0  0  0  0  0  0  0  0
   37.1390   24.9690   32.7270 C   0  0  0  0  0  0  0  0  0  0  0  0
   37.8520   24.6800   33.8330 N   0  0  0  0  0  0  0  0  0  0  0  0
   37.6550   21.3930   33.6910 H   0  0  0  0  0  0  0  0  0  0  0  0
   36.3600   21.9130   31.6800 H   0  0  0  0  0  0  0  0  0  0  0  0
   36.9620   26.3530   32.3900 N   0  0  0  0  0  0  0  0  0  0  0  0
   36.8160   26.7940   31.0370 C   0  0  0  0  0  3  0  0  0  0  0  0
   35.8030   26.6160   30.6220 H   0  0  0  0  0  0  0  0  0  0  0  0
   37.2660   28.2090   30.8110 C   0  0  0  0  0  3  0  0  0  0  0  0
   36.8730   28.5280   29.8150 H   0  0  0  0  0  0  0  0  0  0  0  0
   36.7790   29.1380   31.7880 N   0  0  0  0  0  0  0  0  0  0  0  0
   37.5230   29.8310   32.0790 H   0  0  0  0  0  0  0  0  0  0  0  0
   36.1550   28.5240   32.9280 C   0  0  0  0  0  2  0  0  0  0  0  0
   36.9290   27.3460   33.4590 C   0  0  0  0  0  2  0  0  0  0  0  0
   38.4660   23.4590   36.7170 C   0  0  0  0  0  0  0  0  0  0  0  0
   38.8380   23.1160   35.4200 C   0  0  0  0  0  0  0  0  0  0  0  0
   40.0460   22.4270   35.2690 C   0  0  0  0  0  0  0  0  0  0  0  0
   40.7780   22.1320   36.3690 N   0  0  0  0  0  0  0  0  0  0  0  0
   40.3740   22.4870   37.6170 C   0  0  0  0  0  0  0  0  0  0  0  0
   39.2160   23.1510   37.7830 N   0  0  0  0  0  0  0  0  0  0  0  0
   37.5340   23.9910   36.8460 H   0  0  0  0  0  0  0  0  0  0  0  0
   40.3730   22.1420   34.2700 H   0  0  0  0  0  0  0  0  0  0  0  0
   41.0940   22.1620   38.3580 H   0  0  0  0  0  0  0  0  0  0  0  0
  1 19  1  0  0  0  0
  2  7  1  0  0  0  0
  2  1  2  0  0  0  0
  3  2  1  0  0  0  0
  4  3  2  0  0  0  0
  4  5  1  0  0  0  0
  5  6  2  0  0  0  0
  6  1  1  0  0  0  0
  8  3  1  0  0  0  0
  9  5  1  0  0  0  0
  9 17  1  0  0  0  0
 10  9  1  0  0  0  0
 11 10  1  0  0  0  0
 12 10  1  0  0  0  0
 12 14  1  0  0  0  0
 13 12  1  0  0  0  0
 14 15  1  0  0  0  0
 14 16  1  0  0  0  0
 16 17  1  0  0  0  0
 18 24  1  0  0  0  0
 18 23  1  0  0  0  0
 19 18  2  0  0  0  0
 20 19  1  0  0  0  0
 20 21  2  0  0  0  0
 21 22  1  0  0  0  0
 22 23  2  0  0  0  0
 22 26  1  0  0  0  0
 25 20  1  0  0  0  0
M  END
>  <minimizedAffinity>
-4.52786303

$$$$

 OpenBabel03272502123D

 26 28  0  0  0  0  0  0  0  0999 V2000
   36.1530   27.8550   31.7720 C   0  0  0  0  0  0  0  0  0  0  0  0
   36.5700   28.6170   30.7020 C   0  0  0  0  0  0  0  0  0  0  0  0
   36.5720   30.0150   30.6930 C   0  0  0  0  0  0  0  0  0  0  0  0
   36.1300   30.6370   31.8230 N   0  0  0  0  0  0  0  0  0  0  0  0
   35.7220   29.8950   32.8680 C   0  0  0  0  0  0  0  0  0  0  0  0
   35.7350   28.5480   32.8420 N   0  0  0  0  0  0  0  0  0  0  0  0
   36.9250   28.1350   29.7960 H   0  0  0  0  0  0  0  0  0  0  0  0
   36.9050   30.5820   29.8400 H   0  0  0  0  0  0  0  0  0  0  0  0
   35.2540   30.5350   34.0650 N   0  0  0  0  0  0  0  0  0  0  0  0
   35.7390   31.8140   34.4840 C   0  0  0  0  0  3  0  0  0  0  0  0
   35.2960   32.6600   33.9190 H   0  0  0  0  0  0  0  0  0  0  0  0
   35.6560   32.0340   35.9670 C   0  0  0  0  0  3  0  0  0  0  0  0
   35.8050   33.1260   36.1490 H   0  0  0  0  0  0  0  0  0  0  0  0
   34.3950   31.6670   36.5410 N   0  0  0  0  0  0  0  0  0  0  0  0
   34.5140   31.1650   37.4650 H   0  0  0  0  0  0  0  0  0  0  0  0
   33.5310   30.9390   35.6530 C   0  0  0  0  0  2  0  0  0  0  0  0
   34.2500   29.8620   34.8840 C   0  0  0  0  0  2  0  0  0  0  0  0
   37.0510   25.6110   32.4620 C   0  0  0  0  0  0  0  0  0  0  0  0
   36.1640   26.4130   31.7490 C   0  0  0  0  0  0  0  0  0  0  0  0
   35.2170   25.7570   30.9560 C   0  0  0  0  0  0  0  0  0  0  0  0
   35.2090   24.4050   30.9200 N   0  0  0  0  0  0  0  0  0  0  0  0
   36.0960   23.6630   31.6340 C   0  0  0  0  0  0  0  0  0  0  0  0
   37.0150   24.2750   32.4040 N   0  0  0  0  0  0  0  0  0  0  0  0
   37.7870   26.1070   33.0800 H   0  0  0  0  0  0  0  0  0  0  0  0
   34.5050   26.3490   30.3810 H   0  0  0  0  0  0  0  0  0  0  0  0
   35.9280   22.6050   31.4720 H   0  0  0  0  0  0  0  0  0  0  0  0
  1  6  1  0  0  0  0
  2  1  2  0  0  0  0
  3  2  1  0  0  0  0
  3  4  2  0  0  0  0
  4  5  1  0  0  0  0
  5  9  1  0  0  0  0
  6  5  2  0  0  0  0
  7  2  1  0  0  0  0
  8  3  1  0  0  0  0
  9 10  1  0  0  0  0
  9 17  1  0  0  0  0
 10 12  1  0  0  0  0
 11 10  1  0  0  0  0
 12 13  1  0  0  0  0
 12 14  1  0  0  0  0
 14 15  1  0  0  0  0
 16 14  1  0  0  0  0
 17 16  1  0  0  0  0
 18 24  1  0  0  0  0
 19  1  1  0  0  0  0
 19 18  2  0  0  0  0
 20 19  1  0  0  0  0
 21 20  2  0  0  0  0
 21 22  1  0  0  0  0
 22 23  2  0  0  0  0
 23 18  1  0  0  0  0
 25 20  1  0  0  0  0
 26 22  1  0  0  0  0
M  END
>  <minimizedAffinity>
-4.52591228

$$$$

 OpenBabel03272502123D

 26 28  0  0  0  0  0  0  0  0999 V2000
   36.3490   26.0490   31.6280 C   0  0  0  0  0  0  0  0  0  0  0  0
   35.6390   25.0750   30.9600 C   0  0  0  0  0  0  0  0  0  0  0  0
   35.7590   23.7070   31.2190 C   0  0  0  0  0  0  0  0  0  0  0  0
   36.6370   23.3410   32.1960 N   0  0  0  0  0  0  0  0  0  0  0  0
   37.3300   24.2900   32.8490 C   0  0  0  0  0  0  0  0  0  0  0  0
   37.1890   25.6010   32.5730 N   0  0  0  0  0  0  0  0  0  0  0  0
   34.9370   25.3530   30.1790 H   0  0  0  0  0  0  0  0  0  0  0  0
   35.1890   22.9690   30.6770 H   0  0  0  0  0  0  0  0  0  0  0  0
   38.2580   23.9210   33.8800 N   0  0  0  0  0  0  0  0  0  0  0  0
   38.0760   22.7530   34.6860 C   0  0  0  0  0  3  0  0  0  0  0  0
   38.3560   21.8120   34.1680 H   0  0  0  0  0  0  0  0  0  0  0  0
   38.7150   22.8500   36.0410 C   0  0  0  0  0  3  0  0  0  0  0  0
   38.7400   21.8180   36.4710 H   0  0  0  0  0  0  0  0  0  0  0  0
   40.0600   23.3440   36.0180 N   0  0  0  0  0  0  0  0  0  0  0  0
   40.2420   24.0260   36.8050 H   0  0  0  0  0  0  0  0  0  0  0  0
   40.4710   23.8790   34.7490 C   0  0  0  0  0  2  0  0  0  0  0  0
   39.4270   24.7620   34.1170 C   0  0  0  0  0  2  0  0  0  0  0  0
   36.7870   28.1100   30.2580 C   0  0  0  0  0  0  0  0  0  0  0  0
   36.2020   27.4550   31.3370 C   0  0  0  0  0  0  0  0  0  0  0  0
   35.4150   28.2290   32.1960 C   0  0  0  0  0  0  0  0  0  0  0  0
   35.2640   29.5490   31.9420 N   0  0  0  0  0  0  0  0  0  0  0  0
   35.8550   30.1460   30.8730 C   0  0  0  0  0  0  0  0  0  0  0  0
   36.6160   29.4190   30.0360 N   0  0  0  0  0  0  0  0  0  0  0  0
   37.3960   27.5220   29.5860 H   0  0  0  0  0  0  0  0  0  0  0  0
   34.9400   27.7530   33.0540 H   0  0  0  0  0  0  0  0  0  0  0  0
   35.6140   31.2020   30.8440 H   0  0  0  0  0  0  0  0  0  0  0  0
  1  6  1  0  0  0  0
  2  3  1  0  0  0  0
  2  1  2  0  0  0  0
  3  4  2  0  0  0  0
  4  5  1  0  0  0  0
  5  9  1  0  0  0  0
  6  5  2  0  0  0  0
  7  2  1  0  0  0  0
  8  3  1  0  0  0  0
  9 17  1  0  0  0  0
  9 10  1  0  0  0  0
 10 12  1  0  0  0  0
 11 10  1  0  0  0  0
 12 13  1  0  0  0  0
 14 12  1  0  0  0  0
 14 15  1  0  0  0  0
 16 14  1  0  0  0  0
 17 16  1  0  0  0  0
 18 19  1  0  0  0  0
 19  1  1  0  0  0  0
 19 20  2  0  0  0  0
 20 25  1  0  0  0  0
 21 20  1  0  0  0  0
 22 21  2  0  0  0  0
 23 18  2  0  0  0  0
 23 22  1  0  0  0  0
 24 18  1  0  0  0  0
 26 22  1  0  0  0  0
M  END
>  <minimizedAffinity>
-4.48752308

$$$$
