
 OpenBabel03272500163D

 31 33  0  0  0  0  0  0  0  0999 V2000
   38.3560   26.9760   34.9200 Cl  0  0  0  0  0  0  0  0  0  0  0  0
   37.8970   25.5620   33.9930 C   0  0  0  0  0  0  0  0  0  0  0  0
   37.3160   25.7050   32.7340 C   0  0  0  0  0  0  0  0  0  0  0  0
   36.9420   24.6040   31.9760 C   0  0  0  0  0  0  0  0  0  0  0  0
   37.1660   23.3450   32.5130 C   0  0  0  0  0  0  0  0  0  0  0  0
   37.7360   23.1710   33.7490 C   0  0  0  0  0  0  0  0  0  0  0  0
   37.9960   21.5600   34.3810 Cl  0  0  0  0  0  0  0  0  0  0  0  0
   38.1000   24.2840   34.4840 C   0  0  0  0  0  0  0  0  0  0  0  0
   36.4960   24.7200   31.0080 H   0  0  0  0  0  0  0  0  0  0  0  0
   36.8830   22.4620   31.9430 H   0  0  0  0  0  0  0  0  0  0  0  0
   38.7000   24.1390   35.7870 N   0  0  0  0  0  0  0  0  0  0  0  0
   37.8920   24.3810   36.9430 C   0  0  0  0  0  3  0  0  0  0  0  0
   36.8200   24.5110   36.6660 H   0  0  0  0  0  0  0  0  0  0  0  0
   37.9280   23.2880   37.9770 C   0  0  0  0  0  3  0  0  0  0  0  0
   37.2460   22.4370   37.7210 H   0  0  0  0  0  0  0  0  0  0  0  0
   39.2510   22.8520   38.3000 N   0  0  0  0  0  0  0  0  0  0  0  0
   39.1670   21.9140   38.7770 H   0  0  0  0  0  0  0  0  0  0  0  0
   40.1070   22.6610   37.1740 C   0  0  0  0  0  2  0  0  0  0  0  0
   40.0460   23.7750   36.1610 C   0  0  0  0  0  2  0  0  0  0  0  0
   35.7870   28.9910   32.0820 C   0  0  0  0  0  0  0  0  0  0  0  0
   36.6880   29.5260   31.1170 C   0  0  0  0  0  0  0  0  0  0  0  0
   37.7840   28.7540   30.7210 C   0  0  0  0  0  0  0  0  0  0  0  0
   37.9380   27.5230   31.2770 N   0  0  0  0  0  0  0  0  0  0  0  0
   37.0870   27.0310   32.1800 C   0  0  0  0  0  0  0  0  0  0  0  0
   36.0280   27.7540   32.5760 N   0  0  0  0  0  0  0  0  0  0  0  0
   34.9220   29.5270   32.4370 H   0  0  0  0  0  0  0  0  0  0  0  0
   38.4520   29.1630   29.9990 H   0  0  0  0  0  0  0  0  0  0  0  0
   36.4040   30.8960   30.5830 C   0  0  0  0  0  0  0  0  0  0  0  0
   36.7270   30.9510   29.2150 F   0  0  0  0  0  0  0  0  0  0  0  0
   35.0670   31.1270   30.6960 F   0  0  0  0  0  0  0  0  0  0  0  0
   37.1150   31.8810   31.2390 F   0  0  0  0  0  0  0  0  0  0  0  0
  2  8  1  0  0  0  0
  2  1  1  0  0  0  0
  3  2  2  0  0  0  0
  4  5  2  0  0  0  0
  4  3  1  0  0  0  0
  5  6  1  0  0  0  0
  6  7  1  0  0  0  0
  6  8  2  0  0  0  0
  8 11  1  0  0  0  0
  9  4  1  0  0  0  0
 10  5  1  0  0  0  0
 11 19  1  0  0  0  0
 11 12  1  0  0  0  0
 12 14  1  0  0  0  0
 13 12  1  0  0  0  0
 14 16  1  0  0  0  0
 15 14  1  0  0  0  0
 16 17  1  0  0  0  0
 18 16  1  0  0  0  0
 19 18  1  0  0  0  0
 20 26  1  0  0  0  0
 20 25  1  0  0  0  0
 21 20  2  0  0  0  0
 22 21  1  0  0  0  0
 22 23  2  0  0  0  0
 23 24  1  0  0  0  0
 24 25  2  0  0  0  0
 24  3  1  0  0  0  0
 27 22  1  0  0  0  0
 28 30  1  0  0  0  0
 28 21  1  0  0  0  0
 28 31  1  0  0  0  0
 29 28  1  0  0  0  0
M  END
>  <minimizedAffinity>
-5.55649853

$$$$

 OpenBabel03272500163D

 31 33  0  0  0  0  0  0  0  0999 V2000
   38.3650   26.9840   34.8070 Cl  0  0  0  0  0  0  0  0  0  0  0  0
   37.8820   25.5690   33.8940 C   0  0  0  0  0  0  0  0  0  0  0  0
   37.2840   25.7110   32.6420 C   0  0  0  0  0  0  0  0  0  0  0  0
   36.8900   24.6100   31.8950 C   0  0  0  0  0  0  0  0  0  0  0  0
   37.1110   23.3510   32.4360 C   0  0  0  0  0  0  0  0  0  0  0  0
   37.6960   23.1790   33.6640 C   0  0  0  0  0  0  0  0  0  0  0  0
   37.9520   21.5680   34.3010 Cl  0  0  0  0  0  0  0  0  0  0  0  0
   38.0800   24.2920   34.3890 C   0  0  0  0  0  0  0  0  0  0  0  0
   36.4310   24.7250   30.9330 H   0  0  0  0  0  0  0  0  0  0  0  0
   36.8120   22.4690   31.8740 H   0  0  0  0  0  0  0  0  0  0  0  0
   38.6970   24.1480   35.6830 N   0  0  0  0  0  0  0  0  0  0  0  0
   37.8960   24.3610   36.8500 C   0  0  0  0  0  3  0  0  0  0  0  0
   36.8180   24.4700   36.5860 H   0  0  0  0  0  0  0  0  0  0  0  0
   37.9680   23.2600   37.8730 C   0  0  0  0  0  3  0  0  0  0  0  0
   37.3030   22.3960   37.6160 H   0  0  0  0  0  0  0  0  0  0  0  0
   39.3030   22.8500   38.1780 N   0  0  0  0  0  0  0  0  0  0  0  0
   39.2460   21.9060   38.6460 H   0  0  0  0  0  0  0  0  0  0  0  0
   40.1510   22.6890   37.0410 C   0  0  0  0  0  2  0  0  0  0  0  0
   40.0550   23.8110   36.0400 C   0  0  0  0  0  2  0  0  0  0  0  0
   37.7660   28.7990   30.6950 C   0  0  0  0  0  0  0  0  0  0  0  0
   36.5990   29.5350   31.0550 C   0  0  0  0  0  0  0  0  0  0  0  0
   35.6890   28.9570   31.9440 C   0  0  0  0  0  0  0  0  0  0  0  0
   35.9610   27.7160   32.4280 N   0  0  0  0  0  0  0  0  0  0  0  0
   37.0580   27.0370   32.0850 C   0  0  0  0  0  0  0  0  0  0  0  0
   37.9460   27.5700   31.2320 N   0  0  0  0  0  0  0  0  0  0  0  0
   38.5110   29.1780   30.0150 H   0  0  0  0  0  0  0  0  0  0  0  0
   34.8190   29.5150   32.2060 H   0  0  0  0  0  0  0  0  0  0  0  0
   36.4180   30.8920   30.4490 C   0  0  0  0  0  0  0  0  0  0  0  0
   35.0810   31.3050   30.5970 F   0  0  0  0  0  0  0  0  0  0  0  0
   37.1950   31.7730   31.1380 F   0  0  0  0  0  0  0  0  0  0  0  0
   36.7380   30.9230   29.1070 F   0  0  0  0  0  0  0  0  0  0  0  0
  2  8  1  0  0  0  0
  2  1  1  0  0  0  0
  3  2  2  0  0  0  0
  4  5  2  0  0  0  0
  4  3  1  0  0  0  0
  5  6  1  0  0  0  0
  6  7  1  0  0  0  0
  6  8  2  0  0  0  0
  8 11  1  0  0  0  0
  9  4  1  0  0  0  0
 10  5  1  0  0  0  0
 11 19  1  0  0  0  0
 11 12  1  0  0  0  0
 12 14  1  0  0  0  0
 13 12  1  0  0  0  0
 14 16  1  0  0  0  0
 15 14  1  0  0  0  0
 16 17  1  0  0  0  0
 18 16  1  0  0  0  0
 19 18  1  0  0  0  0
 20 21  2  0  0  0  0
 20 25  1  0  0  0  0
 21 22  1  0  0  0  0
 22 27  1  0  0  0  0
 22 23  2  0  0  0  0
 24 23  1  0  0  0  0
 24  3  1  0  0  0  0
 25 24  2  0  0  0  0
 26 20  1  0  0  0  0
 28 29  1  0  0  0  0
 28 21  1  0  0  0  0
 28 30  1  0  0  0  0
 31 28  1  0  0  0  0
M  END
>  <minimizedAffinity>
-5.48761225

$$$$

 OpenBabel03272500163D

 31 33  0  0  0  0  0  0  0  0999 V2000
   36.8300   27.5260   34.8680 Cl  0  0  0  0  0  0  0  0  0  0  0  0
   36.7870   28.2260   33.2630 C   0  0  0  0  0  0  0  0  0  0  0  0
   35.9750   29.3290   32.9990 C   0  0  0  0  0  0  0  0  0  0  0  0
   35.9190   29.9060   31.7380 C   0  0  0  0  0  0  0  0  0  0  0  0
   36.7030   29.3480   30.7390 C   0  0  0  0  0  0  0  0  0  0  0  0
   37.5120   28.2640   30.9670 C   0  0  0  0  0  0  0  0  0  0  0  0
   38.4810   27.5980   29.6700 Cl  0  0  0  0  0  0  0  0  0  0  0  0
   37.5490   27.7070   32.2320 C   0  0  0  0  0  0  0  0  0  0  0  0
   35.2930   30.7530   31.5410 H   0  0  0  0  0  0  0  0  0  0  0  0
   36.6800   29.7780   29.7390 H   0  0  0  0  0  0  0  0  0  0  0  0
   38.3870   26.5670   32.5070 N   0  0  0  0  0  0  0  0  0  0  0  0
   39.7310   26.7960   32.9450 C   0  0  0  0  0  3  0  0  0  0  0  0
   39.9060   27.8750   33.1640 H   0  0  0  0  0  0  0  0  0  0  0  0
   40.1250   26.0460   34.1890 C   0  0  0  0  0  3  0  0  0  0  0  0
   39.7710   26.5540   35.1220 H   0  0  0  0  0  0  0  0  0  0  0  0
   39.7760   24.6600   34.1550 N   0  0  0  0  0  0  0  0  0  0  0  0
   39.8050   24.3020   35.1470 H   0  0  0  0  0  0  0  0  0  0  0  0
   38.4630   24.3890   33.6630 C   0  0  0  0  0  2  0  0  0  0  0  0
   38.1040   25.1550   32.4160 C   0  0  0  0  0  2  0  0  0  0  0  0
   33.1000   30.0250   35.1920 C   0  0  0  0  0  0  0  0  0  0  0  0
   33.6500   31.0130   36.0590 C   0  0  0  0  0  0  0  0  0  0  0  0
   34.9770   31.4080   35.8710 C   0  0  0  0  0  0  0  0  0  0  0  0
   35.6840   30.8300   34.8630 N   0  0  0  0  0  0  0  0  0  0  0  0
   35.1570   29.9060   34.0560 C   0  0  0  0  0  0  0  0  0  0  0  0
   33.8860   29.5100   34.2180 N   0  0  0  0  0  0  0  0  0  0  0  0
   32.0860   29.6700   35.2770 H   0  0  0  0  0  0  0  0  0  0  0  0
   35.3790   32.1480   36.5250 H   0  0  0  0  0  0  0  0  0  0  0  0
   32.7640   31.5700   37.1310 C   0  0  0  0  0  0  0  0  0  0  0  0
   31.5140   31.9140   36.5840 F   0  0  0  0  0  0  0  0  0  0  0  0
   32.5490   30.5930   38.0550 F   0  0  0  0  0  0  0  0  0  0  0  0
   33.2990   32.6890   37.7360 F   0  0  0  0  0  0  0  0  0  0  0  0
  2  1  1  0  0  0  0
  3  2  1  0  0  0  0
  3 24  1  0  0  0  0
  4  3  2  0  0  0  0
  5  6  2  0  0  0  0
  5  4  1  0  0  0  0
  6  8  1  0  0  0  0
  7  6  1  0  0  0  0
  8 11  1  0  0  0  0
  8  2  2  0  0  0  0
  9  4  1  0  0  0  0
 10  5  1  0  0  0  0
 11 12  1  0  0  0  0
 12 13  1  0  0  0  0
 12 14  1  0  0  0  0
 14 15  1  0  0  0  0
 16 14  1  0  0  0  0
 16 17  1  0  0  0  0
 18 16  1  0  0  0  0
 19 11  1  0  0  0  0
 19 18  1  0  0  0  0
 20 26  1  0  0  0  0
 20 21  1  0  0  0  0
 21 28  1  0  0  0  0
 22 21  2  0  0  0  0
 22 27  1  0  0  0  0
 23 22  1  0  0  0  0
 24 25  1  0  0  0  0
 24 23  2  0  0  0  0
 25 20  2  0  0  0  0
 28 31  1  0  0  0  0
 28 30  1  0  0  0  0
 29 28  1  0  0  0  0
M  END
>  <minimizedAffinity>
-5.35378361

$$$$

 OpenBabel03272500163D

 31 33  0  0  0  0  0  0  0  0999 V2000
   38.1110   25.5160   32.1810 Cl  0  0  0  0  0  0  0  0  0  0  0  0
   39.6350   26.3600   32.3730 C   0  0  0  0  0  0  0  0  0  0  0  0
   40.2780   26.3760   33.6100 C   0  0  0  0  0  0  0  0  0  0  0  0
   41.4850   27.0360   33.7930 C   0  0  0  0  0  0  0  0  0  0  0  0
   42.0380   27.6840   32.6980 C   0  0  0  0  0  0  0  0  0  0  0  0
   41.4300   27.6860   31.4690 C   0  0  0  0  0  0  0  0  0  0  0  0
   42.1700   28.5210   30.1200 Cl  0  0  0  0  0  0  0  0  0  0  0  0
   40.2280   27.0220   31.3130 C   0  0  0  0  0  0  0  0  0  0  0  0
   41.9760   27.0450   34.7460 H   0  0  0  0  0  0  0  0  0  0  0  0
   42.9840   28.2110   32.8110 H   0  0  0  0  0  0  0  0  0  0  0  0
   39.5600   27.0040   30.0350 N   0  0  0  0  0  0  0  0  0  0  0  0
   38.5650   27.9980   29.7700 C   0  0  0  0  0  3  0  0  0  0  0  0
   38.5470   28.7750   30.5690 H   0  0  0  0  0  0  0  0  0  0  0  0
   38.7430   28.7370   28.4710 C   0  0  0  0  0  3  0  0  0  0  0  0
   39.4960   29.5620   28.5500 H   0  0  0  0  0  0  0  0  0  0  0  0
   38.9870   27.8780   27.3540 N   0  0  0  0  0  0  0  0  0  0  0  0
   39.3920   28.4710   26.5810 H   0  0  0  0  0  0  0  0  0  0  0  0
   39.9290   26.8330   27.6020 C   0  0  0  0  0  2  0  0  0  0  0  0
   39.7190   26.1150   28.9090 C   0  0  0  0  0  2  0  0  0  0  0  0
   39.5340   23.7730   36.1060 C   0  0  0  0  0  0  0  0  0  0  0  0
   38.5580   24.4340   36.9080 C   0  0  0  0  0  0  0  0  0  0  0  0
   38.1860   25.7390   36.5740 C   0  0  0  0  0  0  0  0  0  0  0  0
   38.7760   26.3200   35.4950 N   0  0  0  0  0  0  0  0  0  0  0  0
   39.6880   25.6910   34.7510 C   0  0  0  0  0  0  0  0  0  0  0  0
   40.0620   24.4380   35.0520 N   0  0  0  0  0  0  0  0  0  0  0  0
   39.8710   22.7690   36.3030 H   0  0  0  0  0  0  0  0  0  0  0  0
   37.4560   26.2240   37.1790 H   0  0  0  0  0  0  0  0  0  0  0  0
   37.9870   23.6810   38.0700 C   0  0  0  0  0  0  0  0  0  0  0  0
   37.0180   22.7670   37.6170 F   0  0  0  0  0  0  0  0  0  0  0  0
   38.9900   22.9610   38.6440 F   0  0  0  0  0  0  0  0  0  0  0  0
   37.4000   24.5110   39.0050 F   0  0  0  0  0  0  0  0  0  0  0  0
  1  2  1  0  0  0  0
  2  3  1  0  0  0  0
  3  4  2  0  0  0  0
  3 24  1  0  0  0  0
  4  9  1  0  0  0  0
  5 10  1  0  0  0  0
  5  4  1  0  0  0  0
  6  5  2  0  0  0  0
  7  6  1  0  0  0  0
  8  6  1  0  0  0  0
  8  2  2  0  0  0  0
 11  8  1  0  0  0  0
 12 11  1  0  0  0  0
 12 13  1  0  0  0  0
 14 15  1  0  0  0  0
 14 12  1  0  0  0  0
 16 18  1  0  0  0  0
 16 14  1  0  0  0  0
 17 16  1  0  0  0  0
 18 19  1  0  0  0  0
 19 11  1  0  0  0  0
 20 26  1  0  0  0  0
 20 21  1  0  0  0  0
 21 28  1  0  0  0  0
 22 21  2  0  0  0  0
 22 27  1  0  0  0  0
 23 22  1  0  0  0  0
 24 25  1  0  0  0  0
 24 23  2  0  0  0  0
 25 20  2  0  0  0  0
 28 30  1  0  0  0  0
 28 31  1  0  0  0  0
 29 28  1  0  0  0  0
M  END
>  <minimizedAffinity>
-5.34866047

$$$$

 OpenBabel03272500163D

 31 33  0  0  0  0  0  0  0  0999 V2000
   39.0550   26.1490   33.8770 Cl  0  0  0  0  0  0  0  0  0  0  0  0
   37.9240   25.0620   33.0970 C   0  0  0  0  0  0  0  0  0  0  0  0
   37.9950   23.6890   33.3280 C   0  0  0  0  0  0  0  0  0  0  0  0
   37.1140   22.8030   32.7250 C   0  0  0  0  0  0  0  0  0  0  0  0
   36.1500   23.3290   31.8780 C   0  0  0  0  0  0  0  0  0  0  0  0
   36.0530   24.6750   31.6300 C   0  0  0  0  0  0  0  0  0  0  0  0
   34.8190   25.2870   30.5510 Cl  0  0  0  0  0  0  0  0  0  0  0  0
   36.9440   25.5370   32.2430 C   0  0  0  0  0  0  0  0  0  0  0  0
   37.1730   21.7480   32.9070 H   0  0  0  0  0  0  0  0  0  0  0  0
   35.4450   22.6590   31.3890 H   0  0  0  0  0  0  0  0  0  0  0  0
   36.8730   26.9570   32.0050 N   0  0  0  0  0  0  0  0  0  0  0  0
   37.6140   27.5040   30.9100 C   0  0  0  0  0  3  0  0  0  0  0  0
   38.0490   26.6990   30.2730 H   0  0  0  0  0  0  0  0  0  0  0  0
   36.8170   28.3850   29.9860 C   0  0  0  0  0  3  0  0  0  0  0  0
   36.2220   27.7950   29.2430 H   0  0  0  0  0  0  0  0  0  0  0  0
   36.0260   29.3600   30.6700 N   0  0  0  0  0  0  0  0  0  0  0  0
   35.2960   29.7070   29.9910 H   0  0  0  0  0  0  0  0  0  0  0  0
   35.3200   28.8640   31.8070 C   0  0  0  0  0  2  0  0  0  0  0  0
   36.1500   27.9880   32.7100 C   0  0  0  0  0  2  0  0  0  0  0  0
   41.1580   22.2360   34.5330 C   0  0  0  0  0  0  0  0  0  0  0  0
   40.8990   22.1400   35.9310 C   0  0  0  0  0  0  0  0  0  0  0  0
   39.6620   22.5720   36.4170 C   0  0  0  0  0  0  0  0  0  0  0  0
   38.7580   23.0640   35.5290 N   0  0  0  0  0  0  0  0  0  0  0  0
   39.0110   23.1490   34.2210 C   0  0  0  0  0  0  0  0  0  0  0  0
   40.1910   22.7420   33.7300 N   0  0  0  0  0  0  0  0  0  0  0  0
   42.0870   21.9250   34.0860 H   0  0  0  0  0  0  0  0  0  0  0  0
   39.4790   22.4960   37.4640 H   0  0  0  0  0  0  0  0  0  0  0  0
   41.9810   21.5790   36.8020 C   0  0  0  0  0  0  0  0  0  0  0  0
   42.5380   20.4390   36.1940 F   0  0  0  0  0  0  0  0  0  0  0  0
   42.9700   22.5100   36.9050 F   0  0  0  0  0  0  0  0  0  0  0  0
   41.5260   21.2260   38.0560 F   0  0  0  0  0  0  0  0  0  0  0  0
  2  3  1  0  0  0  0
  2  1  1  0  0  0  0
  3 24  1  0  0  0  0
  4  9  1  0  0  0  0
  4  3  2  0  0  0  0
  5  4  1  0  0  0  0
  6  5  2  0  0  0  0
  6  8  1  0  0  0  0
  7  6  1  0  0  0  0
  8  2  2  0  0  0  0
 10  5  1  0  0  0  0
 11  8  1  0  0  0  0
 11 19  1  0  0  0  0
 12 11  1  0  0  0  0
 13 12  1  0  0  0  0
 14 16  1  0  0  0  0
 14 12  1  0  0  0  0
 15 14  1  0  0  0  0
 16 18  1  0  0  0  0
 17 16  1  0  0  0  0
 18 19  1  0  0  0  0
 20 21  1  0  0  0  0
 21 22  2  0  0  0  0
 21 28  1  0  0  0  0
 22 27  1  0  0  0  0
 23 22  1  0  0  0  0
 24 23  2  0  0  0  0
 25 24  1  0  0  0  0
 25 20  2  0  0  0  0
 26 20  1  0  0  0  0
 28 30  1  0  0  0  0
 28 31  1  0  0  0  0
 29 28  1  0  0  0  0
M  END
>  <minimizedAffinity>
-5.34588623

$$$$

 OpenBabel03272500163D

 31 33  0  0  0  0  0  0  0  0999 V2000
   40.3080   25.9530   32.5460 Cl  0  0  0  0  0  0  0  0  0  0  0  0
   38.8870   26.9390   32.2660 C   0  0  0  0  0  0  0  0  0  0  0  0
   37.8620   26.9790   33.2110 C   0  0  0  0  0  0  0  0  0  0  0  0
   36.7250   27.7510   33.0180 C   0  0  0  0  0  0  0  0  0  0  0  0
   36.6370   28.4880   31.8460 C   0  0  0  0  0  0  0  0  0  0  0  0
   37.6280   28.4700   30.8980 C   0  0  0  0  0  0  0  0  0  0  0  0
   37.4670   29.4190   29.4360 Cl  0  0  0  0  0  0  0  0  0  0  0  0
   38.7510   27.6930   31.1140 C   0  0  0  0  0  0  0  0  0  0  0  0
   35.9400   27.7780   33.7480 H   0  0  0  0  0  0  0  0  0  0  0  0
   35.7570   29.1020   31.6660 H   0  0  0  0  0  0  0  0  0  0  0  0
   39.8120   27.6490   30.1380 N   0  0  0  0  0  0  0  0  0  0  0  0
   39.7420   26.6710   29.0960 C   0  0  0  0  0  3  0  0  0  0  0  0
   38.7570   26.1490   29.0970 H   0  0  0  0  0  0  0  0  0  0  0  0
   39.9260   27.2170   27.7060 C   0  0  0  0  0  3  0  0  0  0  0  0
   38.9860   27.6680   27.2980 H   0  0  0  0  0  0  0  0  0  0  0  0
   41.0520   28.0900   27.5800 N   0  0  0  0  0  0  0  0  0  0  0  0
   40.9240   28.6450   26.6910 H   0  0  0  0  0  0  0  0  0  0  0  0
   41.1900   29.0390   28.6360 C   0  0  0  0  0  2  0  0  0  0  0  0
   41.0010   28.4570   30.0140 C   0  0  0  0  0  2  0  0  0  0  0  0
   38.2070   26.1290   36.7770 C   0  0  0  0  0  0  0  0  0  0  0  0
   38.1580   24.7050   36.7250 C   0  0  0  0  0  0  0  0  0  0  0  0
   38.0090   24.0830   35.4820 C   0  0  0  0  0  0  0  0  0  0  0  0
   37.9190   24.8690   34.3760 N   0  0  0  0  0  0  0  0  0  0  0  0
   37.9670   26.2020   34.4370 C   0  0  0  0  0  0  0  0  0  0  0  0
   38.1080   26.8220   35.6180 N   0  0  0  0  0  0  0  0  0  0  0  0
   38.3180   26.6780   37.6980 H   0  0  0  0  0  0  0  0  0  0  0  0
   37.9740   23.0190   35.4540 H   0  0  0  0  0  0  0  0  0  0  0  0
   38.2680   23.9570   38.0180 C   0  0  0  0  0  0  0  0  0  0  0  0
   39.5380   23.3620   38.1180 F   0  0  0  0  0  0  0  0  0  0  0  0
   38.1560   24.8530   39.0380 F   0  0  0  0  0  0  0  0  0  0  0  0
   37.3120   22.9690   38.1440 F   0  0  0  0  0  0  0  0  0  0  0  0
  2  1  1  0  0  0  0
  2  3  1  0  0  0  0
  3 24  1  0  0  0  0
  4  3  2  0  0  0  0
  4  9  1  0  0  0  0
  5  4  1  0  0  0  0
  6  8  1  0  0  0  0
  6  5  2  0  0  0  0
  7  6  1  0  0  0  0
  8  2  2  0  0  0  0
 10  5  1  0  0  0  0
 11  8  1  0  0  0  0
 12 13  1  0  0  0  0
 12 11  1  0  0  0  0
 14 12  1  0  0  0  0
 15 14  1  0  0  0  0
 16 14  1  0  0  0  0
 16 18  1  0  0  0  0
 17 16  1  0  0  0  0
 18 19  1  0  0  0  0
 19 11  1  0  0  0  0
 20 26  1  0  0  0  0
 21 20  1  0  0  0  0
 21 28  1  0  0  0  0
 22 21  2  0  0  0  0
 23 24  2  0  0  0  0
 23 22  1  0  0  0  0
 24 25  1  0  0  0  0
 25 20  2  0  0  0  0
 27 22  1  0  0  0  0
 28 29  1  0  0  0  0
 28 31  1  0  0  0  0
 28 30  1  0  0  0  0
M  END
>  <minimizedAffinity>
-5.33828974

$$$$

 OpenBabel03272500163D

 31 33  0  0  0  0  0  0  0  0999 V2000
   36.7080   27.5630   34.5840 Cl  0  0  0  0  0  0  0  0  0  0  0  0
   36.6760   28.3790   33.0340 C   0  0  0  0  0  0  0  0  0  0  0  0
   35.8860   29.5140   32.8530 C   0  0  0  0  0  0  0  0  0  0  0  0
   35.8400   30.1830   31.6380 C   0  0  0  0  0  0  0  0  0  0  0  0
   36.6110   29.6830   30.5980 C   0  0  0  0  0  0  0  0  0  0  0  0
   37.3980   28.5690   30.7440 C   0  0  0  0  0  0  0  0  0  0  0  0
   38.3500   27.9800   29.3990 Cl  0  0  0  0  0  0  0  0  0  0  0  0
   37.4260   27.9210   31.9650 C   0  0  0  0  0  0  0  0  0  0  0  0
   35.2310   31.0550   31.5050 H   0  0  0  0  0  0  0  0  0  0  0  0
   36.5950   30.1850   29.6330 H   0  0  0  0  0  0  0  0  0  0  0  0
   38.2410   26.7470   32.1550 N   0  0  0  0  0  0  0  0  0  0  0  0
   39.5910   26.9160   32.5990 C   0  0  0  0  0  3  0  0  0  0  0  0
   39.7900   27.9730   32.8930 H   0  0  0  0  0  0  0  0  0  0  0  0
   39.9740   26.0720   33.7850 C   0  0  0  0  0  3  0  0  0  0  0  0
   39.6350   26.5200   34.7540 H   0  0  0  0  0  0  0  0  0  0  0  0
   39.5950   24.7000   33.6550 N   0  0  0  0  0  0  0  0  0  0  0  0
   39.6220   24.2710   34.6190 H   0  0  0  0  0  0  0  0  0  0  0  0
   38.2750   24.4910   33.1530 C   0  0  0  0  0  2  0  0  0  0  0  0
   37.9270   25.3510   31.9650 C   0  0  0  0  0  2  0  0  0  0  0  0
   34.8820   31.4270   35.8360 C   0  0  0  0  0  0  0  0  0  0  0  0
   33.5400   30.9780   36.0090 C   0  0  0  0  0  0  0  0  0  0  0  0
   33.0220   30.0440   35.1080 C   0  0  0  0  0  0  0  0  0  0  0  0
   33.8270   29.6030   34.1050 N   0  0  0  0  0  0  0  0  0  0  0  0
   35.0830   30.0300   33.9530 C   0  0  0  0  0  0  0  0  0  0  0  0
   35.6020   30.9270   34.8040 N   0  0  0  0  0  0  0  0  0  0  0  0
   35.3480   32.1460   36.4890 H   0  0  0  0  0  0  0  0  0  0  0  0
   32.0180   29.7150   35.2470 H   0  0  0  0  0  0  0  0  0  0  0  0
   32.7600   31.5440   37.1560 C   0  0  0  0  0  0  0  0  0  0  0  0
   31.5060   31.9930   36.7030 F   0  0  0  0  0  0  0  0  0  0  0  0
   32.5360   30.5440   38.0520 F   0  0  0  0  0  0  0  0  0  0  0  0
   33.4050   32.5990   37.7690 F   0  0  0  0  0  0  0  0  0  0  0  0
  2  1  1  0  0  0  0
  3  2  1  0  0  0  0
  3 24  1  0  0  0  0
  4  3  2  0  0  0  0
  5  6  2  0  0  0  0
  5  4  1  0  0  0  0
  6  8  1  0  0  0  0
  7  6  1  0  0  0  0
  8 11  1  0  0  0  0
  8  2  2  0  0  0  0
  9  4  1  0  0  0  0
 10  5  1  0  0  0  0
 11 12  1  0  0  0  0
 12 13  1  0  0  0  0
 12 14  1  0  0  0  0
 14 15  1  0  0  0  0
 16 14  1  0  0  0  0
 16 17  1  0  0  0  0
 18 16  1  0  0  0  0
 19 11  1  0  0  0  0
 19 18  1  0  0  0  0
 20 21  1  0  0  0  0
 20 26  1  0  0  0  0
 21 28  1  0  0  0  0
 22 27  1  0  0  0  0
 22 21  2  0  0  0  0
 23 22  1  0  0  0  0
 24 23  2  0  0  0  0
 24 25  1  0  0  0  0
 25 20  2  0  0  0  0
 28 31  1  0  0  0  0
 28 30  1  0  0  0  0
 29 28  1  0  0  0  0
M  END
>  <minimizedAffinity>
-5.33552074

$$$$

 OpenBabel03272500163D

 31 33  0  0  0  0  0  0  0  0999 V2000
   35.8410   28.8210   34.4340 Cl  0  0  0  0  0  0  0  0  0  0  0  0
   36.7560   28.5380   32.9660 C   0  0  0  0  0  0  0  0  0  0  0  0
   37.6530   27.4720   32.8920 C   0  0  0  0  0  0  0  0  0  0  0  0
   38.3920   27.2220   31.7440 C   0  0  0  0  0  0  0  0  0  0  0  0
   38.2100   28.0710   30.6630 C   0  0  0  0  0  0  0  0  0  0  0  0
   37.3360   29.1280   30.7040 C   0  0  0  0  0  0  0  0  0  0  0  0
   37.1450   30.1700   29.3110 Cl  0  0  0  0  0  0  0  0  0  0  0  0
   36.6120   29.3560   31.8600 C   0  0  0  0  0  0  0  0  0  0  0  0
   39.0800   26.4010   31.6930 H   0  0  0  0  0  0  0  0  0  0  0  0
   38.7760   27.9010   29.7490 H   0  0  0  0  0  0  0  0  0  0  0  0
   35.6850   30.4570   31.9400 N   0  0  0  0  0  0  0  0  0  0  0  0
   34.3250   30.2360   31.5520 C   0  0  0  0  0  3  0  0  0  0  0  0
   34.1270   29.1530   31.3740 H   0  0  0  0  0  0  0  0  0  0  0  0
   33.3010   30.6880   32.5580 C   0  0  0  0  0  3  0  0  0  0  0  0
   33.1530   29.9420   33.3800 H   0  0  0  0  0  0  0  0  0  0  0  0
   33.5340   32.0090   33.0550 N   0  0  0  0  0  0  0  0  0  0  0  0
   32.9750   32.1160   33.9430 H   0  0  0  0  0  0  0  0  0  0  0  0
   34.8930   32.2880   33.3920 C   0  0  0  0  0  2  0  0  0  0  0  0
   35.8890   31.8220   32.3620 C   0  0  0  0  0  2  0  0  0  0  0  0
   37.8730   24.4090   34.9240 C   0  0  0  0  0  0  0  0  0  0  0  0
   38.1840   24.9520   36.2050 C   0  0  0  0  0  0  0  0  0  0  0  0
   38.3100   26.3380   36.3340 C   0  0  0  0  0  0  0  0  0  0  0  0
   38.1270   27.1070   35.2280 N   0  0  0  0  0  0  0  0  0  0  0  0
   37.8340   26.5870   34.0340 C   0  0  0  0  0  0  0  0  0  0  0  0
   37.7100   25.2600   33.8840 N   0  0  0  0  0  0  0  0  0  0  0  0
   37.7620   23.3520   34.7480 H   0  0  0  0  0  0  0  0  0  0  0  0
   38.5430   26.7340   37.2960 H   0  0  0  0  0  0  0  0  0  0  0  0
   38.3620   23.9940   37.3430 C   0  0  0  0  0  0  0  0  0  0  0  0
   38.2110   24.6740   38.5650 F   0  0  0  0  0  0  0  0  0  0  0  0
   37.3730   23.0610   37.2700 F   0  0  0  0  0  0  0  0  0  0  0  0
   39.5990   23.3810   37.3340 F   0  0  0  0  0  0  0  0  0  0  0  0
  2  1  1  0  0  0  0
  3  2  1  0  0  0  0
  3 24  1  0  0  0  0
  4  3  2  0  0  0  0
  5  6  2  0  0  0  0
  5  4  1  0  0  0  0
  6  8  1  0  0  0  0
  7  6  1  0  0  0  0
  8 11  1  0  0  0  0
  8  2  2  0  0  0  0
  9  4  1  0  0  0  0
 10  5  1  0  0  0  0
 11 19  1  0  0  0  0
 12 11  1  0  0  0  0
 12 14  1  0  0  0  0
 13 12  1  0  0  0  0
 14 16  1  0  0  0  0
 14 15  1  0  0  0  0
 16 18  1  0  0  0  0
 16 17  1  0  0  0  0
 19 18  1  0  0  0  0
 20 21  1  0  0  0  0
 21 22  2  0  0  0  0
 21 28  1  0  0  0  0
 22 27  1  0  0  0  0
 23 22  1  0  0  0  0
 24 23  2  0  0  0  0
 25 24  1  0  0  0  0
 25 20  2  0  0  0  0
 26 20  1  0  0  0  0
 28 29  1  0  0  0  0
 30 28  1  0  0  0  0
 31 28  1  0  0  0  0
M  END
>  <minimizedAffinity>
-5.30328369

$$$$

 OpenBabel03272500163D

 31 33  0  0  0  0  0  0  0  0999 V2000
   36.8030   27.6910   34.3360 Cl  0  0  0  0  0  0  0  0  0  0  0  0
   36.6540   28.5290   32.8040 C   0  0  0  0  0  0  0  0  0  0  0  0
   35.7780   29.6070   32.6750 C   0  0  0  0  0  0  0  0  0  0  0  0
   35.6380   30.2900   31.4760 C   0  0  0  0  0  0  0  0  0  0  0  0
   36.4030   29.8660   30.3990 C   0  0  0  0  0  0  0  0  0  0  0  0
   37.2730   28.8110   30.4940 C   0  0  0  0  0  0  0  0  0  0  0  0
   38.2150   28.3150   29.1040 Cl  0  0  0  0  0  0  0  0  0  0  0  0
   37.3940   28.1460   31.7010 C   0  0  0  0  0  0  0  0  0  0  0  0
   34.9630   31.1180   31.3810 H   0  0  0  0  0  0  0  0  0  0  0  0
   36.3140   30.3820   29.4450 H   0  0  0  0  0  0  0  0  0  0  0  0
   38.2990   27.0310   31.8370 N   0  0  0  0  0  0  0  0  0  0  0  0
   37.8120   25.7170   31.5490 C   0  0  0  0  0  3  0  0  0  0  0  0
   36.7940   25.7530   31.0950 H   0  0  0  0  0  0  0  0  0  0  0  0
   38.6660   24.9230   30.5970 C   0  0  0  0  0  3  0  0  0  0  0  0
   38.4740   25.1910   29.5270 H   0  0  0  0  0  0  0  0  0  0  0  0
   40.0570   24.9450   30.9250 N   0  0  0  0  0  0  0  0  0  0  0  0
   40.5900   24.6380   30.0670 H   0  0  0  0  0  0  0  0  0  0  0  0
   40.5650   26.2310   31.2800 C   0  0  0  0  0  2  0  0  0  0  0  0
   39.6850   26.9960   32.2350 C   0  0  0  0  0  2  0  0  0  0  0  0
   34.7180   31.4430   35.6860 C   0  0  0  0  0  0  0  0  0  0  0  0
   33.4520   30.8390   35.9430 C   0  0  0  0  0  0  0  0  0  0  0  0
   33.0020   29.8310   35.0860 C   0  0  0  0  0  0  0  0  0  0  0  0
   33.7970   29.4710   34.0430 N   0  0  0  0  0  0  0  0  0  0  0  0
   34.9810   30.0430   33.8130 C   0  0  0  0  0  0  0  0  0  0  0  0
   35.4340   31.0130   34.6200 N   0  0  0  0  0  0  0  0  0  0  0  0
   35.1290   32.2260   36.3010 H   0  0  0  0  0  0  0  0  0  0  0  0
   32.0550   29.3860   35.2880 H   0  0  0  0  0  0  0  0  0  0  0  0
   32.6750   31.3290   37.1260 C   0  0  0  0  0  0  0  0  0  0  0  0
   32.4350   30.2640   38.0130 F   0  0  0  0  0  0  0  0  0  0  0  0
   33.4370   32.2450   37.7860 F   0  0  0  0  0  0  0  0  0  0  0  0
   31.4620   31.8850   36.7730 F   0  0  0  0  0  0  0  0  0  0  0  0
  2  1  1  0  0  0  0
  3  2  1  0  0  0  0
  3 24  1  0  0  0  0
  4  3  2  0  0  0  0
  5  6  2  0  0  0  0
  5  4  1  0  0  0  0
  6  8  1  0  0  0  0
  7  6  1  0  0  0  0
  8 11  1  0  0  0  0
  8  2  2  0  0  0  0
  9  4  1  0  0  0  0
 10  5  1  0  0  0  0
 11 19  1  0  0  0  0
 12 11  1  0  0  0  0
 13 12  1  0  0  0  0
 14 16  1  0  0  0  0
 14 12  1  0  0  0  0
 15 14  1  0  0  0  0
 16 18  1  0  0  0  0
 17 16  1  0  0  0  0
 18 19  1  0  0  0  0
 20 21  1  0  0  0  0
 20 26  1  0  0  0  0
 21 28  1  0  0  0  0
 22 27  1  0  0  0  0
 22 21  2  0  0  0  0
 23 22  1  0  0  0  0
 24 23  2  0  0  0  0
 24 25  1  0  0  0  0
 25 20  2  0  0  0  0
 28 30  1  0  0  0  0
 28 29  1  0  0  0  0
 31 28  1  0  0  0  0
M  END
>  <minimizedAffinity>
-5.21120453

$$$$
