
 OpenBabel03272509573D

 46 49  0  0  0  0  0  0  0  0999 V2000
   34.4760   28.6090   48.2300 C   0  0  0  0  0  0  0  0  0  0  0  0
   33.7710   29.4660   48.3830 H   0  0  0  0  0  0  0  0  0  0  0  0
   35.2330   28.9430   47.5030 H   0  0  0  0  0  0  0  0  0  0  0  0
   33.6560   27.4560   47.7400 C   0  0  0  0  0  0  0  0  0  0  0  0
   33.9860   27.1840   46.7170 H   0  0  0  0  0  0  0  0  0  0  0  0
   33.8210   26.5320   48.3500 H   0  0  0  0  0  0  0  0  0  0  0  0
   32.1960   27.7620   47.7190 C   0  0  0  0  0  0  0  0  0  0  0  0
   31.4660   27.5440   48.8900 C   0  0  0  0  0  0  0  0  0  0  0  0
   30.1230   27.7980   48.9560 C   0  0  0  0  0  0  0  0  0  0  0  0
   29.4910   28.2630   47.8900 N   0  0  0  0  0  0  0  0  0  0  0  0
   30.2160   28.4720   46.7540 C   0  0  0  0  0  0  0  0  0  0  0  0
   31.5300   28.2340   46.6540 N   0  0  0  0  0  0  0  0  0  0  0  0
   31.9840   27.1620   49.7630 H   0  0  0  0  0  0  0  0  0  0  0  0
   29.6220   27.6030   49.8990 H   0  0  0  0  0  0  0  0  0  0  0  0
   29.4610   29.0000   45.5670 C   0  0  0  0  0  0  0  0  0  0  0  0
   30.0360   28.7610   44.6460 H   0  0  0  0  0  0  0  0  0  0  0  0
   28.4880   28.4660   45.4790 H   0  0  0  0  0  0  0  0  0  0  0  0
   29.2280   30.4010   45.6000 N   0  0  0  0  0  0  0  0  0  0  0  0
   30.1350   31.0600   44.6920 C   0  0  0  0  0  3  0  0  0  0  0  0
   30.3830   30.3580   43.8680 H   0  0  0  0  0  0  0  0  0  0  0  0
   29.5680   32.3190   44.0740 C   0  0  0  0  0  3  0  0  0  0  0  0
   29.4550   33.1310   44.8190 H   0  0  0  0  0  0  0  0  0  0  0  0
   28.3480   32.0560   43.3380 N   0  0  0  0  0  0  0  0  0  0  0  0
   28.4550   32.1170   42.3100 H   0  0  0  0  0  0  0  0  0  0  0  0
   27.7300   30.8270   43.8000 C   0  0  0  0  0  2  0  0  0  0  0  0
   27.8920   30.8020   45.3050 C   0  0  0  0  0  2  0  0  0  0  0  0
   35.0050   28.3580   49.5280 O   0  0  0  0  0  0  0  0  0  0  0  0
   37.3640   30.1880   51.5570 C   0  0  0  0  0  0  0  0  0  0  0  0
   38.0920   30.8810   50.5520 C   0  0  0  0  0  0  0  0  0  0  0  0
   37.7100   30.6640   49.2340 C   0  0  0  0  0  0  0  0  0  0  0  0
   36.6650   29.7980   49.0330 N   0  0  0  0  0  0  0  0  0  0  0  0
   36.0000   29.1600   49.9930 C   0  0  0  0  0  0  0  0  0  0  0  0
   36.3680   29.3700   51.2780 N   0  0  0  0  0  0  0  0  0  0  0  0
   37.6930   30.3850   52.5700 H   0  0  0  0  0  0  0  0  0  0  0  0
   38.9000   31.5490   50.7250 H   0  0  0  0  0  0  0  0  0  0  0  0
   38.9650   33.2600   49.0330 F   0  0  0  0  0  0  0  0  0  0  0  0
   38.9080   32.4740   47.9620 C   0  0  0  0  0  0  0  0  0  0  0  0
   38.3220   31.2730   48.0720 C   0  0  0  0  0  0  0  0  0  0  0  0
   38.3170   30.5300   46.8890 C   0  0  0  0  0  0  0  0  0  0  0  0
   38.8650   30.9960   45.7210 C   0  0  0  0  0  0  0  0  0  0  0  0
   39.4570   32.2380   45.6570 C   0  0  0  0  0  0  0  0  0  0  0  0
   39.4650   32.9680   46.8060 C   0  0  0  0  0  0  0  0  0  0  0  0
   37.8640   29.5320   46.8650 H   0  0  0  0  0  0  0  0  0  0  0  0
   38.8340   30.3760   44.8290 H   0  0  0  0  0  0  0  0  0  0  0  0
   39.8890   32.6100   44.7370 H   0  0  0  0  0  0  0  0  0  0  0  0
   39.9290   33.9510   46.7710 H   0  0  0  0  0  0  0  0  0  0  0  0
  1  2  1  0  0  0  0
  1 27  1  0  0  0  0
  3  1  1  0  0  0  0
  4  1  1  0  0  0  0
  4  6  1  0  0  0  0
  5  4  1  0  0  0  0
  7  4  1  0  0  0  0
  7  8  1  0  0  0  0
  8  9  2  0  0  0  0
  8 13  1  0  0  0  0
  9 14  1  0  0  0  0
 10  9  1  0  0  0  0
 11 10  2  0  0  0  0
 12 11  1  0  0  0  0
 12  7  2  0  0  0  0
 15 18  1  0  0  0  0
 15 11  1  0  0  0  0
 16 15  1  0  0  0  0
 17 15  1  0  0  0  0
 19 18  1  0  0  0  0
 20 19  1  0  0  0  0
 21 19  1  0  0  0  0
 21 22  1  0  0  0  0
 23 25  1  0  0  0  0
 23 21  1  0  0  0  0
 24 23  1  0  0  0  0
 25 26  1  0  0  0  0
 26 18  1  0  0  0  0
 27 32  1  0  0  0  0
 28 34  1  0  0  0  0
 29 35  1  0  0  0  0
 29 28  2  0  0  0  0
 30 29  1  0  0  0  0
 31 30  2  0  0  0  0
 31 32  1  0  0  0  0
 32 33  2  0  0  0  0
 33 28  1  0  0  0  0
 37 38  1  0  0  0  0
 37 36  1  0  0  0  0
 38 30  1  0  0  0  0
 39 38  2  0  0  0  0
 40 39  1  0  0  0  0
 41 40  2  0  0  0  0
 41 42  1  0  0  0  0
 42 37  2  0  0  0  0
 43 39  1  0  0  0  0
 44 40  1  0  0  0  0
 45 41  1  0  0  0  0
 46 42  1  0  0  0  0
M  END
>  <minimizedAffinity>
-6.34992409

>  <minimizedRMSD>
0.591620803

$$$$
