
 OpenBabel03272500103D

 21 22  0  0  0  0  0  0  0  0999 V2000
   35.3890   29.2230   50.4030 C   0  0  0  0  0  0  0  0  0  0  0  0
   36.1740   30.1940   49.7470 C   0  0  0  0  0  0  0  0  0  0  0  0
   35.8370   30.5620   48.4370 C   0  0  0  0  0  0  0  0  0  0  0  0
   34.7530   29.9480   47.8700 N   0  0  0  0  0  0  0  0  0  0  0  0
   34.0300   29.0320   48.5200 C   0  0  0  0  0  0  0  0  0  0  0  0
   34.3230   28.6600   49.7630 N   0  0  0  0  0  0  0  0  0  0  0  0
   35.6840   28.9660   51.4170 H   0  0  0  0  0  0  0  0  0  0  0  0
   36.4400   31.2960   47.9600 H   0  0  0  0  0  0  0  0  0  0  0  0
   32.9230   28.4520   47.8430 N   0  0  0  0  0  0  0  0  0  0  0  0
   32.7490   28.5750   46.4090 C   0  0  0  0  0  0  0  0  0  0  0  0
   33.6040   29.0590   45.9410 H   0  0  0  0  0  0  0  0  0  0  0  0
   31.4910   29.3950   46.2140 C   0  0  0  0  0  0  0  0  0  0  0  0
   31.7330   30.4340   46.5700 H   0  0  0  0  0  0  0  0  0  0  0  0
   30.3920   28.9330   46.9960 N   0  0  0  0  0  0  0  0  0  0  0  0
   29.5210   28.8160   46.4310 H   0  0  0  0  0  0  0  0  0  0  0  0
   30.5900   27.7230   47.7230 C   0  0  0  0  0  0  0  0  0  0  0  0
   31.8790   27.6970   48.5100 C   0  0  0  0  0  0  0  0  0  0  0  0
   37.3390   30.7850   50.4970 C   0  0  0  0  0  0  0  0  0  0  0  0
   38.5420   30.3510   49.9500 F   0  0  0  0  0  0  0  0  0  0  0  0
   37.2880   32.1570   50.3260 F   0  0  0  0  0  0  0  0  0  0  0  0
   37.3100   30.4970   51.8270 F   0  0  0  0  0  0  0  0  0  0  0  0
  1  7  1  0  0  0  0
  2  1  2  0  0  0  0
  2 18  1  0  0  0  0
  3  2  1  0  0  0  0
  4  3  2  0  0  0  0
  4  5  1  0  0  0  0
  5  6  2  0  0  0  0
  6  1  1  0  0  0  0
  8  3  1  0  0  0  0
  9 17  1  0  0  0  0
  9  5  1  0  0  0  0
 10  9  1  0  0  0  0
 11 10  1  0  0  0  0
 12 10  1  0  0  0  0
 12 13  1  0  0  0  0
 12 14  1  0  0  0  0
 14 16  1  0  0  0  0
 15 14  1  0  0  0  0
 16 17  1  0  0  0  0
 18 21  1  0  0  0  0
 19 18  1  0  0  0  0
 20 18  1  0  0  0  0
M  END
>  <minimizedAffinity>
-5.44480467

>  <minimizedRMSD>
0.826547265

$$$$
