
 OpenBabel03272508383D

 44 47  0  0  1  0  0  0  0  0999 V2000
   37.3380   26.3250   34.2320 C   0  0  0  0  0  0  0  0  0  0  0  0
   36.6070   25.5150   34.5230 H   0  0  0  0  0  0  0  0  0  0  0  0
   36.8980   27.2390   34.6870 H   0  0  0  0  0  0  0  0  0  0  0  0
   38.5410   26.0530   34.9040 N   0  0  0  0  0  0  0  0  0  0  0  0
   39.5470   27.0480   34.8360 C   0  0  0  0  0  0  0  0  0  0  0  0
   40.8150   26.6790   34.1660 C   0  0  0  0  0  0  0  0  0  0  0  0
   41.2350   25.3820   34.5810 O   0  0  0  0  0  0  0  0  0  0  0  0
   40.2500   24.5050   34.1750 C   0  0  0  0  0  0  0  0  0  0  0  0
   39.0220   24.7490   35.0070 C   0  0  1  0  0  0  0  0  0  0  0  0
   39.2700   28.0840   34.7420 H   0  0  0  0  0  0  0  0  0  0  0  0
   39.8380   27.0500   35.9480 H   0  0  0  0  0  0  0  0  0  0  0  0
   41.0620   26.9380   33.1810 H   0  0  0  0  0  0  0  0  0  0  0  0
   41.6240   27.2960   34.7410 H   0  0  0  0  0  0  0  0  0  0  0  0
   40.0880   24.4120   33.1080 H   0  0  0  0  0  0  0  0  0  0  0  0
   40.6420   23.4840   34.4860 H   0  0  0  0  0  0  0  0  0  0  0  0
   38.2500   24.0400   34.5820 H   0  0  0  0  0  0  0  0  0  0  0  0
   39.2200   24.3590   36.3610 N   0  0  1  0  0  0  0  0  0  0  0  0
   38.3050   24.8410   37.3170 C   0  0  0  0  0  3  0  0  0  0  0  0
   38.7730   25.7260   37.8260 H   0  0  0  0  0  0  0  0  0  0  0  0
   37.7290   23.8590   38.2670 C   0  0  0  0  0  3  0  0  0  0  0  0
   36.6700   23.5760   37.9980 H   0  0  0  0  0  0  0  0  0  0  0  0
   38.4920   22.6590   38.4670 N   0  0  0  0  0  0  0  0  0  0  0  0
   38.3860   22.2630   39.4280 H   0  0  0  0  0  0  0  0  0  0  0  0
   39.8670   22.9220   38.1210 C   0  0  0  0  0  2  0  0  0  0  0  0
   39.8730   23.1300   36.6010 C   0  0  0  0  0  2  0  0  0  0  0  0
   37.3530   26.4110   32.7810 C   0  0  0  0  0  0  0  0  0  0  0  0
   38.2670   26.4930   32.2030 H   0  0  0  0  0  0  0  0  0  0  0  0
   36.7580   27.3150   32.4740 H   0  0  0  0  0  0  0  0  0  0  0  0
   36.0420   23.2680   31.6530 C   0  0  0  0  0  0  0  0  0  0  0  0
   35.2330   24.1470   31.0020 C   0  0  0  0  0  0  0  0  0  0  0  0
   35.6230   25.4260   31.3420 C   0  0  0  0  0  0  0  0  0  0  0  0
   36.6560   25.2780   32.1840 N   0  0  0  0  0  0  0  0  0  0  0  0
   36.8990   23.9830   32.3640 N   0  0  0  0  0  0  0  0  0  0  0  0
   34.4100   23.8460   30.3220 H   0  0  0  0  0  0  0  0  0  0  0  0
   35.0380   26.1930   30.8800 H   0  0  0  0  0  0  0  0  0  0  0  0
   34.8930   19.6980   32.0280 C   0  0  0  0  0  0  0  0  0  0  0  0
   34.9350   21.0650   32.2030 C   0  0  0  0  0  0  0  0  0  0  0  0
   35.9010   21.8230   31.5650 C   0  0  0  0  0  0  0  0  0  0  0  0
   36.7590   21.1100   30.7880 N   0  0  0  0  0  0  0  0  0  0  0  0
   36.7090   19.7770   30.6240 C   0  0  0  0  0  0  0  0  0  0  0  0
   35.7700   19.0810   31.2510 N   0  0  0  0  0  0  0  0  0  0  0  0
   34.0830   19.2310   32.5880 H   0  0  0  0  0  0  0  0  0  0  0  0
   34.2370   21.6370   32.8330 H   0  0  0  0  0  0  0  0  0  0  0  0
   37.4170   19.2550   29.9940 H   0  0  0  0  0  0  0  0  0  0  0  0
  1  2  1  0  0  0  0
  1  3  1  0  0  0  0
  1  4  1  0  0  0  0
  4  9  1  0  0  0  0
  5  4  1  0  0  0  0
  5 11  1  0  0  0  0
  6  7  1  0  0  0  0
  6 13  1  0  0  0  0
  6  5  1  0  0  0  0
  8 15  1  0  0  0  0
  8  7  1  0  0  0  0
  8  9  1  0  0  0  0
  9 16  1  6  0  0  0
  9 17  1  0  0  0  0
 10  5  1  0  0  0  0
 12  6  1  0  0  0  0
 14  8  1  0  0  0  0
 17 25  1  6  0  0  0
 17 18  1  0  0  0  0
 18 19  1  0  0  0  0
 18 20  1  0  0  0  0
 20 22  1  0  0  0  0
 21 20  1  0  0  0  0
 22 23  1  0  0  0  0
 24 22  1  0  0  0  0
 25 24  1  0  0  0  0
 26  1  1  0  0  0  0
 27 26  1  0  0  0  0
 28 26  1  0  0  0  0
 29 33  2  0  0  0  0
 30 31  2  0  0  0  0
 30 29  1  0  0  0  0
 31 32  1  0  0  0  0
 32 33  1  0  0  0  0
 32 26  1  0  0  0  0
 34 30  1  0  0  0  0
 35 31  1  0  0  0  0
 36 37  1  0  0  0  0
 36 42  1  0  0  0  0
 37 43  1  0  0  0  0
 38 29  1  0  0  0  0
 38 37  2  0  0  0  0
 39 38  1  0  0  0  0
 40 39  2  0  0  0  0
 40 41  1  0  0  0  0
 41 36  2  0  0  0  0
 44 40  1  0  0  0  0
M  END
>  <minimizedAffinity>
-5.82389355

$$$$

 OpenBabel03272508383D

 44 47  0  0  1  0  0  0  0  0999 V2000
   37.3700   26.1120   33.9790 C   0  0  0  0  0  0  0  0  0  0  0  0
   37.0020   25.1120   33.6020 H   0  0  0  0  0  0  0  0  0  0  0  0
   36.6080   26.3930   34.7370 H   0  0  0  0  0  0  0  0  0  0  0  0
   38.5780   25.8760   34.6560 N   0  0  0  0  0  0  0  0  0  0  0  0
   39.5740   26.8780   34.5470 C   0  0  0  0  0  0  0  0  0  0  0  0
   40.8440   26.4950   33.8870 C   0  0  0  0  0  0  0  0  0  0  0  0
   41.2770   25.2190   34.3500 O   0  0  0  0  0  0  0  0  0  0  0  0
   40.2990   24.3180   33.9800 C   0  0  0  0  0  0  0  0  0  0  0  0
   39.0720   24.5820   34.8070 C   0  0  1  0  0  0  0  0  0  0  0  0
   39.2870   27.9070   34.4140 H   0  0  0  0  0  0  0  0  0  0  0  0
   39.8690   26.9250   35.6570 H   0  0  0  0  0  0  0  0  0  0  0  0
   41.0850   26.7190   32.8920 H   0  0  0  0  0  0  0  0  0  0  0  0
   41.6480   27.1410   34.4350 H   0  0  0  0  0  0  0  0  0  0  0  0
   40.1350   24.1830   32.9180 H   0  0  0  0  0  0  0  0  0  0  0  0
   40.7010   23.3130   34.3290 H   0  0  0  0  0  0  0  0  0  0  0  0
   38.3050   23.8500   34.4120 H   0  0  0  0  0  0  0  0  0  0  0  0
   39.2770   24.2450   36.1740 N   0  0  1  0  0  0  0  0  0  0  0  0
   38.3860   24.7900   37.1190 C   0  0  0  0  0  3  0  0  0  0  0  0
   38.8800   25.6840   37.5840 H   0  0  0  0  0  0  0  0  0  0  0  0
   37.7990   23.8620   38.1170 C   0  0  0  0  0  3  0  0  0  0  0  0
   36.7300   23.5930   37.8720 H   0  0  0  0  0  0  0  0  0  0  0  0
   38.5370   22.6550   38.3590 N   0  0  0  0  0  0  0  0  0  0  0  0
   38.4340   22.3030   39.3380 H   0  0  0  0  0  0  0  0  0  0  0  0
   39.9130   22.8700   37.9870 C   0  0  0  0  0  2  0  0  0  0  0  0
   39.9050   23.0130   36.4590 C   0  0  0  0  0  2  0  0  0  0  0  0
   37.3680   27.0380   32.8580 C   0  0  0  0  0  0  0  0  0  0  0  0
   37.0490   26.7570   31.8590 H   0  0  0  0  0  0  0  0  0  0  0  0
   38.4160   27.4170   32.7100 H   0  0  0  0  0  0  0  0  0  0  0  0
   35.5000   29.7850   34.2130 C   0  0  0  0  0  0  0  0  0  0  0  0
   35.4210   30.0370   32.8780 C   0  0  0  0  0  0  0  0  0  0  0  0
   36.1060   29.0440   32.2100 C   0  0  0  0  0  0  0  0  0  0  0  0
   36.5740   28.2230   33.1620 N   0  0  0  0  0  0  0  0  0  0  0  0
   36.2060   28.6750   34.3570 N   0  0  0  0  0  0  0  0  0  0  0  0
   34.8870   30.9050   32.4420 H   0  0  0  0  0  0  0  0  0  0  0  0
   36.1060   29.1580   31.1470 H   0  0  0  0  0  0  0  0  0  0  0  0
   34.9580   32.3280   36.9420 C   0  0  0  0  0  0  0  0  0  0  0  0
   35.6210   31.5520   36.0150 C   0  0  0  0  0  0  0  0  0  0  0  0
   34.9240   30.6470   35.2330 C   0  0  0  0  0  0  0  0  0  0  0  0
   33.5850   30.6090   35.4670 N   0  0  0  0  0  0  0  0  0  0  0  0
   32.9490   31.3700   36.3740 C   0  0  0  0  0  0  0  0  0  0  0  0
   33.6480   32.2270   37.1060 N   0  0  0  0  0  0  0  0  0  0  0  0
   35.6290   32.9930   37.4830 H   0  0  0  0  0  0  0  0  0  0  0  0
   36.7050   31.5870   35.8290 H   0  0  0  0  0  0  0  0  0  0  0  0
   31.8800   31.3020   36.5230 H   0  0  0  0  0  0  0  0  0  0  0  0
  1  4  1  0  0  0  0
  1  3  1  0  0  0  0
  2  1  1  0  0  0  0
  4  9  1  0  0  0  0
  5  4  1  0  0  0  0
  5 11  1  0  0  0  0
  6  7  1  0  0  0  0
  6 13  1  0  0  0  0
  6  5  1  0  0  0  0
  8 15  1  0  0  0  0
  8  7  1  0  0  0  0
  8  9  1  0  0  0  0
  9 16  1  6  0  0  0
  9 17  1  0  0  0  0
 10  5  1  0  0  0  0
 12  6  1  0  0  0  0
 14  8  1  0  0  0  0
 17 25  1  6  0  0  0
 17 18  1  0  0  0  0
 18 19  1  0  0  0  0
 18 20  1  0  0  0  0
 20 22  1  0  0  0  0
 21 20  1  0  0  0  0
 22 23  1  0  0  0  0
 24 22  1  0  0  0  0
 25 24  1  0  0  0  0
 26 32  1  0  0  0  0
 26  1  1  0  0  0  0
 27 26  1  0  0  0  0
 28 26  1  0  0  0  0
 29 33  2  0  0  0  0
 29 38  1  0  0  0  0
 30 29  1  0  0  0  0
 31 30  2  0  0  0  0
 31 32  1  0  0  0  0
 32 33  1  0  0  0  0
 34 30  1  0  0  0  0
 35 31  1  0  0  0  0
 36 41  1  0  0  0  0
 36 42  1  0  0  0  0
 37 36  2  0  0  0  0
 38 39  2  0  0  0  0
 38 37  1  0  0  0  0
 39 40  1  0  0  0  0
 40 44  1  0  0  0  0
 40 41  2  0  0  0  0
 43 37  1  0  0  0  0
M  END
>  <minimizedAffinity>
-5.60712194

$$$$

 OpenBabel03272508383D

 44 47  0  0  1  0  0  0  0  0999 V2000
   38.6560   26.2560   32.2610 C   0  0  0  0  0  0  0  0  0  0  0  0
   39.2550   27.2140   32.2250 H   0  0  0  0  0  0  0  0  0  0  0  0
   39.4330   25.4670   32.1720 H   0  0  0  0  0  0  0  0  0  0  0  0
   38.1020   26.1660   33.5480 N   0  0  0  0  0  0  0  0  0  0  0  0
   37.1290   27.1360   33.8910 C   0  0  0  0  0  0  0  0  0  0  0  0
   37.4550   28.0510   35.0100 C   0  0  0  0  0  0  0  0  0  0  0  0
   38.0320   27.3230   36.0910 O   0  0  0  0  0  0  0  0  0  0  0  0
   39.2060   26.7770   35.6100 C   0  0  0  0  0  0  0  0  0  0  0  0
   38.8600   25.7000   34.6210 C   0  0  1  0  0  0  0  0  0  0  0  0
   36.5040   27.5640   33.1250 H   0  0  0  0  0  0  0  0  0  0  0  0
   36.3580   26.4240   34.3620 H   0  0  0  0  0  0  0  0  0  0  0  0
   37.8030   29.0320   34.8910 H   0  0  0  0  0  0  0  0  0  0  0  0
   36.4190   28.2670   35.5050 H   0  0  0  0  0  0  0  0  0  0  0  0
   39.9780   27.4720   35.3040 H   0  0  0  0  0  0  0  0  0  0  0  0
   39.6530   26.2440   36.5100 H   0  0  0  0  0  0  0  0  0  0  0  0
   39.8600   25.3440   34.2340 H   0  0  0  0  0  0  0  0  0  0  0  0
   38.2540   24.5790   35.2550 N   0  0  1  0  0  0  0  0  0  0  0  0
   38.1190   23.3990   34.4990 C   0  0  0  0  0  3  0  0  0  0  0  0
   37.0670   23.3570   34.1090 H   0  0  0  0  0  0  0  0  0  0  0  0
   38.5590   22.1310   35.1290 C   0  0  0  0  0  3  0  0  0  0  0  0
   39.5580   21.7820   34.7360 H   0  0  0  0  0  0  0  0  0  0  0  0
   38.6000   22.1260   36.5650 N   0  0  0  0  0  0  0  0  0  0  0  0
   38.4010   21.1870   36.9760 H   0  0  0  0  0  0  0  0  0  0  0  0
   37.7130   23.1510   37.0570 C   0  0  0  0  0  2  0  0  0  0  0  0
   38.3650   24.4820   36.6590 C   0  0  0  0  0  2  0  0  0  0  0  0
   37.7620   26.2490   31.1140 C   0  0  0  0  0  0  0  0  0  0  0  0
   38.1140   26.2900   30.0890 H   0  0  0  0  0  0  0  0  0  0  0  0
   37.0720   27.1330   31.1980 H   0  0  0  0  0  0  0  0  0  0  0  0
   36.1520   23.0440   31.1880 C   0  0  0  0  0  0  0  0  0  0  0  0
   35.0810   23.8840   31.1950 C   0  0  0  0  0  0  0  0  0  0  0  0
   35.5500   25.1810   31.1670 C   0  0  0  0  0  0  0  0  0  0  0  0
   36.8880   25.0820   31.1410 N   0  0  0  0  0  0  0  0  0  0  0  0
   37.2380   23.7990   31.1540 N   0  0  0  0  0  0  0  0  0  0  0  0
   34.0270   23.5430   31.2190 H   0  0  0  0  0  0  0  0  0  0  0  0
   34.7780   25.9200   31.1750 H   0  0  0  0  0  0  0  0  0  0  0  0
   36.7240   19.3350   30.8260 C   0  0  0  0  0  0  0  0  0  0  0  0
   36.9270   20.6920   30.6850 C   0  0  0  0  0  0  0  0  0  0  0  0
   36.0420   21.5950   31.2500 C   0  0  0  0  0  0  0  0  0  0  0  0
   35.0060   21.0280   31.9220 N   0  0  0  0  0  0  0  0  0  0  0  0
   34.8170   19.7030   32.0530 C   0  0  0  0  0  0  0  0  0  0  0  0
   35.6840   18.8670   31.4990 N   0  0  0  0  0  0  0  0  0  0  0  0
   37.4950   18.7460   30.3330 H   0  0  0  0  0  0  0  0  0  0  0  0
   37.7680   21.1460   30.1400 H   0  0  0  0  0  0  0  0  0  0  0  0
   33.9740   19.3000   32.5980 H   0  0  0  0  0  0  0  0  0  0  0  0
  1  4  1  0  0  0  0
  2  1  1  0  0  0  0
  3  1  1  0  0  0  0
  4  5  1  0  0  0  0
  4  9  1  0  0  0  0
  5 11  1  0  0  0  0
  5  6  1  0  0  0  0
  6 13  1  0  0  0  0
  6  7  1  0  0  0  0
  8  7  1  0  0  0  0
  8 15  1  0  0  0  0
  9 16  1  6  0  0  0
  9 17  1  0  0  0  0
  9  8  1  0  0  0  0
 10  5  1  0  0  0  0
 12  6  1  0  0  0  0
 14  8  1  0  0  0  0
 17 25  1  1  0  0  0
 18 20  1  0  0  0  0
 18 17  1  0  0  0  0
 19 18  1  0  0  0  0
 20 22  1  0  0  0  0
 21 20  1  0  0  0  0
 22 23  1  0  0  0  0
 22 24  1  0  0  0  0
 25 24  1  0  0  0  0
 26 32  1  0  0  0  0
 26 28  1  0  0  0  0
 26  1  1  0  0  0  0
 27 26  1  0  0  0  0
 29 30  1  0  0  0  0
 29 38  1  0  0  0  0
 30 34  1  0  0  0  0
 31 35  1  0  0  0  0
 31 30  2  0  0  0  0
 32 33  1  0  0  0  0
 32 31  1  0  0  0  0
 33 29  2  0  0  0  0
 36 41  1  0  0  0  0
 37 36  2  0  0  0  0
 37 38  1  0  0  0  0
 38 39  2  0  0  0  0
 39 40  1  0  0  0  0
 40 44  1  0  0  0  0
 41 40  2  0  0  0  0
 42 36  1  0  0  0  0
 43 37  1  0  0  0  0
M  END
>  <minimizedAffinity>
-5.52307558

$$$$

 OpenBabel03272508383D

 44 47  0  0  1  0  0  0  0  0999 V2000
   36.1110   28.6090   34.3610 C   0  0  0  0  0  0  0  0  0  0  0  0
   37.0500   29.0140   34.8410 H   0  0  0  0  0  0  0  0  0  0  0  0
   35.6570   27.9980   35.1700 H   0  0  0  0  0  0  0  0  0  0  0  0
   35.2640   29.7050   34.1280 N   0  0  0  0  0  0  0  0  0  0  0  0
   35.0910   30.0990   32.7790 C   0  0  0  0  0  0  0  0  0  0  0  0
   35.5580   31.4560   32.4090 C   0  0  0  0  0  0  0  0  0  0  0  0
   35.1650   32.4010   33.4000 O   0  0  0  0  0  0  0  0  0  0  0  0
   35.7930   32.0230   34.5690 C   0  0  0  0  0  0  0  0  0  0  0  0
   35.1680   30.7440   35.0520 C   0  0  1  0  0  0  0  0  0  0  0  0
   35.1610   29.3670   31.9930 H   0  0  0  0  0  0  0  0  0  0  0  0
   33.9480   30.2200   32.7980 H   0  0  0  0  0  0  0  0  0  0  0  0
   36.4660   31.6590   31.9270 H   0  0  0  0  0  0  0  0  0  0  0  0
   34.8120   31.7880   31.5730 H   0  0  0  0  0  0  0  0  0  0  0  0
   36.8750   32.0530   34.5750 H   0  0  0  0  0  0  0  0  0  0  0  0
   35.4890   32.8220   35.3180 H   0  0  0  0  0  0  0  0  0  0  0  0
   35.7660   30.4700   35.9720 H   0  0  0  0  0  0  0  0  0  0  0  0
   33.8300   30.9460   35.4910 N   0  0  1  0  0  0  0  0  0  0  0  0
   32.8970   29.9250   35.2250 C   0  0  0  0  0  3  0  0  0  0  0  0
   32.3150   30.2200   34.3100 H   0  0  0  0  0  0  0  0  0  0  0  0
   32.0350   29.4780   36.3460 C   0  0  0  0  0  3  0  0  0  0  0  0
   32.3740   28.4930   36.7790 H   0  0  0  0  0  0  0  0  0  0  0  0
   31.8640   30.4190   37.4170 N   0  0  0  0  0  0  0  0  0  0  0  0
   30.9330   30.3390   37.8860 H   0  0  0  0  0  0  0  0  0  0  0  0
   32.1230   31.7460   36.9140 C   0  0  0  0  0  2  0  0  0  0  0  0
   33.6260   31.7810   36.6110 C   0  0  0  0  0  2  0  0  0  0  0  0
   36.5100   27.7830   33.2330 C   0  0  0  0  0  0  0  0  0  0  0  0
   37.1630   28.1360   32.4420 H   0  0  0  0  0  0  0  0  0  0  0  0
   35.5810   27.4540   32.6900 H   0  0  0  0  0  0  0  0  0  0  0  0
   38.0810   25.0330   34.9190 C   0  0  0  0  0  0  0  0  0  0  0  0
   37.9490   24.5370   33.6580 C   0  0  0  0  0  0  0  0  0  0  0  0
   37.3490   25.5020   32.8760 C   0  0  0  0  0  0  0  0  0  0  0  0
   37.1400   26.5490   33.6880 N   0  0  0  0  0  0  0  0  0  0  0  0
   37.5810   26.2580   34.9080 N   0  0  0  0  0  0  0  0  0  0  0  0
   38.2810   23.5250   33.3530 H   0  0  0  0  0  0  0  0  0  0  0  0
   37.1970   25.2020   31.8610 H   0  0  0  0  0  0  0  0  0  0  0  0
   38.6880   23.3800   38.2520 C   0  0  0  0  0  0  0  0  0  0  0  0
   38.0680   24.1390   37.2810 C   0  0  0  0  0  0  0  0  0  0  0  0
   38.6400   24.2780   36.0290 C   0  0  0  0  0  0  0  0  0  0  0  0
   39.8180   23.6200   35.8680 N   0  0  0  0  0  0  0  0  0  0  0  0
   40.4150   22.8830   36.8210 C   0  0  0  0  0  0  0  0  0  0  0  0
   39.8390   22.7710   38.0100 N   0  0  0  0  0  0  0  0  0  0  0  0
   38.1270   23.3590   39.1850 H   0  0  0  0  0  0  0  0  0  0  0  0
   37.1130   24.6690   37.4170 H   0  0  0  0  0  0  0  0  0  0  0  0
   41.3550   22.3780   36.6430 H   0  0  0  0  0  0  0  0  0  0  0  0
  1  2  1  0  0  0  0
  1  3  1  0  0  0  0
  4  1  1  0  0  0  0
  4  9  1  0  0  0  0
  5 11  1  0  0  0  0
  5  4  1  0  0  0  0
  6  5  1  0  0  0  0
  6  7  1  0  0  0  0
  7  8  1  0  0  0  0
  8 14  1  0  0  0  0
  8  9  1  0  0  0  0
  8 15  1  0  0  0  0
  9 17  1  0  0  0  0
  9 16  1  1  0  0  0
 10  5  1  0  0  0  0
 12  6  1  0  0  0  0
 13  6  1  0  0  0  0
 17 25  1  1  0  0  0
 18 17  1  0  0  0  0
 18 20  1  0  0  0  0
 19 18  1  0  0  0  0
 20 21  1  0  0  0  0
 20 22  1  0  0  0  0
 22 23  1  0  0  0  0
 24 22  1  0  0  0  0
 25 24  1  0  0  0  0
 26 32  1  0  0  0  0
 26  1  1  0  0  0  0
 27 26  1  0  0  0  0
 28 26  1  0  0  0  0
 29 38  1  0  0  0  0
 30 29  1  0  0  0  0
 31 30  2  0  0  0  0
 31 32  1  0  0  0  0
 32 33  1  0  0  0  0
 33 29  2  0  0  0  0
 34 30  1  0  0  0  0
 35 31  1  0  0  0  0
 36 42  1  0  0  0  0
 37 43  1  0  0  0  0
 37 36  2  0  0  0  0
 38 37  1  0  0  0  0
 39 38  2  0  0  0  0
 39 40  1  0  0  0  0
 40 41  2  0  0  0  0
 41 36  1  0  0  0  0
 44 40  1  0  0  0  0
M  END
>  <minimizedAffinity>
-5.43315077

$$$$

 OpenBabel03272508383D

 44 47  0  0  1  0  0  0  0  0999 V2000
   37.1360   26.6270   34.3140 C   0  0  0  0  0  0  0  0  0  0  0  0
   36.1630   26.3120   34.7950 H   0  0  0  0  0  0  0  0  0  0  0  0
   37.1990   27.7100   34.5560 H   0  0  0  0  0  0  0  0  0  0  0  0
   38.1670   25.9750   35.0090 N   0  0  0  0  0  0  0  0  0  0  0  0
   39.2470   26.7800   35.4470 C   0  0  0  0  0  0  0  0  0  0  0  0
   40.5830   26.4820   34.8790 C   0  0  0  0  0  0  0  0  0  0  0  0
   40.8090   25.0760   34.8590 O   0  0  0  0  0  0  0  0  0  0  0  0
   39.8460   24.5380   34.0290 C   0  0  0  0  0  0  0  0  0  0  0  0
   38.5110   24.6590   34.7070 C   0  0  1  0  0  0  0  0  0  0  0  0
   39.0800   27.8150   35.6910 H   0  0  0  0  0  0  0  0  0  0  0  0
   39.3280   26.3640   36.5160 H   0  0  0  0  0  0  0  0  0  0  0  0
   41.0280   27.0210   34.0980 H   0  0  0  0  0  0  0  0  0  0  0  0
   41.3200   26.7460   35.7470 H   0  0  0  0  0  0  0  0  0  0  0  0
   39.8780   24.8360   32.9880 H   0  0  0  0  0  0  0  0  0  0  0  0
   40.0880   23.4270   34.0070 H   0  0  0  0  0  0  0  0  0  0  0  0
   37.7750   24.2530   33.9510 H   0  0  0  0  0  0  0  0  0  0  0  0
   38.4220   23.8100   35.8460 N   0  0  1  0  0  0  0  0  0  0  0  0
   39.1190   22.5870   35.8010 C   0  0  0  0  0  3  0  0  0  0  0  0
   38.3860   21.7820   35.5270 H   0  0  0  0  0  0  0  0  0  0  0  0
   39.9600   22.2370   36.9720 C   0  0  0  0  0  3  0  0  0  0  0  0
   41.0580   22.4000   36.7730 H   0  0  0  0  0  0  0  0  0  0  0  0
   39.6120   22.8810   38.2070 N   0  0  0  0  0  0  0  0  0  0  0  0
   39.8200   22.2950   39.0460 H   0  0  0  0  0  0  0  0  0  0  0  0
   38.2310   23.2920   38.1430 C   0  0  0  0  0  2  0  0  0  0  0  0
   38.1870   24.4160   37.0990 C   0  0  0  0  0  2  0  0  0  0  0  0
   37.0140   26.4110   32.8820 C   0  0  0  0  0  0  0  0  0  0  0  0
   36.2970   25.7230   32.4460 H   0  0  0  0  0  0  0  0  0  0  0  0
   38.0060   26.0500   32.4930 H   0  0  0  0  0  0  0  0  0  0  0  0
   36.8370   29.2880   30.7460 C   0  0  0  0  0  0  0  0  0  0  0  0
   35.9230   29.6060   31.7030 C   0  0  0  0  0  0  0  0  0  0  0  0
   35.8780   28.5730   32.6160 C   0  0  0  0  0  0  0  0  0  0  0  0
   36.7670   27.6670   32.1830 N   0  0  0  0  0  0  0  0  0  0  0  0
   37.3360   28.1040   31.0640 N   0  0  0  0  0  0  0  0  0  0  0  0
   35.3350   30.5450   31.7100 H   0  0  0  0  0  0  0  0  0  0  0  0
   35.1790   28.7280   33.4110 H   0  0  0  0  0  0  0  0  0  0  0  0
   38.0380   30.6310   27.4350 C   0  0  0  0  0  0  0  0  0  0  0  0
   37.8430   29.7460   28.4740 C   0  0  0  0  0  0  0  0  0  0  0  0
   37.1250   30.1280   29.5940 C   0  0  0  0  0  0  0  0  0  0  0  0
   36.6590   31.4050   29.5600 N   0  0  0  0  0  0  0  0  0  0  0  0
   36.8540   32.2600   28.5420 C   0  0  0  0  0  0  0  0  0  0  0  0
   37.5470   31.8600   27.4840 N   0  0  0  0  0  0  0  0  0  0  0  0
   38.6180   30.1970   26.6220 H   0  0  0  0  0  0  0  0  0  0  0  0
   38.2230   28.7130   28.4960 H   0  0  0  0  0  0  0  0  0  0  0  0
   36.4620   33.2680   28.5620 H   0  0  0  0  0  0  0  0  0  0  0  0
  1  3  1  0  0  0  0
  1  2  1  0  0  0  0
  1  4  1  0  0  0  0
  4  5  1  0  0  0  0
  5 10  1  0  0  0  0
  5 11  1  0  0  0  0
  6  5  1  0  0  0  0
  6 13  1  0  0  0  0
  7  6  1  0  0  0  0
  8  9  1  0  0  0  0
  8  7  1  0  0  0  0
  9 16  1  6  0  0  0
  9  4  1  0  0  0  0
  9 17  1  0  0  0  0
 12  6  1  0  0  0  0
 14  8  1  0  0  0  0
 15  8  1  0  0  0  0
 17 25  1  1  0  0  0
 18 17  1  0  0  0  0
 18 20  1  0  0  0  0
 19 18  1  0  0  0  0
 20 22  1  0  0  0  0
 21 20  1  0  0  0  0
 22 23  1  0  0  0  0
 24 22  1  0  0  0  0
 25 24  1  0  0  0  0
 26  1  1  0  0  0  0
 27 26  1  0  0  0  0
 28 26  1  0  0  0  0
 29 33  2  0  0  0  0
 29 30  1  0  0  0  0
 30 34  1  0  0  0  0
 30 31  2  0  0  0  0
 31 35  1  0  0  0  0
 32 31  1  0  0  0  0
 32 26  1  0  0  0  0
 33 32  1  0  0  0  0
 36 41  2  0  0  0  0
 36 37  1  0  0  0  0
 37 43  1  0  0  0  0
 37 38  2  0  0  0  0
 38 29  1  0  0  0  0
 39 38  1  0  0  0  0
 40 44  1  0  0  0  0
 40 39  2  0  0  0  0
 41 40  1  0  0  0  0
 42 36  1  0  0  0  0
M  END
>  <minimizedAffinity>
-5.33303833

$$$$

 OpenBabel03272508383D

 44 47  0  0  1  0  0  0  0  0999 V2000
   37.7940   25.9690   33.3060 C   0  0  0  0  0  0  0  0  0  0  0  0
   37.7640   25.1330   32.5470 H   0  0  0  0  0  0  0  0  0  0  0  0
   36.7560   25.9910   33.7020 H   0  0  0  0  0  0  0  0  0  0  0  0
   38.6370   25.5480   34.3470 N   0  0  0  0  0  0  0  0  0  0  0  0
   39.4670   26.5350   34.9330 C   0  0  0  0  0  0  0  0  0  0  0  0
   40.9310   26.3480   34.8020 C   0  0  0  0  0  0  0  0  0  0  0  0
   41.2820   24.9920   35.0610 O   0  0  0  0  0  0  0  0  0  0  0  0
   40.6520   24.2350   34.0930 C   0  0  0  0  0  0  0  0  0  0  0  0
   39.1730   24.2610   34.3560 C   0  0  1  0  0  0  0  0  0  0  0  0
   39.1430   27.5610   34.9600 H   0  0  0  0  0  0  0  0  0  0  0  0
   39.2740   26.2660   36.0340 H   0  0  0  0  0  0  0  0  0  0  0  0
   41.5310   26.8420   34.0980 H   0  0  0  0  0  0  0  0  0  0  0  0
   41.3600   26.8100   35.7860 H   0  0  0  0  0  0  0  0  0  0  0  0
   40.9540   24.4050   33.0670 H   0  0  0  0  0  0  0  0  0  0  0  0
   40.9910   23.1720   34.3090 H   0  0  0  0  0  0  0  0  0  0  0  0
   38.7260   23.6730   33.5000 H   0  0  0  0  0  0  0  0  0  0  0  0
   38.8390   23.5520   35.5440 N   0  0  1  0  0  0  0  0  0  0  0  0
   39.5520   22.3690   35.8180 C   0  0  0  0  0  3  0  0  0  0  0  0
   38.9190   21.5010   35.4900 H   0  0  0  0  0  0  0  0  0  0  0  0
   40.1030   22.2060   37.1850 C   0  0  0  0  0  3  0  0  0  0  0  0
   41.2150   22.3990   37.2230 H   0  0  0  0  0  0  0  0  0  0  0  0
   39.4640   22.9770   38.2150 N   0  0  0  0  0  0  0  0  0  0  0  0
   39.4830   22.5070   39.1480 H   0  0  0  0  0  0  0  0  0  0  0  0
   38.1290   23.3070   37.7840 C   0  0  0  0  0  2  0  0  0  0  0  0
   38.3060   24.2930   36.6220 C   0  0  0  0  0  2  0  0  0  0  0  0
   38.1170   27.1990   32.6010 C   0  0  0  0  0  0  0  0  0  0  0  0
   38.5520   27.2140   31.6080 H   0  0  0  0  0  0  0  0  0  0  0  0
   38.8480   27.7830   33.2250 H   0  0  0  0  0  0  0  0  0  0  0  0
   35.0610   29.0580   32.8780 C   0  0  0  0  0  0  0  0  0  0  0  0
   35.5620   29.5350   31.7060 C   0  0  0  0  0  0  0  0  0  0  0  0
   36.7610   28.9000   31.4590 C   0  0  0  0  0  0  0  0  0  0  0  0
   36.9440   28.0590   32.4880 N   0  0  0  0  0  0  0  0  0  0  0  0
   35.9210   28.1600   33.3310 N   0  0  0  0  0  0  0  0  0  0  0  0
   35.0600   30.3040   31.0850 H   0  0  0  0  0  0  0  0  0  0  0  0
   37.2390   29.2140   30.5560 H   0  0  0  0  0  0  0  0  0  0  0  0
   32.4820   30.6730   35.1030 C   0  0  0  0  0  0  0  0  0  0  0  0
   33.7180   30.2700   34.6410 C   0  0  0  0  0  0  0  0  0  0  0  0
   33.8220   29.5280   33.4770 C   0  0  0  0  0  0  0  0  0  0  0  0
   32.6360   29.2540   32.8720 N   0  0  0  0  0  0  0  0  0  0  0  0
   31.4370   29.6510   33.3310 C   0  0  0  0  0  0  0  0  0  0  0  0
   31.3740   30.3610   34.4490 N   0  0  0  0  0  0  0  0  0  0  0  0
   32.5510   31.2480   36.0250 H   0  0  0  0  0  0  0  0  0  0  0  0
   34.6750   30.4960   35.1350 H   0  0  0  0  0  0  0  0  0  0  0  0
   30.5200   29.4060   32.8120 H   0  0  0  0  0  0  0  0  0  0  0  0
  1  3  1  0  0  0  0
  1  4  1  0  0  0  0
  2  1  1  0  0  0  0
  4  9  1  0  0  0  0
  4  5  1  0  0  0  0
  5 10  1  0  0  0  0
  5 11  1  0  0  0  0
  6  5  1  0  0  0  0
  6  7  1  0  0  0  0
  6 13  1  0  0  0  0
  8 15  1  0  0  0  0
  8  9  1  0  0  0  0
  8  7  1  0  0  0  0
  9 16  1  6  0  0  0
  9 17  1  0  0  0  0
 12  6  1  0  0  0  0
 14  8  1  0  0  0  0
 17 18  1  0  0  0  0
 17 25  1  1  0  0  0
 18 20  1  0  0  0  0
 19 18  1  0  0  0  0
 20 21  1  0  0  0  0
 20 22  1  0  0  0  0
 22 23  1  0  0  0  0
 24 22  1  0  0  0  0
 25 24  1  0  0  0  0
 26 28  1  0  0  0  0
 26  1  1  0  0  0  0
 27 26  1  0  0  0  0
 29 33  2  0  0  0  0
 29 38  1  0  0  0  0
 30 29  1  0  0  0  0
 31 30  2  0  0  0  0
 31 32  1  0  0  0  0
 32 26  1  0  0  0  0
 32 33  1  0  0  0  0
 34 30  1  0  0  0  0
 35 31  1  0  0  0  0
 36 42  1  0  0  0  0
 37 36  1  0  0  0  0
 37 43  1  0  0  0  0
 38 37  2  0  0  0  0
 39 40  2  0  0  0  0
 39 38  1  0  0  0  0
 40 41  1  0  0  0  0
 41 36  2  0  0  0  0
 44 40  1  0  0  0  0
M  END
>  <minimizedAffinity>
-5.24634361

$$$$

 OpenBabel03272508383D

 44 47  0  0  1  0  0  0  0  0999 V2000
   38.4330   26.8700   34.3100 C   0  0  0  0  0  0  0  0  0  0  0  0
   39.5050   26.5720   34.5060 H   0  0  0  0  0  0  0  0  0  0  0  0
   38.4690   27.9800   34.3360 H   0  0  0  0  0  0  0  0  0  0  0  0
   38.1330   26.4840   32.9940 N   0  0  0  0  0  0  0  0  0  0  0  0
   38.8580   27.1280   31.9610 C   0  0  0  0  0  0  0  0  0  0  0  0
   38.0800   27.9490   31.0040 C   0  0  0  0  0  0  0  0  0  0  0  0
   36.8950   27.2610   30.6110 O   0  0  0  0  0  0  0  0  0  0  0  0
   36.1450   27.0920   31.7580 C   0  0  0  0  0  0  0  0  0  0  0  0
   36.8420   26.0940   32.6400 C   0  0  1  0  0  0  0  0  0  0  0  0
   39.8600   27.4760   32.1460 H   0  0  0  0  0  0  0  0  0  0  0  0
   39.1140   26.1920   31.3440 H   0  0  0  0  0  0  0  0  0  0  0  0
   38.0020   28.9930   31.0450 H   0  0  0  0  0  0  0  0  0  0  0  0
   38.6660   27.8350   29.9990 H   0  0  0  0  0  0  0  0  0  0  0  0
   35.7920   27.9910   32.2470 H   0  0  0  0  0  0  0  0  0  0  0  0
   35.1960   26.5820   31.3960 H   0  0  0  0  0  0  0  0  0  0  0  0
   36.2050   26.0520   33.5730 H   0  0  0  0  0  0  0  0  0  0  0  0
   36.8150   24.7880   32.0770 N   0  0  1  0  0  0  0  0  0  0  0  0
   37.7440   23.8500   32.5660 C   0  0  0  0  0  3  0  0  0  0  0  0
   38.6040   23.8080   31.8440 H   0  0  0  0  0  0  0  0  0  0  0  0
   37.2300   22.5100   32.9390 C   0  0  0  0  0  3  0  0  0  0  0  0
   37.1360   22.3850   34.0570 H   0  0  0  0  0  0  0  0  0  0  0  0
   35.9930   22.1200   32.3230 N   0  0  0  0  0  0  0  0  0  0  0  0
   35.9200   21.0890   32.1720 H   0  0  0  0  0  0  0  0  0  0  0  0
   35.8230   22.8760   31.1070 C   0  0  0  0  0  2  0  0  0  0  0  0
   35.5870   24.3240   31.5560 C   0  0  0  0  0  2  0  0  0  0  0  0
   37.6200   26.3420   35.3940 C   0  0  0  0  0  0  0  0  0  0  0  0
   36.5660   26.1100   35.2840 H   0  0  0  0  0  0  0  0  0  0  0  0
   37.6480   27.0760   36.2460 H   0  0  0  0  0  0  0  0  0  0  0  0
   39.5170   23.4370   36.3050 C   0  0  0  0  0  0  0  0  0  0  0  0
   38.4500   23.3370   37.1440 C   0  0  0  0  0  0  0  0  0  0  0  0
   37.6120   24.4060   36.9070 C   0  0  0  0  0  0  0  0  0  0  0  0
   38.1980   25.1160   35.9310 N   0  0  0  0  0  0  0  0  0  0  0  0
   39.3370   24.5270   35.5770 N   0  0  0  0  0  0  0  0  0  0  0  0
   38.3150   22.5180   37.8800 H   0  0  0  0  0  0  0  0  0  0  0  0
   36.7410   24.4190   37.5260 H   0  0  0  0  0  0  0  0  0  0  0  0
   42.1910   20.9610   37.2700 C   0  0  0  0  0  0  0  0  0  0  0  0
   41.1380   21.8420   37.4050 C   0  0  0  0  0  0  0  0  0  0  0  0
   40.6300   22.5000   36.2990 C   0  0  0  0  0  0  0  0  0  0  0  0
   41.2480   22.1990   35.1260 N   0  0  0  0  0  0  0  0  0  0  0  0
   42.2730   21.3380   35.0050 C   0  0  0  0  0  0  0  0  0  0  0  0
   42.7360   20.7250   36.0860 N   0  0  0  0  0  0  0  0  0  0  0  0
   42.4860   20.5180   38.2190 H   0  0  0  0  0  0  0  0  0  0  0  0
   40.6420   22.0820   38.3570 H   0  0  0  0  0  0  0  0  0  0  0  0
   42.7330   21.1330   34.0480 H   0  0  0  0  0  0  0  0  0  0  0  0
  1  3  1  0  0  0  0
  1  2  1  0  0  0  0
  1 26  1  0  0  0  0
  4  1  1  0  0  0  0
  5 10  1  0  0  0  0
  5  4  1  0  0  0  0
  6 12  1  0  0  0  0
  6  5  1  0  0  0  0
  7  6  1  0  0  0  0
  7  8  1  0  0  0  0
  8 14  1  0  0  0  0
  8  9  1  0  0  0  0
  9  4  1  0  0  0  0
  9 16  1  1  0  0  0
 11  5  1  0  0  0  0
 13  6  1  0  0  0  0
 15  8  1  0  0  0  0
 17 25  1  1  0  0  0
 17 18  1  0  0  0  0
 17  9  1  0  0  0  0
 18 20  1  0  0  0  0
 19 18  1  0  0  0  0
 20 21  1  0  0  0  0
 22 20  1  0  0  0  0
 23 22  1  0  0  0  0
 24 25  1  0  0  0  0
 24 22  1  0  0  0  0
 26 32  1  0  0  0  0
 26 28  1  0  0  0  0
 27 26  1  0  0  0  0
 29 30  1  0  0  0  0
 30 34  1  0  0  0  0
 31 30  2  0  0  0  0
 31 35  1  0  0  0  0
 32 31  1  0  0  0  0
 33 32  1  0  0  0  0
 33 29  2  0  0  0  0
 36 37  1  0  0  0  0
 36 42  1  0  0  0  0
 37 43  1  0  0  0  0
 38 29  1  0  0  0  0
 38 37  2  0  0  0  0
 39 38  1  0  0  0  0
 40 39  2  0  0  0  0
 40 41  1  0  0  0  0
 41 36  2  0  0  0  0
 44 40  1  0  0  0  0
M  END
>  <minimizedAffinity>
-5.18341351

$$$$

 OpenBabel03272508383D

 44 47  0  0  1  0  0  0  0  0999 V2000
   37.3210   26.1880   33.3980 C   0  0  0  0  0  0  0  0  0  0  0  0
   37.2030   25.2900   32.7230 H   0  0  0  0  0  0  0  0  0  0  0  0
   36.4600   26.0980   34.0940 H   0  0  0  0  0  0  0  0  0  0  0  0
   38.4950   25.9900   34.1430 N   0  0  0  0  0  0  0  0  0  0  0  0
   39.4380   27.0470   34.1370 C   0  0  0  0  0  0  0  0  0  0  0  0
   40.7670   26.7600   33.5470 C   0  0  0  0  0  0  0  0  0  0  0  0
   41.2400   25.4910   33.9900 O   0  0  0  0  0  0  0  0  0  0  0  0
   40.3390   24.5550   33.5240 C   0  0  0  0  0  0  0  0  0  0  0  0
   39.0490   24.7190   34.2770 C   0  0  1  0  0  0  0  0  0  0  0  0
   39.1040   28.0640   34.0240 H   0  0  0  0  0  0  0  0  0  0  0  0
   39.6590   27.0640   35.2650 H   0  0  0  0  0  0  0  0  0  0  0  0
   41.0580   27.0370   32.5790 H   0  0  0  0  0  0  0  0  0  0  0  0
   41.4980   27.4250   34.1710 H   0  0  0  0  0  0  0  0  0  0  0  0
   40.2510   24.4550   32.4490 H   0  0  0  0  0  0  0  0  0  0  0  0
   40.7740   23.5600   33.8600 H   0  0  0  0  0  0  0  0  0  0  0  0
   38.3520   23.9640   33.8060 H   0  0  0  0  0  0  0  0  0  0  0  0
   39.1870   24.3380   35.6420 N   0  0  1  0  0  0  0  0  0  0  0  0
   38.2420   24.8430   36.5550 C   0  0  0  0  0  3  0  0  0  0  0  0
   38.7020   25.7250   37.0760 H   0  0  0  0  0  0  0  0  0  0  0  0
   37.6130   23.8780   37.4900 C   0  0  0  0  0  3  0  0  0  0  0  0
   36.5610   23.6080   37.1810 H   0  0  0  0  0  0  0  0  0  0  0  0
   38.3490   22.6690   37.7310 N   0  0  0  0  0  0  0  0  0  0  0  0
   38.1990   22.2830   38.6900 H   0  0  0  0  0  0  0  0  0  0  0  0
   39.7410   22.9080   37.4380 C   0  0  0  0  0  2  0  0  0  0  0  0
   39.8110   23.1020   35.9180 C   0  0  0  0  0  2  0  0  0  0  0  0
   37.2110   27.3810   32.5740 C   0  0  0  0  0  0  0  0  0  0  0  0
   37.1000   27.3470   31.4950 H   0  0  0  0  0  0  0  0  0  0  0  0
   38.1320   28.0060   32.7310 H   0  0  0  0  0  0  0  0  0  0  0  0
   34.2530   29.3470   33.0810 C   0  0  0  0  0  0  0  0  0  0  0  0
   34.8600   29.4550   34.2940 C   0  0  0  0  0  0  0  0  0  0  0  0
   36.0360   28.7360   34.2530 C   0  0  0  0  0  0  0  0  0  0  0  0
   36.1040   28.2210   33.0170 N   0  0  0  0  0  0  0  0  0  0  0  0
   35.0320   28.5930   32.3230 N   0  0  0  0  0  0  0  0  0  0  0  0
   34.4450   30.0310   35.1450 H   0  0  0  0  0  0  0  0  0  0  0  0
   36.5870   28.7560   35.1700 H   0  0  0  0  0  0  0  0  0  0  0  0
   30.6060   30.2970   33.0040 C   0  0  0  0  0  0  0  0  0  0  0  0
   31.7620   29.6470   33.3800 C   0  0  0  0  0  0  0  0  0  0  0  0
   32.9660   29.9470   32.7660 C   0  0  0  0  0  0  0  0  0  0  0  0
   32.8870   30.9030   31.8020 N   0  0  0  0  0  0  0  0  0  0  0  0
   31.7550   31.5310   31.4420 C   0  0  0  0  0  0  0  0  0  0  0  0
   30.6190   31.2180   32.0520 N   0  0  0  0  0  0  0  0  0  0  0  0
   29.7380   29.9630   33.5690 H   0  0  0  0  0  0  0  0  0  0  0  0
   31.8200   28.8750   34.1620 H   0  0  0  0  0  0  0  0  0  0  0  0
   31.7440   32.2850   30.6670 H   0  0  0  0  0  0  0  0  0  0  0  0
  1  3  1  0  0  0  0
  1  4  1  0  0  0  0
  2  1  1  0  0  0  0
  4  9  1  0  0  0  0
  5  4  1  0  0  0  0
  5 11  1  0  0  0  0
  6  7  1  0  0  0  0
  6  5  1  0  0  0  0
  6 13  1  0  0  0  0
  8 15  1  0  0  0  0
  8  7  1  0  0  0  0
  8  9  1  0  0  0  0
  9 16  1  6  0  0  0
  9 17  1  0  0  0  0
 10  5  1  0  0  0  0
 12  6  1  0  0  0  0
 14  8  1  0  0  0  0
 17 25  1  6  0  0  0
 17 18  1  0  0  0  0
 18 19  1  0  0  0  0
 18 20  1  0  0  0  0
 20 22  1  0  0  0  0
 21 20  1  0  0  0  0
 22 23  1  0  0  0  0
 24 22  1  0  0  0  0
 25 24  1  0  0  0  0
 26 28  1  0  0  0  0
 26 32  1  0  0  0  0
 26  1  1  0  0  0  0
 27 26  1  0  0  0  0
 29 30  1  0  0  0  0
 30 34  1  0  0  0  0
 31 30  2  0  0  0  0
 31 35  1  0  0  0  0
 32 31  1  0  0  0  0
 33 32  1  0  0  0  0
 33 29  2  0  0  0  0
 36 37  1  0  0  0  0
 36 42  1  0  0  0  0
 37 43  1  0  0  0  0
 38 29  1  0  0  0  0
 38 37  2  0  0  0  0
 39 38  1  0  0  0  0
 40 39  2  0  0  0  0
 40 41  1  0  0  0  0
 41 36  2  0  0  0  0
 44 40  1  0  0  0  0
M  END
>  <minimizedAffinity>
-5.0835433

$$$$

 OpenBabel03272508383D

 44 47  0  0  1  0  0  0  0  0999 V2000
   38.2010   25.6730   34.3610 C   0  0  0  0  0  0  0  0  0  0  0  0
   37.6760   26.0760   35.2770 H   0  0  0  0  0  0  0  0  0  0  0  0
   39.0640   26.3620   34.2390 H   0  0  0  0  0  0  0  0  0  0  0  0
   38.7110   24.4090   34.7030 N   0  0  0  0  0  0  0  0  0  0  0  0
   38.5230   23.3710   33.7570 C   0  0  0  0  0  0  0  0  0  0  0  0
   37.6930   22.2190   34.1800 C   0  0  0  0  0  0  0  0  0  0  0  0
   38.0410   21.8160   35.5010 O   0  0  0  0  0  0  0  0  0  0  0  0
   37.7570   22.8890   36.3230 C   0  0  0  0  0  0  0  0  0  0  0  0
   38.7410   23.9860   36.0300 C   0  0  1  0  0  0  0  0  0  0  0  0
   38.4730   23.6040   32.7080 H   0  0  0  0  0  0  0  0  0  0  0  0
   39.5890   22.9400   33.7860 H   0  0  0  0  0  0  0  0  0  0  0  0
   36.6860   22.0860   33.9190 H   0  0  0  0  0  0  0  0  0  0  0  0
   38.1650   21.3130   33.6120 H   0  0  0  0  0  0  0  0  0  0  0  0
   36.7190   23.1890   36.3920 H   0  0  0  0  0  0  0  0  0  0  0  0
   38.0070   22.5130   37.3660 H   0  0  0  0  0  0  0  0  0  0  0  0
   38.4130   24.8410   36.6930 H   0  0  0  0  0  0  0  0  0  0  0  0
   40.0550   23.6370   36.4490 N   0  0  1  0  0  0  0  0  0  0  0  0
   40.1780   22.7580   37.5410 C   0  0  0  0  0  3  0  0  0  0  0  0
   40.3810   23.3730   38.4590 H   0  0  0  0  0  0  0  0  0  0  0  0
   41.1040   21.6090   37.3920 C   0  0  0  0  0  3  0  0  0  0  0  0
   40.5560   20.6410   37.2000 H   0  0  0  0  0  0  0  0  0  0  0  0
   42.1360   21.7600   36.4050 N   0  0  0  0  0  0  0  0  0  0  0  0
   43.0140   21.2500   36.6510 H   0  0  0  0  0  0  0  0  0  0  0  0
   42.3540   23.1670   36.1770 C   0  0  0  0  0  2  0  0  0  0  0  0
   41.0830   23.6700   35.4810 C   0  0  0  0  0  2  0  0  0  0  0  0
   37.2810   25.7740   33.2400 C   0  0  0  0  0  0  0  0  0  0  0  0
   36.4130   25.1330   33.1280 H   0  0  0  0  0  0  0  0  0  0  0  0
   37.8610   25.6130   32.2910 H   0  0  0  0  0  0  0  0  0  0  0  0
   35.9320   29.0780   33.6040 C   0  0  0  0  0  0  0  0  0  0  0  0
   36.0500   28.9820   32.2520 C   0  0  0  0  0  0  0  0  0  0  0  0
   36.5660   27.7390   31.9510 C   0  0  0  0  0  0  0  0  0  0  0  0
   36.7400   27.1240   33.1300 N   0  0  0  0  0  0  0  0  0  0  0  0
   36.3570   27.9340   34.1130 N   0  0  0  0  0  0  0  0  0  0  0  0
   35.7680   29.7900   31.5460 H   0  0  0  0  0  0  0  0  0  0  0  0
   36.7010   27.5690   30.9040 H   0  0  0  0  0  0  0  0  0  0  0  0
   34.0260   32.1630   34.6350 C   0  0  0  0  0  0  0  0  0  0  0  0
   34.3960   31.0640   33.8890 C   0  0  0  0  0  0  0  0  0  0  0  0
   35.4550   30.2690   34.2910 C   0  0  0  0  0  0  0  0  0  0  0  0
   36.0600   30.6690   35.4400 N   0  0  0  0  0  0  0  0  0  0  0  0
   35.6920   31.7430   36.1600 C   0  0  0  0  0  0  0  0  0  0  0  0
   34.6730   32.4830   35.7460 N   0  0  0  0  0  0  0  0  0  0  0  0
   33.1800   32.6940   34.2020 H   0  0  0  0  0  0  0  0  0  0  0  0
   33.9020   30.7440   32.9590 H   0  0  0  0  0  0  0  0  0  0  0  0
   36.2070   32.0210   37.0700 H   0  0  0  0  0  0  0  0  0  0  0  0
  1  4  1  0  0  0  0
  1  2  1  0  0  0  0
  3  1  1  0  0  0  0
  4  9  1  0  0  0  0
  5 11  1  0  0  0  0
  5  6  1  0  0  0  0
  5  4  1  0  0  0  0
  6  7  1  0  0  0  0
  7  8  1  0  0  0  0
  8 14  1  0  0  0  0
  8 15  1  0  0  0  0
  9  8  1  0  0  0  0
  9 17  1  0  0  0  0
  9 16  1  1  0  0  0
 10  5  1  0  0  0  0
 12  6  1  0  0  0  0
 13  6  1  0  0  0  0
 17 25  1  6  0  0  0
 17 18  1  0  0  0  0
 18 19  1  0  0  0  0
 20 18  1  0  0  0  0
 21 20  1  0  0  0  0
 22 23  1  0  0  0  0
 22 20  1  0  0  0  0
 24 22  1  0  0  0  0
 25 24  1  0  0  0  0
 26  1  1  0  0  0  0
 27 26  1  0  0  0  0
 28 26  1  0  0  0  0
 29 33  2  0  0  0  0
 29 38  1  0  0  0  0
 30 29  1  0  0  0  0
 31 30  2  0  0  0  0
 31 32  1  0  0  0  0
 32 26  1  0  0  0  0
 32 33  1  0  0  0  0
 34 30  1  0  0  0  0
 35 31  1  0  0  0  0
 36 41  1  0  0  0  0
 37 38  1  0  0  0  0
 37 36  2  0  0  0  0
 38 39  2  0  0  0  0
 39 40  1  0  0  0  0
 40 44  1  0  0  0  0
 41 40  2  0  0  0  0
 42 36  1  0  0  0  0
 43 37  1  0  0  0  0
M  END
>  <minimizedAffinity>
-5.07830048

$$$$
