
 OpenBabel03272509463D

 25 26  0  0  0  0  0  0  0  0999 V2000
   33.7740   28.7370   49.5110 C   0  0  0  0  0  0  0  0  0  0  0  0
   33.3170   28.6080   50.5470 H   0  0  0  0  0  0  0  0  0  0  0  0
   33.7120   29.8170   49.3330 H   0  0  0  0  0  0  0  0  0  0  0  0
   33.0010   27.8890   48.5250 C   0  0  0  0  0  0  0  0  0  0  0  0
   32.4340   27.0730   48.9840 H   0  0  0  0  0  0  0  0  0  0  0  0
   32.2820   28.5530   48.0020 H   0  0  0  0  0  0  0  0  0  0  0  0
   33.9350   27.4200   47.5150 N   0  0  0  0  0  0  0  0  0  0  0  0
   33.6550   26.0460   47.1370 C   0  0  0  0  0  3  0  0  0  0  0  0
   34.6460   25.5060   47.0400 H   0  0  0  0  0  0  0  0  0  0  0  0
   32.9600   25.8670   45.8420 C   0  0  0  0  0  3  0  0  0  0  0  0
   33.6900   25.9370   44.9930 H   0  0  0  0  0  0  0  0  0  0  0  0
   31.9610   26.8580   45.6410 N   0  0  0  0  0  0  0  0  0  0  0  0
   31.1370   26.8410   46.2390 H   0  0  0  0  0  0  0  0  0  0  0  0
   32.5530   28.1570   45.5950 C   0  0  0  0  0  2  0  0  0  0  0  0
   33.8710   28.2690   46.3250 C   0  0  0  0  0  2  0  0  0  0  0  0
   35.0920   28.2430   49.6330 O   0  0  0  0  0  0  0  0  0  0  0  0
   37.4720   30.3390   51.3640 C   0  0  0  0  0  0  0  0  0  0  0  0
   38.1500   30.8810   50.2800 C   0  0  0  0  0  0  0  0  0  0  0  0
   37.7570   30.4990   48.9860 C   0  0  0  0  0  0  0  0  0  0  0  0
   36.7230   29.6130   48.8860 N   0  0  0  0  0  0  0  0  0  0  0  0
   36.0950   29.1140   49.9670 C   0  0  0  0  0  0  0  0  0  0  0  0
   36.4750   29.4820   51.2190 N   0  0  0  0  0  0  0  0  0  0  0  0
   37.6740   30.5440   52.4140 H   0  0  0  0  0  0  0  0  0  0  0  0
   38.9490   31.5710   50.4860 H   0  0  0  0  0  0  0  0  0  0  0  0
   38.2790   30.9160   48.1390 H   0  0  0  0  0  0  0  0  0  0  0  0
  1 16  1  0  0  0  0
  1  2  1  0  0  0  0
  3  1  1  0  0  0  0
  4  5  1  0  0  0  0
  4  1  1  0  0  0  0
  6  4  1  0  0  0  0
  7  4  1  0  0  0  0
  8  7  1  0  0  0  0
  9  8  1  0  0  0  0
 10  8  1  0  0  0  0
 11 10  1  0  0  0  0
 12 10  1  0  0  0  0
 12 13  1  0  0  0  0
 14 12  1  0  0  0  0
 14 15  1  0  0  0  0
 15  7  1  0  0  0  0
 16 21  1  0  0  0  0
 17 23  1  0  0  0  0
 18 24  1  0  0  0  0
 18 17  2  0  0  0  0
 19 18  1  0  0  0  0
 20 19  2  0  0  0  0
 20 21  1  0  0  0  0
 21 22  2  0  0  0  0
 22 17  1  0  0  0  0
 25 19  1  0  0  0  0
M  END
>  <minimizedAffinity>
-3.73010993

>  <minimizedRMSD>
1.99622726

$$$$
