
 OpenBabel03262523453D

 28 30  0  0  0  0  0  0  0  0999 V2000
   36.3330   24.2820   30.6800 Cl  0  0  0  0  0  0  0  0  0  0  0  0
   37.0320   24.0840   32.2560 C   0  0  0  0  0  0  0  0  0  0  0  0
   37.2810   22.8180   32.7670 C   0  0  0  0  0  0  0  0  0  0  0  0
   37.8390   22.7360   34.0240 C   0  0  0  0  0  0  0  0  0  0  0  0
   38.1470   23.8670   34.7680 C   0  0  0  0  0  0  0  0  0  0  0  0
   37.8770   25.1160   34.2120 C   0  0  0  0  0  0  0  0  0  0  0  0
   38.2950   26.4860   35.2140 Cl  0  0  0  0  0  0  0  0  0  0  0  0
   37.3230   25.2390   32.9640 C   0  0  0  0  0  0  0  0  0  0  0  0
   38.0210   21.7360   34.3930 H   0  0  0  0  0  0  0  0  0  0  0  0
   37.1470   26.2330   32.6080 H   0  0  0  0  0  0  0  0  0  0  0  0
   35.4170   19.8870   31.2600 C   0  0  0  0  0  0  0  0  0  0  0  0
   35.7410   20.9800   32.0790 C   0  0  0  0  0  0  0  0  0  0  0  0
   36.9310   21.6850   31.9270 C   0  0  0  0  0  0  0  0  0  0  0  0
   37.7630   21.2470   30.9340 N   0  0  0  0  0  0  0  0  0  0  0  0
   37.4460   20.1980   30.1530 C   0  0  0  0  0  0  0  0  0  0  0  0
   36.2980   19.5280   30.3090 N   0  0  0  0  0  0  0  0  0  0  0  0
   34.4590   19.4320   31.4880 H   0  0  0  0  0  0  0  0  0  0  0  0
   35.1100   21.3610   32.8800 H   0  0  0  0  0  0  0  0  0  0  0  0
   38.0630   19.8150   29.3600 H   0  0  0  0  0  0  0  0  0  0  0  0
   38.7170   23.6240   36.0480 N   0  0  0  0  0  0  0  0  0  0  0  0
   40.1280   23.4730   36.2460 C   0  0  0  0  0  3  0  0  0  0  0  0
   40.6400   23.0630   35.3500 H   0  0  0  0  0  0  0  0  0  0  0  0
   40.3480   22.4820   37.3520 C   0  0  0  0  0  3  0  0  0  0  0  0
   40.0160   21.4670   36.9940 H   0  0  0  0  0  0  0  0  0  0  0  0
   39.6760   22.7580   38.5730 N   0  0  0  0  0  0  0  0  0  0  0  0
   40.2830   23.0680   39.3510 H   0  0  0  0  0  0  0  0  0  0  0  0
   38.4830   23.5320   38.4920 C   0  0  0  0  0  2  0  0  0  0  0  0
   37.8170   23.5350   37.1570 C   0  0  0  0  0  2  0  0  0  0  0  0
  1  2  1  0  0  0  0
  2  3  2  0  0  0  0
  2  8  1  0  0  0  0
  3  4  1  0  0  0  0
  4  9  1  0  0  0  0
  4  5  2  0  0  0  0
  5 20  1  0  0  0  0
  6  5  1  0  0  0  0
  6  7  1  0  0  0  0
  8  6  2  0  0  0  0
 10  8  1  0  0  0  0
 11 17  1  0  0  0  0
 11 12  1  0  0  0  0
 12 18  1  0  0  0  0
 13 12  2  0  0  0  0
 13  3  1  0  0  0  0
 14 13  1  0  0  0  0
 15 16  1  0  0  0  0
 15 14  2  0  0  0  0
 16 11  2  0  0  0  0
 19 15  1  0  0  0  0
 20 21  1  0  0  0  0
 20 28  1  0  0  0  0
 21 23  1  0  0  0  0
 22 21  1  0  0  0  0
 23 25  1  0  0  0  0
 24 23  1  0  0  0  0
 25 26  1  0  0  0  0
 27 25  1  0  0  0  0
 28 27  1  0  0  0  0
M  END
>  <minimizedAffinity>
-5.41788912

$$$$

 OpenBabel03262523453D

 28 30  0  0  0  0  0  0  0  0999 V2000
   36.1420   25.5100   30.8450 Cl  0  0  0  0  0  0  0  0  0  0  0  0
   36.9120   24.9950   32.3130 C   0  0  0  0  0  0  0  0  0  0  0  0
   37.1870   25.9040   33.3250 C   0  0  0  0  0  0  0  0  0  0  0  0
   37.7990   25.4250   34.4620 C   0  0  0  0  0  0  0  0  0  0  0  0
   38.1350   24.0860   34.6100 C   0  0  0  0  0  0  0  0  0  0  0  0
   37.8380   23.2130   33.5650 C   0  0  0  0  0  0  0  0  0  0  0  0
   38.2930   21.5460   33.8320 Cl  0  0  0  0  0  0  0  0  0  0  0  0
   37.2300   23.6520   32.4170 C   0  0  0  0  0  0  0  0  0  0  0  0
   38.0000   26.1580   35.2320 H   0  0  0  0  0  0  0  0  0  0  0  0
   37.0350   22.9180   31.6620 H   0  0  0  0  0  0  0  0  0  0  0  0
   35.7350   29.3680   33.7960 C   0  0  0  0  0  0  0  0  0  0  0  0
   36.0980   28.0340   34.0330 C   0  0  0  0  0  0  0  0  0  0  0  0
   36.8040   27.2870   33.0950 C   0  0  0  0  0  0  0  0  0  0  0  0
   37.1210   27.9330   31.9320 N   0  0  0  0  0  0  0  0  0  0  0  0
   36.7690   29.2130   31.7120 C   0  0  0  0  0  0  0  0  0  0  0  0
   36.0890   29.9210   32.6230 N   0  0  0  0  0  0  0  0  0  0  0  0
   35.1880   29.8300   34.6120 H   0  0  0  0  0  0  0  0  0  0  0  0
   35.8660   27.4820   34.9430 H   0  0  0  0  0  0  0  0  0  0  0  0
   36.9930   29.7660   30.8180 H   0  0  0  0  0  0  0  0  0  0  0  0
   38.7620   23.7410   35.8390 N   0  0  0  0  0  0  0  0  0  0  0  0
   40.1820   23.5940   35.9640 C   0  0  0  0  0  3  0  0  0  0  0  0
   40.6590   23.2700   35.0150 H   0  0  0  0  0  0  0  0  0  0  0  0
   40.4590   22.5130   36.9690 C   0  0  0  0  0  3  0  0  0  0  0  0
   40.1230   21.5290   36.5370 H   0  0  0  0  0  0  0  0  0  0  0  0
   39.8370   22.6720   38.2360 N   0  0  0  0  0  0  0  0  0  0  0  0
   40.4730   22.9220   39.0120 H   0  0  0  0  0  0  0  0  0  0  0  0
   38.6330   23.4320   38.2720 C   0  0  0  0  0  2  0  0  0  0  0  0
   37.9100   23.5420   36.9710 C   0  0  0  0  0  2  0  0  0  0  0  0
  1  2  1  0  0  0  0
  2  8  2  0  0  0  0
  2  3  1  0  0  0  0
  3  4  2  0  0  0  0
  4  5  1  0  0  0  0
  4  9  1  0  0  0  0
  5 20  1  0  0  0  0
  6  7  1  0  0  0  0
  6  5  2  0  0  0  0
  8  6  1  0  0  0  0
 10  8  1  0  0  0  0
 11 12  1  0  0  0  0
 11 17  1  0  0  0  0
 12 18  1  0  0  0  0
 13  3  1  0  0  0  0
 13 12  2  0  0  0  0
 14 13  1  0  0  0  0
 15 14  2  0  0  0  0
 15 16  1  0  0  0  0
 16 11  2  0  0  0  0
 19 15  1  0  0  0  0
 20 21  1  0  0  0  0
 20 28  1  0  0  0  0
 21 23  1  0  0  0  0
 22 21  1  0  0  0  0
 23 25  1  0  0  0  0
 24 23  1  0  0  0  0
 25 27  1  0  0  0  0
 25 26  1  0  0  0  0
 28 27  1  0  0  0  0
M  END
>  <minimizedAffinity>
-5.23912954

$$$$

 OpenBabel03262523453D

 28 30  0  0  0  0  0  0  0  0999 V2000
   39.2020   26.0750   34.9750 Cl  0  0  0  0  0  0  0  0  0  0  0  0
   38.4620   24.7550   34.1260 C   0  0  0  0  0  0  0  0  0  0  0  0
   38.1440   23.5770   34.7860 C   0  0  0  0  0  0  0  0  0  0  0  0
   37.5570   22.5710   34.0500 C   0  0  0  0  0  0  0  0  0  0  0  0
   37.2860   22.7120   32.6960 C   0  0  0  0  0  0  0  0  0  0  0  0
   37.6240   23.9150   32.0780 C   0  0  0  0  0  0  0  0  0  0  0  0
   37.2470   24.0100   30.3730 Cl  0  0  0  0  0  0  0  0  0  0  0  0
   38.2090   24.9390   32.7770 C   0  0  0  0  0  0  0  0  0  0  0  0
   37.3230   21.6660   34.5930 H   0  0  0  0  0  0  0  0  0  0  0  0
   38.4370   25.8300   32.2300 H   0  0  0  0  0  0  0  0  0  0  0  0
   39.9200   22.8600   38.0530 C   0  0  0  0  0  0  0  0  0  0  0  0
   39.6290   22.9210   36.6820 C   0  0  0  0  0  0  0  0  0  0  0  0
   38.4600   23.5060   36.2040 C   0  0  0  0  0  0  0  0  0  0  0  0
   37.6150   24.0150   37.1510 N   0  0  0  0  0  0  0  0  0  0  0  0
   37.9010   23.9530   38.4640 C   0  0  0  0  0  0  0  0  0  0  0  0
   39.0290   23.3870   38.9110 N   0  0  0  0  0  0  0  0  0  0  0  0
   40.8640   22.3780   38.2840 H   0  0  0  0  0  0  0  0  0  0  0  0
   40.2720   22.5290   35.8950 H   0  0  0  0  0  0  0  0  0  0  0  0
   37.2730   24.3370   39.2480 H   0  0  0  0  0  0  0  0  0  0  0  0
   36.6780   21.5890   32.0700 N   0  0  0  0  0  0  0  0  0  0  0  0
   35.2580   21.4090   32.0230 C   0  0  0  0  0  3  0  0  0  0  0  0
   34.7420   21.8790   32.8880 H   0  0  0  0  0  0  0  0  0  0  0  0
   34.9630   19.9390   32.1010 C   0  0  0  0  0  3  0  0  0  0  0  0
   35.2480   19.5710   33.1260 H   0  0  0  0  0  0  0  0  0  0  0  0
   35.6250   19.1240   31.1430 N   0  0  0  0  0  0  0  0  0  0  0  0
   35.0200   18.7390   30.3980 H   0  0  0  0  0  0  0  0  0  0  0  0
   36.8590   19.6110   30.6250 C   0  0  0  0  0  2  0  0  0  0  0  0
   37.5500   20.6240   31.4750 C   0  0  0  0  0  2  0  0  0  0  0  0
  2  3  1  0  0  0  0
  2  1  1  0  0  0  0
  3 13  1  0  0  0  0
  4  9  1  0  0  0  0
  4  3  2  0  0  0  0
  5  4  1  0  0  0  0
  6  5  2  0  0  0  0
  6  8  1  0  0  0  0
  7  6  1  0  0  0  0
  8  2  2  0  0  0  0
 10  8  1  0  0  0  0
 11 17  1  0  0  0  0
 11 16  1  0  0  0  0
 12 11  2  0  0  0  0
 13 12  1  0  0  0  0
 13 14  2  0  0  0  0
 14 15  1  0  0  0  0
 15 16  2  0  0  0  0
 15 19  1  0  0  0  0
 18 12  1  0  0  0  0
 20  5  1  0  0  0  0
 21 20  1  0  0  0  0
 21 23  1  0  0  0  0
 21 22  1  0  0  0  0
 23 24  1  0  0  0  0
 25 23  1  0  0  0  0
 26 25  1  0  0  0  0
 27 25  1  0  0  0  0
 27 28  1  0  0  0  0
 28 20  1  0  0  0  0
M  END
>  <minimizedAffinity>
-5.10547924

$$$$

 OpenBabel03262523453D

 28 30  0  0  0  0  0  0  0  0999 V2000
   35.6070   32.7450   32.2940 Cl  0  0  0  0  0  0  0  0  0  0  0  0
   35.8880   31.0460   32.0740 C   0  0  0  0  0  0  0  0  0  0  0  0
   35.5930   30.1430   33.0860 C   0  0  0  0  0  0  0  0  0  0  0  0
   35.8400   28.8100   32.8420 C   0  0  0  0  0  0  0  0  0  0  0  0
   36.3650   28.3670   31.6350 C   0  0  0  0  0  0  0  0  0  0  0  0
   36.6440   29.3130   30.6510 C   0  0  0  0  0  0  0  0  0  0  0  0
   37.3000   28.6710   29.1620 Cl  0  0  0  0  0  0  0  0  0  0  0  0
   36.4110   30.6490   30.8560 C   0  0  0  0  0  0  0  0  0  0  0  0
   35.6010   28.1320   33.6500 H   0  0  0  0  0  0  0  0  0  0  0  0
   36.6520   31.3110   30.0500 H   0  0  0  0  0  0  0  0  0  0  0  0
   35.3100   31.7280   36.5130 C   0  0  0  0  0  0  0  0  0  0  0  0
   35.8520   31.2090   35.3270 C   0  0  0  0  0  0  0  0  0  0  0  0
   35.0470   30.6850   34.3190 C   0  0  0  0  0  0  0  0  0  0  0  0
   33.7010   30.7060   34.5570 N   0  0  0  0  0  0  0  0  0  0  0  0
   33.1890   31.2060   35.6970 C   0  0  0  0  0  0  0  0  0  0  0  0
   33.9740   31.7070   36.6580 N   0  0  0  0  0  0  0  0  0  0  0  0
   36.0510   32.1040   37.2100 H   0  0  0  0  0  0  0  0  0  0  0  0
   36.9160   31.1720   35.0970 H   0  0  0  0  0  0  0  0  0  0  0  0
   32.1410   31.2470   35.9320 H   0  0  0  0  0  0  0  0  0  0  0  0
   36.5660   26.9630   31.5300 N   0  0  0  0  0  0  0  0  0  0  0  0
   37.8170   26.3400   31.8430 C   0  0  0  0  0  3  0  0  0  0  0  0
   38.6820   27.0150   31.6700 H   0  0  0  0  0  0  0  0  0  0  0  0
   38.0040   25.1650   30.9260 C   0  0  0  0  0  3  0  0  0  0  0  0
   38.1490   25.5500   29.8780 H   0  0  0  0  0  0  0  0  0  0  0  0
   36.9420   24.2220   30.9040 N   0  0  0  0  0  0  0  0  0  0  0  0
   37.1470   23.3160   31.3570 H   0  0  0  0  0  0  0  0  0  0  0  0
   35.6450   24.7040   31.2440 C   0  0  0  0  0  2  0  0  0  0  0  0
   35.4540   26.1760   31.0940 C   0  0  0  0  0  2  0  0  0  0  0  0
  2  1  1  0  0  0  0
  2  3  1  0  0  0  0
  3 13  1  0  0  0  0
  4  3  2  0  0  0  0
  4  9  1  0  0  0  0
  5  4  1  0  0  0  0
  6  8  1  0  0  0  0
  6  5  2  0  0  0  0
  7  6  1  0  0  0  0
  8  2  2  0  0  0  0
 10  8  1  0  0  0  0
 11 16  1  0  0  0  0
 11 17  1  0  0  0  0
 12 11  2  0  0  0  0
 13 14  2  0  0  0  0
 13 12  1  0  0  0  0
 14 15  1  0  0  0  0
 15 19  1  0  0  0  0
 15 16  2  0  0  0  0
 18 12  1  0  0  0  0
 20  5  1  0  0  0  0
 20 21  1  0  0  0  0
 22 21  1  0  0  0  0
 23 21  1  0  0  0  0
 24 23  1  0  0  0  0
 25 23  1  0  0  0  0
 25 27  1  0  0  0  0
 25 26  1  0  0  0  0
 28 27  1  0  0  0  0
 28 20  1  0  0  0  0
M  END
>  <minimizedAffinity>
-4.83961248

$$$$

 OpenBabel03262523453D

 28 30  0  0  0  0  0  0  0  0999 V2000
   35.2900   30.1410   31.6460 Cl  0  0  0  0  0  0  0  0  0  0  0  0
   36.2830   28.9790   32.4680 C   0  0  0  0  0  0  0  0  0  0  0  0
   36.2030   28.8270   33.8450 C   0  0  0  0  0  0  0  0  0  0  0  0
   37.0210   27.8850   34.4300 C   0  0  0  0  0  0  0  0  0  0  0  0
   37.8990   27.1080   33.6870 C   0  0  0  0  0  0  0  0  0  0  0  0
   37.9420   27.2980   32.3070 C   0  0  0  0  0  0  0  0  0  0  0  0
   39.0730   26.2790   31.4480 Cl  0  0  0  0  0  0  0  0  0  0  0  0
   37.1440   28.2260   31.6880 C   0  0  0  0  0  0  0  0  0  0  0  0
   36.9350   27.7910   35.5040 H   0  0  0  0  0  0  0  0  0  0  0  0
   37.2370   28.3110   30.6250 H   0  0  0  0  0  0  0  0  0  0  0  0
   34.7300   31.6420   35.9030 C   0  0  0  0  0  0  0  0  0  0  0  0
   35.6520   30.8310   35.2250 C   0  0  0  0  0  0  0  0  0  0  0  0
   35.2600   29.6770   34.5520 C   0  0  0  0  0  0  0  0  0  0  0  0
   33.9250   29.3840   34.5940 N   0  0  0  0  0  0  0  0  0  0  0  0
   33.0470   30.1670   35.2470 C   0  0  0  0  0  0  0  0  0  0  0  0
   33.4360   31.2740   35.8910 N   0  0  0  0  0  0  0  0  0  0  0  0
   35.1720   32.5090   36.3830 H   0  0  0  0  0  0  0  0  0  0  0  0
   36.7220   31.0260   35.1660 H   0  0  0  0  0  0  0  0  0  0  0  0
   31.9900   29.9820   35.3100 H   0  0  0  0  0  0  0  0  0  0  0  0
   38.6780   26.1790   34.4300 N   0  0  0  0  0  0  0  0  0  0  0  0
   39.9880   26.4910   34.9200 C   0  0  0  0  0  3  0  0  0  0  0  0
   40.5120   27.2350   34.2830 H   0  0  0  0  0  0  0  0  0  0  0  0
   40.8180   25.2400   34.8840 C   0  0  0  0  0  3  0  0  0  0  0  0
   40.9930   24.9580   33.8080 H   0  0  0  0  0  0  0  0  0  0  0  0
   40.2670   24.1130   35.5500 N   0  0  0  0  0  0  0  0  0  0  0  0
   40.7350   23.8490   36.4330 H   0  0  0  0  0  0  0  0  0  0  0  0
   38.8480   24.0630   35.6670 C   0  0  0  0  0  2  0  0  0  0  0  0
   38.0990   24.8940   34.6800 C   0  0  0  0  0  2  0  0  0  0  0  0
  1  2  1  0  0  0  0
  2  3  1  0  0  0  0
  3  4  2  0  0  0  0
  3 13  1  0  0  0  0
  4  9  1  0  0  0  0
  5  4  1  0  0  0  0
  5 20  1  0  0  0  0
  6  5  2  0  0  0  0
  7  6  1  0  0  0  0
  8  6  1  0  0  0  0
  8  2  2  0  0  0  0
 10  8  1  0  0  0  0
 11 17  1  0  0  0  0
 12 11  2  0  0  0  0
 13 14  2  0  0  0  0
 13 12  1  0  0  0  0
 14 15  1  0  0  0  0
 15 19  1  0  0  0  0
 15 16  2  0  0  0  0
 16 11  1  0  0  0  0
 18 12  1  0  0  0  0
 20 28  1  0  0  0  0
 20 21  1  0  0  0  0
 22 21  1  0  0  0  0
 23 21  1  0  0  0  0
 23 25  1  0  0  0  0
 24 23  1  0  0  0  0
 25 27  1  0  0  0  0
 25 26  1  0  0  0  0
 28 27  1  0  0  0  0
M  END
>  <minimizedAffinity>
-4.76014376

$$$$

 OpenBabel03262523453D

 28 30  0  0  0  0  0  0  0  0999 V2000
   37.9140   27.0990   31.1630 Cl  0  0  0  0  0  0  0  0  0  0  0  0
   37.0050   28.0650   32.2830 C   0  0  0  0  0  0  0  0  0  0  0  0
   37.0850   27.8300   33.6480 C   0  0  0  0  0  0  0  0  0  0  0  0
   36.3380   28.6360   34.4780 C   0  0  0  0  0  0  0  0  0  0  0  0
   35.5270   29.6510   33.9860 C   0  0  0  0  0  0  0  0  0  0  0  0
   35.4800   29.8460   32.6070 C   0  0  0  0  0  0  0  0  0  0  0  0
   34.4380   31.1440   32.0720 Cl  0  0  0  0  0  0  0  0  0  0  0  0
   36.2100   29.0650   31.7490 C   0  0  0  0  0  0  0  0  0  0  0  0
   36.4210   28.4280   35.5360 H   0  0  0  0  0  0  0  0  0  0  0  0
   36.1200   29.2800   30.7040 H   0  0  0  0  0  0  0  0  0  0  0  0
   40.1000   25.9120   34.8990 C   0  0  0  0  0  0  0  0  0  0  0  0
   39.2720   26.9640   34.4800 C   0  0  0  0  0  0  0  0  0  0  0  0
   37.9550   26.7510   34.0850 C   0  0  0  0  0  0  0  0  0  0  0  0
   37.5200   25.4550   34.1280 N   0  0  0  0  0  0  0  0  0  0  0  0
   38.3200   24.4510   34.5300 C   0  0  0  0  0  0  0  0  0  0  0  0
   39.5860   24.6690   34.9090 N   0  0  0  0  0  0  0  0  0  0  0  0
   41.1020   26.2210   35.1790 H   0  0  0  0  0  0  0  0  0  0  0  0
   39.5770   28.0090   34.4300 H   0  0  0  0  0  0  0  0  0  0  0  0
   38.0280   23.4170   34.5830 H   0  0  0  0  0  0  0  0  0  0  0  0
   34.8150   30.3980   34.9640 N   0  0  0  0  0  0  0  0  0  0  0  0
   33.4220   30.1910   35.2270 C   0  0  0  0  0  3  0  0  0  0  0  0
   32.8730   29.8250   34.3350 H   0  0  0  0  0  0  0  0  0  0  0  0
   32.8080   31.5120   35.5920 C   0  0  0  0  0  3  0  0  0  0  0  0
   32.8140   32.1730   34.6810 H   0  0  0  0  0  0  0  0  0  0  0  0
   33.4400   32.2170   36.6510 N   0  0  0  0  0  0  0  0  0  0  0  0
   32.9120   32.2450   37.5400 H   0  0  0  0  0  0  0  0  0  0  0  0
   34.8230   31.9540   36.8650 C   0  0  0  0  0  2  0  0  0  0  0  0
   35.5510   31.3850   35.6940 C   0  0  0  0  0  2  0  0  0  0  0  0
  1  2  1  0  0  0  0
  2  3  1  0  0  0  0
  3 13  1  0  0  0  0
  3  4  2  0  0  0  0
  4  9  1  0  0  0  0
  5  4  1  0  0  0  0
  5 20  1  0  0  0  0
  6  5  2  0  0  0  0
  7  6  1  0  0  0  0
  8  2  2  0  0  0  0
  8  6  1  0  0  0  0
 10  8  1  0  0  0  0
 11 16  1  0  0  0  0
 11 17  1  0  0  0  0
 12 11  2  0  0  0  0
 13 14  2  0  0  0  0
 13 12  1  0  0  0  0
 14 15  1  0  0  0  0
 15 19  1  0  0  0  0
 15 16  2  0  0  0  0
 18 12  1  0  0  0  0
 20 21  1  0  0  0  0
 20 28  1  0  0  0  0
 21 23  1  0  0  0  0
 22 21  1  0  0  0  0
 23 25  1  0  0  0  0
 24 23  1  0  0  0  0
 25 27  1  0  0  0  0
 25 26  1  0  0  0  0
 28 27  1  0  0  0  0
M  END
>  <minimizedAffinity>
-4.71701956

$$$$

 OpenBabel03262523453D

 28 30  0  0  0  0  0  0  0  0999 V2000
   39.3040   27.5060   31.0560 Cl  0  0  0  0  0  0  0  0  0  0  0  0
   39.2690   26.4850   32.4600 C   0  0  0  0  0  0  0  0  0  0  0  0
   39.5730   25.1350   32.3610 C   0  0  0  0  0  0  0  0  0  0  0  0
   39.5270   24.3850   33.5160 C   0  0  0  0  0  0  0  0  0  0  0  0
   39.1900   24.9420   34.7420 C   0  0  0  0  0  0  0  0  0  0  0  0
   38.8930   26.3030   34.7900 C   0  0  0  0  0  0  0  0  0  0  0  0
   38.4820   26.9230   36.3720 Cl  0  0  0  0  0  0  0  0  0  0  0  0
   38.9290   27.0820   33.6620 C   0  0  0  0  0  0  0  0  0  0  0  0
   39.7670   23.3360   33.4060 H   0  0  0  0  0  0  0  0  0  0  0  0
   38.6890   28.1180   33.7820 H   0  0  0  0  0  0  0  0  0  0  0  0
   39.3060   23.6330   28.8960 C   0  0  0  0  0  0  0  0  0  0  0  0
   38.9610   24.1200   30.1660 C   0  0  0  0  0  0  0  0  0  0  0  0
   39.9150   24.6270   31.0420 C   0  0  0  0  0  0  0  0  0  0  0  0
   41.2060   24.6210   30.5920 N   0  0  0  0  0  0  0  0  0  0  0  0
   41.5290   24.1520   29.3720 C   0  0  0  0  0  0  0  0  0  0  0  0
   40.6020   23.6660   28.5380 N   0  0  0  0  0  0  0  0  0  0  0  0
   38.4640   23.2690   28.3170 H   0  0  0  0  0  0  0  0  0  0  0  0
   37.9480   24.1430   30.5640 H   0  0  0  0  0  0  0  0  0  0  0  0
   42.5260   24.1240   28.9710 H   0  0  0  0  0  0  0  0  0  0  0  0
   39.1840   24.0430   35.8450 N   0  0  0  0  0  0  0  0  0  0  0  0
   37.9790   23.6630   36.5210 C   0  0  0  0  0  3  0  0  0  0  0  0
   37.2000   24.4530   36.4750 H   0  0  0  0  0  0  0  0  0  0  0  0
   38.2960   23.4610   37.9750 C   0  0  0  0  0  3  0  0  0  0  0  0
   38.5540   24.4600   38.4260 H   0  0  0  0  0  0  0  0  0  0  0  0
   39.3590   22.5630   38.2580 N   0  0  0  0  0  0  0  0  0  0  0  0
   39.0750   21.6570   38.6660 H   0  0  0  0  0  0  0  0  0  0  0  0
   40.3520   22.4020   37.2500 C   0  0  0  0  0  2  0  0  0  0  0  0
   40.4470   23.5190   36.2660 C   0  0  0  0  0  2  0  0  0  0  0  0
  1  2  1  0  0  0  0
  2  8  1  0  0  0  0
  3  2  2  0  0  0  0
  3  4  1  0  0  0  0
  4  5  2  0  0  0  0
  5  6  1  0  0  0  0
  5 20  1  0  0  0  0
  6  7  1  0  0  0  0
  8 10  1  0  0  0  0
  8  6  2  0  0  0  0
  9  4  1  0  0  0  0
 11 12  1  0  0  0  0
 12 18  1  0  0  0  0
 12 13  2  0  0  0  0
 13  3  1  0  0  0  0
 14 13  1  0  0  0  0
 15 14  2  0  0  0  0
 16 11  2  0  0  0  0
 16 15  1  0  0  0  0
 17 11  1  0  0  0  0
 19 15  1  0  0  0  0
 20 28  1  0  0  0  0
 20 21  1  0  0  0  0
 21 23  1  0  0  0  0
 22 21  1  0  0  0  0
 23 25  1  0  0  0  0
 23 24  1  0  0  0  0
 25 26  1  0  0  0  0
 27 25  1  0  0  0  0
 28 27  1  0  0  0  0
M  END
>  <minimizedAffinity>
-4.65309143

$$$$

 OpenBabel03262523453D

 28 30  0  0  0  0  0  0  0  0999 V2000
   37.6110   28.9350   30.9930 Cl  0  0  0  0  0  0  0  0  0  0  0  0
   37.8390   27.5910   32.0690 C   0  0  0  0  0  0  0  0  0  0  0  0
   37.0100   27.4150   33.1680 C   0  0  0  0  0  0  0  0  0  0  0  0
   37.2480   26.3260   33.9770 C   0  0  0  0  0  0  0  0  0  0  0  0
   38.2740   25.4270   33.7200 C   0  0  0  0  0  0  0  0  0  0  0  0
   39.0790   25.6470   32.6040 C   0  0  0  0  0  0  0  0  0  0  0  0
   40.3450   24.4690   32.3520 Cl  0  0  0  0  0  0  0  0  0  0  0  0
   38.8740   26.7200   31.7740 C   0  0  0  0  0  0  0  0  0  0  0  0
   36.5850   26.2170   34.8250 H   0  0  0  0  0  0  0  0  0  0  0  0
   39.5350   26.8180   30.9380 H   0  0  0  0  0  0  0  0  0  0  0  0
   34.9640   30.2630   34.5950 C   0  0  0  0  0  0  0  0  0  0  0  0
   35.9860   29.3190   34.4120 C   0  0  0  0  0  0  0  0  0  0  0  0
   35.9590   28.3990   33.3690 C   0  0  0  0  0  0  0  0  0  0  0  0
   34.8770   28.4710   32.5350 N   0  0  0  0  0  0  0  0  0  0  0  0
   33.9010   29.3790   32.7170 C   0  0  0  0  0  0  0  0  0  0  0  0
   33.9380   30.2590   33.7250 N   0  0  0  0  0  0  0  0  0  0  0  0
   35.1130   30.9190   35.4460 H   0  0  0  0  0  0  0  0  0  0  0  0
   36.8630   29.2270   35.0520 H   0  0  0  0  0  0  0  0  0  0  0  0
   33.0320   29.4780   32.0920 H   0  0  0  0  0  0  0  0  0  0  0  0
   38.3970   24.3530   34.6440 N   0  0  0  0  0  0  0  0  0  0  0  0
   39.0340   24.5030   35.9180 C   0  0  0  0  0  3  0  0  0  0  0  0
   39.8190   25.2890   35.9090 H   0  0  0  0  0  0  0  0  0  0  0  0
   39.7260   23.2140   36.2570 C   0  0  0  0  0  3  0  0  0  0  0  0
   40.5840   23.0710   35.5420 H   0  0  0  0  0  0  0  0  0  0  0  0
   38.9180   22.0480   36.2120 N   0  0  0  0  0  0  0  0  0  0  0  0
   38.6890   21.6330   37.1310 H   0  0  0  0  0  0  0  0  0  0  0  0
   37.7850   22.0810   35.3490 C   0  0  0  0  0  2  0  0  0  0  0  0
   37.8500   23.0900   34.2520 C   0  0  0  0  0  2  0  0  0  0  0  0
  1  2  1  0  0  0  0
  2  3  1  0  0  0  0
  3 13  1  0  0  0  0
  3  4  2  0  0  0  0
  4  9  1  0  0  0  0
  5  4  1  0  0  0  0
  5 20  1  0  0  0  0
  6  5  2  0  0  0  0
  7  6  1  0  0  0  0
  8  2  2  0  0  0  0
  8  6  1  0  0  0  0
 10  8  1  0  0  0  0
 11 17  1  0  0  0  0
 12 11  1  0  0  0  0
 12 18  1  0  0  0  0
 13 12  2  0  0  0  0
 14 15  2  0  0  0  0
 14 13  1  0  0  0  0
 15 16  1  0  0  0  0
 16 11  2  0  0  0  0
 19 15  1  0  0  0  0
 20 21  1  0  0  0  0
 21 23  1  0  0  0  0
 22 21  1  0  0  0  0
 24 23  1  0  0  0  0
 25 23  1  0  0  0  0
 25 26  1  0  0  0  0
 27 25  1  0  0  0  0
 28 20  1  0  0  0  0
 28 27  1  0  0  0  0
M  END
>  <minimizedAffinity>
-4.64707232

$$$$

 OpenBabel03262523453D

 28 30  0  0  0  0  0  0  0  0999 V2000
   34.9950   30.6750   31.7230 Cl  0  0  0  0  0  0  0  0  0  0  0  0
   35.9850   29.3990   32.3570 C   0  0  0  0  0  0  0  0  0  0  0  0
   35.9190   29.0510   33.6990 C   0  0  0  0  0  0  0  0  0  0  0  0
   36.7320   28.0270   34.1330 C   0  0  0  0  0  0  0  0  0  0  0  0
   37.5940   27.3570   33.2750 C   0  0  0  0  0  0  0  0  0  0  0  0
   37.6240   27.7430   31.9360 C   0  0  0  0  0  0  0  0  0  0  0  0
   38.7340   26.8480   30.9250 Cl  0  0  0  0  0  0  0  0  0  0  0  0
   36.8290   28.7570   31.4670 C   0  0  0  0  0  0  0  0  0  0  0  0
   36.6580   27.7810   35.1830 H   0  0  0  0  0  0  0  0  0  0  0  0
   36.9110   28.9930   30.4250 H   0  0  0  0  0  0  0  0  0  0  0  0
   32.7630   30.2000   35.4470 C   0  0  0  0  0  0  0  0  0  0  0  0
   33.6460   29.4670   34.6390 C   0  0  0  0  0  0  0  0  0  0  0  0
   34.9930   29.8000   34.5320 C   0  0  0  0  0  0  0  0  0  0  0  0
   35.4010   30.8830   35.2600 N   0  0  0  0  0  0  0  0  0  0  0  0
   34.5490   31.5810   36.0330 C   0  0  0  0  0  0  0  0  0  0  0  0
   33.2550   31.2500   36.1270 N   0  0  0  0  0  0  0  0  0  0  0  0
   31.7430   29.8300   35.4380 H   0  0  0  0  0  0  0  0  0  0  0  0
   33.3630   28.6000   34.0430 H   0  0  0  0  0  0  0  0  0  0  0  0
   34.8180   32.4370   36.6240 H   0  0  0  0  0  0  0  0  0  0  0  0
   38.3710   26.3240   33.8680 N   0  0  0  0  0  0  0  0  0  0  0  0
   37.9480   24.9550   33.8840 C   0  0  0  0  0  3  0  0  0  0  0  0
   36.8420   24.8540   33.8830 H   0  0  0  0  0  0  0  0  0  0  0  0
   38.4310   24.3250   35.1580 C   0  0  0  0  0  3  0  0  0  0  0  0
   37.8750   24.7890   36.0200 H   0  0  0  0  0  0  0  0  0  0  0  0
   39.8230   24.4440   35.4180 N   0  0  0  0  0  0  0  0  0  0  0  0
   40.3670   23.5710   35.3190 H   0  0  0  0  0  0  0  0  0  0  0  0
   40.4940   25.5570   34.8360 C   0  0  0  0  0  2  0  0  0  0  0  0
   39.6170   26.7030   34.4590 C   0  0  0  0  0  2  0  0  0  0  0  0
  1  2  1  0  0  0  0
  2  3  1  0  0  0  0
  3  4  2  0  0  0  0
  3 13  1  0  0  0  0
  4  9  1  0  0  0  0
  5 20  1  0  0  0  0
  5  4  1  0  0  0  0
  6  5  2  0  0  0  0
  7  6  1  0  0  0  0
  8  6  1  0  0  0  0
  8  2  2  0  0  0  0
 10  8  1  0  0  0  0
 11 16  1  0  0  0  0
 12 11  2  0  0  0  0
 13 12  1  0  0  0  0
 13 14  2  0  0  0  0
 14 15  1  0  0  0  0
 15 16  2  0  0  0  0
 15 19  1  0  0  0  0
 17 11  1  0  0  0  0
 18 12  1  0  0  0  0
 20 21  1  0  0  0  0
 20 28  1  0  0  0  0
 21 23  1  0  0  0  0
 22 21  1  0  0  0  0
 23 25  1  0  0  0  0
 23 24  1  0  0  0  0
 26 25  1  0  0  0  0
 27 25  1  0  0  0  0
 28 27  1  0  0  0  0
M  END
>  <minimizedAffinity>
-4.64351559

$$$$
