
 OpenBabel03272506453D

 42 45  0  0  1  0  0  0  0  0999 V2000
   32.2100   28.5570   47.4090 C   0  0  2  0  0  0  0  0  0  0  0  0
   33.4580   28.3560   48.2170 C   0  0  1  0  0  0  0  0  0  0  0  0
   33.8390   27.0560   48.0880 O   0  0  0  0  0  0  0  0  0  0  0  0
   33.1280   26.4700   47.0440 C   0  0  0  0  0  0  0  0  0  0  0  0
   32.5280   27.5840   46.2270 C   0  0  1  0  0  0  0  0  0  0  0  0
   31.2880   28.2430   47.8860 H   0  0  0  0  0  0  0  0  0  0  0  0
   33.3160   28.6750   49.2800 H   0  0  0  0  0  0  0  0  0  0  0  0
   33.8900   25.9340   46.4220 H   0  0  0  0  0  0  0  0  0  0  0  0
   32.4440   25.7660   47.4850 H   0  0  0  0  0  0  0  0  0  0  0  0
   33.2430   28.1230   45.6110 H   0  0  0  0  0  0  0  0  0  0  0  0
   32.1480   29.8740   46.9130 O   0  0  0  0  0  0  0  0  0  0  0  0
   31.6050   30.4020   47.5500 H   0  0  0  0  0  0  0  0  0  0  0  0
   34.7720   29.4110   47.4780 S   0  0  0  0  0  0  0  0  0  0  0  0
   37.1360   29.2980   50.6560 C   0  0  0  0  0  0  0  0  0  0  0  0
   37.6510   30.5880   50.7670 C   0  0  0  0  0  0  0  0  0  0  0  0
   37.2510   31.5370   49.8210 C   0  0  0  0  0  0  0  0  0  0  0  0
   36.3850   31.1550   48.8430 N   0  0  0  0  0  0  0  0  0  0  0  0
   35.9100   29.8920   48.7710 C   0  0  0  0  0  0  0  0  0  0  0  0
   36.2790   28.9480   49.6740 N   0  0  0  0  0  0  0  0  0  0  0  0
   37.3800   28.4910   51.3350 H   0  0  0  0  0  0  0  0  0  0  0  0
   38.3340   30.8120   51.5750 H   0  0  0  0  0  0  0  0  0  0  0  0
   37.6350   32.5460   49.8850 H   0  0  0  0  0  0  0  0  0  0  0  0
   31.3730   27.1380   45.6320 O   0  0  0  0  0  0  0  0  0  0  0  0
   29.9080   29.3450   44.3560 Cl  0  0  0  0  0  0  0  0  0  0  0  0
   29.3600   28.2540   45.6090 C   0  0  0  0  0  0  0  0  0  0  0  0
   30.1420   27.2470   46.1260 C   0  0  0  0  0  0  0  0  0  0  0  0
   29.5880   26.4260   47.1140 C   0  0  0  0  0  0  0  0  0  0  0  0
   28.2940   26.6340   47.5470 C   0  0  0  0  0  0  0  0  0  0  0  0
   27.5060   27.6470   47.0270 C   0  0  0  0  0  0  0  0  0  0  0  0
   28.0530   28.4780   46.0340 C   0  0  0  0  0  0  0  0  0  0  0  0
   30.1530   25.6150   47.5490 H   0  0  0  0  0  0  0  0  0  0  0  0
   27.9390   25.9510   48.3200 H   0  0  0  0  0  0  0  0  0  0  0  0
   26.5430   27.6620   47.4640 H   0  0  0  0  0  0  0  0  0  0  0  0
   27.1600   29.4640   45.5290 N   0  0  0  0  0  0  0  0  0  0  0  0
   26.9570   30.7330   46.2500 C   0  0  0  0  0  0  0  0  0  0  0  0
   27.4790   30.7830   47.2060 H   0  0  0  0  0  0  0  0  0  0  0  0
   27.4440   31.8110   45.2870 C   0  0  0  0  0  0  0  0  0  0  0  0
   27.4580   32.8150   45.7200 H   0  0  0  0  0  0  0  0  0  0  0  0
   26.5800   31.7710   44.1250 N   0  0  0  0  0  0  0  0  0  0  0  0
   26.8740   32.5430   43.4750 H   0  0  0  0  0  0  0  0  0  0  0  0
   26.7430   30.5110   43.4150 C   0  0  0  0  0  0  0  0  0  0  0  0
   26.3260   29.4140   44.3450 C   0  0  0  0  0  0  0  0  0  0  0  0
  1  6  1  1  0  0  0
  1  2  1  0  0  0  0
  2  7  1  1  0  0  0
  3  2  1  0  0  0  0
  4  9  1  0  0  0  0
  4  3  1  0  0  0  0
  5 10  1  6  0  0  0
  5  4  1  0  0  0  0
  5  1  1  0  0  0  0
  8  4  1  0  0  0  0
 11  1  1  0  0  0  0
 11 12  1  0  0  0  0
 13  2  1  0  0  0  0
 13 18  1  0  0  0  0
 14 15  1  0  0  0  0
 14 20  1  0  0  0  0
 15 21  1  0  0  0  0
 16 22  1  0  0  0  0
 16 15  2  0  0  0  0
 17 16  1  0  0  0  0
 18 17  2  0  0  0  0
 18 19  1  0  0  0  0
 19 14  2  0  0  0  0
 23 26  1  0  0  0  0
 23  5  1  0  0  0  0
 24 25  1  0  0  0  0
 25 30  2  0  0  0  0
 25 26  1  0  0  0  0
 26 27  2  0  0  0  0
 27 28  1  0  0  0  0
 27 31  1  0  0  0  0
 28 32  1  0  0  0  0
 29 33  1  0  0  0  0
 29 28  2  0  0  0  0
 30 29  1  0  0  0  0
 34 30  1  0  0  0  0
 34 35  1  0  0  0  0
 35 36  1  0  0  0  0
 37 38  1  0  0  0  0
 37 35  1  0  0  0  0
 39 37  1  0  0  0  0
 40 39  1  0  0  0  0
 41 39  1  0  0  0  0
 41 42  1  0  0  0  0
 42 34  1  0  0  0  0
M  END
>  <minimizedAffinity>
-5.26408815

>  <minimizedRMSD>
0.248234585

$$$$
