
 OpenBabel03272502373D

 30 32  0  0  1  0  0  0  0  0999 V2000
   33.4990   28.6370   47.8210 N   0  0  0  0  0  0  0  0  0  0  0  0
   34.3080   28.9450   46.6710 C   0  0  0  0  0  0  0  0  0  0  0  0
   35.2010   30.0850   47.1710 C   0  0  0  0  0  0  0  0  0  0  0  0
   34.8230   30.2950   48.6130 C   0  0  1  0  0  0  0  0  0  0  0  0
   34.3380   28.9200   48.9870 C   0  0  0  0  0  0  0  0  0  0  0  0
   33.7310   29.3560   45.8230 H   0  0  0  0  0  0  0  0  0  0  0  0
   34.8880   28.0710   46.3240 H   0  0  0  0  0  0  0  0  0  0  0  0
   35.1010   30.9920   46.5720 H   0  0  0  0  0  0  0  0  0  0  0  0
   36.2470   29.6970   47.0930 H   0  0  0  0  0  0  0  0  0  0  0  0
   33.9590   30.9870   48.6600 H   0  0  0  0  0  0  0  0  0  0  0  0
   35.1800   28.2030   49.0190 H   0  0  0  0  0  0  0  0  0  0  0  0
   33.7290   28.9120   49.9140 H   0  0  0  0  0  0  0  0  0  0  0  0
   32.1700   28.1590   47.8450 C   0  0  0  0  0  0  0  0  0  0  0  0
   31.3500   28.5140   46.7810 C   0  0  0  0  0  0  0  0  0  0  0  0
   30.0170   28.0600   46.7650 C   0  0  0  0  0  0  0  0  0  0  0  0
   29.6150   27.2790   47.8260 N   0  0  0  0  0  0  0  0  0  0  0  0
   30.4400   26.9580   48.8350 C   0  0  0  0  0  0  0  0  0  0  0  0
   31.7230   27.3950   48.8520 N   0  0  0  0  0  0  0  0  0  0  0  0
   31.6410   29.1130   45.9570 H   0  0  0  0  0  0  0  0  0  0  0  0
   29.3420   28.3120   45.9580 H   0  0  0  0  0  0  0  0  0  0  0  0
   30.0580   26.3420   49.6360 H   0  0  0  0  0  0  0  0  0  0  0  0
   35.8540   30.8360   49.4210 N   0  0  2  0  0  0  0  0  0  0  0  0
   37.0100   31.3000   48.7060 C   0  0  0  0  0  0  0  0  0  0  0  0
   37.4600   30.5650   48.0230 H   0  0  0  0  0  0  0  0  0  0  0  0
   38.0590   31.6620   49.7650 C   0  0  0  0  0  0  0  0  0  0  0  0
   38.8630   32.2000   49.2250 H   0  0  0  0  0  0  0  0  0  0  0  0
   38.5530   30.4690   50.4200 N   0  0  0  0  0  0  0  0  0  0  0  0
   38.8280   30.6580   51.3930 H   0  0  0  0  0  0  0  0  0  0  0  0
   37.5820   29.3930   50.2700 C   0  0  0  0  0  0  0  0  0  0  0  0
   36.1690   29.8950   50.4670 C   0  0  0  0  0  0  0  0  0  0  0  0
  1 13  1  0  0  0  0
  1  5  1  0  0  0  0
  2  3  1  0  0  0  0
  2  1  1  0  0  0  0
  3  4  1  0  0  0  0
  4 10  1  1  0  0  0
  4  5  1  0  0  0  0
  4 22  1  0  0  0  0
  5 11  1  0  0  0  0
  5 12  1  0  0  0  0
  6  2  1  0  0  0  0
  7  2  1  0  0  0  0
  8  3  1  0  0  0  0
  9  3  1  0  0  0  0
 13 18  1  0  0  0  0
 14 13  2  0  0  0  0
 15 14  1  0  0  0  0
 15 16  2  0  0  0  0
 16 17  1  0  0  0  0
 17 18  2  0  0  0  0
 17 21  1  0  0  0  0
 19 14  1  0  0  0  0
 20 15  1  0  0  0  0
 22 30  1  1  0  0  0
 23 22  1  0  0  0  0
 23 25  1  0  0  0  0
 24 23  1  0  0  0  0
 25 27  1  0  0  0  0
 26 25  1  0  0  0  0
 27 28  1  0  0  0  0
 29 27  1  0  0  0  0
 29 30  1  0  0  0  0
M  END
>  <minimizedAffinity>
-4.89085436

>  <minimizedRMSD>
3.93993068

$$$$
