
 OpenBabel03272503233D

 30 32  0  0  1  0  0  0  0  0999 V2000
   37.9880   25.0930   33.9790 N   0  0  0  0  0  0  0  0  0  0  0  0
   39.0600   24.7830   34.8800 C   0  0  1  0  0  0  0  0  0  0  0  0
   39.7280   26.1200   35.1080 C   0  0  0  0  0  0  0  0  0  0  0  0
   39.0130   27.1020   34.1740 C   0  0  0  0  0  0  0  0  0  0  0  0
   37.6330   26.4670   34.2060 C   0  0  0  0  0  0  0  0  0  0  0  0
   39.8110   24.2100   34.2560 H   0  0  0  0  0  0  0  0  0  0  0  0
   39.5630   26.5170   36.1280 H   0  0  0  0  0  0  0  0  0  0  0  0
   40.7960   26.1340   34.8980 H   0  0  0  0  0  0  0  0  0  0  0  0
   39.3620   27.0040   33.1210 H   0  0  0  0  0  0  0  0  0  0  0  0
   39.0220   28.1310   34.5590 H   0  0  0  0  0  0  0  0  0  0  0  0
   37.0400   26.8580   33.3340 H   0  0  0  0  0  0  0  0  0  0  0  0
   37.0440   26.6830   35.0850 H   0  0  0  0  0  0  0  0  0  0  0  0
   37.3740   24.2330   33.0300 C   0  0  0  0  0  0  0  0  0  0  0  0
   36.5650   24.8610   32.0630 C   0  0  0  0  0  0  0  0  0  0  0  0
   35.9410   24.0260   31.1100 C   0  0  0  0  0  0  0  0  0  0  0  0
   36.1650   22.6710   31.1930 N   0  0  0  0  0  0  0  0  0  0  0  0
   36.9580   22.1280   32.1540 C   0  0  0  0  0  0  0  0  0  0  0  0
   37.5590   22.9160   33.0690 N   0  0  0  0  0  0  0  0  0  0  0  0
   36.3690   25.8990   31.9670 H   0  0  0  0  0  0  0  0  0  0  0  0
   35.3020   24.3940   30.3260 H   0  0  0  0  0  0  0  0  0  0  0  0
   37.0830   21.0540   32.1490 H   0  0  0  0  0  0  0  0  0  0  0  0
   38.7740   24.0070   36.0010 N   0  0  2  0  0  0  0  0  0  0  0  0
   37.9380   24.4860   37.0220 C   0  0  0  0  0  3  0  0  0  0  0  0
   36.8920   24.1310   36.7780 H   0  0  0  0  0  0  0  0  0  0  0  0
   38.2260   24.0250   38.4180 C   0  0  0  0  0  3  0  0  0  0  0  0
   37.2780   24.1130   38.9980 H   0  0  0  0  0  0  0  0  0  0  0  0
   38.7700   22.6910   38.5090 N   0  0  0  0  0  0  0  0  0  0  0  0
   38.1200   22.0110   38.0470 H   0  0  0  0  0  0  0  0  0  0  0  0
   40.0120   22.7400   37.7220 C   0  0  0  0  0  2  0  0  0  0  0  0
   39.5670   22.8770   36.2960 C   0  0  0  0  0  2  0  0  0  0  0  0
  1  5  1  0  0  0  0
  1  2  1  0  0  0  0
  2  6  1  6  0  0  0
  2  3  1  0  0  0  0
  2 22  1  0  0  0  0
  3  7  1  0  0  0  0
  4  5  1  0  0  0  0
  4 10  1  0  0  0  0
  4  3  1  0  0  0  0
  5 12  1  0  0  0  0
  8  3  1  0  0  0  0
  9  4  1  0  0  0  0
 11  5  1  0  0  0  0
 13 18  1  0  0  0  0
 13  1  1  0  0  0  0
 14 13  2  0  0  0  0
 15 16  2  0  0  0  0
 15 14  1  0  0  0  0
 16 17  1  0  0  0  0
 17 18  2  0  0  0  0
 19 14  1  0  0  0  0
 20 15  1  0  0  0  0
 21 17  1  0  0  0  0
 22 30  1  1  0  0  0
 22 23  1  0  0  0  0
 23 25  1  0  0  0  0
 24 23  1  0  0  0  0
 25 27  1  0  0  0  0
 25 26  1  0  0  0  0
 28 27  1  0  0  0  0
 29 27  1  0  0  0  0
 30 29  1  0  0  0  0
M  END
>  <minimizedAffinity>
-4.97619724

$$$$

 OpenBabel03272503233D

 30 32  0  0  1  0  0  0  0  0999 V2000
   37.8820   25.7780   34.3090 N   0  0  0  0  0  0  0  0  0  0  0  0
   38.8460   25.6400   35.3630 C   0  0  1  0  0  0  0  0  0  0  0  0
   38.7820   26.9700   36.0770 C   0  0  0  0  0  0  0  0  0  0  0  0
   37.8250   27.8360   35.2510 C   0  0  0  0  0  0  0  0  0  0  0  0
   36.9050   26.7330   34.7580 C   0  0  0  0  0  0  0  0  0  0  0  0
   39.8510   25.6600   34.8440 H   0  0  0  0  0  0  0  0  0  0  0  0
   38.3190   26.9010   37.0800 H   0  0  0  0  0  0  0  0  0  0  0  0
   39.7410   27.4790   36.1710 H   0  0  0  0  0  0  0  0  0  0  0  0
   38.3170   28.2460   34.3400 H   0  0  0  0  0  0  0  0  0  0  0  0
   37.3060   28.5880   35.8610 H   0  0  0  0  0  0  0  0  0  0  0  0
   36.3200   27.1230   33.8800 H   0  0  0  0  0  0  0  0  0  0  0  0
   36.1720   26.3870   35.4720 H   0  0  0  0  0  0  0  0  0  0  0  0
   37.8670   25.1190   33.0520 C   0  0  0  0  0  0  0  0  0  0  0  0
   39.1260   24.7640   32.5290 C   0  0  0  0  0  0  0  0  0  0  0  0
   39.1370   24.1090   31.2770 C   0  0  0  0  0  0  0  0  0  0  0  0
   37.9290   23.8670   30.6640 N   0  0  0  0  0  0  0  0  0  0  0  0
   36.7480   24.2370   31.2240 C   0  0  0  0  0  0  0  0  0  0  0  0
   36.7250   24.8620   32.4190 N   0  0  0  0  0  0  0  0  0  0  0  0
   40.0750   24.9330   32.9710 H   0  0  0  0  0  0  0  0  0  0  0  0
   40.0380   23.7920   30.7820 H   0  0  0  0  0  0  0  0  0  0  0  0
   35.8440   24.0090   30.6770 H   0  0  0  0  0  0  0  0  0  0  0  0
   38.8050   24.4870   36.1440 N   0  0  2  0  0  0  0  0  0  0  0  0
   38.0280   24.4280   37.3110 C   0  0  0  0  0  3  0  0  0  0  0  0
   37.0250   23.9980   37.0120 H   0  0  0  0  0  0  0  0  0  0  0  0
   38.5360   23.5720   38.4310 C   0  0  0  0  0  3  0  0  0  0  0  0
   37.6560   23.2850   39.0540 H   0  0  0  0  0  0  0  0  0  0  0  0
   39.2770   22.4080   38.0090 N   0  0  0  0  0  0  0  0  0  0  0  0
   38.6870   21.8250   37.3690 H   0  0  0  0  0  0  0  0  0  0  0  0
   40.4020   22.9460   37.2280 C   0  0  0  0  0  2  0  0  0  0  0  0
   39.7840   23.4840   35.9710 C   0  0  0  0  0  2  0  0  0  0  0  0
  1  5  1  0  0  0  0
  1  2  1  0  0  0  0
  2  6  1  6  0  0  0
  2  3  1  0  0  0  0
  2 22  1  0  0  0  0
  3  8  1  0  0  0  0
  3  7  1  0  0  0  0
  4 10  1  0  0  0  0
  4  3  1  0  0  0  0
  5  4  1  0  0  0  0
  5 12  1  0  0  0  0
  9  4  1  0  0  0  0
 11  5  1  0  0  0  0
 13  1  1  0  0  0  0
 14 19  1  0  0  0  0
 14 13  1  0  0  0  0
 15 14  2  0  0  0  0
 16 17  2  0  0  0  0
 16 15  1  0  0  0  0
 17 18  1  0  0  0  0
 18 13  2  0  0  0  0
 20 15  1  0  0  0  0
 21 17  1  0  0  0  0
 22 30  1  1  0  0  0
 22 23  1  0  0  0  0
 23 25  1  0  0  0  0
 24 23  1  0  0  0  0
 25 26  1  0  0  0  0
 27 25  1  0  0  0  0
 28 27  1  0  0  0  0
 29 27  1  0  0  0  0
 30 29  1  0  0  0  0
M  END
>  <minimizedAffinity>
-4.84076548

$$$$

 OpenBabel03272503233D

 30 32  0  0  1  0  0  0  0  0999 V2000
   38.5230   24.1680   34.1240 N   0  0  0  0  0  0  0  0  0  0  0  0
   37.9780   22.9560   34.6650 C   0  0  1  0  0  0  0  0  0  0  0  0
   38.3380   21.9140   33.6310 C   0  0  0  0  0  0  0  0  0  0  0  0
   38.9840   22.6860   32.4760 C   0  0  0  0  0  0  0  0  0  0  0  0
   39.6320   23.7920   33.2890 C   0  0  0  0  0  0  0  0  0  0  0  0
   36.8570   23.0650   34.5580 H   0  0  0  0  0  0  0  0  0  0  0  0
   39.1160   21.2080   33.9800 H   0  0  0  0  0  0  0  0  0  0  0  0
   37.4920   21.3400   33.2540 H   0  0  0  0  0  0  0  0  0  0  0  0
   38.2240   23.1900   31.8360 H   0  0  0  0  0  0  0  0  0  0  0  0
   39.7110   22.0790   31.9190 H   0  0  0  0  0  0  0  0  0  0  0  0
   39.8920   24.6390   32.5960 H   0  0  0  0  0  0  0  0  0  0  0  0
   40.5520   23.5240   33.7860 H   0  0  0  0  0  0  0  0  0  0  0  0
   38.0760   25.4970   34.3460 C   0  0  0  0  0  0  0  0  0  0  0  0
   38.6830   26.1790   35.4180 C   0  0  0  0  0  0  0  0  0  0  0  0
   38.2510   27.5030   35.6600 C   0  0  0  0  0  0  0  0  0  0  0  0
   37.2780   28.0260   34.8400 N   0  0  0  0  0  0  0  0  0  0  0  0
   36.7330   27.3120   33.8220 C   0  0  0  0  0  0  0  0  0  0  0  0
   37.1360   26.0470   33.5800 N   0  0  0  0  0  0  0  0  0  0  0  0
   39.4340   25.8110   36.0700 H   0  0  0  0  0  0  0  0  0  0  0  0
   38.6440   28.1190   36.4510 H   0  0  0  0  0  0  0  0  0  0  0  0
   35.9740   27.7960   33.2230 H   0  0  0  0  0  0  0  0  0  0  0  0
   38.2410   22.6550   36.0000 N   0  0  2  0  0  0  0  0  0  0  0  0
   37.4060   23.1190   37.0280 C   0  0  0  0  0  3  0  0  0  0  0  0
   36.6450   22.3040   37.2200 H   0  0  0  0  0  0  0  0  0  0  0  0
   38.0440   23.4200   38.3490 C   0  0  0  0  0  3  0  0  0  0  0  0
   37.2500   23.3400   39.1270 H   0  0  0  0  0  0  0  0  0  0  0  0
   39.1750   22.5850   38.6730 N   0  0  0  0  0  0  0  0  0  0  0  0
   38.8900   21.5770   38.6480 H   0  0  0  0  0  0  0  0  0  0  0  0
   40.1330   22.8140   37.5800 C   0  0  0  0  0  2  0  0  0  0  0  0
   39.5130   22.1700   36.3750 C   0  0  0  0  0  2  0  0  0  0  0  0
  1 13  1  0  0  0  0
  1  2  1  0  0  0  0
  2  6  1  6  0  0  0
  2 22  1  0  0  0  0
  3  7  1  0  0  0  0
  3  2  1  0  0  0  0
  4  5  1  0  0  0  0
  4  3  1  0  0  0  0
  5 12  1  0  0  0  0
  5  1  1  0  0  0  0
  8  3  1  0  0  0  0
  9  4  1  0  0  0  0
 10  4  1  0  0  0  0
 11  5  1  0  0  0  0
 13 14  1  0  0  0  0
 14 15  2  0  0  0  0
 14 19  1  0  0  0  0
 15 20  1  0  0  0  0
 16 15  1  0  0  0  0
 17 16  2  0  0  0  0
 18 17  1  0  0  0  0
 18 13  2  0  0  0  0
 21 17  1  0  0  0  0
 22 30  1  1  0  0  0
 22 23  1  0  0  0  0
 23 24  1  0  0  0  0
 23 25  1  0  0  0  0
 25 27  1  0  0  0  0
 25 26  1  0  0  0  0
 28 27  1  0  0  0  0
 29 27  1  0  0  0  0
 30 29  1  0  0  0  0
M  END
>  <minimizedAffinity>
-4.7646966

$$$$

 OpenBabel03272503233D

 30 32  0  0  1  0  0  0  0  0999 V2000
   38.5360   25.7840   35.1850 N   0  0  0  0  0  0  0  0  0  0  0  0
   37.5440   25.7980   34.1490 C   0  0  1  0  0  0  0  0  0  0  0  0
   37.0050   27.2090   34.1940 C   0  0  0  0  0  0  0  0  0  0  0  0
   37.6900   27.8740   35.3930 C   0  0  0  0  0  0  0  0  0  0  0  0
   39.0140   27.1330   35.3250 C   0  0  0  0  0  0  0  0  0  0  0  0
   36.6920   25.1720   34.5520 H   0  0  0  0  0  0  0  0  0  0  0  0
   37.3050   27.8140   33.3170 H   0  0  0  0  0  0  0  0  0  0  0  0
   35.9250   27.2780   34.3110 H   0  0  0  0  0  0  0  0  0  0  0  0
   37.2260   27.5700   36.3580 H   0  0  0  0  0  0  0  0  0  0  0  0
   37.7980   28.9600   35.2670 H   0  0  0  0  0  0  0  0  0  0  0  0
   39.5400   27.2520   36.3120 H   0  0  0  0  0  0  0  0  0  0  0  0
   39.7070   27.4890   34.5760 H   0  0  0  0  0  0  0  0  0  0  0  0
   38.9820   24.6730   35.9480 C   0  0  0  0  0  0  0  0  0  0  0  0
   38.2440   24.3920   37.1150 C   0  0  0  0  0  0  0  0  0  0  0  0
   38.6700   23.2920   37.8920 C   0  0  0  0  0  0  0  0  0  0  0  0
   39.7660   22.5800   37.4590 N   0  0  0  0  0  0  0  0  0  0  0  0
   40.4340   22.9060   36.3220 C   0  0  0  0  0  0  0  0  0  0  0  0
   40.0370   23.9540   35.5710 N   0  0  0  0  0  0  0  0  0  0  0  0
   37.3970   24.9150   37.4790 H   0  0  0  0  0  0  0  0  0  0  0  0
   38.1840   22.9840   38.8010 H   0  0  0  0  0  0  0  0  0  0  0  0
   41.2850   22.2950   36.0510 H   0  0  0  0  0  0  0  0  0  0  0  0
   37.8870   25.2790   32.9030 N   0  0  2  0  0  0  0  0  0  0  0  0
   38.7050   25.9980   32.0170 C   0  0  0  0  0  3  0  0  0  0  0  0
   39.7670   25.6590   32.2080 H   0  0  0  0  0  0  0  0  0  0  0  0
   38.4600   25.8100   30.5510 C   0  0  0  0  0  3  0  0  0  0  0  0
   39.4070   26.0640   30.0210 H   0  0  0  0  0  0  0  0  0  0  0  0
   37.9960   24.4940   30.1840 N   0  0  0  0  0  0  0  0  0  0  0  0
   38.6790   23.7720   30.5150 H   0  0  0  0  0  0  0  0  0  0  0  0
   36.7440   24.3160   30.9360 C   0  0  0  0  0  2  0  0  0  0  0  0
   37.1650   24.1880   32.3710 C   0  0  0  0  0  2  0  0  0  0  0  0
  1  5  1  0  0  0  0
  1 13  1  0  0  0  0
  2  3  1  0  0  0  0
  2  6  1  1  0  0  0
  2  1  1  0  0  0  0
  3  8  1  0  0  0  0
  3  4  1  0  0  0  0
  4  9  1  0  0  0  0
  5  4  1  0  0  0  0
  5 11  1  0  0  0  0
  7  3  1  0  0  0  0
 10  4  1  0  0  0  0
 12  5  1  0  0  0  0
 13 14  1  0  0  0  0
 14 19  1  0  0  0  0
 14 15  2  0  0  0  0
 15 20  1  0  0  0  0
 16 15  1  0  0  0  0
 17 16  2  0  0  0  0
 18 13  2  0  0  0  0
 18 17  1  0  0  0  0
 21 17  1  0  0  0  0
 22 30  1  6  0  0  0
 22  2  1  0  0  0  0
 23 24  1  0  0  0  0
 23 22  1  0  0  0  0
 25 23  1  0  0  0  0
 26 25  1  0  0  0  0
 27 28  1  0  0  0  0
 27 25  1  0  0  0  0
 27 29  1  0  0  0  0
 29 30  1  0  0  0  0
M  END
>  <minimizedAffinity>
-4.67104578

$$$$

 OpenBabel03272503233D

 30 32  0  0  1  0  0  0  0  0999 V2000
   38.7150   25.7870   34.4790 N   0  0  0  0  0  0  0  0  0  0  0  0
   37.4400   26.3080   34.0780 C   0  0  1  0  0  0  0  0  0  0  0  0
   37.2450   27.5020   34.9840 C   0  0  0  0  0  0  0  0  0  0  0  0
   38.4330   27.4820   35.9520 C   0  0  0  0  0  0  0  0  0  0  0  0
   39.4680   26.8890   35.0130 C   0  0  0  0  0  0  0  0  0  0  0  0
   36.6840   25.5560   34.4580 H   0  0  0  0  0  0  0  0  0  0  0  0
   37.3220   28.4680   34.4500 H   0  0  0  0  0  0  0  0  0  0  0  0
   36.3150   27.4920   35.5520 H   0  0  0  0  0  0  0  0  0  0  0  0
   38.2970   26.7310   36.7630 H   0  0  0  0  0  0  0  0  0  0  0  0
   38.7010   28.4870   36.3090 H   0  0  0  0  0  0  0  0  0  0  0  0
   40.3270   26.5020   35.6290 H   0  0  0  0  0  0  0  0  0  0  0  0
   39.9010   27.5780   34.3040 H   0  0  0  0  0  0  0  0  0  0  0  0
   39.1750   24.4470   34.3840 C   0  0  0  0  0  0  0  0  0  0  0  0
   38.8520   23.6080   35.4690 C   0  0  0  0  0  0  0  0  0  0  0  0
   39.3030   22.2700   35.3990 C   0  0  0  0  0  0  0  0  0  0  0  0
   40.0170   21.8860   34.2870 N   0  0  0  0  0  0  0  0  0  0  0  0
   40.2950   22.7480   33.2750 C   0  0  0  0  0  0  0  0  0  0  0  0
   39.8700   24.0280   33.3300 N   0  0  0  0  0  0  0  0  0  0  0  0
   38.3050   23.8660   36.3400 H   0  0  0  0  0  0  0  0  0  0  0  0
   39.1160   21.5410   36.1670 H   0  0  0  0  0  0  0  0  0  0  0  0
   40.8610   22.3670   32.4360 H   0  0  0  0  0  0  0  0  0  0  0  0
   37.2010   26.4870   32.7170 N   0  0  2  0  0  0  0  0  0  0  0  0
   37.2780   27.7580   32.1280 C   0  0  0  0  0  3  0  0  0  0  0  0
   38.3330   27.8700   31.7350 H   0  0  0  0  0  0  0  0  0  0  0  0
   36.3660   28.0350   30.9710 C   0  0  0  0  0  3  0  0  0  0  0  0
   36.8320   28.8500   30.3700 H   0  0  0  0  0  0  0  0  0  0  0  0
   36.0720   26.8850   30.1510 N   0  0  0  0  0  0  0  0  0  0  0  0
   36.9640   26.4660   29.7950 H   0  0  0  0  0  0  0  0  0  0  0  0
   35.4500   25.9200   31.0700 C   0  0  0  0  0  2  0  0  0  0  0  0
   36.5590   25.4710   31.9760 C   0  0  0  0  0  2  0  0  0  0  0  0
  1  5  1  0  0  0  0
  2  6  1  1  0  0  0
  2  1  1  0  0  0  0
  2  3  1  0  0  0  0
  3  8  1  0  0  0  0
  3  4  1  0  0  0  0
  4 10  1  0  0  0  0
  4  9  1  0  0  0  0
  5 11  1  0  0  0  0
  5  4  1  0  0  0  0
  7  3  1  0  0  0  0
 12  5  1  0  0  0  0
 13  1  1  0  0  0  0
 13 14  1  0  0  0  0
 14 19  1  0  0  0  0
 15 14  2  0  0  0  0
 15 20  1  0  0  0  0
 16 15  1  0  0  0  0
 17 18  1  0  0  0  0
 17 16  2  0  0  0  0
 18 13  2  0  0  0  0
 21 17  1  0  0  0  0
 22 30  1  1  0  0  0
 22  2  1  0  0  0  0
 23 22  1  0  0  0  0
 24 23  1  0  0  0  0
 25 23  1  0  0  0  0
 26 25  1  0  0  0  0
 27 25  1  0  0  0  0
 27 29  1  0  0  0  0
 28 27  1  0  0  0  0
 29 30  1  0  0  0  0
M  END
>  <minimizedAffinity>
-4.52540636

$$$$

 OpenBabel03272503233D

 30 32  0  0  1  0  0  0  0  0999 V2000
   38.7510   25.7080   34.9430 N   0  0  0  0  0  0  0  0  0  0  0  0
   37.4600   26.0240   34.4040 C   0  0  1  0  0  0  0  0  0  0  0  0
   37.1550   27.3840   34.9900 C   0  0  0  0  0  0  0  0  0  0  0  0
   38.3060   27.6820   35.9560 C   0  0  0  0  0  0  0  0  0  0  0  0
   39.4110   26.9570   35.2090 C   0  0  0  0  0  0  0  0  0  0  0  0
   36.7410   25.3330   34.9390 H   0  0  0  0  0  0  0  0  0  0  0  0
   37.1880   28.1960   34.2400 H   0  0  0  0  0  0  0  0  0  0  0  0
   36.2080   27.4440   35.5260 H   0  0  0  0  0  0  0  0  0  0  0  0
   38.1910   27.1400   36.9220 H   0  0  0  0  0  0  0  0  0  0  0  0
   38.4960   28.7600   36.0650 H   0  0  0  0  0  0  0  0  0  0  0  0
   40.2710   26.7920   35.9160 H   0  0  0  0  0  0  0  0  0  0  0  0
   39.8230   27.4850   34.3620 H   0  0  0  0  0  0  0  0  0  0  0  0
   39.3000   24.4210   35.1840 C   0  0  0  0  0  0  0  0  0  0  0  0
   40.6900   24.2990   34.9880 C   0  0  0  0  0  0  0  0  0  0  0  0
   41.2590   23.0270   35.2190 C   0  0  0  0  0  0  0  0  0  0  0  0
   40.4240   22.0070   35.6130 N   0  0  0  0  0  0  0  0  0  0  0  0
   39.0890   22.1920   35.7830 C   0  0  0  0  0  0  0  0  0  0  0  0
   38.5340   23.4020   35.5660 N   0  0  0  0  0  0  0  0  0  0  0  0
   41.3640   25.0600   34.6860 H   0  0  0  0  0  0  0  0  0  0  0  0
   42.3080   22.8170   35.1010 H   0  0  0  0  0  0  0  0  0  0  0  0
   38.5030   21.3390   36.0950 H   0  0  0  0  0  0  0  0  0  0  0  0
   37.2580   25.8540   33.0350 N   0  0  2  0  0  0  0  0  0  0  0  0
   37.0030   26.9500   32.1970 C   0  0  0  0  0  3  0  0  0  0  0  0
   38.0040   27.2850   31.7880 H   0  0  0  0  0  0  0  0  0  0  0  0
   36.1190   26.7160   31.0110 C   0  0  0  0  0  3  0  0  0  0  0  0
   36.3670   27.4960   30.2530 H   0  0  0  0  0  0  0  0  0  0  0  0
   36.2130   25.3920   30.4440 N   0  0  0  0  0  0  0  0  0  0  0  0
   37.2060   25.1890   30.1800 H   0  0  0  0  0  0  0  0  0  0  0  0
   35.8400   24.4880   31.5440 C   0  0  0  0  0  2  0  0  0  0  0  0
   36.9770   24.5700   32.5200 C   0  0  0  0  0  2  0  0  0  0  0  0
  1 13  1  0  0  0  0
  1  5  1  0  0  0  0
  2  6  1  1  0  0  0
  2  1  1  0  0  0  0
  2  3  1  0  0  0  0
  3  8  1  0  0  0  0
  3  4  1  0  0  0  0
  4 10  1  0  0  0  0
  4  9  1  0  0  0  0
  5 11  1  0  0  0  0
  5  4  1  0  0  0  0
  7  3  1  0  0  0  0
 12  5  1  0  0  0  0
 13 18  1  0  0  0  0
 14 13  2  0  0  0  0
 14 15  1  0  0  0  0
 15 16  2  0  0  0  0
 16 17  1  0  0  0  0
 17 21  1  0  0  0  0
 18 17  2  0  0  0  0
 19 14  1  0  0  0  0
 20 15  1  0  0  0  0
 22 30  1  1  0  0  0
 22  2  1  0  0  0  0
 23 22  1  0  0  0  0
 24 23  1  0  0  0  0
 25 23  1  0  0  0  0
 26 25  1  0  0  0  0
 27 25  1  0  0  0  0
 27 29  1  0  0  0  0
 28 27  1  0  0  0  0
 29 30  1  0  0  0  0
M  END
>  <minimizedAffinity>
-4.50107765

$$$$

 OpenBabel03272503233D

 30 32  0  0  1  0  0  0  0  0999 V2000
   39.1890   23.4330   33.8620 N   0  0  0  0  0  0  0  0  0  0  0  0
   38.1030   22.9150   34.6430 C   0  0  1  0  0  0  0  0  0  0  0  0
   37.5890   21.7610   33.8120 C   0  0  0  0  0  0  0  0  0  0  0  0
   38.3920   21.8030   32.5080 C   0  0  0  0  0  0  0  0  0  0  0  0
   39.6950   22.3430   33.0720 C   0  0  0  0  0  0  0  0  0  0  0  0
   37.2850   23.6920   34.5590 H   0  0  0  0  0  0  0  0  0  0  0  0
   37.8110   20.7730   34.2580 H   0  0  0  0  0  0  0  0  0  0  0  0
   36.5250   21.8070   33.5830 H   0  0  0  0  0  0  0  0  0  0  0  0
   38.0180   22.5890   31.8130 H   0  0  0  0  0  0  0  0  0  0  0  0
   38.5020   20.8100   32.0490 H   0  0  0  0  0  0  0  0  0  0  0  0
   40.3140   22.7420   32.2220 H   0  0  0  0  0  0  0  0  0  0  0  0
   40.3180   21.6190   33.5760 H   0  0  0  0  0  0  0  0  0  0  0  0
   39.6900   24.7610   33.8440 C   0  0  0  0  0  0  0  0  0  0  0  0
   39.0090   25.6650   33.0060 C   0  0  0  0  0  0  0  0  0  0  0  0
   39.4920   26.9930   32.9700 C   0  0  0  0  0  0  0  0  0  0  0  0
   40.5830   27.3050   33.7470 N   0  0  0  0  0  0  0  0  0  0  0  0
   41.1950   26.3830   34.5350 C   0  0  0  0  0  0  0  0  0  0  0  0
   40.7430   25.1120   34.5780 N   0  0  0  0  0  0  0  0  0  0  0  0
   38.1670   25.4620   32.3940 H   0  0  0  0  0  0  0  0  0  0  0  0
   39.0510   27.7680   32.3660 H   0  0  0  0  0  0  0  0  0  0  0  0
   42.0460   26.7100   35.1160 H   0  0  0  0  0  0  0  0  0  0  0  0
   38.3200   22.6840   35.9990 N   0  0  2  0  0  0  0  0  0  0  0  0
   37.5050   23.2750   36.9770 C   0  0  0  0  0  3  0  0  0  0  0  0
   36.6810   22.5330   37.2040 H   0  0  0  0  0  0  0  0  0  0  0  0
   38.1420   23.6140   38.2890 C   0  0  0  0  0  3  0  0  0  0  0  0
   37.3310   23.6450   39.0530 H   0  0  0  0  0  0  0  0  0  0  0  0
   39.2010   22.7200   38.6910 N   0  0  0  0  0  0  0  0  0  0  0  0
   38.8410   21.7370   38.7250 H   0  0  0  0  0  0  0  0  0  0  0  0
   40.1920   22.8050   37.6060 C   0  0  0  0  0  2  0  0  0  0  0  0
   39.5450   22.1310   36.4320 C   0  0  0  0  0  2  0  0  0  0  0  0
  1  2  1  0  0  0  0
  2  6  1  6  0  0  0
  2 22  1  0  0  0  0
  3  7  1  0  0  0  0
  3  2  1  0  0  0  0
  4  5  1  0  0  0  0
  4  3  1  0  0  0  0
  5 12  1  0  0  0  0
  5  1  1  0  0  0  0
  8  3  1  0  0  0  0
  9  4  1  0  0  0  0
 10  4  1  0  0  0  0
 11  5  1  0  0  0  0
 13  1  1  0  0  0  0
 13 18  1  0  0  0  0
 14 13  2  0  0  0  0
 15 14  1  0  0  0  0
 15 16  2  0  0  0  0
 16 17  1  0  0  0  0
 17 18  2  0  0  0  0
 17 21  1  0  0  0  0
 19 14  1  0  0  0  0
 20 15  1  0  0  0  0
 22 30  1  1  0  0  0
 22 23  1  0  0  0  0
 23 24  1  0  0  0  0
 23 25  1  0  0  0  0
 25 27  1  0  0  0  0
 25 26  1  0  0  0  0
 27 28  1  0  0  0  0
 29 27  1  0  0  0  0
 30 29  1  0  0  0  0
M  END
>  <minimizedAffinity>
-4.4458971

$$$$

 OpenBabel03272503233D

 30 32  0  0  1  0  0  0  0  0999 V2000
   39.9130   25.2850   34.6530 N   0  0  0  0  0  0  0  0  0  0  0  0
   39.1140   25.9980   33.6990 C   0  0  1  0  0  0  0  0  0  0  0  0
   40.0340   27.0950   33.2160 C   0  0  0  0  0  0  0  0  0  0  0  0
   41.3000   26.9770   34.0700 C   0  0  0  0  0  0  0  0  0  0  0  0
   41.2860   25.4710   34.2710 C   0  0  0  0  0  0  0  0  0  0  0  0
   38.3410   26.5470   34.3160 H   0  0  0  0  0  0  0  0  0  0  0  0
   40.3730   26.9480   32.1730 H   0  0  0  0  0  0  0  0  0  0  0  0
   39.6270   28.1010   33.3100 H   0  0  0  0  0  0  0  0  0  0  0  0
   41.1610   27.4160   35.0840 H   0  0  0  0  0  0  0  0  0  0  0  0
   42.1980   27.3320   33.5440 H   0  0  0  0  0  0  0  0  0  0  0  0
   41.9610   25.2210   35.1360 H   0  0  0  0  0  0  0  0  0  0  0  0
   41.6480   24.8890   33.4370 H   0  0  0  0  0  0  0  0  0  0  0  0
   39.4670   24.5340   35.7730 C   0  0  0  0  0  0  0  0  0  0  0  0
   38.2680   24.9720   36.3680 C   0  0  0  0  0  0  0  0  0  0  0  0
   37.8060   24.2420   37.4860 C   0  0  0  0  0  0  0  0  0  0  0  0
   38.5520   23.1670   37.9100 N   0  0  0  0  0  0  0  0  0  0  0  0
   39.7030   22.7980   37.2890 C   0  0  0  0  0  0  0  0  0  0  0  0
   40.1540   23.4860   36.2210 N   0  0  0  0  0  0  0  0  0  0  0  0
   37.6670   25.7940   36.0710 H   0  0  0  0  0  0  0  0  0  0  0  0
   36.9040   24.4850   38.0210 H   0  0  0  0  0  0  0  0  0  0  0  0
   40.2300   21.9400   37.6840 H   0  0  0  0  0  0  0  0  0  0  0  0
   38.4290   25.2620   32.7340 N   0  0  2  0  0  0  0  0  0  0  0  0
   39.1040   24.6690   31.6570 C   0  0  0  0  0  3  0  0  0  0  0  0
   39.3550   23.6120   31.9730 H   0  0  0  0  0  0  0  0  0  0  0  0
   38.3640   24.5570   30.3600 C   0  0  0  0  0  3  0  0  0  0  0  0
   38.8250   23.7200   29.7850 H   0  0  0  0  0  0  0  0  0  0  0  0
   36.9390   24.3720   30.4960 N   0  0  0  0  0  0  0  0  0  0  0  0
   36.7470   23.5230   31.0780 H   0  0  0  0  0  0  0  0  0  0  0  0
   36.4800   25.5520   31.2450 C   0  0  0  0  0  2  0  0  0  0  0  0
   37.0250   25.3720   32.6310 C   0  0  0  0  0  2  0  0  0  0  0  0
  1 13  1  0  0  0  0
  2  6  1  1  0  0  0
  2  1  1  0  0  0  0
  3  8  1  0  0  0  0
  3  2  1  0  0  0  0
  3  4  1  0  0  0  0
  4  5  1  0  0  0  0
  4  9  1  0  0  0  0
  5  1  1  0  0  0  0
  5 11  1  0  0  0  0
  7  3  1  0  0  0  0
 10  4  1  0  0  0  0
 12  5  1  0  0  0  0
 13 18  2  0  0  0  0
 13 14  1  0  0  0  0
 14 15  2  0  0  0  0
 15 16  1  0  0  0  0
 15 20  1  0  0  0  0
 17 21  1  0  0  0  0
 17 16  2  0  0  0  0
 18 17  1  0  0  0  0
 19 14  1  0  0  0  0
 22 30  1  6  0  0  0
 22  2  1  0  0  0  0
 23 24  1  0  0  0  0
 23 22  1  0  0  0  0
 25 27  1  0  0  0  0
 25 23  1  0  0  0  0
 26 25  1  0  0  0  0
 27 28  1  0  0  0  0
 27 29  1  0  0  0  0
 29 30  1  0  0  0  0
M  END
>  <minimizedAffinity>
-4.36305475

$$$$

 OpenBabel03272503233D

 30 32  0  0  1  0  0  0  0  0999 V2000
   39.1750   26.2910   34.1610 N   0  0  0  0  0  0  0  0  0  0  0  0
   38.2780   26.0610   35.2570 C   0  0  1  0  0  0  0  0  0  0  0  0
   37.0260   26.8050   34.8510 C   0  0  0  0  0  0  0  0  0  0  0  0
   37.3810   27.5290   33.5490 C   0  0  0  0  0  0  0  0  0  0  0  0
   38.3640   26.5120   32.9950 C   0  0  0  0  0  0  0  0  0  0  0  0
   38.6930   26.6780   36.1100 H   0  0  0  0  0  0  0  0  0  0  0  0
   36.1880   26.1310   34.5890 H   0  0  0  0  0  0  0  0  0  0  0  0
   36.6730   27.5300   35.5830 H   0  0  0  0  0  0  0  0  0  0  0  0
   37.9780   28.4510   33.7340 H   0  0  0  0  0  0  0  0  0  0  0  0
   36.5080   27.6810   32.8990 H   0  0  0  0  0  0  0  0  0  0  0  0
   38.9760   27.0080   32.1920 H   0  0  0  0  0  0  0  0  0  0  0  0
   37.9200   25.6420   32.5330 H   0  0  0  0  0  0  0  0  0  0  0  0
   40.5940   26.3090   34.1890 C   0  0  0  0  0  0  0  0  0  0  0  0
   41.2140   27.2830   33.3810 C   0  0  0  0  0  0  0  0  0  0  0  0
   42.6260   27.3170   33.3900 C   0  0  0  0  0  0  0  0  0  0  0  0
   43.2900   26.4060   34.1780 N   0  0  0  0  0  0  0  0  0  0  0  0
   42.6310   25.4900   34.9340 C   0  0  0  0  0  0  0  0  0  0  0  0
   41.2820   25.4470   34.9350 N   0  0  0  0  0  0  0  0  0  0  0  0
   40.7370   28.0000   32.7620 H   0  0  0  0  0  0  0  0  0  0  0  0
   43.2060   28.0170   32.8130 H   0  0  0  0  0  0  0  0  0  0  0  0
   43.2270   24.8100   35.5260 H   0  0  0  0  0  0  0  0  0  0  0  0
   38.1290   24.7560   35.7220 N   0  0  2  0  0  0  0  0  0  0  0  0
   38.2690   24.4500   37.0840 C   0  0  0  0  0  3  0  0  0  0  0  0
   37.2320   24.4990   37.5360 H   0  0  0  0  0  0  0  0  0  0  0  0
   38.8180   23.1010   37.4320 C   0  0  0  0  0  3  0  0  0  0  0  0
   38.4640   22.8540   38.4600 H   0  0  0  0  0  0  0  0  0  0  0  0
   38.4760   22.0550   36.4980 N   0  0  0  0  0  0  0  0  0  0  0  0
   37.4350   21.9900   36.4040 H   0  0  0  0  0  0  0  0  0  0  0  0
   39.0230   22.5110   35.2110 C   0  0  0  0  0  2  0  0  0  0  0  0
   38.1660   23.6760   34.8130 C   0  0  0  0  0  2  0  0  0  0  0  0
  1 13  1  0  0  0  0
  1  2  1  0  0  0  0
  2 22  1  0  0  0  0
  2  6  1  1  0  0  0
  3  2  1  0  0  0  0
  3  8  1  0  0  0  0
  4  9  1  0  0  0  0
  4  3  1  0  0  0  0
  5  4  1  0  0  0  0
  5  1  1  0  0  0  0
  7  3  1  0  0  0  0
 10  4  1  0  0  0  0
 11  5  1  0  0  0  0
 12  5  1  0  0  0  0
 13 18  1  0  0  0  0
 14 15  1  0  0  0  0
 14 13  2  0  0  0  0
 15 16  2  0  0  0  0
 16 17  1  0  0  0  0
 17 18  2  0  0  0  0
 17 21  1  0  0  0  0
 19 14  1  0  0  0  0
 20 15  1  0  0  0  0
 22 30  1  6  0  0  0
 22 23  1  0  0  0  0
 23 25  1  0  0  0  0
 23 24  1  0  0  0  0
 25 26  1  0  0  0  0
 27 25  1  0  0  0  0
 28 27  1  0  0  0  0
 29 27  1  0  0  0  0
 30 29  1  0  0  0  0
M  END
>  <minimizedAffinity>
-4.26545286

$$$$
