
 OpenBabel03272507033D

 31 34  0  0  0  0  0  0  0  0999 V2000
   38.2480   32.6720   49.2690 C   0  0  0  0  0  0  0  0  0  0  0  0
   38.9540   32.8170   48.0470 C   0  0  0  0  0  0  0  0  0  0  0  0
   38.5310   32.0060   46.9850 C   0  0  0  0  0  0  0  0  0  0  0  0
   37.5070   31.1490   47.1630 N   0  0  0  0  0  0  0  0  0  0  0  0
   36.8580   31.0390   48.3480 C   0  0  0  0  0  0  0  0  0  0  0  0
   37.2290   31.7920   49.3800 N   0  0  0  0  0  0  0  0  0  0  0  0
   38.5370   33.2760   50.1160 H   0  0  0  0  0  0  0  0  0  0  0  0
   39.7720   33.5190   47.9440 H   0  0  0  0  0  0  0  0  0  0  0  0
   39.2010   32.1090   45.7350 N   0  0  0  0  0  0  0  0  0  0  0  0
   38.5600   32.7970   44.6310 C   0  0  0  0  0  0  0  0  0  0  0  0
   38.2560   33.8260   44.8600 H   0  0  0  0  0  0  0  0  0  0  0  0
   39.5480   32.8680   43.4590 C   0  0  0  0  0  0  0  0  0  0  0  0
   40.4320   33.3930   43.8760 H   0  0  0  0  0  0  0  0  0  0  0  0
   39.8950   31.5110   43.1600 N   0  0  0  0  0  0  0  0  0  0  0  0
   39.0810   30.8810   43.0380 H   0  0  0  0  0  0  0  0  0  0  0  0
   40.7370   30.9810   44.1850 C   0  0  0  0  0  0  0  0  0  0  0  0
   40.5140   31.5320   45.5560 C   0  0  0  0  0  0  0  0  0  0  0  0
   35.7910   29.1250   49.4620 C   0  0  0  0  0  0  0  0  0  0  0  0
   35.7600   30.0940   48.4740 C   0  0  0  0  0  0  0  0  0  0  0  0
   34.6940   30.1690   47.6060 C   0  0  0  0  0  0  0  0  0  0  0  0
   33.6350   29.2820   47.7040 C   0  0  0  0  0  0  0  0  0  0  0  0
   32.4900   29.1330   47.0020 N   0  0  0  0  0  0  0  0  0  0  0  0
   31.8740   28.0680   47.6050 C   0  0  0  0  0  0  0  0  0  0  0  0
   32.6010   27.5940   48.6170 N   0  0  0  0  0  0  0  0  0  0  0  0
   33.7170   28.3420   48.7010 C   0  0  0  0  0  0  0  0  0  0  0  0
   34.7510   28.2230   49.5890 C   0  0  0  0  0  0  0  0  0  0  0  0
   36.6390   29.0680   50.1480 H   0  0  0  0  0  0  0  0  0  0  0  0
   34.6820   30.9340   46.8350 H   0  0  0  0  0  0  0  0  0  0  0  0
   32.1860   29.7150   46.1950 H   0  0  0  0  0  0  0  0  0  0  0  0
   30.9060   27.7390   47.2130 H   0  0  0  0  0  0  0  0  0  0  0  0
   34.7460   27.4550   50.3500 H   0  0  0  0  0  0  0  0  0  0  0  0
  1  6  1  0  0  0  0
  1  7  1  0  0  0  0
  2  1  2  0  0  0  0
  3  4  2  0  0  0  0
  3  2  1  0  0  0  0
  4  5  1  0  0  0  0
  5 19  1  0  0  0  0
  5  6  2  0  0  0  0
  8  2  1  0  0  0  0
  9  3  1  0  0  0  0
 10 11  1  0  0  0  0
 10  9  1  0  0  0  0
 12 13  1  0  0  0  0
 12 10  1  0  0  0  0
 14 12  1  0  0  0  0
 14 16  1  0  0  0  0
 15 14  1  0  0  0  0
 16 17  1  0  0  0  0
 17  9  1  0  0  0  0
 18 26  1  0  0  0  0
 18 27  1  0  0  0  0
 19 18  2  0  0  0  0
 20 21  2  0  0  0  0
 20 19  1  0  0  0  0
 21 25  1  0  0  0  0
 22 23  1  0  0  0  0
 22 21  1  0  0  0  0
 23 24  2  0  0  0  0
 24 25  1  0  0  0  0
 25 26  2  0  0  0  0
 26 31  1  0  0  0  0
 28 20  1  0  0  0  0
 29 22  1  0  0  0  0
 30 23  1  0  0  0  0
M  END
>  <minimizedAffinity>
-7.16749239

>  <minimizedRMSD>
2.23999166

$$$$
