
 OpenBabel03272509203D

 46 50  0  0  0  0  0  0  0  0999 V2000
   38.1570   31.4480   47.9770 C   0  0  0  0  0  0  0  0  0  0  0  0
   37.2520   31.6170   49.0170 C   0  0  0  0  0  0  0  0  0  0  0  0
   37.4000   32.8330   49.7150 C   0  0  0  0  0  0  0  0  0  0  0  0
   38.3850   33.7700   49.3660 C   0  0  0  0  0  0  0  0  0  0  0  0
   39.2520   33.4980   48.2940 C   0  0  0  0  0  0  0  0  0  0  0  0
   39.1180   32.3050   47.5970 C   0  0  0  0  0  0  0  0  0  0  0  0
   36.7370   33.0530   50.5430 H   0  0  0  0  0  0  0  0  0  0  0  0
   38.4610   34.6920   49.9320 H   0  0  0  0  0  0  0  0  0  0  0  0
   39.9770   34.2520   48.0820 H   0  0  0  0  0  0  0  0  0  0  0  0
   35.1670   30.4470   48.5230 C   0  0  0  0  0  0  0  0  0  0  0  0
   36.2510   30.6620   49.3690 C   0  0  0  0  0  0  0  0  0  0  0  0
   36.3160   29.9160   50.5540 C   0  0  0  0  0  0  0  0  0  0  0  0
   35.3240   29.0280   50.8110 N   0  0  0  0  0  0  0  0  0  0  0  0
   34.2810   28.8500   49.9560 C   0  0  0  0  0  0  0  0  0  0  0  0
   34.2090   29.5530   48.8250 N   0  0  0  0  0  0  0  0  0  0  0  0
   35.1210   31.0160   47.6200 H   0  0  0  0  0  0  0  0  0  0  0  0
   33.5030   28.1310   50.1930 H   0  0  0  0  0  0  0  0  0  0  0  0
   37.4520   30.1090   51.4880 C   0  0  0  0  0  0  0  0  0  0  0  0
   37.4980   29.2730   52.1930 H   0  0  0  0  0  0  0  0  0  0  0  0
   37.2220   31.0270   52.0790 H   0  0  0  0  0  0  0  0  0  0  0  0
   38.4070   30.3230   50.9690 H   0  0  0  0  0  0  0  0  0  0  0  0
   38.0940   30.2740   47.2230 O   0  0  0  0  0  0  0  0  0  0  0  0
   37.3030   29.9800   46.6890 H   0  0  0  0  0  0  0  0  0  0  0  0
   40.0060   32.1110   46.5590 O   0  0  0  0  0  0  0  0  0  0  0  0
   40.1940   30.7560   44.4670 C   0  0  0  0  0  0  0  0  0  0  0  0
   39.7000   31.7700   45.2660 C   0  0  0  0  0  0  0  0  0  0  0  0
   38.7290   32.6270   44.7440 C   0  0  0  0  0  0  0  0  0  0  0  0
   38.2670   32.4550   43.4280 C   0  0  0  0  0  0  0  0  0  0  0  0
   37.3640   33.0950   42.6500 N   0  0  0  0  0  0  0  0  0  0  0  0
   37.2970   32.5180   41.4420 C   0  0  0  0  0  0  0  0  0  0  0  0
   38.1880   31.4820   41.4590 N   0  0  0  0  0  0  0  0  0  0  0  0
   38.7860   31.4360   42.6720 C   0  0  0  0  0  0  0  0  0  0  0  0
   39.7400   30.5950   43.1830 C   0  0  0  0  0  0  0  0  0  0  0  0
   40.9360   30.1570   44.9650 H   0  0  0  0  0  0  0  0  0  0  0  0
   38.2480   33.4600   45.2410 H   0  0  0  0  0  0  0  0  0  0  0  0
   36.7970   33.9250   42.9530 H   0  0  0  0  0  0  0  0  0  0  0  0
   36.6530   32.8390   40.6380 H   0  0  0  0  0  0  0  0  0  0  0  0
   40.2880   29.5320   42.4110 N   0  0  0  0  0  0  0  0  0  0  0  0
   41.3510   29.7540   41.4480 C   0  0  0  0  0  3  0  0  0  0  0  0
   42.3100   30.0520   41.9140 H   0  0  0  0  0  0  0  0  0  0  0  0
   41.4950   28.5300   40.5730 C   0  0  0  0  0  3  0  0  0  0  0  0
   41.9550   27.6800   41.1330 H   0  0  0  0  0  0  0  0  0  0  0  0
   40.1380   28.1650   40.1660 N   0  0  0  0  0  0  0  0  0  0  0  0
   39.5600   29.0560   40.0990 H   0  0  0  0  0  0  0  0  0  0  0  0
   39.5720   27.4600   41.3000 C   0  0  0  0  0  2  0  0  0  0  0  0
   39.7660   28.1950   42.5930 C   0  0  0  0  0  2  0  0  0  0  0  0
  1  2  1  0  0  0  0
  2 11  1  0  0  0  0
  2  3  2  0  0  0  0
  3  7  1  0  0  0  0
  4  3  1  0  0  0  0
  4  8  1  0  0  0  0
  5  4  2  0  0  0  0
  6  1  2  0  0  0  0
  6  5  1  0  0  0  0
  9  5  1  0  0  0  0
 10 15  2  0  0  0  0
 10 11  1  0  0  0  0
 11 12  2  0  0  0  0
 12 13  1  0  0  0  0
 12 18  1  0  0  0  0
 14 17  1  0  0  0  0
 14 13  2  0  0  0  0
 15 14  1  0  0  0  0
 16 10  1  0  0  0  0
 18 20  1  0  0  0  0
 18 19  1  0  0  0  0
 21 18  1  0  0  0  0
 22  1  1  0  0  0  0
 23 22  1  0  0  0  0
 24  6  1  0  0  0  0
 25 34  1  0  0  0  0
 25 26  1  0  0  0  0
 26 24  1  0  0  0  0
 27 35  1  0  0  0  0
 27 26  2  0  0  0  0
 28 27  1  0  0  0  0
 29 36  1  0  0  0  0
 29 28  1  0  0  0  0
 30 31  2  0  0  0  0
 30 29  1  0  0  0  0
 31 32  1  0  0  0  0
 32 33  1  0  0  0  0
 32 28  2  0  0  0  0
 33 25  2  0  0  0  0
 37 30  1  0  0  0  0
 38 46  1  0  0  0  0
 38 33  1  0  0  0  0
 39 40  1  0  0  0  0
 39 38  1  0  0  0  0
 41 42  1  0  0  0  0
 41 39  1  0  0  0  0
 43 41  1  0  0  0  0
 43 45  1  0  0  0  0
 44 43  1  0  0  0  0
 45 46  1  0  0  0  0
M  END
>  <minimizedAffinity>
-7.52075195

>  <minimizedRMSD>
1.23354244

$$$$
