
 OpenBabel03272502293D

 23 24  0  0  0  0  0  0  0  0999 V2000
   38.3000   25.2660   36.3410 C   0  0  0  0  0  0  0  0  0  0  0  0
   39.3370   25.7020   36.2850 H   0  0  0  0  0  0  0  0  0  0  0  0
   37.9280   25.5830   37.3320 H   0  0  0  0  0  0  0  0  0  0  0  0
   38.4470   23.8570   36.2090 N   0  0  0  0  0  0  0  0  0  0  0  0
   39.7740   23.3670   36.3500 C   0  0  0  0  0  3  0  0  0  0  0  0
   39.9810   22.6320   35.5260 H   0  0  0  0  0  0  0  0  0  0  0  0
   40.0260   22.6020   37.6290 C   0  0  0  0  0  3  0  0  0  0  0  0
   39.7990   21.5260   37.4970 H   0  0  0  0  0  0  0  0  0  0  0  0
   39.2020   23.1390   38.6650 N   0  0  0  0  0  0  0  0  0  0  0  0
   39.5080   24.0360   39.0520 H   0  0  0  0  0  0  0  0  0  0  0  0
   37.7990   23.0000   38.4170 C   0  0  0  0  0  2  0  0  0  0  0  0
   37.4360   23.1570   36.9580 C   0  0  0  0  0  2  0  0  0  0  0  0
   37.4900   27.1960   35.0750 C   0  0  0  0  0  3  0  0  0  0  0  0
   37.4890   25.9240   35.2830 C   0  0  0  0  0  3  0  0  0  0  0  0
   35.2140   29.6130   33.4120 C   0  0  0  0  0  0  0  0  0  0  0  0
   35.9760   28.9760   34.4070 C   0  0  0  0  0  0  0  0  0  0  0  0
   36.7090   27.8490   34.0730 C   0  0  0  0  0  0  0  0  0  0  0  0
   36.6720   27.3850   32.7880 N   0  0  0  0  0  0  0  0  0  0  0  0
   35.9380   28.0080   31.8580 C   0  0  0  0  0  0  0  0  0  0  0  0
   35.2070   29.1200   32.1540 N   0  0  0  0  0  0  0  0  0  0  0  0
   34.6360   30.4900   33.6430 H   0  0  0  0  0  0  0  0  0  0  0  0
   35.9980   29.3490   35.4160 H   0  0  0  0  0  0  0  0  0  0  0  0
   36.0100   27.5250   30.8900 H   0  0  0  0  0  0  0  0  0  0  0  0
  1  3  1  0  0  0  0
  2  1  1  0  0  0  0
  4  1  1  0  0  0  0
  4  5  1  0  0  0  0
  4 12  1  0  0  0  0
  5  7  1  0  0  0  0
  6  5  1  0  0  0  0
  7  9  1  0  0  0  0
  8  7  1  0  0  0  0
  9 10  1  0  0  0  0
 11  9  1  0  0  0  0
 12 11  1  0  0  0  0
 13 14  2  0  0  0  0
 14  1  1  0  0  0  0
 15 21  1  0  0  0  0
 15 16  1  0  0  0  0
 16 22  1  0  0  0  0
 17 16  2  0  0  0  0
 17 13  1  0  0  0  0
 18 17  1  0  0  0  0
 19 20  1  0  0  0  0
 19 18  2  0  0  0  0
 20 15  2  0  0  0  0
 23 19  1  0  0  0  0
M  END
>  <minimizedAffinity>
-4.42593288

$$$$

 OpenBabel03272502293D

 23 24  0  0  0  0  0  0  0  0999 V2000
   37.0510   26.4130   33.2920 C   0  0  0  0  0  0  0  0  0  0  0  0
   35.9480   26.2380   33.4430 H   0  0  0  0  0  0  0  0  0  0  0  0
   37.2180   27.4310   33.6850 H   0  0  0  0  0  0  0  0  0  0  0  0
   37.2900   26.2930   31.8940 N   0  0  0  0  0  0  0  0  0  0  0  0
   37.9720   25.1110   31.4920 C   0  0  0  0  0  3  0  0  0  0  0  0
   38.7840   25.3880   30.7660 H   0  0  0  0  0  0  0  0  0  0  0  0
   37.1110   24.1120   30.7540 C   0  0  0  0  0  3  0  0  0  0  0  0
   37.1190   24.3120   29.6650 H   0  0  0  0  0  0  0  0  0  0  0  0
   35.7720   24.1960   31.2440 N   0  0  0  0  0  0  0  0  0  0  0  0
   35.6090   23.7730   32.1620 H   0  0  0  0  0  0  0  0  0  0  0  0
   35.1520   25.4660   31.0130 C   0  0  0  0  0  2  0  0  0  0  0  0
   36.1120   26.6270   31.1350 C   0  0  0  0  0  2  0  0  0  0  0  0
   37.7800   25.4860   35.4350 C   0  0  0  0  0  3  0  0  0  0  0  0
   37.7720   25.4340   34.1470 C   0  0  0  0  0  3  0  0  0  0  0  0
   38.7030   23.4120   38.3730 C   0  0  0  0  0  0  0  0  0  0  0  0
   38.0110   24.3240   37.5570 C   0  0  0  0  0  0  0  0  0  0  0  0
   38.4780   24.5650   36.2750 C   0  0  0  0  0  0  0  0  0  0  0  0
   39.5950   23.9130   35.8370 N   0  0  0  0  0  0  0  0  0  0  0  0
   40.2380   23.0490   36.6320 C   0  0  0  0  0  0  0  0  0  0  0  0
   39.8050   22.7890   37.8990 N   0  0  0  0  0  0  0  0  0  0  0  0
   38.3640   23.2060   39.3720 H   0  0  0  0  0  0  0  0  0  0  0  0
   37.1320   24.8330   37.9110 H   0  0  0  0  0  0  0  0  0  0  0  0
   41.1030   22.6120   36.1470 H   0  0  0  0  0  0  0  0  0  0  0  0
  1  2  1  0  0  0  0
  1  3  1  0  0  0  0
  1 14  1  0  0  0  0
  4  1  1  0  0  0  0
  5  4  1  0  0  0  0
  6  5  1  0  0  0  0
  7  9  1  0  0  0  0
  7  5  1  0  0  0  0
  8  7  1  0  0  0  0
  9 10  1  0  0  0  0
 11 12  1  0  0  0  0
 11  9  1  0  0  0  0
 12  4  1  0  0  0  0
 13 17  1  0  0  0  0
 14 13  2  0  0  0  0
 15 21  1  0  0  0  0
 16 22  1  0  0  0  0
 16 15  2  0  0  0  0
 17 16  1  0  0  0  0
 18 17  2  0  0  0  0
 18 19  1  0  0  0  0
 19 20  2  0  0  0  0
 20 15  1  0  0  0  0
 23 19  1  0  0  0  0
M  END
>  <minimizedAffinity>
-4.20592928

$$$$

 OpenBabel03272502293D

 23 24  0  0  0  0  0  0  0  0999 V2000
   38.3730   25.9020   32.4670 C   0  0  0  0  0  0  0  0  0  0  0  0
   39.3050   25.7140   31.8630 H   0  0  0  0  0  0  0  0  0  0  0  0
   37.6290   25.2080   32.0370 H   0  0  0  0  0  0  0  0  0  0  0  0
   38.0460   27.2750   32.2870 N   0  0  0  0  0  0  0  0  0  0  0  0
   38.4490   27.8400   31.0450 C   0  0  0  0  0  3  0  0  0  0  0  0
   38.9320   28.8360   31.2370 H   0  0  0  0  0  0  0  0  0  0  0  0
   37.3130   28.1330   30.0930 C   0  0  0  0  0  3  0  0  0  0  0  0
   36.9120   29.1520   30.2590 H   0  0  0  0  0  0  0  0  0  0  0  0
   36.2750   27.1730   30.2930 N   0  0  0  0  0  0  0  0  0  0  0  0
   36.4560   26.2400   29.9110 H   0  0  0  0  0  0  0  0  0  0  0  0
   35.6890   27.2210   31.5980 C   0  0  0  0  0  2  0  0  0  0  0  0
   36.6890   27.5430   32.6870 C   0  0  0  0  0  2  0  0  0  0  0  0
   38.1860   24.4340   34.4150 C   0  0  0  0  0  3  0  0  0  0  0  0
   38.6680   25.4970   33.8660 C   0  0  0  0  0  3  0  0  0  0  0  0
   39.7860   22.8440   37.3630 C   0  0  0  0  0  0  0  0  0  0  0  0
   39.5390   23.2290   36.0340 C   0  0  0  0  0  0  0  0  0  0  0  0
   38.4450   24.0340   35.7610 C   0  0  0  0  0  0  0  0  0  0  0  0
   37.6360   24.4330   36.7880 N   0  0  0  0  0  0  0  0  0  0  0  0
   37.8920   24.0530   38.0460 C   0  0  0  0  0  0  0  0  0  0  0  0
   38.9600   23.2620   38.3480 N   0  0  0  0  0  0  0  0  0  0  0  0
   40.6270   22.2190   37.6040 H   0  0  0  0  0  0  0  0  0  0  0  0
   40.1810   22.9090   35.2320 H   0  0  0  0  0  0  0  0  0  0  0  0
   37.1660   24.4480   38.7470 H   0  0  0  0  0  0  0  0  0  0  0  0
  1 14  1  0  0  0  0
  2  1  1  0  0  0  0
  3  1  1  0  0  0  0
  4  1  1  0  0  0  0
  4 12  1  0  0  0  0
  5  6  1  0  0  0  0
  5  4  1  0  0  0  0
  7  8  1  0  0  0  0
  7  9  1  0  0  0  0
  7  5  1  0  0  0  0
  9 11  1  0  0  0  0
 10  9  1  0  0  0  0
 11 12  1  0  0  0  0
 13 17  1  0  0  0  0
 14 13  2  0  0  0  0
 15 21  1  0  0  0  0
 15 20  1  0  0  0  0
 16 15  2  0  0  0  0
 17 16  1  0  0  0  0
 17 18  2  0  0  0  0
 18 19  1  0  0  0  0
 19 20  2  0  0  0  0
 19 23  1  0  0  0  0
 22 16  1  0  0  0  0
M  END
>  <minimizedAffinity>
-4.04335642

$$$$

 OpenBabel03272502293D

 23 24  0  0  0  0  0  0  0  0999 V2000
   37.0360   26.7210   33.5060 C   0  0  0  0  0  0  0  0  0  0  0  0
   36.0210   26.8870   33.9670 H   0  0  0  0  0  0  0  0  0  0  0  0
   37.5610   27.6790   33.6600 H   0  0  0  0  0  0  0  0  0  0  0  0
   36.8100   26.4050   32.1370 N   0  0  0  0  0  0  0  0  0  0  0  0
   35.9330   27.2850   31.4450 C   0  0  0  0  0  3  0  0  0  0  0  0
   35.2020   26.6760   30.8480 H   0  0  0  0  0  0  0  0  0  0  0  0
   36.6130   28.1810   30.4360 C   0  0  0  0  0  3  0  0  0  0  0  0
   36.6660   27.6890   29.4440 H   0  0  0  0  0  0  0  0  0  0  0  0
   37.9340   28.4800   30.8910 N   0  0  0  0  0  0  0  0  0  0  0  0
   37.9950   29.1620   31.6520 H   0  0  0  0  0  0  0  0  0  0  0  0
   38.7800   27.3310   31.0000 C   0  0  0  0  0  2  0  0  0  0  0  0
   38.0460   26.0940   31.4660 C   0  0  0  0  0  2  0  0  0  0  0  0
   37.8150   25.6940   35.5850 C   0  0  0  0  0  3  0  0  0  0  0  0
   37.7100   25.6610   34.3010 C   0  0  0  0  0  3  0  0  0  0  0  0
   38.6470   23.4110   38.3920 C   0  0  0  0  0  0  0  0  0  0  0  0
   37.9960   24.4000   37.6340 C   0  0  0  0  0  0  0  0  0  0  0  0
   38.4710   24.6940   36.3660 C   0  0  0  0  0  0  0  0  0  0  0  0
   39.5560   24.0170   35.8860 N   0  0  0  0  0  0  0  0  0  0  0  0
   40.1600   23.0790   36.6270 C   0  0  0  0  0  0  0  0  0  0  0  0
   39.7170   22.7660   37.8780 N   0  0  0  0  0  0  0  0  0  0  0  0
   38.3010   23.1630   39.3800 H   0  0  0  0  0  0  0  0  0  0  0  0
   37.1430   24.9280   38.0220 H   0  0  0  0  0  0  0  0  0  0  0  0
   41.0020   22.6310   36.1130 H   0  0  0  0  0  0  0  0  0  0  0  0
  1  3  1  0  0  0  0
  1  2  1  0  0  0  0
  1 14  1  0  0  0  0
  4  1  1  0  0  0  0
  5  4  1  0  0  0  0
  6  5  1  0  0  0  0
  7  9  1  0  0  0  0
  7  5  1  0  0  0  0
  8  7  1  0  0  0  0
  9 11  1  0  0  0  0
  9 10  1  0  0  0  0
 11 12  1  0  0  0  0
 12  4  1  0  0  0  0
 13 17  1  0  0  0  0
 14 13  2  0  0  0  0
 15 21  1  0  0  0  0
 16 22  1  0  0  0  0
 16 15  2  0  0  0  0
 17 16  1  0  0  0  0
 18 17  2  0  0  0  0
 18 19  1  0  0  0  0
 19 20  2  0  0  0  0
 20 15  1  0  0  0  0
 23 19  1  0  0  0  0
M  END
>  <minimizedAffinity>
-3.92231035

$$$$

 OpenBabel03272502293D

 23 24  0  0  0  0  0  0  0  0999 V2000
   38.3460   24.8430   34.4890 C   0  0  0  0  0  0  0  0  0  0  0  0
   37.7350   23.9240   34.2640 H   0  0  0  0  0  0  0  0  0  0  0  0
   39.1050   24.8650   33.6890 H   0  0  0  0  0  0  0  0  0  0  0  0
   38.8910   24.6550   35.7910 N   0  0  0  0  0  0  0  0  0  0  0  0
   37.9470   24.6670   36.8540 C   0  0  0  0  0  3  0  0  0  0  0  0
   38.3420   25.3120   37.6860 H   0  0  0  0  0  0  0  0  0  0  0  0
   37.7020   23.3170   37.4890 C   0  0  0  0  0  3  0  0  0  0  0  0
   38.4140   23.1350   38.3180 H   0  0  0  0  0  0  0  0  0  0  0  0
   37.8540   22.3000   36.4980 N   0  0  0  0  0  0  0  0  0  0  0  0
   37.0810   22.2120   35.8320 H   0  0  0  0  0  0  0  0  0  0  0  0
   39.1740   22.2210   35.9500 C   0  0  0  0  0  2  0  0  0  0  0  0
   39.8390   23.5710   35.8050 C   0  0  0  0  0  2  0  0  0  0  0  0
   37.5980   26.9200   33.4340 C   0  0  0  0  0  3  0  0  0  0  0  0
   37.4450   26.0160   34.3410 C   0  0  0  0  0  3  0  0  0  0  0  0
   35.8150   29.7950   31.9060 C   0  0  0  0  0  0  0  0  0  0  0  0
   36.6530   28.6750   32.0440 C   0  0  0  0  0  0  0  0  0  0  0  0
   36.7530   28.0610   33.2820 C   0  0  0  0  0  0  0  0  0  0  0  0
   36.0380   28.5580   34.3340 N   0  0  0  0  0  0  0  0  0  0  0  0
   35.2460   29.6270   34.1780 C   0  0  0  0  0  0  0  0  0  0  0  0
   35.1260   30.2540   32.9730 N   0  0  0  0  0  0  0  0  0  0  0  0
   35.7190   30.2920   30.9570 H   0  0  0  0  0  0  0  0  0  0  0  0
   37.2130   28.2910   31.2100 H   0  0  0  0  0  0  0  0  0  0  0  0
   34.7450   29.9020   35.0990 H   0  0  0  0  0  0  0  0  0  0  0  0
  1  4  1  0  0  0  0
  2  1  1  0  0  0  0
  3  1  1  0  0  0  0
  4 12  1  0  0  0  0
  4  5  1  0  0  0  0
  5  7  1  0  0  0  0
  5  6  1  0  0  0  0
  7  8  1  0  0  0  0
  9  7  1  0  0  0  0
 10  9  1  0  0  0  0
 11  9  1  0  0  0  0
 12 11  1  0  0  0  0
 13 14  2  0  0  0  0
 14  1  1  0  0  0  0
 15 16  2  0  0  0  0
 15 20  1  0  0  0  0
 16 17  1  0  0  0  0
 17 13  1  0  0  0  0
 17 18  2  0  0  0  0
 19 18  1  0  0  0  0
 19 23  1  0  0  0  0
 20 19  2  0  0  0  0
 21 15  1  0  0  0  0
 22 16  1  0  0  0  0
M  END
>  <minimizedAffinity>
-3.91155481

$$$$

 OpenBabel03272502293D

 23 24  0  0  0  0  0  0  0  0999 V2000
   35.5730   24.8130   31.2980 C   0  0  0  0  0  0  0  0  0  0  0  0
   35.4940   25.2540   30.2640 H   0  0  0  0  0  0  0  0  0  0  0  0
   34.5650   24.9480   31.7260 H   0  0  0  0  0  0  0  0  0  0  0  0
   36.5860   25.5510   31.9730 N   0  0  0  0  0  0  0  0  0  0  0  0
   37.9220   25.2130   31.6230 C   0  0  0  0  0  3  0  0  0  0  0  0
   38.5310   25.1120   32.5620 H   0  0  0  0  0  0  0  0  0  0  0  0
   38.6390   26.2610   30.8030 C   0  0  0  0  0  3  0  0  0  0  0  0
   39.1510   26.9930   31.4580 H   0  0  0  0  0  0  0  0  0  0  0  0
   37.6900   26.9410   29.9800 N   0  0  0  0  0  0  0  0  0  0  0  0
   37.3590   26.4190   29.1630 H   0  0  0  0  0  0  0  0  0  0  0  0
   36.6960   27.6590   30.7180 C   0  0  0  0  0  2  0  0  0  0  0  0
   36.2790   26.9580   31.9910 C   0  0  0  0  0  2  0  0  0  0  0  0
   35.3390   22.4540   31.9000 C   0  0  0  0  0  3  0  0  0  0  0  0
   35.8450   23.3610   31.1360 C   0  0  0  0  0  3  0  0  0  0  0  0
   35.5170   18.8260   32.6700 C   0  0  0  0  0  0  0  0  0  0  0  0
   35.2610   20.2020   32.8090 C   0  0  0  0  0  0  0  0  0  0  0  0
   35.5980   21.0550   31.7720 C   0  0  0  0  0  0  0  0  0  0  0  0
   36.1700   20.5410   30.6420 N   0  0  0  0  0  0  0  0  0  0  0  0
   36.4050   19.2270   30.5330 C   0  0  0  0  0  0  0  0  0  0  0  0
   36.0840   18.3610   31.5350 N   0  0  0  0  0  0  0  0  0  0  0  0
   35.2660   18.1400   33.4590 H   0  0  0  0  0  0  0  0  0  0  0  0
   34.8110   20.5970   33.7030 H   0  0  0  0  0  0  0  0  0  0  0  0
   36.8600   18.9710   29.5830 H   0  0  0  0  0  0  0  0  0  0  0  0
  1  3  1  0  0  0  0
  1  4  1  0  0  0  0
  2  1  1  0  0  0  0
  4 12  1  0  0  0  0
  5  4  1  0  0  0  0
  5  6  1  0  0  0  0
  7  8  1  0  0  0  0
  7  5  1  0  0  0  0
  9 11  1  0  0  0  0
  9  7  1  0  0  0  0
 10  9  1  0  0  0  0
 11 12  1  0  0  0  0
 14  1  1  0  0  0  0
 14 13  2  0  0  0  0
 15 16  1  0  0  0  0
 15 21  1  0  0  0  0
 16 22  1  0  0  0  0
 17 13  1  0  0  0  0
 17 16  2  0  0  0  0
 18 17  1  0  0  0  0
 19 18  2  0  0  0  0
 19 20  1  0  0  0  0
 20 15  2  0  0  0  0
 23 19  1  0  0  0  0
M  END
>  <minimizedAffinity>
-3.90923595

$$$$

 OpenBabel03272502293D

 23 24  0  0  0  0  0  0  0  0999 V2000
   35.5960   30.6780   35.0700 C   0  0  0  0  0  0  0  0  0  0  0  0
   35.7090   30.2000   36.0830 H   0  0  0  0  0  0  0  0  0  0  0  0
   36.4980   31.3060   34.9660 H   0  0  0  0  0  0  0  0  0  0  0  0
   34.3830   31.4210   35.1080 N   0  0  0  0  0  0  0  0  0  0  0  0
   33.3720   30.8950   35.9590 C   0  0  0  0  0  3  0  0  0  0  0  0
   32.3920   30.9040   35.4110 H   0  0  0  0  0  0  0  0  0  0  0  0
   33.1270   31.7030   37.2130 C   0  0  0  0  0  3  0  0  0  0  0  0
   32.3640   32.4860   37.0350 H   0  0  0  0  0  0  0  0  0  0  0  0
   34.3510   32.3140   37.6220 N   0  0  0  0  0  0  0  0  0  0  0  0
   35.0310   31.6890   38.0660 H   0  0  0  0  0  0  0  0  0  0  0  0
   34.8750   33.2480   36.6730 C   0  0  0  0  0  2  0  0  0  0  0  0
   34.6420   32.8310   35.2380 C   0  0  0  0  0  2  0  0  0  0  0  0
   36.3810   28.5370   34.1830 C   0  0  0  0  0  3  0  0  0  0  0  0
   35.6420   29.5860   34.0620 C   0  0  0  0  0  3  0  0  0  0  0  0
   35.9760   26.6310   31.0230 C   0  0  0  0  0  0  0  0  0  0  0  0
   35.8990   27.6730   31.9640 C   0  0  0  0  0  0  0  0  0  0  0  0
   36.4510   27.4840   33.2210 C   0  0  0  0  0  0  0  0  0  0  0  0
   37.0540   26.2940   33.5140 N   0  0  0  0  0  0  0  0  0  0  0  0
   37.1150   25.3160   32.6010 C   0  0  0  0  0  0  0  0  0  0  0  0
   36.5820   25.4700   31.3560 N   0  0  0  0  0  0  0  0  0  0  0  0
   35.5560   26.7490   30.0400 H   0  0  0  0  0  0  0  0  0  0  0  0
   35.4210   28.6060   31.7240 H   0  0  0  0  0  0  0  0  0  0  0  0
   37.6220   24.4360   32.9790 H   0  0  0  0  0  0  0  0  0  0  0  0
  1  4  1  0  0  0  0
  1  2  1  0  0  0  0
  3  1  1  0  0  0  0
  4 12  1  0  0  0  0
  4  5  1  0  0  0  0
  5  7  1  0  0  0  0
  6  5  1  0  0  0  0
  7  9  1  0  0  0  0
  8  7  1  0  0  0  0
  9 10  1  0  0  0  0
 11  9  1  0  0  0  0
 12 11  1  0  0  0  0
 14 13  2  0  0  0  0
 14  1  1  0  0  0  0
 15 20  2  0  0  0  0
 15 16  1  0  0  0  0
 16 17  2  0  0  0  0
 17 18  1  0  0  0  0
 17 13  1  0  0  0  0
 19 23  1  0  0  0  0
 19 18  2  0  0  0  0
 20 19  1  0  0  0  0
 21 15  1  0  0  0  0
 22 16  1  0  0  0  0
M  END
>  <minimizedAffinity>
-3.83740854

$$$$

 OpenBabel03272502293D

 23 24  0  0  0  0  0  0  0  0999 V2000
   36.5990   27.9790   33.3810 C   0  0  0  0  0  0  0  0  0  0  0  0
   35.8310   27.8110   32.5740 H   0  0  0  0  0  0  0  0  0  0  0  0
   37.3940   28.5580   32.8800 H   0  0  0  0  0  0  0  0  0  0  0  0
   37.0180   26.6890   33.8140 N   0  0  0  0  0  0  0  0  0  0  0  0
   37.8190   25.9660   32.8890 C   0  0  0  0  0  3  0  0  0  0  0  0
   37.4400   24.9100   32.8240 H   0  0  0  0  0  0  0  0  0  0  0  0
   39.2720   25.8370   33.2850 C   0  0  0  0  0  3  0  0  0  0  0  0
   39.4330   24.9340   33.9060 H   0  0  0  0  0  0  0  0  0  0  0  0
   39.6600   26.9970   34.0220 N   0  0  0  0  0  0  0  0  0  0  0  0
   39.8080   27.8450   33.4660 H   0  0  0  0  0  0  0  0  0  0  0  0
   38.9500   27.1630   35.2540 C   0  0  0  0  0  2  0  0  0  0  0  0
   37.5040   26.7290   35.1690 C   0  0  0  0  0  2  0  0  0  0  0  0
   35.3460   29.9270   34.1680 C   0  0  0  0  0  3  0  0  0  0  0  0
   35.9620   28.8240   34.4250 C   0  0  0  0  0  3  0  0  0  0  0  0
   34.9330   32.3320   36.9660 C   0  0  0  0  0  0  0  0  0  0  0  0
   35.5420   31.5120   35.9990 C   0  0  0  0  0  0  0  0  0  0  0  0
   34.7390   30.7600   35.1560 C   0  0  0  0  0  0  0  0  0  0  0  0
   33.3810   30.8340   35.2850 N   0  0  0  0  0  0  0  0  0  0  0  0
   32.8250   31.6220   36.2140 C   0  0  0  0  0  0  0  0  0  0  0  0
   33.5860   32.3740   37.0580 N   0  0  0  0  0  0  0  0  0  0  0  0
   35.5310   32.9250   37.6340 H   0  0  0  0  0  0  0  0  0  0  0  0
   36.6120   31.4600   35.9060 H   0  0  0  0  0  0  0  0  0  0  0  0
   31.7420   31.5760   36.1940 H   0  0  0  0  0  0  0  0  0  0  0  0
  1  4  1  0  0  0  0
  1 14  1  0  0  0  0
  2  1  1  0  0  0  0
  3  1  1  0  0  0  0
  4 12  1  0  0  0  0
  5  7  1  0  0  0  0
  5  4  1  0  0  0  0
  6  5  1  0  0  0  0
  7  8  1  0  0  0  0
  7  9  1  0  0  0  0
  9 11  1  0  0  0  0
 10  9  1  0  0  0  0
 12 11  1  0  0  0  0
 13 14  2  0  0  0  0
 13 17  1  0  0  0  0
 15 20  1  0  0  0  0
 15 21  1  0  0  0  0
 16 15  2  0  0  0  0
 17 18  2  0  0  0  0
 17 16  1  0  0  0  0
 18 19  1  0  0  0  0
 19 20  2  0  0  0  0
 22 16  1  0  0  0  0
 23 19  1  0  0  0  0
M  END
>  <minimizedAffinity>
-3.82398272

$$$$

 OpenBabel03272502293D

 23 24  0  0  0  0  0  0  0  0999 V2000
   39.9460   23.0080   34.3360 C   0  0  0  0  0  0  0  0  0  0  0  0
   39.8240   21.9230   34.6140 H   0  0  0  0  0  0  0  0  0  0  0  0
   40.7540   23.0040   33.5850 H   0  0  0  0  0  0  0  0  0  0  0  0
   40.2820   23.6960   35.5360 N   0  0  0  0  0  0  0  0  0  0  0  0
   39.2790   23.6880   36.5440 C   0  0  0  0  0  3  0  0  0  0  0  0
   39.1700   24.7270   36.9590 H   0  0  0  0  0  0  0  0  0  0  0  0
   39.6010   22.8210   37.7400 C   0  0  0  0  0  3  0  0  0  0  0  0
   40.1590   23.3950   38.5050 H   0  0  0  0  0  0  0  0  0  0  0  0
   40.3860   21.7070   37.3120 N   0  0  0  0  0  0  0  0  0  0  0  0
   39.8760   20.9690   36.8190 H   0  0  0  0  0  0  0  0  0  0  0  0
   41.6570   22.0740   36.7640 C   0  0  0  0  0  2  0  0  0  0  0  0
   41.6130   23.3610   35.9710 C   0  0  0  0  0  2  0  0  0  0  0  0
   38.6070   24.4110   32.8450 C   0  0  0  0  0  3  0  0  0  0  0  0
   38.6790   23.4390   33.6890 C   0  0  0  0  0  3  0  0  0  0  0  0
   35.3000   24.3570   31.1590 C   0  0  0  0  0  0  0  0  0  0  0  0
   36.4880   23.9120   31.7670 C   0  0  0  0  0  0  0  0  0  0  0  0
   37.3990   24.8510   32.2220 C   0  0  0  0  0  0  0  0  0  0  0  0
   37.1230   26.1800   32.0700 N   0  0  0  0  0  0  0  0  0  0  0  0
   35.9860   26.5790   31.4870 C   0  0  0  0  0  0  0  0  0  0  0  0
   35.0670   25.6810   31.0290 N   0  0  0  0  0  0  0  0  0  0  0  0
   34.5740   23.6510   30.7960 H   0  0  0  0  0  0  0  0  0  0  0  0
   36.6960   22.8630   31.8820 H   0  0  0  0  0  0  0  0  0  0  0  0
   35.9080   27.6580   31.4380 H   0  0  0  0  0  0  0  0  0  0  0  0
  1  2  1  0  0  0  0
  1  4  1  0  0  0  0
  3  1  1  0  0  0  0
  4 12  1  0  0  0  0
  4  5  1  0  0  0  0
  5  6  1  0  0  0  0
  5  7  1  0  0  0  0
  7  8  1  0  0  0  0
  9  7  1  0  0  0  0
 10  9  1  0  0  0  0
 11  9  1  0  0  0  0
 12 11  1  0  0  0  0
 13 14  2  0  0  0  0
 14  1  1  0  0  0  0
 15 16  1  0  0  0  0
 16 22  1  0  0  0  0
 16 17  2  0  0  0  0
 17 13  1  0  0  0  0
 18 17  1  0  0  0  0
 19 18  2  0  0  0  0
 20 15  2  0  0  0  0
 20 19  1  0  0  0  0
 21 15  1  0  0  0  0
 23 19  1  0  0  0  0
M  END
>  <minimizedAffinity>
-3.76671124

$$$$
