
 OpenBabel03262522473D

 25 27  0  0  0  0  0  0  0  0999 V2000
   36.0910   30.0950   48.8170 C   0  0  0  0  0  0  0  0  0  0  0  0
   35.9370   29.1960   49.8010 C   0  0  0  0  0  0  0  0  0  0  0  0
   34.9070   28.2940   49.7510 C   0  0  0  0  0  0  0  0  0  0  0  0
   34.0760   28.3870   48.6470 C   0  0  0  0  0  0  0  0  0  0  0  0
   34.7990   29.7730   47.7050 S   0  0  0  0  0  0  0  0  0  0  0  0
   36.6350   29.1900   50.6350 H   0  0  0  0  0  0  0  0  0  0  0  0
   34.6880   27.5250   50.4720 H   0  0  0  0  0  0  0  0  0  0  0  0
   38.0040   33.1340   49.4350 C   0  0  0  0  0  0  0  0  0  0  0  0
   38.9690   33.1210   48.3850 C   0  0  0  0  0  0  0  0  0  0  0  0
   38.9300   32.0490   47.4790 C   0  0  0  0  0  0  0  0  0  0  0  0
   37.9840   31.0830   47.6430 N   0  0  0  0  0  0  0  0  0  0  0  0
   37.0880   31.1350   48.6500 C   0  0  0  0  0  0  0  0  0  0  0  0
   37.1020   32.1420   49.5280 N   0  0  0  0  0  0  0  0  0  0  0  0
   37.9860   33.9390   50.1720 H   0  0  0  0  0  0  0  0  0  0  0  0
   39.6830   33.9340   48.3300 H   0  0  0  0  0  0  0  0  0  0  0  0
   39.6650   32.0420   46.6820 H   0  0  0  0  0  0  0  0  0  0  0  0
   32.9320   27.6450   48.2730 N   0  0  0  0  0  0  0  0  0  0  0  0
   31.5950   27.7320   48.7760 C   0  0  0  0  0  0  0  0  0  0  0  0
   31.5800   27.4140   49.8410 H   0  0  0  0  0  0  0  0  0  0  0  0
   30.5990   26.9980   47.9620 C   0  0  0  0  0  0  0  0  0  0  0  0
   29.7690   26.6420   48.6250 H   0  0  0  0  0  0  0  0  0  0  0  0
   31.0580   25.8470   47.2430 N   0  0  0  0  0  0  0  0  0  0  0  0
   30.9410   25.8980   46.2050 H   0  0  0  0  0  0  0  0  0  0  0  0
   32.4030   25.4710   47.5060 C   0  0  0  0  0  0  0  0  0  0  0  0
   33.2700   26.6910   47.2360 C   0  0  0  0  0  0  0  0  0  0  0  0
  1  2  2  0  0  0  0
  2  6  1  0  0  0  0
  3  2  1  0  0  0  0
  3  7  1  0  0  0  0
  4  3  2  0  0  0  0
  5  4  1  0  0  0  0
  5  1  1  0  0  0  0
  8 13  1  0  0  0  0
  8 14  1  0  0  0  0
  9  8  2  0  0  0  0
 10 11  2  0  0  0  0
 10  9  1  0  0  0  0
 11 12  1  0  0  0  0
 12  1  1  0  0  0  0
 12 13  2  0  0  0  0
 15  9  1  0  0  0  0
 16 10  1  0  0  0  0
 17  4  1  0  0  0  0
 17 18  1  0  0  0  0
 18 19  1  0  0  0  0
 20 21  1  0  0  0  0
 20 18  1  0  0  0  0
 22 24  1  0  0  0  0
 22 20  1  0  0  0  0
 23 22  1  0  0  0  0
 25 24  1  0  0  0  0
 25 17  1  0  0  0  0
M  END
>  <minimizedAffinity>
-5.09400654

>  <minimizedRMSD>
0.408976644

$$$$
