
 OpenBabel03272507063D

 31 34  0  0  0  0  0  0  0  0999 V2000
   36.0820   29.6710   31.8360 C   0  0  0  0  0  0  0  0  0  0  0  0
   35.5150   30.5710   32.7750 C   0  0  0  0  0  0  0  0  0  0  0  0
   35.5110   30.1520   34.1120 C   0  0  0  0  0  0  0  0  0  0  0  0
   36.0280   28.9530   34.4400 N   0  0  0  0  0  0  0  0  0  0  0  0
   36.5610   28.1200   33.5120 C   0  0  0  0  0  0  0  0  0  0  0  0
   36.5840   28.4820   32.2330 N   0  0  0  0  0  0  0  0  0  0  0  0
   36.1080   29.9500   30.7940 H   0  0  0  0  0  0  0  0  0  0  0  0
   35.1100   31.5280   32.4710 H   0  0  0  0  0  0  0  0  0  0  0  0
   34.9560   31.0130   35.0980 N   0  0  0  0  0  0  0  0  0  0  0  0
   35.8340   31.7450   35.9910 C   0  0  0  0  0  3  0  0  0  0  0  0
   36.5780   32.3660   35.4780 H   0  0  0  0  0  0  0  0  0  0  0  0
   34.9820   32.6820   36.8570 C   0  0  0  0  0  3  0  0  0  0  0  0
   34.4400   33.3160   36.1250 H   0  0  0  0  0  0  0  0  0  0  0  0
   34.0490   31.8380   37.5420 N   0  0  0  0  0  0  0  0  0  0  0  0
   34.4820   31.0310   38.0260 H   0  0  0  0  0  0  0  0  0  0  0  0
   33.0640   31.3520   36.6280 C   0  0  0  0  0  2  0  0  0  0  0  0
   33.5230   31.1640   35.2190 C   0  0  0  0  0  2  0  0  0  0  0  0
   37.3790   25.8610   32.9920 C   0  0  0  0  0  0  0  0  0  0  0  0
   37.1030   26.8380   33.9340 C   0  0  0  0  0  0  0  0  0  0  0  0
   37.3400   26.6040   35.2690 C   0  0  0  0  0  0  0  0  0  0  0  0
   37.8560   25.3920   35.6970 C   0  0  0  0  0  0  0  0  0  0  0  0
   38.1770   24.9070   36.9160 N   0  0  0  0  0  0  0  0  0  0  0  0
   38.6380   23.6430   36.6530 C   0  0  0  0  0  0  0  0  0  0  0  0
   38.6000   23.3730   35.3480 N   0  0  0  0  0  0  0  0  0  0  0  0
   38.1110   24.4600   34.7220 C   0  0  0  0  0  0  0  0  0  0  0  0
   37.8950   24.6400   33.3830 C   0  0  0  0  0  0  0  0  0  0  0  0
   37.1900   26.0510   31.9330 H   0  0  0  0  0  0  0  0  0  0  0  0
   37.1190   27.3790   35.9980 H   0  0  0  0  0  0  0  0  0  0  0  0
   38.0800   25.4100   37.8220 H   0  0  0  0  0  0  0  0  0  0  0  0
   38.9680   23.0260   37.4950 H   0  0  0  0  0  0  0  0  0  0  0  0
   38.1210   23.8570   32.6730 H   0  0  0  0  0  0  0  0  0  0  0  0
  1  6  2  0  0  0  0
  1  2  1  0  0  0  0
  2  3  2  0  0  0  0
  3  4  1  0  0  0  0
  3  9  1  0  0  0  0
  5 19  1  0  0  0  0
  5  4  2  0  0  0  0
  6  5  1  0  0  0  0
  7  1  1  0  0  0  0
  8  2  1  0  0  0  0
  9 17  1  0  0  0  0
  9 10  1  0  0  0  0
 10 12  1  0  0  0  0
 11 10  1  0  0  0  0
 12 14  1  0  0  0  0
 13 12  1  0  0  0  0
 14 15  1  0  0  0  0
 16 14  1  0  0  0  0
 17 16  1  0  0  0  0
 18 26  2  0  0  0  0
 18 19  1  0  0  0  0
 19 20  2  0  0  0  0
 20 21  1  0  0  0  0
 20 28  1  0  0  0  0
 21 22  1  0  0  0  0
 22 29  1  0  0  0  0
 23 22  1  0  0  0  0
 23 30  1  0  0  0  0
 24 23  2  0  0  0  0
 25 24  1  0  0  0  0
 25 21  2  0  0  0  0
 26 25  1  0  0  0  0
 27 18  1  0  0  0  0
 31 26  1  0  0  0  0
M  END
>  <minimizedAffinity>
-5.90960264

$$$$

 OpenBabel03272507063D

 31 34  0  0  0  0  0  0  0  0999 V2000
   37.6100   27.8730   31.7430 C   0  0  0  0  0  0  0  0  0  0  0  0
   36.6250   28.7920   32.1880 C   0  0  0  0  0  0  0  0  0  0  0  0
   36.1830   28.6370   33.5090 C   0  0  0  0  0  0  0  0  0  0  0  0
   36.6930   27.6550   34.2750 N   0  0  0  0  0  0  0  0  0  0  0  0
   37.6330   26.7950   33.8120 C   0  0  0  0  0  0  0  0  0  0  0  0
   38.0790   26.9090   32.5650 N   0  0  0  0  0  0  0  0  0  0  0  0
   37.9820   27.9530   30.7330 H   0  0  0  0  0  0  0  0  0  0  0  0
   36.2400   29.5700   31.5400 H   0  0  0  0  0  0  0  0  0  0  0  0
   35.1960   29.5300   34.0100 N   0  0  0  0  0  0  0  0  0  0  0  0
   35.5810   30.5820   34.9310 C   0  0  0  0  0  3  0  0  0  0  0  0
   36.3750   31.2390   34.5560 H   0  0  0  0  0  0  0  0  0  0  0  0
   34.3560   31.4640   35.2070 C   0  0  0  0  0  3  0  0  0  0  0  0
   34.0450   31.8230   34.2040 H   0  0  0  0  0  0  0  0  0  0  0  0
   33.3540   30.5860   35.7310 N   0  0  0  0  0  0  0  0  0  0  0  0
   33.6780   29.9910   36.5160 H   0  0  0  0  0  0  0  0  0  0  0  0
   32.8470   29.7430   34.6950 C   0  0  0  0  0  2  0  0  0  0  0  0
   33.8140   29.3980   33.6090 C   0  0  0  0  0  2  0  0  0  0  0  0
   39.0610   24.8350   34.2170 C   0  0  0  0  0  0  0  0  0  0  0  0
   38.1430   25.7560   34.6930 C   0  0  0  0  0  0  0  0  0  0  0  0
   37.7080   25.6940   35.9970 C   0  0  0  0  0  0  0  0  0  0  0  0
   38.1780   24.7140   36.8560 C   0  0  0  0  0  0  0  0  0  0  0  0
   37.9270   24.4290   38.1530 N   0  0  0  0  0  0  0  0  0  0  0  0
   38.7140   23.3350   38.4050 C   0  0  0  0  0  0  0  0  0  0  0  0
   39.4060   22.9750   37.3240 N   0  0  0  0  0  0  0  0  0  0  0  0
   39.0860   23.8290   36.3320 C   0  0  0  0  0  0  0  0  0  0  0  0
   39.5520   23.8450   35.0460 C   0  0  0  0  0  0  0  0  0  0  0  0
   39.4040   24.8880   33.1800 H   0  0  0  0  0  0  0  0  0  0  0  0
   36.9870   26.4210   36.3580 H   0  0  0  0  0  0  0  0  0  0  0  0
   37.2770   24.9460   38.7790 H   0  0  0  0  0  0  0  0  0  0  0  0
   38.6910   22.9000   39.4090 H   0  0  0  0  0  0  0  0  0  0  0  0
   40.2690   23.1110   34.7040 H   0  0  0  0  0  0  0  0  0  0  0  0
  1  2  2  0  0  0  0
  1  6  1  0  0  0  0
  2  3  1  0  0  0  0
  3  9  1  0  0  0  0
  3  4  2  0  0  0  0
  5  4  1  0  0  0  0
  5 19  1  0  0  0  0
  6  5  2  0  0  0  0
  7  1  1  0  0  0  0
  8  2  1  0  0  0  0
  9 10  1  0  0  0  0
 10 12  1  0  0  0  0
 11 10  1  0  0  0  0
 12 14  1  0  0  0  0
 13 12  1  0  0  0  0
 14 15  1  0  0  0  0
 16 14  1  0  0  0  0
 17  9  1  0  0  0  0
 17 16  1  0  0  0  0
 18 19  2  0  0  0  0
 18 26  1  0  0  0  0
 19 20  1  0  0  0  0
 20 28  1  0  0  0  0
 20 21  2  0  0  0  0
 21 22  1  0  0  0  0
 22 23  1  0  0  0  0
 22 29  1  0  0  0  0
 23 30  1  0  0  0  0
 24 23  2  0  0  0  0
 25 21  1  0  0  0  0
 25 24  1  0  0  0  0
 26 25  2  0  0  0  0
 27 18  1  0  0  0  0
 31 26  1  0  0  0  0
M  END
>  <minimizedAffinity>
-5.65992069

$$$$

 OpenBabel03272507063D

 31 34  0  0  0  0  0  0  0  0999 V2000
   35.2750   25.8720   31.0340 C   0  0  0  0  0  0  0  0  0  0  0  0
   36.2830   26.5530   31.7660 C   0  0  0  0  0  0  0  0  0  0  0  0
   37.2060   25.7470   32.4470 C   0  0  0  0  0  0  0  0  0  0  0  0
   37.1020   24.4060   32.3810 N   0  0  0  0  0  0  0  0  0  0  0  0
   36.1240   23.7940   31.6700 C   0  0  0  0  0  0  0  0  0  0  0  0
   35.2290   24.5220   31.0100 N   0  0  0  0  0  0  0  0  0  0  0  0
   34.5410   26.4500   30.4930 H   0  0  0  0  0  0  0  0  0  0  0  0
   36.3320   27.6340   31.7930 H   0  0  0  0  0  0  0  0  0  0  0  0
   38.2390   26.3730   33.1970 N   0  0  0  0  0  0  0  0  0  0  0  0
   39.5930   26.3920   32.6790 C   0  0  0  0  0  3  0  0  0  0  0  0
   39.6850   26.8280   31.6770 H   0  0  0  0  0  0  0  0  0  0  0  0
   40.4660   27.2330   33.6200 C   0  0  0  0  0  3  0  0  0  0  0  0
   39.9700   28.2250   33.6420 H   0  0  0  0  0  0  0  0  0  0  0  0
   40.3570   26.6160   34.9080 N   0  0  0  0  0  0  0  0  0  0  0  0
   40.5340   25.5950   34.9070 H   0  0  0  0  0  0  0  0  0  0  0  0
   39.0620   26.8570   35.4610 C   0  0  0  0  0  2  0  0  0  0  0  0
   37.9500   26.9910   34.4710 C   0  0  0  0  0  2  0  0  0  0  0  0
   35.0260   21.6760   32.2620 C   0  0  0  0  0  0  0  0  0  0  0  0
   36.0680   22.3410   31.6400 C   0  0  0  0  0  0  0  0  0  0  0  0
   37.0560   21.6350   30.9920 C   0  0  0  0  0  0  0  0  0  0  0  0
   37.0280   20.2510   30.9480 C   0  0  0  0  0  0  0  0  0  0  0  0
   37.8460   19.3290   30.3950 N   0  0  0  0  0  0  0  0  0  0  0  0
   37.2550   18.1350   30.7120 C   0  0  0  0  0  0  0  0  0  0  0  0
   36.1380   18.3170   31.4170 N   0  0  0  0  0  0  0  0  0  0  0  0
   35.9710   19.6430   31.5800 C   0  0  0  0  0  0  0  0  0  0  0  0
   34.9650   20.2950   32.2380 C   0  0  0  0  0  0  0  0  0  0  0  0
   34.2440   22.2400   32.7760 H   0  0  0  0  0  0  0  0  0  0  0  0
   37.8690   22.1690   30.5080 H   0  0  0  0  0  0  0  0  0  0  0  0
   38.7170   19.5260   29.8600 H   0  0  0  0  0  0  0  0  0  0  0  0
   37.7350   17.2120   30.3710 H   0  0  0  0  0  0  0  0  0  0  0  0
   34.1640   19.7460   32.7140 H   0  0  0  0  0  0  0  0  0  0  0  0
  1  2  1  0  0  0  0
  2  8  1  0  0  0  0
  2  3  2  0  0  0  0
  3  9  1  0  0  0  0
  4  3  1  0  0  0  0
  5  4  2  0  0  0  0
  6  1  2  0  0  0  0
  6  5  1  0  0  0  0
  7  1  1  0  0  0  0
  9 17  1  0  0  0  0
 10  9  1  0  0  0  0
 10 12  1  0  0  0  0
 11 10  1  0  0  0  0
 12 13  1  0  0  0  0
 12 14  1  0  0  0  0
 14 16  1  0  0  0  0
 15 14  1  0  0  0  0
 17 16  1  0  0  0  0
 18 27  1  0  0  0  0
 19  5  1  0  0  0  0
 19 18  2  0  0  0  0
 20 19  1  0  0  0  0
 21 20  2  0  0  0  0
 21 25  1  0  0  0  0
 22 23  1  0  0  0  0
 22 21  1  0  0  0  0
 23 24  2  0  0  0  0
 24 25  1  0  0  0  0
 25 26  2  0  0  0  0
 26 18  1  0  0  0  0
 26 31  1  0  0  0  0
 28 20  1  0  0  0  0
 29 22  1  0  0  0  0
 30 23  1  0  0  0  0
M  END
>  <minimizedAffinity>
-5.54494429

$$$$

 OpenBabel03272507063D

 31 34  0  0  0  0  0  0  0  0999 V2000
   36.4550   29.5770   30.3840 C   0  0  0  0  0  0  0  0  0  0  0  0
   36.6880   28.1800   30.3000 C   0  0  0  0  0  0  0  0  0  0  0  0
   36.2740   27.4150   31.3990 C   0  0  0  0  0  0  0  0  0  0  0  0
   35.6920   28.0160   32.4530 N   0  0  0  0  0  0  0  0  0  0  0  0
   35.4870   29.3560   32.4960 C   0  0  0  0  0  0  0  0  0  0  0  0
   35.8650   30.1170   31.4730 N   0  0  0  0  0  0  0  0  0  0  0  0
   36.7560   30.2090   29.5620 H   0  0  0  0  0  0  0  0  0  0  0  0
   37.1580   27.7340   29.4330 H   0  0  0  0  0  0  0  0  0  0  0  0
   36.4810   26.0080   31.3700 N   0  0  0  0  0  0  0  0  0  0  0  0
   35.3590   25.1210   31.1330 C   0  0  0  0  0  3  0  0  0  0  0  0
   34.8080   25.3310   30.2090 H   0  0  0  0  0  0  0  0  0  0  0  0
   35.8840   23.6830   31.0290 C   0  0  0  0  0  3  0  0  0  0  0  0
   36.6230   23.7190   30.2030 H   0  0  0  0  0  0  0  0  0  0  0  0
   36.5620   23.4260   32.2650 N   0  0  0  0  0  0  0  0  0  0  0  0
   36.0070   23.6530   33.1100 H   0  0  0  0  0  0  0  0  0  0  0  0
   37.7900   24.1550   32.3120 C   0  0  0  0  0  2  0  0  0  0  0  0
   37.8000   25.4560   31.5770 C   0  0  0  0  0  2  0  0  0  0  0  0
   33.5130   29.7020   33.9190 C   0  0  0  0  0  0  0  0  0  0  0  0
   34.8530   29.9420   33.6660 C   0  0  0  0  0  0  0  0  0  0  0  0
   35.5900   30.7350   34.5150 C   0  0  0  0  0  0  0  0  0  0  0  0
   35.0100   31.3060   35.6360 C   0  0  0  0  0  0  0  0  0  0  0  0
   35.4890   32.1050   36.6150 N   0  0  0  0  0  0  0  0  0  0  0  0
   34.4030   32.3140   37.4250 C   0  0  0  0  0  0  0  0  0  0  0  0
   33.3250   31.6790   36.9670 N   0  0  0  0  0  0  0  0  0  0  0  0
   33.6800   31.0340   35.8390 C   0  0  0  0  0  0  0  0  0  0  0  0
   32.9020   30.2550   35.0280 C   0  0  0  0  0  0  0  0  0  0  0  0
   32.9310   29.0730   33.2420 H   0  0  0  0  0  0  0  0  0  0  0  0
   36.6400   30.9160   34.3050 H   0  0  0  0  0  0  0  0  0  0  0  0
   36.4640   32.4580   36.6960 H   0  0  0  0  0  0  0  0  0  0  0  0
   34.5310   32.9450   38.3110 H   0  0  0  0  0  0  0  0  0  0  0  0
   31.8570   30.0870   35.2530 H   0  0  0  0  0  0  0  0  0  0  0  0
  1  6  1  0  0  0  0
  2  1  2  0  0  0  0
  2  3  1  0  0  0  0
  3  4  2  0  0  0  0
  4  5  1  0  0  0  0
  5 19  1  0  0  0  0
  6  5  2  0  0  0  0
  7  1  1  0  0  0  0
  8  2  1  0  0  0  0
  9  3  1  0  0  0  0
  9 17  1  0  0  0  0
 10  9  1  0  0  0  0
 11 10  1  0  0  0  0
 12 10  1  0  0  0  0
 12 14  1  0  0  0  0
 13 12  1  0  0  0  0
 14 16  1  0  0  0  0
 14 15  1  0  0  0  0
 17 16  1  0  0  0  0
 18 26  1  0  0  0  0
 19 18  2  0  0  0  0
 19 20  1  0  0  0  0
 20 21  2  0  0  0  0
 21 25  1  0  0  0  0
 21 22  1  0  0  0  0
 22 29  1  0  0  0  0
 22 23  1  0  0  0  0
 23 30  1  0  0  0  0
 24 23  2  0  0  0  0
 25 24  1  0  0  0  0
 26 31  1  0  0  0  0
 26 25  2  0  0  0  0
 27 18  1  0  0  0  0
 28 20  1  0  0  0  0
M  END
>  <minimizedAffinity>
-5.50296783

$$$$

 OpenBabel03272507063D

 31 34  0  0  0  0  0  0  0  0999 V2000
   36.2380   31.3260   31.5230 C   0  0  0  0  0  0  0  0  0  0  0  0
   35.6790   31.9580   32.6650 C   0  0  0  0  0  0  0  0  0  0  0  0
   35.3820   31.1250   33.7520 C   0  0  0  0  0  0  0  0  0  0  0  0
   35.6300   29.8040   33.6720 N   0  0  0  0  0  0  0  0  0  0  0  0
   36.1650   29.2380   32.5620 C   0  0  0  0  0  0  0  0  0  0  0  0
   36.4610   29.9940   31.5090 N   0  0  0  0  0  0  0  0  0  0  0  0
   36.4840   31.9260   30.6610 H   0  0  0  0  0  0  0  0  0  0  0  0
   35.4960   33.0250   32.6900 H   0  0  0  0  0  0  0  0  0  0  0  0
   34.8200   31.7030   34.9230 N   0  0  0  0  0  0  0  0  0  0  0  0
   35.6460   31.8850   36.1010 C   0  0  0  0  0  3  0  0  0  0  0  0
   36.5580   32.4670   35.9240 H   0  0  0  0  0  0  0  0  0  0  0  0
   34.8290   32.6370   37.1610 C   0  0  0  0  0  3  0  0  0  0  0  0
   34.5300   33.5800   36.6590 H   0  0  0  0  0  0  0  0  0  0  0  0
   33.6670   31.8340   37.3980 N   0  0  0  0  0  0  0  0  0  0  0  0
   33.8720   30.8370   37.5970 H   0  0  0  0  0  0  0  0  0  0  0  0
   32.7820   31.9060   36.2790 C   0  0  0  0  0  2  0  0  0  0  0  0
   33.4330   32.1090   34.9500 C   0  0  0  0  0  2  0  0  0  0  0  0
   37.1690   27.2170   33.5370 C   0  0  0  0  0  0  0  0  0  0  0  0
   36.4080   27.8040   32.5410 C   0  0  0  0  0  0  0  0  0  0  0  0
   35.8780   27.0380   31.5280 C   0  0  0  0  0  0  0  0  0  0  0  0
   36.0950   25.6700   31.4840 C   0  0  0  0  0  0  0  0  0  0  0  0
   35.7030   24.7030   30.6260 N   0  0  0  0  0  0  0  0  0  0  0  0
   36.2520   23.5610   31.1490 C   0  0  0  0  0  0  0  0  0  0  0  0
   36.9390   23.8180   32.2620 N   0  0  0  0  0  0  0  0  0  0  0  0
   36.8560   25.1410   32.4960 C   0  0  0  0  0  0  0  0  0  0  0  0
   37.4050   25.8550   33.5260 C   0  0  0  0  0  0  0  0  0  0  0  0
   37.5880   27.8290   34.3400 H   0  0  0  0  0  0  0  0  0  0  0  0
   35.2830   27.5100   30.7520 H   0  0  0  0  0  0  0  0  0  0  0  0
   35.1190   24.8380   29.7750 H   0  0  0  0  0  0  0  0  0  0  0  0
   36.0780   22.6150   30.6260 H   0  0  0  0  0  0  0  0  0  0  0  0
   37.9950   25.3670   34.2890 H   0  0  0  0  0  0  0  0  0  0  0  0
  1  2  1  0  0  0  0
  2  8  1  0  0  0  0
  2  3  2  0  0  0  0
  3  9  1  0  0  0  0
  4  3  1  0  0  0  0
  5  4  2  0  0  0  0
  6  1  2  0  0  0  0
  6  5  1  0  0  0  0
  7  1  1  0  0  0  0
  9 17  1  0  0  0  0
  9 10  1  0  0  0  0
 10 12  1  0  0  0  0
 11 10  1  0  0  0  0
 12 14  1  0  0  0  0
 13 12  1  0  0  0  0
 14 15  1  0  0  0  0
 16 14  1  0  0  0  0
 17 16  1  0  0  0  0
 18 27  1  0  0  0  0
 19  5  1  0  0  0  0
 19 18  2  0  0  0  0
 20 19  1  0  0  0  0
 21 20  2  0  0  0  0
 21 25  1  0  0  0  0
 22 23  1  0  0  0  0
 22 21  1  0  0  0  0
 23 24  2  0  0  0  0
 24 25  1  0  0  0  0
 25 26  2  0  0  0  0
 26 18  1  0  0  0  0
 26 31  1  0  0  0  0
 28 20  1  0  0  0  0
 29 22  1  0  0  0  0
 30 23  1  0  0  0  0
M  END
>  <minimizedAffinity>
-5.49524689

$$$$

 OpenBabel03272507063D

 31 34  0  0  0  0  0  0  0  0999 V2000
   38.2460   23.2010   35.4040 C   0  0  0  0  0  0  0  0  0  0  0  0
   37.7150   21.9950   34.8790 C   0  0  0  0  0  0  0  0  0  0  0  0
   37.3450   22.0160   33.5270 C   0  0  0  0  0  0  0  0  0  0  0  0
   37.5040   23.1420   32.8060 N   0  0  0  0  0  0  0  0  0  0  0  0
   38.0150   24.2760   33.3460 C   0  0  0  0  0  0  0  0  0  0  0  0
   38.3790   24.2970   34.6240 N   0  0  0  0  0  0  0  0  0  0  0  0
   38.5460   23.2340   36.4400 H   0  0  0  0  0  0  0  0  0  0  0  0
   37.6040   21.1090   35.4910 H   0  0  0  0  0  0  0  0  0  0  0  0
   36.8070   20.8350   32.9450 N   0  0  0  0  0  0  0  0  0  0  0  0
   37.6250   20.0350   32.0560 C   0  0  0  0  0  3  0  0  0  0  0  0
   38.5780   19.7110   32.4920 H   0  0  0  0  0  0  0  0  0  0  0  0
   36.8450   18.7680   31.6800 C   0  0  0  0  0  3  0  0  0  0  0  0
   36.6190   18.2860   32.6530 H   0  0  0  0  0  0  0  0  0  0  0  0
   35.6280   19.2240   31.0780 N   0  0  0  0  0  0  0  0  0  0  0  0
   35.7620   19.9220   30.3240 H   0  0  0  0  0  0  0  0  0  0  0  0
   34.7670   19.7810   32.0730 C   0  0  0  0  0  2  0  0  0  0  0  0
   35.4500   20.4280   33.2340 C   0  0  0  0  0  2  0  0  0  0  0  0
   39.3230   26.2090   32.5730 C   0  0  0  0  0  0  0  0  0  0  0  0
   38.1610   25.4590   32.5120 C   0  0  0  0  0  0  0  0  0  0  0  0
   37.1400   25.8250   31.6650 C   0  0  0  0  0  0  0  0  0  0  0  0
   37.2520   26.9470   30.8600 C   0  0  0  0  0  0  0  0  0  0  0  0
   36.4260   27.5220   29.9590 N   0  0  0  0  0  0  0  0  0  0  0  0
   37.1330   28.6060   29.5120 C   0  0  0  0  0  0  0  0  0  0  0  0
   38.3240   28.6880   30.1050 N   0  0  0  0  0  0  0  0  0  0  0  0
   38.4250   27.6530   30.9610 C   0  0  0  0  0  0  0  0  0  0  0  0
   39.4700   27.3340   31.7840 C   0  0  0  0  0  0  0  0  0  0  0  0
   40.1310   25.9150   33.2460 H   0  0  0  0  0  0  0  0  0  0  0  0
   36.2330   25.2290   31.6270 H   0  0  0  0  0  0  0  0  0  0  0  0
   35.4760   27.1850   29.6970 H   0  0  0  0  0  0  0  0  0  0  0  0
   36.6710   29.2520   28.7580 H   0  0  0  0  0  0  0  0  0  0  0  0
   40.3650   27.9410   31.8080 H   0  0  0  0  0  0  0  0  0  0  0  0
  1  7  1  0  0  0  0
  2  1  1  0  0  0  0
  2  8  1  0  0  0  0
  3  2  2  0  0  0  0
  4  5  2  0  0  0  0
  4  3  1  0  0  0  0
  5  6  1  0  0  0  0
  6  1  2  0  0  0  0
  9 17  1  0  0  0  0
  9  3  1  0  0  0  0
 10 11  1  0  0  0  0
 10  9  1  0  0  0  0
 12 10  1  0  0  0  0
 12 13  1  0  0  0  0
 14 12  1  0  0  0  0
 14 16  1  0  0  0  0
 15 14  1  0  0  0  0
 16 17  1  0  0  0  0
 18 27  1  0  0  0  0
 19 18  1  0  0  0  0
 19  5  1  0  0  0  0
 20 19  2  0  0  0  0
 21 25  2  0  0  0  0
 21 20  1  0  0  0  0
 22 21  1  0  0  0  0
 23 22  1  0  0  0  0
 23 24  2  0  0  0  0
 24 25  1  0  0  0  0
 25 26  1  0  0  0  0
 26 31  1  0  0  0  0
 26 18  2  0  0  0  0
 28 20  1  0  0  0  0
 29 22  1  0  0  0  0
 30 23  1  0  0  0  0
M  END
>  <minimizedAffinity>
-5.43967724

$$$$

 OpenBabel03272507063D

 31 34  0  0  0  0  0  0  0  0999 V2000
   36.2860   28.6210   31.1960 C   0  0  0  0  0  0  0  0  0  0  0  0
   37.2570   27.6680   31.6030 C   0  0  0  0  0  0  0  0  0  0  0  0
   37.4130   27.4930   32.9850 C   0  0  0  0  0  0  0  0  0  0  0  0
   36.6630   28.2120   33.8410 N   0  0  0  0  0  0  0  0  0  0  0  0
   35.7460   29.1150   33.4120 C   0  0  0  0  0  0  0  0  0  0  0  0
   35.5670   29.3090   32.1090 N   0  0  0  0  0  0  0  0  0  0  0  0
   36.1290   28.7900   30.1420 H   0  0  0  0  0  0  0  0  0  0  0  0
   37.8400   27.1090   30.8820 H   0  0  0  0  0  0  0  0  0  0  0  0
   38.3710   26.5510   33.4510 N   0  0  0  0  0  0  0  0  0  0  0  0
   37.9260   25.2760   33.9800 C   0  0  0  0  0  3  0  0  0  0  0  0
   37.2940   24.7010   33.2920 H   0  0  0  0  0  0  0  0  0  0  0  0
   39.1590   24.4170   34.2870 C   0  0  0  0  0  3  0  0  0  0  0  0
   39.6960   24.3500   33.3190 H   0  0  0  0  0  0  0  0  0  0  0  0
   39.9420   25.1760   35.2160 N   0  0  0  0  0  0  0  0  0  0  0  0
   39.4100   25.5270   36.0330 H   0  0  0  0  0  0  0  0  0  0  0  0
   40.5500   26.2860   34.5530 C   0  0  0  0  0  2  0  0  0  0  0  0
   39.7830   26.8550   33.4040 C   0  0  0  0  0  2  0  0  0  0  0  0
   33.6270   29.5680   34.5720 C   0  0  0  0  0  0  0  0  0  0  0  0
   34.9680   29.8590   34.3900 C   0  0  0  0  0  0  0  0  0  0  0  0
   35.5720   30.8500   35.1290 C   0  0  0  0  0  0  0  0  0  0  0  0
   34.8530   31.5740   36.0670 C   0  0  0  0  0  0  0  0  0  0  0  0
   35.1870   32.5750   36.9100 N   0  0  0  0  0  0  0  0  0  0  0  0
   34.0180   32.8480   37.5710 C   0  0  0  0  0  0  0  0  0  0  0  0
   33.0280   32.0570   37.1560 N   0  0  0  0  0  0  0  0  0  0  0  0
   33.5280   31.2430   36.2070 C   0  0  0  0  0  0  0  0  0  0  0  0
   32.8790   30.2690   35.4990 C   0  0  0  0  0  0  0  0  0  0  0  0
   33.1520   28.7800   33.9830 H   0  0  0  0  0  0  0  0  0  0  0  0
   36.6240   31.0690   34.9770 H   0  0  0  0  0  0  0  0  0  0  0  0
   36.1270   33.0110   37.0030 H   0  0  0  0  0  0  0  0  0  0  0  0
   34.0220   33.6400   38.3260 H   0  0  0  0  0  0  0  0  0  0  0  0
   31.8300   30.0660   35.6650 H   0  0  0  0  0  0  0  0  0  0  0  0
  1  2  2  0  0  0  0
  1  6  1  0  0  0  0
  2  3  1  0  0  0  0
  3  9  1  0  0  0  0
  3  4  2  0  0  0  0
  5  4  1  0  0  0  0
  5 19  1  0  0  0  0
  6  5  2  0  0  0  0
  7  1  1  0  0  0  0
  8  2  1  0  0  0  0
  9 10  1  0  0  0  0
 10 12  1  0  0  0  0
 11 10  1  0  0  0  0
 12 14  1  0  0  0  0
 13 12  1  0  0  0  0
 14 15  1  0  0  0  0
 16 14  1  0  0  0  0
 17  9  1  0  0  0  0
 17 16  1  0  0  0  0
 18 26  1  0  0  0  0
 19 18  2  0  0  0  0
 19 20  1  0  0  0  0
 20 21  2  0  0  0  0
 21 25  1  0  0  0  0
 21 22  1  0  0  0  0
 22 29  1  0  0  0  0
 22 23  1  0  0  0  0
 23 30  1  0  0  0  0
 24 23  2  0  0  0  0
 25 24  1  0  0  0  0
 26 31  1  0  0  0  0
 26 25  2  0  0  0  0
 27 18  1  0  0  0  0
 28 20  1  0  0  0  0
M  END
>  <minimizedAffinity>
-5.3665657

$$$$

 OpenBabel03272507063D

 31 34  0  0  0  0  0  0  0  0999 V2000
   35.8620   23.7220   31.4820 C   0  0  0  0  0  0  0  0  0  0  0  0
   35.6330   25.0740   31.1140 C   0  0  0  0  0  0  0  0  0  0  0  0
   36.4570   26.0300   31.7220 C   0  0  0  0  0  0  0  0  0  0  0  0
   37.3990   25.6420   32.6020 N   0  0  0  0  0  0  0  0  0  0  0  0
   37.5870   24.3390   32.9280 C   0  0  0  0  0  0  0  0  0  0  0  0
   36.8260   23.4010   32.3720 N   0  0  0  0  0  0  0  0  0  0  0  0
   35.2530   22.9490   31.0390 H   0  0  0  0  0  0  0  0  0  0  0  0
   34.8650   25.3450   30.4010 H   0  0  0  0  0  0  0  0  0  0  0  0
   36.2730   27.4010   31.3920 N   0  0  0  0  0  0  0  0  0  0  0  0
   37.2230   28.0630   30.5180 C   0  0  0  0  0  3  0  0  0  0  0  0
   37.3620   27.5680   29.5500 H   0  0  0  0  0  0  0  0  0  0  0  0
   36.7180   29.4830   30.2320 C   0  0  0  0  0  3  0  0  0  0  0  0
   35.7120   29.3330   29.7870 H   0  0  0  0  0  0  0  0  0  0  0  0
   36.5850   30.1140   31.5110 N   0  0  0  0  0  0  0  0  0  0  0  0
   37.4250   30.0380   32.1120 H   0  0  0  0  0  0  0  0  0  0  0  0
   35.4660   29.5710   32.2130 C   0  0  0  0  0  2  0  0  0  0  0  0
   35.1490   28.1400   31.9200 C   0  0  0  0  0  2  0  0  0  0  0  0
   39.9350   24.3600   33.6520 C   0  0  0  0  0  0  0  0  0  0  0  0
   38.6230   23.9860   33.8850 C   0  0  0  0  0  0  0  0  0  0  0  0
   38.2910   23.2810   35.0200 C   0  0  0  0  0  0  0  0  0  0  0  0
   39.2590   22.9330   35.9470 C   0  0  0  0  0  0  0  0  0  0  0  0
   39.2130   22.2600   37.1180 N   0  0  0  0  0  0  0  0  0  0  0  0
   40.5150   22.2570   37.5440 C   0  0  0  0  0  0  0  0  0  0  0  0
   41.3100   22.8920   36.6830 N   0  0  0  0  0  0  0  0  0  0  0  0
   40.5430   23.3290   35.6660 C   0  0  0  0  0  0  0  0  0  0  0  0
   40.9270   24.0290   34.5560 C   0  0  0  0  0  0  0  0  0  0  0  0
   40.1950   24.9190   32.7500 H   0  0  0  0  0  0  0  0  0  0  0  0
   37.2580   22.9940   35.1910 H   0  0  0  0  0  0  0  0  0  0  0  0
   38.3620   21.8540   37.5580 H   0  0  0  0  0  0  0  0  0  0  0  0
   40.7500   21.7620   38.4920 H   0  0  0  0  0  0  0  0  0  0  0  0
   41.9610   24.3060   34.4030 H   0  0  0  0  0  0  0  0  0  0  0  0
  1  6  1  0  0  0  0
  2  1  2  0  0  0  0
  2  3  1  0  0  0  0
  3  4  2  0  0  0  0
  4  5  1  0  0  0  0
  5 19  1  0  0  0  0
  6  5  2  0  0  0  0
  7  1  1  0  0  0  0
  8  2  1  0  0  0  0
  9  3  1  0  0  0  0
  9 17  1  0  0  0  0
 10  9  1  0  0  0  0
 11 10  1  0  0  0  0
 12 10  1  0  0  0  0
 12 14  1  0  0  0  0
 13 12  1  0  0  0  0
 14 15  1  0  0  0  0
 14 16  1  0  0  0  0
 17 16  1  0  0  0  0
 18 19  2  0  0  0  0
 18 26  1  0  0  0  0
 19 20  1  0  0  0  0
 20 28  1  0  0  0  0
 20 21  2  0  0  0  0
 21 22  1  0  0  0  0
 22 23  1  0  0  0  0
 22 29  1  0  0  0  0
 23 30  1  0  0  0  0
 24 23  2  0  0  0  0
 25 21  1  0  0  0  0
 25 24  1  0  0  0  0
 26 25  2  0  0  0  0
 27 18  1  0  0  0  0
 31 26  1  0  0  0  0
M  END
>  <minimizedAffinity>
-5.35959482

$$$$

 OpenBabel03272507063D

 31 34  0  0  0  0  0  0  0  0999 V2000
   38.3860   23.4900   37.8710 C   0  0  0  0  0  0  0  0  0  0  0  0
   39.6650   22.9240   37.6320 C   0  0  0  0  0  0  0  0  0  0  0  0
   40.3020   23.3110   36.4450 C   0  0  0  0  0  0  0  0  0  0  0  0
   39.6950   24.1730   35.6080 N   0  0  0  0  0  0  0  0  0  0  0  0
   38.4700   24.6910   35.8720 C   0  0  0  0  0  0  0  0  0  0  0  0
   37.8330   24.3500   36.9880 N   0  0  0  0  0  0  0  0  0  0  0  0
   37.8560   23.2230   38.7730 H   0  0  0  0  0  0  0  0  0  0  0  0
   40.1200   22.2340   38.3310 H   0  0  0  0  0  0  0  0  0  0  0  0
   41.5870   22.7760   36.1520 N   0  0  0  0  0  0  0  0  0  0  0  0
   42.7640   23.6070   36.3100 C   0  0  0  0  0  3  0  0  0  0  0  0
   42.8750   24.0430   37.3110 H   0  0  0  0  0  0  0  0  0  0  0  0
   44.0090   22.7480   36.0520 C   0  0  0  0  0  3  0  0  0  0  0  0
   43.9300   21.9210   36.7860 H   0  0  0  0  0  0  0  0  0  0  0  0
   43.8540   22.2270   34.7270 N   0  0  0  0  0  0  0  0  0  0  0  0
   43.6330   22.9430   34.0110 H   0  0  0  0  0  0  0  0  0  0  0  0
   42.8330   21.2280   34.7080 C   0  0  0  0  0  2  0  0  0  0  0  0
   41.7280   21.4110   35.6980 C   0  0  0  0  0  2  0  0  0  0  0  0
   37.5250   26.8950   35.3340 C   0  0  0  0  0  0  0  0  0  0  0  0
   37.8700   25.6180   34.9260 C   0  0  0  0  0  0  0  0  0  0  0  0
   37.6480   25.2190   33.6280 C   0  0  0  0  0  0  0  0  0  0  0  0
   37.0780   26.0820   32.7070 C   0  0  0  0  0  0  0  0  0  0  0  0
   36.7570   25.9540   31.4010 N   0  0  0  0  0  0  0  0  0  0  0  0
   36.2250   27.1740   31.0740 C   0  0  0  0  0  0  0  0  0  0  0  0
   36.2230   27.9990   32.1210 N   0  0  0  0  0  0  0  0  0  0  0  0
   36.7560   27.3350   33.1650 C   0  0  0  0  0  0  0  0  0  0  0  0
   36.9550   27.7830   34.4420 C   0  0  0  0  0  0  0  0  0  0  0  0
   37.7030   27.2090   36.3650 H   0  0  0  0  0  0  0  0  0  0  0  0
   37.9230   24.2140   33.3210 H   0  0  0  0  0  0  0  0  0  0  0  0
   36.8970   25.1050   30.8150 H   0  0  0  0  0  0  0  0  0  0  0  0
   35.8790   27.3310   30.0480 H   0  0  0  0  0  0  0  0  0  0  0  0
   36.6740   28.7870   34.7290 H   0  0  0  0  0  0  0  0  0  0  0  0
  1  7  1  0  0  0  0
  2  1  1  0  0  0  0
  2  8  1  0  0  0  0
  3  2  2  0  0  0  0
  4  5  2  0  0  0  0
  4  3  1  0  0  0  0
  5  6  1  0  0  0  0
  6  1  2  0  0  0  0
  9 10  1  0  0  0  0
  9  3  1  0  0  0  0
 10 11  1  0  0  0  0
 12 10  1  0  0  0  0
 12 13  1  0  0  0  0
 14 12  1  0  0  0  0
 15 14  1  0  0  0  0
 16 14  1  0  0  0  0
 16 17  1  0  0  0  0
 17  9  1  0  0  0  0
 18 27  1  0  0  0  0
 19 18  1  0  0  0  0
 19  5  1  0  0  0  0
 20 19  2  0  0  0  0
 21 25  2  0  0  0  0
 21 20  1  0  0  0  0
 22 21  1  0  0  0  0
 23 22  1  0  0  0  0
 23 24  2  0  0  0  0
 24 25  1  0  0  0  0
 25 26  1  0  0  0  0
 26 31  1  0  0  0  0
 26 18  2  0  0  0  0
 28 20  1  0  0  0  0
 29 22  1  0  0  0  0
 30 23  1  0  0  0  0
M  END
>  <minimizedAffinity>
-5.32750177

$$$$
