
 OpenBabel03272506493D

 42 45  0  0  1  0  0  0  0  0999 V2000
   36.2650   29.0020   33.2980 C   0  0  2  0  0  0  0  0  0  0  0  0
   35.2830   29.9210   32.6360 C   0  0  1  0  0  0  0  0  0  0  0  0
   35.4010   29.7650   31.2880 O   0  0  0  0  0  0  0  0  0  0  0  0
   36.1550   28.6240   31.0230 C   0  0  0  0  0  0  0  0  0  0  0  0
   36.1990   27.8090   32.2900 C   0  0  1  0  0  0  0  0  0  0  0  0
   37.2850   29.3650   33.3490 H   0  0  0  0  0  0  0  0  0  0  0  0
   35.4170   30.9800   32.9740 H   0  0  0  0  0  0  0  0  0  0  0  0
   35.5800   28.0570   30.2470 H   0  0  0  0  0  0  0  0  0  0  0  0
   37.0970   28.9550   30.6230 H   0  0  0  0  0  0  0  0  0  0  0  0
   35.2700   27.2980   32.5260 H   0  0  0  0  0  0  0  0  0  0  0  0
   35.7750   28.5710   34.5470 O   0  0  0  0  0  0  0  0  0  0  0  0
   36.1520   29.1760   35.2340 H   0  0  0  0  0  0  0  0  0  0  0  0
   33.5950   29.3760   33.1270 S   0  0  0  0  0  0  0  0  0  0  0  0
   31.9120   29.9950   36.6610 C   0  0  0  0  0  0  0  0  0  0  0  0
   32.6340   31.0470   37.2240 C   0  0  0  0  0  0  0  0  0  0  0  0
   33.6860   31.5910   36.4800 C   0  0  0  0  0  0  0  0  0  0  0  0
   33.9530   31.0690   35.2520 N   0  0  0  0  0  0  0  0  0  0  0  0
   33.2280   30.0480   34.7440 C   0  0  0  0  0  0  0  0  0  0  0  0
   32.2000   29.4980   35.4400 N   0  0  0  0  0  0  0  0  0  0  0  0
   31.0810   29.5050   37.1510 H   0  0  0  0  0  0  0  0  0  0  0  0
   32.3580   31.4060   38.2060 H   0  0  0  0  0  0  0  0  0  0  0  0
   34.2620   32.4080   36.8940 H   0  0  0  0  0  0  0  0  0  0  0  0
   37.3610   27.0770   32.3150 O   0  0  0  0  0  0  0  0  0  0  0  0
   38.7670   27.0090   34.8970 Cl  0  0  0  0  0  0  0  0  0  0  0  0
   38.1460   25.6690   33.9590 C   0  0  0  0  0  0  0  0  0  0  0  0
   37.4940   25.8290   32.7570 C   0  0  0  0  0  0  0  0  0  0  0  0
   37.0270   24.6830   32.1060 C   0  0  0  0  0  0  0  0  0  0  0  0
   37.2220   23.4360   32.6640 C   0  0  0  0  0  0  0  0  0  0  0  0
   37.8780   23.2740   33.8730 C   0  0  0  0  0  0  0  0  0  0  0  0
   38.3510   24.4190   34.5370 C   0  0  0  0  0  0  0  0  0  0  0  0
   36.5020   24.7500   31.1650 H   0  0  0  0  0  0  0  0  0  0  0  0
   36.8280   22.5950   32.0920 H   0  0  0  0  0  0  0  0  0  0  0  0
   37.9350   22.2570   34.1580 H   0  0  0  0  0  0  0  0  0  0  0  0
   38.9750   24.1630   35.7890 N   0  0  0  0  0  0  0  0  0  0  0  0
   38.2940   24.5010   37.0510 C   0  0  0  0  0  3  0  0  0  0  0  0
   37.3460   25.0210   36.9130 H   0  0  0  0  0  0  0  0  0  0  0  0
   38.1040   23.1650   37.7630 C   0  0  0  0  0  3  0  0  0  0  0  0
   37.5110   23.2340   38.6780 H   0  0  0  0  0  0  0  0  0  0  0  0
   39.4220   22.6390   38.0500 N   0  0  0  0  0  0  0  0  0  0  0  0
   39.3060   21.7420   38.5840 H   0  0  0  0  0  0  0  0  0  0  0  0
   40.1250   22.3270   36.8130 C   0  0  0  0  0  2  0  0  0  0  0  0
   40.2870   23.6060   36.0540 C   0  0  0  0  0  2  0  0  0  0  0  0
  1  6  1  1  0  0  0
  1 11  1  0  0  0  0
  2  7  1  1  0  0  0
  2 13  1  0  0  0  0
  2  1  1  0  0  0  0
  3  2  1  0  0  0  0
  4  3  1  0  0  0  0
  4  5  1  0  0  0  0
  5 23  1  0  0  0  0
  5 10  1  1  0  0  0
  5  1  1  0  0  0  0
  8  4  1  0  0  0  0
  9  4  1  0  0  0  0
 11 12  1  0  0  0  0
 13 18  1  0  0  0  0
 14 20  1  0  0  0  0
 14 15  1  0  0  0  0
 15 21  1  0  0  0  0
 16 22  1  0  0  0  0
 16 15  2  0  0  0  0
 17 16  1  0  0  0  0
 18 17  2  0  0  0  0
 18 19  1  0  0  0  0
 19 14  2  0  0  0  0
 23 26  1  0  0  0  0
 25 30  1  0  0  0  0
 25 24  1  0  0  0  0
 26 25  2  0  0  0  0
 27 28  2  0  0  0  0
 27 26  1  0  0  0  0
 28 29  1  0  0  0  0
 29 33  1  0  0  0  0
 29 30  2  0  0  0  0
 30 34  1  0  0  0  0
 31 27  1  0  0  0  0
 32 28  1  0  0  0  0
 34 42  1  0  0  0  0
 34 35  1  0  0  0  0
 35 37  1  0  0  0  0
 36 35  1  0  0  0  0
 37 39  1  0  0  0  0
 37 38  1  0  0  0  0
 39 40  1  0  0  0  0
 41 39  1  0  0  0  0
 42 41  1  0  0  0  0
M  END
>  <minimizedAffinity>
-5.8835187

$$$$

 OpenBabel03272506493D

 42 45  0  0  1  0  0  0  0  0999 V2000
   37.1290   27.9440   32.9620 C   0  0  2  0  0  0  0  0  0  0  0  0
   36.2130   28.9720   32.3680 C   0  0  1  0  0  0  0  0  0  0  0  0
   35.9590   28.6160   31.0790 O   0  0  0  0  0  0  0  0  0  0  0  0
   36.3840   27.3060   30.8720 C   0  0  0  0  0  0  0  0  0  0  0  0
   36.5820   26.6770   32.2270 C   0  0  1  0  0  0  0  0  0  0  0  0
   38.1810   28.0610   32.7260 H   0  0  0  0  0  0  0  0  0  0  0  0
   36.6320   30.0050   32.4690 H   0  0  0  0  0  0  0  0  0  0  0  0
   35.5350   26.7910   30.3540 H   0  0  0  0  0  0  0  0  0  0  0  0
   37.2430   27.3520   30.2260 H   0  0  0  0  0  0  0  0  0  0  0  0
   35.6590   26.4340   32.7470 H   0  0  0  0  0  0  0  0  0  0  0  0
   36.8910   27.8080   34.3440 O   0  0  0  0  0  0  0  0  0  0  0  0
   37.5380   28.3930   34.8120 H   0  0  0  0  0  0  0  0  0  0  0  0
   34.6280   28.9070   33.3000 S   0  0  0  0  0  0  0  0  0  0  0  0
   33.5620   31.3500   36.2330 C   0  0  0  0  0  0  0  0  0  0  0  0
   34.7480   31.9580   36.6420 C   0  0  0  0  0  0  0  0  0  0  0  0
   35.9290   31.6010   35.9840 C   0  0  0  0  0  0  0  0  0  0  0  0
   35.8640   30.6810   34.9830 N   0  0  0  0  0  0  0  0  0  0  0  0
   34.6930   30.1140   34.6180 C   0  0  0  0  0  0  0  0  0  0  0  0
   33.5280   30.4390   35.2370 N   0  0  0  0  0  0  0  0  0  0  0  0
   32.5960   31.5550   36.6740 H   0  0  0  0  0  0  0  0  0  0  0  0
   34.7160   32.6810   37.4460 H   0  0  0  0  0  0  0  0  0  0  0  0
   36.8620   32.0590   36.2820 H   0  0  0  0  0  0  0  0  0  0  0  0
   37.5460   25.7040   32.1380 O   0  0  0  0  0  0  0  0  0  0  0  0
   36.3820   23.2690   30.9700 Cl  0  0  0  0  0  0  0  0  0  0  0  0
   37.1760   23.4640   32.5170 C   0  0  0  0  0  0  0  0  0  0  0  0
   37.6910   24.6630   32.9540 C   0  0  0  0  0  0  0  0  0  0  0  0
   38.3190   24.6920   34.2030 C   0  0  0  0  0  0  0  0  0  0  0  0
   38.4110   23.5430   34.9630 C   0  0  0  0  0  0  0  0  0  0  0  0
   37.8940   22.3370   34.5240 C   0  0  0  0  0  0  0  0  0  0  0  0
   37.2610   22.2950   33.2700 C   0  0  0  0  0  0  0  0  0  0  0  0
   38.7470   25.6040   34.5930 H   0  0  0  0  0  0  0  0  0  0  0  0
   38.9150   23.6520   35.9250 H   0  0  0  0  0  0  0  0  0  0  0  0
   38.0560   21.5600   35.2240 H   0  0  0  0  0  0  0  0  0  0  0  0
   36.7960   21.0080   32.8830 N   0  0  0  0  0  0  0  0  0  0  0  0
   35.4980   20.5020   33.3610 C   0  0  0  0  0  3  0  0  0  0  0  0
   35.0050   21.1630   34.0750 H   0  0  0  0  0  0  0  0  0  0  0  0
   34.6620   20.3180   32.0980 C   0  0  0  0  0  3  0  0  0  0  0  0
   33.6220   20.0440   32.2940 H   0  0  0  0  0  0  0  0  0  0  0  0
   35.3120   19.3010   31.2960 N   0  0  0  0  0  0  0  0  0  0  0  0
   34.7200   19.1290   30.4460 H   0  0  0  0  0  0  0  0  0  0  0  0
   36.6130   19.7700   30.8400 C   0  0  0  0  0  2  0  0  0  0  0  0
   37.4530   20.0170   32.0530 C   0  0  0  0  0  2  0  0  0  0  0  0
  1  6  1  6  0  0  0
  1 11  1  0  0  0  0
  2  7  1  1  0  0  0
  2  1  1  0  0  0  0
  2 13  1  0  0  0  0
  3  2  1  0  0  0  0
  4  3  1  0  0  0  0
  4  5  1  0  0  0  0
  5 10  1  1  0  0  0
  5  1  1  0  0  0  0
  8  4  1  0  0  0  0
  9  4  1  0  0  0  0
 11 12  1  0  0  0  0
 13 18  1  0  0  0  0
 14 15  1  0  0  0  0
 14 20  1  0  0  0  0
 15 21  1  0  0  0  0
 16 22  1  0  0  0  0
 16 15  2  0  0  0  0
 17 16  1  0  0  0  0
 18 17  2  0  0  0  0
 18 19  1  0  0  0  0
 19 14  2  0  0  0  0
 23  5  1  0  0  0  0
 23 26  1  0  0  0  0
 24 25  1  0  0  0  0
 25 26  2  0  0  0  0
 25 30  1  0  0  0  0
 26 27  1  0  0  0  0
 27 31  1  0  0  0  0
 27 28  2  0  0  0  0
 28 32  1  0  0  0  0
 29 28  1  0  0  0  0
 29 33  1  0  0  0  0
 30 29  2  0  0  0  0
 34 30  1  0  0  0  0
 34 35  1  0  0  0  0
 35 36  1  0  0  0  0
 37 38  1  0  0  0  0
 37 35  1  0  0  0  0
 39 37  1  0  0  0  0
 40 39  1  0  0  0  0
 41 39  1  0  0  0  0
 41 42  1  0  0  0  0
 42 34  1  0  0  0  0
M  END
>  <minimizedAffinity>
-5.61313391

$$$$

 OpenBabel03272506493D

 42 45  0  0  1  0  0  0  0  0999 V2000
   37.0150   26.8380   31.1650 C   0  0  2  0  0  0  0  0  0  0  0  0
   35.9460   27.8560   31.4290 C   0  0  1  0  0  0  0  0  0  0  0  0
   35.9230   28.1070   32.7670 O   0  0  0  0  0  0  0  0  0  0  0  0
   37.0670   27.5710   33.3540 C   0  0  0  0  0  0  0  0  0  0  0  0
   38.0500   27.2860   32.2480 C   0  0  1  0  0  0  0  0  0  0  0  0
   36.7360   25.8070   31.3500 H   0  0  0  0  0  0  0  0  0  0  0  0
   34.9560   27.5290   31.0210 H   0  0  0  0  0  0  0  0  0  0  0  0
   37.4800   28.3830   34.0060 H   0  0  0  0  0  0  0  0  0  0  0  0
   36.7510   26.7350   33.9520 H   0  0  0  0  0  0  0  0  0  0  0  0
   38.5220   28.1710   31.8290 H   0  0  0  0  0  0  0  0  0  0  0  0
   37.5780   27.0300   29.8880 O   0  0  0  0  0  0  0  0  0  0  0  0
   37.1020   26.4280   29.2640 H   0  0  0  0  0  0  0  0  0  0  0  0
   36.4330   29.4070   30.5660 S   0  0  0  0  0  0  0  0  0  0  0  0
   33.7970   31.8730   32.2010 C   0  0  0  0  0  0  0  0  0  0  0  0
   34.5610   32.8980   32.7570 C   0  0  0  0  0  0  0  0  0  0  0  0
   35.9510   32.8260   32.6230 C   0  0  0  0  0  0  0  0  0  0  0  0
   36.4870   31.7660   31.9590 N   0  0  0  0  0  0  0  0  0  0  0  0
   35.7090   30.7930   31.4350 C   0  0  0  0  0  0  0  0  0  0  0  0
   34.3570   30.8320   31.5480 N   0  0  0  0  0  0  0  0  0  0  0  0
   32.7170   31.8330   32.2480 H   0  0  0  0  0  0  0  0  0  0  0  0
   34.0590   33.7080   33.2690 H   0  0  0  0  0  0  0  0  0  0  0  0
   36.5670   33.6090   33.0450 H   0  0  0  0  0  0  0  0  0  0  0  0
   38.8580   26.2410   32.6200 O   0  0  0  0  0  0  0  0  0  0  0  0
   39.2840   25.6000   35.4590 Cl  0  0  0  0  0  0  0  0  0  0  0  0
   38.6190   24.5830   34.2000 C   0  0  0  0  0  0  0  0  0  0  0  0
   38.4610   25.0010   32.8980 C   0  0  0  0  0  0  0  0  0  0  0  0
   37.9020   24.1030   31.9830 C   0  0  0  0  0  0  0  0  0  0  0  0
   37.5250   22.8390   32.3890 C   0  0  0  0  0  0  0  0  0  0  0  0
   37.6830   22.4180   33.6980 C   0  0  0  0  0  0  0  0  0  0  0  0
   38.2430   23.3120   34.6270 C   0  0  0  0  0  0  0  0  0  0  0  0
   37.7480   24.3800   30.9510 H   0  0  0  0  0  0  0  0  0  0  0  0
   37.0980   22.2010   31.6130 H   0  0  0  0  0  0  0  0  0  0  0  0
   37.3370   21.4280   33.8390 H   0  0  0  0  0  0  0  0  0  0  0  0
   38.3300   22.8100   35.9550 N   0  0  0  0  0  0  0  0  0  0  0  0
   39.4780   21.9860   36.3740 C   0  0  0  0  0  3  0  0  0  0  0  0
   40.1690   21.7520   35.5640 H   0  0  0  0  0  0  0  0  0  0  0  0
   40.1570   22.7950   37.4750 C   0  0  0  0  0  3  0  0  0  0  0  0
   41.0990   22.3630   37.8210 H   0  0  0  0  0  0  0  0  0  0  0  0
   39.2160   22.9060   38.5700 N   0  0  0  0  0  0  0  0  0  0  0  0
   39.6890   23.4190   39.3550 H   0  0  0  0  0  0  0  0  0  0  0  0
   38.0580   23.6900   38.1660 C   0  0  0  0  0  2  0  0  0  0  0  0
   37.3870   22.9590   37.0460 C   0  0  0  0  0  2  0  0  0  0  0  0
  1  6  1  1  0  0  0
  1  2  1  0  0  0  0
  1  5  1  0  0  0  0
  2  7  1  6  0  0  0
  2  3  1  0  0  0  0
  3  4  1  0  0  0  0
  4  9  1  0  0  0  0
  4  8  1  0  0  0  0
  5 10  1  6  0  0  0
  5 23  1  0  0  0  0
  5  4  1  0  0  0  0
 11  1  1  0  0  0  0
 12 11  1  0  0  0  0
 13  2  1  0  0  0  0
 13 18  1  0  0  0  0
 14 20  1  0  0  0  0
 14 15  1  0  0  0  0
 15 21  1  0  0  0  0
 16 15  2  0  0  0  0
 16 22  1  0  0  0  0
 17 16  1  0  0  0  0
 18 19  1  0  0  0  0
 18 17  2  0  0  0  0
 19 14  2  0  0  0  0
 23 26  1  0  0  0  0
 25 30  1  0  0  0  0
 25 24  1  0  0  0  0
 26 25  2  0  0  0  0
 27 28  2  0  0  0  0
 27 26  1  0  0  0  0
 28 29  1  0  0  0  0
 29 33  1  0  0  0  0
 29 30  2  0  0  0  0
 30 34  1  0  0  0  0
 31 27  1  0  0  0  0
 32 28  1  0  0  0  0
 34 35  1  0  0  0  0
 34 42  1  0  0  0  0
 35 37  1  0  0  0  0
 36 35  1  0  0  0  0
 37 38  1  0  0  0  0
 37 39  1  0  0  0  0
 39 40  1  0  0  0  0
 41 39  1  0  0  0  0
 42 41  1  0  0  0  0
M  END
>  <minimizedAffinity>
-5.54938745

$$$$

 OpenBabel03272506493D

 42 45  0  0  1  0  0  0  0  0999 V2000
   36.9010   28.2210   32.6960 C   0  0  2  0  0  0  0  0  0  0  0  0
   36.1870   29.4740   32.2840 C   0  0  1  0  0  0  0  0  0  0  0  0
   36.0340   29.4480   30.9320 O   0  0  0  0  0  0  0  0  0  0  0  0
   36.3170   28.1670   30.4630 C   0  0  0  0  0  0  0  0  0  0  0  0
   36.2870   27.2370   31.6480 C   0  0  1  0  0  0  0  0  0  0  0  0
   37.9780   28.2360   32.5780 H   0  0  0  0  0  0  0  0  0  0  0  0
   36.7150   30.3900   32.6530 H   0  0  0  0  0  0  0  0  0  0  0  0
   35.4730   27.9040   29.7750 H   0  0  0  0  0  0  0  0  0  0  0  0
   37.2410   28.2280   29.9150 H   0  0  0  0  0  0  0  0  0  0  0  0
   35.2900   27.0210   32.0230 H   0  0  0  0  0  0  0  0  0  0  0  0
   36.4980   27.8240   33.9870 O   0  0  0  0  0  0  0  0  0  0  0  0
   37.1570   28.1950   34.6270 H   0  0  0  0  0  0  0  0  0  0  0  0
   34.5130   29.4350   33.0480 S   0  0  0  0  0  0  0  0  0  0  0  0
   35.7910   31.5910   36.1180 C   0  0  0  0  0  0  0  0  0  0  0  0
   34.6360   31.9390   36.8180 C   0  0  0  0  0  0  0  0  0  0  0  0
   33.4090   31.4890   36.3220 C   0  0  0  0  0  0  0  0  0  0  0  0
   33.4010   30.7380   35.1860 N   0  0  0  0  0  0  0  0  0  0  0  0
   34.5450   30.4240   34.5380 C   0  0  0  0  0  0  0  0  0  0  0  0
   35.7530   30.8450   34.9930 N   0  0  0  0  0  0  0  0  0  0  0  0
   36.7880   31.8870   36.4160 H   0  0  0  0  0  0  0  0  0  0  0  0
   34.7270   32.5390   37.7130 H   0  0  0  0  0  0  0  0  0  0  0  0
   32.4980   31.7450   36.8460 H   0  0  0  0  0  0  0  0  0  0  0  0
   37.1300   26.1790   31.4140 O   0  0  0  0  0  0  0  0  0  0  0  0
   38.9010   25.1590   33.5290 Cl  0  0  0  0  0  0  0  0  0  0  0  0
   37.6510   24.3070   32.6490 C   0  0  0  0  0  0  0  0  0  0  0  0
   36.8770   24.8990   31.6770 C   0  0  0  0  0  0  0  0  0  0  0  0
   35.8980   24.1200   31.0530 C   0  0  0  0  0  0  0  0  0  0  0  0
   35.7250   22.7980   31.4120 C   0  0  0  0  0  0  0  0  0  0  0  0
   36.5040   22.2020   32.3890 C   0  0  0  0  0  0  0  0  0  0  0  0
   37.4910   22.9760   33.0240 C   0  0  0  0  0  0  0  0  0  0  0  0
   35.2560   24.5340   30.2890 H   0  0  0  0  0  0  0  0  0  0  0  0
   34.9400   22.2620   30.8760 H   0  0  0  0  0  0  0  0  0  0  0  0
   36.2360   21.1910   32.5450 H   0  0  0  0  0  0  0  0  0  0  0  0
   38.2140   22.2940   34.0420 N   0  0  0  0  0  0  0  0  0  0  0  0
   39.4760   21.6000   33.7310 C   0  0  0  0  0  3  0  0  0  0  0  0
   39.7280   21.6000   32.6710 H   0  0  0  0  0  0  0  0  0  0  0  0
   40.5330   22.3230   34.5590 C   0  0  0  0  0  3  0  0  0  0  0  0
   41.5540   21.9910   34.3570 H   0  0  0  0  0  0  0  0  0  0  0  0
   40.2000   22.1210   35.9540 N   0  0  0  0  0  0  0  0  0  0  0  0
   40.9490   22.5720   36.5370 H   0  0  0  0  0  0  0  0  0  0  0  0
   38.9390   22.7730   36.2750 C   0  0  0  0  0  2  0  0  0  0  0  0
   37.8750   22.1290   35.4410 C   0  0  0  0  0  2  0  0  0  0  0  0
  1  6  1  6  0  0  0
  1 11  1  0  0  0  0
  2  7  1  1  0  0  0
  2  1  1  0  0  0  0
  2 13  1  0  0  0  0
  3  2  1  0  0  0  0
  4  3  1  0  0  0  0
  4  5  1  0  0  0  0
  5 10  1  1  0  0  0
  5  1  1  0  0  0  0
  8  4  1  0  0  0  0
  9  4  1  0  0  0  0
 11 12  1  0  0  0  0
 13 18  1  0  0  0  0
 14 20  1  0  0  0  0
 14 15  1  0  0  0  0
 15 21  1  0  0  0  0
 16 15  2  0  0  0  0
 16 22  1  0  0  0  0
 17 16  1  0  0  0  0
 18 19  1  0  0  0  0
 18 17  2  0  0  0  0
 19 14  2  0  0  0  0
 23  5  1  0  0  0  0
 23 26  1  0  0  0  0
 25 30  1  0  0  0  0
 25 24  1  0  0  0  0
 26 25  2  0  0  0  0
 27 28  2  0  0  0  0
 27 26  1  0  0  0  0
 28 29  1  0  0  0  0
 29 33  1  0  0  0  0
 29 30  2  0  0  0  0
 30 34  1  0  0  0  0
 31 27  1  0  0  0  0
 32 28  1  0  0  0  0
 34 42  1  0  0  0  0
 35 34  1  0  0  0  0
 35 37  1  0  0  0  0
 36 35  1  0  0  0  0
 37 39  1  0  0  0  0
 38 37  1  0  0  0  0
 39 41  1  0  0  0  0
 39 40  1  0  0  0  0
 42 41  1  0  0  0  0
M  END
>  <minimizedAffinity>
-5.54248762

$$$$

 OpenBabel03272506493D

 42 45  0  0  1  0  0  0  0  0999 V2000
   37.0950   26.9640   30.9960 C   0  0  2  0  0  0  0  0  0  0  0  0
   37.3690   25.5680   31.4720 C   0  0  1  0  0  0  0  0  0  0  0  0
   37.8040   25.6380   32.7600 O   0  0  0  0  0  0  0  0  0  0  0  0
   37.5580   26.9160   33.2580 C   0  0  0  0  0  0  0  0  0  0  0  0
   36.5670   27.5760   32.3340 C   0  0  1  0  0  0  0  0  0  0  0  0
   37.9630   27.5250   30.6690 H   0  0  0  0  0  0  0  0  0  0  0  0
   38.0800   25.0330   30.7920 H   0  0  0  0  0  0  0  0  0  0  0  0
   37.0750   26.7630   34.2570 H   0  0  0  0  0  0  0  0  0  0  0  0
   38.5120   27.3980   33.3740 H   0  0  0  0  0  0  0  0  0  0  0  0
   35.5510   27.2030   32.4260 H   0  0  0  0  0  0  0  0  0  0  0  0
   36.0530   26.9680   30.0490 O   0  0  0  0  0  0  0  0  0  0  0  0
   36.4710   26.9370   29.1520 H   0  0  0  0  0  0  0  0  0  0  0  0
   35.7720   24.6540   31.4580 S   0  0  0  0  0  0  0  0  0  0  0  0
   37.1680   21.2860   33.0130 C   0  0  0  0  0  0  0  0  0  0  0  0
   36.6420   20.2750   32.2100 C   0  0  0  0  0  0  0  0  0  0  0  0
   35.8210   20.6470   31.1400 C   0  0  0  0  0  0  0  0  0  0  0  0
   35.5770   21.9710   30.9380 N   0  0  0  0  0  0  0  0  0  0  0  0
   36.1060   22.9200   31.7410 C   0  0  0  0  0  0  0  0  0  0  0  0
   36.9070   22.5920   32.7880 N   0  0  0  0  0  0  0  0  0  0  0  0
   37.8130   21.1070   33.8630 H   0  0  0  0  0  0  0  0  0  0  0  0
   36.8860   19.2460   32.4370 H   0  0  0  0  0  0  0  0  0  0  0  0
   35.4010   19.8820   30.5020 H   0  0  0  0  0  0  0  0  0  0  0  0
   36.7590   28.9360   32.3630 O   0  0  0  0  0  0  0  0  0  0  0  0
   36.0560   29.8780   35.0590 Cl  0  0  0  0  0  0  0  0  0  0  0  0
   35.3890   30.3790   33.5200 C   0  0  0  0  0  0  0  0  0  0  0  0
   35.8080   29.8650   32.3140 C   0  0  0  0  0  0  0  0  0  0  0  0
   35.2120   30.3560   31.1480 C   0  0  0  0  0  0  0  0  0  0  0  0
   34.2320   31.3270   31.2220 C   0  0  0  0  0  0  0  0  0  0  0  0
   33.8100   31.8430   32.4350 C   0  0  0  0  0  0  0  0  0  0  0  0
   34.4030   31.3580   33.6140 C   0  0  0  0  0  0  0  0  0  0  0  0
   35.5070   29.9950   30.1740 H   0  0  0  0  0  0  0  0  0  0  0  0
   33.8190   31.6540   30.2670 H   0  0  0  0  0  0  0  0  0  0  0  0
   33.0610   32.5800   32.3110 H   0  0  0  0  0  0  0  0  0  0  0  0
   33.9380   31.9740   34.8080 N   0  0  0  0  0  0  0  0  0  0  0  0
   32.6500   31.5780   35.4060 C   0  0  0  0  0  3  0  0  0  0  0  0
   32.0910   30.8590   34.8070 H   0  0  0  0  0  0  0  0  0  0  0  0
   33.0130   31.0090   36.7730 C   0  0  0  0  0  3  0  0  0  0  0  0
   32.1660   30.5690   37.3060 H   0  0  0  0  0  0  0  0  0  0  0  0
   33.5950   32.0860   37.5470 N   0  0  0  0  0  0  0  0  0  0  0  0
   33.8040   31.7190   38.5090 H   0  0  0  0  0  0  0  0  0  0  0  0
   34.8540   32.5130   36.9550 C   0  0  0  0  0  2  0  0  0  0  0  0
   34.5530   33.0320   35.5840 C   0  0  0  0  0  2  0  0  0  0  0  0
  1  6  1  6  0  0  0
  1  2  1  0  0  0  0
  1  5  1  0  0  0  0
  2  7  1  6  0  0  0
  2  3  1  0  0  0  0
  3  4  1  0  0  0  0
  4  9  1  0  0  0  0
  4  8  1  0  0  0  0
  5 23  1  0  0  0  0
  5 10  1  1  0  0  0
  5  4  1  0  0  0  0
 11  1  1  0  0  0  0
 12 11  1  0  0  0  0
 13  2  1  0  0  0  0
 13 18  1  0  0  0  0
 14 20  1  0  0  0  0
 15 21  1  0  0  0  0
 15 14  2  0  0  0  0
 16 15  1  0  0  0  0
 17 16  2  0  0  0  0
 17 18  1  0  0  0  0
 18 19  2  0  0  0  0
 19 14  1  0  0  0  0
 22 16  1  0  0  0  0
 25 30  1  0  0  0  0
 25 24  1  0  0  0  0
 26 23  1  0  0  0  0
 26 25  2  0  0  0  0
 27 28  2  0  0  0  0
 27 26  1  0  0  0  0
 28 29  1  0  0  0  0
 29 30  2  0  0  0  0
 30 34  1  0  0  0  0
 31 27  1  0  0  0  0
 32 28  1  0  0  0  0
 33 29  1  0  0  0  0
 34 35  1  0  0  0  0
 34 42  1  0  0  0  0
 35 37  1  0  0  0  0
 36 35  1  0  0  0  0
 37 38  1  0  0  0  0
 37 39  1  0  0  0  0
 39 40  1  0  0  0  0
 41 39  1  0  0  0  0
 42 41  1  0  0  0  0
M  END
>  <minimizedAffinity>
-5.47921515

$$$$

 OpenBabel03272506493D

 42 45  0  0  1  0  0  0  0  0999 V2000
   35.5590   30.7240   34.1740 C   0  0  2  0  0  0  0  0  0  0  0  0
   34.1160   31.1170   34.0580 C   0  0  1  0  0  0  0  0  0  0  0  0
   33.5310   30.3070   33.1340 O   0  0  0  0  0  0  0  0  0  0  0  0
   34.3800   29.2390   32.8560 C   0  0  0  0  0  0  0  0  0  0  0  0
   35.4090   29.1830   33.9570 C   0  0  1  0  0  0  0  0  0  0  0  0
   36.2160   31.1250   33.4110 H   0  0  0  0  0  0  0  0  0  0  0  0
   34.0030   32.2070   33.8290 H   0  0  0  0  0  0  0  0  0  0  0  0
   33.7400   28.3210   32.9120 H   0  0  0  0  0  0  0  0  0  0  0  0
   34.7460   29.3790   31.8550 H   0  0  0  0  0  0  0  0  0  0  0  0
   35.0320   28.8060   34.9030 H   0  0  0  0  0  0  0  0  0  0  0  0
   36.0320   30.9570   35.4810 O   0  0  0  0  0  0  0  0  0  0  0  0
   36.4620   31.8490   35.4820 H   0  0  0  0  0  0  0  0  0  0  0  0
   33.3210   30.7930   35.6860 S   0  0  0  0  0  0  0  0  0  0  0  0
   34.0850   34.0300   37.8400 C   0  0  0  0  0  0  0  0  0  0  0  0
   32.8800   34.7310   37.8760 C   0  0  0  0  0  0  0  0  0  0  0  0
   31.7820   34.1800   37.2060 C   0  0  0  0  0  0  0  0  0  0  0  0
   31.9430   32.9950   36.5560 N   0  0  0  0  0  0  0  0  0  0  0  0
   33.1300   32.3490   36.5460 C   0  0  0  0  0  0  0  0  0  0  0  0
   34.2150   32.8560   37.1860 N   0  0  0  0  0  0  0  0  0  0  0  0
   34.9910   34.3670   38.3240 H   0  0  0  0  0  0  0  0  0  0  0  0
   32.8330   35.6660   38.4150 H   0  0  0  0  0  0  0  0  0  0  0  0
   30.8350   34.7030   37.2180 H   0  0  0  0  0  0  0  0  0  0  0  0
   36.5690   28.6390   33.4630 O   0  0  0  0  0  0  0  0  0  0  0  0
   38.0110   27.5610   35.7880 Cl  0  0  0  0  0  0  0  0  0  0  0  0
   37.5080   26.7270   34.3350 C   0  0  0  0  0  0  0  0  0  0  0  0
   36.8270   27.3430   33.3100 C   0  0  0  0  0  0  0  0  0  0  0  0
   36.4610   26.5680   32.2040 C   0  0  0  0  0  0  0  0  0  0  0  0
   36.7830   25.2260   32.1580 C   0  0  0  0  0  0  0  0  0  0  0  0
   37.4680   24.6050   33.1890 C   0  0  0  0  0  0  0  0  0  0  0  0
   37.8390   25.3740   34.3050 C   0  0  0  0  0  0  0  0  0  0  0  0
   35.9190   26.9970   31.3750 H   0  0  0  0  0  0  0  0  0  0  0  0
   36.4620   24.6940   31.2610 H   0  0  0  0  0  0  0  0  0  0  0  0
   37.6250   23.5770   32.9950 H   0  0  0  0  0  0  0  0  0  0  0  0
   38.5020   24.6470   35.3320 N   0  0  0  0  0  0  0  0  0  0  0  0
   37.7570   24.1470   36.5000 C   0  0  0  0  0  3  0  0  0  0  0  0
   36.7130   24.4600   36.5210 H   0  0  0  0  0  0  0  0  0  0  0  0
   37.8860   22.6290   36.4260 C   0  0  0  0  0  3  0  0  0  0  0  0
   37.2920   22.0990   37.1740 H   0  0  0  0  0  0  0  0  0  0  0  0
   39.2920   22.3100   36.5750 N   0  0  0  0  0  0  0  0  0  0  0  0
   39.3890   21.2630   36.5760 H   0  0  0  0  0  0  0  0  0  0  0  0
   40.0520   22.8230   35.4450 C   0  0  0  0  0  2  0  0  0  0  0  0
   39.9080   24.3130   35.4460 C   0  0  0  0  0  2  0  0  0  0  0  0
  1  6  1  6  0  0  0
  1 11  1  0  0  0  0
  2  7  1  6  0  0  0
  2  1  1  0  0  0  0
  2 13  1  0  0  0  0
  3  2  1  0  0  0  0
  4  8  1  0  0  0  0
  4  3  1  0  0  0  0
  4  5  1  0  0  0  0
  5  1  1  0  0  0  0
  5 10  1  1  0  0  0
  9  4  1  0  0  0  0
 11 12  1  0  0  0  0
 13 18  1  0  0  0  0
 14 15  1  0  0  0  0
 14 20  1  0  0  0  0
 15 21  1  0  0  0  0
 16 22  1  0  0  0  0
 16 15  2  0  0  0  0
 17 16  1  0  0  0  0
 18 17  2  0  0  0  0
 18 19  1  0  0  0  0
 19 14  2  0  0  0  0
 23  5  1  0  0  0  0
 25 24  1  0  0  0  0
 26 23  1  0  0  0  0
 26 25  2  0  0  0  0
 27 26  1  0  0  0  0
 28 27  2  0  0  0  0
 28 29  1  0  0  0  0
 29 30  2  0  0  0  0
 30 25  1  0  0  0  0
 30 34  1  0  0  0  0
 31 27  1  0  0  0  0
 32 28  1  0  0  0  0
 33 29  1  0  0  0  0
 34 42  1  0  0  0  0
 34 35  1  0  0  0  0
 35 36  1  0  0  0  0
 37 35  1  0  0  0  0
 37 39  1  0  0  0  0
 37 38  1  0  0  0  0
 39 40  1  0  0  0  0
 41 42  1  0  0  0  0
 41 39  1  0  0  0  0
M  END
>  <minimizedAffinity>
-5.44773865

$$$$

 OpenBabel03272506493D

 42 45  0  0  1  0  0  0  0  0999 V2000
   38.1130   24.6270   31.3770 C   0  0  2  0  0  0  0  0  0  0  0  0
   37.8810   23.2950   32.0280 C   0  0  1  0  0  0  0  0  0  0  0  0
   37.9030   23.4760   33.3770 O   0  0  0  0  0  0  0  0  0  0  0  0
   37.8340   24.8380   33.6590 C   0  0  0  0  0  0  0  0  0  0  0  0
   37.3660   25.5340   32.4070 C   0  0  1  0  0  0  0  0  0  0  0  0
   39.1490   24.9430   31.3140 H   0  0  0  0  0  0  0  0  0  0  0  0
   38.6140   22.5280   31.6700 H   0  0  0  0  0  0  0  0  0  0  0  0
   37.0460   24.9430   34.4480 H   0  0  0  0  0  0  0  0  0  0  0  0
   38.7940   25.1280   34.0480 H   0  0  0  0  0  0  0  0  0  0  0  0
   36.3120   25.3940   32.1840 H   0  0  0  0  0  0  0  0  0  0  0  0
   37.4450   24.6950   30.1380 O   0  0  0  0  0  0  0  0  0  0  0  0
   38.0980   24.4410   29.4380 H   0  0  0  0  0  0  0  0  0  0  0  0
   36.1940   22.7340   31.5550 S   0  0  0  0  0  0  0  0  0  0  0  0
   37.1900   18.8990   31.5960 C   0  0  0  0  0  0  0  0  0  0  0  0
   36.0340   18.2320   31.9990 C   0  0  0  0  0  0  0  0  0  0  0  0
   34.8950   18.9980   32.2700 C   0  0  0  0  0  0  0  0  0  0  0  0
   34.9720   20.3490   32.1280 N   0  0  0  0  0  0  0  0  0  0  0  0
   36.1140   20.9560   31.7350 C   0  0  0  0  0  0  0  0  0  0  0  0
   37.2360   20.2410   31.4640 N   0  0  0  0  0  0  0  0  0  0  0  0
   38.1210   18.4010   31.3620 H   0  0  0  0  0  0  0  0  0  0  0  0
   36.0540   17.1540   32.0860 H   0  0  0  0  0  0  0  0  0  0  0  0
   33.9860   18.5050   32.5840 H   0  0  0  0  0  0  0  0  0  0  0  0
   37.8640   26.8140   32.3880 O   0  0  0  0  0  0  0  0  0  0  0  0
   36.4580   28.2030   34.5660 Cl  0  0  0  0  0  0  0  0  0  0  0  0
   36.5300   28.6270   32.8700 C   0  0  0  0  0  0  0  0  0  0  0  0
   37.2330   27.8960   31.9400 C   0  0  0  0  0  0  0  0  0  0  0  0
   37.2310   28.3440   30.6150 C   0  0  0  0  0  0  0  0  0  0  0  0
   36.5390   29.4870   30.2670 C   0  0  0  0  0  0  0  0  0  0  0  0
   35.8320   30.2230   31.2020 C   0  0  0  0  0  0  0  0  0  0  0  0
   35.8270   29.7830   32.5370 C   0  0  0  0  0  0  0  0  0  0  0  0
   37.7710   27.8140   29.8450 H   0  0  0  0  0  0  0  0  0  0  0  0
   36.5880   29.7660   29.2130 H   0  0  0  0  0  0  0  0  0  0  0  0
   35.3680   31.0690   30.7690 H   0  0  0  0  0  0  0  0  0  0  0  0
   35.1100   30.6210   33.4350 N   0  0  0  0  0  0  0  0  0  0  0  0
   33.6570   30.4620   33.6140 C   0  0  0  0  0  3  0  0  0  0  0  0
   33.2110   29.7220   32.9480 H   0  0  0  0  0  0  0  0  0  0  0  0
   33.4840   30.0740   35.0790 C   0  0  0  0  0  3  0  0  0  0  0  0
   32.4570   29.8140   35.3480 H   0  0  0  0  0  0  0  0  0  0  0  0
   33.9500   31.1890   35.8770 N   0  0  0  0  0  0  0  0  0  0  0  0
   33.7910   30.9550   36.8890 H   0  0  0  0  0  0  0  0  0  0  0  0
   35.3810   31.3840   35.6900 C   0  0  0  0  0  2  0  0  0  0  0  0
   35.6050   31.7150   34.2480 C   0  0  0  0  0  2  0  0  0  0  0  0
  1  6  1  6  0  0  0
  1  2  1  0  0  0  0
  1  5  1  0  0  0  0
  2  7  1  6  0  0  0
  2  3  1  0  0  0  0
  3  4  1  0  0  0  0
  4  9  1  0  0  0  0
  4  8  1  0  0  0  0
  5 10  1  6  0  0  0
  5  4  1  0  0  0  0
 11  1  1  0  0  0  0
 12 11  1  0  0  0  0
 13 18  1  0  0  0  0
 13  2  1  0  0  0  0
 14 15  1  0  0  0  0
 15 21  1  0  0  0  0
 15 16  2  0  0  0  0
 16 22  1  0  0  0  0
 17 16  1  0  0  0  0
 18 17  2  0  0  0  0
 19 14  2  0  0  0  0
 19 18  1  0  0  0  0
 20 14  1  0  0  0  0
 23  5  1  0  0  0  0
 25 24  1  0  0  0  0
 26 23  1  0  0  0  0
 26 25  2  0  0  0  0
 27 26  1  0  0  0  0
 28 27  2  0  0  0  0
 28 29  1  0  0  0  0
 29 30  2  0  0  0  0
 30 25  1  0  0  0  0
 30 34  1  0  0  0  0
 31 27  1  0  0  0  0
 32 28  1  0  0  0  0
 33 29  1  0  0  0  0
 34 35  1  0  0  0  0
 34 42  1  0  0  0  0
 35 37  1  0  0  0  0
 36 35  1  0  0  0  0
 37 38  1  0  0  0  0
 37 39  1  0  0  0  0
 39 40  1  0  0  0  0
 41 39  1  0  0  0  0
 42 41  1  0  0  0  0
M  END
>  <minimizedAffinity>
-5.41027403

$$$$

 OpenBabel03272506493D

 42 45  0  0  1  0  0  0  0  0999 V2000
   37.7800   27.6870   30.3950 C   0  0  2  0  0  0  0  0  0  0  0  0
   36.3520   28.1410   30.4790 C   0  0  1  0  0  0  0  0  0  0  0  0
   35.6770   27.2630   31.2710 O   0  0  0  0  0  0  0  0  0  0  0  0
   36.5900   26.4550   31.9440 C   0  0  0  0  0  0  0  0  0  0  0  0
   37.9390   27.1190   31.8420 C   0  0  1  0  0  0  0  0  0  0  0  0
   37.9780   26.8950   29.6810 H   0  0  0  0  0  0  0  0  0  0  0  0
   35.8980   28.2620   29.4630 H   0  0  0  0  0  0  0  0  0  0  0  0
   36.2640   26.4580   33.0150 H   0  0  0  0  0  0  0  0  0  0  0  0
   36.5020   25.4670   31.5290 H   0  0  0  0  0  0  0  0  0  0  0  0
   38.0550   27.9970   32.4720 H   0  0  0  0  0  0  0  0  0  0  0  0
   38.6410   28.7910   30.2390 O   0  0  0  0  0  0  0  0  0  0  0  0
   38.8070   28.9000   29.2700 H   0  0  0  0  0  0  0  0  0  0  0  0
   36.3410   29.7830   31.3080 S   0  0  0  0  0  0  0  0  0  0  0  0
   33.0360   29.6960   33.4940 C   0  0  0  0  0  0  0  0  0  0  0  0
   32.1610   30.5750   32.8570 C   0  0  0  0  0  0  0  0  0  0  0  0
   32.6080   31.2230   31.7010 C   0  0  0  0  0  0  0  0  0  0  0  0
   33.8690   30.9660   31.2580 N   0  0  0  0  0  0  0  0  0  0  0  0
   34.6870   30.1070   31.9060 C   0  0  0  0  0  0  0  0  0  0  0  0
   34.2830   29.4620   33.0310 N   0  0  0  0  0  0  0  0  0  0  0  0
   32.7900   29.1460   34.3920 H   0  0  0  0  0  0  0  0  0  0  0  0
   31.1740   30.7230   33.2720 H   0  0  0  0  0  0  0  0  0  0  0  0
   31.9490   31.9090   31.1880 H   0  0  0  0  0  0  0  0  0  0  0  0
   38.9200   26.1600   31.8900 O   0  0  0  0  0  0  0  0  0  0  0  0
   38.2000   23.6850   33.3050 Cl  0  0  0  0  0  0  0  0  0  0  0  0
   39.5040   24.7980   33.6520 C   0  0  0  0  0  0  0  0  0  0  0  0
   39.7470   25.9300   32.9070 C   0  0  0  0  0  0  0  0  0  0  0  0
   40.8300   26.7360   33.2710 C   0  0  0  0  0  0  0  0  0  0  0  0
   41.6230   26.3940   34.3480 C   0  0  0  0  0  0  0  0  0  0  0  0
   41.3780   25.2560   35.0990 C   0  0  0  0  0  0  0  0  0  0  0  0
   40.2930   24.4380   34.7420 C   0  0  0  0  0  0  0  0  0  0  0  0
   41.0720   27.6310   32.7170 H   0  0  0  0  0  0  0  0  0  0  0  0
   42.4460   27.0760   34.5650 H   0  0  0  0  0  0  0  0  0  0  0  0
   42.0820   25.1400   35.8800 H   0  0  0  0  0  0  0  0  0  0  0  0
   40.1420   23.2710   35.5410 N   0  0  0  0  0  0  0  0  0  0  0  0
   41.0530   22.1240   35.3760 C   0  0  0  0  0  3  0  0  0  0  0  0
   41.7610   22.2410   34.5550 H   0  0  0  0  0  0  0  0  0  0  0  0
   41.7660   21.9960   36.7180 C   0  0  0  0  0  3  0  0  0  0  0  0
   42.5620   21.2480   36.7250 H   0  0  0  0  0  0  0  0  0  0  0  0
   40.7610   21.6770   37.7110 N   0  0  0  0  0  0  0  0  0  0  0  0
   41.2460   21.5370   38.6330 H   0  0  0  0  0  0  0  0  0  0  0  0
   39.8310   22.7860   37.8660 C   0  0  0  0  0  2  0  0  0  0  0  0
   39.1440   22.9850   36.5520 C   0  0  0  0  0  2  0  0  0  0  0  0
  1  6  1  6  0  0  0
  1  2  1  0  0  0  0
  1  5  1  0  0  0  0
  2  7  1  6  0  0  0
  2  3  1  0  0  0  0
  2 13  1  0  0  0  0
  3  4  1  0  0  0  0
  4  8  1  0  0  0  0
  5 23  1  0  0  0  0
  5  4  1  0  0  0  0
  5 10  1  1  0  0  0
  9  4  1  0  0  0  0
 11  1  1  0  0  0  0
 12 11  1  0  0  0  0
 13 18  1  0  0  0  0
 14 20  1  0  0  0  0
 15 21  1  0  0  0  0
 15 14  2  0  0  0  0
 16 15  1  0  0  0  0
 17 16  2  0  0  0  0
 17 18  1  0  0  0  0
 18 19  2  0  0  0  0
 19 14  1  0  0  0  0
 22 16  1  0  0  0  0
 23 26  1  0  0  0  0
 24 25  1  0  0  0  0
 25 30  1  0  0  0  0
 26 27  1  0  0  0  0
 26 25  2  0  0  0  0
 27 28  2  0  0  0  0
 28 32  1  0  0  0  0
 28 29  1  0  0  0  0
 29 33  1  0  0  0  0
 30 29  2  0  0  0  0
 30 34  1  0  0  0  0
 31 27  1  0  0  0  0
 34 42  1  0  0  0  0
 35 34  1  0  0  0  0
 35 37  1  0  0  0  0
 36 35  1  0  0  0  0
 37 38  1  0  0  0  0
 37 39  1  0  0  0  0
 39 41  1  0  0  0  0
 39 40  1  0  0  0  0
 42 41  1  0  0  0  0
M  END
>  <minimizedAffinity>
-5.200243

$$$$

 OpenBabel03272506493D

 42 45  0  0  1  0  0  0  0  0999 V2000
   37.7110   27.0760   30.6960 C   0  0  2  0  0  0  0  0  0  0  0  0
   36.5100   27.9500   30.4880 C   0  0  1  0  0  0  0  0  0  0  0  0
   35.4030   27.1570   30.5100 O   0  0  0  0  0  0  0  0  0  0  0  0
   35.7470   25.9010   31.0030 C   0  0  0  0  0  0  0  0  0  0  0  0
   37.0870   26.0350   31.6810 C   0  0  1  0  0  0  0  0  0  0  0  0
   38.0690   26.5570   29.8140 H   0  0  0  0  0  0  0  0  0  0  0  0
   36.6000   28.5610   29.5550 H   0  0  0  0  0  0  0  0  0  0  0  0
   34.9730   25.6570   31.7750 H   0  0  0  0  0  0  0  0  0  0  0  0
   35.6840   25.2120   30.1800 H   0  0  0  0  0  0  0  0  0  0  0  0
   37.0550   26.5460   32.6390 H   0  0  0  0  0  0  0  0  0  0  0  0
   38.7290   27.7850   31.3640 O   0  0  0  0  0  0  0  0  0  0  0  0
   39.3360   28.1480   30.6730 H   0  0  0  0  0  0  0  0  0  0  0  0
   36.4120   29.1050   31.9170 S   0  0  0  0  0  0  0  0  0  0  0  0
   32.6130   29.7090   32.8740 C   0  0  0  0  0  0  0  0  0  0  0  0
   32.2220   30.8100   32.1130 C   0  0  0  0  0  0  0  0  0  0  0  0
   33.1710   31.3920   31.2660 C   0  0  0  0  0  0  0  0  0  0  0  0
   34.4220   30.8590   31.2280 N   0  0  0  0  0  0  0  0  0  0  0  0
   34.7610   29.7910   31.9830 C   0  0  0  0  0  0  0  0  0  0  0  0
   33.8630   29.2020   32.8150 N   0  0  0  0  0  0  0  0  0  0  0  0
   31.9590   29.1860   33.5580 H   0  0  0  0  0  0  0  0  0  0  0  0
   31.2070   31.1730   32.2000 H   0  0  0  0  0  0  0  0  0  0  0  0
   32.8920   32.2470   30.6650 H   0  0  0  0  0  0  0  0  0  0  0  0
   37.7490   24.8340   31.6130 O   0  0  0  0  0  0  0  0  0  0  0  0
   39.1620   25.7220   34.0340 Cl  0  0  0  0  0  0  0  0  0  0  0  0
   38.3910   24.1820   33.7250 C   0  0  0  0  0  0  0  0  0  0  0  0
   37.7500   23.8830   32.5440 C   0  0  0  0  0  0  0  0  0  0  0  0
   37.1560   22.6240   32.4190 C   0  0  0  0  0  0  0  0  0  0  0  0
   37.2200   21.7170   33.4580 C   0  0  0  0  0  0  0  0  0  0  0  0
   37.8650   22.0160   34.6460 C   0  0  0  0  0  0  0  0  0  0  0  0
   38.4650   23.2800   34.7830 C   0  0  0  0  0  0  0  0  0  0  0  0
   36.6330   22.3390   31.5190 H   0  0  0  0  0  0  0  0  0  0  0  0
   36.7320   20.7580   33.2790 H   0  0  0  0  0  0  0  0  0  0  0  0
   37.8140   21.2150   35.3350 H   0  0  0  0  0  0  0  0  0  0  0  0
   39.0690   23.5150   36.0500 N   0  0  0  0  0  0  0  0  0  0  0  0
   38.3250   24.1990   37.1220 C   0  0  0  0  0  3  0  0  0  0  0  0
   37.3420   24.5570   36.8140 H   0  0  0  0  0  0  0  0  0  0  0  0
   38.2200   23.1700   38.2430 C   0  0  0  0  0  3  0  0  0  0  0  0
   37.5960   23.4920   39.0800 H   0  0  0  0  0  0  0  0  0  0  0  0
   39.5680   22.8870   38.6930 N   0  0  0  0  0  0  0  0  0  0  0  0
   39.5070   22.2150   39.5000 H   0  0  0  0  0  0  0  0  0  0  0  0
   40.3310   22.2380   37.6370 C   0  0  0  0  0  2  0  0  0  0  0  0
   40.4130   23.1950   36.4890 C   0  0  0  0  0  2  0  0  0  0  0  0
  1  6  1  6  0  0  0
  1 11  1  0  0  0  0
  1  5  1  0  0  0  0
  2  7  1  6  0  0  0
  2  3  1  0  0  0  0
  2  1  1  0  0  0  0
  2 13  1  0  0  0  0
  3  4  1  0  0  0  0
  4  5  1  0  0  0  0
  4  8  1  0  0  0  0
  5 10  1  1  0  0  0
  9  4  1  0  0  0  0
 12 11  1  0  0  0  0
 13 18  1  0  0  0  0
 14 20  1  0  0  0  0
 15 21  1  0  0  0  0
 15 14  2  0  0  0  0
 16 15  1  0  0  0  0
 17 16  2  0  0  0  0
 17 18  1  0  0  0  0
 18 19  2  0  0  0  0
 19 14  1  0  0  0  0
 22 16  1  0  0  0  0
 23  5  1  0  0  0  0
 23 26  1  0  0  0  0
 25 24  1  0  0  0  0
 25 30  1  0  0  0  0
 26 25  2  0  0  0  0
 27 26  1  0  0  0  0
 27 28  2  0  0  0  0
 28 29  1  0  0  0  0
 29 30  2  0  0  0  0
 29 33  1  0  0  0  0
 30 34  1  0  0  0  0
 31 27  1  0  0  0  0
 32 28  1  0  0  0  0
 34 42  1  0  0  0  0
 34 35  1  0  0  0  0
 35 37  1  0  0  0  0
 36 35  1  0  0  0  0
 37 39  1  0  0  0  0
 37 38  1  0  0  0  0
 39 40  1  0  0  0  0
 41 39  1  0  0  0  0
 42 41  1  0  0  0  0
M  END
>  <minimizedAffinity>
-5.19034719

$$$$
