
 OpenBabel03272509203D

 46 50  0  0  0  0  0  0  0  0999 V2000
   38.0910   31.3740   47.8770 C   0  0  0  0  0  0  0  0  0  0  0  0
   37.2790   31.5770   48.9860 C   0  0  0  0  0  0  0  0  0  0  0  0
   37.5320   32.7840   49.6690 C   0  0  0  0  0  0  0  0  0  0  0  0
   38.5230   33.6810   49.2430 C   0  0  0  0  0  0  0  0  0  0  0  0
   39.2900   33.3770   48.1050 C   0  0  0  0  0  0  0  0  0  0  0  0
   39.0530   32.1930   47.4210 C   0  0  0  0  0  0  0  0  0  0  0  0
   36.9460   33.0290   50.5480 H   0  0  0  0  0  0  0  0  0  0  0  0
   38.6810   34.5980   49.8000 H   0  0  0  0  0  0  0  0  0  0  0  0
   40.0260   34.1020   47.8350 H   0  0  0  0  0  0  0  0  0  0  0  0
   35.1370   30.4590   48.6360 C   0  0  0  0  0  0  0  0  0  0  0  0
   36.2720   30.6630   49.4170 C   0  0  0  0  0  0  0  0  0  0  0  0
   36.3800   29.9450   50.6160 C   0  0  0  0  0  0  0  0  0  0  0  0
   35.3770   29.0950   50.9510 N   0  0  0  0  0  0  0  0  0  0  0  0
   34.2840   28.9270   50.1580 C   0  0  0  0  0  0  0  0  0  0  0  0
   34.1710   29.6030   49.0150 N   0  0  0  0  0  0  0  0  0  0  0  0
   35.0590   31.0070   47.7230 H   0  0  0  0  0  0  0  0  0  0  0  0
   33.5000   28.2380   50.4560 H   0  0  0  0  0  0  0  0  0  0  0  0
   37.5700   30.1270   51.4820 C   0  0  0  0  0  0  0  0  0  0  0  0
   37.6300   29.3070   52.2060 H   0  0  0  0  0  0  0  0  0  0  0  0
   37.4000   31.0660   52.0600 H   0  0  0  0  0  0  0  0  0  0  0  0
   38.5010   30.2980   50.9070 H   0  0  0  0  0  0  0  0  0  0  0  0
   37.9210   30.2050   47.1310 O   0  0  0  0  0  0  0  0  0  0  0  0
   37.0790   29.9450   46.6620 H   0  0  0  0  0  0  0  0  0  0  0  0
   39.8460   31.9650   46.3160 O   0  0  0  0  0  0  0  0  0  0  0  0
   39.9500   31.0040   44.0110 C   0  0  0  0  0  0  0  0  0  0  0  0
   39.4260   31.7870   45.0220 C   0  0  0  0  0  0  0  0  0  0  0  0
   38.2850   32.5490   44.7620 C   0  0  0  0  0  0  0  0  0  0  0  0
   37.6850   32.5140   43.4920 C   0  0  0  0  0  0  0  0  0  0  0  0
   36.6080   33.1150   42.9360 N   0  0  0  0  0  0  0  0  0  0  0  0
   36.4670   32.7320   41.6600 C   0  0  0  0  0  0  0  0  0  0  0  0
   37.4890   31.8620   41.4030 N   0  0  0  0  0  0  0  0  0  0  0  0
   38.2400   31.7230   42.5200 C   0  0  0  0  0  0  0  0  0  0  0  0
   39.3600   30.9750   42.7740 C   0  0  0  0  0  0  0  0  0  0  0  0
   40.8270   30.4600   44.3170 H   0  0  0  0  0  0  0  0  0  0  0  0
   37.7610   33.2060   45.4450 H   0  0  0  0  0  0  0  0  0  0  0  0
   35.9750   33.7850   43.4380 H   0  0  0  0  0  0  0  0  0  0  0  0
   35.6840   33.0670   40.9960 H   0  0  0  0  0  0  0  0  0  0  0  0
   39.9470   30.1480   41.7750 N   0  0  0  0  0  0  0  0  0  0  0  0
   39.9410   28.7010   41.8750 C   0  0  0  0  0  0  0  0  0  0  0  0
   38.9280   28.2610   41.7950 H   0  0  0  0  0  0  0  0  0  0  0  0
   40.8980   28.1250   40.8570 C   0  0  0  0  0  0  0  0  0  0  0  0
   40.4960   28.2210   39.8180 H   0  0  0  0  0  0  0  0  0  0  0  0
   42.1280   28.9090   40.9740 N   0  0  0  0  0  0  0  0  0  0  0  0
   42.2280   29.2220   41.9870 H   0  0  0  0  0  0  0  0  0  0  0  0
   41.8730   30.1380   40.2470 C   0  0  0  0  0  0  0  0  0  0  0  0
   40.5690   30.7750   40.6270 C   0  0  0  0  0  0  0  0  0  0  0  0
  1  2  1  0  0  0  0
  2 11  1  0  0  0  0
  2  3  2  0  0  0  0
  3  7  1  0  0  0  0
  4  3  1  0  0  0  0
  4  8  1  0  0  0  0
  5  4  2  0  0  0  0
  6  1  2  0  0  0  0
  6  5  1  0  0  0  0
  9  5  1  0  0  0  0
 10 15  2  0  0  0  0
 10 11  1  0  0  0  0
 11 12  2  0  0  0  0
 12 13  1  0  0  0  0
 12 18  1  0  0  0  0
 14 17  1  0  0  0  0
 14 13  2  0  0  0  0
 15 14  1  0  0  0  0
 16 10  1  0  0  0  0
 18 20  1  0  0  0  0
 18 19  1  0  0  0  0
 21 18  1  0  0  0  0
 22  1  1  0  0  0  0
 23 22  1  0  0  0  0
 24  6  1  0  0  0  0
 25 34  1  0  0  0  0
 25 26  1  0  0  0  0
 26 24  1  0  0  0  0
 27 26  2  0  0  0  0
 27 35  1  0  0  0  0
 28 27  1  0  0  0  0
 29 36  1  0  0  0  0
 29 28  1  0  0  0  0
 30 29  1  0  0  0  0
 31 30  2  0  0  0  0
 31 32  1  0  0  0  0
 32 33  1  0  0  0  0
 32 28  2  0  0  0  0
 33 25  2  0  0  0  0
 37 30  1  0  0  0  0
 38 39  1  0  0  0  0
 38 33  1  0  0  0  0
 40 39  1  0  0  0  0
 41 43  1  0  0  0  0
 41 39  1  0  0  0  0
 42 41  1  0  0  0  0
 43 44  1  0  0  0  0
 45 46  1  0  0  0  0
 45 43  1  0  0  0  0
 46 38  1  0  0  0  0
M  END
>  <minimizedAffinity>
-7.84322548

>  <minimizedRMSD>
0.957849979

$$$$
