
 OpenBabel03262522003D

 36 38  0  0  1  0  0  0  0  0999 V2000
   38.1040   25.9730   33.3530 N   0  0  0  0  0  0  0  0  0  0  0  0
   38.9020   27.0820   32.9550 C   0  0  0  0  0  0  0  0  0  0  0  0
   40.3520   27.0110   33.2050 C   0  0  0  0  0  0  0  0  0  0  0  0
   40.8440   26.1190   34.2860 C   0  0  0  0  0  0  0  0  0  0  0  0
   39.8710   25.0650   34.7460 C   0  0  0  0  0  0  0  0  0  0  0  0
   38.4430   25.6180   34.6910 C   0  0  1  0  0  0  0  0  0  0  0  0
   38.7320   27.1520   31.8390 H   0  0  0  0  0  0  0  0  0  0  0  0
   38.4770   28.0820   33.2720 H   0  0  0  0  0  0  0  0  0  0  0  0
   40.9210   26.8570   32.2390 H   0  0  0  0  0  0  0  0  0  0  0  0
   40.7160   28.0430   33.4980 H   0  0  0  0  0  0  0  0  0  0  0  0
   41.6760   25.4860   33.8520 H   0  0  0  0  0  0  0  0  0  0  0  0
   41.3970   26.6270   35.1120 H   0  0  0  0  0  0  0  0  0  0  0  0
   40.1230   24.8030   35.7950 H   0  0  0  0  0  0  0  0  0  0  0  0
   39.8630   24.1720   34.1040 H   0  0  0  0  0  0  0  0  0  0  0  0
   37.8260   24.7110   34.9090 H   0  0  0  0  0  0  0  0  0  0  0  0
   37.1190   25.3220   32.5340 C   0  0  0  0  0  0  0  0  0  0  0  0
   36.2040   25.9720   31.7100 C   0  0  0  0  0  0  0  0  0  0  0  0
   35.3150   25.2210   30.9780 C   0  0  0  0  0  0  0  0  0  0  0  0
   35.3820   23.8670   31.1070 N   0  0  0  0  0  0  0  0  0  0  0  0
   36.2670   23.2450   31.9060 C   0  0  0  0  0  0  0  0  0  0  0  0
   37.1050   24.0070   32.5920 N   0  0  0  0  0  0  0  0  0  0  0  0
   36.2540   27.0510   31.6960 H   0  0  0  0  0  0  0  0  0  0  0  0
   34.6010   25.7190   30.3360 H   0  0  0  0  0  0  0  0  0  0  0  0
   36.2890   21.8080   31.9990 N   0  0  0  0  0  0  0  0  0  0  0  0
   35.0230   21.1380   32.1350 C   0  0  0  0  0  3  0  0  0  0  0  0
   34.5370   21.3880   33.1140 H   0  0  0  0  0  0  0  0  0  0  0  0
   35.0950   19.6560   32.0460 C   0  0  0  0  0  3  0  0  0  0  0  0
   34.3090   19.1330   32.6270 H   0  0  0  0  0  0  0  0  0  0  0  0
   36.3830   19.0860   32.3770 N   0  0  0  0  0  0  0  0  0  0  0  0
   36.5980   19.1760   33.3990 H   0  0  0  0  0  0  0  0  0  0  0  0
   37.4610   19.6820   31.6440 C   0  0  0  0  0  2  0  0  0  0  0  0
   37.5980   21.1430   31.9470 C   0  0  0  0  0  2  0  0  0  0  0  0
   38.3150   26.6870   35.7240 C   0  0  0  0  0  0  0  0  0  0  0  0
   38.0200   26.0300   36.9290 F   0  0  0  0  0  0  0  0  0  0  0  0
   37.1930   27.4430   35.4880 F   0  0  0  0  0  0  0  0  0  0  0  0
   39.4240   27.4280   35.9590 F   0  0  0  0  0  0  0  0  0  0  0  0
  1  6  1  0  0  0  0
  2  3  1  0  0  0  0
  2  8  1  0  0  0  0
  2  1  1  0  0  0  0
  3 10  1  0  0  0  0
  3  4  1  0  0  0  0
  4  5  1  0  0  0  0
  4 12  1  0  0  0  0
  5 13  1  0  0  0  0
  6  5  1  0  0  0  0
  6 15  1  1  0  0  0
  6 33  1  0  0  0  0
  7  2  1  0  0  0  0
  9  3  1  0  0  0  0
 11  4  1  0  0  0  0
 14  5  1  0  0  0  0
 16 21  1  0  0  0  0
 16  1  1  0  0  0  0
 17 16  2  0  0  0  0
 18 19  2  0  0  0  0
 18 17  1  0  0  0  0
 19 20  1  0  0  0  0
 20 24  1  0  0  0  0
 20 21  2  0  0  0  0
 22 17  1  0  0  0  0
 23 18  1  0  0  0  0
 24 25  1  0  0  0  0
 25 26  1  0  0  0  0
 27 25  1  0  0  0  0
 27 29  1  0  0  0  0
 27 28  1  0  0  0  0
 29 30  1  0  0  0  0
 31 32  1  0  0  0  0
 31 29  1  0  0  0  0
 32 24  1  0  0  0  0
 33 36  1  0  0  0  0
 33 34  1  0  0  0  0
 35 33  1  0  0  0  0
M  END
>  <minimizedAffinity>
-5.63912773

$$$$

 OpenBabel03262522003D

 36 38  0  0  1  0  0  0  0  0999 V2000
   38.2540   26.6750   31.9650 N   0  0  0  0  0  0  0  0  0  0  0  0
   38.4280   27.1730   30.6440 C   0  0  0  0  0  0  0  0  0  0  0  0
   37.5310   28.2510   30.1900 C   0  0  0  0  0  0  0  0  0  0  0  0
   36.2070   28.3960   30.8470 C   0  0  0  0  0  0  0  0  0  0  0  0
   36.0690   27.7070   32.1800 C   0  0  0  0  0  0  0  0  0  0  0  0
   36.8710   26.4020   32.1760 C   0  0  1  0  0  0  0  0  0  0  0  0
   39.4900   27.5630   30.6380 H   0  0  0  0  0  0  0  0  0  0  0  0
   38.5240   26.3600   29.8620 H   0  0  0  0  0  0  0  0  0  0  0  0
   38.0830   29.2370   30.1290 H   0  0  0  0  0  0  0  0  0  0  0  0
   37.2910   28.0800   29.0960 H   0  0  0  0  0  0  0  0  0  0  0  0
   36.0900   29.4820   31.1390 H   0  0  0  0  0  0  0  0  0  0  0  0
   35.3230   28.2790   30.1750 H   0  0  0  0  0  0  0  0  0  0  0  0
   34.9940   27.4770   32.3350 H   0  0  0  0  0  0  0  0  0  0  0  0
   36.4740   28.2960   33.0160 H   0  0  0  0  0  0  0  0  0  0  0  0
   36.8050   26.0760   33.2430 H   0  0  0  0  0  0  0  0  0  0  0  0
   39.3050   26.4820   32.9250 C   0  0  0  0  0  0  0  0  0  0  0  0
   40.5490   27.1070   32.8900 C   0  0  0  0  0  0  0  0  0  0  0  0
   41.4630   26.8270   33.8790 C   0  0  0  0  0  0  0  0  0  0  0  0
   41.0920   25.9420   34.8450 N   0  0  0  0  0  0  0  0  0  0  0  0
   39.8900   25.3400   34.8720 C   0  0  0  0  0  0  0  0  0  0  0  0
   39.0400   25.6400   33.9010 N   0  0  0  0  0  0  0  0  0  0  0  0
   40.7200   27.7900   32.0710 H   0  0  0  0  0  0  0  0  0  0  0  0
   42.4320   27.3090   33.8580 H   0  0  0  0  0  0  0  0  0  0  0  0
   39.5570   24.4130   35.9210 N   0  0  0  0  0  0  0  0  0  0  0  0
   40.5500   23.4330   36.2740 C   0  0  0  0  0  3  0  0  0  0  0  0
   40.7270   22.7160   35.4300 H   0  0  0  0  0  0  0  0  0  0  0  0
   40.2210   22.6240   37.4770 C   0  0  0  0  0  3  0  0  0  0  0  0
   40.6530   21.6030   37.4630 H   0  0  0  0  0  0  0  0  0  0  0  0
   38.8110   22.5330   37.7850 N   0  0  0  0  0  0  0  0  0  0  0  0
   38.2940   21.9540   37.0810 H   0  0  0  0  0  0  0  0  0  0  0  0
   38.1720   23.8150   37.8570 C   0  0  0  0  0  2  0  0  0  0  0  0
   38.2330   24.5400   36.5480 C   0  0  0  0  0  2  0  0  0  0  0  0
   36.2200   25.4550   31.2230 C   0  0  0  0  0  0  0  0  0  0  0  0
   35.6600   24.4360   32.0100 F   0  0  0  0  0  0  0  0  0  0  0  0
   37.1710   24.8010   30.4800 F   0  0  0  0  0  0  0  0  0  0  0  0
   35.2060   25.9580   30.4790 F   0  0  0  0  0  0  0  0  0  0  0  0
  1  6  1  0  0  0  0
  1 16  1  0  0  0  0
  2  1  1  0  0  0  0
  3  2  1  0  0  0  0
  3  4  1  0  0  0  0
  4 11  1  0  0  0  0
  4  5  1  0  0  0  0
  5 13  1  0  0  0  0
  5 14  1  0  0  0  0
  6  5  1  0  0  0  0
  6 15  1  1  0  0  0
  7  2  1  0  0  0  0
  8  2  1  0  0  0  0
  9  3  1  0  0  0  0
 10  3  1  0  0  0  0
 12  4  1  0  0  0  0
 16 21  1  0  0  0  0
 17 16  2  0  0  0  0
 17 18  1  0  0  0  0
 18 19  2  0  0  0  0
 19 20  1  0  0  0  0
 20 24  1  0  0  0  0
 21 20  2  0  0  0  0
 22 17  1  0  0  0  0
 23 18  1  0  0  0  0
 24 25  1  0  0  0  0
 24 32  1  0  0  0  0
 25 27  1  0  0  0  0
 26 25  1  0  0  0  0
 27 29  1  0  0  0  0
 28 27  1  0  0  0  0
 29 31  1  0  0  0  0
 30 29  1  0  0  0  0
 32 31  1  0  0  0  0
 33 34  1  0  0  0  0
 33  6  1  0  0  0  0
 35 33  1  0  0  0  0
 36 33  1  0  0  0  0
M  END
>  <minimizedAffinity>
-5.55553865

$$$$

 OpenBabel03262522003D

 36 38  0  0  1  0  0  0  0  0999 V2000
   38.0360   25.3350   33.8000 N   0  0  0  0  0  0  0  0  0  0  0  0
   38.5290   24.6720   34.9590 C   0  0  0  0  0  0  0  0  0  0  0  0
   38.4330   25.3780   36.2490 C   0  0  0  0  0  0  0  0  0  0  0  0
   38.3590   26.8610   36.2430 C   0  0  0  0  0  0  0  0  0  0  0  0
   37.9710   27.4830   34.9270 C   0  0  0  0  0  0  0  0  0  0  0  0
   38.5560   26.6620   33.7720 C   0  0  1  0  0  0  0  0  0  0  0  0
   37.9070   23.7300   35.0170 H   0  0  0  0  0  0  0  0  0  0  0  0
   39.5530   24.2120   34.8160 H   0  0  0  0  0  0  0  0  0  0  0  0
   37.6320   24.9180   36.9020 H   0  0  0  0  0  0  0  0  0  0  0  0
   39.3590   25.1400   36.8570 H   0  0  0  0  0  0  0  0  0  0  0  0
   37.4880   27.1600   36.9010 H   0  0  0  0  0  0  0  0  0  0  0  0
   39.1910   27.3850   36.7730 H   0  0  0  0  0  0  0  0  0  0  0  0
   38.3930   28.5100   34.8970 H   0  0  0  0  0  0  0  0  0  0  0  0
   36.8850   27.4950   34.7560 H   0  0  0  0  0  0  0  0  0  0  0  0
   38.0810   27.1350   32.8780 H   0  0  0  0  0  0  0  0  0  0  0  0
   37.1580   24.7560   32.8220 C   0  0  0  0  0  0  0  0  0  0  0  0
   36.4220   25.4710   31.8810 C   0  0  0  0  0  0  0  0  0  0  0  0
   35.6190   24.7840   31.0000 C   0  0  0  0  0  0  0  0  0  0  0  0
   35.5920   23.4270   31.1050 N   0  0  0  0  0  0  0  0  0  0  0  0
   36.3040   22.7410   32.0170 C   0  0  0  0  0  0  0  0  0  0  0  0
   37.0640   23.4440   32.8440 N   0  0  0  0  0  0  0  0  0  0  0  0
   36.5320   26.5450   31.9010 H   0  0  0  0  0  0  0  0  0  0  0  0
   35.0440   25.3330   30.2670 H   0  0  0  0  0  0  0  0  0  0  0  0
   36.2320   21.3050   32.0760 N   0  0  0  0  0  0  0  0  0  0  0  0
   34.9250   20.7070   31.9960 C   0  0  0  0  0  3  0  0  0  0  0  0
   34.3060   20.9700   32.8920 H   0  0  0  0  0  0  0  0  0  0  0  0
   34.9300   19.2250   31.8830 C   0  0  0  0  0  3  0  0  0  0  0  0
   34.0350   18.7390   32.3210 H   0  0  0  0  0  0  0  0  0  0  0  0
   36.1160   18.5760   32.3970 N   0  0  0  0  0  0  0  0  0  0  0  0
   36.1720   18.6380   33.4420 H   0  0  0  0  0  0  0  0  0  0  0  0
   37.3280   19.1200   31.8570 C   0  0  0  0  0  2  0  0  0  0  0  0
   37.4950   20.5660   32.2140 C   0  0  0  0  0  2  0  0  0  0  0  0
   40.0410   26.8040   33.8030 C   0  0  0  0  0  0  0  0  0  0  0  0
   40.5590   25.5080   33.6510 F   0  0  0  0  0  0  0  0  0  0  0  0
   40.4570   27.1700   35.0600 F   0  0  0  0  0  0  0  0  0  0  0  0
   40.5920   27.5500   32.8150 F   0  0  0  0  0  0  0  0  0  0  0  0
  1  2  1  0  0  0  0
  2  7  1  0  0  0  0
  2  3  1  0  0  0  0
  3 10  1  0  0  0  0
  3  9  1  0  0  0  0
  4  3  1  0  0  0  0
  4 12  1  0  0  0  0
  4 11  1  0  0  0  0
  5  4  1  0  0  0  0
  6 15  1  6  0  0  0
  6  1  1  0  0  0  0
  6 33  1  0  0  0  0
  6  5  1  0  0  0  0
  8  2  1  0  0  0  0
 13  5  1  0  0  0  0
 14  5  1  0  0  0  0
 16 21  1  0  0  0  0
 16  1  1  0  0  0  0
 17 22  1  0  0  0  0
 17 16  2  0  0  0  0
 18 19  2  0  0  0  0
 18 17  1  0  0  0  0
 19 20  1  0  0  0  0
 20 24  1  0  0  0  0
 20 21  2  0  0  0  0
 23 18  1  0  0  0  0
 24 32  1  0  0  0  0
 25 24  1  0  0  0  0
 25 26  1  0  0  0  0
 27 25  1  0  0  0  0
 27 28  1  0  0  0  0
 27 29  1  0  0  0  0
 29 30  1  0  0  0  0
 31 32  1  0  0  0  0
 31 29  1  0  0  0  0
 33 35  1  0  0  0  0
 34 33  1  0  0  0  0
 36 33  1  0  0  0  0
M  END
>  <minimizedAffinity>
-5.53225994

$$$$

 OpenBabel03262522003D

 36 38  0  0  1  0  0  0  0  0999 V2000
   38.8100   24.0370   34.9560 N   0  0  0  0  0  0  0  0  0  0  0  0
   40.0430   24.6990   35.2140 C   0  0  0  0  0  0  0  0  0  0  0  0
   41.2020   23.8720   35.5950 C   0  0  0  0  0  0  0  0  0  0  0  0
   40.9550   22.5430   36.2090 C   0  0  0  0  0  0  0  0  0  0  0  0
   39.5690   21.9860   36.0080 C   0  0  0  0  0  0  0  0  0  0  0  0
   38.5450   23.1260   36.0200 C   0  0  1  0  0  0  0  0  0  0  0  0
   40.2790   25.2220   34.2400 H   0  0  0  0  0  0  0  0  0  0  0  0
   39.9410   25.6010   35.8910 H   0  0  0  0  0  0  0  0  0  0  0  0
   41.9510   23.8140   34.7490 H   0  0  0  0  0  0  0  0  0  0  0  0
   41.8060   24.4370   36.3690 H   0  0  0  0  0  0  0  0  0  0  0  0
   41.5860   21.7880   35.6510 H   0  0  0  0  0  0  0  0  0  0  0  0
   41.3590   22.4080   37.2410 H   0  0  0  0  0  0  0  0  0  0  0  0
   39.3550   21.2920   36.8480 H   0  0  0  0  0  0  0  0  0  0  0  0
   39.4390   21.4870   35.0360 H   0  0  0  0  0  0  0  0  0  0  0  0
   37.6030   22.6050   35.7200 H   0  0  0  0  0  0  0  0  0  0  0  0
   37.9740   24.2560   33.8090 C   0  0  0  0  0  0  0  0  0  0  0  0
   37.4520   23.2550   32.9940 C   0  0  0  0  0  0  0  0  0  0  0  0
   36.6620   23.6100   31.9250 C   0  0  0  0  0  0  0  0  0  0  0  0
   36.4370   24.9380   31.7260 N   0  0  0  0  0  0  0  0  0  0  0  0
   36.9450   25.9000   32.5160 C   0  0  0  0  0  0  0  0  0  0  0  0
   37.6990   25.5130   33.5340 N   0  0  0  0  0  0  0  0  0  0  0  0
   37.7050   22.2390   33.2600 H   0  0  0  0  0  0  0  0  0  0  0  0
   36.2540   22.8380   31.2870 H   0  0  0  0  0  0  0  0  0  0  0  0
   36.6690   27.2880   32.2520 N   0  0  0  0  0  0  0  0  0  0  0  0
   36.7770   27.7330   30.8880 C   0  0  0  0  0  3  0  0  0  0  0  0
   37.8370   27.6740   30.5270 H   0  0  0  0  0  0  0  0  0  0  0  0
   36.3100   29.1250   30.6530 C   0  0  0  0  0  3  0  0  0  0  0  0
   36.8280   29.6370   29.8160 H   0  0  0  0  0  0  0  0  0  0  0  0
   36.3360   29.9830   31.8170 N   0  0  0  0  0  0  0  0  0  0  0  0
   37.3150   30.2120   32.1110 H   0  0  0  0  0  0  0  0  0  0  0  0
   35.6570   29.4140   32.9440 C   0  0  0  0  0  2  0  0  0  0  0  0
   36.3000   28.1380   33.3930 C   0  0  0  0  0  2  0  0  0  0  0  0
   38.4970   23.6970   37.3980 C   0  0  0  0  0  0  0  0  0  0  0  0
   37.3170   23.2070   37.9810 F   0  0  0  0  0  0  0  0  0  0  0  0
   38.2880   25.0530   37.3430 F   0  0  0  0  0  0  0  0  0  0  0  0
   39.5050   23.3400   38.2300 F   0  0  0  0  0  0  0  0  0  0  0  0
  1  2  1  0  0  0  0
  1  6  1  0  0  0  0
  2  3  1  0  0  0  0
  2  8  1  0  0  0  0
  3  4  1  0  0  0  0
  3 10  1  0  0  0  0
  4 12  1  0  0  0  0
  5  6  1  0  0  0  0
  5  4  1  0  0  0  0
  5 13  1  0  0  0  0
  6 15  1  6  0  0  0
  6 33  1  0  0  0  0
  7  2  1  0  0  0  0
  9  3  1  0  0  0  0
 11  4  1  0  0  0  0
 14  5  1  0  0  0  0
 16  1  1  0  0  0  0
 17 22  1  0  0  0  0
 17 16  2  0  0  0  0
 18 17  1  0  0  0  0
 19 18  2  0  0  0  0
 19 20  1  0  0  0  0
 20 21  2  0  0  0  0
 21 16  1  0  0  0  0
 23 18  1  0  0  0  0
 24 20  1  0  0  0  0
 24 32  1  0  0  0  0
 25 24  1  0  0  0  0
 26 25  1  0  0  0  0
 27 25  1  0  0  0  0
 27 29  1  0  0  0  0
 28 27  1  0  0  0  0
 29 30  1  0  0  0  0
 29 31  1  0  0  0  0
 31 32  1  0  0  0  0
 33 34  1  0  0  0  0
 33 36  1  0  0  0  0
 35 33  1  0  0  0  0
M  END
>  <minimizedAffinity>
-5.50005817

$$$$

 OpenBabel03262522003D

 36 38  0  0  1  0  0  0  0  0999 V2000
   35.0730   30.4230   33.8650 N   0  0  0  0  0  0  0  0  0  0  0  0
   34.1590   29.8460   34.7900 C   0  0  0  0  0  0  0  0  0  0  0  0
   32.9960   30.6530   35.2020 C   0  0  0  0  0  0  0  0  0  0  0  0
   33.0860   32.1310   35.1040 C   0  0  0  0  0  0  0  0  0  0  0  0
   34.1840   32.6530   34.2130 C   0  0  0  0  0  0  0  0  0  0  0  0
   35.4080   31.7360   34.3060 C   0  0  1  0  0  0  0  0  0  0  0  0
   33.7850   28.9200   34.2610 H   0  0  0  0  0  0  0  0  0  0  0  0
   34.6610   29.3620   35.6820 H   0  0  0  0  0  0  0  0  0  0  0  0
   32.0450   30.2560   34.7360 H   0  0  0  0  0  0  0  0  0  0  0  0
   32.7900   30.4510   36.2970 H   0  0  0  0  0  0  0  0  0  0  0  0
   32.1620   32.4930   34.5610 H   0  0  0  0  0  0  0  0  0  0  0  0
   32.9740   32.6840   36.0680 H   0  0  0  0  0  0  0  0  0  0  0  0
   34.4580   33.6690   34.5690 H   0  0  0  0  0  0  0  0  0  0  0  0
   33.9090   32.6660   33.1480 H   0  0  0  0  0  0  0  0  0  0  0  0
   36.0740   32.1440   33.5050 H   0  0  0  0  0  0  0  0  0  0  0  0
   35.5730   29.7810   32.6820 C   0  0  0  0  0  0  0  0  0  0  0  0
   35.8330   30.4180   31.4710 C   0  0  0  0  0  0  0  0  0  0  0  0
   36.3120   29.6760   30.4170 C   0  0  0  0  0  0  0  0  0  0  0  0
   36.5060   28.3450   30.6230 N   0  0  0  0  0  0  0  0  0  0  0  0
   36.2530   27.7340   31.7940 C   0  0  0  0  0  0  0  0  0  0  0  0
   35.7930   28.4870   32.7820 N   0  0  0  0  0  0  0  0  0  0  0  0
   35.6380   31.4800   31.4370 H   0  0  0  0  0  0  0  0  0  0  0  0
   36.5160   30.1650   29.4730 H   0  0  0  0  0  0  0  0  0  0  0  0
   36.4790   26.3210   31.9490 N   0  0  0  0  0  0  0  0  0  0  0  0
   36.0160   25.4600   30.8930 C   0  0  0  0  0  3  0  0  0  0  0  0
   34.8970   25.4710   30.8240 H   0  0  0  0  0  0  0  0  0  0  0  0
   36.4350   24.0400   31.0260 C   0  0  0  0  0  3  0  0  0  0  0  0
   35.7230   23.3190   30.5760 H   0  0  0  0  0  0  0  0  0  0  0  0
   36.7440   23.6170   32.3740 N   0  0  0  0  0  0  0  0  0  0  0  0
   35.8870   23.5670   32.9740 H   0  0  0  0  0  0  0  0  0  0  0  0
   37.6890   24.4770   33.0250 C   0  0  0  0  0  2  0  0  0  0  0  0
   37.1620   25.8710   33.1710 C   0  0  0  0  0  2  0  0  0  0  0  0
   35.9820   31.8600   35.6780 C   0  0  0  0  0  0  0  0  0  0  0  0
   37.0380   32.7800   35.5760 F   0  0  0  0  0  0  0  0  0  0  0  0
   36.6080   30.6920   36.0370 F   0  0  0  0  0  0  0  0  0  0  0  0
   35.1520   32.3430   36.6330 F   0  0  0  0  0  0  0  0  0  0  0  0
  1  6  1  0  0  0  0
  1  2  1  0  0  0  0
  2  3  1  0  0  0  0
  2  8  1  0  0  0  0
  3 10  1  0  0  0  0
  4  3  1  0  0  0  0
  4 12  1  0  0  0  0
  5  6  1  0  0  0  0
  5 13  1  0  0  0  0
  5  4  1  0  0  0  0
  6 15  1  6  0  0  0
  6 33  1  0  0  0  0
  7  2  1  0  0  0  0
  9  3  1  0  0  0  0
 11  4  1  0  0  0  0
 14  5  1  0  0  0  0
 16 21  1  0  0  0  0
 16  1  1  0  0  0  0
 17 16  2  0  0  0  0
 18 19  2  0  0  0  0
 18 17  1  0  0  0  0
 19 20  1  0  0  0  0
 20 24  1  0  0  0  0
 20 21  2  0  0  0  0
 22 17  1  0  0  0  0
 23 18  1  0  0  0  0
 24 32  1  0  0  0  0
 25 27  1  0  0  0  0
 25 24  1  0  0  0  0
 26 25  1  0  0  0  0
 27 29  1  0  0  0  0
 28 27  1  0  0  0  0
 29 30  1  0  0  0  0
 29 31  1  0  0  0  0
 31 32  1  0  0  0  0
 33 35  1  0  0  0  0
 33 36  1  0  0  0  0
 34 33  1  0  0  0  0
M  END
>  <minimizedAffinity>
-5.31417179

$$$$

 OpenBabel03262522003D

 36 38  0  0  1  0  0  0  0  0999 V2000
   37.6630   21.4290   32.8830 N   0  0  0  0  0  0  0  0  0  0  0  0
   38.4050   20.3500   32.3260 C   0  0  0  0  0  0  0  0  0  0  0  0
   38.1340   19.9800   30.9250 C   0  0  0  0  0  0  0  0  0  0  0  0
   36.8130   20.3240   30.3430 C   0  0  0  0  0  0  0  0  0  0  0  0
   36.0320   21.3750   31.0890 C   0  0  0  0  0  0  0  0  0  0  0  0
   36.2810   21.2350   32.5940 C   0  0  1  0  0  0  0  0  0  0  0  0
   39.4800   20.6900   32.4060 H   0  0  0  0  0  0  0  0  0  0  0  0
   38.4480   19.4360   32.9930 H   0  0  0  0  0  0  0  0  0  0  0  0
   38.9870   20.2960   30.2520 H   0  0  0  0  0  0  0  0  0  0  0  0
   38.2040   18.8530   30.8320 H   0  0  0  0  0  0  0  0  0  0  0  0
   37.0010   20.8400   29.3540 H   0  0  0  0  0  0  0  0  0  0  0  0
   36.2010   19.4560   29.9950 H   0  0  0  0  0  0  0  0  0  0  0  0
   34.9530   21.2110   30.8790 H   0  0  0  0  0  0  0  0  0  0  0  0
   36.3350   22.4010   30.8360 H   0  0  0  0  0  0  0  0  0  0  0  0
   35.7750   22.1430   33.0060 H   0  0  0  0  0  0  0  0  0  0  0  0
   38.2220   22.5290   33.6180 C   0  0  0  0  0  0  0  0  0  0  0  0
   39.2910   22.4410   34.5070 C   0  0  0  0  0  0  0  0  0  0  0  0
   39.7240   23.5800   35.1430 C   0  0  0  0  0  0  0  0  0  0  0  0
   39.0730   24.7420   34.8620 N   0  0  0  0  0  0  0  0  0  0  0  0
   38.0400   24.8210   34.0030 C   0  0  0  0  0  0  0  0  0  0  0  0
   37.6570   23.7000   33.4130 N   0  0  0  0  0  0  0  0  0  0  0  0
   39.7220   21.4600   34.6420 H   0  0  0  0  0  0  0  0  0  0  0  0
   40.5540   23.5190   35.8350 H   0  0  0  0  0  0  0  0  0  0  0  0
   37.3930   26.0810   33.7490 N   0  0  0  0  0  0  0  0  0  0  0  0
   37.0850   26.9060   34.8870 C   0  0  0  0  0  3  0  0  0  0  0  0
   36.3140   26.4200   35.5400 H   0  0  0  0  0  0  0  0  0  0  0  0
   36.5830   28.2640   34.5490 C   0  0  0  0  0  3  0  0  0  0  0  0
   35.8930   28.6880   35.3070 H   0  0  0  0  0  0  0  0  0  0  0  0
   35.9750   28.3830   33.2420 N   0  0  0  0  0  0  0  0  0  0  0  0
   35.0590   27.8770   33.1900 H   0  0  0  0  0  0  0  0  0  0  0  0
   36.8140   27.8860   32.1900 C   0  0  0  0  0  2  0  0  0  0  0  0
   37.0980   26.4240   32.3500 C   0  0  0  0  0  2  0  0  0  0  0  0
   35.6700   19.9530   33.0530 C   0  0  0  0  0  0  0  0  0  0  0  0
   34.4030   19.8890   32.4520 F   0  0  0  0  0  0  0  0  0  0  0  0
   35.3850   20.0170   34.3950 F   0  0  0  0  0  0  0  0  0  0  0  0
   36.3170   18.8190   32.6920 F   0  0  0  0  0  0  0  0  0  0  0  0
  1 16  1  0  0  0  0
  2  7  1  0  0  0  0
  2  1  1  0  0  0  0
  2  8  1  0  0  0  0
  3  2  1  0  0  0  0
  4  3  1  0  0  0  0
  4  5  1  0  0  0  0
  5  6  1  0  0  0  0
  6  1  1  0  0  0  0
  6 15  1  1  0  0  0
  6 33  1  0  0  0  0
  9  3  1  0  0  0  0
 10  3  1  0  0  0  0
 11  4  1  0  0  0  0
 12  4  1  0  0  0  0
 13  5  1  0  0  0  0
 14  5  1  0  0  0  0
 16 17  1  0  0  0  0
 17 22  1  0  0  0  0
 17 18  2  0  0  0  0
 18 23  1  0  0  0  0
 19 18  1  0  0  0  0
 20 19  2  0  0  0  0
 21 16  2  0  0  0  0
 21 20  1  0  0  0  0
 24 20  1  0  0  0  0
 24 25  1  0  0  0  0
 25 26  1  0  0  0  0
 27 25  1  0  0  0  0
 27 28  1  0  0  0  0
 29 27  1  0  0  0  0
 30 29  1  0  0  0  0
 31 32  1  0  0  0  0
 31 29  1  0  0  0  0
 32 24  1  0  0  0  0
 33 35  1  0  0  0  0
 34 33  1  0  0  0  0
 36 33  1  0  0  0  0
M  END
>  <minimizedAffinity>
-5.2555356

$$$$

 OpenBabel03262522003D

 36 38  0  0  1  0  0  0  0  0999 V2000
   38.0050   24.2860   33.8980 N   0  0  0  0  0  0  0  0  0  0  0  0
   38.3130   22.9090   34.0880 C   0  0  0  0  0  0  0  0  0  0  0  0
   38.1880   22.3580   35.4480 C   0  0  0  0  0  0  0  0  0  0  0  0
   38.2890   23.2860   36.6030 C   0  0  0  0  0  0  0  0  0  0  0  0
   38.0940   24.7440   36.2780 C   0  0  0  0  0  0  0  0  0  0  0  0
   38.6780   25.0500   34.8950 C   0  0  1  0  0  0  0  0  0  0  0  0
   37.5820   22.3720   33.4130 H   0  0  0  0  0  0  0  0  0  0  0  0
   39.2850   22.5910   33.6020 H   0  0  0  0  0  0  0  0  0  0  0  0
   37.2840   21.6810   35.5280 H   0  0  0  0  0  0  0  0  0  0  0  0
   39.0220   21.6090   35.6090 H   0  0  0  0  0  0  0  0  0  0  0  0
   37.4050   23.0840   37.2800 H   0  0  0  0  0  0  0  0  0  0  0  0
   39.1270   23.0800   37.3120 H   0  0  0  0  0  0  0  0  0  0  0  0
   38.6340   25.3390   37.0450 H   0  0  0  0  0  0  0  0  0  0  0  0
   37.0360   25.0380   36.2200 H   0  0  0  0  0  0  0  0  0  0  0  0
   38.3420   26.1020   34.7210 H   0  0  0  0  0  0  0  0  0  0  0  0
   37.1550   24.8120   32.8660 C   0  0  0  0  0  0  0  0  0  0  0  0
   36.4750   24.0490   31.9200 C   0  0  0  0  0  0  0  0  0  0  0  0
   35.6920   24.6880   30.9870 C   0  0  0  0  0  0  0  0  0  0  0  0
   35.6290   26.0470   31.0450 N   0  0  0  0  0  0  0  0  0  0  0  0
   36.2900   26.7780   31.9610 C   0  0  0  0  0  0  0  0  0  0  0  0
   37.0310   26.1220   32.8400 N   0  0  0  0  0  0  0  0  0  0  0  0
   36.6080   22.9790   31.9810 H   0  0  0  0  0  0  0  0  0  0  0  0
   35.1610   24.1010   30.2490 H   0  0  0  0  0  0  0  0  0  0  0  0
   36.1820   28.2130   31.9690 N   0  0  0  0  0  0  0  0  0  0  0  0
   36.2870   28.8900   30.7040 C   0  0  0  0  0  3  0  0  0  0  0  0
   37.3140   28.7750   30.2690 H   0  0  0  0  0  0  0  0  0  0  0  0
   35.9910   30.3450   30.7540 C   0  0  0  0  0  3  0  0  0  0  0  0
   36.5330   30.9400   29.9920 H   0  0  0  0  0  0  0  0  0  0  0  0
   36.1760   30.9620   32.0500 N   0  0  0  0  0  0  0  0  0  0  0  0
   37.1880   31.0150   32.3160 H   0  0  0  0  0  0  0  0  0  0  0  0
   35.4790   30.2760   33.0980 C   0  0  0  0  0  2  0  0  0  0  0  0
   35.9730   28.8720   33.2670 C   0  0  0  0  0  2  0  0  0  0  0  0
   40.1610   24.9030   34.9700 C   0  0  0  0  0  0  0  0  0  0  0  0
   40.6700   26.1960   35.1750 F   0  0  0  0  0  0  0  0  0  0  0  0
   40.6650   24.5510   33.7420 F   0  0  0  0  0  0  0  0  0  0  0  0
   40.6370   24.1440   35.9860 F   0  0  0  0  0  0  0  0  0  0  0  0
  1  2  1  0  0  0  0
  1  6  1  0  0  0  0
  2  3  1  0  0  0  0
  3  9  1  0  0  0  0
  3 10  1  0  0  0  0
  3  4  1  0  0  0  0
  4 11  1  0  0  0  0
  4 12  1  0  0  0  0
  5  4  1  0  0  0  0
  5 13  1  0  0  0  0
  6 15  1  6  0  0  0
  6 33  1  0  0  0  0
  6  5  1  0  0  0  0
  7  2  1  0  0  0  0
  8  2  1  0  0  0  0
 14  5  1  0  0  0  0
 16  1  1  0  0  0  0
 17 22  1  0  0  0  0
 17 16  2  0  0  0  0
 18 19  2  0  0  0  0
 18 17  1  0  0  0  0
 19 20  1  0  0  0  0
 20 24  1  0  0  0  0
 20 21  2  0  0  0  0
 21 16  1  0  0  0  0
 23 18  1  0  0  0  0
 24 32  1  0  0  0  0
 25 27  1  0  0  0  0
 25 24  1  0  0  0  0
 26 25  1  0  0  0  0
 27 29  1  0  0  0  0
 28 27  1  0  0  0  0
 29 30  1  0  0  0  0
 29 31  1  0  0  0  0
 31 32  1  0  0  0  0
 33 34  1  0  0  0  0
 33 36  1  0  0  0  0
 35 33  1  0  0  0  0
M  END
>  <minimizedAffinity>
-5.24699974

$$$$

 OpenBabel03262522003D

 36 38  0  0  1  0  0  0  0  0999 V2000
   38.3920   25.2240   34.3360 N   0  0  0  0  0  0  0  0  0  0  0  0
   39.5890   25.9200   34.6630 C   0  0  0  0  0  0  0  0  0  0  0  0
   40.8200   25.1290   34.8350 C   0  0  0  0  0  0  0  0  0  0  0  0
   40.6980   23.6950   35.1990 C   0  0  0  0  0  0  0  0  0  0  0  0
   39.3450   23.0800   34.9530 C   0  0  0  0  0  0  0  0  0  0  0  0
   38.2480   24.1150   35.2200 C   0  0  1  0  0  0  0  0  0  0  0  0
   39.7360   26.6310   33.7960 H   0  0  0  0  0  0  0  0  0  0  0  0
   39.4620   26.6720   35.5000 H   0  0  0  0  0  0  0  0  0  0  0  0
   41.5250   25.2860   33.9640 H   0  0  0  0  0  0  0  0  0  0  0  0
   41.4260   25.5870   35.6760 H   0  0  0  0  0  0  0  0  0  0  0  0
   41.3480   23.1070   34.4840 H   0  0  0  0  0  0  0  0  0  0  0  0
   41.1660   23.4040   36.1700 H   0  0  0  0  0  0  0  0  0  0  0  0
   39.2250   22.2280   35.6550 H   0  0  0  0  0  0  0  0  0  0  0  0
   39.1970   22.7600   33.9110 H   0  0  0  0  0  0  0  0  0  0  0  0
   37.3280   23.5870   34.8660 H   0  0  0  0  0  0  0  0  0  0  0  0
   37.4820   25.5850   33.2850 C   0  0  0  0  0  0  0  0  0  0  0  0
   36.9370   24.7020   32.3560 C   0  0  0  0  0  0  0  0  0  0  0  0
   36.0750   25.1870   31.4010 C   0  0  0  0  0  0  0  0  0  0  0  0
   35.8040   26.5210   31.4210 N   0  0  0  0  0  0  0  0  0  0  0  0
   36.3330   27.3700   32.3190 C   0  0  0  0  0  0  0  0  0  0  0  0
   37.1580   26.8590   33.2220 N   0  0  0  0  0  0  0  0  0  0  0  0
   37.2320   23.6670   32.4480 H   0  0  0  0  0  0  0  0  0  0  0  0
   35.6490   24.5070   30.6760 H   0  0  0  0  0  0  0  0  0  0  0  0
   36.0060   28.7710   32.2870 N   0  0  0  0  0  0  0  0  0  0  0  0
   36.0190   29.4220   31.0040 C   0  0  0  0  0  3  0  0  0  0  0  0
   37.0560   29.4550   30.5800 H   0  0  0  0  0  0  0  0  0  0  0  0
   35.5020   30.8150   31.0130 C   0  0  0  0  0  3  0  0  0  0  0  0
   35.9540   31.4660   30.2370 H   0  0  0  0  0  0  0  0  0  0  0  0
   35.5760   31.4870   32.2910 N   0  0  0  0  0  0  0  0  0  0  0  0
   36.5650   31.7030   32.5620 H   0  0  0  0  0  0  0  0  0  0  0  0
   34.9820   30.7300   33.3540 C   0  0  0  0  0  2  0  0  0  0  0  0
   35.6850   29.4240   33.5650 C   0  0  0  0  0  2  0  0  0  0  0  0
   38.2350   24.4170   36.6820 C   0  0  0  0  0  0  0  0  0  0  0  0
   36.9900   23.9770   37.1590 F   0  0  0  0  0  0  0  0  0  0  0  0
   38.1960   25.7740   36.8850 F   0  0  0  0  0  0  0  0  0  0  0  0
   39.1710   23.7870   37.4310 F   0  0  0  0  0  0  0  0  0  0  0  0
  1  2  1  0  0  0  0
  1  6  1  0  0  0  0
  2  3  1  0  0  0  0
  2  8  1  0  0  0  0
  3  4  1  0  0  0  0
  3 10  1  0  0  0  0
  4 12  1  0  0  0  0
  5  4  1  0  0  0  0
  5  6  1  0  0  0  0
  5 13  1  0  0  0  0
  6 15  1  6  0  0  0
  6 33  1  0  0  0  0
  7  2  1  0  0  0  0
  9  3  1  0  0  0  0
 11  4  1  0  0  0  0
 14  5  1  0  0  0  0
 16  1  1  0  0  0  0
 17 22  1  0  0  0  0
 17 16  2  0  0  0  0
 18 19  2  0  0  0  0
 18 17  1  0  0  0  0
 19 20  1  0  0  0  0
 20 21  2  0  0  0  0
 21 16  1  0  0  0  0
 23 18  1  0  0  0  0
 24 20  1  0  0  0  0
 24 32  1  0  0  0  0
 25 27  1  0  0  0  0
 25 24  1  0  0  0  0
 26 25  1  0  0  0  0
 27 29  1  0  0  0  0
 28 27  1  0  0  0  0
 29 30  1  0  0  0  0
 29 31  1  0  0  0  0
 31 32  1  0  0  0  0
 33 35  1  0  0  0  0
 33 34  1  0  0  0  0
 33 36  1  0  0  0  0
M  END
>  <minimizedAffinity>
-5.23242569

$$$$

 OpenBabel03262522003D

 36 38  0  0  1  0  0  0  0  0999 V2000
   36.6500   21.5870   31.8930 N   0  0  0  0  0  0  0  0  0  0  0  0
   37.6030   20.8090   32.6080 C   0  0  0  0  0  0  0  0  0  0  0  0
   38.2200   19.6660   31.9120 C   0  0  0  0  0  0  0  0  0  0  0  0
   37.4910   19.0480   30.7760 C   0  0  0  0  0  0  0  0  0  0  0  0
   36.3960   19.8920   30.1760 C   0  0  0  0  0  0  0  0  0  0  0  0
   35.7110   20.7110   31.2750 C   0  0  1  0  0  0  0  0  0  0  0  0
   38.4140   21.5500   32.8740 H   0  0  0  0  0  0  0  0  0  0  0  0
   37.2630   20.5220   33.6500 H   0  0  0  0  0  0  0  0  0  0  0  0
   39.2990   19.8880   31.6510 H   0  0  0  0  0  0  0  0  0  0  0  0
   38.3570   18.8240   32.6570 H   0  0  0  0  0  0  0  0  0  0  0  0
   38.2150   18.9670   29.9110 H   0  0  0  0  0  0  0  0  0  0  0  0
   37.2230   17.9720   30.9060 H   0  0  0  0  0  0  0  0  0  0  0  0
   35.6540   19.2090   29.7110 H   0  0  0  0  0  0  0  0  0  0  0  0
   36.7660   20.6300   29.4500 H   0  0  0  0  0  0  0  0  0  0  0  0
   35.0390   21.3840   30.6880 H   0  0  0  0  0  0  0  0  0  0  0  0
   36.6420   23.0210   31.8130 C   0  0  0  0  0  0  0  0  0  0  0  0
   35.6640   23.7840   31.1780 C   0  0  0  0  0  0  0  0  0  0  0  0
   35.7830   25.1540   31.1790 C   0  0  0  0  0  0  0  0  0  0  0  0
   36.8650   25.6890   31.8080 N   0  0  0  0  0  0  0  0  0  0  0  0
   37.8070   24.9480   32.4170 C   0  0  0  0  0  0  0  0  0  0  0  0
   37.6520   23.6330   32.3930 N   0  0  0  0  0  0  0  0  0  0  0  0
   34.8540   23.2370   30.7170 H   0  0  0  0  0  0  0  0  0  0  0  0
   35.0270   25.7520   30.6880 H   0  0  0  0  0  0  0  0  0  0  0  0
   38.9290   25.5750   33.0650 N   0  0  0  0  0  0  0  0  0  0  0  0
   39.5930   26.6350   32.3540 C   0  0  0  0  0  3  0  0  0  0  0  0
   40.0950   26.2470   31.4290 H   0  0  0  0  0  0  0  0  0  0  0  0
   40.6230   27.3580   33.1430 C   0  0  0  0  0  3  0  0  0  0  0  0
   41.4490   27.7740   32.5300 H   0  0  0  0  0  0  0  0  0  0  0  0
   41.1880   26.6090   34.2440 N   0  0  0  0  0  0  0  0  0  0  0  0
   41.7940   25.8210   33.9100 H   0  0  0  0  0  0  0  0  0  0  0  0
   40.1900   26.0590   35.1140 C   0  0  0  0  0  2  0  0  0  0  0  0
   39.3060   25.0840   34.3990 C   0  0  0  0  0  2  0  0  0  0  0  0
   34.9760   19.7700   32.1700 C   0  0  0  0  0  0  0  0  0  0  0  0
   33.6110   20.0040   31.9440 F   0  0  0  0  0  0  0  0  0  0  0  0
   35.1510   20.1320   33.4840 F   0  0  0  0  0  0  0  0  0  0  0  0
   35.1760   18.4500   31.9440 F   0  0  0  0  0  0  0  0  0  0  0  0
  1  2  1  0  0  0  0
  2  7  1  0  0  0  0
  2  8  1  0  0  0  0
  3  2  1  0  0  0  0
  3 10  1  0  0  0  0
  4 12  1  0  0  0  0
  4  3  1  0  0  0  0
  5  4  1  0  0  0  0
  5  6  1  0  0  0  0
  6 15  1  6  0  0  0
  6  1  1  0  0  0  0
  6 33  1  0  0  0  0
  9  3  1  0  0  0  0
 11  4  1  0  0  0  0
 13  5  1  0  0  0  0
 14  5  1  0  0  0  0
 16  1  1  0  0  0  0
 16 21  1  0  0  0  0
 17 18  1  0  0  0  0
 17 16  2  0  0  0  0
 18 19  2  0  0  0  0
 19 20  1  0  0  0  0
 20 24  1  0  0  0  0
 21 20  2  0  0  0  0
 22 17  1  0  0  0  0
 23 18  1  0  0  0  0
 24 32  1  0  0  0  0
 25 24  1  0  0  0  0
 25 27  1  0  0  0  0
 26 25  1  0  0  0  0
 27 29  1  0  0  0  0
 28 27  1  0  0  0  0
 29 31  1  0  0  0  0
 30 29  1  0  0  0  0
 32 31  1  0  0  0  0
 33 35  1  0  0  0  0
 34 33  1  0  0  0  0
 36 33  1  0  0  0  0
M  END
>  <minimizedAffinity>
-5.21697044

$$$$
