
 OpenBabel03262523423D

 28 30  0  0  0  0  0  0  0  0999 V2000
   38.0900   33.3270   49.6450 Cl  0  0  0  0  0  0  0  0  0  0  0  0
   38.4740   32.4980   48.1690 C   0  0  0  0  0  0  0  0  0  0  0  0
   38.0310   31.2020   47.9490 C   0  0  0  0  0  0  0  0  0  0  0  0
   38.3720   30.6060   46.7550 C   0  0  0  0  0  0  0  0  0  0  0  0
   39.1300   31.2620   45.7950 C   0  0  0  0  0  0  0  0  0  0  0  0
   39.5510   32.5630   46.0630 C   0  0  0  0  0  0  0  0  0  0  0  0
   40.4990   33.3160   44.8010 Cl  0  0  0  0  0  0  0  0  0  0  0  0
   39.2320   33.1900   47.2400 C   0  0  0  0  0  0  0  0  0  0  0  0
   38.0130   29.5950   46.6140 H   0  0  0  0  0  0  0  0  0  0  0  0
   39.5920   34.1900   47.3690 H   0  0  0  0  0  0  0  0  0  0  0  0
   37.0490   29.3660   51.1120 C   0  0  0  0  0  0  0  0  0  0  0  0
   37.8230   29.9600   50.1030 C   0  0  0  0  0  0  0  0  0  0  0  0
   37.2430   30.5830   49.0030 C   0  0  0  0  0  0  0  0  0  0  0  0
   35.8760   30.5820   48.9660 N   0  0  0  0  0  0  0  0  0  0  0  0
   35.1400   30.0100   49.9370 C   0  0  0  0  0  0  0  0  0  0  0  0
   35.7100   29.4130   50.9910 N   0  0  0  0  0  0  0  0  0  0  0  0
   37.6300   28.9170   51.9100 H   0  0  0  0  0  0  0  0  0  0  0  0
   38.9120   29.9830   50.0930 H   0  0  0  0  0  0  0  0  0  0  0  0
   34.0660   29.9820   49.9560 H   0  0  0  0  0  0  0  0  0  0  0  0
   39.4030   30.5180   44.6130 N   0  0  0  0  0  0  0  0  0  0  0  0
   38.4240   29.6790   43.9900 C   0  0  0  0  0  0  0  0  0  0  0  0
   37.6900   29.2700   44.7170 H   0  0  0  0  0  0  0  0  0  0  0  0
   39.1280   28.4970   43.3870 C   0  0  0  0  0  0  0  0  0  0  0  0
   39.5360   27.8610   44.2210 H   0  0  0  0  0  0  0  0  0  0  0  0
   40.1970   28.8000   42.5020 N   0  0  0  0  0  0  0  0  0  0  0  0
   40.0080   28.6160   41.5020 H   0  0  0  0  0  0  0  0  0  0  0  0
   40.8620   30.0440   42.6950 C   0  0  0  0  0  0  0  0  0  0  0  0
   40.7150   30.6390   44.0550 C   0  0  0  0  0  0  0  0  0  0  0  0
  2  1  1  0  0  0  0
  3  2  1  0  0  0  0
  3 13  1  0  0  0  0
  4  3  2  0  0  0  0
  5  6  2  0  0  0  0
  5  4  1  0  0  0  0
  6  8  1  0  0  0  0
  7  6  1  0  0  0  0
  8 10  1  0  0  0  0
  8  2  2  0  0  0  0
  9  4  1  0  0  0  0
 11 17  1  0  0  0  0
 12 11  2  0  0  0  0
 13 12  1  0  0  0  0
 14 13  2  0  0  0  0
 14 15  1  0  0  0  0
 15 19  1  0  0  0  0
 15 16  2  0  0  0  0
 16 11  1  0  0  0  0
 18 12  1  0  0  0  0
 20  5  1  0  0  0  0
 21 20  1  0  0  0  0
 21 22  1  0  0  0  0
 23 21  1  0  0  0  0
 23 24  1  0  0  0  0
 25 27  1  0  0  0  0
 25 23  1  0  0  0  0
 26 25  1  0  0  0  0
 27 28  1  0  0  0  0
 28 20  1  0  0  0  0
M  END
>  <minimizedAffinity>
-6.3993907

>  <minimizedRMSD>
0.260990739

$$$$
