
 OpenBabel03272510323D

 28 30  0  0  0  0  0  0  0  0999 V2000
   35.4910   30.0750   48.1640 C   0  0  0  0  0  0  0  0  0  0  0  0
   34.7470   30.2170   47.0160 C   0  0  0  0  0  0  0  0  0  0  0  0
   33.6240   29.4450   46.7760 C   0  0  0  0  0  0  0  0  0  0  0  0
   33.2680   28.5190   47.7330 C   0  0  0  0  0  0  0  0  0  0  0  0
   34.0000   28.3580   48.8980 C   0  0  0  0  0  0  0  0  0  0  0  0
   35.1300   29.1440   49.1230 C   0  0  0  0  0  0  0  0  0  0  0  0
   34.9510   30.9230   46.2010 H   0  0  0  0  0  0  0  0  0  0  0  0
   33.0190   29.5320   45.8830 H   0  0  0  0  0  0  0  0  0  0  0  0
   32.4250   27.8660   47.6630 H   0  0  0  0  0  0  0  0  0  0  0  0
   33.7860   27.6570   49.6900 H   0  0  0  0  0  0  0  0  0  0  0  0
   37.5960   32.8030   49.3400 C   0  0  0  0  0  0  0  0  0  0  0  0
   38.7980   32.6440   48.6480 C   0  0  0  0  0  0  0  0  0  0  0  0
   38.8760   31.5550   47.7460 C   0  0  0  0  0  0  0  0  0  0  0  0
   37.7890   30.7650   47.6290 N   0  0  0  0  0  0  0  0  0  0  0  0
   36.6480   30.9400   48.3060 C   0  0  0  0  0  0  0  0  0  0  0  0
   36.5470   31.9780   49.1790 N   0  0  0  0  0  0  0  0  0  0  0  0
   37.5310   33.6340   50.0310 H   0  0  0  0  0  0  0  0  0  0  0  0
   39.5990   33.3420   48.8250 H   0  0  0  0  0  0  0  0  0  0  0  0
   39.7960   31.4200   47.2060 H   0  0  0  0  0  0  0  0  0  0  0  0
   35.9060   29.0070   50.3080 N   0  0  0  0  0  0  0  0  0  0  0  0
   35.8530   29.6870   51.5830 C   0  0  0  0  0  3  0  0  0  0  0  0
   35.3390   29.1060   52.3610 H   0  0  0  0  0  0  0  0  0  0  0  0
   37.2280   30.0040   52.1220 C   0  0  0  0  0  3  0  0  0  0  0  0
   37.2910   30.9860   52.6080 H   0  0  0  0  0  0  0  0  0  0  0  0
   38.1470   30.0040   50.9830 N   0  0  0  0  0  0  0  0  0  0  0  0
   39.0640   30.3940   51.2400 H   0  0  0  0  0  0  0  0  0  0  0  0
   38.3140   28.5770   50.6600 C   0  0  0  0  0  2  0  0  0  0  0  0
   36.9730   28.0010   50.2840 C   0  0  0  0  0  2  0  0  0  0  0  0
  1 15  1  0  0  0  0
  1  6  1  0  0  0  0
  2  1  2  0  0  0  0
  3  2  1  0  0  0  0
  3  4  2  0  0  0  0
  4  5  1  0  0  0  0
  5  6  2  0  0  0  0
  5 10  1  0  0  0  0
  6 20  1  0  0  0  0
  7  2  1  0  0  0  0
  8  3  1  0  0  0  0
  9  4  1  0  0  0  0
 11 17  1  0  0  0  0
 12 18  1  0  0  0  0
 12 11  2  0  0  0  0
 13 12  1  0  0  0  0
 14 13  2  0  0  0  0
 14 15  1  0  0  0  0
 15 16  2  0  0  0  0
 16 11  1  0  0  0  0
 19 13  1  0  0  0  0
 20 21  1  0  0  0  0
 21 23  1  0  0  0  0
 21 22  1  0  0  0  0
 23 24  1  0  0  0  0
 25 26  1  0  0  0  0
 25 23  1  0  0  0  0
 27 25  1  0  0  0  0
 28 20  1  0  0  0  0
 28 27  1  0  0  0  0
M  END
>  <minimizedAffinity>
-2.84294415

>  <minimizedRMSD>
1.307392

$$$$
