
 OpenBabel03262522053D

 40 43  0  0  1  0  0  0  0  0999 V2000
   34.5240   29.1000   48.5960 C   0  0  2  0  0  0  0  0  0  0  0  0
   35.1620   28.3460   49.7110 C   0  0  0  0  0  0  0  0  0  0  0  0
   36.2810   29.1250   50.2390 N   0  0  0  0  0  0  0  0  0  0  0  0
   37.2140   29.8510   51.0580 C   0  0  0  0  0  0  0  0  0  0  0  0
   37.4120   30.0080   52.2750 O   0  0  0  0  0  0  0  0  0  0  0  0
   37.9390   30.4090   49.9530 C   0  0  1  0  0  0  0  0  0  0  0  0
   37.1320   29.4150   49.1260 C   0  0  2  0  0  0  0  0  0  0  0  0
   35.9210   30.1420   47.9950 S   0  0  0  0  0  0  0  0  0  0  0  0
   35.5130   27.3660   49.3790 H   0  0  0  0  0  0  0  0  0  0  0  0
   34.4370   28.2200   50.5580 H   0  0  0  0  0  0  0  0  0  0  0  0
   39.0000   30.1400   49.8310 H   0  0  0  0  0  0  0  0  0  0  0  0
   37.7030   28.5670   48.7140 H   0  0  0  0  0  0  0  0  0  0  0  0
   33.3060   29.8880   48.9290 C   0  0  0  0  0  0  0  0  0  0  0  0
   33.1300   30.5950   48.1120 H   0  0  0  0  0  0  0  0  0  0  0  0
   32.4640   29.1840   48.9530 H   0  0  0  0  0  0  0  0  0  0  0  0
   33.4290   30.3460   49.9150 H   0  0  0  0  0  0  0  0  0  0  0  0
   34.2650   28.1170   47.4350 C   0  0  0  0  0  0  0  0  0  0  0  0
   35.0450   27.3190   47.4970 H   0  0  0  0  0  0  0  0  0  0  0  0
   33.2550   27.7180   47.6050 H   0  0  0  0  0  0  0  0  0  0  0  0
   34.3330   28.8190   46.2350 O   0  0  0  0  0  0  0  0  0  0  0  0
   35.0600   28.5030   45.6460 H   0  0  0  0  0  0  0  0  0  0  0  0
   37.7100   31.8370   49.6460 C   0  0  0  0  0  0  0  0  0  0  0  0
   36.6460   32.2960   50.1750 O   0  0  0  0  0  0  0  0  0  0  0  0
   38.5850   32.6350   48.8440 C   0  0  0  0  0  0  0  0  0  0  0  0
   39.0670   33.8100   49.3750 C   0  0  0  0  0  0  0  0  0  0  0  0
   39.9320   34.5960   48.5740 C   0  0  0  0  0  0  0  0  0  0  0  0
   40.2350   34.1340   47.3160 N   0  0  0  0  0  0  0  0  0  0  0  0
   39.7520   32.9970   46.8380 C   0  0  0  0  0  0  0  0  0  0  0  0
   38.9260   32.2400   47.5950 N   0  0  0  0  0  0  0  0  0  0  0  0
   38.8400   34.1790   50.3490 H   0  0  0  0  0  0  0  0  0  0  0  0
   40.3200   35.5270   48.9830 H   0  0  0  0  0  0  0  0  0  0  0  0
   40.1330   32.6150   45.5220 N   0  0  0  0  0  0  0  0  0  0  0  0
   39.7930   33.5060   44.4330 C   0  0  0  0  0  0  0  0  0  0  0  0
   40.7300   34.0490   44.1490 H   0  0  0  0  0  0  0  0  0  0  0  0
   39.3520   32.7200   43.2430 C   0  0  0  0  0  0  0  0  0  0  0  0
   39.3730   33.3640   42.3310 H   0  0  0  0  0  0  0  0  0  0  0  0
   40.2140   31.6030   42.9820 N   0  0  0  0  0  0  0  0  0  0  0  0
   41.1440   31.8450   42.6120 H   0  0  0  0  0  0  0  0  0  0  0  0
   40.2530   30.6830   44.1100 C   0  0  0  0  0  0  0  0  0  0  0  0
   40.8350   31.3630   45.3250 C   0  0  0  0  0  0  0  0  0  0  0  0
  1 17  1  6  0  0  0
  1 13  1  0  0  0  0
  1  2  1  0  0  0  0
  2  3  1  0  0  0  0
  2 10  1  0  0  0  0
  3  4  1  0  0  0  0
  4  5  2  0  0  0  0
  6 11  1  1  0  0  0
  6  4  1  0  0  0  0
  7 12  1  6  0  0  0
  7  6  1  0  0  0  0
  7  3  1  0  0  0  0
  8  1  1  0  0  0  0
  8  7  1  0  0  0  0
  9  2  1  0  0  0  0
 13 15  1  0  0  0  0
 13 16  1  0  0  0  0
 14 13  1  0  0  0  0
 17 18  1  0  0  0  0
 17 19  1  0  0  0  0
 20 17  1  0  0  0  0
 21 20  1  0  0  0  0
 22  6  1  0  0  0  0
 22 23  2  0  0  0  0
 24 25  1  0  0  0  0
 24 22  1  0  0  0  0
 25 30  1  0  0  0  0
 26 31  1  0  0  0  0
 26 25  2  0  0  0  0
 27 26  1  0  0  0  0
 28 27  2  0  0  0  0
 28 29  1  0  0  0  0
 29 24  2  0  0  0  0
 32 28  1  0  0  0  0
 33 32  1  0  0  0  0
 34 33  1  0  0  0  0
 35 33  1  0  0  0  0
 36 35  1  0  0  0  0
 37 35  1  0  0  0  0
 37 39  1  0  0  0  0
 38 37  1  0  0  0  0
 39 40  1  0  0  0  0
 40 32  1  0  0  0  0
M  END
>  <minimizedAffinity>
-6.24726629

>  <minimizedRMSD>
0.228781357

$$$$
