
 OpenBabel03272510073D

 30 32  0  0  0  0  0  0  0  0999 V2000
   38.1810   26.3820   35.7690 C   0  0  0  0  0  0  0  0  0  0  0  0
   38.1650   25.0330   35.3980 C   0  0  0  0  0  0  0  0  0  0  0  0
   37.7800   24.7110   34.0950 C   0  0  0  0  0  0  0  0  0  0  0  0
   37.4420   25.7200   33.2610 N   0  0  0  0  0  0  0  0  0  0  0  0
   37.4600   27.0060   33.6270 C   0  0  0  0  0  0  0  0  0  0  0  0
   37.8280   27.3220   34.8710 N   0  0  0  0  0  0  0  0  0  0  0  0
   37.0930   28.0270   32.6960 N   0  0  0  0  0  0  0  0  0  0  0  0
   37.8100   28.2360   31.4360 C   0  0  0  0  0  0  0  0  0  0  0  0
   36.9430   29.1370   30.6420 C   0  0  0  0  0  0  0  0  0  0  0  0
   35.6540   29.2860   31.4210 C   0  0  0  0  0  0  0  0  0  0  0  0
   36.0110   28.9720   32.8350 C   0  0  0  0  0  0  0  0  0  0  0  0
   38.4820   26.5650   36.7720 H   0  0  0  0  0  0  0  0  0  0  0  0
   37.7060   23.7500   33.6290 H   0  0  0  0  0  0  0  0  0  0  0  0
   38.0310   27.2530   30.9760 H   0  0  0  0  0  0  0  0  0  0  0  0
   38.7710   28.7300   31.6620 H   0  0  0  0  0  0  0  0  0  0  0  0
   36.7280   28.6490   29.6660 H   0  0  0  0  0  0  0  0  0  0  0  0
   37.4280   30.1180   30.4500 H   0  0  0  0  0  0  0  0  0  0  0  0
   34.8160   28.6910   31.0100 H   0  0  0  0  0  0  0  0  0  0  0  0
   35.3610   30.3640   31.3540 H   0  0  0  0  0  0  0  0  0  0  0  0
   35.1520   28.4460   33.3450 H   0  0  0  0  0  0  0  0  0  0  0  0
   36.2980   29.8650   33.4330 H   0  0  0  0  0  0  0  0  0  0  0  0
   38.5050   23.9160   36.2120 N   0  0  0  0  0  0  0  0  0  0  0  0
   39.8450   23.3970   36.3890 C   0  0  0  0  0  3  0  0  0  0  0  0
   40.0810   22.7900   35.4910 H   0  0  0  0  0  0  0  0  0  0  0  0
   39.9780   22.6330   37.6660 C   0  0  0  0  0  3  0  0  0  0  0  0
   41.0430   22.5510   37.9800 H   0  0  0  0  0  0  0  0  0  0  0  0
   39.3000   23.3760   38.7250 N   0  0  0  0  0  0  0  0  0  0  0  0
   39.5380   24.3770   38.7090 H   0  0  0  0  0  0  0  0  0  0  0  0
   37.8780   23.1930   38.4790 C   0  0  0  0  0  2  0  0  0  0  0  0
   37.5900   23.1210   36.9880 C   0  0  0  0  0  2  0  0  0  0  0  0
  1 12  1  0  0  0  0
  2  1  1  0  0  0  0
  2 22  1  0  0  0  0
  3  2  2  0  0  0  0
  4  5  2  0  0  0  0
  4  3  1  0  0  0  0
  5  6  1  0  0  0  0
  6  1  2  0  0  0  0
  7 11  1  0  0  0  0
  7  5  1  0  0  0  0
  8 15  1  0  0  0  0
  8  7  1  0  0  0  0
  9 10  1  0  0  0  0
  9  8  1  0  0  0  0
 10 11  1  0  0  0  0
 11 20  1  0  0  0  0
 11 21  1  0  0  0  0
 13  3  1  0  0  0  0
 14  8  1  0  0  0  0
 16  9  1  0  0  0  0
 17  9  1  0  0  0  0
 18 10  1  0  0  0  0
 19 10  1  0  0  0  0
 22 23  1  0  0  0  0
 22 30  1  0  0  0  0
 23 25  1  0  0  0  0
 24 23  1  0  0  0  0
 25 26  1  0  0  0  0
 25 27  1  0  0  0  0
 28 27  1  0  0  0  0
 29 27  1  0  0  0  0
 30 29  1  0  0  0  0
M  END
>  <minimizedAffinity>
-4.87344122

$$$$

 OpenBabel03272510073D

 30 32  0  0  0  0  0  0  0  0999 V2000
   37.4230   25.3640   33.1730 C   0  0  0  0  0  0  0  0  0  0  0  0
   37.6490   25.5580   34.5410 C   0  0  0  0  0  0  0  0  0  0  0  0
   37.3650   26.8130   35.0830 C   0  0  0  0  0  0  0  0  0  0  0  0
   36.8880   27.7730   34.2590 N   0  0  0  0  0  0  0  0  0  0  0  0
   36.6760   27.5750   32.9540 C   0  0  0  0  0  0  0  0  0  0  0  0
   36.9440   26.3770   32.4270 N   0  0  0  0  0  0  0  0  0  0  0  0
   36.1680   28.6320   32.1360 N   0  0  0  0  0  0  0  0  0  0  0  0
   34.8710   29.2640   32.3880 C   0  0  0  0  0  0  0  0  0  0  0  0
   34.8680   30.4860   31.5500 C   0  0  0  0  0  0  0  0  0  0  0  0
   36.2560   30.6040   30.9600 C   0  0  0  0  0  0  0  0  0  0  0  0
   36.8140   29.2200   30.9880 C   0  0  0  0  0  0  0  0  0  0  0  0
   37.6560   24.3890   32.8180 H   0  0  0  0  0  0  0  0  0  0  0  0
   37.4700   27.1530   36.0930 H   0  0  0  0  0  0  0  0  0  0  0  0
   34.7510   29.4280   33.4770 H   0  0  0  0  0  0  0  0  0  0  0  0
   34.0770   28.5710   32.0580 H   0  0  0  0  0  0  0  0  0  0  0  0
   34.6720   31.3630   32.2060 H   0  0  0  0  0  0  0  0  0  0  0  0
   34.0840   30.4490   30.7630 H   0  0  0  0  0  0  0  0  0  0  0  0
   36.8850   31.3680   31.4540 H   0  0  0  0  0  0  0  0  0  0  0  0
   36.1260   30.9190   29.8930 H   0  0  0  0  0  0  0  0  0  0  0  0
   37.9240   29.2520   31.1900 H   0  0  0  0  0  0  0  0  0  0  0  0
   36.6300   28.6450   30.0530 H   0  0  0  0  0  0  0  0  0  0  0  0
   38.1470   24.6050   35.4720 N   0  0  0  0  0  0  0  0  0  0  0  0
   38.0500   24.7260   36.9120 C   0  0  0  0  0  3  0  0  0  0  0  0
   38.8450   25.4280   37.2350 H   0  0  0  0  0  0  0  0  0  0  0  0
   38.1340   23.3940   37.5850 C   0  0  0  0  0  3  0  0  0  0  0  0
   37.7070   23.4320   38.6130 H   0  0  0  0  0  0  0  0  0  0  0  0
   37.3120   22.4430   36.8400 N   0  0  0  0  0  0  0  0  0  0  0  0
   36.3880   22.8320   36.6040 H   0  0  0  0  0  0  0  0  0  0  0  0
   38.0600   22.1510   35.6270 C   0  0  0  0  0  2  0  0  0  0  0  0
   38.8230   23.3760   35.1500 C   0  0  0  0  0  2  0  0  0  0  0  0
  1  2  1  0  0  0  0
  2  3  2  0  0  0  0
  2 22  1  0  0  0  0
  3 13  1  0  0  0  0
  4  3  1  0  0  0  0
  5  4  2  0  0  0  0
  6  5  1  0  0  0  0
  6  1  2  0  0  0  0
  7  8  1  0  0  0  0
  7  5  1  0  0  0  0
  8 14  1  0  0  0  0
  9 16  1  0  0  0  0
  9  8  1  0  0  0  0
 10 11  1  0  0  0  0
 10 18  1  0  0  0  0
 10  9  1  0  0  0  0
 11 20  1  0  0  0  0
 11  7  1  0  0  0  0
 12  1  1  0  0  0  0
 15  8  1  0  0  0  0
 17  9  1  0  0  0  0
 19 10  1  0  0  0  0
 21 11  1  0  0  0  0
 22 23  1  0  0  0  0
 23 24  1  0  0  0  0
 23 25  1  0  0  0  0
 25 26  1  0  0  0  0
 27 25  1  0  0  0  0
 28 27  1  0  0  0  0
 29 27  1  0  0  0  0
 30 22  1  0  0  0  0
 30 29  1  0  0  0  0
M  END
>  <minimizedAffinity>
-4.78900385

$$$$

 OpenBabel03272510073D

 30 32  0  0  0  0  0  0  0  0999 V2000
   37.5190   25.3500   33.1170 C   0  0  0  0  0  0  0  0  0  0  0  0
   38.2600   26.5260   32.9500 C   0  0  0  0  0  0  0  0  0  0  0  0
   39.2790   26.7970   33.8650 C   0  0  0  0  0  0  0  0  0  0  0  0
   39.4960   25.9100   34.8630 N   0  0  0  0  0  0  0  0  0  0  0  0
   38.7800   24.7900   35.0110 C   0  0  0  0  0  0  0  0  0  0  0  0
   37.8040   24.5230   34.1400 N   0  0  0  0  0  0  0  0  0  0  0  0
   39.0600   23.8920   36.0880 N   0  0  0  0  0  0  0  0  0  0  0  0
   40.3630   23.2410   36.2480 C   0  0  0  0  0  0  0  0  0  0  0  0
   40.3460   22.6740   37.6160 C   0  0  0  0  0  0  0  0  0  0  0  0
   39.0730   23.1680   38.2690 C   0  0  0  0  0  0  0  0  0  0  0  0
   38.1550   23.4980   37.1390 C   0  0  0  0  0  0  0  0  0  0  0  0
   36.7570   25.1970   32.3900 H   0  0  0  0  0  0  0  0  0  0  0  0
   39.9470   27.6320   33.9050 H   0  0  0  0  0  0  0  0  0  0  0  0
   41.1650   23.9780   36.0440 H   0  0  0  0  0  0  0  0  0  0  0  0
   40.4420   22.4340   35.4990 H   0  0  0  0  0  0  0  0  0  0  0  0
   41.2220   23.0700   38.1740 H   0  0  0  0  0  0  0  0  0  0  0  0
   40.4030   21.5640   37.6060 H   0  0  0  0  0  0  0  0  0  0  0  0
   39.2350   23.9910   38.9910 H   0  0  0  0  0  0  0  0  0  0  0  0
   38.6470   22.3040   38.8390 H   0  0  0  0  0  0  0  0  0  0  0  0
   37.5180   24.3910   37.4040 H   0  0  0  0  0  0  0  0  0  0  0  0
   37.4930   22.6550   36.8400 H   0  0  0  0  0  0  0  0  0  0  0  0
   38.0960   27.5070   31.9320 N   0  0  0  0  0  0  0  0  0  0  0  0
   38.8680   27.5660   30.7080 C   0  0  0  0  0  3  0  0  0  0  0  0
   39.8470   28.0210   30.9620 H   0  0  0  0  0  0  0  0  0  0  0  0
   38.1390   28.3030   29.6310 C   0  0  0  0  0  3  0  0  0  0  0  0
   38.5390   28.0460   28.6240 H   0  0  0  0  0  0  0  0  0  0  0  0
   36.7430   27.8720   29.6350 N   0  0  0  0  0  0  0  0  0  0  0  0
   36.6550   26.8480   29.6950 H   0  0  0  0  0  0  0  0  0  0  0  0
   36.1460   28.4980   30.8040 C   0  0  0  0  0  2  0  0  0  0  0  0
   37.1500   28.5910   31.9420 C   0  0  0  0  0  2  0  0  0  0  0  0
  1  6  1  0  0  0  0
  2  1  2  0  0  0  0
  2  3  1  0  0  0  0
  3 13  1  0  0  0  0
  3  4  2  0  0  0  0
  4  5  1  0  0  0  0
  5  7  1  0  0  0  0
  6  5  2  0  0  0  0
  7  8  1  0  0  0  0
  7 11  1  0  0  0  0
  8  9  1  0  0  0  0
  9 16  1  0  0  0  0
  9 10  1  0  0  0  0
 10 19  1  0  0  0  0
 10 18  1  0  0  0  0
 11 20  1  0  0  0  0
 11 10  1  0  0  0  0
 12  1  1  0  0  0  0
 14  8  1  0  0  0  0
 15  8  1  0  0  0  0
 17  9  1  0  0  0  0
 21 11  1  0  0  0  0
 22 30  1  0  0  0  0
 22  2  1  0  0  0  0
 23 24  1  0  0  0  0
 23 22  1  0  0  0  0
 25 27  1  0  0  0  0
 25 23  1  0  0  0  0
 26 25  1  0  0  0  0
 27 28  1  0  0  0  0
 27 29  1  0  0  0  0
 29 30  1  0  0  0  0
M  END
>  <minimizedAffinity>
-4.77416229

$$$$

 OpenBabel03272510073D

 30 32  0  0  0  0  0  0  0  0999 V2000
   38.0640   24.2130   33.6240 C   0  0  0  0  0  0  0  0  0  0  0  0
   38.0930   24.4670   35.0000 C   0  0  0  0  0  0  0  0  0  0  0  0
   37.7330   25.7410   35.4430 C   0  0  0  0  0  0  0  0  0  0  0  0
   37.3750   26.6610   34.5200 N   0  0  0  0  0  0  0  0  0  0  0  0
   37.3510   26.4070   33.2070 C   0  0  0  0  0  0  0  0  0  0  0  0
   37.6940   25.1900   32.7750 N   0  0  0  0  0  0  0  0  0  0  0  0
   36.9620   27.4240   32.2810 N   0  0  0  0  0  0  0  0  0  0  0  0
   35.6410   28.0560   32.3190 C   0  0  0  0  0  0  0  0  0  0  0  0
   35.7540   29.2420   31.4380 C   0  0  0  0  0  0  0  0  0  0  0  0
   37.2130   29.3460   31.0470 C   0  0  0  0  0  0  0  0  0  0  0  0
   37.7630   27.9690   31.2120 C   0  0  0  0  0  0  0  0  0  0  0  0
   38.3480   23.2260   33.3470 H   0  0  0  0  0  0  0  0  0  0  0  0
   37.6910   26.1230   36.4420 H   0  0  0  0  0  0  0  0  0  0  0  0
   35.3670   28.2640   33.3720 H   0  0  0  0  0  0  0  0  0  0  0  0
   34.9040   27.3440   31.9100 H   0  0  0  0  0  0  0  0  0  0  0  0
   35.4650   30.1430   32.0220 H   0  0  0  0  0  0  0  0  0  0  0  0
   35.0910   29.1650   30.5500 H   0  0  0  0  0  0  0  0  0  0  0  0
   37.7630   30.1360   31.5930 H   0  0  0  0  0  0  0  0  0  0  0  0
   37.2350   29.6150   29.9600 H   0  0  0  0  0  0  0  0  0  0  0  0
   38.8340   28.0190   31.5690 H   0  0  0  0  0  0  0  0  0  0  0  0
   37.7160   27.3540   30.2870 H   0  0  0  0  0  0  0  0  0  0  0  0
   38.4560   23.5570   36.0330 N   0  0  0  0  0  0  0  0  0  0  0  0
   39.8120   23.1520   36.3400 C   0  0  0  0  0  3  0  0  0  0  0  0
   40.1010   22.3870   35.5910 H   0  0  0  0  0  0  0  0  0  0  0  0
   39.9390   22.6720   37.7490 C   0  0  0  0  0  3  0  0  0  0  0  0
   40.9970   22.7080   38.0950 H   0  0  0  0  0  0  0  0  0  0  0  0
   39.1970   23.5800   38.6200 N   0  0  0  0  0  0  0  0  0  0  0  0
   39.3910   24.5680   38.4030 H   0  0  0  0  0  0  0  0  0  0  0  0
   37.7920   23.2810   38.3870 C   0  0  0  0  0  2  0  0  0  0  0  0
   37.5530   22.8930   36.9360 C   0  0  0  0  0  2  0  0  0  0  0  0
  1  2  1  0  0  0  0
  2  3  2  0  0  0  0
  2 22  1  0  0  0  0
  3 13  1  0  0  0  0
  4  3  1  0  0  0  0
  5  4  2  0  0  0  0
  6  5  1  0  0  0  0
  6  1  2  0  0  0  0
  7  8  1  0  0  0  0
  7  5  1  0  0  0  0
  8 14  1  0  0  0  0
  9 16  1  0  0  0  0
  9  8  1  0  0  0  0
 10 11  1  0  0  0  0
 10  9  1  0  0  0  0
 10 18  1  0  0  0  0
 11 20  1  0  0  0  0
 11  7  1  0  0  0  0
 12  1  1  0  0  0  0
 15  8  1  0  0  0  0
 17  9  1  0  0  0  0
 19 10  1  0  0  0  0
 21 11  1  0  0  0  0
 22 23  1  0  0  0  0
 22 30  1  0  0  0  0
 23 25  1  0  0  0  0
 24 23  1  0  0  0  0
 25 26  1  0  0  0  0
 25 27  1  0  0  0  0
 28 27  1  0  0  0  0
 29 27  1  0  0  0  0
 30 29  1  0  0  0  0
M  END
>  <minimizedAffinity>
-4.64244843

$$$$

 OpenBabel03272510073D

 30 32  0  0  0  0  0  0  0  0999 V2000
   37.6320   23.4780   32.9720 C   0  0  0  0  0  0  0  0  0  0  0  0
   36.6680   22.6670   32.3600 C   0  0  0  0  0  0  0  0  0  0  0  0
   35.6710   23.2850   31.6040 C   0  0  0  0  0  0  0  0  0  0  0  0
   35.6880   24.6330   31.5020 N   0  0  0  0  0  0  0  0  0  0  0  0
   36.6140   25.3970   32.0910 C   0  0  0  0  0  0  0  0  0  0  0  0
   37.5720   24.8140   32.8160 N   0  0  0  0  0  0  0  0  0  0  0  0
   36.5780   26.8190   31.9430 N   0  0  0  0  0  0  0  0  0  0  0  0
   36.6740   27.4750   30.6360 C   0  0  0  0  0  0  0  0  0  0  0  0
   36.2780   28.8820   30.8800 C   0  0  0  0  0  0  0  0  0  0  0  0
   35.8000   28.9490   32.3150 C   0  0  0  0  0  0  0  0  0  0  0  0
   36.4480   27.7920   33.0000 C   0  0  0  0  0  0  0  0  0  0  0  0
   38.3650   22.9520   33.5340 H   0  0  0  0  0  0  0  0  0  0  0  0
   34.8570   22.8430   31.0670 H   0  0  0  0  0  0  0  0  0  0  0  0
   36.0530   26.9210   29.9050 H   0  0  0  0  0  0  0  0  0  0  0  0
   37.7240   27.4250   30.3000 H   0  0  0  0  0  0  0  0  0  0  0  0
   35.4360   29.1340   30.2000 H   0  0  0  0  0  0  0  0  0  0  0  0
   37.1140   29.5880   30.6880 H   0  0  0  0  0  0  0  0  0  0  0  0
   34.6980   28.9900   32.4130 H   0  0  0  0  0  0  0  0  0  0  0  0
   36.2080   29.8980   32.7450 H   0  0  0  0  0  0  0  0  0  0  0  0
   35.7550   27.3670   33.7830 H   0  0  0  0  0  0  0  0  0  0  0  0
   37.4230   28.0420   33.4730 H   0  0  0  0  0  0  0  0  0  0  0  0
   36.5790   21.2480   32.4180 N   0  0  0  0  0  0  0  0  0  0  0  0
   35.8220   20.5060   33.4050 C   0  0  0  0  0  3  0  0  0  0  0  0
   36.4270   20.4870   34.3340 H   0  0  0  0  0  0  0  0  0  0  0  0
   35.4590   19.1430   32.9120 C   0  0  0  0  0  3  0  0  0  0  0  0
   34.6010   18.7210   33.4830 H   0  0  0  0  0  0  0  0  0  0  0  0
   35.0090   19.2530   31.5260 N   0  0  0  0  0  0  0  0  0  0  0  0
   34.3460   20.0300   31.3960 H   0  0  0  0  0  0  0  0  0  0  0  0
   36.2130   19.4830   30.7430 C   0  0  0  0  0  2  0  0  0  0  0  0
   37.2160   20.3190   31.5220 C   0  0  0  0  0  2  0  0  0  0  0  0
  1 12  1  0  0  0  0
  2 22  1  0  0  0  0
  2  1  2  0  0  0  0
  3  2  1  0  0  0  0
  4  3  2  0  0  0  0
  4  5  1  0  0  0  0
  5  6  2  0  0  0  0
  6  1  1  0  0  0  0
  7  5  1  0  0  0  0
  7 11  1  0  0  0  0
  8  9  1  0  0  0  0
  8  7  1  0  0  0  0
  9 10  1  0  0  0  0
 10 18  1  0  0  0  0
 10 19  1  0  0  0  0
 10 11  1  0  0  0  0
 11 21  1  0  0  0  0
 11 20  1  0  0  0  0
 13  3  1  0  0  0  0
 14  8  1  0  0  0  0
 15  8  1  0  0  0  0
 16  9  1  0  0  0  0
 17  9  1  0  0  0  0
 22 23  1  0  0  0  0
 23 24  1  0  0  0  0
 25 23  1  0  0  0  0
 25 26  1  0  0  0  0
 27 25  1  0  0  0  0
 28 27  1  0  0  0  0
 29 30  1  0  0  0  0
 29 27  1  0  0  0  0
 30 22  1  0  0  0  0
M  END
>  <minimizedAffinity>
-4.63003731

$$$$

 OpenBabel03272510073D

 30 32  0  0  0  0  0  0  0  0999 V2000
   37.6690   25.4860   32.3290 C   0  0  0  0  0  0  0  0  0  0  0  0
   36.7330   26.3390   31.7320 C   0  0  0  0  0  0  0  0  0  0  0  0
   35.6110   25.7690   31.1300 C   0  0  0  0  0  0  0  0  0  0  0  0
   35.4860   24.4230   31.1550 N   0  0  0  0  0  0  0  0  0  0  0  0
   36.3870   23.6170   31.7280 C   0  0  0  0  0  0  0  0  0  0  0  0
   37.4640   24.1550   32.3070 N   0  0  0  0  0  0  0  0  0  0  0  0
   36.1960   22.2000   31.7220 N   0  0  0  0  0  0  0  0  0  0  0  0
   35.0320   21.5630   32.3420 C   0  0  0  0  0  0  0  0  0  0  0  0
   35.0460   20.1670   31.8450 C   0  0  0  0  0  0  0  0  0  0  0  0
   36.1440   20.0930   30.8070 C   0  0  0  0  0  0  0  0  0  0  0  0
   37.0720   21.2160   31.1350 C   0  0  0  0  0  0  0  0  0  0  0  0
   38.5020   25.9770   32.7710 H   0  0  0  0  0  0  0  0  0  0  0  0
   34.7950   26.2480   30.6290 H   0  0  0  0  0  0  0  0  0  0  0  0
   34.1240   22.1490   32.1000 H   0  0  0  0  0  0  0  0  0  0  0  0
   35.1690   21.5810   33.4370 H   0  0  0  0  0  0  0  0  0  0  0  0
   34.0680   19.9550   31.3610 H   0  0  0  0  0  0  0  0  0  0  0  0
   35.2020   19.4350   32.6670 H   0  0  0  0  0  0  0  0  0  0  0  0
   35.7710   20.0890   29.7650 H   0  0  0  0  0  0  0  0  0  0  0  0
   36.6790   19.1240   30.9720 H   0  0  0  0  0  0  0  0  0  0  0  0
   37.5040   21.6520   30.1880 H   0  0  0  0  0  0  0  0  0  0  0  0
   37.9030   20.9240   31.8140 H   0  0  0  0  0  0  0  0  0  0  0  0
   36.7900   27.7600   31.6630 N   0  0  0  0  0  0  0  0  0  0  0  0
   37.3750   28.5120   30.5720 C   0  0  0  0  0  3  0  0  0  0  0  0
   38.4740   28.4950   30.7160 H   0  0  0  0  0  0  0  0  0  0  0  0
   36.8150   29.8950   30.4930 C   0  0  0  0  0  3  0  0  0  0  0  0
   36.9710   30.3380   29.4830 H   0  0  0  0  0  0  0  0  0  0  0  0
   35.3680   29.8240   30.6840 N   0  0  0  0  0  0  0  0  0  0  0  0
   34.9410   29.0730   30.1230 H   0  0  0  0  0  0  0  0  0  0  0  0
   35.1750   29.5640   32.1020 C   0  0  0  0  0  2  0  0  0  0  0  0
   36.2850   28.6800   32.6480 C   0  0  0  0  0  2  0  0  0  0  0  0
  1 12  1  0  0  0  0
  2  1  2  0  0  0  0
  3  4  2  0  0  0  0
  3  2  1  0  0  0  0
  4  5  1  0  0  0  0
  5  6  2  0  0  0  0
  6  1  1  0  0  0  0
  7  5  1  0  0  0  0
  7  8  1  0  0  0  0
  8 15  1  0  0  0  0
  9  8  1  0  0  0  0
  9 17  1  0  0  0  0
 10 19  1  0  0  0  0
 10 11  1  0  0  0  0
 10  9  1  0  0  0  0
 11  7  1  0  0  0  0
 11 21  1  0  0  0  0
 13  3  1  0  0  0  0
 14  8  1  0  0  0  0
 16  9  1  0  0  0  0
 18 10  1  0  0  0  0
 20 11  1  0  0  0  0
 22  2  1  0  0  0  0
 22 30  1  0  0  0  0
 23 24  1  0  0  0  0
 23 22  1  0  0  0  0
 25 23  1  0  0  0  0
 25 27  1  0  0  0  0
 26 25  1  0  0  0  0
 27 29  1  0  0  0  0
 28 27  1  0  0  0  0
 29 30  1  0  0  0  0
M  END
>  <minimizedAffinity>
-4.54027939

$$$$

 OpenBabel03272510073D

 30 32  0  0  0  0  0  0  0  0999 V2000
   35.5220   24.6580   31.0840 C   0  0  0  0  0  0  0  0  0  0  0  0
   36.4870   25.2750   31.8890 C   0  0  0  0  0  0  0  0  0  0  0  0
   37.2980   24.4650   32.6850 C   0  0  0  0  0  0  0  0  0  0  0  0
   37.1100   23.1270   32.6360 N   0  0  0  0  0  0  0  0  0  0  0  0
   36.1850   22.5480   31.8630 C   0  0  0  0  0  0  0  0  0  0  0  0
   35.4040   23.3160   31.0980 N   0  0  0  0  0  0  0  0  0  0  0  0
   36.0370   21.1260   31.8550 N   0  0  0  0  0  0  0  0  0  0  0  0
   37.1230   20.2260   31.4610 C   0  0  0  0  0  0  0  0  0  0  0  0
   36.6840   18.8780   31.8930 C   0  0  0  0  0  0  0  0  0  0  0  0
   35.4090   19.0770   32.6840 C   0  0  0  0  0  0  0  0  0  0  0  0
   34.8550   20.3810   32.2160 C   0  0  0  0  0  0  0  0  0  0  0  0
   34.9350   25.3250   30.5010 H   0  0  0  0  0  0  0  0  0  0  0  0
   38.0820   24.7450   33.3580 H   0  0  0  0  0  0  0  0  0  0  0  0
   38.0730   20.5870   31.9030 H   0  0  0  0  0  0  0  0  0  0  0  0
   37.2220   20.2630   30.3630 H   0  0  0  0  0  0  0  0  0  0  0  0
   37.4660   18.4490   32.5580 H   0  0  0  0  0  0  0  0  0  0  0  0
   36.5350   18.1930   31.0310 H   0  0  0  0  0  0  0  0  0  0  0  0
   35.5500   18.9980   33.7790 H   0  0  0  0  0  0  0  0  0  0  0  0
   34.7110   18.2570   32.3780 H   0  0  0  0  0  0  0  0  0  0  0  0
   34.3510   20.9180   33.0710 H   0  0  0  0  0  0  0  0  0  0  0  0
   34.1370   20.2840   31.3720 H   0  0  0  0  0  0  0  0  0  0  0  0
   36.7470   26.6700   31.9970 N   0  0  0  0  0  0  0  0  0  0  0  0
   36.5190   27.6390   30.9450 C   0  0  0  0  0  3  0  0  0  0  0  0
   37.3670   27.5560   30.2360 H   0  0  0  0  0  0  0  0  0  0  0  0
   36.3460   29.0190   31.4940 C   0  0  0  0  0  3  0  0  0  0  0  0
   35.8240   29.6810   30.7660 H   0  0  0  0  0  0  0  0  0  0  0  0
   35.4800   28.9470   32.6690 N   0  0  0  0  0  0  0  0  0  0  0  0
   34.6500   28.3620   32.5020 H   0  0  0  0  0  0  0  0  0  0  0  0
   36.3010   28.3690   33.7210 C   0  0  0  0  0  2  0  0  0  0  0  0
   37.2740   27.3490   33.1520 C   0  0  0  0  0  2  0  0  0  0  0  0
  1  6  2  0  0  0  0
  1  2  1  0  0  0  0
  2 22  1  0  0  0  0
  2  3  2  0  0  0  0
  3 13  1  0  0  0  0
  4  3  1  0  0  0  0
  5  4  2  0  0  0  0
  6  5  1  0  0  0  0
  7  5  1  0  0  0  0
  7 11  1  0  0  0  0
  8  7  1  0  0  0  0
  8  9  1  0  0  0  0
  8 14  1  0  0  0  0
  9 16  1  0  0  0  0
  9 10  1  0  0  0  0
 10 18  1  0  0  0  0
 11 10  1  0  0  0  0
 11 20  1  0  0  0  0
 12  1  1  0  0  0  0
 15  8  1  0  0  0  0
 17  9  1  0  0  0  0
 19 10  1  0  0  0  0
 21 11  1  0  0  0  0
 22 30  1  0  0  0  0
 23 25  1  0  0  0  0
 23 22  1  0  0  0  0
 24 23  1  0  0  0  0
 25 27  1  0  0  0  0
 26 25  1  0  0  0  0
 27 29  1  0  0  0  0
 28 27  1  0  0  0  0
 30 29  1  0  0  0  0
M  END
>  <minimizedAffinity>
-4.51478577

$$$$

 OpenBabel03272510073D

 30 32  0  0  0  0  0  0  0  0999 V2000
   35.8980   24.9730   31.2660 C   0  0  0  0  0  0  0  0  0  0  0  0
   37.2420   25.2130   30.9560 C   0  0  0  0  0  0  0  0  0  0  0  0
   38.1200   24.1270   30.9460 C   0  0  0  0  0  0  0  0  0  0  0  0
   37.6260   22.9030   31.2340 N   0  0  0  0  0  0  0  0  0  0  0  0
   36.3400   22.6860   31.5280 C   0  0  0  0  0  0  0  0  0  0  0  0
   35.4930   23.7190   31.5410 N   0  0  0  0  0  0  0  0  0  0  0  0
   35.8790   21.3650   31.8230 N   0  0  0  0  0  0  0  0  0  0  0  0
   35.9850   20.2640   30.8620 C   0  0  0  0  0  0  0  0  0  0  0  0
   35.7090   19.0380   31.6470 C   0  0  0  0  0  0  0  0  0  0  0  0
   35.6150   19.4690   33.0950 C   0  0  0  0  0  0  0  0  0  0  0  0
   35.2670   20.9200   33.0510 C   0  0  0  0  0  0  0  0  0  0  0  0
   35.2780   25.8370   31.2580 H   0  0  0  0  0  0  0  0  0  0  0  0
   39.1700   24.1090   30.7350 H   0  0  0  0  0  0  0  0  0  0  0  0
   36.9760   20.3050   30.3690 H   0  0  0  0  0  0  0  0  0  0  0  0
   35.2110   20.4050   30.0880 H   0  0  0  0  0  0  0  0  0  0  0  0
   36.5670   18.3410   31.5260 H   0  0  0  0  0  0  0  0  0  0  0  0
   34.7840   18.5250   31.3060 H   0  0  0  0  0  0  0  0  0  0  0  0
   36.5150   19.2250   33.6900 H   0  0  0  0  0  0  0  0  0  0  0  0
   34.7570   18.9060   33.5430 H   0  0  0  0  0  0  0  0  0  0  0  0
   35.7640   21.4640   33.9070 H   0  0  0  0  0  0  0  0  0  0  0  0
   34.1730   21.1180   33.0800 H   0  0  0  0  0  0  0  0  0  0  0  0
   37.8400   26.4660   30.6430 N   0  0  0  0  0  0  0  0  0  0  0  0
   39.0910   26.6320   29.9330 C   0  0  0  0  0  3  0  0  0  0  0  0
   39.9060   26.4480   30.6630 H   0  0  0  0  0  0  0  0  0  0  0  0
   39.1810   27.9720   29.2780 C   0  0  0  0  0  3  0  0  0  0  0  0
   39.9370   27.9720   28.4600 H   0  0  0  0  0  0  0  0  0  0  0  0
   37.8990   28.2680   28.6450 N   0  0  0  0  0  0  0  0  0  0  0  0
   37.5380   27.4660   28.1080 H   0  0  0  0  0  0  0  0  0  0  0  0
   36.9920   28.5910   29.7350 C   0  0  0  0  0  2  0  0  0  0  0  0
   37.3120   27.7650   30.9710 C   0  0  0  0  0  2  0  0  0  0  0  0
  1  6  1  0  0  0  0
  2  1  2  0  0  0  0
  3  2  1  0  0  0  0
  3  4  2  0  0  0  0
  4  5  1  0  0  0  0
  5  6  2  0  0  0  0
  5  7  1  0  0  0  0
  7 11  1  0  0  0  0
  8  9  1  0  0  0  0
  8  7  1  0  0  0  0
  9 10  1  0  0  0  0
 10 19  1  0  0  0  0
 10 18  1  0  0  0  0
 11 21  1  0  0  0  0
 11 10  1  0  0  0  0
 11 20  1  0  0  0  0
 12  1  1  0  0  0  0
 13  3  1  0  0  0  0
 14  8  1  0  0  0  0
 15  8  1  0  0  0  0
 16  9  1  0  0  0  0
 17  9  1  0  0  0  0
 22  2  1  0  0  0  0
 22 30  1  0  0  0  0
 23 22  1  0  0  0  0
 23 24  1  0  0  0  0
 25 23  1  0  0  0  0
 26 25  1  0  0  0  0
 27 25  1  0  0  0  0
 27 29  1  0  0  0  0
 28 27  1  0  0  0  0
 29 30  1  0  0  0  0
M  END
>  <minimizedAffinity>
-4.46687078

$$$$

 OpenBabel03272510073D

 30 32  0  0  0  0  0  0  0  0999 V2000
   38.2320   23.9430   32.4840 C   0  0  0  0  0  0  0  0  0  0  0  0
   37.3980   24.7550   31.7060 C   0  0  0  0  0  0  0  0  0  0  0  0
   36.2660   24.1750   31.1290 C   0  0  0  0  0  0  0  0  0  0  0  0
   36.0360   22.8620   31.3530 N   0  0  0  0  0  0  0  0  0  0  0  0
   36.8400   22.0970   32.0980 C   0  0  0  0  0  0  0  0  0  0  0  0
   37.9250   22.6430   32.6540 N   0  0  0  0  0  0  0  0  0  0  0  0
   36.5400   20.7140   32.2980 N   0  0  0  0  0  0  0  0  0  0  0  0
   35.2990   20.2640   32.9340 C   0  0  0  0  0  0  0  0  0  0  0  0
   35.2290   18.8100   32.6600 C   0  0  0  0  0  0  0  0  0  0  0  0
   36.3700   18.4970   31.7160 C   0  0  0  0  0  0  0  0  0  0  0  0
   37.3640   19.5900   31.9260 C   0  0  0  0  0  0  0  0  0  0  0  0
   39.0770   24.4390   32.8970 H   0  0  0  0  0  0  0  0  0  0  0  0
   35.5170   24.6250   30.5100 H   0  0  0  0  0  0  0  0  0  0  0  0
   34.4530   20.8670   32.5490 H   0  0  0  0  0  0  0  0  0  0  0  0
   35.3810   20.4450   34.0200 H   0  0  0  0  0  0  0  0  0  0  0  0
   34.2630   18.5930   32.1530 H   0  0  0  0  0  0  0  0  0  0  0  0
   35.2850   18.2080   33.5920 H   0  0  0  0  0  0  0  0  0  0  0  0
   36.0510   18.3550   30.6660 H   0  0  0  0  0  0  0  0  0  0  0  0
   36.8170   17.5310   32.0620 H   0  0  0  0  0  0  0  0  0  0  0  0
   37.8770   19.8410   30.9510 H   0  0  0  0  0  0  0  0  0  0  0  0
   38.1350   19.3530   32.6920 H   0  0  0  0  0  0  0  0  0  0  0  0
   37.5700   26.1390   31.4230 N   0  0  0  0  0  0  0  0  0  0  0  0
   38.4790   26.6740   30.4300 C   0  0  0  0  0  3  0  0  0  0  0  0
   39.4940   26.6600   30.8770 H   0  0  0  0  0  0  0  0  0  0  0  0
   38.0580   28.0330   29.9720 C   0  0  0  0  0  3  0  0  0  0  0  0
   38.5130   28.2870   28.9880 H   0  0  0  0  0  0  0  0  0  0  0  0
   36.6130   28.0260   29.7600 N   0  0  0  0  0  0  0  0  0  0  0  0
   36.3030   27.1970   29.2330 H   0  0  0  0  0  0  0  0  0  0  0  0
   36.0250   28.0250   31.0900 C   0  0  0  0  0  2  0  0  0  0  0  0
   36.8800   27.2290   32.0620 C   0  0  0  0  0  2  0  0  0  0  0  0
  1  6  1  0  0  0  0
  1 12  1  0  0  0  0
  2  1  2  0  0  0  0
  3  4  2  0  0  0  0
  3  2  1  0  0  0  0
  4  5  1  0  0  0  0
  5  7  1  0  0  0  0
  5  6  2  0  0  0  0
  7  8  1  0  0  0  0
  8 15  1  0  0  0  0
  9  8  1  0  0  0  0
  9 17  1  0  0  0  0
 10 11  1  0  0  0  0
 10 19  1  0  0  0  0
 10  9  1  0  0  0  0
 11  7  1  0  0  0  0
 11 21  1  0  0  0  0
 13  3  1  0  0  0  0
 14  8  1  0  0  0  0
 16  9  1  0  0  0  0
 18 10  1  0  0  0  0
 20 11  1  0  0  0  0
 22  2  1  0  0  0  0
 22 30  1  0  0  0  0
 23 24  1  0  0  0  0
 23 22  1  0  0  0  0
 25 23  1  0  0  0  0
 26 25  1  0  0  0  0
 27 25  1  0  0  0  0
 27 29  1  0  0  0  0
 28 27  1  0  0  0  0
 29 30  1  0  0  0  0
M  END
>  <minimizedAffinity>
-4.36656237

$$$$
