
 OpenBabel03272506073D

 30 32  0  0  0  0  0  0  0  0999 V2000
   36.5150   24.2790   31.8690 C   0  0  0  0  0  0  0  0  0  0  0  0
   36.0630   23.6680   31.0600 H   0  0  0  0  0  0  0  0  0  0  0  0
   35.6640   24.5400   32.5440 H   0  0  0  0  0  0  0  0  0  0  0  0
   37.5160   23.4660   32.6370 C   0  0  0  0  0  0  0  0  0  0  0  0
   38.2550   22.4390   31.9410 C   0  0  0  0  0  0  0  0  0  0  0  0
   39.2620   21.8020   33.2540 S   0  0  0  0  0  0  0  0  0  0  0  0
   38.5760   22.9770   34.5510 C   0  0  0  0  0  0  0  0  0  0  0  0
   37.7840   23.6080   33.9070 N   0  0  0  0  0  0  0  0  0  0  0  0
   38.1810   22.1770   30.9300 H   0  0  0  0  0  0  0  0  0  0  0  0
   38.8820   23.1270   35.9660 N   0  0  0  0  0  0  0  0  0  0  0  0
   40.2120   22.7980   36.3650 C   0  0  0  0  0  3  0  0  0  0  0  0
   40.9610   23.5920   36.0720 H   0  0  0  0  0  0  0  0  0  0  0  0
   40.3750   22.5640   37.8310 C   0  0  0  0  0  3  0  0  0  0  0  0
   40.9600   23.3980   38.3210 H   0  0  0  0  0  0  0  0  0  0  0  0
   39.1140   22.5490   38.5640 N   0  0  0  0  0  0  0  0  0  0  0  0
   39.3770   22.6210   39.5890 H   0  0  0  0  0  0  0  0  0  0  0  0
   38.4410   23.7970   38.2240 C   0  0  0  0  0  2  0  0  0  0  0  0
   37.8440   23.5900   36.8600 C   0  0  0  0  0  2  0  0  0  0  0  0
   37.1170   25.4970   31.2810 C   0  0  0  0  0  0  0  0  0  0  0  0
   36.8710   25.6400   30.1940 H   0  0  0  0  0  0  0  0  0  0  0  0
   38.2240   25.4480   31.3830 H   0  0  0  0  0  0  0  0  0  0  0  0
   35.4320   28.7080   32.1000 C   0  0  0  0  0  0  0  0  0  0  0  0
   35.7920   28.9140   33.4310 C   0  0  0  0  0  0  0  0  0  0  0  0
   36.6120   27.9490   34.0370 C   0  0  0  0  0  0  0  0  0  0  0  0
   37.0110   26.8740   33.3120 N   0  0  0  0  0  0  0  0  0  0  0  0
   36.6260   26.7280   32.0170 C   0  0  0  0  0  0  0  0  0  0  0  0
   35.8510   27.6300   31.4240 N   0  0  0  0  0  0  0  0  0  0  0  0
   34.8040   29.4270   31.6000 H   0  0  0  0  0  0  0  0  0  0  0  0
   35.4630   29.7770   33.9840 H   0  0  0  0  0  0  0  0  0  0  0  0
   36.9280   28.0570   35.0820 H   0  0  0  0  0  0  0  0  0  0  0  0
  1  3  1  0  0  0  0
  1  4  1  0  0  0  0
  2  1  1  0  0  0  0
  4  8  1  0  0  0  0
  5  4  2  0  0  0  0
  5  6  1  0  0  0  0
  6  7  1  0  0  0  0
  7 10  1  0  0  0  0
  8  7  2  0  0  0  0
  9  5  1  0  0  0  0
 10 11  1  0  0  0  0
 10 18  1  0  0  0  0
 11 13  1  0  0  0  0
 12 11  1  0  0  0  0
 13 14  1  0  0  0  0
 13 15  1  0  0  0  0
 15 16  1  0  0  0  0
 17 15  1  0  0  0  0
 18 17  1  0  0  0  0
 19 21  1  0  0  0  0
 19  1  1  0  0  0  0
 19 26  1  0  0  0  0
 20 19  1  0  0  0  0
 22 23  1  0  0  0  0
 23 29  1  0  0  0  0
 23 24  2  0  0  0  0
 24 30  1  0  0  0  0
 25 24  1  0  0  0  0
 26 25  2  0  0  0  0
 27 26  1  0  0  0  0
 27 22  2  0  0  0  0
 28 22  1  0  0  0  0
M  END
>  <minimizedAffinity>
-4.92301226

$$$$

 OpenBabel03272506073D

 30 32  0  0  0  0  0  0  0  0999 V2000
   36.6690   27.3220   33.2120 C   0  0  0  0  0  0  0  0  0  0  0  0
   37.1630   27.9130   32.4150 H   0  0  0  0  0  0  0  0  0  0  0  0
   35.6750   27.0360   32.7860 H   0  0  0  0  0  0  0  0  0  0  0  0
   37.4530   26.0750   33.4970 C   0  0  0  0  0  0  0  0  0  0  0  0
   37.8990   25.2670   32.3860 C   0  0  0  0  0  0  0  0  0  0  0  0
   38.7450   23.9630   33.2380 S   0  0  0  0  0  0  0  0  0  0  0  0
   38.3990   24.6550   34.9510 C   0  0  0  0  0  0  0  0  0  0  0  0
   37.7750   25.6440   34.6880 N   0  0  0  0  0  0  0  0  0  0  0  0
   37.7410   25.4460   31.3670 H   0  0  0  0  0  0  0  0  0  0  0  0
   38.7630   24.1660   36.2740 N   0  0  0  0  0  0  0  0  0  0  0  0
   39.9790   23.4240   36.3630 C   0  0  0  0  0  3  0  0  0  0  0  0
   40.8940   24.0840   36.3040 H   0  0  0  0  0  0  0  0  0  0  0  0
   40.1100   22.6050   37.6050 C   0  0  0  0  0  3  0  0  0  0  0  0
   40.8930   23.0290   38.3000 H   0  0  0  0  0  0  0  0  0  0  0  0
   38.9000   22.5810   38.4200 N   0  0  0  0  0  0  0  0  0  0  0  0
   39.1950   22.1860   39.3580 H   0  0  0  0  0  0  0  0  0  0  0  0
   38.5500   23.9770   38.6530 C   0  0  0  0  0  2  0  0  0  0  0  0
   37.8920   24.4580   37.3900 C   0  0  0  0  0  2  0  0  0  0  0  0
   36.5050   28.1670   34.4160 C   0  0  0  0  0  0  0  0  0  0  0  0
   37.4600   28.6520   34.7580 H   0  0  0  0  0  0  0  0  0  0  0  0
   36.1120   27.5470   35.2530 H   0  0  0  0  0  0  0  0  0  0  0  0
   34.5930   31.3490   34.6140 C   0  0  0  0  0  0  0  0  0  0  0  0
   33.6820   31.2270   33.5650 C   0  0  0  0  0  0  0  0  0  0  0  0
   33.7320   30.0510   32.7980 C   0  0  0  0  0  0  0  0  0  0  0  0
   34.6500   29.1020   33.1060 N   0  0  0  0  0  0  0  0  0  0  0  0
   35.5120   29.2790   34.1420 C   0  0  0  0  0  0  0  0  0  0  0  0
   35.4810   30.3830   34.8800 N   0  0  0  0  0  0  0  0  0  0  0  0
   34.5850   32.2360   35.2250 H   0  0  0  0  0  0  0  0  0  0  0  0
   32.9620   31.9960   33.3410 H   0  0  0  0  0  0  0  0  0  0  0  0
   33.0400   29.8990   31.9590 H   0  0  0  0  0  0  0  0  0  0  0  0
  1  4  1  0  0  0  0
  1 19  1  0  0  0  0
  2  1  1  0  0  0  0
  3  1  1  0  0  0  0
  4  8  1  0  0  0  0
  5  6  1  0  0  0  0
  5  4  2  0  0  0  0
  6  7  1  0  0  0  0
  7 10  1  0  0  0  0
  8  7  2  0  0  0  0
  9  5  1  0  0  0  0
 10 11  1  0  0  0  0
 10 18  1  0  0  0  0
 11 13  1  0  0  0  0
 12 11  1  0  0  0  0
 13 14  1  0  0  0  0
 13 15  1  0  0  0  0
 15 17  1  0  0  0  0
 15 16  1  0  0  0  0
 18 17  1  0  0  0  0
 19 20  1  0  0  0  0
 19 21  1  0  0  0  0
 22 27  1  0  0  0  0
 22 28  1  0  0  0  0
 23 22  2  0  0  0  0
 24 25  2  0  0  0  0
 24 23  1  0  0  0  0
 25 26  1  0  0  0  0
 26 19  1  0  0  0  0
 26 27  2  0  0  0  0
 29 23  1  0  0  0  0
 30 24  1  0  0  0  0
M  END
>  <minimizedAffinity>
-4.89819431

$$$$

 OpenBabel03272506073D

 30 32  0  0  0  0  0  0  0  0999 V2000
   36.6580   27.1750   33.0710 C   0  0  0  0  0  0  0  0  0  0  0  0
   35.8320   27.3210   33.7970 H   0  0  0  0  0  0  0  0  0  0  0  0
   37.3150   28.0700   33.1970 H   0  0  0  0  0  0  0  0  0  0  0  0
   37.4410   25.9420   33.4150 C   0  0  0  0  0  0  0  0  0  0  0  0
   37.9090   25.0970   32.3420 C   0  0  0  0  0  0  0  0  0  0  0  0
   38.7450   23.8270   33.2560 S   0  0  0  0  0  0  0  0  0  0  0  0
   38.3660   24.5800   34.9360 C   0  0  0  0  0  0  0  0  0  0  0  0
   37.7440   25.5560   34.6260 N   0  0  0  0  0  0  0  0  0  0  0  0
   37.7690   25.2380   31.3150 H   0  0  0  0  0  0  0  0  0  0  0  0
   38.7090   24.1410   36.2820 N   0  0  0  0  0  0  0  0  0  0  0  0
   39.9250   23.4070   36.4190 C   0  0  0  0  0  3  0  0  0  0  0  0
   40.8390   24.0680   36.3520 H   0  0  0  0  0  0  0  0  0  0  0  0
   40.0370   22.6340   37.6910 C   0  0  0  0  0  3  0  0  0  0  0  0
   40.8060   23.0860   38.3850 H   0  0  0  0  0  0  0  0  0  0  0  0
   38.8130   22.6350   38.4850 N   0  0  0  0  0  0  0  0  0  0  0  0
   39.0920   22.2750   39.4430 H   0  0  0  0  0  0  0  0  0  0  0  0
   38.4540   24.0360   38.6620 C   0  0  0  0  0  2  0  0  0  0  0  0
   37.8170   24.4680   37.3710 C   0  0  0  0  0  2  0  0  0  0  0  0
   36.0980   27.1170   31.7020 C   0  0  0  0  0  0  0  0  0  0  0  0
   34.9810   26.9990   31.6780 H   0  0  0  0  0  0  0  0  0  0  0  0
   36.5500   26.2610   31.1530 H   0  0  0  0  0  0  0  0  0  0  0  0
   36.4120   30.6950   30.7410 C   0  0  0  0  0  0  0  0  0  0  0  0
   37.0730   30.6280   29.5150 C   0  0  0  0  0  0  0  0  0  0  0  0
   37.4050   29.3530   29.0270 C   0  0  0  0  0  0  0  0  0  0  0  0
   37.0740   28.2610   29.7600 N   0  0  0  0  0  0  0  0  0  0  0  0
   36.4300   28.3910   30.9490 C   0  0  0  0  0  0  0  0  0  0  0  0
   36.1060   29.5870   31.4280 N   0  0  0  0  0  0  0  0  0  0  0  0
   36.1400   31.6550   31.1480 H   0  0  0  0  0  0  0  0  0  0  0  0
   37.3230   31.5110   28.9530 H   0  0  0  0  0  0  0  0  0  0  0  0
   37.9260   29.2390   28.0680 H   0  0  0  0  0  0  0  0  0  0  0  0
  1  3  1  0  0  0  0
  1  4  1  0  0  0  0
  1  2  1  0  0  0  0
  4  8  1  0  0  0  0
  5  6  1  0  0  0  0
  5  4  2  0  0  0  0
  6  7  1  0  0  0  0
  7 10  1  0  0  0  0
  8  7  2  0  0  0  0
  9  5  1  0  0  0  0
 10 11  1  0  0  0  0
 10 18  1  0  0  0  0
 11 13  1  0  0  0  0
 12 11  1  0  0  0  0
 13 14  1  0  0  0  0
 13 15  1  0  0  0  0
 15 17  1  0  0  0  0
 15 16  1  0  0  0  0
 18 17  1  0  0  0  0
 19  1  1  0  0  0  0
 20 19  1  0  0  0  0
 21 19  1  0  0  0  0
 22 28  1  0  0  0  0
 22 27  1  0  0  0  0
 23 22  2  0  0  0  0
 24 23  1  0  0  0  0
 24 25  2  0  0  0  0
 25 26  1  0  0  0  0
 26 27  2  0  0  0  0
 26 19  1  0  0  0  0
 29 23  1  0  0  0  0
 30 24  1  0  0  0  0
M  END
>  <minimizedAffinity>
-4.88709068

$$$$

 OpenBabel03272506073D

 30 32  0  0  0  0  0  0  0  0999 V2000
   36.2750   29.0650   34.5610 C   0  0  0  0  0  0  0  0  0  0  0  0
   36.3720   29.1190   35.6650 H   0  0  0  0  0  0  0  0  0  0  0  0
   37.0130   29.8090   34.1700 H   0  0  0  0  0  0  0  0  0  0  0  0
   36.6550   27.6980   34.0710 C   0  0  0  0  0  0  0  0  0  0  0  0
   36.4250   27.3720   32.6830 C   0  0  0  0  0  0  0  0  0  0  0  0
   37.0240   25.7040   32.6290 S   0  0  0  0  0  0  0  0  0  0  0  0
   37.4990   25.6560   34.4470 C   0  0  0  0  0  0  0  0  0  0  0  0
   37.1850   26.7570   34.8050 N   0  0  0  0  0  0  0  0  0  0  0  0
   36.0140   27.9890   31.9450 H   0  0  0  0  0  0  0  0  0  0  0  0
   38.0900   24.5990   35.2550 N   0  0  0  0  0  0  0  0  0  0  0  0
   38.9540   23.6890   34.5760 C   0  0  0  0  0  3  0  0  0  0  0  0
   39.9630   24.1410   34.3450 H   0  0  0  0  0  0  0  0  0  0  0  0
   39.2040   22.4130   35.3100 C   0  0  0  0  0  3  0  0  0  0  0  0
   40.2620   22.3590   35.7000 H   0  0  0  0  0  0  0  0  0  0  0  0
   38.3860   22.2590   36.5090 N   0  0  0  0  0  0  0  0  0  0  0  0
   38.8220   21.4600   37.0520 H   0  0  0  0  0  0  0  0  0  0  0  0
   38.6090   23.4630   37.3000 C   0  0  0  0  0  2  0  0  0  0  0  0
   37.7730   24.5390   36.6650 C   0  0  0  0  0  2  0  0  0  0  0  0
   34.8950   29.4350   34.1740 C   0  0  0  0  0  0  0  0  0  0  0  0
   34.2150   28.5500   34.0370 H   0  0  0  0  0  0  0  0  0  0  0  0
   34.9190   30.0050   33.2190 H   0  0  0  0  0  0  0  0  0  0  0  0
   32.4770   30.9770   36.5400 C   0  0  0  0  0  0  0  0  0  0  0  0
   33.2450   31.9560   37.1710 C   0  0  0  0  0  0  0  0  0  0  0  0
   34.5880   32.0780   36.7780 C   0  0  0  0  0  0  0  0  0  0  0  0
   35.0710   31.2510   35.8170 N   0  0  0  0  0  0  0  0  0  0  0  0
   34.2730   30.3160   35.2390 C   0  0  0  0  0  0  0  0  0  0  0  0
   33.0000   30.1840   35.5950 N   0  0  0  0  0  0  0  0  0  0  0  0
   31.4430   30.8540   36.8140 H   0  0  0  0  0  0  0  0  0  0  0  0
   32.8370   32.5990   37.9300 H   0  0  0  0  0  0  0  0  0  0  0  0
   35.2410   32.8290   37.2390 H   0  0  0  0  0  0  0  0  0  0  0  0
  1  2  1  0  0  0  0
  3  1  1  0  0  0  0
  4  1  1  0  0  0  0
  4  8  1  0  0  0  0
  5  4  2  0  0  0  0
  6  5  1  0  0  0  0
  6  7  1  0  0  0  0
  7  8  2  0  0  0  0
  7 10  1  0  0  0  0
  9  5  1  0  0  0  0
 10 18  1  0  0  0  0
 11 10  1  0  0  0  0
 11 13  1  0  0  0  0
 12 11  1  0  0  0  0
 13 14  1  0  0  0  0
 13 15  1  0  0  0  0
 15 16  1  0  0  0  0
 15 17  1  0  0  0  0
 18 17  1  0  0  0  0
 19  1  1  0  0  0  0
 19 26  1  0  0  0  0
 20 19  1  0  0  0  0
 21 19  1  0  0  0  0
 22 28  1  0  0  0  0
 22 23  1  0  0  0  0
 23 29  1  0  0  0  0
 24 23  2  0  0  0  0
 24 30  1  0  0  0  0
 25 24  1  0  0  0  0
 26 27  1  0  0  0  0
 26 25  2  0  0  0  0
 27 22  2  0  0  0  0
M  END
>  <minimizedAffinity>
-4.83608818

$$$$

 OpenBabel03272506073D

 30 32  0  0  0  0  0  0  0  0999 V2000
   36.2290   28.8710   34.5470 C   0  0  0  0  0  0  0  0  0  0  0  0
   35.5680   28.7300   35.4260 H   0  0  0  0  0  0  0  0  0  0  0  0
   37.0670   29.5120   34.9160 H   0  0  0  0  0  0  0  0  0  0  0  0
   36.7860   27.5510   34.0980 C   0  0  0  0  0  0  0  0  0  0  0  0
   36.7900   27.2460   32.6870 C   0  0  0  0  0  0  0  0  0  0  0  0
   37.5230   25.6320   32.6960 S   0  0  0  0  0  0  0  0  0  0  0  0
   37.7290   25.5720   34.5630 C   0  0  0  0  0  0  0  0  0  0  0  0
   37.2770   26.6340   34.8870 N   0  0  0  0  0  0  0  0  0  0  0  0
   36.4430   27.8490   31.9050 H   0  0  0  0  0  0  0  0  0  0  0  0
   38.2790   24.5430   35.4340 N   0  0  0  0  0  0  0  0  0  0  0  0
   39.3040   23.7220   34.8770 C   0  0  0  0  0  3  0  0  0  0  0  0
   40.2960   24.2570   34.8060 H   0  0  0  0  0  0  0  0  0  0  0  0
   39.5460   22.4500   35.6200 C   0  0  0  0  0  3  0  0  0  0  0  0
   40.5370   22.4680   36.1620 H   0  0  0  0  0  0  0  0  0  0  0  0
   38.5770   22.2000   36.6820 N   0  0  0  0  0  0  0  0  0  0  0  0
   38.9920   21.4230   37.2720 H   0  0  0  0  0  0  0  0  0  0  0  0
   38.5830   23.3950   37.5160 C   0  0  0  0  0  2  0  0  0  0  0  0
   37.7650   24.4200   36.7800 C   0  0  0  0  0  2  0  0  0  0  0  0
   35.4740   29.5530   33.4720 C   0  0  0  0  0  0  0  0  0  0  0  0
   35.6290   29.0990   32.4560 H   0  0  0  0  0  0  0  0  0  0  0  0
   35.7810   30.6220   33.4250 H   0  0  0  0  0  0  0  0  0  0  0  0
   31.8050   29.0570   33.1360 C   0  0  0  0  0  0  0  0  0  0  0  0
   31.3260   29.4350   34.3900 C   0  0  0  0  0  0  0  0  0  0  0  0
   32.2680   29.8590   35.3410 C   0  0  0  0  0  0  0  0  0  0  0  0
   33.5820   29.8800   35.0040 N   0  0  0  0  0  0  0  0  0  0  0  0
   33.9870   29.4990   33.7640 C   0  0  0  0  0  0  0  0  0  0  0  0
   33.1120   29.0950   32.8490 N   0  0  0  0  0  0  0  0  0  0  0  0
   31.1120   28.7260   32.3790 H   0  0  0  0  0  0  0  0  0  0  0  0
   30.2780   29.4090   34.6320 H   0  0  0  0  0  0  0  0  0  0  0  0
   31.9510   30.1680   36.3450 H   0  0  0  0  0  0  0  0  0  0  0  0
  1  3  1  0  0  0  0
  1  2  1  0  0  0  0
  4  1  1  0  0  0  0
  4  8  1  0  0  0  0
  5  6  1  0  0  0  0
  5  4  2  0  0  0  0
  6  7  1  0  0  0  0
  7  8  2  0  0  0  0
  7 10  1  0  0  0  0
  9  5  1  0  0  0  0
 10 18  1  0  0  0  0
 11 10  1  0  0  0  0
 11 13  1  0  0  0  0
 12 11  1  0  0  0  0
 13 14  1  0  0  0  0
 13 15  1  0  0  0  0
 15 16  1  0  0  0  0
 15 17  1  0  0  0  0
 18 17  1  0  0  0  0
 19 26  1  0  0  0  0
 19  1  1  0  0  0  0
 20 19  1  0  0  0  0
 21 19  1  0  0  0  0
 22 23  1  0  0  0  0
 23 29  1  0  0  0  0
 23 24  2  0  0  0  0
 24 30  1  0  0  0  0
 25 24  1  0  0  0  0
 26 25  2  0  0  0  0
 27 22  2  0  0  0  0
 27 26  1  0  0  0  0
 28 22  1  0  0  0  0
M  END
>  <minimizedAffinity>
-4.81256056

$$$$

 OpenBabel03272506073D

 30 32  0  0  0  0  0  0  0  0999 V2000
   39.1940   25.8330   34.5440 C   0  0  0  0  0  0  0  0  0  0  0  0
   40.2010   25.7340   34.0910 H   0  0  0  0  0  0  0  0  0  0  0  0
   39.3680   26.3350   35.5280 H   0  0  0  0  0  0  0  0  0  0  0  0
   38.3240   26.7130   33.6950 C   0  0  0  0  0  0  0  0  0  0  0  0
   37.0710   27.1800   34.2380 C   0  0  0  0  0  0  0  0  0  0  0  0
   36.4560   28.1430   32.8830 S   0  0  0  0  0  0  0  0  0  0  0  0
   37.9360   27.8040   31.7750 C   0  0  0  0  0  0  0  0  0  0  0  0
   38.6060   27.1030   32.4800 N   0  0  0  0  0  0  0  0  0  0  0  0
   36.6740   26.9780   35.1860 H   0  0  0  0  0  0  0  0  0  0  0  0
   38.2410   28.2430   30.4210 N   0  0  0  0  0  0  0  0  0  0  0  0
   37.7130   29.5110   30.0320 C   0  0  0  0  0  3  0  0  0  0  0  0
   38.2800   30.3740   30.4900 H   0  0  0  0  0  0  0  0  0  0  0  0
   37.6850   29.7400   28.5570 C   0  0  0  0  0  3  0  0  0  0  0  0
   38.4470   30.5120   28.2420 H   0  0  0  0  0  0  0  0  0  0  0  0
   38.0440   28.5600   27.7760 N   0  0  0  0  0  0  0  0  0  0  0  0
   38.2210   28.9120   26.7910 H   0  0  0  0  0  0  0  0  0  0  0  0
   39.3340   28.1200   28.2920 C   0  0  0  0  0  2  0  0  0  0  0  0
   39.0410   27.3890   29.5730 C   0  0  0  0  0  2  0  0  0  0  0  0
   38.6100   24.4860   34.7340 C   0  0  0  0  0  0  0  0  0  0  0  0
   39.1200   23.6860   34.1310 H   0  0  0  0  0  0  0  0  0  0  0  0
   37.5350   24.5050   34.4450 H   0  0  0  0  0  0  0  0  0  0  0  0
   37.9540   24.1560   38.3780 C   0  0  0  0  0  0  0  0  0  0  0  0
   38.9560   23.2790   38.7930 C   0  0  0  0  0  0  0  0  0  0  0  0
   39.8500   22.8080   37.8170 C   0  0  0  0  0  0  0  0  0  0  0  0
   39.7000   23.2210   36.5330 N   0  0  0  0  0  0  0  0  0  0  0  0
   38.7030   24.0770   36.1910 C   0  0  0  0  0  0  0  0  0  0  0  0
   37.8470   24.5340   37.0980 N   0  0  0  0  0  0  0  0  0  0  0  0
   37.2500   24.5380   39.0980 H   0  0  0  0  0  0  0  0  0  0  0  0
   39.0530   22.9670   39.8190 H   0  0  0  0  0  0  0  0  0  0  0  0
   40.6580   22.1160   38.0850 H   0  0  0  0  0  0  0  0  0  0  0  0
  1 19  1  0  0  0  0
  1  3  1  0  0  0  0
  2  1  1  0  0  0  0
  4  5  2  0  0  0  0
  4  1  1  0  0  0  0
  5  9  1  0  0  0  0
  6  5  1  0  0  0  0
  7  8  2  0  0  0  0
  7  6  1  0  0  0  0
  8  4  1  0  0  0  0
 10  7  1  0  0  0  0
 11 10  1  0  0  0  0
 11 12  1  0  0  0  0
 13 11  1  0  0  0  0
 14 13  1  0  0  0  0
 15 17  1  0  0  0  0
 15 13  1  0  0  0  0
 16 15  1  0  0  0  0
 17 18  1  0  0  0  0
 18 10  1  0  0  0  0
 19 26  1  0  0  0  0
 20 19  1  0  0  0  0
 21 19  1  0  0  0  0
 22 23  1  0  0  0  0
 22 28  1  0  0  0  0
 23 29  1  0  0  0  0
 24 30  1  0  0  0  0
 24 23  2  0  0  0  0
 25 24  1  0  0  0  0
 26 25  2  0  0  0  0
 26 27  1  0  0  0  0
 27 22  2  0  0  0  0
M  END
>  <minimizedAffinity>
-4.76828337

$$$$

 OpenBabel03272506073D

 30 32  0  0  0  0  0  0  0  0999 V2000
   37.8880   27.0420   33.9730 C   0  0  0  0  0  0  0  0  0  0  0  0
   37.7130   26.0320   33.5520 H   0  0  0  0  0  0  0  0  0  0  0  0
   38.7990   27.4220   33.4470 H   0  0  0  0  0  0  0  0  0  0  0  0
   36.7310   27.9450   33.6570 C   0  0  0  0  0  0  0  0  0  0  0  0
   36.0460   27.7780   32.3970 C   0  0  0  0  0  0  0  0  0  0  0  0
   34.8110   29.0430   32.5170 S   0  0  0  0  0  0  0  0  0  0  0  0
   35.3600   29.6280   34.2160 C   0  0  0  0  0  0  0  0  0  0  0  0
   36.2790   28.8900   34.4370 N   0  0  0  0  0  0  0  0  0  0  0  0
   36.2590   27.0800   31.6460 H   0  0  0  0  0  0  0  0  0  0  0  0
   34.8490   30.6840   35.0780 N   0  0  0  0  0  0  0  0  0  0  0  0
   33.4550   30.9710   34.9710 C   0  0  0  0  0  3  0  0  0  0  0  0
   32.8120   30.1880   35.4710 H   0  0  0  0  0  0  0  0  0  0  0  0
   33.0530   32.2930   35.5370 C   0  0  0  0  0  3  0  0  0  0  0  0
   32.4540   32.1720   36.4870 H   0  0  0  0  0  0  0  0  0  0  0  0
   34.1830   33.1220   35.9440 N   0  0  0  0  0  0  0  0  0  0  0  0
   33.7690   33.8990   36.5360 H   0  0  0  0  0  0  0  0  0  0  0  0
   34.9770   32.2970   36.8460 C   0  0  0  0  0  2  0  0  0  0  0  0
   35.7630   31.3610   35.9700 C   0  0  0  0  0  2  0  0  0  0  0  0
   38.1260   26.9290   35.4300 C   0  0  0  0  0  0  0  0  0  0  0  0
   37.3540   27.4570   36.0540 H   0  0  0  0  0  0  0  0  0  0  0  0
   39.1230   27.3560   35.6760 H   0  0  0  0  0  0  0  0  0  0  0  0
   38.0000   23.8170   37.4610 C   0  0  0  0  0  0  0  0  0  0  0  0
   38.1120   22.8160   36.4970 C   0  0  0  0  0  0  0  0  0  0  0  0
   38.2300   23.2170   35.1570 C   0  0  0  0  0  0  0  0  0  0  0  0
   38.2300   24.5420   34.8630 N   0  0  0  0  0  0  0  0  0  0  0  0
   38.1180   25.4710   35.8470 C   0  0  0  0  0  0  0  0  0  0  0  0
   38.0050   25.1130   37.1220 N   0  0  0  0  0  0  0  0  0  0  0  0
   37.9080   23.5480   38.5000 H   0  0  0  0  0  0  0  0  0  0  0  0
   38.1100   21.7710   36.7570 H   0  0  0  0  0  0  0  0  0  0  0  0
   38.3210   22.4740   34.3550 H   0  0  0  0  0  0  0  0  0  0  0  0
  1 19  1  0  0  0  0
  2  1  1  0  0  0  0
  3  1  1  0  0  0  0
  4  1  1  0  0  0  0
  4  8  1  0  0  0  0
  5  6  1  0  0  0  0
  5  4  2  0  0  0  0
  6  7  1  0  0  0  0
  7  8  2  0  0  0  0
  7 10  1  0  0  0  0
  9  5  1  0  0  0  0
 10 18  1  0  0  0  0
 11 10  1  0  0  0  0
 11 12  1  0  0  0  0
 11 13  1  0  0  0  0
 13 15  1  0  0  0  0
 13 14  1  0  0  0  0
 15 16  1  0  0  0  0
 15 17  1  0  0  0  0
 18 17  1  0  0  0  0
 19 21  1  0  0  0  0
 19 26  1  0  0  0  0
 19 20  1  0  0  0  0
 22 28  1  0  0  0  0
 23 29  1  0  0  0  0
 23 22  2  0  0  0  0
 24 23  1  0  0  0  0
 25 24  2  0  0  0  0
 25 26  1  0  0  0  0
 26 27  2  0  0  0  0
 27 22  1  0  0  0  0
 30 24  1  0  0  0  0
M  END
>  <minimizedAffinity>
-4.68785381

$$$$

 OpenBabel03272506073D

 30 32  0  0  0  0  0  0  0  0999 V2000
   38.6520   25.8950   31.6010 C   0  0  0  0  0  0  0  0  0  0  0  0
   39.0630   26.8560   31.2270 H   0  0  0  0  0  0  0  0  0  0  0  0
   39.4690   25.1490   31.4360 H   0  0  0  0  0  0  0  0  0  0  0  0
   38.3670   25.9890   33.0720 C   0  0  0  0  0  0  0  0  0  0  0  0
   37.6960   27.1650   33.5730 C   0  0  0  0  0  0  0  0  0  0  0  0
   37.6050   26.7870   35.3030 S   0  0  0  0  0  0  0  0  0  0  0  0
   38.4660   25.1240   35.1370 C   0  0  0  0  0  0  0  0  0  0  0  0
   38.6780   25.0810   33.9580 N   0  0  0  0  0  0  0  0  0  0  0  0
   37.3690   27.9930   33.0230 H   0  0  0  0  0  0  0  0  0  0  0  0
   38.8090   24.1180   36.1330 N   0  0  0  0  0  0  0  0  0  0  0  0
   37.9460   24.0290   37.2660 C   0  0  0  0  0  3  0  0  0  0  0  0
   36.9660   23.5220   37.0250 H   0  0  0  0  0  0  0  0  0  0  0  0
   38.5360   23.3070   38.4330 C   0  0  0  0  0  3  0  0  0  0  0  0
   38.0410   22.3040   38.5930 H   0  0  0  0  0  0  0  0  0  0  0  0
   39.9460   22.9720   38.2610 N   0  0  0  0  0  0  0  0  0  0  0  0
   40.1680   22.2700   39.0230 H   0  0  0  0  0  0  0  0  0  0  0  0
   40.0320   22.2490   36.9990 C   0  0  0  0  0  2  0  0  0  0  0  0
   39.9740   23.2910   35.9170 C   0  0  0  0  0  2  0  0  0  0  0  0
   37.4460   25.5430   30.8190 C   0  0  0  0  0  0  0  0  0  0  0  0
   37.5410   25.7670   29.7210 H   0  0  0  0  0  0  0  0  0  0  0  0
   36.5710   26.1060   31.2130 H   0  0  0  0  0  0  0  0  0  0  0  0
   37.7770   21.8400   30.7590 C   0  0  0  0  0  0  0  0  0  0  0  0
   36.5330   21.4120   31.2210 C   0  0  0  0  0  0  0  0  0  0  0  0
   35.5890   22.4000   31.5490 C   0  0  0  0  0  0  0  0  0  0  0  0
   35.9250   23.7060   31.4040 N   0  0  0  0  0  0  0  0  0  0  0  0
   37.1550   24.0600   30.9490 C   0  0  0  0  0  0  0  0  0  0  0  0
   38.0620   23.1430   30.6330 N   0  0  0  0  0  0  0  0  0  0  0  0
   38.5270   21.1120   30.4970 H   0  0  0  0  0  0  0  0  0  0  0  0
   36.2910   20.3680   31.3260 H   0  0  0  0  0  0  0  0  0  0  0  0
   34.5930   22.1230   31.9180 H   0  0  0  0  0  0  0  0  0  0  0  0
  1  4  1  0  0  0  0
  2  1  1  0  0  0  0
  3  1  1  0  0  0  0
  4  5  2  0  0  0  0
  4  8  1  0  0  0  0
  5  6  1  0  0  0  0
  7  6  1  0  0  0  0
  7 10  1  0  0  0  0
  8  7  2  0  0  0  0
  9  5  1  0  0  0  0
 10 11  1  0  0  0  0
 11 13  1  0  0  0  0
 12 11  1  0  0  0  0
 13 14  1  0  0  0  0
 15 13  1  0  0  0  0
 15 16  1  0  0  0  0
 17 15  1  0  0  0  0
 18 10  1  0  0  0  0
 18 17  1  0  0  0  0
 19 26  1  0  0  0  0
 19 21  1  0  0  0  0
 19  1  1  0  0  0  0
 20 19  1  0  0  0  0
 22 23  1  0  0  0  0
 23 29  1  0  0  0  0
 23 24  2  0  0  0  0
 24 30  1  0  0  0  0
 25 24  1  0  0  0  0
 26 25  2  0  0  0  0
 27 22  2  0  0  0  0
 27 26  1  0  0  0  0
 28 22  1  0  0  0  0
M  END
>  <minimizedAffinity>
-4.6500473

$$$$

 OpenBabel03272506073D

 30 32  0  0  0  0  0  0  0  0999 V2000
   36.1350   23.6160   31.8160 C   0  0  0  0  0  0  0  0  0  0  0  0
   35.4330   23.7410   32.6650 H   0  0  0  0  0  0  0  0  0  0  0  0
   36.1750   24.6200   31.3250 H   0  0  0  0  0  0  0  0  0  0  0  0
   37.5050   23.2650   32.3200 C   0  0  0  0  0  0  0  0  0  0  0  0
   38.5130   22.8670   31.3670 C   0  0  0  0  0  0  0  0  0  0  0  0
   39.8920   22.5720   32.4410 S   0  0  0  0  0  0  0  0  0  0  0  0
   38.9560   23.0140   34.0100 C   0  0  0  0  0  0  0  0  0  0  0  0
   37.8740   23.2880   33.5730 N   0  0  0  0  0  0  0  0  0  0  0  0
   38.4100   22.7890   30.3280 H   0  0  0  0  0  0  0  0  0  0  0  0
   39.3780   23.0350   35.4030 N   0  0  0  0  0  0  0  0  0  0  0  0
   40.7540   23.3250   35.6450 C   0  0  0  0  0  3  0  0  0  0  0  0
   40.9970   24.4190   35.5060 H   0  0  0  0  0  0  0  0  0  0  0  0
   41.2350   22.9390   37.0050 C   0  0  0  0  0  3  0  0  0  0  0  0
   41.4390   23.8470   37.6450 H   0  0  0  0  0  0  0  0  0  0  0  0
   40.2540   22.1850   37.7790 N   0  0  0  0  0  0  0  0  0  0  0  0
   40.6120   22.1890   38.7770 H   0  0  0  0  0  0  0  0  0  0  0  0
   39.0390   22.9900   37.7750 C   0  0  0  0  0  2  0  0  0  0  0  0
   38.3990   22.7700   36.4330 C   0  0  0  0  0  2  0  0  0  0  0  0
   35.6020   22.5930   30.8880 C   0  0  0  0  0  0  0  0  0  0  0  0
   36.1920   22.5000   29.9350 H   0  0  0  0  0  0  0  0  0  0  0  0
   34.5520   22.8460   30.6230 H   0  0  0  0  0  0  0  0  0  0  0  0
   35.2290   19.8540   33.3730 C   0  0  0  0  0  0  0  0  0  0  0  0
   35.6590   18.7330   32.6630 C   0  0  0  0  0  0  0  0  0  0  0  0
   36.0750   18.9280   31.3360 C   0  0  0  0  0  0  0  0  0  0  0  0
   36.0390   20.1780   30.8110 N   0  0  0  0  0  0  0  0  0  0  0  0
   35.6090   21.2310   31.5540 C   0  0  0  0  0  0  0  0  0  0  0  0
   35.2120   21.0690   32.8110 N   0  0  0  0  0  0  0  0  0  0  0  0
   34.9030   19.7440   34.3940 H   0  0  0  0  0  0  0  0  0  0  0  0
   35.6780   17.7510   33.1040 H   0  0  0  0  0  0  0  0  0  0  0  0
   36.4230   18.0830   30.7280 H   0  0  0  0  0  0  0  0  0  0  0  0
  1  4  1  0  0  0  0
  1  2  1  0  0  0  0
  3  1  1  0  0  0  0
  4  8  1  0  0  0  0
  5  4  2  0  0  0  0
  5  6  1  0  0  0  0
  6  7  1  0  0  0  0
  7 10  1  0  0  0  0
  8  7  2  0  0  0  0
  9  5  1  0  0  0  0
 10 11  1  0  0  0  0
 10 18  1  0  0  0  0
 11 13  1  0  0  0  0
 12 11  1  0  0  0  0
 13 14  1  0  0  0  0
 13 15  1  0  0  0  0
 15 16  1  0  0  0  0
 17 15  1  0  0  0  0
 18 17  1  0  0  0  0
 19 26  1  0  0  0  0
 19  1  1  0  0  0  0
 20 19  1  0  0  0  0
 21 19  1  0  0  0  0
 22 28  1  0  0  0  0
 23 29  1  0  0  0  0
 23 22  2  0  0  0  0
 24 23  1  0  0  0  0
 25 24  2  0  0  0  0
 25 26  1  0  0  0  0
 26 27  2  0  0  0  0
 27 22  1  0  0  0  0
 30 24  1  0  0  0  0
M  END
>  <minimizedAffinity>
-4.55555248

$$$$
