
 OpenBabel03272501093D

 40 43  0  0  1  0  0  0  0  0999 V2000
   37.9230   27.9060   31.3650 C   0  0  2  0  0  0  0  0  0  0  0  0
   36.6070   28.4540   30.7190 C   0  0  2  0  0  0  0  0  0  0  0  0
   37.1340   29.0380   29.4950 C   0  0  0  0  0  0  0  0  0  0  0  0
   38.1460   28.2100   29.0340 O   0  0  0  0  0  0  0  0  0  0  0  0
   38.5160   27.3700   30.0340 C   0  0  0  0  0  0  0  0  0  0  0  0
   38.5660   28.7190   31.6900 H   0  0  0  0  0  0  0  0  0  0  0  0
   36.0140   27.5270   30.4970 H   0  0  0  0  0  0  0  0  0  0  0  0
   37.6070   30.0210   29.6840 H   0  0  0  0  0  0  0  0  0  0  0  0
   36.3700   29.2410   28.6960 H   0  0  0  0  0  0  0  0  0  0  0  0
   39.5930   27.1910   30.1340 H   0  0  0  0  0  0  0  0  0  0  0  0
   38.0080   26.3880   29.8810 H   0  0  0  0  0  0  0  0  0  0  0  0
   35.4270   31.4420   32.6780 C   0  0  0  0  0  0  0  0  0  0  0  0
   36.1840   30.6610   31.7660 C   0  0  0  0  0  0  0  0  0  0  0  0
   35.8620   29.2920   31.6240 C   0  0  0  0  0  0  0  0  0  0  0  0
   34.8330   28.7730   32.3740 N   0  0  0  0  0  0  0  0  0  0  0  0
   34.1420   29.5420   33.2240 C   0  0  0  0  0  0  0  0  0  0  0  0
   34.4210   30.8640   33.3880 N   0  0  0  0  0  0  0  0  0  0  0  0
   35.6930   32.4870   32.7670 H   0  0  0  0  0  0  0  0  0  0  0  0
   36.9690   31.1600   31.2270 H   0  0  0  0  0  0  0  0  0  0  0  0
   33.3510   29.0560   33.7740 H   0  0  0  0  0  0  0  0  0  0  0  0
   37.6850   26.8550   32.1920 O   0  0  0  0  0  0  0  0  0  0  0  0
   38.3820   23.9820   33.0620 Cl  0  0  0  0  0  0  0  0  0  0  0  0
   38.2440   25.3570   34.1280 C   0  0  0  0  0  0  0  0  0  0  0  0
   37.9150   26.5410   33.4820 C   0  0  0  0  0  0  0  0  0  0  0  0
   37.7910   27.6420   34.3140 C   0  0  0  0  0  0  0  0  0  0  0  0
   37.9780   27.5800   35.6840 C   0  0  0  0  0  0  0  0  0  0  0  0
   38.3050   26.3610   36.2530 C   0  0  0  0  0  0  0  0  0  0  0  0
   38.4420   25.2290   35.4700 C   0  0  0  0  0  0  0  0  0  0  0  0
   37.5340   28.6470   33.9420 H   0  0  0  0  0  0  0  0  0  0  0  0
   37.8670   28.4820   36.2970 H   0  0  0  0  0  0  0  0  0  0  0  0
   38.4320   26.4280   37.3240 H   0  0  0  0  0  0  0  0  0  0  0  0
   38.7990   24.0150   36.1110 N   0  0  0  0  0  0  0  0  0  0  0  0
   37.8930   23.1860   36.8730 C   0  0  0  0  0  3  0  0  0  0  0  0
   36.8260   23.4770   36.7810 H   0  0  0  0  0  0  0  0  0  0  0  0
   38.3600   23.2740   38.3090 C   0  0  0  0  0  3  0  0  0  0  0  0
   37.5960   22.8860   39.0110 H   0  0  0  0  0  0  0  0  0  0  0  0
   39.6080   22.5910   38.4250 N   0  0  0  0  0  0  0  0  0  0  0  0
   39.5350   21.7380   38.9900 H   0  0  0  0  0  0  0  0  0  0  0  0
   40.2570   22.3440   37.1860 C   0  0  0  0  0  2  0  0  0  0  0  0
   40.0940   23.4170   36.1370 C   0  0  0  0  0  2  0  0  0  0  0  0
  1  6  1  1  0  0  0
  1 21  1  0  0  0  0
  2  7  1  6  0  0  0
  2  1  1  0  0  0  0
  2 14  1  0  0  0  0
  3  8  1  0  0  0  0
  3  2  1  0  0  0  0
  4  3  1  0  0  0  0
  4  5  1  0  0  0  0
  5 10  1  0  0  0  0
  5  1  1  0  0  0  0
  9  3  1  0  0  0  0
 11  5  1  0  0  0  0
 12 18  1  0  0  0  0
 12 17  1  0  0  0  0
 13 12  2  0  0  0  0
 14 13  1  0  0  0  0
 14 15  2  0  0  0  0
 15 16  1  0  0  0  0
 16 17  2  0  0  0  0
 16 20  1  0  0  0  0
 19 13  1  0  0  0  0
 21 24  1  0  0  0  0
 22 23  1  0  0  0  0
 23 28  1  0  0  0  0
 24 23  2  0  0  0  0
 24 25  1  0  0  0  0
 25 26  2  0  0  0  0
 26 27  1  0  0  0  0
 26 30  1  0  0  0  0
 27 31  1  0  0  0  0
 28 32  1  0  0  0  0
 28 27  2  0  0  0  0
 29 25  1  0  0  0  0
 32 40  1  0  0  0  0
 32 33  1  0  0  0  0
 33 35  1  0  0  0  0
 34 33  1  0  0  0  0
 35 37  1  0  0  0  0
 35 36  1  0  0  0  0
 37 38  1  0  0  0  0
 39 37  1  0  0  0  0
 40 39  1  0  0  0  0
M  END
>  <minimizedAffinity>
-6.0497508

$$$$

 OpenBabel03272501093D

 40 43  0  0  1  0  0  0  0  0999 V2000
   36.9930   28.1470   32.2580 C   0  0  2  0  0  0  0  0  0  0  0  0
   35.8180   29.0490   31.7530 C   0  0  2  0  0  0  0  0  0  0  0  0
   36.5550   30.0490   30.9960 C   0  0  0  0  0  0  0  0  0  0  0  0
   37.6030   29.4050   30.3560 O   0  0  0  0  0  0  0  0  0  0  0  0
   37.7780   28.1830   30.9190 C   0  0  0  0  0  0  0  0  0  0  0  0
   37.5990   28.6710   32.9920 H   0  0  0  0  0  0  0  0  0  0  0  0
   35.2410   28.3740   31.0670 H   0  0  0  0  0  0  0  0  0  0  0  0
   37.0210   30.8010   31.6620 H   0  0  0  0  0  0  0  0  0  0  0  0
   35.9390   30.6530   30.2750 H   0  0  0  0  0  0  0  0  0  0  0  0
   38.8190   27.8720   31.0720 H   0  0  0  0  0  0  0  0  0  0  0  0
   37.2720   27.4200   30.2820 H   0  0  0  0  0  0  0  0  0  0  0  0
   34.6120   30.5710   34.9760 C   0  0  0  0  0  0  0  0  0  0  0  0
   35.4960   30.1730   33.9390 C   0  0  0  0  0  0  0  0  0  0  0  0
   34.9610   29.4830   32.8270 C   0  0  0  0  0  0  0  0  0  0  0  0
   33.6110   29.2240   32.7950 N   0  0  0  0  0  0  0  0  0  0  0  0
   32.8100   29.6150   33.7940 C   0  0  0  0  0  0  0  0  0  0  0  0
   33.2870   30.2820   34.8800 N   0  0  0  0  0  0  0  0  0  0  0  0
   35.0460   31.0970   35.8150 H   0  0  0  0  0  0  0  0  0  0  0  0
   36.5350   30.4220   34.0570 H   0  0  0  0  0  0  0  0  0  0  0  0
   31.7630   29.3720   33.6900 H   0  0  0  0  0  0  0  0  0  0  0  0
   36.5900   26.8720   32.4940 O   0  0  0  0  0  0  0  0  0  0  0  0
   37.8530   26.9110   35.3050 Cl  0  0  0  0  0  0  0  0  0  0  0  0
   37.7140   25.5070   34.2770 C   0  0  0  0  0  0  0  0  0  0  0  0
   37.1070   25.7600   33.0540 C   0  0  0  0  0  0  0  0  0  0  0  0
   36.9980   24.6600   32.2210 C   0  0  0  0  0  0  0  0  0  0  0  0
   37.4540   23.3990   32.5670 C   0  0  0  0  0  0  0  0  0  0  0  0
   38.0490   23.2280   33.8060 C   0  0  0  0  0  0  0  0  0  0  0  0
   38.1840   24.2930   34.6780 C   0  0  0  0  0  0  0  0  0  0  0  0
   36.5380   24.7090   31.2200 H   0  0  0  0  0  0  0  0  0  0  0  0
   37.3430   22.5620   31.8690 H   0  0  0  0  0  0  0  0  0  0  0  0
   38.3630   22.2080   33.9730 H   0  0  0  0  0  0  0  0  0  0  0  0
   38.7840   24.0470   35.9400 N   0  0  0  0  0  0  0  0  0  0  0  0
   40.1890   23.7870   36.1510 C   0  0  0  0  0  3  0  0  0  0  0  0
   40.8220   23.9660   35.2570 H   0  0  0  0  0  0  0  0  0  0  0  0
   40.2810   22.3470   36.6030 C   0  0  0  0  0  3  0  0  0  0  0  0
   41.3200   21.9670   36.5510 H   0  0  0  0  0  0  0  0  0  0  0  0
   39.7280   22.2460   37.9160 N   0  0  0  0  0  0  0  0  0  0  0  0
   40.4380   22.0250   38.6230 H   0  0  0  0  0  0  0  0  0  0  0  0
   38.9310   23.3560   38.3020 C   0  0  0  0  0  2  0  0  0  0  0  0
   38.1180   23.9920   37.2010 C   0  0  0  0  0  2  0  0  0  0  0  0
  1 21  1  0  0  0  0
  1  6  1  1  0  0  0
  2  7  1  6  0  0  0
  2  1  1  0  0  0  0
  2 14  1  0  0  0  0
  3  8  1  0  0  0  0
  3  2  1  0  0  0  0
  4  5  1  0  0  0  0
  4  3  1  0  0  0  0
  5 10  1  0  0  0  0
  5  1  1  0  0  0  0
  9  3  1  0  0  0  0
 11  5  1  0  0  0  0
 12 18  1  0  0  0  0
 13 19  1  0  0  0  0
 13 12  2  0  0  0  0
 14 13  1  0  0  0  0
 15 14  2  0  0  0  0
 15 16  1  0  0  0  0
 16 17  2  0  0  0  0
 17 12  1  0  0  0  0
 20 16  1  0  0  0  0
 21 24  1  0  0  0  0
 23 28  1  0  0  0  0
 23 22  1  0  0  0  0
 24 23  2  0  0  0  0
 25 26  2  0  0  0  0
 25 24  1  0  0  0  0
 26 27  1  0  0  0  0
 27 31  1  0  0  0  0
 27 28  2  0  0  0  0
 28 32  1  0  0  0  0
 29 25  1  0  0  0  0
 30 26  1  0  0  0  0
 32 33  1  0  0  0  0
 32 40  1  0  0  0  0
 33 35  1  0  0  0  0
 34 33  1  0  0  0  0
 35 37  1  0  0  0  0
 36 35  1  0  0  0  0
 37 39  1  0  0  0  0
 37 38  1  0  0  0  0
 40 39  1  0  0  0  0
M  END
>  <minimizedAffinity>
-5.82184076

$$$$

 OpenBabel03272501093D

 40 43  0  0  1  0  0  0  0  0999 V2000
   37.3710   26.8510   31.0530 C   0  0  2  0  0  0  0  0  0  0  0  0
   38.7640   27.5650   31.0370 C   0  0  2  0  0  0  0  0  0  0  0  0
   38.7600   28.1250   29.6950 C   0  0  0  0  0  0  0  0  0  0  0  0
   37.4700   28.5510   29.4180 O   0  0  0  0  0  0  0  0  0  0  0  0
   36.6210   27.9960   30.3200 C   0  0  0  0  0  0  0  0  0  0  0  0
   37.3650   25.9940   30.3850 H   0  0  0  0  0  0  0  0  0  0  0  0
   38.6560   28.3740   31.8080 H   0  0  0  0  0  0  0  0  0  0  0  0
   38.9980   27.3580   28.9330 H   0  0  0  0  0  0  0  0  0  0  0  0
   39.5120   28.9430   29.5170 H   0  0  0  0  0  0  0  0  0  0  0  0
   35.6650   27.6380   29.9190 H   0  0  0  0  0  0  0  0  0  0  0  0
   36.4100   28.7440   31.1190 H   0  0  0  0  0  0  0  0  0  0  0  0
   41.8290   26.1760   32.7190 C   0  0  0  0  0  0  0  0  0  0  0  0
   40.7870   27.0800   32.3840 C   0  0  0  0  0  0  0  0  0  0  0  0
   39.8350   26.6810   31.4190 C   0  0  0  0  0  0  0  0  0  0  0  0
   39.9570   25.4380   30.8430 N   0  0  0  0  0  0  0  0  0  0  0  0
   40.9550   24.6140   31.1850 C   0  0  0  0  0  0  0  0  0  0  0  0
   41.8900   24.9620   32.1100 N   0  0  0  0  0  0  0  0  0  0  0  0
   42.5440   26.5060   33.4600 H   0  0  0  0  0  0  0  0  0  0  0  0
   40.7790   28.0290   32.8900 H   0  0  0  0  0  0  0  0  0  0  0  0
   40.9780   23.6580   30.6850 H   0  0  0  0  0  0  0  0  0  0  0  0
   36.8710   26.7370   32.3110 O   0  0  0  0  0  0  0  0  0  0  0  0
   37.6160   23.8760   33.1830 Cl  0  0  0  0  0  0  0  0  0  0  0  0
   37.7560   25.3060   34.1740 C   0  0  0  0  0  0  0  0  0  0  0  0
   37.3490   26.4730   33.5430 C   0  0  0  0  0  0  0  0  0  0  0  0
   37.4430   27.6160   34.3190 C   0  0  0  0  0  0  0  0  0  0  0  0
   37.9050   27.6110   35.6230 C   0  0  0  0  0  0  0  0  0  0  0  0
   38.2930   26.4040   36.1820 C   0  0  0  0  0  0  0  0  0  0  0  0
   38.2200   25.2310   35.4530 C   0  0  0  0  0  0  0  0  0  0  0  0
   37.1560   28.6150   33.9510 H   0  0  0  0  0  0  0  0  0  0  0  0
   37.9590   28.5450   36.1940 H   0  0  0  0  0  0  0  0  0  0  0  0
   38.6400   26.5150   37.2000 H   0  0  0  0  0  0  0  0  0  0  0  0
   38.6510   24.0320   36.0760 N   0  0  0  0  0  0  0  0  0  0  0  0
   37.8330   23.2050   36.9330 C   0  0  0  0  0  3  0  0  0  0  0  0
   36.7580   23.4810   36.9370 H   0  0  0  0  0  0  0  0  0  0  0  0
   38.4310   23.3220   38.3170 C   0  0  0  0  0  3  0  0  0  0  0  0
   37.7410   22.9360   39.0930 H   0  0  0  0  0  0  0  0  0  0  0  0
   39.6930   22.6560   38.3250 N   0  0  0  0  0  0  0  0  0  0  0  0
   39.6850   21.8110   38.9080 H   0  0  0  0  0  0  0  0  0  0  0  0
   40.2270   22.3970   37.0360 C   0  0  0  0  0  2  0  0  0  0  0  0
   39.9510   23.4500   35.9900 C   0  0  0  0  0  2  0  0  0  0  0  0
  1  6  1  6  0  0  0
  1 21  1  0  0  0  0
  2  1  1  0  0  0  0
  2 14  1  0  0  0  0
  2  7  1  1  0  0  0
  3  2  1  0  0  0  0
  4  3  1  0  0  0  0
  4  5  1  0  0  0  0
  5  1  1  0  0  0  0
  5 11  1  0  0  0  0
  8  3  1  0  0  0  0
  9  3  1  0  0  0  0
 10  5  1  0  0  0  0
 12 18  1  0  0  0  0
 13 12  1  0  0  0  0
 13 19  1  0  0  0  0
 14 13  2  0  0  0  0
 15 16  2  0  0  0  0
 15 14  1  0  0  0  0
 16 17  1  0  0  0  0
 17 12  2  0  0  0  0
 20 16  1  0  0  0  0
 21 24  1  0  0  0  0
 22 23  1  0  0  0  0
 23 28  1  0  0  0  0
 24 23  2  0  0  0  0
 24 25  1  0  0  0  0
 25 26  2  0  0  0  0
 26 27  1  0  0  0  0
 26 30  1  0  0  0  0
 27 31  1  0  0  0  0
 28 32  1  0  0  0  0
 28 27  2  0  0  0  0
 29 25  1  0  0  0  0
 32 33  1  0  0  0  0
 33 34  1  0  0  0  0
 33 35  1  0  0  0  0
 35 37  1  0  0  0  0
 35 36  1  0  0  0  0
 37 38  1  0  0  0  0
 39 37  1  0  0  0  0
 40 32  1  0  0  0  0
 40 39  1  0  0  0  0
M  END
>  <minimizedAffinity>
-5.80687761

$$$$

 OpenBabel03272501093D

 40 43  0  0  1  0  0  0  0  0999 V2000
   38.9190   26.0630   33.8610 C   0  0  2  0  0  0  0  0  0  0  0  0
   38.4490   25.4610   35.2280 C   0  0  2  0  0  0  0  0  0  0  0  0
   38.2050   26.6780   35.9860 C   0  0  0  0  0  0  0  0  0  0  0  0
   37.6570   27.6110   35.1200 O   0  0  0  0  0  0  0  0  0  0  0  0
   37.8620   27.2000   33.8430 C   0  0  0  0  0  0  0  0  0  0  0  0
   39.8900   26.5400   33.9590 H   0  0  0  0  0  0  0  0  0  0  0  0
   37.4840   24.9470   34.9730 H   0  0  0  0  0  0  0  0  0  0  0  0
   39.1490   27.1230   36.3560 H   0  0  0  0  0  0  0  0  0  0  0  0
   37.5730   26.5470   36.9070 H   0  0  0  0  0  0  0  0  0  0  0  0
   38.1460   27.9820   33.1290 H   0  0  0  0  0  0  0  0  0  0  0  0
   36.9320   26.7070   33.4730 H   0  0  0  0  0  0  0  0  0  0  0  0
   39.9420   22.6440   37.2260 C   0  0  0  0  0  0  0  0  0  0  0  0
   38.9830   23.5700   36.7400 C   0  0  0  0  0  0  0  0  0  0  0  0
   39.3820   24.4940   35.7470 C   0  0  0  0  0  0  0  0  0  0  0  0
   40.6810   24.4590   35.2950 N   0  0  0  0  0  0  0  0  0  0  0  0
   41.5570   23.5700   35.7790 C   0  0  0  0  0  0  0  0  0  0  0  0
   41.2100   22.6650   36.7340 N   0  0  0  0  0  0  0  0  0  0  0  0
   39.6110   21.9480   37.9850 H   0  0  0  0  0  0  0  0  0  0  0  0
   37.9940   23.5170   37.1580 H   0  0  0  0  0  0  0  0  0  0  0  0
   42.5540   23.6110   35.3700 H   0  0  0  0  0  0  0  0  0  0  0  0
   38.6740   25.2230   32.8230 O   0  0  0  0  0  0  0  0  0  0  0  0
   39.0110   22.1980   33.3100 Cl  0  0  0  0  0  0  0  0  0  0  0  0
   37.6190   22.9580   32.5800 C   0  0  0  0  0  0  0  0  0  0  0  0
   37.7200   24.3380   32.4720 C   0  0  0  0  0  0  0  0  0  0  0  0
   36.6280   24.9570   31.8870 C   0  0  0  0  0  0  0  0  0  0  0  0
   35.5160   24.2660   31.4390 C   0  0  0  0  0  0  0  0  0  0  0  0
   35.4910   22.8880   31.5820 C   0  0  0  0  0  0  0  0  0  0  0  0
   36.5530   22.2180   32.1610 C   0  0  0  0  0  0  0  0  0  0  0  0
   36.5680   26.0470   31.7350 H   0  0  0  0  0  0  0  0  0  0  0  0
   34.6790   24.8040   30.9810 H   0  0  0  0  0  0  0  0  0  0  0  0
   34.5770   22.4520   31.2050 H   0  0  0  0  0  0  0  0  0  0  0  0
   36.4580   20.8100   32.2980 N   0  0  0  0  0  0  0  0  0  0  0  0
   37.2410   19.8510   31.5530 C   0  0  0  0  0  3  0  0  0  0  0  0
   38.0730   20.3010   30.9700 H   0  0  0  0  0  0  0  0  0  0  0  0
   36.2670   19.1350   30.6460 C   0  0  0  0  0  3  0  0  0  0  0  0
   36.7900   18.5610   29.8560 H   0  0  0  0  0  0  0  0  0  0  0  0
   35.4190   18.3120   31.4480 N   0  0  0  0  0  0  0  0  0  0  0  0
   35.5820   17.3120   31.2890 H   0  0  0  0  0  0  0  0  0  0  0  0
   35.4320   18.6320   32.8310 C   0  0  0  0  0  2  0  0  0  0  0  0
   35.5720   20.0990   33.1620 C   0  0  0  0  0  2  0  0  0  0  0  0
  1  6  1  1  0  0  0
  1  2  1  0  0  0  0
  2  7  1  6  0  0  0
  2 14  1  0  0  0  0
  2  3  1  0  0  0  0
  3  8  1  0  0  0  0
  3  9  1  0  0  0  0
  4  3  1  0  0  0  0
  5  1  1  0  0  0  0
  5  4  1  0  0  0  0
 10  5  1  0  0  0  0
 11  5  1  0  0  0  0
 12 18  1  0  0  0  0
 13 19  1  0  0  0  0
 13 12  1  0  0  0  0
 14 13  2  0  0  0  0
 15 14  1  0  0  0  0
 15 16  2  0  0  0  0
 16 17  1  0  0  0  0
 17 12  2  0  0  0  0
 20 16  1  0  0  0  0
 21  1  1  0  0  0  0
 23 22  1  0  0  0  0
 24 23  1  0  0  0  0
 24 21  1  0  0  0  0
 25 24  2  0  0  0  0
 26 27  2  0  0  0  0
 26 25  1  0  0  0  0
 27 28  1  0  0  0  0
 28 32  1  0  0  0  0
 28 23  2  0  0  0  0
 29 25  1  0  0  0  0
 30 26  1  0  0  0  0
 31 27  1  0  0  0  0
 32 40  1  0  0  0  0
 33 32  1  0  0  0  0
 34 33  1  0  0  0  0
 35 37  1  0  0  0  0
 35 33  1  0  0  0  0
 36 35  1  0  0  0  0
 37 39  1  0  0  0  0
 38 37  1  0  0  0  0
 39 40  1  0  0  0  0
M  END
>  <minimizedAffinity>
-5.69469166

$$$$

 OpenBabel03272501093D

 40 43  0  0  1  0  0  0  0  0999 V2000
   38.5870   26.9820   33.4710 C   0  0  2  0  0  0  0  0  0  0  0  0
   39.3330   26.3550   34.6970 C   0  0  2  0  0  0  0  0  0  0  0  0
   38.8380   27.2010   35.7720 C   0  0  0  0  0  0  0  0  0  0  0  0
   37.5050   27.4780   35.5100 O   0  0  0  0  0  0  0  0  0  0  0  0
   37.2380   27.1710   34.2160 C   0  0  0  0  0  0  0  0  0  0  0  0
   38.9660   27.9760   33.2510 H   0  0  0  0  0  0  0  0  0  0  0  0
   38.9020   25.3210   34.7700 H   0  0  0  0  0  0  0  0  0  0  0  0
   39.3550   28.1800   35.7900 H   0  0  0  0  0  0  0  0  0  0  0  0
   38.9790   26.7870   36.8080 H   0  0  0  0  0  0  0  0  0  0  0  0
   36.5960   27.8800   33.6790 H   0  0  0  0  0  0  0  0  0  0  0  0
   36.7590   26.1640   34.1790 H   0  0  0  0  0  0  0  0  0  0  0  0
   42.8890   25.1250   34.7470 C   0  0  0  0  0  0  0  0  0  0  0  0
   41.4880   25.1620   34.9760 C   0  0  0  0  0  0  0  0  0  0  0  0
   40.7550   26.2650   34.4830 C   0  0  0  0  0  0  0  0  0  0  0  0
   41.4260   27.2550   33.8030 N   0  0  0  0  0  0  0  0  0  0  0  0
   42.7480   27.1840   33.6070 C   0  0  0  0  0  0  0  0  0  0  0  0
   43.4880   26.1390   34.0670 N   0  0  0  0  0  0  0  0  0  0  0  0
   43.4270   24.2710   35.1350 H   0  0  0  0  0  0  0  0  0  0  0  0
   41.0580   24.3400   35.5190 H   0  0  0  0  0  0  0  0  0  0  0  0
   43.1960   28.0020   33.0650 H   0  0  0  0  0  0  0  0  0  0  0  0
   38.4110   26.0830   32.4690 O   0  0  0  0  0  0  0  0  0  0  0  0
   38.8180   23.1290   33.2490 Cl  0  0  0  0  0  0  0  0  0  0  0  0
   37.4530   23.7650   32.3670 C   0  0  0  0  0  0  0  0  0  0  0  0
   37.5130   25.1330   32.1400 C   0  0  0  0  0  0  0  0  0  0  0  0
   36.4430   25.6530   31.4330 C   0  0  0  0  0  0  0  0  0  0  0  0
   35.3870   24.8810   30.9800 C   0  0  0  0  0  0  0  0  0  0  0  0
   35.4000   23.5210   31.2470 C   0  0  0  0  0  0  0  0  0  0  0  0
   36.4440   22.9490   31.9500 C   0  0  0  0  0  0  0  0  0  0  0  0
   36.3550   26.7220   31.1790 H   0  0  0  0  0  0  0  0  0  0  0  0
   34.5640   25.3420   30.4240 H   0  0  0  0  0  0  0  0  0  0  0  0
   34.5290   23.0170   30.8540 H   0  0  0  0  0  0  0  0  0  0  0  0
   36.3880   21.5550   32.2090 N   0  0  0  0  0  0  0  0  0  0  0  0
   37.1320   20.5500   31.4860 C   0  0  0  0  0  3  0  0  0  0  0  0
   37.9070   20.9610   30.8060 H   0  0  0  0  0  0  0  0  0  0  0  0
   36.1050   19.7460   30.7190 C   0  0  0  0  0  3  0  0  0  0  0  0
   36.5780   19.1160   29.9400 H   0  0  0  0  0  0  0  0  0  0  0  0
   35.3380   18.9810   31.6500 N   0  0  0  0  0  0  0  0  0  0  0  0
   35.5090   17.9740   31.5610 H   0  0  0  0  0  0  0  0  0  0  0  0
   35.4500   19.4150   32.9960 C   0  0  0  0  0  2  0  0  0  0  0  0
   35.5860   20.9060   33.1950 C   0  0  0  0  0  2  0  0  0  0  0  0
  1  6  1  6  0  0  0
  1  5  1  0  0  0  0
  1  2  1  0  0  0  0
  2  7  1  1  0  0  0
  2  3  1  0  0  0  0
  3  8  1  0  0  0  0
  3  9  1  0  0  0  0
  4  3  1  0  0  0  0
  5  4  1  0  0  0  0
 10  5  1  0  0  0  0
 11  5  1  0  0  0  0
 12 13  1  0  0  0  0
 12 18  1  0  0  0  0
 13 19  1  0  0  0  0
 14  2  1  0  0  0  0
 14 13  2  0  0  0  0
 15 14  1  0  0  0  0
 16 15  2  0  0  0  0
 16 17  1  0  0  0  0
 17 12  2  0  0  0  0
 20 16  1  0  0  0  0
 21  1  1  0  0  0  0
 23 22  1  0  0  0  0
 24 23  1  0  0  0  0
 24 21  1  0  0  0  0
 25 24  2  0  0  0  0
 26 27  2  0  0  0  0
 26 25  1  0  0  0  0
 27 28  1  0  0  0  0
 28 32  1  0  0  0  0
 28 23  2  0  0  0  0
 29 25  1  0  0  0  0
 30 26  1  0  0  0  0
 31 27  1  0  0  0  0
 32 40  1  0  0  0  0
 33 32  1  0  0  0  0
 34 33  1  0  0  0  0
 35 33  1  0  0  0  0
 35 37  1  0  0  0  0
 36 35  1  0  0  0  0
 37 39  1  0  0  0  0
 38 37  1  0  0  0  0
 39 40  1  0  0  0  0
M  END
>  <minimizedAffinity>
-5.62216568

$$$$

 OpenBabel03272501093D

 40 43  0  0  1  0  0  0  0  0999 V2000
   35.2430   30.8380   35.2300 C   0  0  2  0  0  0  0  0  0  0  0  0
   33.7580   31.2920   35.4320 C   0  0  2  0  0  0  0  0  0  0  0  0
   33.7880   31.6890   36.8310 C   0  0  0  0  0  0  0  0  0  0  0  0
   35.0090   32.2990   37.0700 O   0  0  0  0  0  0  0  0  0  0  0  0
   35.8540   32.0070   36.0500 C   0  0  0  0  0  0  0  0  0  0  0  0
   35.4500   29.9260   35.7830 H   0  0  0  0  0  0  0  0  0  0  0  0
   33.6620   32.1880   34.7630 H   0  0  0  0  0  0  0  0  0  0  0  0
   33.7490   30.8100   37.5040 H   0  0  0  0  0  0  0  0  0  0  0  0
   32.9300   32.3370   37.1610 H   0  0  0  0  0  0  0  0  0  0  0  0
   36.8880   31.7790   36.3360 H   0  0  0  0  0  0  0  0  0  0  0  0
   35.8670   32.8650   35.3380 H   0  0  0  0  0  0  0  0  0  0  0  0
   31.3410   28.4090   35.4960 C   0  0  0  0  0  0  0  0  0  0  0  0
   32.2550   29.3920   35.9580 C   0  0  0  0  0  0  0  0  0  0  0  0
   32.8180   30.2820   35.0150 C   0  0  0  0  0  0  0  0  0  0  0  0
   32.4580   30.1610   33.6930 N   0  0  0  0  0  0  0  0  0  0  0  0
   31.5930   29.2200   33.2970 C   0  0  0  0  0  0  0  0  0  0  0  0
   31.0300   28.3450   34.1730 N   0  0  0  0  0  0  0  0  0  0  0  0
   30.9250   27.7390   36.2360 H   0  0  0  0  0  0  0  0  0  0  0  0
   32.4720   29.4040   37.0110 H   0  0  0  0  0  0  0  0  0  0  0  0
   31.3660   29.1940   32.2420 H   0  0  0  0  0  0  0  0  0  0  0  0
   35.6400   30.9560   33.9370 O   0  0  0  0  0  0  0  0  0  0  0  0
   36.2560   27.9700   34.3900 Cl  0  0  0  0  0  0  0  0  0  0  0  0
   36.2330   28.7760   32.8420 C   0  0  0  0  0  0  0  0  0  0  0  0
   35.9300   30.1290   32.9140 C   0  0  0  0  0  0  0  0  0  0  0  0
   35.9170   30.7870   31.6950 C   0  0  0  0  0  0  0  0  0  0  0  0
   36.1830   30.1580   30.4910 C   0  0  0  0  0  0  0  0  0  0  0  0
   36.4770   28.8040   30.5040 C   0  0  0  0  0  0  0  0  0  0  0  0
   36.5030   28.0970   31.6920 C   0  0  0  0  0  0  0  0  0  0  0  0
   35.6930   31.8620   31.5970 H   0  0  0  0  0  0  0  0  0  0  0  0
   36.1610   30.7260   29.5550 H   0  0  0  0  0  0  0  0  0  0  0  0
   36.6630   28.4150   29.5130 H   0  0  0  0  0  0  0  0  0  0  0  0
   36.7900   26.7090   31.6350 N   0  0  0  0  0  0  0  0  0  0  0  0
   38.0880   26.1220   31.8780 C   0  0  0  0  0  3  0  0  0  0  0  0
   38.8340   26.8310   32.2960 H   0  0  0  0  0  0  0  0  0  0  0  0
   38.5480   25.5670   30.5490 C   0  0  0  0  0  3  0  0  0  0  0  0
   39.6280   25.3220   30.5610 H   0  0  0  0  0  0  0  0  0  0  0  0
   37.7350   24.4400   30.2210 N   0  0  0  0  0  0  0  0  0  0  0  0
   38.2610   23.5590   30.2420 H   0  0  0  0  0  0  0  0  0  0  0  0
   36.5310   24.3500   30.9680 C   0  0  0  0  0  2  0  0  0  0  0  0
   35.8730   25.6650   31.3110 C   0  0  0  0  0  2  0  0  0  0  0  0
  1  2  1  0  0  0  0
  1  6  1  1  0  0  0
  1  5  1  0  0  0  0
  2  7  1  6  0  0  0
  2  3  1  0  0  0  0
  3  4  1  0  0  0  0
  3  9  1  0  0  0  0
  3  8  1  0  0  0  0
  5 10  1  0  0  0  0
  5  4  1  0  0  0  0
 11  5  1  0  0  0  0
 12 13  1  0  0  0  0
 12 18  1  0  0  0  0
 13 19  1  0  0  0  0
 14  2  1  0  0  0  0
 14 13  2  0  0  0  0
 15 14  1  0  0  0  0
 16 15  2  0  0  0  0
 16 17  1  0  0  0  0
 17 12  2  0  0  0  0
 20 16  1  0  0  0  0
 21  1  1  0  0  0  0
 23 24  1  0  0  0  0
 23 22  1  0  0  0  0
 24 21  1  0  0  0  0
 25 24  2  0  0  0  0
 26 27  2  0  0  0  0
 26 25  1  0  0  0  0
 27 28  1  0  0  0  0
 28 23  2  0  0  0  0
 29 25  1  0  0  0  0
 30 26  1  0  0  0  0
 31 27  1  0  0  0  0
 32 28  1  0  0  0  0
 32 33  1  0  0  0  0
 33 34  1  0  0  0  0
 35 36  1  0  0  0  0
 35 33  1  0  0  0  0
 37 38  1  0  0  0  0
 37 35  1  0  0  0  0
 37 39  1  0  0  0  0
 39 40  1  0  0  0  0
 40 32  1  0  0  0  0
M  END
>  <minimizedAffinity>
-5.5712986

$$$$

 OpenBabel03272501093D

 40 43  0  0  1  0  0  0  0  0999 V2000
   35.6770   28.6680   32.1210 C   0  0  2  0  0  0  0  0  0  0  0  0
   36.0990   30.0710   31.5680 C   0  0  2  0  0  0  0  0  0  0  0  0
   34.7960   30.6970   31.4050 C   0  0  0  0  0  0  0  0  0  0  0  0
   33.9990   30.2930   32.4650 O   0  0  0  0  0  0  0  0  0  0  0  0
   34.5740   29.2200   33.0640 C   0  0  0  0  0  0  0  0  0  0  0  0
   35.1720   28.0840   31.3560 H   0  0  0  0  0  0  0  0  0  0  0  0
   36.6610   30.5340   32.4220 H   0  0  0  0  0  0  0  0  0  0  0  0
   34.2860   30.3420   30.4880 H   0  0  0  0  0  0  0  0  0  0  0  0
   34.8140   31.8170   31.3050 H   0  0  0  0  0  0  0  0  0  0  0  0
   33.8890   28.4190   33.3700 H   0  0  0  0  0  0  0  0  0  0  0  0
   35.1310   29.5700   33.9650 H   0  0  0  0  0  0  0  0  0  0  0  0
   37.9170   28.7140   28.5660 C   0  0  0  0  0  0  0  0  0  0  0  0
   37.0380   28.7680   29.6800 C   0  0  0  0  0  0  0  0  0  0  0  0
   36.9680   29.9680   30.4240 C   0  0  0  0  0  0  0  0  0  0  0  0
   37.7530   31.0310   30.0410 N   0  0  0  0  0  0  0  0  0  0  0  0
   38.5700   30.9400   28.9850 C   0  0  0  0  0  0  0  0  0  0  0  0
   38.6650   29.8030   28.2440 N   0  0  0  0  0  0  0  0  0  0  0  0
   37.9520   27.7850   28.0140 H   0  0  0  0  0  0  0  0  0  0  0  0
   36.4670   27.8830   29.8980 H   0  0  0  0  0  0  0  0  0  0  0  0
   39.1510   31.8200   28.7530 H   0  0  0  0  0  0  0  0  0  0  0  0
   36.6540   28.1030   32.8750 O   0  0  0  0  0  0  0  0  0  0  0  0
   38.0220   27.4670   35.5630 Cl  0  0  0  0  0  0  0  0  0  0  0  0
   37.6930   26.3130   34.2960 C   0  0  0  0  0  0  0  0  0  0  0  0
   37.0700   26.8580   33.1820 C   0  0  0  0  0  0  0  0  0  0  0  0
   36.8100   25.9580   32.1620 C   0  0  0  0  0  0  0  0  0  0  0  0
   37.1410   24.6160   32.2340 C   0  0  0  0  0  0  0  0  0  0  0  0
   37.7620   24.1480   33.3800 C   0  0  0  0  0  0  0  0  0  0  0  0
   38.0450   25.0030   34.4300 C   0  0  0  0  0  0  0  0  0  0  0  0
   36.3200   26.2470   31.2180 H   0  0  0  0  0  0  0  0  0  0  0  0
   36.9140   23.9460   31.3970 H   0  0  0  0  0  0  0  0  0  0  0  0
   37.9710   23.0890   33.3320 H   0  0  0  0  0  0  0  0  0  0  0  0
   38.6630   24.4580   35.5840 N   0  0  0  0  0  0  0  0  0  0  0  0
   40.0350   24.0090   35.6530 C   0  0  0  0  0  3  0  0  0  0  0  0
   40.6470   24.2840   34.7690 H   0  0  0  0  0  0  0  0  0  0  0  0
   39.9720   22.5080   35.8270 C   0  0  0  0  0  3  0  0  0  0  0  0
   40.9550   22.0330   35.6390 H   0  0  0  0  0  0  0  0  0  0  0  0
   39.4660   22.2210   37.1310 N   0  0  0  0  0  0  0  0  0  0  0  0
   40.1740   21.7940   37.7380 H   0  0  0  0  0  0  0  0  0  0  0  0
   38.8260   23.3190   37.7650 C   0  0  0  0  0  2  0  0  0  0  0  0
   38.0490   24.2380   36.8530 C   0  0  0  0  0  2  0  0  0  0  0  0
  1  6  1  6  0  0  0
  1 21  1  0  0  0  0
  1  5  1  0  0  0  0
  2  1  1  0  0  0  0
  2  7  1  1  0  0  0
  3  2  1  0  0  0  0
  3  4  1  0  0  0  0
  4  5  1  0  0  0  0
  5 10  1  0  0  0  0
  5 11  1  0  0  0  0
  8  3  1  0  0  0  0
  9  3  1  0  0  0  0
 12 13  1  0  0  0  0
 13 19  1  0  0  0  0
 13 14  2  0  0  0  0
 14  2  1  0  0  0  0
 15 14  1  0  0  0  0
 16 15  2  0  0  0  0
 17 12  2  0  0  0  0
 17 16  1  0  0  0  0
 18 12  1  0  0  0  0
 20 16  1  0  0  0  0
 21 24  1  0  0  0  0
 23 28  1  0  0  0  0
 23 22  1  0  0  0  0
 24 23  2  0  0  0  0
 25 26  2  0  0  0  0
 25 24  1  0  0  0  0
 26 27  1  0  0  0  0
 27 28  2  0  0  0  0
 28 32  1  0  0  0  0
 29 25  1  0  0  0  0
 30 26  1  0  0  0  0
 31 27  1  0  0  0  0
 32 33  1  0  0  0  0
 32 40  1  0  0  0  0
 33 35  1  0  0  0  0
 34 33  1  0  0  0  0
 35 37  1  0  0  0  0
 36 35  1  0  0  0  0
 37 38  1  0  0  0  0
 37 39  1  0  0  0  0
 40 39  1  0  0  0  0
M  END
>  <minimizedAffinity>
-5.54668903

$$$$

 OpenBabel03272501093D

 40 43  0  0  1  0  0  0  0  0999 V2000
   41.7140   22.4440   35.1890 C   0  0  2  0  0  0  0  0  0  0  0  0
   41.3240   22.4480   36.7050 C   0  0  2  0  0  0  0  0  0  0  0  0
   41.9300   21.2000   37.1400 C   0  0  0  0  0  0  0  0  0  0  0  0
   43.1350   21.0600   36.4700 O   0  0  0  0  0  0  0  0  0  0  0  0
   43.1580   21.9220   35.4220 C   0  0  0  0  0  0  0  0  0  0  0  0
   41.1820   21.6640   34.6520 H   0  0  0  0  0  0  0  0  0  0  0  0
   41.8800   23.3300   37.1200 H   0  0  0  0  0  0  0  0  0  0  0  0
   41.3160   20.3260   36.8490 H   0  0  0  0  0  0  0  0  0  0  0  0
   42.0620   21.0950   38.2520 H   0  0  0  0  0  0  0  0  0  0  0  0
   43.5830   21.5310   34.4900 H   0  0  0  0  0  0  0  0  0  0  0  0
   43.7350   22.8300   35.7190 H   0  0  0  0  0  0  0  0  0  0  0  0
   37.6000   22.4400   36.1630 C   0  0  0  0  0  0  0  0  0  0  0  0
   38.9820   22.2200   35.9240 C   0  0  0  0  0  0  0  0  0  0  0  0
   39.9090   22.6400   36.9040 C   0  0  0  0  0  0  0  0  0  0  0  0
   39.4370   23.2440   38.0460 N   0  0  0  0  0  0  0  0  0  0  0  0
   38.1260   23.4350   38.2340 C   0  0  0  0  0  0  0  0  0  0  0  0
   37.2030   23.0440   37.3140 N   0  0  0  0  0  0  0  0  0  0  0  0
   36.9120   22.1090   35.3970 H   0  0  0  0  0  0  0  0  0  0  0  0
   39.2500   21.7400   34.9990 H   0  0  0  0  0  0  0  0  0  0  0  0
   37.8410   23.9160   39.1570 H   0  0  0  0  0  0  0  0  0  0  0  0
   41.7810   23.7000   34.6770 O   0  0  0  0  0  0  0  0  0  0  0  0
   39.8050   23.1760   32.3700 Cl  0  0  0  0  0  0  0  0  0  0  0  0
   39.9390   24.6660   33.2700 C   0  0  0  0  0  0  0  0  0  0  0  0
   40.9140   24.6430   34.2580 C   0  0  0  0  0  0  0  0  0  0  0  0
   41.0410   25.8210   34.9760 C   0  0  0  0  0  0  0  0  0  0  0  0
   40.2650   26.9410   34.7370 C   0  0  0  0  0  0  0  0  0  0  0  0
   39.3130   26.8840   33.7330 C   0  0  0  0  0  0  0  0  0  0  0  0
   39.1420   25.7340   32.9850 C   0  0  0  0  0  0  0  0  0  0  0  0
   41.7730   25.9490   35.7910 H   0  0  0  0  0  0  0  0  0  0  0  0
   40.4070   27.8480   35.3350 H   0  0  0  0  0  0  0  0  0  0  0  0
   38.7620   27.8090   33.6360 H   0  0  0  0  0  0  0  0  0  0  0  0
   38.1360   25.7320   31.9850 N   0  0  0  0  0  0  0  0  0  0  0  0
   38.3300   26.1580   30.6170 C   0  0  0  0  0  3  0  0  0  0  0  0
   39.3920   26.3290   30.3420 H   0  0  0  0  0  0  0  0  0  0  0  0
   37.5150   27.4210   30.4570 C   0  0  0  0  0  3  0  0  0  0  0  0
   37.7870   27.9680   29.5330 H   0  0  0  0  0  0  0  0  0  0  0  0
   36.1290   27.0780   30.5010 N   0  0  0  0  0  0  0  0  0  0  0  0
   35.6640   27.2190   29.5980 H   0  0  0  0  0  0  0  0  0  0  0  0
   35.8630   25.7890   31.0330 C   0  0  0  0  0  2  0  0  0  0  0  0
   36.7740   25.3410   32.1500 C   0  0  0  0  0  2  0  0  0  0  0  0
  1  6  1  6  0  0  0
  1  5  1  0  0  0  0
  1  2  1  0  0  0  0
  2 14  1  0  0  0  0
  2  7  1  1  0  0  0
  2  3  1  0  0  0  0
  3  9  1  0  0  0  0
  4  3  1  0  0  0  0
  5 11  1  0  0  0  0
  5  4  1  0  0  0  0
  8  3  1  0  0  0  0
 10  5  1  0  0  0  0
 12 17  1  0  0  0  0
 13 12  2  0  0  0  0
 13 14  1  0  0  0  0
 14 15  2  0  0  0  0
 15 16  1  0  0  0  0
 16 20  1  0  0  0  0
 17 16  2  0  0  0  0
 18 12  1  0  0  0  0
 19 13  1  0  0  0  0
 21  1  1  0  0  0  0
 22 23  1  0  0  0  0
 23 24  1  0  0  0  0
 24 21  1  0  0  0  0
 24 25  2  0  0  0  0
 25 29  1  0  0  0  0
 26 25  1  0  0  0  0
 26 30  1  0  0  0  0
 27 26  2  0  0  0  0
 28 23  2  0  0  0  0
 28 27  1  0  0  0  0
 31 27  1  0  0  0  0
 32 40  1  0  0  0  0
 32 28  1  0  0  0  0
 33 32  1  0  0  0  0
 34 33  1  0  0  0  0
 35 37  1  0  0  0  0
 35 33  1  0  0  0  0
 36 35  1  0  0  0  0
 37 39  1  0  0  0  0
 38 37  1  0  0  0  0
 39 40  1  0  0  0  0
M  END
>  <minimizedAffinity>
-5.48116159

$$$$

 OpenBabel03272501093D

 40 43  0  0  1  0  0  0  0  0999 V2000
   38.8170   27.9070   30.4150 C   0  0  2  0  0  0  0  0  0  0  0  0
   37.3580   28.2520   29.9620 C   0  0  2  0  0  0  0  0  0  0  0  0
   37.6230   28.9190   28.6970 C   0  0  0  0  0  0  0  0  0  0  0  0
   38.6780   28.2600   28.0850 O   0  0  0  0  0  0  0  0  0  0  0  0
   39.3000   27.4780   29.0030 C   0  0  0  0  0  0  0  0  0  0  0  0
   39.3670   28.8070   30.6750 H   0  0  0  0  0  0  0  0  0  0  0  0
   36.8880   27.2470   29.7940 H   0  0  0  0  0  0  0  0  0  0  0  0
   37.9630   29.9620   28.8490 H   0  0  0  0  0  0  0  0  0  0  0  0
   36.7370   29.0080   28.0100 H   0  0  0  0  0  0  0  0  0  0  0  0
   40.3960   27.4660   28.9570 H   0  0  0  0  0  0  0  0  0  0  0  0
   38.9310   26.4320   28.8910 H   0  0  0  0  0  0  0  0  0  0  0  0
   35.0730   29.0040   32.8550 C   0  0  0  0  0  0  0  0  0  0  0  0
   35.7830   28.2610   31.8760 C   0  0  0  0  0  0  0  0  0  0  0  0
   36.6230   28.9590   30.9800 C   0  0  0  0  0  0  0  0  0  0  0  0
   36.7190   30.3270   31.0910 N   0  0  0  0  0  0  0  0  0  0  0  0
   36.0320   30.9930   32.0270 C   0  0  0  0  0  0  0  0  0  0  0  0
   35.2140   30.3560   32.9080 N   0  0  0  0  0  0  0  0  0  0  0  0
   34.4370   28.4460   33.5280 H   0  0  0  0  0  0  0  0  0  0  0  0
   35.6410   27.1950   31.8700 H   0  0  0  0  0  0  0  0  0  0  0  0
   36.1630   32.0640   32.0450 H   0  0  0  0  0  0  0  0  0  0  0  0
   38.8520   26.8260   31.2360 O   0  0  0  0  0  0  0  0  0  0  0  0
   37.4700   24.7830   33.0830 Cl  0  0  0  0  0  0  0  0  0  0  0  0
   38.9290   25.6620   33.4590 C   0  0  0  0  0  0  0  0  0  0  0  0
   39.3430   26.5270   32.4550 C   0  0  0  0  0  0  0  0  0  0  0  0
   40.4940   27.2410   32.7410 C   0  0  0  0  0  0  0  0  0  0  0  0
   41.1900   27.1130   33.9310 C   0  0  0  0  0  0  0  0  0  0  0  0
   40.7120   26.2290   34.8840 C   0  0  0  0  0  0  0  0  0  0  0  0
   39.5670   25.4890   34.6510 C   0  0  0  0  0  0  0  0  0  0  0  0
   40.9410   27.9650   32.0380 H   0  0  0  0  0  0  0  0  0  0  0  0
   42.0960   27.7030   34.1070 H   0  0  0  0  0  0  0  0  0  0  0  0
   41.3320   26.2040   35.7690 H   0  0  0  0  0  0  0  0  0  0  0  0
   39.1420   24.5850   35.6590 N   0  0  0  0  0  0  0  0  0  0  0  0
   39.7170   23.2810   35.8940 C   0  0  0  0  0  3  0  0  0  0  0  0
   40.6560   23.0920   35.3330 H   0  0  0  0  0  0  0  0  0  0  0  0
   38.6470   22.2820   35.5170 C   0  0  0  0  0  3  0  0  0  0  0  0
   39.0590   21.2580   35.4180 H   0  0  0  0  0  0  0  0  0  0  0  0
   37.5950   22.3560   36.4810 N   0  0  0  0  0  0  0  0  0  0  0  0
   37.5300   21.5070   37.0530 H   0  0  0  0  0  0  0  0  0  0  0  0
   37.6170   23.5280   37.2820 C   0  0  0  0  0  2  0  0  0  0  0  0
   38.0770   24.7870   36.5870 C   0  0  0  0  0  2  0  0  0  0  0  0
  1  6  1  1  0  0  0
  1 21  1  0  0  0  0
  2  7  1  6  0  0  0
  2  1  1  0  0  0  0
  2 14  1  0  0  0  0
  3  8  1  0  0  0  0
  3  2  1  0  0  0  0
  4  3  1  0  0  0  0
  4  5  1  0  0  0  0
  5  1  1  0  0  0  0
  9  3  1  0  0  0  0
 10  5  1  0  0  0  0
 11  5  1  0  0  0  0
 12 17  1  0  0  0  0
 12 18  1  0  0  0  0
 13 12  2  0  0  0  0
 14 15  2  0  0  0  0
 14 13  1  0  0  0  0
 15 16  1  0  0  0  0
 16 20  1  0  0  0  0
 16 17  2  0  0  0  0
 19 13  1  0  0  0  0
 21 24  1  0  0  0  0
 22 23  1  0  0  0  0
 23 28  1  0  0  0  0
 24 25  1  0  0  0  0
 24 23  2  0  0  0  0
 25 26  2  0  0  0  0
 26 30  1  0  0  0  0
 26 27  1  0  0  0  0
 27 31  1  0  0  0  0
 28 27  2  0  0  0  0
 28 32  1  0  0  0  0
 29 25  1  0  0  0  0
 32 33  1  0  0  0  0
 32 40  1  0  0  0  0
 34 33  1  0  0  0  0
 35 33  1  0  0  0  0
 35 37  1  0  0  0  0
 36 35  1  0  0  0  0
 37 38  1  0  0  0  0
 37 39  1  0  0  0  0
 40 39  1  0  0  0  0
M  END
>  <minimizedAffinity>
-5.43571043

$$$$
