
 OpenBabel03272500533D

 28 30  0  0  0  0  0  0  0  0999 V2000
   35.8410   30.2660   46.7640 C   0  0  0  0  0  0  0  0  0  0  0  0
   35.0330   30.0130   45.6650 C   0  0  0  0  0  0  0  0  0  0  0  0
   35.4200   30.2110   44.3570 C   0  0  0  0  0  0  0  0  0  0  0  0
   36.7180   30.7030   44.1190 C   0  0  0  0  0  0  0  0  0  0  0  0
   37.5050   30.9480   45.2210 C   0  0  0  0  0  0  0  0  0  0  0  0
   37.1010   30.7440   46.5120 C   0  0  0  0  0  0  0  0  0  0  0  0
   34.0170   29.6320   45.7660 H   0  0  0  0  0  0  0  0  0  0  0  0
   34.7870   30.0120   43.5150 H   0  0  0  0  0  0  0  0  0  0  0  0
   37.0360   30.8630   43.1120 H   0  0  0  0  0  0  0  0  0  0  0  0
   38.5080   31.3270   45.0550 H   0  0  0  0  0  0  0  0  0  0  0  0
   35.1310   28.6020   48.4090 C   0  0  0  0  0  0  0  0  0  0  0  0
   35.2360   29.9870   48.0640 C   0  0  0  0  0  0  0  0  0  0  0  0
   34.7600   30.9140   48.9830 C   0  0  0  0  0  0  0  0  0  0  0  0
   34.2270   30.4690   50.1420 N   0  0  0  0  0  0  0  0  0  0  0  0
   34.1340   29.1680   50.4540 C   0  0  0  0  0  0  0  0  0  0  0  0
   34.5890   28.2380   49.5820 N   0  0  0  0  0  0  0  0  0  0  0  0
   35.4870   27.8610   47.7270 H   0  0  0  0  0  0  0  0  0  0  0  0
   34.8600   31.9390   48.6790 H   0  0  0  0  0  0  0  0  0  0  0  0
   33.6960   28.8630   51.4020 H   0  0  0  0  0  0  0  0  0  0  0  0
   37.9040   30.9940   47.6640 N   0  0  0  0  0  0  0  0  0  0  0  0
   38.2170   30.2790   48.8690 C   0  0  0  0  0  3  0  0  0  0  0  0
   37.5450   29.3910   48.9720 H   0  0  0  0  0  0  0  0  0  0  0  0
   38.0300   31.0790   50.1240 C   0  0  0  0  0  3  0  0  0  0  0  0
   36.9600   31.2000   50.3890 H   0  0  0  0  0  0  0  0  0  0  0  0
   38.6210   32.3890   50.0690 N   0  0  0  0  0  0  0  0  0  0  0  0
   39.6560   32.3310   49.8790 H   0  0  0  0  0  0  0  0  0  0  0  0
   38.0670   33.0630   48.8970 C   0  0  0  0  0  2  0  0  0  0  0  0
   38.6150   32.2660   47.7080 C   0  0  0  0  0  2  0  0  0  0  0  0
  1 12  1  0  0  0  0
  2  7  1  0  0  0  0
  2  1  2  0  0  0  0
  3  2  1  0  0  0  0
  4  3  2  0  0  0  0
  4  5  1  0  0  0  0
  5  6  2  0  0  0  0
  6  1  1  0  0  0  0
  6 20  1  0  0  0  0
  8  3  1  0  0  0  0
  9  4  1  0  0  0  0
 10  5  1  0  0  0  0
 11 16  1  0  0  0  0
 12 11  2  0  0  0  0
 12 13  1  0  0  0  0
 13 14  2  0  0  0  0
 14 15  1  0  0  0  0
 15 19  1  0  0  0  0
 16 15  2  0  0  0  0
 17 11  1  0  0  0  0
 18 13  1  0  0  0  0
 20 28  1  0  0  0  0
 20 21  1  0  0  0  0
 21 22  1  0  0  0  0
 21 23  1  0  0  0  0
 23 24  1  0  0  0  0
 25 23  1  0  0  0  0
 26 25  1  0  0  0  0
 27 25  1  0  0  0  0
 28 27  1  0  0  0  0
M  END
>  <minimizedAffinity>
-4.25132322

>  <minimizedRMSD>
4.08064938

$$$$
