
 OpenBabel03272501513D

 30 32  0  0  0  0  0  0  0  0999 V2000
   39.7980   25.6540   34.4180 C   0  0  0  0  0  0  0  0  0  0  0  0
   40.8760   26.4420   34.7120 C   0  0  0  0  0  0  0  0  0  0  0  0
   41.4780   27.2450   33.7340 C   0  0  0  0  0  0  0  0  0  0  0  0
   40.9460   27.2240   32.4280 C   0  0  0  0  0  0  0  0  0  0  0  0
   39.8350   26.4200   32.1010 C   0  0  0  0  0  0  0  0  0  0  0  0
   39.3350   25.6810   33.1370 C   0  0  0  0  0  0  0  0  0  0  0  0
   41.3190   26.4970   35.6770 H   0  0  0  0  0  0  0  0  0  0  0  0
   42.3320   27.8810   33.9270 H   0  0  0  0  0  0  0  0  0  0  0  0
   41.4360   27.8600   31.6900 H   0  0  0  0  0  0  0  0  0  0  0  0
   39.4690   26.4370   31.1040 H   0  0  0  0  0  0  0  0  0  0  0  0
   37.6750   24.3300   37.2330 C   0  0  0  0  0  0  0  0  0  0  0  0
   38.1010   25.2190   36.2160 C   0  0  0  0  0  0  0  0  0  0  0  0
   39.2380   24.8600   35.4870 C   0  0  0  0  0  0  0  0  0  0  0  0
   39.8780   23.6830   35.7880 N   0  0  0  0  0  0  0  0  0  0  0  0
   39.4240   22.8690   36.7780 C   0  0  0  0  0  0  0  0  0  0  0  0
   38.3220   23.1960   37.4980 N   0  0  0  0  0  0  0  0  0  0  0  0
   40.1730   21.6960   36.9780 N   0  0  0  0  0  0  0  0  0  0  0  0
   36.7920   24.6300   37.7850 H   0  0  0  0  0  0  0  0  0  0  0  0
   37.6050   26.1480   35.9680 H   0  0  0  0  0  0  0  0  0  0  0  0
   41.1790   21.5420   37.2180 H   0  0  0  0  0  0  0  0  0  0  0  0
   39.6170   20.8160   36.8630 H   0  0  0  0  0  0  0  0  0  0  0  0
   38.2120   24.8700   32.7930 N   0  0  0  0  0  0  0  0  0  0  0  0
   38.0840   23.4400   32.4980 C   0  0  0  0  0  3  0  0  0  0  0  0
   38.9630   22.8830   32.8270 H   0  0  0  0  0  0  0  0  0  0  0  0
   37.9230   23.3810   30.9740 C   0  0  0  0  0  3  0  0  0  0  0  0
   37.3580   22.4520   30.7630 H   0  0  0  0  0  0  0  0  0  0  0  0
   37.2660   24.5690   30.4870 N   0  0  0  0  0  0  0  0  0  0  0  0
   36.7580   24.3520   29.5920 H   0  0  0  0  0  0  0  0  0  0  0  0
   36.2740   25.0710   31.4290 C   0  0  0  0  0  2  0  0  0  0  0  0
   36.9090   25.5480   32.7020 C   0  0  0  0  0  2  0  0  0  0  0  0
  1  2  1  0  0  0  0
  1 13  1  0  0  0  0
  2  7  1  0  0  0  0
  3  8  1  0  0  0  0
  3  2  2  0  0  0  0
  4  3  1  0  0  0  0
  5  4  2  0  0  0  0
  5  6  1  0  0  0  0
  6  1  2  0  0  0  0
  9  4  1  0  0  0  0
 10  5  1  0  0  0  0
 11 16  1  0  0  0  0
 11 18  1  0  0  0  0
 12 11  2  0  0  0  0
 13 14  2  0  0  0  0
 13 12  1  0  0  0  0
 14 15  1  0  0  0  0
 15 17  1  0  0  0  0
 15 16  2  0  0  0  0
 17 20  1  0  0  0  0
 19 12  1  0  0  0  0
 21 17  1  0  0  0  0
 22  6  1  0  0  0  0
 23 22  1  0  0  0  0
 23 24  1  0  0  0  0
 25 23  1  0  0  0  0
 26 25  1  0  0  0  0
 27 25  1  0  0  0  0
 27 29  1  0  0  0  0
 28 27  1  0  0  0  0
 29 30  1  0  0  0  0
 30 22  1  0  0  0  0
M  END
>  <minimizedAffinity>
-5.22315979

$$$$

 OpenBabel03272501513D

 30 32  0  0  0  0  0  0  0  0999 V2000
   34.6820   30.7820   35.1940 C   0  0  0  0  0  0  0  0  0  0  0  0
   35.4760   31.6770   35.8540 C   0  0  0  0  0  0  0  0  0  0  0  0
   34.9770   32.4530   36.9090 C   0  0  0  0  0  0  0  0  0  0  0  0
   33.6250   32.2910   37.2800 C   0  0  0  0  0  0  0  0  0  0  0  0
   32.7870   31.3730   36.6140 C   0  0  0  0  0  0  0  0  0  0  0  0
   33.3870   30.6750   35.6030 C   0  0  0  0  0  0  0  0  0  0  0  0
   36.5000   31.8420   35.6190 H   0  0  0  0  0  0  0  0  0  0  0  0
   35.5730   33.1720   37.4560 H   0  0  0  0  0  0  0  0  0  0  0  0
   33.2660   32.9080   38.1040 H   0  0  0  0  0  0  0  0  0  0  0  0
   31.7770   31.2860   36.9280 H   0  0  0  0  0  0  0  0  0  0  0  0
   36.4470   28.1660   33.1380 C   0  0  0  0  0  0  0  0  0  0  0  0
   35.9120   28.7870   34.2930 C   0  0  0  0  0  0  0  0  0  0  0  0
   35.2800   30.0220   34.1200 C   0  0  0  0  0  0  0  0  0  0  0  0
   35.2110   30.5650   32.8620 N   0  0  0  0  0  0  0  0  0  0  0  0
   35.7440   29.9220   31.7890 C   0  0  0  0  0  0  0  0  0  0  0  0
   36.3610   28.7230   31.9310 N   0  0  0  0  0  0  0  0  0  0  0  0
   35.6000   30.5900   30.5600 N   0  0  0  0  0  0  0  0  0  0  0  0
   36.9320   27.2100   33.2970 H   0  0  0  0  0  0  0  0  0  0  0  0
   35.9580   28.3700   35.2900 H   0  0  0  0  0  0  0  0  0  0  0  0
   35.9120   31.5340   30.2370 H   0  0  0  0  0  0  0  0  0  0  0  0
   35.0820   30.0360   29.8370 H   0  0  0  0  0  0  0  0  0  0  0  0
   32.5280   29.7510   34.9360 N   0  0  0  0  0  0  0  0  0  0  0  0
   31.9360   29.7490   33.5940 C   0  0  0  0  0  3  0  0  0  0  0  0
   32.4330   30.4640   32.9360 H   0  0  0  0  0  0  0  0  0  0  0  0
   30.4690   30.1310   33.8270 C   0  0  0  0  0  3  0  0  0  0  0  0
   29.9020   29.6850   32.9860 H   0  0  0  0  0  0  0  0  0  0  0  0
   30.0250   29.6720   35.1200 N   0  0  0  0  0  0  0  0  0  0  0  0
   28.9860   29.5110   35.1020 H   0  0  0  0  0  0  0  0  0  0  0  0
   30.6460   28.4090   35.4960 C   0  0  0  0  0  2  0  0  0  0  0  0
   32.1270   28.5550   35.6920 C   0  0  0  0  0  2  0  0  0  0  0  0
  1  6  2  0  0  0  0
  1  2  1  0  0  0  0
  2  3  2  0  0  0  0
  3  4  1  0  0  0  0
  3  8  1  0  0  0  0
  4  9  1  0  0  0  0
  5 10  1  0  0  0  0
  5  4  2  0  0  0  0
  6  5  1  0  0  0  0
  7  2  1  0  0  0  0
 11 18  1  0  0  0  0
 11 12  1  0  0  0  0
 12 19  1  0  0  0  0
 13 12  2  0  0  0  0
 13  1  1  0  0  0  0
 14 13  1  0  0  0  0
 15 16  1  0  0  0  0
 15 14  2  0  0  0  0
 16 11  2  0  0  0  0
 17 15  1  0  0  0  0
 20 17  1  0  0  0  0
 21 17  1  0  0  0  0
 22  6  1  0  0  0  0
 22 30  1  0  0  0  0
 23 25  1  0  0  0  0
 23 22  1  0  0  0  0
 24 23  1  0  0  0  0
 25 27  1  0  0  0  0
 26 25  1  0  0  0  0
 27 29  1  0  0  0  0
 28 27  1  0  0  0  0
 29 30  1  0  0  0  0
M  END
>  <minimizedAffinity>
-5.02712011

$$$$

 OpenBabel03272501513D

 30 32  0  0  0  0  0  0  0  0999 V2000
   39.6840   26.3420   34.1440 C   0  0  0  0  0  0  0  0  0  0  0  0
   40.8100   27.0380   33.8050 C   0  0  0  0  0  0  0  0  0  0  0  0
   42.0850   26.5690   34.1440 C   0  0  0  0  0  0  0  0  0  0  0  0
   42.1860   25.3510   34.8500 C   0  0  0  0  0  0  0  0  0  0  0  0
   41.0390   24.6150   35.2120 C   0  0  0  0  0  0  0  0  0  0  0  0
   39.8520   25.1750   34.8250 C   0  0  0  0  0  0  0  0  0  0  0  0
   40.7950   27.9600   33.2740 H   0  0  0  0  0  0  0  0  0  0  0  0
   43.0000   27.0900   33.8940 H   0  0  0  0  0  0  0  0  0  0  0  0
   43.1920   25.0120   35.1000 H   0  0  0  0  0  0  0  0  0  0  0  0
   41.1640   23.7050   35.7420 H   0  0  0  0  0  0  0  0  0  0  0  0
   36.3810   28.1500   34.0540 C   0  0  0  0  0  0  0  0  0  0  0  0
   37.6030   27.6760   34.5890 C   0  0  0  0  0  0  0  0  0  0  0  0
   38.4090   26.8990   33.7520 C   0  0  0  0  0  0  0  0  0  0  0  0
   37.9830   26.6340   32.4740 N   0  0  0  0  0  0  0  0  0  0  0  0
   36.7970   27.1160   32.0150 C   0  0  0  0  0  0  0  0  0  0  0  0
   35.9990   27.8740   32.8080 N   0  0  0  0  0  0  0  0  0  0  0  0
   36.4860   26.7720   30.6880 N   0  0  0  0  0  0  0  0  0  0  0  0
   35.7730   28.7500   34.7210 H   0  0  0  0  0  0  0  0  0  0  0  0
   37.9510   27.8780   35.5930 H   0  0  0  0  0  0  0  0  0  0  0  0
   36.3720   25.8460   30.2150 H   0  0  0  0  0  0  0  0  0  0  0  0
   36.3430   27.5980   30.0610 H   0  0  0  0  0  0  0  0  0  0  0  0
   38.6990   24.4210   35.1980 N   0  0  0  0  0  0  0  0  0  0  0  0
   37.8250   24.4760   36.3740 C   0  0  0  0  0  3  0  0  0  0  0  0
   37.9610   25.4040   36.9320 H   0  0  0  0  0  0  0  0  0  0  0  0
   38.2380   23.2570   37.2090 C   0  0  0  0  0  3  0  0  0  0  0  0
   37.3450   22.9790   37.8030 H   0  0  0  0  0  0  0  0  0  0  0  0
   38.7060   22.1930   36.3550 N   0  0  0  0  0  0  0  0  0  0  0  0
   38.5510   21.2660   36.8250 H   0  0  0  0  0  0  0  0  0  0  0  0
   37.9910   22.1530   35.0860 C   0  0  0  0  0  2  0  0  0  0  0  0
   38.2580   23.3770   34.2600 C   0  0  0  0  0  2  0  0  0  0  0  0
  1  6  1  0  0  0  0
  2  3  1  0  0  0  0
  2  1  2  0  0  0  0
  3  4  2  0  0  0  0
  4  9  1  0  0  0  0
  4  5  1  0  0  0  0
  5 10  1  0  0  0  0
  6 22  1  0  0  0  0
  6  5  2  0  0  0  0
  7  2  1  0  0  0  0
  8  3  1  0  0  0  0
 11 12  1  0  0  0  0
 11 18  1  0  0  0  0
 12 19  1  0  0  0  0
 13  1  1  0  0  0  0
 13 12  2  0  0  0  0
 14 13  1  0  0  0  0
 15 14  2  0  0  0  0
 15 16  1  0  0  0  0
 16 11  2  0  0  0  0
 17 15  1  0  0  0  0
 20 17  1  0  0  0  0
 21 17  1  0  0  0  0
 22 23  1  0  0  0  0
 23 24  1  0  0  0  0
 23 25  1  0  0  0  0
 25 26  1  0  0  0  0
 27 28  1  0  0  0  0
 27 25  1  0  0  0  0
 29 27  1  0  0  0  0
 30 29  1  0  0  0  0
 30 22  1  0  0  0  0
M  END
>  <minimizedAffinity>
-5.01318741

$$$$

 OpenBabel03272501513D

 30 32  0  0  0  0  0  0  0  0999 V2000
   38.8610   25.9550   34.7870 C   0  0  0  0  0  0  0  0  0  0  0  0
   38.5810   26.9670   35.6620 C   0  0  0  0  0  0  0  0  0  0  0  0
   37.5760   27.9050   35.3910 C   0  0  0  0  0  0  0  0  0  0  0  0
   36.8530   27.7850   34.1870 C   0  0  0  0  0  0  0  0  0  0  0  0
   37.1230   26.7490   33.2680 C   0  0  0  0  0  0  0  0  0  0  0  0
   38.1250   25.8960   33.6430 C   0  0  0  0  0  0  0  0  0  0  0  0
   39.0930   27.1080   36.5830 H   0  0  0  0  0  0  0  0  0  0  0  0
   37.3250   28.7200   36.0580 H   0  0  0  0  0  0  0  0  0  0  0  0
   36.0780   28.5290   34.0040 H   0  0  0  0  0  0  0  0  0  0  0  0
   36.5530   26.6980   32.3750 H   0  0  0  0  0  0  0  0  0  0  0  0
   42.1700   24.2170   35.2570 C   0  0  0  0  0  0  0  0  0  0  0  0
   41.2610   25.2150   34.8310 C   0  0  0  0  0  0  0  0  0  0  0  0
   39.9110   25.0300   35.1470 C   0  0  0  0  0  0  0  0  0  0  0  0
   39.5390   23.9080   35.8430 N   0  0  0  0  0  0  0  0  0  0  0  0
   40.4570   22.9810   36.2270 C   0  0  0  0  0  0  0  0  0  0  0  0
   41.7720   23.1390   35.9310 N   0  0  0  0  0  0  0  0  0  0  0  0
   39.9380   21.8820   36.9340 N   0  0  0  0  0  0  0  0  0  0  0  0
   43.2090   24.3820   35.0000 H   0  0  0  0  0  0  0  0  0  0  0  0
   41.5410   26.1050   34.2830 H   0  0  0  0  0  0  0  0  0  0  0  0
   39.2180   21.1660   36.6840 H   0  0  0  0  0  0  0  0  0  0  0  0
   40.3510   21.7630   37.8890 H   0  0  0  0  0  0  0  0  0  0  0  0
   38.3900   24.8540   32.7050 N   0  0  0  0  0  0  0  0  0  0  0  0
   39.4210   24.6960   31.6740 C   0  0  0  0  0  3  0  0  0  0  0  0
   40.2450   25.3960   31.8210 H   0  0  0  0  0  0  0  0  0  0  0  0
   38.6830   24.9700   30.3570 C   0  0  0  0  0  3  0  0  0  0  0  0
   39.2370   24.4130   29.5760 H   0  0  0  0  0  0  0  0  0  0  0  0
   37.2980   24.5800   30.4610 N   0  0  0  0  0  0  0  0  0  0  0  0
   36.9270   24.3310   29.5090 H   0  0  0  0  0  0  0  0  0  0  0  0
   37.1210   23.4070   31.3070 C   0  0  0  0  0  2  0  0  0  0  0  0
   37.4880   23.6920   32.7340 C   0  0  0  0  0  2  0  0  0  0  0  0
  1 13  1  0  0  0  0
  1  2  1  0  0  0  0
  2  7  1  0  0  0  0
  3  2  2  0  0  0  0
  3  8  1  0  0  0  0
  4  3  1  0  0  0  0
  5  6  1  0  0  0  0
  5  4  2  0  0  0  0
  6  1  2  0  0  0  0
  9  4  1  0  0  0  0
 10  5  1  0  0  0  0
 11 16  1  0  0  0  0
 12 13  1  0  0  0  0
 12 11  2  0  0  0  0
 13 14  2  0  0  0  0
 14 15  1  0  0  0  0
 15 17  1  0  0  0  0
 16 15  2  0  0  0  0
 17 21  1  0  0  0  0
 18 11  1  0  0  0  0
 19 12  1  0  0  0  0
 20 17  1  0  0  0  0
 22 30  1  0  0  0  0
 22  6  1  0  0  0  0
 23 24  1  0  0  0  0
 23 22  1  0  0  0  0
 25 27  1  0  0  0  0
 25 23  1  0  0  0  0
 26 25  1  0  0  0  0
 27 29  1  0  0  0  0
 28 27  1  0  0  0  0
 29 30  1  0  0  0  0
M  END
>  <minimizedAffinity>
-4.96024847

$$$$

 OpenBabel03272501513D

 30 32  0  0  0  0  0  0  0  0999 V2000
   37.4330   23.3190   32.9040 C   0  0  0  0  0  0  0  0  0  0  0  0
   37.3010   24.6540   32.6460 C   0  0  0  0  0  0  0  0  0  0  0  0
   36.3520   25.1280   31.7300 C   0  0  0  0  0  0  0  0  0  0  0  0
   35.5280   24.1900   31.0730 C   0  0  0  0  0  0  0  0  0  0  0  0
   35.6460   22.8070   31.3230 C   0  0  0  0  0  0  0  0  0  0  0  0
   36.6060   22.4680   32.2360 C   0  0  0  0  0  0  0  0  0  0  0  0
   37.8950   25.4060   33.1090 H   0  0  0  0  0  0  0  0  0  0  0  0
   36.2180   26.1760   31.4970 H   0  0  0  0  0  0  0  0  0  0  0  0
   34.8000   24.5890   30.3660 H   0  0  0  0  0  0  0  0  0  0  0  0
   35.0030   22.1400   30.8050 H   0  0  0  0  0  0  0  0  0  0  0  0
   40.6020   22.1700   34.5850 C   0  0  0  0  0  0  0  0  0  0  0  0
   39.7360   22.5330   33.5260 C   0  0  0  0  0  0  0  0  0  0  0  0
   38.4360   22.9190   33.8650 C   0  0  0  0  0  0  0  0  0  0  0  0
   38.0660   22.9260   35.1870 N   0  0  0  0  0  0  0  0  0  0  0  0
   38.9420   22.5670   36.1630 C   0  0  0  0  0  0  0  0  0  0  0  0
   40.2090   22.1890   35.8580 N   0  0  0  0  0  0  0  0  0  0  0  0
   38.4330   22.6220   37.4730 N   0  0  0  0  0  0  0  0  0  0  0  0
   41.6040   21.8740   34.2980 H   0  0  0  0  0  0  0  0  0  0  0  0
   40.0140   22.5320   32.4810 H   0  0  0  0  0  0  0  0  0  0  0  0
   37.6220   22.1440   37.9280 H   0  0  0  0  0  0  0  0  0  0  0  0
   38.9670   23.2630   38.1050 H   0  0  0  0  0  0  0  0  0  0  0  0
   36.7160   21.0660   32.4790 N   0  0  0  0  0  0  0  0  0  0  0  0
   37.6130   20.0400   31.9380 C   0  0  0  0  0  3  0  0  0  0  0  0
   38.4780   20.4850   31.4440 H   0  0  0  0  0  0  0  0  0  0  0  0
   36.7410   19.2620   30.9440 C   0  0  0  0  0  3  0  0  0  0  0  0
   37.1760   18.2450   30.8890 H   0  0  0  0  0  0  0  0  0  0  0  0
   35.3620   19.2680   31.3670 N   0  0  0  0  0  0  0  0  0  0  0  0
   34.8730   18.4140   30.9960 H   0  0  0  0  0  0  0  0  0  0  0  0
   35.2330   19.2370   32.8170 C   0  0  0  0  0  2  0  0  0  0  0  0
   35.7740   20.4870   33.4490 C   0  0  0  0  0  2  0  0  0  0  0  0
  1 13  1  0  0  0  0
  2  1  1  0  0  0  0
  2  7  1  0  0  0  0
  3  2  2  0  0  0  0
  4  5  2  0  0  0  0
  4  3  1  0  0  0  0
  5  6  1  0  0  0  0
  6 22  1  0  0  0  0
  6  1  2  0  0  0  0
  8  3  1  0  0  0  0
  9  4  1  0  0  0  0
 10  5  1  0  0  0  0
 11 16  1  0  0  0  0
 12 13  1  0  0  0  0
 12 11  2  0  0  0  0
 13 14  2  0  0  0  0
 14 15  1  0  0  0  0
 15 17  1  0  0  0  0
 16 15  2  0  0  0  0
 17 20  1  0  0  0  0
 17 21  1  0  0  0  0
 18 11  1  0  0  0  0
 19 12  1  0  0  0  0
 22 30  1  0  0  0  0
 23 22  1  0  0  0  0
 24 23  1  0  0  0  0
 25 27  1  0  0  0  0
 25 23  1  0  0  0  0
 26 25  1  0  0  0  0
 27 29  1  0  0  0  0
 28 27  1  0  0  0  0
 29 30  1  0  0  0  0
M  END
>  <minimizedAffinity>
-4.9288435

$$$$

 OpenBabel03272501513D

 30 32  0  0  0  0  0  0  0  0999 V2000
   33.4120   30.8750   35.7310 C   0  0  0  0  0  0  0  0  0  0  0  0
   33.5210   31.5700   36.9030 C   0  0  0  0  0  0  0  0  0  0  0  0
   34.6200   32.4010   37.1570 C   0  0  0  0  0  0  0  0  0  0  0  0
   35.6220   32.5090   36.1690 C   0  0  0  0  0  0  0  0  0  0  0  0
   35.5310   31.8030   34.9520 C   0  0  0  0  0  0  0  0  0  0  0  0
   34.4140   31.0250   34.8210 C   0  0  0  0  0  0  0  0  0  0  0  0
   32.7990   31.5270   37.6830 H   0  0  0  0  0  0  0  0  0  0  0  0
   34.7430   32.9660   38.0720 H   0  0  0  0  0  0  0  0  0  0  0  0
   36.4640   33.1630   36.3950 H   0  0  0  0  0  0  0  0  0  0  0  0
   36.3090   31.9160   34.2380 H   0  0  0  0  0  0  0  0  0  0  0  0
   30.0640   29.4830   34.7130 C   0  0  0  0  0  0  0  0  0  0  0  0
   31.1300   30.4110   34.7930 C   0  0  0  0  0  0  0  0  0  0  0  0
   32.2450   30.0440   35.5520 C   0  0  0  0  0  0  0  0  0  0  0  0
   32.2520   28.8200   36.1740 N   0  0  0  0  0  0  0  0  0  0  0  0
   31.1990   27.9680   36.0620 C   0  0  0  0  0  0  0  0  0  0  0  0
   30.1060   28.3030   35.3310 N   0  0  0  0  0  0  0  0  0  0  0  0
   31.3400   26.7490   36.7480 N   0  0  0  0  0  0  0  0  0  0  0  0
   29.2120   29.7900   34.1190 H   0  0  0  0  0  0  0  0  0  0  0  0
   31.1370   31.3780   34.3070 H   0  0  0  0  0  0  0  0  0  0  0  0
   31.4990   26.5300   37.7590 H   0  0  0  0  0  0  0  0  0  0  0  0
   31.2750   25.9070   36.1300 H   0  0  0  0  0  0  0  0  0  0  0  0
   34.3350   30.3150   33.5850 N   0  0  0  0  0  0  0  0  0  0  0  0
   34.6480   28.9280   33.2250 C   0  0  0  0  0  3  0  0  0  0  0  0
   34.7340   28.2940   34.1090 H   0  0  0  0  0  0  0  0  0  0  0  0
   35.9820   29.0240   32.4750 C   0  0  0  0  0  3  0  0  0  0  0  0
   36.0110   28.1520   31.7920 H   0  0  0  0  0  0  0  0  0  0  0  0
   36.0870   30.2880   31.7880 N   0  0  0  0  0  0  0  0  0  0  0  0
   36.7180   30.1860   30.9520 H   0  0  0  0  0  0  0  0  0  0  0  0
   34.7980   30.7520   31.2930 C   0  0  0  0  0  2  0  0  0  0  0  0
   33.8550   31.0690   32.4170 C   0  0  0  0  0  2  0  0  0  0  0  0
  1  2  1  0  0  0  0
  2  3  2  0  0  0  0
  2  7  1  0  0  0  0
  3  8  1  0  0  0  0
  4  9  1  0  0  0  0
  4  3  1  0  0  0  0
  5  4  2  0  0  0  0
  6  5  1  0  0  0  0
  6  1  2  0  0  0  0
 10  5  1  0  0  0  0
 11 12  2  0  0  0  0
 11 16  1  0  0  0  0
 12 13  1  0  0  0  0
 13  1  1  0  0  0  0
 13 14  2  0  0  0  0
 15 14  1  0  0  0  0
 15 17  1  0  0  0  0
 16 15  2  0  0  0  0
 17 20  1  0  0  0  0
 18 11  1  0  0  0  0
 19 12  1  0  0  0  0
 21 17  1  0  0  0  0
 22  6  1  0  0  0  0
 23 22  1  0  0  0  0
 23 24  1  0  0  0  0
 25 23  1  0  0  0  0
 26 25  1  0  0  0  0
 27 25  1  0  0  0  0
 28 27  1  0  0  0  0
 29 27  1  0  0  0  0
 29 30  1  0  0  0  0
 30 22  1  0  0  0  0
M  END
>  <minimizedAffinity>
-4.89988708

$$$$

 OpenBabel03272501513D

 30 32  0  0  0  0  0  0  0  0999 V2000
   37.0490   21.9030   33.7990 C   0  0  0  0  0  0  0  0  0  0  0  0
   36.3260   20.7590   33.9900 C   0  0  0  0  0  0  0  0  0  0  0  0
   35.3610   20.3450   33.0620 C   0  0  0  0  0  0  0  0  0  0  0  0
   35.1480   21.1390   31.9150 C   0  0  0  0  0  0  0  0  0  0  0  0
   35.8820   22.3230   31.6960 C   0  0  0  0  0  0  0  0  0  0  0  0
   36.7940   22.6220   32.6710 C   0  0  0  0  0  0  0  0  0  0  0  0
   36.4420   20.1230   34.8340 H   0  0  0  0  0  0  0  0  0  0  0  0
   34.7680   19.4470   33.1780 H   0  0  0  0  0  0  0  0  0  0  0  0
   34.3910   20.7900   31.2120 H   0  0  0  0  0  0  0  0  0  0  0  0
   35.6880   22.8880   30.8190 H   0  0  0  0  0  0  0  0  0  0  0  0
   40.2270   22.4410   35.7460 C   0  0  0  0  0  0  0  0  0  0  0  0
   39.4000   22.0400   34.6700 C   0  0  0  0  0  0  0  0  0  0  0  0
   38.0250   22.2540   34.8040 C   0  0  0  0  0  0  0  0  0  0  0  0
   37.5500   22.8320   35.9550 N   0  0  0  0  0  0  0  0  0  0  0  0
   38.3940   23.1980   36.9570 C   0  0  0  0  0  0  0  0  0  0  0  0
   39.7310   23.0010   36.8490 N   0  0  0  0  0  0  0  0  0  0  0  0
   37.7740   23.7810   38.0770 N   0  0  0  0  0  0  0  0  0  0  0  0
   41.2890   22.2650   35.6190 H   0  0  0  0  0  0  0  0  0  0  0  0
   39.7600   21.5840   33.7580 H   0  0  0  0  0  0  0  0  0  0  0  0
   37.0380   23.4280   38.7310 H   0  0  0  0  0  0  0  0  0  0  0  0
   38.1150   24.7470   38.2910 H   0  0  0  0  0  0  0  0  0  0  0  0
   37.5290   23.8230   32.4380 N   0  0  0  0  0  0  0  0  0  0  0  0
   37.4080   25.1750   32.9930 C   0  0  0  0  0  3  0  0  0  0  0  0
   36.7990   25.1830   33.8980 H   0  0  0  0  0  0  0  0  0  0  0  0
   36.7500   25.9870   31.8700 C   0  0  0  0  0  3  0  0  0  0  0  0
   37.0720   27.0360   32.0240 H   0  0  0  0  0  0  0  0  0  0  0  0
   37.1220   25.4620   30.5790 N   0  0  0  0  0  0  0  0  0  0  0  0
   37.0780   26.2260   29.8590 H   0  0  0  0  0  0  0  0  0  0  0  0
   38.4840   24.9450   30.5700 C   0  0  0  0  0  2  0  0  0  0  0  0
   38.6290   23.7480   31.4640 C   0  0  0  0  0  2  0  0  0  0  0  0
  1  2  1  0  0  0  0
  1 13  1  0  0  0  0
  2  7  1  0  0  0  0
  3  8  1  0  0  0  0
  3  2  2  0  0  0  0
  4  3  1  0  0  0  0
  5  4  2  0  0  0  0
  5  6  1  0  0  0  0
  6  1  2  0  0  0  0
  9  4  1  0  0  0  0
 10  5  1  0  0  0  0
 11 16  1  0  0  0  0
 12 13  1  0  0  0  0
 12 11  2  0  0  0  0
 13 14  2  0  0  0  0
 14 15  1  0  0  0  0
 15 17  1  0  0  0  0
 16 15  2  0  0  0  0
 17 21  1  0  0  0  0
 17 20  1  0  0  0  0
 18 11  1  0  0  0  0
 19 12  1  0  0  0  0
 22  6  1  0  0  0  0
 22 23  1  0  0  0  0
 23 24  1  0  0  0  0
 25 26  1  0  0  0  0
 25 23  1  0  0  0  0
 27 25  1  0  0  0  0
 28 27  1  0  0  0  0
 29 27  1  0  0  0  0
 29 30  1  0  0  0  0
 30 22  1  0  0  0  0
M  END
>  <minimizedAffinity>
-4.89554262

$$$$

 OpenBabel03272501513D

 30 32  0  0  0  0  0  0  0  0999 V2000
   37.0920   27.3300   33.6110 C   0  0  0  0  0  0  0  0  0  0  0  0
   37.4550   27.7570   34.8580 C   0  0  0  0  0  0  0  0  0  0  0  0
   38.0420   26.8830   35.7830 C   0  0  0  0  0  0  0  0  0  0  0  0
   38.2540   25.5430   35.3990 C   0  0  0  0  0  0  0  0  0  0  0  0
   37.8890   25.0800   34.1180 C   0  0  0  0  0  0  0  0  0  0  0  0
   37.3250   26.0240   33.3050 C   0  0  0  0  0  0  0  0  0  0  0  0
   37.3180   28.7540   35.2020 H   0  0  0  0  0  0  0  0  0  0  0  0
   38.3420   27.1820   36.7790 H   0  0  0  0  0  0  0  0  0  0  0  0
   38.7130   24.8880   36.1400 H   0  0  0  0  0  0  0  0  0  0  0  0
   38.0680   24.0620   33.8740 H   0  0  0  0  0  0  0  0  0  0  0  0
   36.4110   29.7600   30.8150 C   0  0  0  0  0  0  0  0  0  0  0  0
   37.1320   28.8190   31.5890 C   0  0  0  0  0  0  0  0  0  0  0  0
   36.4950   28.2980   32.7200 C   0  0  0  0  0  0  0  0  0  0  0  0
   35.2240   28.7190   33.0210 N   0  0  0  0  0  0  0  0  0  0  0  0
   34.5800   29.6270   32.2400 C   0  0  0  0  0  0  0  0  0  0  0  0
   35.1770   30.1450   31.1380 N   0  0  0  0  0  0  0  0  0  0  0  0
   33.2830   29.9660   32.6640 N   0  0  0  0  0  0  0  0  0  0  0  0
   36.9250   30.1490   29.9440 H   0  0  0  0  0  0  0  0  0  0  0  0
   38.1330   28.4790   31.3630 H   0  0  0  0  0  0  0  0  0  0  0  0
   32.9240   30.3770   33.5560 H   0  0  0  0  0  0  0  0  0  0  0  0
   32.5420   29.7700   31.9510 H   0  0  0  0  0  0  0  0  0  0  0  0
   36.9590   25.5430   32.0120 N   0  0  0  0  0  0  0  0  0  0  0  0
   35.6590   25.2230   31.4120 C   0  0  0  0  0  3  0  0  0  0  0  0
   34.8360   25.6490   31.9890 H   0  0  0  0  0  0  0  0  0  0  0  0
   35.6080   23.6900   31.4150 C   0  0  0  0  0  3  0  0  0  0  0  0
   34.9360   23.4070   30.5810 H   0  0  0  0  0  0  0  0  0  0  0  0
   36.9350   23.1390   31.2880 N   0  0  0  0  0  0  0  0  0  0  0  0
   36.8830   22.1880   30.8420 H   0  0  0  0  0  0  0  0  0  0  0  0
   37.7920   23.9600   30.4440 C   0  0  0  0  0  2  0  0  0  0  0  0
   38.0540   25.3030   31.0600 C   0  0  0  0  0  2  0  0  0  0  0  0
  1  2  1  0  0  0  0
  2  7  1  0  0  0  0
  2  3  2  0  0  0  0
  3  8  1  0  0  0  0
  4  3  1  0  0  0  0
  4  9  1  0  0  0  0
  5  4  2  0  0  0  0
  6  1  2  0  0  0  0
  6  5  1  0  0  0  0
 10  5  1  0  0  0  0
 11 16  2  0  0  0  0
 11 12  1  0  0  0  0
 12 13  2  0  0  0  0
 13 14  1  0  0  0  0
 13  1  1  0  0  0  0
 15 17  1  0  0  0  0
 15 14  2  0  0  0  0
 16 15  1  0  0  0  0
 17 20  1  0  0  0  0
 18 11  1  0  0  0  0
 19 12  1  0  0  0  0
 21 17  1  0  0  0  0
 22  6  1  0  0  0  0
 23 25  1  0  0  0  0
 23 24  1  0  0  0  0
 23 22  1  0  0  0  0
 26 25  1  0  0  0  0
 27 25  1  0  0  0  0
 28 27  1  0  0  0  0
 29 30  1  0  0  0  0
 29 27  1  0  0  0  0
 30 22  1  0  0  0  0
M  END
>  <minimizedAffinity>
-4.88539791

$$$$

 OpenBabel03272501513D

 30 32  0  0  0  0  0  0  0  0999 V2000
   37.0600   27.4090   33.6470 C   0  0  0  0  0  0  0  0  0  0  0  0
   37.4240   27.8210   34.8980 C   0  0  0  0  0  0  0  0  0  0  0  0
   38.0450   26.9470   35.8000 C   0  0  0  0  0  0  0  0  0  0  0  0
   38.2910   25.6210   35.3880 C   0  0  0  0  0  0  0  0  0  0  0  0
   37.9250   25.1720   34.1020 C   0  0  0  0  0  0  0  0  0  0  0  0
   37.3270   26.1150   33.3140 C   0  0  0  0  0  0  0  0  0  0  0  0
   37.2640   28.8070   35.2630 H   0  0  0  0  0  0  0  0  0  0  0  0
   38.3470   27.2350   36.7990 H   0  0  0  0  0  0  0  0  0  0  0  0
   38.7760   24.9650   36.1120 H   0  0  0  0  0  0  0  0  0  0  0  0
   38.1300   24.1650   33.8370 H   0  0  0  0  0  0  0  0  0  0  0  0
   34.6730   29.8510   32.0600 C   0  0  0  0  0  0  0  0  0  0  0  0
   35.1540   28.9100   33.0010 C   0  0  0  0  0  0  0  0  0  0  0  0
   36.4270   28.3760   32.7810 C   0  0  0  0  0  0  0  0  0  0  0  0
   37.1380   28.7830   31.6800 N   0  0  0  0  0  0  0  0  0  0  0  0
   36.6250   29.6920   30.8080 C   0  0  0  0  0  0  0  0  0  0  0  0
   35.3920   30.2230   31.0010 N   0  0  0  0  0  0  0  0  0  0  0  0
   37.4610   30.0200   29.7260 N   0  0  0  0  0  0  0  0  0  0  0  0
   33.6840   30.2500   32.2510 H   0  0  0  0  0  0  0  0  0  0  0  0
   34.6050   28.5810   33.8730 H   0  0  0  0  0  0  0  0  0  0  0  0
   37.8900   29.4360   28.9720 H   0  0  0  0  0  0  0  0  0  0  0  0
   37.6950   31.0390   29.6680 H   0  0  0  0  0  0  0  0  0  0  0  0
   36.9600   25.6490   32.0150 N   0  0  0  0  0  0  0  0  0  0  0  0
   35.6580   25.3640   31.4030 C   0  0  0  0  0  3  0  0  0  0  0  0
   34.8410   25.8080   31.9730 H   0  0  0  0  0  0  0  0  0  0  0  0
   35.5690   23.8330   31.3980 C   0  0  0  0  0  3  0  0  0  0  0  0
   34.8980   23.5700   30.5570 H   0  0  0  0  0  0  0  0  0  0  0  0
   36.8830   23.2490   31.2810 N   0  0  0  0  0  0  0  0  0  0  0  0
   36.8110   22.3020   30.8300 H   0  0  0  0  0  0  0  0  0  0  0  0
   37.7680   24.0520   30.4480 C   0  0  0  0  0  2  0  0  0  0  0  0
   38.0580   25.3860   31.0720 C   0  0  0  0  0  2  0  0  0  0  0  0
  1  2  1  0  0  0  0
  2  7  1  0  0  0  0
  2  3  2  0  0  0  0
  3  8  1  0  0  0  0
  4  3  1  0  0  0  0
  4  9  1  0  0  0  0
  5  4  2  0  0  0  0
  6  1  2  0  0  0  0
  6  5  1  0  0  0  0
 10  5  1  0  0  0  0
 11 18  1  0  0  0  0
 11 12  1  0  0  0  0
 12 19  1  0  0  0  0
 13 12  2  0  0  0  0
 13  1  1  0  0  0  0
 14 13  1  0  0  0  0
 15 16  1  0  0  0  0
 15 14  2  0  0  0  0
 16 11  2  0  0  0  0
 17 15  1  0  0  0  0
 20 17  1  0  0  0  0
 21 17  1  0  0  0  0
 22  6  1  0  0  0  0
 23 24  1  0  0  0  0
 23 22  1  0  0  0  0
 25 23  1  0  0  0  0
 26 25  1  0  0  0  0
 27 25  1  0  0  0  0
 28 27  1  0  0  0  0
 29 30  1  0  0  0  0
 29 27  1  0  0  0  0
 30 22  1  0  0  0  0
M  END
>  <minimizedAffinity>
-4.85876751

$$$$
