
 OpenBabel03272501073D

 40 43  0  0  1  0  0  0  0  0999 V2000
   38.9560   32.4640   47.6940 C   0  0  2  0  0  0  0  0  0  0  0  0
   37.9700   32.6210   48.9000 C   0  0  2  0  0  0  0  0  0  0  0  0
   38.8330   33.2870   49.8640 C   0  0  0  0  0  0  0  0  0  0  0  0
   39.6340   34.1800   49.1680 O   0  0  0  0  0  0  0  0  0  0  0  0
   39.5840   33.8760   47.8460 C   0  0  0  0  0  0  0  0  0  0  0  0
   39.7390   31.7460   47.9220 H   0  0  0  0  0  0  0  0  0  0  0  0
   37.1860   33.3240   48.5120 H   0  0  0  0  0  0  0  0  0  0  0  0
   39.5250   32.5740   50.3520 H   0  0  0  0  0  0  0  0  0  0  0  0
   38.2970   33.7910   50.7150 H   0  0  0  0  0  0  0  0  0  0  0  0
   40.5370   33.9360   47.3060 H   0  0  0  0  0  0  0  0  0  0  0  0
   38.8540   34.5570   47.3500 H   0  0  0  0  0  0  0  0  0  0  0  0
   37.3250   29.2910   50.5270 C   0  0  0  0  0  0  0  0  0  0  0  0
   37.9690   30.5140   50.2060 C   0  0  0  0  0  0  0  0  0  0  0  0
   37.3530   31.3730   49.2670 C   0  0  0  0  0  0  0  0  0  0  0  0
   36.1580   30.9890   48.7030 N   0  0  0  0  0  0  0  0  0  0  0  0
   35.5820   29.8260   49.0320 C   0  0  0  0  0  0  0  0  0  0  0  0
   36.1440   28.9740   49.9310 N   0  0  0  0  0  0  0  0  0  0  0  0
   37.8170   28.6520   51.2470 H   0  0  0  0  0  0  0  0  0  0  0  0
   38.9010   30.7230   50.7000 H   0  0  0  0  0  0  0  0  0  0  0  0
   34.6470   29.6020   48.5430 H   0  0  0  0  0  0  0  0  0  0  0  0
   38.3010   32.4030   46.5060 O   0  0  0  0  0  0  0  0  0  0  0  0
   40.7460   32.2880   44.6320 Cl  0  0  0  0  0  0  0  0  0  0  0  0
   39.2670   31.3850   44.4240 C   0  0  0  0  0  0  0  0  0  0  0  0
   38.3170   31.6210   45.4090 C   0  0  0  0  0  0  0  0  0  0  0  0
   37.1330   30.9200   45.2540 C   0  0  0  0  0  0  0  0  0  0  0  0
   36.9000   30.0480   44.2030 C   0  0  0  0  0  0  0  0  0  0  0  0
   37.8990   29.8670   43.2610 C   0  0  0  0  0  0  0  0  0  0  0  0
   39.1020   30.5420   43.3670 C   0  0  0  0  0  0  0  0  0  0  0  0
   36.2890   31.0060   45.9580 H   0  0  0  0  0  0  0  0  0  0  0  0
   35.9450   29.5190   44.1270 H   0  0  0  0  0  0  0  0  0  0  0  0
   37.6140   29.1650   42.4910 H   0  0  0  0  0  0  0  0  0  0  0  0
   40.0920   30.2970   42.3800 N   0  0  0  0  0  0  0  0  0  0  0  0
   40.2930   31.0970   41.1940 C   0  0  0  0  0  3  0  0  0  0  0  0
   39.7200   32.0480   41.1860 H   0  0  0  0  0  0  0  0  0  0  0  0
   39.9010   30.2160   40.0290 C   0  0  0  0  0  3  0  0  0  0  0  0
   39.7760   30.8030   39.0970 H   0  0  0  0  0  0  0  0  0  0  0  0
   40.8760   29.1800   39.8940 N   0  0  0  0  0  0  0  0  0  0  0  0
   41.4290   29.2740   39.0360 H   0  0  0  0  0  0  0  0  0  0  0  0
   41.7040   29.0040   41.0350 C   0  0  0  0  0  2  0  0  0  0  0  0
   41.0320   29.2240   42.3700 C   0  0  0  0  0  2  0  0  0  0  0  0
  1  5  1  0  0  0  0
  1  6  1  1  0  0  0
  1  2  1  0  0  0  0
  2  7  1  6  0  0  0
  2 14  1  0  0  0  0
  2  3  1  0  0  0  0
  3  8  1  0  0  0  0
  3  9  1  0  0  0  0
  4  3  1  0  0  0  0
  5  4  1  0  0  0  0
 10  5  1  0  0  0  0
 11  5  1  0  0  0  0
 12 18  1  0  0  0  0
 13 12  1  0  0  0  0
 13 19  1  0  0  0  0
 14 13  2  0  0  0  0
 15 16  2  0  0  0  0
 15 14  1  0  0  0  0
 16 17  1  0  0  0  0
 17 12  2  0  0  0  0
 20 16  1  0  0  0  0
 21  1  1  0  0  0  0
 23 22  1  0  0  0  0
 23 24  1  0  0  0  0
 24 21  1  0  0  0  0
 25 24  2  0  0  0  0
 25 29  1  0  0  0  0
 26 25  1  0  0  0  0
 27 28  1  0  0  0  0
 27 26  2  0  0  0  0
 28 23  2  0  0  0  0
 30 26  1  0  0  0  0
 31 27  1  0  0  0  0
 32 28  1  0  0  0  0
 33 32  1  0  0  0  0
 34 33  1  0  0  0  0
 35 33  1  0  0  0  0
 36 35  1  0  0  0  0
 37 35  1  0  0  0  0
 37 39  1  0  0  0  0
 38 37  1  0  0  0  0
 39 40  1  0  0  0  0
 40 32  1  0  0  0  0
M  END
>  <minimizedAffinity>
-6.12687969

>  <minimizedRMSD>
1.03677559

$$$$
