
 OpenBabel03272501073D

 40 43  0  0  1  0  0  0  0  0999 V2000
   38.9040   32.5000   47.7920 C   0  0  2  0  0  0  0  0  0  0  0  0
   38.0480   32.8340   49.0590 C   0  0  2  0  0  0  0  0  0  0  0  0
   39.0320   33.5340   49.8700 C   0  0  0  0  0  0  0  0  0  0  0  0
   39.8110   34.3020   49.0190 O   0  0  0  0  0  0  0  0  0  0  0  0
   39.6200   33.8770   47.7440 C   0  0  0  0  0  0  0  0  0  0  0  0
   39.6650   31.7590   48.0210 H   0  0  0  0  0  0  0  0  0  0  0  0
   37.2690   33.5450   48.6730 H   0  0  0  0  0  0  0  0  0  0  0  0
   39.7280   32.8280   50.3650 H   0  0  0  0  0  0  0  0  0  0  0  0
   38.6080   34.1490   50.7110 H   0  0  0  0  0  0  0  0  0  0  0  0
   40.5190   33.8250   47.1180 H   0  0  0  0  0  0  0  0  0  0  0  0
   38.8840   34.5530   47.2490 H   0  0  0  0  0  0  0  0  0  0  0  0
   37.3960   29.6970   51.0310 C   0  0  0  0  0  0  0  0  0  0  0  0
   38.0730   30.8390   50.5300 C   0  0  0  0  0  0  0  0  0  0  0  0
   37.4010   31.6680   49.6040 C   0  0  0  0  0  0  0  0  0  0  0  0
   36.1210   31.3340   49.2250 N   0  0  0  0  0  0  0  0  0  0  0  0
   35.5160   30.2470   49.7190 C   0  0  0  0  0  0  0  0  0  0  0  0
   36.1300   29.4260   50.6120 N   0  0  0  0  0  0  0  0  0  0  0  0
   37.9330   29.0790   51.7380 H   0  0  0  0  0  0  0  0  0  0  0  0
   39.0720   31.0140   50.8880 H   0  0  0  0  0  0  0  0  0  0  0  0
   34.5130   30.0580   49.3680 H   0  0  0  0  0  0  0  0  0  0  0  0
   38.1370   32.3670   46.6800 O   0  0  0  0  0  0  0  0  0  0  0  0
   40.4380   31.9400   44.6730 Cl  0  0  0  0  0  0  0  0  0  0  0  0
   38.8940   31.1260   44.6330 C   0  0  0  0  0  0  0  0  0  0  0  0
   38.0300   31.5030   45.6520 C   0  0  0  0  0  0  0  0  0  0  0  0
   36.7960   30.8740   45.6290 C   0  0  0  0  0  0  0  0  0  0  0  0
   36.4380   29.9410   44.6710 C   0  0  0  0  0  0  0  0  0  0  0  0
   37.3580   29.6190   43.6870 C   0  0  0  0  0  0  0  0  0  0  0  0
   38.6050   30.2150   43.6610 C   0  0  0  0  0  0  0  0  0  0  0  0
   36.0090   31.0730   46.3750 H   0  0  0  0  0  0  0  0  0  0  0  0
   35.4480   29.4740   44.6990 H   0  0  0  0  0  0  0  0  0  0  0  0
   36.9780   28.8790   42.9960 H   0  0  0  0  0  0  0  0  0  0  0  0
   39.5080   29.8270   42.6390 N   0  0  0  0  0  0  0  0  0  0  0  0
   39.1240   29.2540   41.3700 C   0  0  0  0  0  3  0  0  0  0  0  0
   38.0330   29.2960   41.1660 H   0  0  0  0  0  0  0  0  0  0  0  0
   39.6180   27.8260   41.3920 C   0  0  0  0  0  3  0  0  0  0  0  0
   39.1620   27.2220   40.5820 H   0  0  0  0  0  0  0  0  0  0  0  0
   41.0450   27.8370   41.3270 N   0  0  0  0  0  0  0  0  0  0  0  0
   41.3990   27.4540   40.4450 H   0  0  0  0  0  0  0  0  0  0  0  0
   41.6350   29.0940   41.6270 C   0  0  0  0  0  2  0  0  0  0  0  0
   40.9320   29.9090   42.6870 C   0  0  0  0  0  2  0  0  0  0  0  0
  1  6  1  1  0  0  0
  1  2  1  0  0  0  0
  2  7  1  6  0  0  0
  2 14  1  0  0  0  0
  2  3  1  0  0  0  0
  3  8  1  0  0  0  0
  3  9  1  0  0  0  0
  4  3  1  0  0  0  0
  5  1  1  0  0  0  0
  5  4  1  0  0  0  0
 10  5  1  0  0  0  0
 11  5  1  0  0  0  0
 12 18  1  0  0  0  0
 13 19  1  0  0  0  0
 13 12  2  0  0  0  0
 14 13  1  0  0  0  0
 15 14  2  0  0  0  0
 15 16  1  0  0  0  0
 16 17  2  0  0  0  0
 17 12  1  0  0  0  0
 20 16  1  0  0  0  0
 21  1  1  0  0  0  0
 23 22  1  0  0  0  0
 23 24  1  0  0  0  0
 24 21  1  0  0  0  0
 25 24  2  0  0  0  0
 25 29  1  0  0  0  0
 26 30  1  0  0  0  0
 26 25  1  0  0  0  0
 27 26  2  0  0  0  0
 28 27  1  0  0  0  0
 28 23  2  0  0  0  0
 31 27  1  0  0  0  0
 32 40  1  0  0  0  0
 32 28  1  0  0  0  0
 33 35  1  0  0  0  0
 33 32  1  0  0  0  0
 34 33  1  0  0  0  0
 36 35  1  0  0  0  0
 37 35  1  0  0  0  0
 37 39  1  0  0  0  0
 38 37  1  0  0  0  0
 39 40  1  0  0  0  0
M  END
>  <minimizedAffinity>
-5.99607229

>  <minimizedRMSD>
0.835681558

$$$$
