
 OpenBabel03272501073D

 40 43  0  0  1  0  0  0  0  0999 V2000
   38.9570   32.4970   47.7250 C   0  0  2  0  0  0  0  0  0  0  0  0
   37.9890   32.6650   48.9440 C   0  0  2  0  0  0  0  0  0  0  0  0
   38.8650   33.3390   49.8890 C   0  0  0  0  0  0  0  0  0  0  0  0
   39.6560   34.2250   49.1740 O   0  0  0  0  0  0  0  0  0  0  0  0
   39.5880   33.9100   47.8560 C   0  0  0  0  0  0  0  0  0  0  0  0
   39.7430   31.7810   47.9480 H   0  0  0  0  0  0  0  0  0  0  0  0
   37.2000   33.3650   48.5600 H   0  0  0  0  0  0  0  0  0  0  0  0
   39.5640   32.6300   50.3740 H   0  0  0  0  0  0  0  0  0  0  0  0
   38.3420   33.8500   50.7440 H   0  0  0  0  0  0  0  0  0  0  0  0
   40.5330   33.9650   47.3020 H   0  0  0  0  0  0  0  0  0  0  0  0
   38.8510   34.5870   47.3640 H   0  0  0  0  0  0  0  0  0  0  0  0
   37.3490   29.3650   50.6330 C   0  0  0  0  0  0  0  0  0  0  0  0
   37.9880   30.5860   50.2930 C   0  0  0  0  0  0  0  0  0  0  0  0
   37.3760   31.4200   49.3300 C   0  0  0  0  0  0  0  0  0  0  0  0
   36.1900   31.0160   48.7610 N   0  0  0  0  0  0  0  0  0  0  0  0
   35.6190   29.8560   49.1080 C   0  0  0  0  0  0  0  0  0  0  0  0
   36.1770   29.0270   50.0310 N   0  0  0  0  0  0  0  0  0  0  0  0
   37.8380   28.7450   51.3720 H   0  0  0  0  0  0  0  0  0  0  0  0
   38.9130   30.8120   50.7930 H   0  0  0  0  0  0  0  0  0  0  0  0
   34.6910   29.6140   48.6140 H   0  0  0  0  0  0  0  0  0  0  0  0
   38.2860   32.4260   46.5470 O   0  0  0  0  0  0  0  0  0  0  0  0
   40.7030   32.4280   44.6350 Cl  0  0  0  0  0  0  0  0  0  0  0  0
   39.2560   31.4730   44.4360 C   0  0  0  0  0  0  0  0  0  0  0  0
   38.3140   31.6600   45.4390 C   0  0  0  0  0  0  0  0  0  0  0  0
   37.1540   30.9170   45.2920 C   0  0  0  0  0  0  0  0  0  0  0  0
   36.9380   30.0510   44.2330 C   0  0  0  0  0  0  0  0  0  0  0  0
   37.9280   29.9200   43.2730 C   0  0  0  0  0  0  0  0  0  0  0  0
   39.1060   30.6380   43.3700 C   0  0  0  0  0  0  0  0  0  0  0  0
   36.3190   30.9620   46.0100 H   0  0  0  0  0  0  0  0  0  0  0  0
   36.0020   29.4870   44.1640 H   0  0  0  0  0  0  0  0  0  0  0  0
   37.6580   29.2180   42.4980 H   0  0  0  0  0  0  0  0  0  0  0  0
   40.0890   30.4430   42.3660 N   0  0  0  0  0  0  0  0  0  0  0  0
   40.1880   31.2120   41.1460 C   0  0  0  0  0  3  0  0  0  0  0  0
   39.5320   32.1070   41.1200 H   0  0  0  0  0  0  0  0  0  0  0  0
   39.8480   30.2560   40.0250 C   0  0  0  0  0  3  0  0  0  0  0  0
   39.6470   30.7930   39.0770 H   0  0  0  0  0  0  0  0  0  0  0  0
   40.9080   29.3050   39.9010 N   0  0  0  0  0  0  0  0  0  0  0  0
   41.4280   29.4150   39.0240 H   0  0  0  0  0  0  0  0  0  0  0  0
   41.7750   29.2470   41.0230 C   0  0  0  0  0  2  0  0  0  0  0  0
   41.1210   29.4590   42.3670 C   0  0  0  0  0  2  0  0  0  0  0  0
  1  5  1  0  0  0  0
  1  6  1  1  0  0  0
  1  2  1  0  0  0  0
  2  7  1  6  0  0  0
  2 14  1  0  0  0  0
  2  3  1  0  0  0  0
  3  8  1  0  0  0  0
  3  9  1  0  0  0  0
  4  3  1  0  0  0  0
  5  4  1  0  0  0  0
 10  5  1  0  0  0  0
 11  5  1  0  0  0  0
 12 18  1  0  0  0  0
 13 12  1  0  0  0  0
 13 19  1  0  0  0  0
 14 13  2  0  0  0  0
 15 16  2  0  0  0  0
 15 14  1  0  0  0  0
 16 17  1  0  0  0  0
 17 12  2  0  0  0  0
 20 16  1  0  0  0  0
 21  1  1  0  0  0  0
 23 22  1  0  0  0  0
 23 24  1  0  0  0  0
 24 21  1  0  0  0  0
 25 24  2  0  0  0  0
 25 29  1  0  0  0  0
 26 25  1  0  0  0  0
 27 28  1  0  0  0  0
 27 26  2  0  0  0  0
 28 23  2  0  0  0  0
 30 26  1  0  0  0  0
 31 27  1  0  0  0  0
 32 40  1  0  0  0  0
 32 28  1  0  0  0  0
 33 32  1  0  0  0  0
 34 33  1  0  0  0  0
 35 33  1  0  0  0  0
 36 35  1  0  0  0  0
 37 35  1  0  0  0  0
 37 39  1  0  0  0  0
 38 37  1  0  0  0  0
 39 40  1  0  0  0  0
M  END
>  <minimizedAffinity>
-6.13632298

>  <minimizedRMSD>
1.03605759

$$$$
