
 OpenBabel03272501073D

 40 43  0  0  1  0  0  0  0  0999 V2000
   38.9560   32.4640   47.6940 C   0  0  2  0  0  0  0  0  0  0  0  0
   37.9710   32.6210   48.9010 C   0  0  2  0  0  0  0  0  0  0  0  0
   38.8330   33.2870   49.8640 C   0  0  0  0  0  0  0  0  0  0  0  0
   39.6340   34.1790   49.1680 O   0  0  0  0  0  0  0  0  0  0  0  0
   39.5850   33.8750   47.8470 C   0  0  0  0  0  0  0  0  0  0  0  0
   39.7390   31.7460   47.9220 H   0  0  0  0  0  0  0  0  0  0  0  0
   37.1870   33.3240   48.5120 H   0  0  0  0  0  0  0  0  0  0  0  0
   39.5250   32.5740   50.3530 H   0  0  0  0  0  0  0  0  0  0  0  0
   38.2980   33.7900   50.7160 H   0  0  0  0  0  0  0  0  0  0  0  0
   40.5380   33.9350   47.3060 H   0  0  0  0  0  0  0  0  0  0  0  0
   38.8550   34.5570   47.3500 H   0  0  0  0  0  0  0  0  0  0  0  0
   37.3250   29.2900   50.5270 C   0  0  0  0  0  0  0  0  0  0  0  0
   37.9690   30.5140   50.2060 C   0  0  0  0  0  0  0  0  0  0  0  0
   37.3530   31.3720   49.2670 C   0  0  0  0  0  0  0  0  0  0  0  0
   36.1580   30.9890   48.7030 N   0  0  0  0  0  0  0  0  0  0  0  0
   35.5820   29.8260   49.0320 C   0  0  0  0  0  0  0  0  0  0  0  0
   36.1440   28.9740   49.9310 N   0  0  0  0  0  0  0  0  0  0  0  0
   37.8160   28.6520   51.2470 H   0  0  0  0  0  0  0  0  0  0  0  0
   38.9010   30.7220   50.7000 H   0  0  0  0  0  0  0  0  0  0  0  0
   34.6470   29.6020   48.5430 H   0  0  0  0  0  0  0  0  0  0  0  0
   38.3020   32.4020   46.5070 O   0  0  0  0  0  0  0  0  0  0  0  0
   40.7470   32.2880   44.6330 Cl  0  0  0  0  0  0  0  0  0  0  0  0
   39.2680   31.3850   44.4240 C   0  0  0  0  0  0  0  0  0  0  0  0
   38.3180   31.6210   45.4090 C   0  0  0  0  0  0  0  0  0  0  0  0
   37.1340   30.9190   45.2540 C   0  0  0  0  0  0  0  0  0  0  0  0
   36.9010   30.0480   44.2040 C   0  0  0  0  0  0  0  0  0  0  0  0
   37.9000   29.8670   43.2610 C   0  0  0  0  0  0  0  0  0  0  0  0
   39.1020   30.5410   43.3670 C   0  0  0  0  0  0  0  0  0  0  0  0
   36.2900   31.0060   45.9580 H   0  0  0  0  0  0  0  0  0  0  0  0
   35.9450   29.5180   44.1280 H   0  0  0  0  0  0  0  0  0  0  0  0
   37.6150   29.1650   42.4910 H   0  0  0  0  0  0  0  0  0  0  0  0
   40.0920   30.2960   42.3810 N   0  0  0  0  0  0  0  0  0  0  0  0
   40.2930   31.0960   41.1950 C   0  0  0  0  0  3  0  0  0  0  0  0
   39.7210   32.0470   41.1870 H   0  0  0  0  0  0  0  0  0  0  0  0
   39.9020   30.2160   40.0290 C   0  0  0  0  0  3  0  0  0  0  0  0
   39.7780   30.8030   39.0980 H   0  0  0  0  0  0  0  0  0  0  0  0
   40.8760   29.1790   39.8940 N   0  0  0  0  0  0  0  0  0  0  0  0
   41.4300   29.2730   39.0370 H   0  0  0  0  0  0  0  0  0  0  0  0
   41.7030   29.0020   41.0350 C   0  0  0  0  0  2  0  0  0  0  0  0
   41.0320   29.2230   42.3700 C   0  0  0  0  0  2  0  0  0  0  0  0
  1  5  1  0  0  0  0
  1  6  1  1  0  0  0
  1  2  1  0  0  0  0
  2  7  1  6  0  0  0
  2 14  1  0  0  0  0
  2  3  1  0  0  0  0
  3  8  1  0  0  0  0
  3  9  1  0  0  0  0
  4  3  1  0  0  0  0
  5  4  1  0  0  0  0
 10  5  1  0  0  0  0
 11  5  1  0  0  0  0
 12 18  1  0  0  0  0
 13 12  1  0  0  0  0
 13 19  1  0  0  0  0
 14 13  2  0  0  0  0
 15 16  2  0  0  0  0
 15 14  1  0  0  0  0
 16 17  1  0  0  0  0
 17 12  2  0  0  0  0
 20 16  1  0  0  0  0
 21  1  1  0  0  0  0
 23 22  1  0  0  0  0
 23 24  1  0  0  0  0
 24 21  1  0  0  0  0
 25 24  2  0  0  0  0
 25 29  1  0  0  0  0
 26 25  1  0  0  0  0
 27 28  1  0  0  0  0
 27 26  2  0  0  0  0
 28 23  2  0  0  0  0
 30 26  1  0  0  0  0
 31 27  1  0  0  0  0
 32 28  1  0  0  0  0
 33 32  1  0  0  0  0
 34 33  1  0  0  0  0
 35 33  1  0  0  0  0
 36 35  1  0  0  0  0
 37 35  1  0  0  0  0
 37 39  1  0  0  0  0
 38 37  1  0  0  0  0
 39 40  1  0  0  0  0
 40 32  1  0  0  0  0
M  END
>  <minimizedAffinity>
-6.12699127

>  <minimizedRMSD>
1.1132201

$$$$
