
 OpenBabel03272508343D

 19 21  0  0  0  0  0  0  0  0999 V2000
   37.7910   31.1390   48.2450 C   0  0  0  0  0  0  0  0  0  0  0  0
   38.4090   30.6660   47.1060 C   0  0  0  0  0  0  0  0  0  0  0  0
   39.2130   31.6890   46.6080 C   0  0  0  0  0  0  0  0  0  0  0  0
   39.0570   32.7280   47.4490 N   0  0  0  0  0  0  0  0  0  0  0  0
   38.1990   32.4140   48.4470 N   0  0  0  0  0  0  0  0  0  0  0  0
   38.3190   29.6960   46.6460 H   0  0  0  0  0  0  0  0  0  0  0  0
   39.8260   31.6540   45.7380 H   0  0  0  0  0  0  0  0  0  0  0  0
   36.0120   29.4260   51.0820 C   0  0  0  0  0  0  0  0  0  0  0  0
   36.9460   30.2300   50.4310 C   0  0  0  0  0  0  0  0  0  0  0  0
   36.8690   30.3290   49.0340 C   0  0  0  0  0  0  0  0  0  0  0  0
   35.8780   29.6280   48.3810 N   0  0  0  0  0  0  0  0  0  0  0  0
   34.9890   28.8560   49.0620 C   0  0  0  0  0  0  0  0  0  0  0  0
   35.0530   28.7530   50.3990 N   0  0  0  0  0  0  0  0  0  0  0  0
   36.0730   29.3520   52.1600 H   0  0  0  0  0  0  0  0  0  0  0  0
   37.7190   30.7790   50.9290 H   0  0  0  0  0  0  0  0  0  0  0  0
   34.2650   28.3610   48.4260 H   0  0  0  0  0  0  0  0  0  0  0  0
   39.6980   34.0110   47.3340 C   0  0  0  0  0  3  0  0  0  0  0  0
   39.7160   34.9480   48.4700 C   0  0  0  0  0  2  0  0  0  0  0  0
   40.9860   34.2370   48.1670 C   0  0  0  0  0  2  0  0  0  0  0  0
  1  5  2  0  0  0  0
  1 10  1  0  0  0  0
  2  1  1  0  0  0  0
  3  2  2  0  0  0  0
  3  4  1  0  0  0  0
  4  5  1  0  0  0  0
  6  2  1  0  0  0  0
  7  3  1  0  0  0  0
  8 14  1  0  0  0  0
  9 15  1  0  0  0  0
  9  8  1  0  0  0  0
 10  9  2  0  0  0  0
 11 10  1  0  0  0  0
 11 12  2  0  0  0  0
 12 13  1  0  0  0  0
 13  8  2  0  0  0  0
 16 12  1  0  0  0  0
 17  4  1  0  0  0  0
 17 19  1  0  0  0  0
 17 18  1  0  0  0  0
 19 18  1  0  0  0  0
M  END
>  <minimizedAffinity>
-2.71609282

>  <minimizedRMSD>
1.189713

$$$$
