
 OpenBabel03272507593D

 33 36  0  0  0  0  0  0  0  0999 V2000
   36.8990   31.2620   48.5750 C   0  0  0  0  0  0  0  0  0  0  0  0
   37.1300   32.1590   49.6080 C   0  0  0  0  0  0  0  0  0  0  0  0
   38.0620   33.1830   49.4020 C   0  0  0  0  0  0  0  0  0  0  0  0
   38.7350   33.2940   48.1940 C   0  0  0  0  0  0  0  0  0  0  0  0
   38.4750   32.3820   47.1940 C   0  0  0  0  0  0  0  0  0  0  0  0
   37.5810   31.4160   47.4210 N   0  0  0  0  0  0  0  0  0  0  0  0
   36.7330   32.2840   50.5990 H   0  0  0  0  0  0  0  0  0  0  0  0
   38.3550   33.9540   50.0980 H   0  0  0  0  0  0  0  0  0  0  0  0
   39.4660   34.0560   47.9630 H   0  0  0  0  0  0  0  0  0  0  0  0
   35.1790   28.4320   50.3330 C   0  0  0  0  0  0  0  0  0  0  0  0
   36.1630   29.4090   50.0100 C   0  0  0  0  0  0  0  0  0  0  0  0
   35.9230   30.2650   48.9290 C   0  0  0  0  0  0  0  0  0  0  0  0
   34.7540   30.1050   48.2510 N   0  0  0  0  0  0  0  0  0  0  0  0
   33.8370   29.1560   48.5940 C   0  0  0  0  0  0  0  0  0  0  0  0
   34.0550   28.3290   49.6280 N   0  0  0  0  0  0  0  0  0  0  0  0
   32.7060   29.1890   47.7370 N   0  0  0  0  0  0  0  0  0  0  0  0
   35.3480   27.7610   51.1680 H   0  0  0  0  0  0  0  0  0  0  0  0
   32.8520   28.8570   46.7550 H   0  0  0  0  0  0  0  0  0  0  0  0
   31.9470   29.5670   48.3510 H   0  0  0  0  0  0  0  0  0  0  0  0
   37.3930   29.4750   50.8290 C   0  0  0  0  0  0  0  0  0  0  0  0
   38.5100   29.8010   50.0540 F   0  0  0  0  0  0  0  0  0  0  0  0
   37.2590   30.4140   51.7870 F   0  0  0  0  0  0  0  0  0  0  0  0
   37.6990   28.2630   51.4530 F   0  0  0  0  0  0  0  0  0  0  0  0
   39.1320   32.4350   45.8980 C   0  0  0  0  0  0  0  0  0  0  0  0
   40.4470   32.1220   45.6330 C   0  0  0  0  0  0  0  0  0  0  0  0
   40.7110   32.2900   44.2840 C   0  0  0  0  0  0  0  0  0  0  0  0
   39.5170   32.7080   43.7640 N   0  0  0  0  0  0  0  0  0  0  0  0
   38.6120   32.7850   44.7190 N   0  0  0  0  0  0  0  0  0  0  0  0
   41.2130   31.7910   46.3260 H   0  0  0  0  0  0  0  0  0  0  0  0
   41.6670   32.1170   43.7910 H   0  0  0  0  0  0  0  0  0  0  0  0
   39.3740   33.0000   42.3410 C   0  0  0  0  0  0  0  0  0  0  0  0
   39.5480   31.8770   41.3610 C   0  0  0  0  0  0  0  0  0  0  0  0
   38.1760   32.3910   41.6040 C   0  0  0  0  0  0  0  0  0  0  0  0
  1 12  1  0  0  0  0
  1  2  1  0  0  0  0
  2  7  1  0  0  0  0
  3  2  2  0  0  0  0
  3  8  1  0  0  0  0
  4  3  1  0  0  0  0
  5  6  1  0  0  0  0
  5  4  2  0  0  0  0
  6  1  2  0  0  0  0
  9  4  1  0  0  0  0
 10 17  1  0  0  0  0
 11 10  1  0  0  0  0
 11 20  1  0  0  0  0
 12 11  2  0  0  0  0
 13 14  2  0  0  0  0
 13 12  1  0  0  0  0
 14 15  1  0  0  0  0
 15 10  2  0  0  0  0
 16 19  1  0  0  0  0
 16 14  1  0  0  0  0
 18 16  1  0  0  0  0
 20 23  1  0  0  0  0
 20 22  1  0  0  0  0
 21 20  1  0  0  0  0
 24  5  1  0  0  0  0
 25 24  1  0  0  0  0
 25 29  1  0  0  0  0
 26 25  2  0  0  0  0
 27 26  1  0  0  0  0
 27 28  1  0  0  0  0
 28 24  2  0  0  0  0
 30 26  1  0  0  0  0
 31 27  1  0  0  0  0
 32 33  1  0  0  0  0
 32 31  1  0  0  0  0
 33 31  1  0  0  0  0
M  END
>  <minimizedAffinity>
-7.0094862

>  <minimizedRMSD>
1.14931118

$$$$
