
 OpenBabel03272510313D

 26 28  0  0  0  0  0  0  0  0999 V2000
   37.3820   31.1450   49.4290 C   0  0  0  0  0  0  0  0  0  0  0  0
   38.3540   32.1290   49.4600 C   0  0  0  0  0  0  0  0  0  0  0  0
   38.7450   32.5930   48.2130 C   0  0  0  0  0  0  0  0  0  0  0  0
   38.1940   32.0940   47.0760 N   0  0  0  0  0  0  0  0  0  0  0  0
   37.2480   31.1330   47.0900 C   0  0  0  0  0  0  0  0  0  0  0  0
   36.8370   30.6490   48.3010 N   0  0  0  0  0  0  0  0  0  0  0  0
   38.7390   32.4690   50.4090 H   0  0  0  0  0  0  0  0  0  0  0  0
   39.5060   33.3660   48.1870 H   0  0  0  0  0  0  0  0  0  0  0  0
   36.8890   30.6140   50.7520 C   0  0  0  0  0  0  0  0  0  0  0  0
   36.0110   29.4980   50.8600 C   0  0  0  0  0  0  0  0  0  0  0  0
   37.4950   29.2300   51.0760 C   0  0  0  0  0  0  0  0  0  0  0  0
   36.9920   31.3510   51.5910 H   0  0  0  0  0  0  0  0  0  0  0  0
   35.4060   29.3660   51.7640 H   0  0  0  0  0  0  0  0  0  0  0  0
   35.6140   28.9750   49.9560 H   0  0  0  0  0  0  0  0  0  0  0  0
   37.8540   29.1140   52.0990 H   0  0  0  0  0  0  0  0  0  0  0  0
   38.0610   28.7170   50.2990 H   0  0  0  0  0  0  0  0  0  0  0  0
   36.6390   30.5970   45.8800 C   0  0  0  0  0  0  0  0  0  0  0  0
   35.7880   31.1830   45.5190 H   0  0  0  0  0  0  0  0  0  0  0  0
   36.3540   29.5440   46.0110 H   0  0  0  0  0  0  0  0  0  0  0  0
   37.5620   31.4960   43.7390 C   0  0  0  0  0  0  0  0  0  0  0  0
   36.5870   32.3020   43.5490 O   0  0  0  0  0  0  0  0  0  0  0  0
   37.6590   30.6130   44.8440 N   0  0  0  0  0  0  0  0  0  0  0  0
   38.4650   29.9530   44.9410 H   0  0  0  0  0  0  0  0  0  0  0  0
   38.6350   31.5210   42.7110 C   0  0  0  0  0  3  0  0  0  0  0  0
   39.1130   32.8250   42.1520 C   0  0  0  0  0  2  0  0  0  0  0  0
   39.9910   32.0690   43.0750 C   0  0  0  0  0  2  0  0  0  0  0  0
  1  2  1  0  0  0  0
  1  9  1  0  0  0  0
  2  7  1  0  0  0  0
  3  2  2  0  0  0  0
  4  5  2  0  0  0  0
  4  3  1  0  0  0  0
  5  6  1  0  0  0  0
  6  1  2  0  0  0  0
  8  3  1  0  0  0  0
  9 10  1  0  0  0  0
  9 11  1  0  0  0  0
  9 12  1  0  0  0  0
 10 11  1  0  0  0  0
 10 13  1  0  0  0  0
 11 15  1  0  0  0  0
 14 10  1  0  0  0  0
 16 11  1  0  0  0  0
 17 19  1  0  0  0  0
 17  5  1  0  0  0  0
 18 17  1  0  0  0  0
 20 22  1  0  0  0  0
 21 20  2  0  0  0  0
 22 23  1  0  0  0  0
 22 17  1  0  0  0  0
 24 26  1  0  0  0  0
 24 20  1  0  0  0  0
 25 24  1  0  0  0  0
 25 26  1  0  0  0  0
M  END
>  <minimizedAffinity>
-4.59531164

>  <minimizedRMSD>
2.75281167

$$$$
