
 OpenBabel03272509153D

 38 41  0  0  1  0  0  0  0  0999 V2000
   37.7850   23.8200   32.4230 C   0  0  0  0  0  0  0  0  0  0  0  0
   38.1320   24.0870   33.7790 C   0  0  0  0  0  0  0  0  0  0  0  0
   38.0780   23.0120   34.6790 C   0  0  0  0  0  0  0  0  0  0  0  0
   37.7020   21.7920   34.2200 N   0  0  0  0  0  0  0  0  0  0  0  0
   37.3810   21.5780   32.9330 C   0  0  0  0  0  0  0  0  0  0  0  0
   37.4230   22.5830   32.0460 N   0  0  0  0  0  0  0  0  0  0  0  0
   37.7970   24.5530   31.6400 H   0  0  0  0  0  0  0  0  0  0  0  0
   37.0900   20.5910   32.6190 H   0  0  0  0  0  0  0  0  0  0  0  0
   38.4920   25.4410   34.0680 N   0  0  0  0  0  0  0  0  0  0  0  0
   39.7030   26.1960   34.3560 C   0  0  0  0  0  0  0  0  0  0  0  0
   39.2700   26.9720   35.6110 C   0  0  0  0  0  0  0  0  0  0  0  0
   37.7830   27.2270   35.4010 C   0  0  0  0  0  0  0  0  0  0  0  0
   37.4610   26.5020   34.1350 C   0  0  1  0  0  0  0  0  0  0  0  0
   40.0260   26.8460   33.5450 H   0  0  0  0  0  0  0  0  0  0  0  0
   40.5100   25.4790   34.6490 H   0  0  0  0  0  0  0  0  0  0  0  0
   39.8420   27.9110   35.6900 H   0  0  0  0  0  0  0  0  0  0  0  0
   39.4350   26.2970   36.4750 H   0  0  0  0  0  0  0  0  0  0  0  0
   37.1570   26.8680   36.2310 H   0  0  0  0  0  0  0  0  0  0  0  0
   37.6000   28.3260   35.2570 H   0  0  0  0  0  0  0  0  0  0  0  0
   36.4610   26.0850   34.0700 H   0  0  0  0  0  0  0  0  0  0  0  0
   36.7880   27.4330   31.9230 C   0  0  0  0  0  0  0  0  0  0  0  0
   35.8060   26.6530   31.7490 O   0  0  0  0  0  0  0  0  0  0  0  0
   37.7050   27.4060   33.0200 N   0  0  0  0  0  0  0  0  0  0  0  0
   36.8070   28.1250   31.0900 H   0  0  0  0  0  0  0  0  0  0  0  0
   38.4990   28.0690   32.9140 H   0  0  0  0  0  0  0  0  0  0  0  0
   38.4130   23.1690   36.0600 C   0  0  0  0  0  0  0  0  0  0  0  0
   37.4780   23.6990   36.9240 C   0  0  0  0  0  0  0  0  0  0  0  0
   37.6950   23.8890   38.2670 C   0  0  0  0  0  0  0  0  0  0  0  0
   38.9280   23.5190   38.7520 C   0  0  0  0  0  0  0  0  0  0  0  0
   39.9190   22.9810   37.9580 C   0  0  0  0  0  0  0  0  0  0  0  0
   39.6120   22.8240   36.6110 C   0  0  0  0  0  0  0  0  0  0  0  0
   36.5120   23.9890   36.5360 H   0  0  0  0  0  0  0  0  0  0  0  0
   36.9140   24.3110   38.8850 H   0  0  0  0  0  0  0  0  0  0  0  0
   39.0890   23.6750   39.8240 H   0  0  0  0  0  0  0  0  0  0  0  0
   40.8410   22.7230   38.4160 H   0  0  0  0  0  0  0  0  0  0  0  0
   40.6820   22.2470   35.7500 C   0  0  0  0  0  3  0  0  0  0  0  0
   41.7550   23.2070   35.2610 C   0  0  0  0  0  2  0  0  0  0  0  0
   42.0650   22.1070   36.2480 C   0  0  0  0  0  2  0  0  0  0  0  0
  1  2  1  0  0  0  0
  2  9  1  0  0  0  0
  2  3  2  0  0  0  0
  3 26  1  0  0  0  0
  4  3  1  0  0  0  0
  5  4  2  0  0  0  0
  6  1  2  0  0  0  0
  6  5  1  0  0  0  0
  7  1  1  0  0  0  0
  8  5  1  0  0  0  0
  9 13  1  0  0  0  0
  9 10  1  0  0  0  0
 10 15  1  0  0  0  0
 10 11  1  0  0  0  0
 11 16  1  0  0  0  0
 11 17  1  0  0  0  0
 12 11  1  0  0  0  0
 12 18  1  0  0  0  0
 13 20  1  6  0  0  0
 13 12  1  0  0  0  0
 14 10  1  0  0  0  0
 19 12  1  0  0  0  0
 21 23  1  0  0  0  0
 22 21  2  0  0  0  0
 23 13  1  0  0  0  0
 24 21  1  0  0  0  0
 25 23  1  0  0  0  0
 26 31  2  0  0  0  0
 26 27  1  0  0  0  0
 27 28  2  0  0  0  0
 28 29  1  0  0  0  0
 28 33  1  0  0  0  0
 29 34  1  0  0  0  0
 30 35  1  0  0  0  0
 30 29  2  0  0  0  0
 31 30  1  0  0  0  0
 32 27  1  0  0  0  0
 36 38  1  0  0  0  0
 36 31  1  0  0  0  0
 37 36  1  0  0  0  0
 37 38  1  0  0  0  0
M  END
>  <minimizedAffinity>
-5.66695118

$$$$

 OpenBabel03272509153D

 38 41  0  0  1  0  0  0  0  0999 V2000
   37.6180   23.6340   32.4160 C   0  0  0  0  0  0  0  0  0  0  0  0
   37.9610   23.9070   33.7720 C   0  0  0  0  0  0  0  0  0  0  0  0
   38.1150   22.8080   34.6290 C   0  0  0  0  0  0  0  0  0  0  0  0
   37.9300   21.5590   34.1320 N   0  0  0  0  0  0  0  0  0  0  0  0
   37.6070   21.3400   32.8470 C   0  0  0  0  0  0  0  0  0  0  0  0
   37.4530   22.3680   32.0000 N   0  0  0  0  0  0  0  0  0  0  0  0
   37.4830   24.3850   31.6630 H   0  0  0  0  0  0  0  0  0  0  0  0
   37.4720   20.3300   32.5020 H   0  0  0  0  0  0  0  0  0  0  0  0
   38.1020   25.2920   34.1050 N   0  0  0  0  0  0  0  0  0  0  0  0
   37.4610   26.2600   34.9840 C   0  0  0  0  0  0  0  0  0  0  0  0
   37.2280   27.4270   34.0100 C   0  0  0  0  0  0  0  0  0  0  0  0
   38.4080   27.3560   33.0490 C   0  0  0  0  0  0  0  0  0  0  0  0
   39.1450   26.1240   33.4630 C   0  0  1  0  0  0  0  0  0  0  0  0
   38.0590   26.5400   35.8490 H   0  0  0  0  0  0  0  0  0  0  0  0
   36.4640   25.8560   35.2920 H   0  0  0  0  0  0  0  0  0  0  0  0
   37.2020   28.3790   34.5630 H   0  0  0  0  0  0  0  0  0  0  0  0
   36.2760   27.2140   33.4810 H   0  0  0  0  0  0  0  0  0  0  0  0
   38.1080   27.3000   31.9930 H   0  0  0  0  0  0  0  0  0  0  0  0
   39.0700   28.2520   33.1920 H   0  0  0  0  0  0  0  0  0  0  0  0
   39.6450   25.5830   32.6660 H   0  0  0  0  0  0  0  0  0  0  0  0
   41.3930   26.9690   34.1270 C   0  0  0  0  0  0  0  0  0  0  0  0
   41.8680   27.0080   32.9540 O   0  0  0  0  0  0  0  0  0  0  0  0
   40.0980   26.4920   34.5000 N   0  0  0  0  0  0  0  0  0  0  0  0
   42.1480   27.3630   34.7980 H   0  0  0  0  0  0  0  0  0  0  0  0
   39.9500   26.4530   35.5290 H   0  0  0  0  0  0  0  0  0  0  0  0
   38.4640   22.9710   36.0060 C   0  0  0  0  0  0  0  0  0  0  0  0
   37.4950   23.3590   36.9060 C   0  0  0  0  0  0  0  0  0  0  0  0
   37.7220   23.5400   38.2490 C   0  0  0  0  0  0  0  0  0  0  0  0
   39.0040   23.3130   38.6940 C   0  0  0  0  0  0  0  0  0  0  0  0
   40.0330   22.9210   37.8620 C   0  0  0  0  0  0  0  0  0  0  0  0
   39.7110   22.7620   36.5180 C   0  0  0  0  0  0  0  0  0  0  0  0
   36.4900   23.5370   36.5500 H   0  0  0  0  0  0  0  0  0  0  0  0
   36.9120   23.8470   38.8970 H   0  0  0  0  0  0  0  0  0  0  0  0
   39.1740   23.4600   39.7660 H   0  0  0  0  0  0  0  0  0  0  0  0
   40.9910   22.7680   38.2910 H   0  0  0  0  0  0  0  0  0  0  0  0
   40.8210   22.3430   35.6170 C   0  0  0  0  0  3  0  0  0  0  0  0
   41.7980   23.4270   35.1920 C   0  0  0  0  0  2  0  0  0  0  0  0
   42.2150   22.2960   36.1000 C   0  0  0  0  0  2  0  0  0  0  0  0
  1  2  1  0  0  0  0
  2  9  1  0  0  0  0
  2  3  2  0  0  0  0
  3 26  1  0  0  0  0
  4  3  1  0  0  0  0
  5  4  2  0  0  0  0
  6  1  2  0  0  0  0
  6  5  1  0  0  0  0
  7  1  1  0  0  0  0
  8  5  1  0  0  0  0
  9 10  1  0  0  0  0
 10 15  1  0  0  0  0
 10 14  1  0  0  0  0
 11 16  1  0  0  0  0
 11 10  1  0  0  0  0
 12 19  1  0  0  0  0
 12 13  1  0  0  0  0
 12 11  1  0  0  0  0
 13 20  1  6  0  0  0
 13  9  1  0  0  0  0
 13 23  1  0  0  0  0
 17 11  1  0  0  0  0
 18 12  1  0  0  0  0
 21 23  1  0  0  0  0
 21 24  1  0  0  0  0
 22 21  2  0  0  0  0
 23 25  1  0  0  0  0
 26 31  2  0  0  0  0
 26 27  1  0  0  0  0
 27 28  2  0  0  0  0
 28 29  1  0  0  0  0
 28 33  1  0  0  0  0
 29 34  1  0  0  0  0
 30 35  1  0  0  0  0
 30 29  2  0  0  0  0
 31 30  1  0  0  0  0
 32 27  1  0  0  0  0
 36 38  1  0  0  0  0
 36 31  1  0  0  0  0
 37 36  1  0  0  0  0
 37 38  1  0  0  0  0
M  END
>  <minimizedAffinity>
-5.20068645

$$$$

 OpenBabel03272509153D

 38 41  0  0  1  0  0  0  0  0999 V2000
   36.5800   28.1950   34.6760 C   0  0  0  0  0  0  0  0  0  0  0  0
   37.3960   27.3540   33.8650 C   0  0  0  0  0  0  0  0  0  0  0  0
   37.1150   27.3170   32.4920 C   0  0  0  0  0  0  0  0  0  0  0  0
   36.0950   28.0720   32.0120 N   0  0  0  0  0  0  0  0  0  0  0  0
   35.3460   28.8530   32.8070 C   0  0  0  0  0  0  0  0  0  0  0  0
   35.5890   28.9120   34.1250 N   0  0  0  0  0  0  0  0  0  0  0  0
   36.7010   28.3170   35.7350 H   0  0  0  0  0  0  0  0  0  0  0  0
   34.5490   29.4330   32.3770 H   0  0  0  0  0  0  0  0  0  0  0  0
   38.4150   26.6290   34.5600 N   0  0  0  0  0  0  0  0  0  0  0  0
   39.7970   26.8360   34.9710 C   0  0  0  0  0  0  0  0  0  0  0  0
   40.4480   25.5370   34.4700 C   0  0  0  0  0  0  0  0  0  0  0  0
   39.3540   24.4870   34.6180 C   0  0  0  0  0  0  0  0  0  0  0  0
   38.1600   25.2630   35.0710 C   0  0  1  0  0  0  0  0  0  0  0  0
   39.9250   26.9920   36.0410 H   0  0  0  0  0  0  0  0  0  0  0  0
   40.2190   27.6900   34.3820 H   0  0  0  0  0  0  0  0  0  0  0  0
   41.3340   25.2990   35.0810 H   0  0  0  0  0  0  0  0  0  0  0  0
   40.6970   25.6980   33.4010 H   0  0  0  0  0  0  0  0  0  0  0  0
   39.1410   23.9450   33.6850 H   0  0  0  0  0  0  0  0  0  0  0  0
   39.6410   23.7460   35.4120 H   0  0  0  0  0  0  0  0  0  0  0  0
   37.1990   24.8890   34.7340 H   0  0  0  0  0  0  0  0  0  0  0  0
   37.7850   24.2020   37.2950 C   0  0  0  0  0  0  0  0  0  0  0  0
   37.2750   23.1350   36.8450 O   0  0  0  0  0  0  0  0  0  0  0  0
   38.1930   25.3360   36.5250 N   0  0  0  0  0  0  0  0  0  0  0  0
   37.8570   24.1010   38.3710 H   0  0  0  0  0  0  0  0  0  0  0  0
   38.4900   26.1470   37.1040 H   0  0  0  0  0  0  0  0  0  0  0  0
   37.8770   26.5120   31.5890 C   0  0  0  0  0  0  0  0  0  0  0  0
   39.0120   27.0380   31.0090 C   0  0  0  0  0  0  0  0  0  0  0  0
   39.8160   26.3500   30.1330 C   0  0  0  0  0  0  0  0  0  0  0  0
   39.4430   25.0600   29.8340 C   0  0  0  0  0  0  0  0  0  0  0  0
   38.3230   24.4570   30.3700 C   0  0  0  0  0  0  0  0  0  0  0  0
   37.5680   25.2280   31.2480 C   0  0  0  0  0  0  0  0  0  0  0  0
   39.2990   28.0520   31.2470 H   0  0  0  0  0  0  0  0  0  0  0  0
   40.6920   26.8290   29.7160 H   0  0  0  0  0  0  0  0  0  0  0  0
   40.0910   24.5220   29.1350 H   0  0  0  0  0  0  0  0  0  0  0  0
   38.1110   23.4580   30.0840 H   0  0  0  0  0  0  0  0  0  0  0  0
   36.3570   24.5800   31.8250 C   0  0  0  0  0  3  0  0  0  0  0  0
   35.0710   24.7050   31.0230 C   0  0  0  0  0  2  0  0  0  0  0  0
   35.7690   23.3780   31.2010 C   0  0  0  0  0  2  0  0  0  0  0  0
  1  7  1  0  0  0  0
  2  9  1  0  0  0  0
  2  1  2  0  0  0  0
  3  2  1  0  0  0  0
  4  3  2  0  0  0  0
  4  5  1  0  0  0  0
  5  6  2  0  0  0  0
  6  1  1  0  0  0  0
  8  5  1  0  0  0  0
  9 10  1  0  0  0  0
  9 13  1  0  0  0  0
 10 14  1  0  0  0  0
 11 12  1  0  0  0  0
 11 10  1  0  0  0  0
 11 16  1  0  0  0  0
 12 13  1  0  0  0  0
 12 19  1  0  0  0  0
 13 20  1  6  0  0  0
 13 23  1  0  0  0  0
 15 10  1  0  0  0  0
 17 11  1  0  0  0  0
 18 12  1  0  0  0  0
 21 24  1  0  0  0  0
 22 21  2  0  0  0  0
 23 25  1  0  0  0  0
 23 21  1  0  0  0  0
 26  3  1  0  0  0  0
 27 32  1  0  0  0  0
 27 26  2  0  0  0  0
 28 27  1  0  0  0  0
 29 28  2  0  0  0  0
 29 30  1  0  0  0  0
 30 31  2  0  0  0  0
 31 26  1  0  0  0  0
 31 36  1  0  0  0  0
 33 28  1  0  0  0  0
 34 29  1  0  0  0  0
 35 30  1  0  0  0  0
 37 38  1  0  0  0  0
 37 36  1  0  0  0  0
 38 36  1  0  0  0  0
M  END
>  <minimizedAffinity>
-5.1870327

$$$$

 OpenBabel03272509153D

 38 41  0  0  1  0  0  0  0  0999 V2000
   35.3500   25.8300   31.3250 C   0  0  0  0  0  0  0  0  0  0  0  0
   36.4380   26.4240   32.0270 C   0  0  0  0  0  0  0  0  0  0  0  0
   37.5880   25.6420   32.2120 C   0  0  0  0  0  0  0  0  0  0  0  0
   37.6040   24.3770   31.7210 N   0  0  0  0  0  0  0  0  0  0  0  0
   36.5580   23.8500   31.0630 C   0  0  0  0  0  0  0  0  0  0  0  0
   35.4450   24.5710   30.8680 N   0  0  0  0  0  0  0  0  0  0  0  0
   34.4240   26.3270   31.1110 H   0  0  0  0  0  0  0  0  0  0  0  0
   36.6220   22.8420   30.6930 H   0  0  0  0  0  0  0  0  0  0  0  0
   36.2230   27.7660   32.4760 N   0  0  0  0  0  0  0  0  0  0  0  0
   36.4610   28.5520   33.6780 C   0  0  0  0  0  0  0  0  0  0  0  0
   35.0820   29.2020   33.8780 C   0  0  0  0  0  0  0  0  0  0  0  0
   34.5520   29.4030   32.4630 C   0  0  0  0  0  0  0  0  0  0  0  0
   35.5870   28.7680   31.5910 C   0  0  1  0  0  0  0  0  0  0  0  0
   37.2650   29.2800   33.5830 H   0  0  0  0  0  0  0  0  0  0  0  0
   36.6450   27.8510   34.5320 H   0  0  0  0  0  0  0  0  0  0  0  0
   35.1900   30.1570   34.4170 H   0  0  0  0  0  0  0  0  0  0  0  0
   34.4610   28.4670   34.4300 H   0  0  0  0  0  0  0  0  0  0  0  0
   33.5650   28.9480   32.2980 H   0  0  0  0  0  0  0  0  0  0  0  0
   34.4910   30.5000   32.2310 H   0  0  0  0  0  0  0  0  0  0  0  0
   35.2190   28.3120   30.6780 H   0  0  0  0  0  0  0  0  0  0  0  0
   37.3170   29.6880   30.0510 C   0  0  0  0  0  0  0  0  0  0  0  0
   37.2540   28.7450   29.2090 O   0  0  0  0  0  0  0  0  0  0  0  0
   36.5970   29.7710   31.2830 N   0  0  0  0  0  0  0  0  0  0  0  0
   38.0160   30.4220   29.6680 H   0  0  0  0  0  0  0  0  0  0  0  0
   36.8750   30.5810   31.8740 H   0  0  0  0  0  0  0  0  0  0  0  0
   38.7380   26.1430   32.8970 C   0  0  0  0  0  0  0  0  0  0  0  0
   39.7290   26.7750   32.1770 C   0  0  0  0  0  0  0  0  0  0  0  0
   40.8710   27.2960   32.7370 C   0  0  0  0  0  0  0  0  0  0  0  0
   41.0060   27.1650   34.1000 C   0  0  0  0  0  0  0  0  0  0  0  0
   40.0620   26.5470   34.8940 C   0  0  0  0  0  0  0  0  0  0  0  0
   38.9380   26.0500   34.2430 C   0  0  0  0  0  0  0  0  0  0  0  0
   39.6170   26.8740   31.1070 H   0  0  0  0  0  0  0  0  0  0  0  0
   41.6070   27.7790   32.1080 H   0  0  0  0  0  0  0  0  0  0  0  0
   41.9200   27.5840   34.5340 H   0  0  0  0  0  0  0  0  0  0  0  0
   40.2490   26.4910   35.9370 H   0  0  0  0  0  0  0  0  0  0  0  0
   37.9200   25.3800   35.0990 C   0  0  0  0  0  3  0  0  0  0  0  0
   38.2060   23.9410   35.4980 C   0  0  0  0  0  2  0  0  0  0  0  0
   38.2060   25.0600   36.5110 C   0  0  0  0  0  2  0  0  0  0  0  0
  1  2  1  0  0  0  0
  2  3  2  0  0  0  0
  2  9  1  0  0  0  0
  3 26  1  0  0  0  0
  4  3  1  0  0  0  0
  5  4  2  0  0  0  0
  6  5  1  0  0  0  0
  6  1  2  0  0  0  0
  7  1  1  0  0  0  0
  8  5  1  0  0  0  0
  9 10  1  0  0  0  0
 10 11  1  0  0  0  0
 10 15  1  0  0  0  0
 11 16  1  0  0  0  0
 11 17  1  0  0  0  0
 12 11  1  0  0  0  0
 13 20  1  6  0  0  0
 13 12  1  0  0  0  0
 13  9  1  0  0  0  0
 14 10  1  0  0  0  0
 18 12  1  0  0  0  0
 19 12  1  0  0  0  0
 21 23  1  0  0  0  0
 22 21  2  0  0  0  0
 23 13  1  0  0  0  0
 23 25  1  0  0  0  0
 24 21  1  0  0  0  0
 26 31  1  0  0  0  0
 27 28  1  0  0  0  0
 27 26  2  0  0  0  0
 28 29  2  0  0  0  0
 29 34  1  0  0  0  0
 29 30  1  0  0  0  0
 30 35  1  0  0  0  0
 31 30  2  0  0  0  0
 31 36  1  0  0  0  0
 32 27  1  0  0  0  0
 33 28  1  0  0  0  0
 36 37  1  0  0  0  0
 36 38  1  0  0  0  0
 37 38  1  0  0  0  0
M  END
>  <minimizedAffinity>
-5.17647505

$$$$

 OpenBabel03272509153D

 38 41  0  0  1  0  0  0  0  0999 V2000
   37.4460   23.9740   32.4660 C   0  0  0  0  0  0  0  0  0  0  0  0
   38.4800   23.9260   33.4460 C   0  0  0  0  0  0  0  0  0  0  0  0
   38.6040   22.7440   34.1900 C   0  0  0  0  0  0  0  0  0  0  0  0
   37.7450   21.7230   33.9450 N   0  0  0  0  0  0  0  0  0  0  0  0
   36.7820   21.8050   33.0120 C   0  0  0  0  0  0  0  0  0  0  0  0
   36.6360   22.9200   32.2820 N   0  0  0  0  0  0  0  0  0  0  0  0
   37.2570   24.8150   31.8270 H   0  0  0  0  0  0  0  0  0  0  0  0
   36.1270   20.9660   32.8560 H   0  0  0  0  0  0  0  0  0  0  0  0
   39.2750   25.1100   33.5620 N   0  0  0  0  0  0  0  0  0  0  0  0
   40.6580   25.5060   33.3360 C   0  0  0  0  0  0  0  0  0  0  0  0
   40.9730   26.2280   34.6560 C   0  0  0  0  0  0  0  0  0  0  0  0
   39.6500   26.8660   35.0620 C   0  0  0  0  0  0  0  0  0  0  0  0
   38.6790   26.3810   34.0330 C   0  0  1  0  0  0  0  0  0  0  0  0
   40.8040   26.1360   32.4610 H   0  0  0  0  0  0  0  0  0  0  0  0
   41.2890   24.5830   33.2820 H   0  0  0  0  0  0  0  0  0  0  0  0
   41.7610   26.9810   34.4960 H   0  0  0  0  0  0  0  0  0  0  0  0
   41.2710   25.4450   35.3840 H   0  0  0  0  0  0  0  0  0  0  0  0
   39.3230   26.5870   36.0740 H   0  0  0  0  0  0  0  0  0  0  0  0
   39.7300   27.9840   34.9990 H   0  0  0  0  0  0  0  0  0  0  0  0
   37.6610   26.2350   34.3770 H   0  0  0  0  0  0  0  0  0  0  0  0
   37.4750   27.7600   32.3420 C   0  0  0  0  0  0  0  0  0  0  0  0
   36.3160   27.3460   32.6410 O   0  0  0  0  0  0  0  0  0  0  0  0
   38.7060   27.3090   32.9110 N   0  0  0  0  0  0  0  0  0  0  0  0
   37.3630   28.5180   31.5770 H   0  0  0  0  0  0  0  0  0  0  0  0
   39.5480   27.7070   32.4490 H   0  0  0  0  0  0  0  0  0  0  0  0
   39.6110   22.5890   35.1930 C   0  0  0  0  0  0  0  0  0  0  0  0
   40.7680   21.9050   34.8860 C   0  0  0  0  0  0  0  0  0  0  0  0
   41.7990   21.7030   35.7730 C   0  0  0  0  0  0  0  0  0  0  0  0
   41.6380   22.2240   37.0360 C   0  0  0  0  0  0  0  0  0  0  0  0
   40.5120   22.9210   37.4250 C   0  0  0  0  0  0  0  0  0  0  0  0
   39.5210   23.0780   36.4630 C   0  0  0  0  0  0  0  0  0  0  0  0
   40.8880   21.4980   33.8930 H   0  0  0  0  0  0  0  0  0  0  0  0
   42.6780   21.1560   35.4610 H   0  0  0  0  0  0  0  0  0  0  0  0
   42.4650   22.0570   37.7330 H   0  0  0  0  0  0  0  0  0  0  0  0
   40.4730   23.2880   38.4200 H   0  0  0  0  0  0  0  0  0  0  0  0
   38.3030   23.8270   36.8830 C   0  0  0  0  0  3  0  0  0  0  0  0
   37.2550   23.0430   37.6570 C   0  0  0  0  0  2  0  0  0  0  0  0
   38.0590   24.1450   38.3040 C   0  0  0  0  0  2  0  0  0  0  0  0
  1  2  1  0  0  0  0
  2  9  1  0  0  0  0
  2  3  2  0  0  0  0
  3 26  1  0  0  0  0
  4  3  1  0  0  0  0
  5  4  2  0  0  0  0
  6  1  2  0  0  0  0
  6  5  1  0  0  0  0
  7  1  1  0  0  0  0
  8  5  1  0  0  0  0
  9 13  1  0  0  0  0
 10  9  1  0  0  0  0
 10 11  1  0  0  0  0
 11 12  1  0  0  0  0
 11 17  1  0  0  0  0
 12 18  1  0  0  0  0
 13 20  1  1  0  0  0
 13 12  1  0  0  0  0
 14 10  1  0  0  0  0
 15 10  1  0  0  0  0
 16 11  1  0  0  0  0
 19 12  1  0  0  0  0
 21 22  2  0  0  0  0
 21 23  1  0  0  0  0
 23 13  1  0  0  0  0
 24 21  1  0  0  0  0
 25 23  1  0  0  0  0
 26 31  1  0  0  0  0
 27 26  2  0  0  0  0
 27 28  1  0  0  0  0
 28 29  2  0  0  0  0
 29 30  1  0  0  0  0
 29 34  1  0  0  0  0
 30 35  1  0  0  0  0
 31 36  1  0  0  0  0
 31 30  2  0  0  0  0
 32 27  1  0  0  0  0
 33 28  1  0  0  0  0
 36 37  1  0  0  0  0
 36 38  1  0  0  0  0
 37 38  1  0  0  0  0
M  END
>  <minimizedAffinity>
-5.14311695

$$$$

 OpenBabel03272509153D

 38 41  0  0  1  0  0  0  0  0999 V2000
   38.0710   25.7200   33.2120 C   0  0  0  0  0  0  0  0  0  0  0  0
   38.6390   24.5720   33.8360 C   0  0  0  0  0  0  0  0  0  0  0  0
   39.6240   24.7930   34.8110 C   0  0  0  0  0  0  0  0  0  0  0  0
   39.9800   26.0690   35.1040 N   0  0  0  0  0  0  0  0  0  0  0  0
   39.4220   27.1270   34.4940 C   0  0  0  0  0  0  0  0  0  0  0  0
   38.4770   26.9520   33.5590 N   0  0  0  0  0  0  0  0  0  0  0  0
   37.3050   25.6840   32.4620 H   0  0  0  0  0  0  0  0  0  0  0  0
   39.7390   28.1190   34.7630 H   0  0  0  0  0  0  0  0  0  0  0  0
   38.1380   23.3120   33.3820 N   0  0  0  0  0  0  0  0  0  0  0  0
   37.8810   21.9910   33.9380 C   0  0  0  0  0  0  0  0  0  0  0  0
   38.5660   21.0970   32.8910 C   0  0  0  0  0  0  0  0  0  0  0  0
   38.3780   21.8440   31.5770 C   0  0  0  0  0  0  0  0  0  0  0  0
   37.7180   23.1250   31.9750 C   0  0  1  0  0  0  0  0  0  0  0  0
   36.8250   21.7600   34.0690 H   0  0  0  0  0  0  0  0  0  0  0  0
   38.4410   21.8940   34.9020 H   0  0  0  0  0  0  0  0  0  0  0  0
   38.0890   20.1040   32.8730 H   0  0  0  0  0  0  0  0  0  0  0  0
   39.6400   21.0500   33.1670 H   0  0  0  0  0  0  0  0  0  0  0  0
   39.3210   22.0350   31.0440 H   0  0  0  0  0  0  0  0  0  0  0  0
   37.6900   21.2650   30.9040 H   0  0  0  0  0  0  0  0  0  0  0  0
   37.9670   23.9910   31.3710 H   0  0  0  0  0  0  0  0  0  0  0  0
   35.4250   23.8420   31.3120 C   0  0  0  0  0  0  0  0  0  0  0  0
   35.7800   24.9360   30.7840 O   0  0  0  0  0  0  0  0  0  0  0  0
   36.2780   22.9100   31.9810 N   0  0  0  0  0  0  0  0  0  0  0  0
   34.3570   23.7400   31.1650 H   0  0  0  0  0  0  0  0  0  0  0  0
   35.7650   22.1260   32.4320 H   0  0  0  0  0  0  0  0  0  0  0  0
   40.2540   23.7120   35.5030 C   0  0  0  0  0  0  0  0  0  0  0  0
   41.3260   23.0710   34.9190 C   0  0  0  0  0  0  0  0  0  0  0  0
   42.0040   22.0260   35.4980 C   0  0  0  0  0  0  0  0  0  0  0  0
   41.5650   21.6150   36.7350 C   0  0  0  0  0  0  0  0  0  0  0  0
   40.5010   22.2010   37.3900 C   0  0  0  0  0  0  0  0  0  0  0  0
   39.8740   23.2520   36.7300 C   0  0  0  0  0  0  0  0  0  0  0  0
   41.6650   23.3990   33.9460 H   0  0  0  0  0  0  0  0  0  0  0  0
   42.8370   21.5710   34.9800 H   0  0  0  0  0  0  0  0  0  0  0  0
   42.1140   20.7820   37.1870 H   0  0  0  0  0  0  0  0  0  0  0  0
   40.2310   21.8190   38.3420 H   0  0  0  0  0  0  0  0  0  0  0  0
   38.7230   23.8830   37.4330 C   0  0  0  0  0  3  0  0  0  0  0  0
   37.3840   23.1720   37.3220 C   0  0  0  0  0  2  0  0  0  0  0  0
   38.1290   23.2580   38.6320 C   0  0  0  0  0  2  0  0  0  0  0  0
  1  6  2  0  0  0  0
  1  2  1  0  0  0  0
  2  3  2  0  0  0  0
  3  4  1  0  0  0  0
  3 26  1  0  0  0  0
  5  8  1  0  0  0  0
  5  4  2  0  0  0  0
  6  5  1  0  0  0  0
  7  1  1  0  0  0  0
  9  2  1  0  0  0  0
  9 10  1  0  0  0  0
 10 14  1  0  0  0  0
 10 15  1  0  0  0  0
 11 17  1  0  0  0  0
 11 10  1  0  0  0  0
 12 13  1  0  0  0  0
 12 11  1  0  0  0  0
 13 20  1  6  0  0  0
 13 23  1  0  0  0  0
 13  9  1  0  0  0  0
 16 11  1  0  0  0  0
 18 12  1  0  0  0  0
 19 12  1  0  0  0  0
 21 23  1  0  0  0  0
 22 21  2  0  0  0  0
 23 25  1  0  0  0  0
 24 21  1  0  0  0  0
 26 31  1  0  0  0  0
 27 28  1  0  0  0  0
 27 26  2  0  0  0  0
 28 29  2  0  0  0  0
 29 34  1  0  0  0  0
 29 30  1  0  0  0  0
 30 35  1  0  0  0  0
 31 30  2  0  0  0  0
 31 36  1  0  0  0  0
 32 27  1  0  0  0  0
 33 28  1  0  0  0  0
 36 38  1  0  0  0  0
 37 36  1  0  0  0  0
 37 38  1  0  0  0  0
M  END
>  <minimizedAffinity>
-5.08907175

$$$$

 OpenBabel03272509153D

 38 41  0  0  1  0  0  0  0  0999 V2000
   37.1530   26.2750   33.8060 C   0  0  0  0  0  0  0  0  0  0  0  0
   37.9120   25.1710   34.2890 C   0  0  0  0  0  0  0  0  0  0  0  0
   38.7010   25.3850   35.4290 C   0  0  0  0  0  0  0  0  0  0  0  0
   38.7020   26.6140   36.0040 N   0  0  0  0  0  0  0  0  0  0  0  0
   37.9720   27.6320   35.5190 C   0  0  0  0  0  0  0  0  0  0  0  0
   37.2070   27.4620   34.4310 N   0  0  0  0  0  0  0  0  0  0  0  0
   36.5050   26.2360   32.9510 H   0  0  0  0  0  0  0  0  0  0  0  0
   38.0070   28.5870   36.0120 H   0  0  0  0  0  0  0  0  0  0  0  0
   37.7850   23.9600   33.5390 N   0  0  0  0  0  0  0  0  0  0  0  0
   37.7480   22.5280   33.8010 C   0  0  0  0  0  0  0  0  0  0  0  0
   38.7730   22.0170   32.7760 C   0  0  0  0  0  0  0  0  0  0  0  0
   38.6320   22.9700   31.5950 C   0  0  0  0  0  0  0  0  0  0  0  0
   37.6460   23.9910   32.0650 C   0  0  1  0  0  0  0  0  0  0  0  0
   36.7640   22.0780   33.6800 H   0  0  0  0  0  0  0  0  0  0  0  0
   38.1560   22.3420   34.8270 H   0  0  0  0  0  0  0  0  0  0  0  0
   38.5410   20.9770   32.4960 H   0  0  0  0  0  0  0  0  0  0  0  0
   39.7720   22.1200   33.2460 H   0  0  0  0  0  0  0  0  0  0  0  0
   39.5790   23.4430   31.3000 H   0  0  0  0  0  0  0  0  0  0  0  0
   38.2070   22.4220   30.7110 H   0  0  0  0  0  0  0  0  0  0  0  0
   37.7860   24.9950   31.6770 H   0  0  0  0  0  0  0  0  0  0  0  0
   35.3860   24.3780   31.0900 C   0  0  0  0  0  0  0  0  0  0  0  0
   35.5650   25.6040   30.8320 O   0  0  0  0  0  0  0  0  0  0  0  0
   36.3090   23.5090   31.7500 N   0  0  0  0  0  0  0  0  0  0  0  0
   34.4050   24.1070   30.7180 H   0  0  0  0  0  0  0  0  0  0  0  0
   35.9200   22.5660   31.9530 H   0  0  0  0  0  0  0  0  0  0  0  0
   39.4960   24.3420   36.0010 C   0  0  0  0  0  0  0  0  0  0  0  0
   39.0220   23.6580   37.0990 C   0  0  0  0  0  0  0  0  0  0  0  0
   39.7020   22.6390   37.7210 C   0  0  0  0  0  0  0  0  0  0  0  0
   40.9280   22.3030   37.1950 C   0  0  0  0  0  0  0  0  0  0  0  0
   41.4760   22.9370   36.0980 C   0  0  0  0  0  0  0  0  0  0  0  0
   40.7180   23.9560   35.5320 C   0  0  0  0  0  0  0  0  0  0  0  0
   38.0580   23.9270   37.5080 H   0  0  0  0  0  0  0  0  0  0  0  0
   39.2670   22.1460   38.5800 H   0  0  0  0  0  0  0  0  0  0  0  0
   41.4610   21.4900   37.6990 H   0  0  0  0  0  0  0  0  0  0  0  0
   42.4280   22.6130   35.7590 H   0  0  0  0  0  0  0  0  0  0  0  0
   41.3090   24.6440   34.3510 C   0  0  0  0  0  3  0  0  0  0  0  0
   42.2810   25.7770   34.6390 C   0  0  0  0  0  2  0  0  0  0  0  0
   42.7370   24.4810   34.0130 C   0  0  0  0  0  2  0  0  0  0  0  0
  1  2  2  0  0  0  0
  1  6  1  0  0  0  0
  2  3  1  0  0  0  0
  3 26  1  0  0  0  0
  3  4  2  0  0  0  0
  5  4  1  0  0  0  0
  5  8  1  0  0  0  0
  6  5  2  0  0  0  0
  7  1  1  0  0  0  0
  9 10  1  0  0  0  0
  9  2  1  0  0  0  0
 10 15  1  0  0  0  0
 11 17  1  0  0  0  0
 11 10  1  0  0  0  0
 12 13  1  0  0  0  0
 12 11  1  0  0  0  0
 13 20  1  6  0  0  0
 13  9  1  0  0  0  0
 14 10  1  0  0  0  0
 16 11  1  0  0  0  0
 18 12  1  0  0  0  0
 19 12  1  0  0  0  0
 21 23  1  0  0  0  0
 22 21  2  0  0  0  0
 23 25  1  0  0  0  0
 23 13  1  0  0  0  0
 24 21  1  0  0  0  0
 26 27  1  0  0  0  0
 27 32  1  0  0  0  0
 27 28  2  0  0  0  0
 28 33  1  0  0  0  0
 29 34  1  0  0  0  0
 29 28  1  0  0  0  0
 30 29  2  0  0  0  0
 31 26  2  0  0  0  0
 31 30  1  0  0  0  0
 35 30  1  0  0  0  0
 36 37  1  0  0  0  0
 36 31  1  0  0  0  0
 38 36  1  0  0  0  0
 38 37  1  0  0  0  0
M  END
>  <minimizedAffinity>
-5.03048849

$$$$

 OpenBabel03272509153D

 38 41  0  0  1  0  0  0  0  0999 V2000
   38.1250   24.5670   34.3460 C   0  0  0  0  0  0  0  0  0  0  0  0
   37.8490   25.3460   33.1850 C   0  0  0  0  0  0  0  0  0  0  0  0
   38.2400   26.6930   33.2070 C   0  0  0  0  0  0  0  0  0  0  0  0
   38.8500   27.1790   34.3180 N   0  0  0  0  0  0  0  0  0  0  0  0
   39.0940   26.4140   35.3940 C   0  0  0  0  0  0  0  0  0  0  0  0
   38.7350   25.1220   35.4060 N   0  0  0  0  0  0  0  0  0  0  0  0
   37.8860   23.5260   34.4470 H   0  0  0  0  0  0  0  0  0  0  0  0
   39.5810   26.8470   36.2500 H   0  0  0  0  0  0  0  0  0  0  0  0
   37.1890   24.6530   32.1210 N   0  0  0  0  0  0  0  0  0  0  0  0
   35.8620   24.6080   31.5240 C   0  0  0  0  0  0  0  0  0  0  0  0
   35.6120   23.0920   31.4830 C   0  0  0  0  0  0  0  0  0  0  0  0
   36.9930   22.4900   31.2540 C   0  0  0  0  0  0  0  0  0  0  0  0
   37.9160   23.6640   31.2930 C   0  0  1  0  0  0  0  0  0  0  0  0
   35.7980   25.0770   30.5440 H   0  0  0  0  0  0  0  0  0  0  0  0
   35.1330   25.0640   32.2410 H   0  0  0  0  0  0  0  0  0  0  0  0
   34.9140   22.8460   30.6670 H   0  0  0  0  0  0  0  0  0  0  0  0
   35.2200   22.8070   32.4810 H   0  0  0  0  0  0  0  0  0  0  0  0
   37.2740   21.7420   32.0100 H   0  0  0  0  0  0  0  0  0  0  0  0
   37.0380   22.0140   30.2370 H   0  0  0  0  0  0  0  0  0  0  0  0
   38.9080   23.4720   31.6890 H   0  0  0  0  0  0  0  0  0  0  0  0
   39.2920   24.4900   29.3860 C   0  0  0  0  0  0  0  0  0  0  0  0
   40.4040   24.4100   29.9860 O   0  0  0  0  0  0  0  0  0  0  0  0
   38.0070   24.2150   29.9480 N   0  0  0  0  0  0  0  0  0  0  0  0
   39.4920   24.8060   28.3700 H   0  0  0  0  0  0  0  0  0  0  0  0
   37.2170   24.4440   29.3110 H   0  0  0  0  0  0  0  0  0  0  0  0
   38.0160   27.5600   32.0930 C   0  0  0  0  0  0  0  0  0  0  0  0
   38.9770   27.6550   31.1090 C   0  0  0  0  0  0  0  0  0  0  0  0
   38.8610   28.4540   29.9970 C   0  0  0  0  0  0  0  0  0  0  0  0
   37.7040   29.1910   29.8850 C   0  0  0  0  0  0  0  0  0  0  0  0
   36.6930   29.1540   30.8230 C   0  0  0  0  0  0  0  0  0  0  0  0
   36.8960   28.3180   31.9150 C   0  0  0  0  0  0  0  0  0  0  0  0
   39.8830   27.0740   31.2040 H   0  0  0  0  0  0  0  0  0  0  0  0
   39.6570   28.4780   29.2650 H   0  0  0  0  0  0  0  0  0  0  0  0
   37.6230   29.8240   28.9940 H   0  0  0  0  0  0  0  0  0  0  0  0
   35.8360   29.7570   30.6550 H   0  0  0  0  0  0  0  0  0  0  0  0
   35.8070   28.2800   32.9310 C   0  0  0  0  0  3  0  0  0  0  0  0
   35.8250   29.3710   33.9890 C   0  0  0  0  0  2  0  0  0  0  0  0
   34.7410   29.3010   32.9410 C   0  0  0  0  0  2  0  0  0  0  0  0
  1  7  1  0  0  0  0
  1  6  1  0  0  0  0
  2  3  1  0  0  0  0
  2  1  2  0  0  0  0
  3  4  2  0  0  0  0
  4  5  1  0  0  0  0
  5  6  2  0  0  0  0
  5  8  1  0  0  0  0
  9  2  1  0  0  0  0
 10  9  1  0  0  0  0
 10 15  1  0  0  0  0
 11 10  1  0  0  0  0
 11 17  1  0  0  0  0
 12 13  1  0  0  0  0
 12 11  1  0  0  0  0
 12 18  1  0  0  0  0
 13 20  1  1  0  0  0
 13  9  1  0  0  0  0
 14 10  1  0  0  0  0
 16 11  1  0  0  0  0
 19 12  1  0  0  0  0
 21 23  1  0  0  0  0
 21 22  2  0  0  0  0
 23 13  1  0  0  0  0
 24 21  1  0  0  0  0
 25 23  1  0  0  0  0
 26  3  1  0  0  0  0
 27 32  1  0  0  0  0
 27 26  2  0  0  0  0
 28 27  1  0  0  0  0
 29 28  2  0  0  0  0
 29 30  1  0  0  0  0
 30 31  2  0  0  0  0
 31 26  1  0  0  0  0
 31 36  1  0  0  0  0
 33 28  1  0  0  0  0
 34 29  1  0  0  0  0
 35 30  1  0  0  0  0
 36 38  1  0  0  0  0
 36 37  1  0  0  0  0
 38 37  1  0  0  0  0
M  END
>  <minimizedAffinity>
-5.00323153

$$$$

 OpenBabel03272509153D

 38 41  0  0  1  0  0  0  0  0999 V2000
   38.2070   22.1180   34.8890 C   0  0  0  0  0  0  0  0  0  0  0  0
   38.2640   23.1150   33.8720 C   0  0  0  0  0  0  0  0  0  0  0  0
   39.0560   24.2450   34.1260 C   0  0  0  0  0  0  0  0  0  0  0  0
   39.7140   24.3310   35.3090 N   0  0  0  0  0  0  0  0  0  0  0  0
   39.6350   23.3710   36.2440 C   0  0  0  0  0  0  0  0  0  0  0  0
   38.8890   22.2770   36.0340 N   0  0  0  0  0  0  0  0  0  0  0  0
   37.6470   21.2070   34.8110 H   0  0  0  0  0  0  0  0  0  0  0  0
   40.1780   23.4870   37.1660 H   0  0  0  0  0  0  0  0  0  0  0  0
   37.4910   22.8450   32.7000 N   0  0  0  0  0  0  0  0  0  0  0  0
   37.2130   23.4830   31.4210 C   0  0  0  0  0  0  0  0  0  0  0  0
   35.6780   23.3980   31.3810 C   0  0  0  0  0  0  0  0  0  0  0  0
   35.3540   22.0980   32.1070 C   0  0  0  0  0  0  0  0  0  0  0  0
   36.6810   21.6100   32.5930 C   0  0  1  0  0  0  0  0  0  0  0  0
   37.6880   23.0010   30.5690 H   0  0  0  0  0  0  0  0  0  0  0  0
   37.5010   24.5630   31.4910 H   0  0  0  0  0  0  0  0  0  0  0  0
   35.3290   23.3840   30.3360 H   0  0  0  0  0  0  0  0  0  0  0  0
   35.2960   24.2710   31.9480 H   0  0  0  0  0  0  0  0  0  0  0  0
   34.6520   22.2280   32.9430 H   0  0  0  0  0  0  0  0  0  0  0  0
   34.9260   21.3530   31.3840 H   0  0  0  0  0  0  0  0  0  0  0  0
   36.6680   21.0640   33.5310 H   0  0  0  0  0  0  0  0  0  0  0  0
   36.9910   19.3960   31.4900 C   0  0  0  0  0  0  0  0  0  0  0  0
   36.3400   18.7330   32.3490 O   0  0  0  0  0  0  0  0  0  0  0  0
   37.2770   20.7960   31.5430 N   0  0  0  0  0  0  0  0  0  0  0  0
   37.2920   18.7110   30.7080 H   0  0  0  0  0  0  0  0  0  0  0  0
   37.9150   21.1190   30.7870 H   0  0  0  0  0  0  0  0  0  0  0  0
   39.1880   25.3010   33.1700 C   0  0  0  0  0  0  0  0  0  0  0  0
   40.1580   25.2100   32.1950 C   0  0  0  0  0  0  0  0  0  0  0  0
   40.3670   26.1640   31.2290 C   0  0  0  0  0  0  0  0  0  0  0  0
   39.5440   27.2650   31.2600 C   0  0  0  0  0  0  0  0  0  0  0  0
   38.5490   27.4350   32.2010 C   0  0  0  0  0  0  0  0  0  0  0  0
   38.4080   26.4200   33.1400 C   0  0  0  0  0  0  0  0  0  0  0  0
   40.8020   24.3420   32.1770 H   0  0  0  0  0  0  0  0  0  0  0  0
   41.1490   26.0250   30.4940 H   0  0  0  0  0  0  0  0  0  0  0  0
   39.7200   28.0190   30.4850 H   0  0  0  0  0  0  0  0  0  0  0  0
   37.9610   28.3170   32.1500 H   0  0  0  0  0  0  0  0  0  0  0  0
   37.3370   26.6020   34.1590 C   0  0  0  0  0  3  0  0  0  0  0  0
   37.7020   27.4130   35.3930 C   0  0  0  0  0  2  0  0  0  0  0  0
   36.7110   27.9220   34.3740 C   0  0  0  0  0  2  0  0  0  0  0  0
  1  6  1  0  0  0  0
  2  3  1  0  0  0  0
  2  1  2  0  0  0  0
  3  4  2  0  0  0  0
  4  5  1  0  0  0  0
  5  8  1  0  0  0  0
  6  5  2  0  0  0  0
  7  1  1  0  0  0  0
  9  2  1  0  0  0  0
 10 15  1  0  0  0  0
 10  9  1  0  0  0  0
 11 10  1  0  0  0  0
 11 17  1  0  0  0  0
 11 12  1  0  0  0  0
 12 13  1  0  0  0  0
 12 18  1  0  0  0  0
 13  9  1  0  0  0  0
 13 20  1  1  0  0  0
 14 10  1  0  0  0  0
 16 11  1  0  0  0  0
 19 12  1  0  0  0  0
 21 23  1  0  0  0  0
 21 22  2  0  0  0  0
 23 13  1  0  0  0  0
 24 21  1  0  0  0  0
 25 23  1  0  0  0  0
 26  3  1  0  0  0  0
 27 26  2  0  0  0  0
 28 29  2  0  0  0  0
 28 27  1  0  0  0  0
 29 30  1  0  0  0  0
 30 31  2  0  0  0  0
 31 26  1  0  0  0  0
 31 36  1  0  0  0  0
 32 27  1  0  0  0  0
 33 28  1  0  0  0  0
 34 29  1  0  0  0  0
 35 30  1  0  0  0  0
 36 38  1  0  0  0  0
 36 37  1  0  0  0  0
 38 37  1  0  0  0  0
M  END
>  <minimizedAffinity>
-4.99467802

$$$$
