
 OpenBabel03272509453D

 13 14  0  0  0  0  0  0  0  0999 V2000
   37.2360   32.0990   49.5840 C   0  0  0  0  0  0  0  0  0  0  0  0
   38.1070   33.1900   49.5150 C   0  0  0  0  0  0  0  0  0  0  0  0
   39.0030   33.2510   48.4370 C   0  0  0  0  0  0  0  0  0  0  0  0
   38.9790   32.2340   47.5040 N   0  0  0  0  0  0  0  0  0  0  0  0
   38.1080   31.1930   47.6220 C   0  0  0  0  0  0  0  0  0  0  0  0
   37.2490   31.1400   48.6590 N   0  0  0  0  0  0  0  0  0  0  0  0
   36.5530   32.0650   50.4200 H   0  0  0  0  0  0  0  0  0  0  0  0
   38.1470   34.0010   50.2350 H   0  0  0  0  0  0  0  0  0  0  0  0
   39.6900   34.0640   48.3380 H   0  0  0  0  0  0  0  0  0  0  0  0
   38.2400   30.2840   46.5920 O   0  0  0  0  0  0  0  0  0  0  0  0
   38.5210   30.7790   45.2940 C   0  0  0  0  0  3  0  0  0  0  0  0
   37.7890   30.2510   44.1200 C   0  0  0  0  0  2  0  0  0  0  0  0
   39.1570   29.7220   44.3970 C   0  0  0  0  0  2  0  0  0  0  0  0
  1  7  1  0  0  0  0
  2  1  1  0  0  0  0
  2  8  1  0  0  0  0
  3  2  2  0  0  0  0
  4  5  2  0  0  0  0
  4  3  1  0  0  0  0
  5  6  1  0  0  0  0
  6  1  2  0  0  0  0
  9  3  1  0  0  0  0
 10  5  1  0  0  0  0
 11 10  1  0  0  0  0
 12 13  1  0  0  0  0
 12 11  1  0  0  0  0
 13 11  1  0  0  0  0
M  END
>  <minimizedAffinity>
-3.1351409

>  <minimizedRMSD>
5.52546549

$$$$
