
 OpenBabel03272510303D

 22 24  0  0  0  0  0  0  0  0999 V2000
   37.1540   31.2980   49.2040 C   0  0  0  0  0  0  0  0  0  0  0  0
   37.3660   32.5460   49.7930 C   0  0  0  0  0  0  0  0  0  0  0  0
   38.3170   33.3430   49.1930 C   0  0  0  0  0  0  0  0  0  0  0  0
   38.9860   32.8890   48.0850 N   0  0  0  0  0  0  0  0  0  0  0  0
   38.7410   31.6560   47.5460 C   0  0  0  0  0  0  0  0  0  0  0  0
   37.8000   30.8410   48.1250 N   0  0  0  0  0  0  0  0  0  0  0  0
   36.8140   32.8620   50.6670 H   0  0  0  0  0  0  0  0  0  0  0  0
   38.5510   34.3270   49.5770 H   0  0  0  0  0  0  0  0  0  0  0  0
   36.0980   30.4150   49.8180 C   0  0  0  0  0  0  0  0  0  0  0  0
   36.0640   28.9870   49.6380 C   0  0  0  0  0  0  0  0  0  0  0  0
   36.6530   29.5150   50.9340 C   0  0  0  0  0  0  0  0  0  0  0  0
   35.1630   30.9800   50.1130 H   0  0  0  0  0  0  0  0  0  0  0  0
   35.0690   28.4900   49.6850 H   0  0  0  0  0  0  0  0  0  0  0  0
   36.7770   28.4600   48.9740 H   0  0  0  0  0  0  0  0  0  0  0  0
   36.0260   29.3960   51.8480 H   0  0  0  0  0  0  0  0  0  0  0  0
   37.7340   29.4920   51.1060 H   0  0  0  0  0  0  0  0  0  0  0  0
   39.4340   31.1510   46.3520 C   0  0  0  0  0  0  0  0  0  0  0  0
   40.3550   31.7260   46.1290 H   0  0  0  0  0  0  0  0  0  0  0  0
   39.7660   30.1090   46.5390 H   0  0  0  0  0  0  0  0  0  0  0  0
   38.4990   31.1230   45.1660 C   0  0  0  0  0  3  0  0  0  0  0  0
   37.8480   32.3470   44.6670 C   0  0  0  0  0  2  0  0  0  0  0  0
   38.9360   31.6190   43.8520 C   0  0  0  0  0  2  0  0  0  0  0  0
  1  2  1  0  0  0  0
  1  9  1  0  0  0  0
  2  7  1  0  0  0  0
  3  8  1  0  0  0  0
  3  2  2  0  0  0  0
  4  3  1  0  0  0  0
  5  4  2  0  0  0  0
  5  6  1  0  0  0  0
  6  1  2  0  0  0  0
  9 12  1  0  0  0  0
  9 11  1  0  0  0  0
 10 13  1  0  0  0  0
 10  9  1  0  0  0  0
 10 11  1  0  0  0  0
 11 16  1  0  0  0  0
 11 15  1  0  0  0  0
 14 10  1  0  0  0  0
 17 19  1  0  0  0  0
 17  5  1  0  0  0  0
 18 17  1  0  0  0  0
 20 17  1  0  0  0  0
 21 20  1  0  0  0  0
 22 21  1  0  0  0  0
 22 20  1  0  0  0  0
M  END
>  <minimizedAffinity>
-4.73207092

>  <minimizedRMSD>
0.414759457

$$$$
