
 OpenBabel03272501023D

 28 30  0  0  0  0  0  0  0  0999 V2000
   37.5190   24.9130   33.4730 F   0  0  0  0  0  0  0  0  0  0  0  0
   38.6400   25.6720   33.5180 C   0  0  0  0  0  0  0  0  0  0  0  0
   39.4960   25.7140   34.6110 C   0  0  0  0  0  0  0  0  0  0  0  0
   40.6000   26.5070   34.5640 C   0  0  0  0  0  0  0  0  0  0  0  0
   40.9290   27.2920   33.4700 C   0  0  0  0  0  0  0  0  0  0  0  0
   40.0630   27.2410   32.3800 C   0  0  0  0  0  0  0  0  0  0  0  0
   38.9290   26.4410   32.3980 C   0  0  0  0  0  0  0  0  0  0  0  0
   41.2060   26.4790   35.4550 H   0  0  0  0  0  0  0  0  0  0  0  0
   41.8210   27.9090   33.4770 H   0  0  0  0  0  0  0  0  0  0  0  0
   40.3180   27.8560   31.5180 H   0  0  0  0  0  0  0  0  0  0  0  0
   39.6600   22.9510   37.0110 C   0  0  0  0  0  0  0  0  0  0  0  0
   38.6480   23.2310   37.9280 C   0  0  0  0  0  0  0  0  0  0  0  0
   37.8960   24.3960   37.7120 C   0  0  0  0  0  0  0  0  0  0  0  0
   38.1620   25.2000   36.6490 N   0  0  0  0  0  0  0  0  0  0  0  0
   39.1600   24.8880   35.7780 C   0  0  0  0  0  0  0  0  0  0  0  0
   39.9030   23.7570   35.9710 N   0  0  0  0  0  0  0  0  0  0  0  0
   40.2390   22.0470   37.1830 H   0  0  0  0  0  0  0  0  0  0  0  0
   38.3970   22.6320   38.7810 H   0  0  0  0  0  0  0  0  0  0  0  0
   37.0780   24.7360   38.3470 H   0  0  0  0  0  0  0  0  0  0  0  0
   38.1100   26.4170   31.3200 O   0  0  0  0  0  0  0  0  0  0  0  0
   35.5280   26.5420   31.2430 O   0  0  0  0  0  0  0  0  0  0  0  0
   36.7860   27.3700   30.9820 P   0  0  2  0  0  0  0  0  0  0  0  0
   36.6740   27.9100   29.3930 O   0  0  0  0  0  0  0  0  0  0  0  0
   36.9410   27.2260   28.7610 H   0  0  0  0  0  0  0  0  0  0  0  0
   36.6850   28.7050   32.0490 O   0  0  0  0  0  0  0  0  0  0  0  0
   35.8770   28.4260   33.1320 C   0  0  0  0  0  3  0  0  0  0  0  0
   35.7000   29.6290   34.0850 C   0  0  0  0  0  2  0  0  0  0  0  0
   36.3980   28.3800   34.5120 C   0  0  0  0  0  2  0  0  0  0  0  0
  1  2  1  0  0  0  0
  2  3  1  0  0  0  0
  3 15  1  0  0  0  0
  4  3  2  0  0  0  0
  4  8  1  0  0  0  0
  5  9  1  0  0  0  0
  5  4  1  0  0  0  0
  6  7  1  0  0  0  0
  6  5  2  0  0  0  0
  7  2  2  0  0  0  0
 10  6  1  0  0  0  0
 11 17  1  0  0  0  0
 11 12  1  0  0  0  0
 12 18  1  0  0  0  0
 13 12  2  0  0  0  0
 13 19  1  0  0  0  0
 14 13  1  0  0  0  0
 15 16  1  0  0  0  0
 15 14  2  0  0  0  0
 16 11  2  0  0  0  0
 20  7  1  0  0  0  0
 22 21  2  1  0  0  0
 22 20  1  0  0  0  0
 22 25  1  0  0  0  0
 23 22  1  0  0  0  0
 24 23  1  0  0  0  0
 25 26  1  0  0  0  0
 26 27  1  0  0  0  0
 26 28  1  0  0  0  0
 27 28  1  0  0  0  0
M  END
>  <minimizedAffinity>
-5.16972017

$$$$

 OpenBabel03272501023D

 28 30  0  0  0  0  0  0  0  0999 V2000
   38.2300   26.2340   33.0410 F   0  0  0  0  0  0  0  0  0  0  0  0
   37.3450   25.3930   32.4550 C   0  0  0  0  0  0  0  0  0  0  0  0
   36.3080   25.8180   31.6340 C   0  0  0  0  0  0  0  0  0  0  0  0
   35.4680   24.8980   31.0900 C   0  0  0  0  0  0  0  0  0  0  0  0
   35.5850   23.5340   31.3070 C   0  0  0  0  0  0  0  0  0  0  0  0
   36.6290   23.1200   32.1320 C   0  0  0  0  0  0  0  0  0  0  0  0
   37.5030   24.0350   32.7020 C   0  0  0  0  0  0  0  0  0  0  0  0
   34.6930   25.3160   30.4680 H   0  0  0  0  0  0  0  0  0  0  0  0
   34.8910   22.8360   30.8510 H   0  0  0  0  0  0  0  0  0  0  0  0
   36.7250   22.0490   32.3060 H   0  0  0  0  0  0  0  0  0  0  0  0
   36.7840   29.0840   30.0450 C   0  0  0  0  0  0  0  0  0  0  0  0
   36.0140   29.9560   30.8140 C   0  0  0  0  0  0  0  0  0  0  0  0
   35.3180   29.4050   31.9000 C   0  0  0  0  0  0  0  0  0  0  0  0
   35.4060   28.0760   32.1700 N   0  0  0  0  0  0  0  0  0  0  0  0
   36.1700   27.2600   31.3940 C   0  0  0  0  0  0  0  0  0  0  0  0
   36.8570   27.7790   30.3320 N   0  0  0  0  0  0  0  0  0  0  0  0
   37.3210   29.5180   29.2060 H   0  0  0  0  0  0  0  0  0  0  0  0
   35.9100   31.0110   30.6440 H   0  0  0  0  0  0  0  0  0  0  0  0
   34.6810   29.9670   32.5820 H   0  0  0  0  0  0  0  0  0  0  0  0
   38.5060   23.5960   33.4980 O   0  0  0  0  0  0  0  0  0  0  0  0
   39.7690   22.3080   35.3500 O   0  0  0  0  0  0  0  0  0  0  0  0
   38.4290   22.9720   35.0410 P   0  0  2  0  0  0  0  0  0  0  0  0
   37.2520   21.7960   35.2850 O   0  0  0  0  0  0  0  0  0  0  0  0
   37.1790   21.1960   34.5260 H   0  0  0  0  0  0  0  0  0  0  0  0
   38.2500   24.2100   36.2100 O   0  0  0  0  0  0  0  0  0  0  0  0
   37.7510   23.7150   37.3970 C   0  0  0  0  0  3  0  0  0  0  0  0
   37.9500   24.6770   38.5890 C   0  0  0  0  0  2  0  0  0  0  0  0
   38.6260   23.3470   38.5270 C   0  0  0  0  0  2  0  0  0  0  0  0
  2  7  1  0  0  0  0
  2  1  1  0  0  0  0
  3  2  2  0  0  0  0
  4  5  2  0  0  0  0
  4  3  1  0  0  0  0
  5  6  1  0  0  0  0
  6 10  1  0  0  0  0
  6  7  2  0  0  0  0
  7 20  1  0  0  0  0
  8  4  1  0  0  0  0
  9  5  1  0  0  0  0
 11 16  2  0  0  0  0
 11 12  1  0  0  0  0
 12 13  2  0  0  0  0
 13 14  1  0  0  0  0
 13 19  1  0  0  0  0
 15  3  1  0  0  0  0
 15 14  2  0  0  0  0
 16 15  1  0  0  0  0
 17 11  1  0  0  0  0
 18 12  1  0  0  0  0
 20 22  1  0  0  0  0
 22 23  1  0  0  0  0
 22 21  2  1  0  0  0
 22 25  1  0  0  0  0
 24 23  1  0  0  0  0
 25 26  1  0  0  0  0
 26 28  1  0  0  0  0
 26 27  1  0  0  0  0
 28 27  1  0  0  0  0
M  END
>  <minimizedAffinity>
-5.1673584

$$$$

 OpenBabel03272501023D

 28 30  0  0  0  0  0  0  0  0999 V2000
   38.1420   22.9240   33.4440 F   0  0  0  0  0  0  0  0  0  0  0  0
   37.3000   23.6660   32.6870 C   0  0  0  0  0  0  0  0  0  0  0  0
   36.2490   23.1280   31.9540 C   0  0  0  0  0  0  0  0  0  0  0  0
   35.4560   23.9530   31.2210 C   0  0  0  0  0  0  0  0  0  0  0  0
   35.6330   25.3260   31.1590 C   0  0  0  0  0  0  0  0  0  0  0  0
   36.6900   25.8540   31.8980 C   0  0  0  0  0  0  0  0  0  0  0  0
   37.5170   25.0380   32.6560 C   0  0  0  0  0  0  0  0  0  0  0  0
   34.6670   23.4510   30.6840 H   0  0  0  0  0  0  0  0  0  0  0  0
   34.9740   25.9460   30.5610 H   0  0  0  0  0  0  0  0  0  0  0  0
   36.8330   26.9330   31.8520 H   0  0  0  0  0  0  0  0  0  0  0  0
   36.1890   19.6360   30.8470 C   0  0  0  0  0  0  0  0  0  0  0  0
   35.7230   18.9320   31.9580 C   0  0  0  0  0  0  0  0  0  0  0  0
   35.4240   19.6780   33.1070 C   0  0  0  0  0  0  0  0  0  0  0  0
   35.5910   21.0260   33.1150 N   0  0  0  0  0  0  0  0  0  0  0  0
   36.0490   21.6740   32.0090 C   0  0  0  0  0  0  0  0  0  0  0  0
   36.3440   20.9650   30.8790 N   0  0  0  0  0  0  0  0  0  0  0  0
   36.4180   19.0530   29.9600 H   0  0  0  0  0  0  0  0  0  0  0  0
   35.5730   17.8700   32.0040 H   0  0  0  0  0  0  0  0  0  0  0  0
   35.0530   19.2590   34.0420 H   0  0  0  0  0  0  0  0  0  0  0  0
   38.5350   25.5860   33.3610 O   0  0  0  0  0  0  0  0  0  0  0  0
   37.1780   26.5880   35.3210 O   0  0  0  0  0  0  0  0  0  0  0  0
   38.5690   26.0750   34.9530 P   0  0  2  0  0  0  0  0  0  0  0  0
   39.6410   27.3250   35.3000 O   0  0  0  0  0  0  0  0  0  0  0  0
   39.6530   27.9930   34.5970 H   0  0  0  0  0  0  0  0  0  0  0  0
   38.8660   24.7590   36.0070 O   0  0  0  0  0  0  0  0  0  0  0  0
   37.7420   24.4330   36.7380 C   0  0  0  0  0  3  0  0  0  0  0  0
   38.0650   23.9450   38.1670 C   0  0  0  0  0  2  0  0  0  0  0  0
   37.4440   23.0480   37.1480 C   0  0  0  0  0  2  0  0  0  0  0  0
  2  1  1  0  0  0  0
  3 15  1  0  0  0  0
  3  2  2  0  0  0  0
  4  3  1  0  0  0  0
  5  4  2  0  0  0  0
  5  6  1  0  0  0  0
  6  7  2  0  0  0  0
  7  2  1  0  0  0  0
  7 20  1  0  0  0  0
  8  4  1  0  0  0  0
  9  5  1  0  0  0  0
 10  6  1  0  0  0  0
 11 16  2  0  0  0  0
 11 12  1  0  0  0  0
 12 18  1  0  0  0  0
 12 13  2  0  0  0  0
 13 14  1  0  0  0  0
 13 19  1  0  0  0  0
 15 14  2  0  0  0  0
 16 15  1  0  0  0  0
 17 11  1  0  0  0  0
 20 22  1  0  0  0  0
 22 23  1  0  0  0  0
 22 21  2  1  0  0  0
 22 25  1  0  0  0  0
 24 23  1  0  0  0  0
 25 26  1  0  0  0  0
 26 28  1  0  0  0  0
 26 27  1  0  0  0  0
 28 27  1  0  0  0  0
M  END
>  <minimizedAffinity>
-5.13456964

$$$$

 OpenBabel03272501023D

 28 30  0  0  0  0  0  0  0  0999 V2000
   35.9170   27.9180   34.7330 F   0  0  0  0  0  0  0  0  0  0  0  0
   36.0380   28.6590   33.6060 C   0  0  0  0  0  0  0  0  0  0  0  0
   35.6520   29.9900   33.5150 C   0  0  0  0  0  0  0  0  0  0  0  0
   35.8130   30.6520   32.3380 C   0  0  0  0  0  0  0  0  0  0  0  0
   36.3500   30.0700   31.2010 C   0  0  0  0  0  0  0  0  0  0  0  0
   36.7340   28.7350   31.3050 C   0  0  0  0  0  0  0  0  0  0  0  0
   36.5830   28.0320   32.4910 C   0  0  0  0  0  0  0  0  0  0  0  0
   35.4850   31.6800   32.3580 H   0  0  0  0  0  0  0  0  0  0  0  0
   36.4600   30.6380   30.2840 H   0  0  0  0  0  0  0  0  0  0  0  0
   37.1570   28.2730   30.4130 H   0  0  0  0  0  0  0  0  0  0  0  0
   33.1580   30.9330   36.0270 C   0  0  0  0  0  0  0  0  0  0  0  0
   33.8610   31.7400   36.9230 C   0  0  0  0  0  0  0  0  0  0  0  0
   35.2190   31.9600   36.6520 C   0  0  0  0  0  0  0  0  0  0  0  0
   35.8030   31.4020   35.5600 N   0  0  0  0  0  0  0  0  0  0  0  0
   35.0800   30.6210   34.7110 C   0  0  0  0  0  0  0  0  0  0  0  0
   33.7550   30.3950   34.9570 N   0  0  0  0  0  0  0  0  0  0  0  0
   32.1060   30.7670   36.2420 H   0  0  0  0  0  0  0  0  0  0  0  0
   33.4490   32.2040   37.7980 H   0  0  0  0  0  0  0  0  0  0  0  0
   35.8860   32.5670   37.2650 H   0  0  0  0  0  0  0  0  0  0  0  0
   36.9670   26.7350   32.5550 O   0  0  0  0  0  0  0  0  0  0  0  0
   37.9700   25.3470   30.6170 O   0  0  0  0  0  0  0  0  0  0  0  0
   36.7080   25.5050   31.4620 P   0  0  2  0  0  0  0  0  0  0  0  0
   35.4440   25.7570   30.3810 O   0  0  0  0  0  0  0  0  0  0  0  0
   35.4080   26.6770   30.0770 H   0  0  0  0  0  0  0  0  0  0  0  0
   36.4940   24.0010   32.2510 O   0  0  0  0  0  0  0  0  0  0  0  0
   35.7940   23.1110   31.4610 C   0  0  0  0  0  3  0  0  0  0  0  0
   35.3540   21.8400   32.2200 C   0  0  0  0  0  2  0  0  0  0  0  0
   36.3350   21.7880   31.0960 C   0  0  0  0  0  2  0  0  0  0  0  0
  2  1  1  0  0  0  0
  3  2  1  0  0  0  0
  3 15  1  0  0  0  0
  4  8  1  0  0  0  0
  4  3  2  0  0  0  0
  5  6  2  0  0  0  0
  5  4  1  0  0  0  0
  6  7  1  0  0  0  0
  7 20  1  0  0  0  0
  7  2  2  0  0  0  0
  9  5  1  0  0  0  0
 10  6  1  0  0  0  0
 11 17  1  0  0  0  0
 11 12  1  0  0  0  0
 12 18  1  0  0  0  0
 13 12  2  0  0  0  0
 13 19  1  0  0  0  0
 14 13  1  0  0  0  0
 15 16  1  0  0  0  0
 15 14  2  0  0  0  0
 16 11  2  0  0  0  0
 22 21  2  6  0  0  0
 22 25  1  0  0  0  0
 22 20  1  0  0  0  0
 23 22  1  0  0  0  0
 24 23  1  0  0  0  0
 26 27  1  0  0  0  0
 26 25  1  0  0  0  0
 28 26  1  0  0  0  0
 28 27  1  0  0  0  0
M  END
>  <minimizedAffinity>
-5.08984804

$$$$

 OpenBabel03272501023D

 28 30  0  0  0  0  0  0  0  0999 V2000
   37.4600   28.2710   35.5350 F   0  0  0  0  0  0  0  0  0  0  0  0
   37.0140   28.1080   34.2670 C   0  0  0  0  0  0  0  0  0  0  0  0
   35.9310   28.7990   33.7380 C   0  0  0  0  0  0  0  0  0  0  0  0
   35.5560   28.5680   32.4520 C   0  0  0  0  0  0  0  0  0  0  0  0
   36.2010   27.6680   31.6190 C   0  0  0  0  0  0  0  0  0  0  0  0
   37.2860   26.9820   32.1600 C   0  0  0  0  0  0  0  0  0  0  0  0
   37.6930   27.1960   33.4690 C   0  0  0  0  0  0  0  0  0  0  0  0
   34.7060   29.1460   32.1260 H   0  0  0  0  0  0  0  0  0  0  0  0
   35.8670   27.5160   30.5980 H   0  0  0  0  0  0  0  0  0  0  0  0
   37.7960   26.2730   31.5080 H   0  0  0  0  0  0  0  0  0  0  0  0
   33.1780   30.4380   35.5130 C   0  0  0  0  0  0  0  0  0  0  0  0
   33.7900   31.4790   36.2120 C   0  0  0  0  0  0  0  0  0  0  0  0
   35.1780   31.6150   36.0660 C   0  0  0  0  0  0  0  0  0  0  0  0
   35.8740   30.7580   35.2740 N   0  0  0  0  0  0  0  0  0  0  0  0
   35.2370   29.7560   34.6090 C   0  0  0  0  0  0  0  0  0  0  0  0
   33.8840   29.6080   34.7380 N   0  0  0  0  0  0  0  0  0  0  0  0
   32.1020   30.3390   35.6300 H   0  0  0  0  0  0  0  0  0  0  0  0
   33.2880   32.1810   36.8490 H   0  0  0  0  0  0  0  0  0  0  0  0
   35.7840   32.3800   36.5520 H   0  0  0  0  0  0  0  0  0  0  0  0
   38.7520   26.5100   33.9610 O   0  0  0  0  0  0  0  0  0  0  0  0
   40.2210   24.5970   34.8920 O   0  0  0  0  0  0  0  0  0  0  0  0
   38.7750   25.0850   34.8230 P   0  0  2  0  0  0  0  0  0  0  0  0
   37.8830   23.8250   34.1550 O   0  0  0  0  0  0  0  0  0  0  0  0
   37.9660   23.7970   33.1890 H   0  0  0  0  0  0  0  0  0  0  0  0
   38.2940   25.3260   36.4480 O   0  0  0  0  0  0  0  0  0  0  0  0
   37.9350   24.1380   37.0510 C   0  0  0  0  0  3  0  0  0  0  0  0
   37.9320   24.2140   38.5930 C   0  0  0  0  0  2  0  0  0  0  0  0
   38.8860   23.3400   37.8480 C   0  0  0  0  0  2  0  0  0  0  0  0
  2  1  1  0  0  0  0
  3  2  1  0  0  0  0
  3 15  1  0  0  0  0
  4  3  2  0  0  0  0
  5  6  2  0  0  0  0
  5  4  1  0  0  0  0
  6  7  1  0  0  0  0
  7 20  1  0  0  0  0
  7  2  2  0  0  0  0
  8  4  1  0  0  0  0
  9  5  1  0  0  0  0
 10  6  1  0  0  0  0
 11 17  1  0  0  0  0
 11 12  1  0  0  0  0
 12 18  1  0  0  0  0
 13 12  2  0  0  0  0
 13 19  1  0  0  0  0
 14 13  1  0  0  0  0
 15 16  1  0  0  0  0
 15 14  2  0  0  0  0
 16 11  2  0  0  0  0
 20 22  1  0  0  0  0
 22 21  2  1  0  0  0
 22 25  1  0  0  0  0
 23 22  1  0  0  0  0
 24 23  1  0  0  0  0
 25 26  1  0  0  0  0
 26 28  1  0  0  0  0
 26 27  1  0  0  0  0
 28 27  1  0  0  0  0
M  END
>  <minimizedAffinity>
-5.03172302

$$$$

 OpenBabel03272501023D

 28 30  0  0  0  0  0  0  0  0999 V2000
   37.8390   23.4510   34.2920 F   0  0  0  0  0  0  0  0  0  0  0  0
   38.5170   24.6230   34.2520 C   0  0  0  0  0  0  0  0  0  0  0  0
   39.7330   24.8300   34.8910 C   0  0  0  0  0  0  0  0  0  0  0  0
   40.3390   26.0430   34.7930 C   0  0  0  0  0  0  0  0  0  0  0  0
   39.8090   27.1070   34.0810 C   0  0  0  0  0  0  0  0  0  0  0  0
   38.5890   26.8870   33.4440 C   0  0  0  0  0  0  0  0  0  0  0  0
   37.9460   25.6600   33.5240 C   0  0  0  0  0  0  0  0  0  0  0  0
   41.2770   26.1150   35.3210 H   0  0  0  0  0  0  0  0  0  0  0  0
   40.3290   28.0580   34.0310 H   0  0  0  0  0  0  0  0  0  0  0  0
   38.1690   27.7210   32.8830 H   0  0  0  0  0  0  0  0  0  0  0  0
   40.2480   22.4680   37.6430 C   0  0  0  0  0  0  0  0  0  0  0  0
   41.2830   21.6440   37.2000 C   0  0  0  0  0  0  0  0  0  0  0  0
   41.8100   21.9110   35.9280 C   0  0  0  0  0  0  0  0  0  0  0  0
   41.3180   22.9320   35.1790 N   0  0  0  0  0  0  0  0  0  0  0  0
   40.3070   23.7120   35.6500 C   0  0  0  0  0  0  0  0  0  0  0  0
   39.7810   23.4690   36.8880 N   0  0  0  0  0  0  0  0  0  0  0  0
   39.8440   22.2570   38.6290 H   0  0  0  0  0  0  0  0  0  0  0  0
   41.7070   20.8270   37.7500 H   0  0  0  0  0  0  0  0  0  0  0  0
   42.6170   21.3490   35.4580 H   0  0  0  0  0  0  0  0  0  0  0  0
   36.7620   25.4830   32.8930 O   0  0  0  0  0  0  0  0  0  0  0  0
   37.7930   24.6570   30.6700 O   0  0  0  0  0  0  0  0  0  0  0  0
   36.4650   25.0610   31.3090 P   0  0  2  0  0  0  0  0  0  0  0  0
   35.8310   26.2850   30.3440 O   0  0  0  0  0  0  0  0  0  0  0  0
   36.2370   27.1440   30.5390 H   0  0  0  0  0  0  0  0  0  0  0  0
   35.4660   23.6750   31.2050 O   0  0  0  0  0  0  0  0  0  0  0  0
   36.1220   22.5450   31.6470 C   0  0  0  0  0  3  0  0  0  0  0  0
   35.5400   21.2370   31.0670 C   0  0  0  0  0  2  0  0  0  0  0  0
   35.4750   21.5520   32.5250 C   0  0  0  0  0  2  0  0  0  0  0  0
  2  1  1  0  0  0  0
  2  3  1  0  0  0  0
  3 15  1  0  0  0  0
  4  3  2  0  0  0  0
  4  8  1  0  0  0  0
  5  4  1  0  0  0  0
  6  7  1  0  0  0  0
  6  5  2  0  0  0  0
  7  2  2  0  0  0  0
  9  5  1  0  0  0  0
 10  6  1  0  0  0  0
 11 17  1  0  0  0  0
 12 11  1  0  0  0  0
 12 18  1  0  0  0  0
 13 12  2  0  0  0  0
 14 15  2  0  0  0  0
 14 13  1  0  0  0  0
 15 16  1  0  0  0  0
 16 11  2  0  0  0  0
 19 13  1  0  0  0  0
 20  7  1  0  0  0  0
 22 21  2  6  0  0  0
 22 20  1  0  0  0  0
 23 24  1  0  0  0  0
 23 22  1  0  0  0  0
 25 22  1  0  0  0  0
 25 26  1  0  0  0  0
 26 28  1  0  0  0  0
 27 26  1  0  0  0  0
 27 28  1  0  0  0  0
M  END
>  <minimizedAffinity>
-4.9976964

$$$$

 OpenBabel03272501023D

 28 30  0  0  0  0  0  0  0  0999 V2000
   36.7460   26.2320   35.0900 F   0  0  0  0  0  0  0  0  0  0  0  0
   38.0390   26.2740   34.6910 C   0  0  0  0  0  0  0  0  0  0  0  0
   38.4840   27.0150   33.6020 C   0  0  0  0  0  0  0  0  0  0  0  0
   39.8040   26.9960   33.2770 C   0  0  0  0  0  0  0  0  0  0  0  0
   40.7520   26.2690   33.9780 C   0  0  0  0  0  0  0  0  0  0  0  0
   40.2940   25.5300   35.0670 C   0  0  0  0  0  0  0  0  0  0  0  0
   38.9540   25.5300   35.4250 C   0  0  0  0  0  0  0  0  0  0  0  0
   40.0590   27.5970   32.4200 H   0  0  0  0  0  0  0  0  0  0  0  0
   41.7960   26.2830   33.6820 H   0  0  0  0  0  0  0  0  0  0  0  0
   41.0370   24.9570   35.6220 H   0  0  0  0  0  0  0  0  0  0  0  0
   36.7430   28.4740   30.7280 C   0  0  0  0  0  0  0  0  0  0  0  0
   35.6980   29.2040   31.2940 C   0  0  0  0  0  0  0  0  0  0  0  0
   35.5940   29.1910   32.6920 C   0  0  0  0  0  0  0  0  0  0  0  0
   36.4840   28.4900   33.4420 N   0  0  0  0  0  0  0  0  0  0  0  0
   37.4900   27.7910   32.8490 C   0  0  0  0  0  0  0  0  0  0  0  0
   37.6090   27.7930   31.4880 N   0  0  0  0  0  0  0  0  0  0  0  0
   36.8190   28.4890   29.6440 H   0  0  0  0  0  0  0  0  0  0  0  0
   34.9700   29.7730   30.7490 H   0  0  0  0  0  0  0  0  0  0  0  0
   34.8290   29.7140   33.2650 H   0  0  0  0  0  0  0  0  0  0  0  0
   38.5450   24.8000   36.4890 O   0  0  0  0  0  0  0  0  0  0  0  0
   38.5480   22.5090   35.2900 O   0  0  0  0  0  0  0  0  0  0  0  0
   38.5020   23.1450   36.6780 P   0  0  2  0  0  0  0  0  0  0  0  0
   37.1230   22.5410   37.4290 O   0  0  0  0  0  0  0  0  0  0  0  0
   36.3230   23.0070   37.1410 H   0  0  0  0  0  0  0  0  0  0  0  0
   39.8940   22.5710   37.4920 O   0  0  0  0  0  0  0  0  0  0  0  0
   40.8330   22.0840   36.6050 C   0  0  0  0  0  3  0  0  0  0  0  0
   41.9500   21.2660   37.2900 C   0  0  0  0  0  2  0  0  0  0  0  0
   42.2300   22.5590   36.5990 C   0  0  0  0  0  2  0  0  0  0  0  0
  2  1  1  0  0  0  0
  2  7  1  0  0  0  0
  3  2  2  0  0  0  0
  4  3  1  0  0  0  0
  4  5  2  0  0  0  0
  5  6  1  0  0  0  0
  6  7  2  0  0  0  0
  6 10  1  0  0  0  0
  7 20  1  0  0  0  0
  8  4  1  0  0  0  0
  9  5  1  0  0  0  0
 11 12  2  0  0  0  0
 11 16  1  0  0  0  0
 12 13  1  0  0  0  0
 13 19  1  0  0  0  0
 13 14  2  0  0  0  0
 15 14  1  0  0  0  0
 15  3  1  0  0  0  0
 16 15  2  0  0  0  0
 17 11  1  0  0  0  0
 18 12  1  0  0  0  0
 20 22  1  0  0  0  0
 22 21  2  6  0  0  0
 22 23  1  0  0  0  0
 22 25  1  0  0  0  0
 24 23  1  0  0  0  0
 26 27  1  0  0  0  0
 26 25  1  0  0  0  0
 28 26  1  0  0  0  0
 28 27  1  0  0  0  0
M  END
>  <minimizedAffinity>
-4.86828804

$$$$

 OpenBabel03272501023D

 28 30  0  0  0  0  0  0  0  0999 V2000
   36.7330   25.4430   32.7640 F   0  0  0  0  0  0  0  0  0  0  0  0
   37.2630   26.0060   33.8770 C   0  0  0  0  0  0  0  0  0  0  0  0
   37.2250   27.3690   34.1420 C   0  0  0  0  0  0  0  0  0  0  0  0
   37.7840   27.8420   35.2870 C   0  0  0  0  0  0  0  0  0  0  0  0
   38.4030   27.0310   36.2260 C   0  0  0  0  0  0  0  0  0  0  0  0
   38.4350   25.6660   35.9490 C   0  0  0  0  0  0  0  0  0  0  0  0
   37.8720   25.1530   34.7890 C   0  0  0  0  0  0  0  0  0  0  0  0
   37.7090   28.9100   35.4110 H   0  0  0  0  0  0  0  0  0  0  0  0
   38.8360   27.4520   37.1260 H   0  0  0  0  0  0  0  0  0  0  0  0
   38.9200   25.0250   36.6840 H   0  0  0  0  0  0  0  0  0  0  0  0
   36.6890   29.1970   31.0130 C   0  0  0  0  0  0  0  0  0  0  0  0
   35.4730   29.8530   31.2020 C   0  0  0  0  0  0  0  0  0  0  0  0
   34.8280   29.6590   32.4320 C   0  0  0  0  0  0  0  0  0  0  0  0
   35.3830   28.8620   33.3820 N   0  0  0  0  0  0  0  0  0  0  0  0
   36.5730   28.2410   33.1570 C   0  0  0  0  0  0  0  0  0  0  0  0
   37.2170   28.4180   31.9650 N   0  0  0  0  0  0  0  0  0  0  0  0
   37.1840   29.3520   30.0580 H   0  0  0  0  0  0  0  0  0  0  0  0
   34.9920   30.4920   30.4860 H   0  0  0  0  0  0  0  0  0  0  0  0
   33.8750   30.1080   32.7130 H   0  0  0  0  0  0  0  0  0  0  0  0
   37.9220   23.8210   34.5530 O   0  0  0  0  0  0  0  0  0  0  0  0
   40.3930   23.8050   33.7890 O   0  0  0  0  0  0  0  0  0  0  0  0
   39.2220   22.8780   34.1100 P   0  0  2  0  0  0  0  0  0  0  0  0
   38.9880   21.9230   32.7450 O   0  0  0  0  0  0  0  0  0  0  0  0
   38.4860   22.3910   32.0600 H   0  0  0  0  0  0  0  0  0  0  0  0
   39.7560   21.8980   35.4080 O   0  0  0  0  0  0  0  0  0  0  0  0
   40.4800   22.6280   36.3290 C   0  0  0  0  0  3  0  0  0  0  0  0
   41.1730   21.7510   37.3940 C   0  0  0  0  0  2  0  0  0  0  0  0
   40.0890   22.7140   37.7480 C   0  0  0  0  0  2  0  0  0  0  0  0
  1  2  1  0  0  0  0
  2  3  2  0  0  0  0
  2  7  1  0  0  0  0
  3  4  1  0  0  0  0
  4  8  1  0  0  0  0
  4  5  2  0  0  0  0
  5  9  1  0  0  0  0
  6  5  1  0  0  0  0
  6 10  1  0  0  0  0
  7  6  2  0  0  0  0
 11 12  2  0  0  0  0
 11 16  1  0  0  0  0
 12 13  1  0  0  0  0
 13 19  1  0  0  0  0
 13 14  2  0  0  0  0
 15 14  1  0  0  0  0
 15  3  1  0  0  0  0
 16 15  2  0  0  0  0
 17 11  1  0  0  0  0
 18 12  1  0  0  0  0
 20  7  1  0  0  0  0
 22 21  2  6  0  0  0
 22 20  1  0  0  0  0
 22 25  1  0  0  0  0
 23 22  1  0  0  0  0
 24 23  1  0  0  0  0
 25 26  1  0  0  0  0
 26 27  1  0  0  0  0
 26 28  1  0  0  0  0
 27 28  1  0  0  0  0
M  END
>  <minimizedAffinity>
-4.82867146

$$$$

 OpenBabel03272501023D

 28 30  0  0  0  0  0  0  0  0999 V2000
   36.9430   25.4300   33.2400 F   0  0  0  0  0  0  0  0  0  0  0  0
   38.1600   25.8300   33.6750 C   0  0  0  0  0  0  0  0  0  0  0  0
   38.9050   26.8310   33.0640 C   0  0  0  0  0  0  0  0  0  0  0  0
   40.1200   27.1650   33.5750 C   0  0  0  0  0  0  0  0  0  0  0  0
   40.6730   26.5570   34.6900 C   0  0  0  0  0  0  0  0  0  0  0  0
   39.9170   25.5550   35.2950 C   0  0  0  0  0  0  0  0  0  0  0  0
   38.6730   25.1920   34.7980 C   0  0  0  0  0  0  0  0  0  0  0  0
   40.6280   27.9500   33.0370 H   0  0  0  0  0  0  0  0  0  0  0  0
   41.6460   26.8560   35.0630 H   0  0  0  0  0  0  0  0  0  0  0  0
   40.3470   25.0740   36.1720 H   0  0  0  0  0  0  0  0  0  0  0  0
   36.6490   28.9000   31.0520 C   0  0  0  0  0  0  0  0  0  0  0  0
   37.1420   28.7820   29.7520 C   0  0  0  0  0  0  0  0  0  0  0  0
   38.2730   27.9730   29.5690 C   0  0  0  0  0  0  0  0  0  0  0  0
   38.8460   27.3430   30.6280 N   0  0  0  0  0  0  0  0  0  0  0  0
   38.3330   27.4850   31.8800 C   0  0  0  0  0  0  0  0  0  0  0  0
   37.2300   28.2680   32.0780 N   0  0  0  0  0  0  0  0  0  0  0  0
   35.7720   29.5270   31.1860 H   0  0  0  0  0  0  0  0  0  0  0  0
   36.7270   29.2560   28.8830 H   0  0  0  0  0  0  0  0  0  0  0  0
   38.7610   27.7920   28.6120 H   0  0  0  0  0  0  0  0  0  0  0  0
   37.9670   24.2130   35.4120 O   0  0  0  0  0  0  0  0  0  0  0  0
   38.9810   22.0680   34.3850 O   0  0  0  0  0  0  0  0  0  0  0  0
   38.3820   22.6220   35.6760 P   0  0  2  0  0  0  0  0  0  0  0  0
   37.1060   21.6020   36.0800 O   0  0  0  0  0  0  0  0  0  0  0  0
   36.3070   21.8060   35.5700 H   0  0  0  0  0  0  0  0  0  0  0  0
   39.6180   22.4830   36.8520 O   0  0  0  0  0  0  0  0  0  0  0  0
   40.8020   22.0480   36.2910 C   0  0  0  0  0  3  0  0  0  0  0  0
   41.7600   21.4040   37.3170 C   0  0  0  0  0  2  0  0  0  0  0  0
   42.1000   22.6730   36.6080 C   0  0  0  0  0  2  0  0  0  0  0  0
  1  2  1  0  0  0  0
  2  7  1  0  0  0  0
  3  4  1  0  0  0  0
  3  2  2  0  0  0  0
  4  5  2  0  0  0  0
  5  9  1  0  0  0  0
  5  6  1  0  0  0  0
  6 10  1  0  0  0  0
  7  6  2  0  0  0  0
  7 20  1  0  0  0  0
  8  4  1  0  0  0  0
 11 17  1  0  0  0  0
 11 16  1  0  0  0  0
 12 11  2  0  0  0  0
 13 12  1  0  0  0  0
 13 14  2  0  0  0  0
 14 15  1  0  0  0  0
 15 16  2  0  0  0  0
 15  3  1  0  0  0  0
 18 12  1  0  0  0  0
 19 13  1  0  0  0  0
 20 22  1  0  0  0  0
 22 21  2  6  0  0  0
 22 23  1  0  0  0  0
 22 25  1  0  0  0  0
 24 23  1  0  0  0  0
 26 28  1  0  0  0  0
 26 25  1  0  0  0  0
 26 27  1  0  0  0  0
 28 27  1  0  0  0  0
M  END
>  <minimizedAffinity>
-4.7595706

$$$$
