
 OpenBabel03272509313D

 32 34  0  0  1  0  0  0  0  0999 V2000
   36.1280   30.7300   49.0820 C   0  0  2  0  0  0  0  0  0  0  0  0
   37.1140   31.6360   49.7540 C   0  0  0  0  0  0  0  0  0  0  0  0
   38.1130   30.8920   50.6120 C   0  0  0  0  0  0  0  0  0  0  0  0
   37.3980   30.0390   51.6550 C   0  0  0  0  0  0  0  0  0  0  0  0
   36.1260   29.4090   51.1590 C   0  0  0  0  0  0  0  0  0  0  0  0
   36.1820   29.3360   49.6240 C   0  0  1  0  0  0  0  0  0  0  0  0
   35.0580   31.0580   49.1810 H   0  0  0  0  0  0  0  0  0  0  0  0
   36.4860   32.2000   50.5250 H   0  0  0  0  0  0  0  0  0  0  0  0
   37.5730   32.4060   49.1640 H   0  0  0  0  0  0  0  0  0  0  0  0
   38.8640   30.3290   50.0600 H   0  0  0  0  0  0  0  0  0  0  0  0
   38.6660   31.6640   51.1910 H   0  0  0  0  0  0  0  0  0  0  0  0
   37.2350   30.5660   52.6060 H   0  0  0  0  0  0  0  0  0  0  0  0
   38.1000   29.1790   51.8620 H   0  0  0  0  0  0  0  0  0  0  0  0
   35.9730   28.3870   51.5150 H   0  0  0  0  0  0  0  0  0  0  0  0
   35.2610   30.0770   51.4140 H   0  0  0  0  0  0  0  0  0  0  0  0
   37.1590   28.9360   49.4830 H   0  0  0  0  0  0  0  0  0  0  0  0
   36.3740   30.6720   47.6170 C   0  0  0  0  0  0  0  0  0  0  0  0
   37.6250   31.1210   47.1870 C   0  0  0  0  0  0  0  0  0  0  0  0
   37.8760   31.0690   45.8100 C   0  0  0  0  0  0  0  0  0  0  0  0
   36.9000   30.5900   44.9740 N   0  0  0  0  0  0  0  0  0  0  0  0
   35.6820   30.1580   45.4500 C   0  0  0  0  0  0  0  0  0  0  0  0
   35.4490   30.2100   46.7620 N   0  0  0  0  0  0  0  0  0  0  0  0
   38.4700   31.5050   47.7190 H   0  0  0  0  0  0  0  0  0  0  0  0
   38.7920   31.3820   45.3410 H   0  0  0  0  0  0  0  0  0  0  0  0
   34.9410   29.7860   44.7600 H   0  0  0  0  0  0  0  0  0  0  0  0
   33.8610   28.3550   49.2470 C   0  0  0  0  0  0  0  0  0  0  0  0
   33.1160   29.0130   50.0300 O   0  0  0  0  0  0  0  0  0  0  0  0
   35.2740   28.4150   49.0460 N   0  0  0  0  0  0  0  0  0  0  0  0
   35.6230   27.6560   48.3760 H   0  0  0  0  0  0  0  0  0  0  0  0
   33.0250   27.3780   48.4420 C   0  0  0  0  0  3  0  0  0  0  0  0
   31.5430   27.6020   48.3410 C   0  0  0  0  0  2  0  0  0  0  0  0
   32.3740   27.9270   47.1580 C   0  0  0  0  0  2  0  0  0  0  0  0
  1  7  1  1  0  0  0
  1  6  1  0  0  0  0
  1  2  1  0  0  0  0
  2  8  1  0  0  0  0
  2  3  1  0  0  0  0
  3 11  1  0  0  0  0
  3  4  1  0  0  0  0
  4 13  1  0  0  0  0
  4 12  1  0  0  0  0
  5 15  1  0  0  0  0
  5 14  1  0  0  0  0
  5  4  1  0  0  0  0
  6 16  1  6  0  0  0
  6  5  1  0  0  0  0
  9  2  1  0  0  0  0
 10  3  1  0  0  0  0
 17  1  1  0  0  0  0
 18 17  1  0  0  0  0
 18 23  1  0  0  0  0
 19 18  2  0  0  0  0
 20 21  2  0  0  0  0
 20 19  1  0  0  0  0
 21 22  1  0  0  0  0
 22 17  2  0  0  0  0
 24 19  1  0  0  0  0
 25 21  1  0  0  0  0
 26 27  2  0  0  0  0
 28 26  1  0  0  0  0
 28  6  1  0  0  0  0
 29 28  1  0  0  0  0
 30 26  1  0  0  0  0
 31 30  1  0  0  0  0
 32 31  1  0  0  0  0
 32 30  1  0  0  0  0
M  END
>  <minimizedAffinity>
-5.66258001

>  <minimizedRMSD>
0.390484184

$$$$
