
 OpenBabel03262522003D

 14 15  0  0  0  0  0  0  0  0999 V2000
   37.9710   31.0100   49.2490 C   0  0  0  0  0  0  0  0  0  0  0  0
   38.2780   32.3240   49.6440 C   0  0  0  0  0  0  0  0  0  0  0  0
   38.8410   33.1720   48.6850 C   0  0  0  0  0  0  0  0  0  0  0  0
   39.0580   32.6640   47.4200 N   0  0  0  0  0  0  0  0  0  0  0  0
   38.7450   31.3940   47.0940 C   0  0  0  0  0  0  0  0  0  0  0  0
   38.1980   30.5570   48.0130 N   0  0  0  0  0  0  0  0  0  0  0  0
   38.1210   32.7430   50.6110 H   0  0  0  0  0  0  0  0  0  0  0  0
   39.1190   34.1950   48.8620 H   0  0  0  0  0  0  0  0  0  0  0  0
   38.9660   31.1190   46.0710 H   0  0  0  0  0  0  0  0  0  0  0  0
   37.3890   30.1480   50.2580 C   0  0  0  0  0  0  0  0  0  0  0  0
   37.6280   30.2670   51.5010 O   0  0  0  0  0  0  0  0  0  0  0  0
   36.4480   29.0360   49.9280 C   0  0  0  0  0  0  0  0  0  0  0  0
   35.0550   29.2910   50.5110 C   0  0  0  0  0  0  0  0  0  0  0  0
   35.3220   29.2410   49.0110 C   0  0  0  0  0  0  0  0  0  0  0  0
  1  2  1  0  0  0  0
  1 10  1  0  0  0  0
  2  7  1  0  0  0  0
  3  8  1  0  0  0  0
  3  2  2  0  0  0  0
  4  3  1  0  0  0  0
  5  4  2  0  0  0  0
  5  6  1  0  0  0  0
  6  1  2  0  0  0  0
  9  5  1  0  0  0  0
 10 11  2  0  0  0  0
 12 10  1  0  0  0  0
 12 13  1  0  0  0  0
 14 12  1  0  0  0  0
 14 13  1  0  0  0  0
M  END
>  <minimizedAffinity>
-4.48817873

>  <minimizedRMSD>
1.55989075

$$$$
