
 OpenBabel03272501453D

 28 31  0  0  0  0  0  0  0  0999 V2000
   35.7960   29.4550   34.5720 C   0  0  0  0  0  0  0  0  0  0  0  0
   36.3650   28.5760   33.6500 C   0  0  0  0  0  0  0  0  0  0  0  0
   36.2190   28.8750   32.3070 C   0  0  0  0  0  0  0  0  0  0  0  0
   35.5180   30.0280   31.9350 C   0  0  0  0  0  0  0  0  0  0  0  0
   35.2160   30.5720   30.7480 N   0  0  0  0  0  0  0  0  0  0  0  0
   34.5220   31.6890   30.9130 C   0  0  0  0  0  0  0  0  0  0  0  0
   34.3600   31.8910   32.2350 N   0  0  0  0  0  0  0  0  0  0  0  0
   34.9680   30.8740   32.8590 C   0  0  0  0  0  0  0  0  0  0  0  0
   35.1080   30.5860   34.1980 C   0  0  0  0  0  0  0  0  0  0  0  0
   35.8290   29.3460   35.6650 H   0  0  0  0  0  0  0  0  0  0  0  0
   36.6520   28.2080   31.5780 H   0  0  0  0  0  0  0  0  0  0  0  0
   35.5290   30.1060   29.8500 H   0  0  0  0  0  0  0  0  0  0  0  0
   34.1950   32.2570   30.0520 H   0  0  0  0  0  0  0  0  0  0  0  0
   34.6570   31.2840   34.9060 H   0  0  0  0  0  0  0  0  0  0  0  0
   37.7480   27.6470   35.3970 C   0  0  0  0  0  0  0  0  0  0  0  0
   37.0610   27.4210   34.1660 C   0  0  0  0  0  0  0  0  0  0  0  0
   37.1330   26.1500   33.6280 C   0  0  0  0  0  0  0  0  0  0  0  0
   37.8440   25.2040   34.2930 N   0  0  0  0  0  0  0  0  0  0  0  0
   38.4820   25.4350   35.4470 C   0  0  0  0  0  0  0  0  0  0  0  0
   38.4280   26.6570   35.9880 N   0  0  0  0  0  0  0  0  0  0  0  0
   37.8130   28.5710   35.9710 H   0  0  0  0  0  0  0  0  0  0  0  0
   36.6100   26.0110   32.7070 H   0  0  0  0  0  0  0  0  0  0  0  0
   39.2420   24.3480   36.1280 C   0  0  0  0  0  0  0  0  0  0  0  0
   40.1370   24.7910   36.6200 H   0  0  0  0  0  0  0  0  0  0  0  0
   39.5370   23.6110   35.3440 H   0  0  0  0  0  0  0  0  0  0  0  0
   38.3540   23.6520   37.1090 C   0  0  0  0  0  3  0  0  0  0  0  0
   38.9290   23.1650   38.3770 C   0  0  0  0  0  2  0  0  0  0  0  0
   37.9750   24.3440   38.3960 C   0  0  0  0  0  2  0  0  0  0  0  0
  1 10  1  0  0  0  0
  2 16  1  0  0  0  0
  2  1  2  0  0  0  0
  3  2  1  0  0  0  0
  4  3  2  0  0  0  0
  4  8  1  0  0  0  0
  5  6  1  0  0  0  0
  5  4  1  0  0  0  0
  6  7  2  0  0  0  0
  7  8  1  0  0  0  0
  8  9  2  0  0  0  0
  9  1  1  0  0  0  0
  9 14  1  0  0  0  0
 11  3  1  0  0  0  0
 12  5  1  0  0  0  0
 13  6  1  0  0  0  0
 15 21  1  0  0  0  0
 15 20  1  0  0  0  0
 16 15  2  0  0  0  0
 17 16  1  0  0  0  0
 17 18  2  0  0  0  0
 18 19  1  0  0  0  0
 19 20  2  0  0  0  0
 19 23  1  0  0  0  0
 22 17  1  0  0  0  0
 23 24  1  0  0  0  0
 23 26  1  0  0  0  0
 25 23  1  0  0  0  0
 26 27  1  0  0  0  0
 26 28  1  0  0  0  0
 27 28  1  0  0  0  0
M  END
>  <minimizedAffinity>
-5.16834021

$$$$

 OpenBabel03272501453D

 28 31  0  0  0  0  0  0  0  0999 V2000
   35.9600   28.3060   33.0870 C   0  0  0  0  0  0  0  0  0  0  0  0
   36.1850   27.6690   31.8660 C   0  0  0  0  0  0  0  0  0  0  0  0
   36.2770   28.4640   30.7370 C   0  0  0  0  0  0  0  0  0  0  0  0
   36.1450   29.8510   30.8640 C   0  0  0  0  0  0  0  0  0  0  0  0
   36.1850   30.8590   29.9820 N   0  0  0  0  0  0  0  0  0  0  0  0
   36.0040   32.0200   30.5940 C   0  0  0  0  0  0  0  0  0  0  0  0
   35.8390   31.7790   31.9090 N   0  0  0  0  0  0  0  0  0  0  0  0
   35.9250   30.4530   32.0730 C   0  0  0  0  0  0  0  0  0  0  0  0
   35.8310   29.6720   33.2030 C   0  0  0  0  0  0  0  0  0  0  0  0
   35.8630   27.8070   34.0610 H   0  0  0  0  0  0  0  0  0  0  0  0
   36.4510   27.9900   29.7830 H   0  0  0  0  0  0  0  0  0  0  0  0
   36.3460   30.6630   28.9530 H   0  0  0  0  0  0  0  0  0  0  0  0
   36.0070   32.9400   30.0250 H   0  0  0  0  0  0  0  0  0  0  0  0
   35.6570   30.1860   34.1500 H   0  0  0  0  0  0  0  0  0  0  0  0
   35.3670   25.5580   31.0280 C   0  0  0  0  0  0  0  0  0  0  0  0
   36.3010   26.2300   31.8730 C   0  0  0  0  0  0  0  0  0  0  0  0
   37.1930   25.4440   32.5780 C   0  0  0  0  0  0  0  0  0  0  0  0
   37.1290   24.0960   32.4270 N   0  0  0  0  0  0  0  0  0  0  0  0
   36.2450   23.4840   31.6290 C   0  0  0  0  0  0  0  0  0  0  0  0
   35.3720   24.2220   30.9360 N   0  0  0  0  0  0  0  0  0  0  0  0
   34.5910   25.9960   30.4020 H   0  0  0  0  0  0  0  0  0  0  0  0
   37.8790   25.9740   33.2020 H   0  0  0  0  0  0  0  0  0  0  0  0
   36.2330   21.9980   31.5060 C   0  0  0  0  0  0  0  0  0  0  0  0
   37.2320   21.6060   31.8020 H   0  0  0  0  0  0  0  0  0  0  0  0
   36.0080   21.7580   30.4400 H   0  0  0  0  0  0  0  0  0  0  0  0
   35.1390   21.4320   32.3520 C   0  0  0  0  0  3  0  0  0  0  0  0
   34.7240   20.0320   32.1450 C   0  0  0  0  0  2  0  0  0  0  0  0
   35.4680   20.4080   33.4120 C   0  0  0  0  0  2  0  0  0  0  0  0
  1  9  1  0  0  0  0
  1 10  1  0  0  0  0
  2 16  1  0  0  0  0
  2  1  2  0  0  0  0
  3  4  2  0  0  0  0
  3  2  1  0  0  0  0
  4  8  1  0  0  0  0
  5  6  1  0  0  0  0
  5  4  1  0  0  0  0
  6  7  2  0  0  0  0
  7  8  1  0  0  0  0
  8  9  2  0  0  0  0
  9 14  1  0  0  0  0
 11  3  1  0  0  0  0
 12  5  1  0  0  0  0
 13  6  1  0  0  0  0
 15 16  1  0  0  0  0
 16 17  2  0  0  0  0
 17 22  1  0  0  0  0
 18 17  1  0  0  0  0
 19 18  2  0  0  0  0
 20 15  2  0  0  0  0
 20 19  1  0  0  0  0
 21 15  1  0  0  0  0
 23 19  1  0  0  0  0
 23 24  1  0  0  0  0
 23 26  1  0  0  0  0
 25 23  1  0  0  0  0
 26 28  1  0  0  0  0
 27 26  1  0  0  0  0
 27 28  1  0  0  0  0
M  END
>  <minimizedAffinity>
-5.10592651

$$$$

 OpenBabel03272501453D

 28 31  0  0  0  0  0  0  0  0999 V2000
   38.6520   24.0640   37.1380 C   0  0  0  0  0  0  0  0  0  0  0  0
   39.1450   24.6480   35.9700 C   0  0  0  0  0  0  0  0  0  0  0  0
   40.3090   24.1240   35.4360 C   0  0  0  0  0  0  0  0  0  0  0  0
   40.9330   23.0470   36.0770 C   0  0  0  0  0  0  0  0  0  0  0  0
   42.0400   22.3410   35.8110 N   0  0  0  0  0  0  0  0  0  0  0  0
   42.2230   21.4010   36.7270 C   0  0  0  0  0  0  0  0  0  0  0  0
   41.2170   21.4850   37.6200 N   0  0  0  0  0  0  0  0  0  0  0  0
   40.4300   22.4920   37.2220 C   0  0  0  0  0  0  0  0  0  0  0  0
   39.2720   23.0060   37.7630 C   0  0  0  0  0  0  0  0  0  0  0  0
   37.7450   24.3730   37.6750 H   0  0  0  0  0  0  0  0  0  0  0  0
   40.7060   24.5610   34.5330 H   0  0  0  0  0  0  0  0  0  0  0  0
   42.6310   22.5710   34.9620 H   0  0  0  0  0  0  0  0  0  0  0  0
   43.0750   20.7380   36.6630 H   0  0  0  0  0  0  0  0  0  0  0  0
   38.9000   22.5370   38.6750 H   0  0  0  0  0  0  0  0  0  0  0  0
   37.7730   25.4710   34.1630 C   0  0  0  0  0  0  0  0  0  0  0  0
   38.4060   25.7540   35.4110 C   0  0  0  0  0  0  0  0  0  0  0  0
   38.2350   27.0230   35.9320 C   0  0  0  0  0  0  0  0  0  0  0  0
   37.4850   27.9140   35.2330 N   0  0  0  0  0  0  0  0  0  0  0  0
   36.8990   27.6290   34.0640 C   0  0  0  0  0  0  0  0  0  0  0  0
   37.0490   26.4080   33.5400 N   0  0  0  0  0  0  0  0  0  0  0  0
   37.7920   24.5410   33.5960 H   0  0  0  0  0  0  0  0  0  0  0  0
   38.7210   27.2060   36.8650 H   0  0  0  0  0  0  0  0  0  0  0  0
   36.0830   28.6550   33.3520 C   0  0  0  0  0  0  0  0  0  0  0  0
   35.4460   28.1430   32.5950 H   0  0  0  0  0  0  0  0  0  0  0  0
   36.7950   29.3630   32.8660 H   0  0  0  0  0  0  0  0  0  0  0  0
   35.2660   29.4220   34.3410 C   0  0  0  0  0  3  0  0  0  0  0  0
   35.5130   30.8660   34.5080 C   0  0  0  0  0  2  0  0  0  0  0  0
   34.2270   30.4030   33.8510 C   0  0  0  0  0  2  0  0  0  0  0  0
  1 10  1  0  0  0  0
  1  9  1  0  0  0  0
  2  1  2  0  0  0  0
  3  2  1  0  0  0  0
  3  4  2  0  0  0  0
  4  8  1  0  0  0  0
  5  4  1  0  0  0  0
  5  6  1  0  0  0  0
  6  7  2  0  0  0  0
  8  7  1  0  0  0  0
  8  9  2  0  0  0  0
  9 14  1  0  0  0  0
 11  3  1  0  0  0  0
 12  5  1  0  0  0  0
 13  6  1  0  0  0  0
 15 16  1  0  0  0  0
 16 17  2  0  0  0  0
 16  2  1  0  0  0  0
 17 22  1  0  0  0  0
 18 17  1  0  0  0  0
 19 18  2  0  0  0  0
 20 19  1  0  0  0  0
 20 15  2  0  0  0  0
 21 15  1  0  0  0  0
 23 19  1  0  0  0  0
 23 26  1  0  0  0  0
 24 23  1  0  0  0  0
 25 23  1  0  0  0  0
 26 27  1  0  0  0  0
 28 26  1  0  0  0  0
 28 27  1  0  0  0  0
M  END
>  <minimizedAffinity>
-5.09585571

$$$$

 OpenBabel03272501453D

 28 31  0  0  0  0  0  0  0  0999 V2000
   36.5560   28.3400   30.7160 C   0  0  0  0  0  0  0  0  0  0  0  0
   36.2610   27.6570   31.8970 C   0  0  0  0  0  0  0  0  0  0  0  0
   35.9050   28.4120   33.0010 C   0  0  0  0  0  0  0  0  0  0  0  0
   35.8550   29.8060   32.8890 C   0  0  0  0  0  0  0  0  0  0  0  0
   35.5530   30.7830   33.7540 N   0  0  0  0  0  0  0  0  0  0  0  0
   35.6490   31.9690   33.1690 C   0  0  0  0  0  0  0  0  0  0  0  0
   36.0220   31.7750   31.8890 N   0  0  0  0  0  0  0  0  0  0  0  0
   36.1480   30.4530   31.7190 C   0  0  0  0  0  0  0  0  0  0  0  0
   36.5040   29.7110   30.6140 C   0  0  0  0  0  0  0  0  0  0  0  0
   36.8540   27.8760   29.7660 H   0  0  0  0  0  0  0  0  0  0  0  0
   35.6740   27.9030   33.9230 H   0  0  0  0  0  0  0  0  0  0  0  0
   35.2850   30.5500   34.7520 H   0  0  0  0  0  0  0  0  0  0  0  0
   35.4380   32.8690   33.7290 H   0  0  0  0  0  0  0  0  0  0  0  0
   36.7300   30.2610   29.6990 H   0  0  0  0  0  0  0  0  0  0  0  0
   35.3790   25.5730   31.0570 C   0  0  0  0  0  0  0  0  0  0  0  0
   36.3530   26.2170   31.8780 C   0  0  0  0  0  0  0  0  0  0  0  0
   37.2560   25.4050   32.5390 C   0  0  0  0  0  0  0  0  0  0  0  0
   37.1640   24.0610   32.3710 N   0  0  0  0  0  0  0  0  0  0  0  0
   36.2420   23.4760   31.5960 C   0  0  0  0  0  0  0  0  0  0  0  0
   35.3580   24.2390   30.9450 N   0  0  0  0  0  0  0  0  0  0  0  0
   34.5890   26.0340   30.4660 H   0  0  0  0  0  0  0  0  0  0  0  0
   37.9730   25.9140   33.1470 H   0  0  0  0  0  0  0  0  0  0  0  0
   36.2010   21.9920   31.4500 C   0  0  0  0  0  0  0  0  0  0  0  0
   37.1970   21.5780   31.7250 H   0  0  0  0  0  0  0  0  0  0  0  0
   35.9540   21.7720   30.3850 H   0  0  0  0  0  0  0  0  0  0  0  0
   35.1100   21.4340   32.3060 C   0  0  0  0  0  3  0  0  0  0  0  0
   34.7430   20.0130   32.1620 C   0  0  0  0  0  2  0  0  0  0  0  0
   35.4510   20.4740   33.4210 C   0  0  0  0  0  2  0  0  0  0  0  0
  1  2  1  0  0  0  0
  2  3  2  0  0  0  0
  3 11  1  0  0  0  0
  4  3  1  0  0  0  0
  4  5  1  0  0  0  0
  5 12  1  0  0  0  0
  6 13  1  0  0  0  0
  6  5  1  0  0  0  0
  7  6  2  0  0  0  0
  8  7  1  0  0  0  0
  8  4  2  0  0  0  0
  9  1  2  0  0  0  0
  9  8  1  0  0  0  0
 10  1  1  0  0  0  0
 14  9  1  0  0  0  0
 15 16  1  0  0  0  0
 16  2  1  0  0  0  0
 16 17  2  0  0  0  0
 17 22  1  0  0  0  0
 18 17  1  0  0  0  0
 19 18  2  0  0  0  0
 20 15  2  0  0  0  0
 20 19  1  0  0  0  0
 21 15  1  0  0  0  0
 23 19  1  0  0  0  0
 23 24  1  0  0  0  0
 23 26  1  0  0  0  0
 25 23  1  0  0  0  0
 26 28  1  0  0  0  0
 27 26  1  0  0  0  0
 27 28  1  0  0  0  0
M  END
>  <minimizedAffinity>
-5.02121305

$$$$

 OpenBabel03272501453D

 28 31  0  0  0  0  0  0  0  0999 V2000
   36.4750   27.9340   34.5420 C   0  0  0  0  0  0  0  0  0  0  0  0
   37.1870   26.9710   33.8250 C   0  0  0  0  0  0  0  0  0  0  0  0
   37.3460   27.1740   32.4660 C   0  0  0  0  0  0  0  0  0  0  0  0
   36.7970   28.3180   31.8760 C   0  0  0  0  0  0  0  0  0  0  0  0
   36.7820   28.7820   30.6190 N   0  0  0  0  0  0  0  0  0  0  0  0
   36.1230   29.9300   30.5550 C   0  0  0  0  0  0  0  0  0  0  0  0
   35.6910   30.2350   31.7940 N   0  0  0  0  0  0  0  0  0  0  0  0
   36.1030   29.2480   32.6000 C   0  0  0  0  0  0  0  0  0  0  0  0
   35.9380   29.0560   33.9540 C   0  0  0  0  0  0  0  0  0  0  0  0
   36.2680   27.9050   35.6210 H   0  0  0  0  0  0  0  0  0  0  0  0
   37.8930   26.4400   31.8940 H   0  0  0  0  0  0  0  0  0  0  0  0
   37.2590   28.2400   29.8430 H   0  0  0  0  0  0  0  0  0  0  0  0
   36.0160   30.4430   29.6080 H   0  0  0  0  0  0  0  0  0  0  0  0
   35.3800   29.8190   34.5000 H   0  0  0  0  0  0  0  0  0  0  0  0
   37.9880   24.6950   33.7470 C   0  0  0  0  0  0  0  0  0  0  0  0
   37.6990   25.8360   34.5550 C   0  0  0  0  0  0  0  0  0  0  0  0
   37.9460   25.7280   35.9110 C   0  0  0  0  0  0  0  0  0  0  0  0
   38.4430   24.5560   36.3880 N   0  0  0  0  0  0  0  0  0  0  0  0
   38.7070   23.4970   35.6130 C   0  0  0  0  0  0  0  0  0  0  0  0
   38.4770   23.5770   34.2980 N   0  0  0  0  0  0  0  0  0  0  0  0
   37.8600   24.5840   32.6710 H   0  0  0  0  0  0  0  0  0  0  0  0
   37.7210   26.5960   36.4900 H   0  0  0  0  0  0  0  0  0  0  0  0
   39.2560   22.2420   36.2020 C   0  0  0  0  0  0  0  0  0  0  0  0
   39.6370   21.5970   35.3780 H   0  0  0  0  0  0  0  0  0  0  0  0
   38.4230   21.7430   36.7510 H   0  0  0  0  0  0  0  0  0  0  0  0
   40.3280   22.5770   37.1880 C   0  0  0  0  0  3  0  0  0  0  0  0
   41.4020   21.5980   37.4390 C   0  0  0  0  0  2  0  0  0  0  0  0
   41.7240   22.8820   36.7000 C   0  0  0  0  0  2  0  0  0  0  0  0
  1 10  1  0  0  0  0
  2  1  2  0  0  0  0
  2 16  1  0  0  0  0
  3  2  1  0  0  0  0
  4  3  2  0  0  0  0
  4  8  1  0  0  0  0
  5  4  1  0  0  0  0
  6  5  1  0  0  0  0
  6  7  2  0  0  0  0
  7  8  1  0  0  0  0
  8  9  2  0  0  0  0
  9 14  1  0  0  0  0
  9  1  1  0  0  0  0
 11  3  1  0  0  0  0
 12  5  1  0  0  0  0
 13  6  1  0  0  0  0
 15 20  2  0  0  0  0
 15 16  1  0  0  0  0
 16 17  2  0  0  0  0
 17 18  1  0  0  0  0
 17 22  1  0  0  0  0
 19 23  1  0  0  0  0
 19 18  2  0  0  0  0
 20 19  1  0  0  0  0
 21 15  1  0  0  0  0
 23 25  1  0  0  0  0
 23 26  1  0  0  0  0
 24 23  1  0  0  0  0
 26 27  1  0  0  0  0
 28 26  1  0  0  0  0
 28 27  1  0  0  0  0
M  END
>  <minimizedAffinity>
-4.99143505

$$$$

 OpenBabel03272501453D

 28 31  0  0  0  0  0  0  0  0999 V2000
   35.9340   30.0130   32.3460 C   0  0  0  0  0  0  0  0  0  0  0  0
   36.0690   29.0090   33.3060 C   0  0  0  0  0  0  0  0  0  0  0  0
   35.9760   29.3790   34.6360 C   0  0  0  0  0  0  0  0  0  0  0  0
   35.7540   30.7220   34.9590 C   0  0  0  0  0  0  0  0  0  0  0  0
   35.6210   31.3750   36.1220 N   0  0  0  0  0  0  0  0  0  0  0  0
   35.4200   32.6670   35.9090 C   0  0  0  0  0  0  0  0  0  0  0  0
   35.4210   32.8780   34.5790 N   0  0  0  0  0  0  0  0  0  0  0  0
   35.6250   31.6890   33.9990 C   0  0  0  0  0  0  0  0  0  0  0  0
   35.7160   31.3320   32.6720 C   0  0  0  0  0  0  0  0  0  0  0  0
   35.9860   29.8690   31.2580 H   0  0  0  0  0  0  0  0  0  0  0  0
   36.0780   28.6170   35.3930 H   0  0  0  0  0  0  0  0  0  0  0  0
   35.6810   30.8490   37.0400 H   0  0  0  0  0  0  0  0  0  0  0  0
   35.2930   33.3410   36.7460 H   0  0  0  0  0  0  0  0  0  0  0  0
   35.6070   32.1290   31.9340 H   0  0  0  0  0  0  0  0  0  0  0  0
   35.6860   27.3600   31.5850 C   0  0  0  0  0  0  0  0  0  0  0  0
   36.2960   27.6620   32.8390 C   0  0  0  0  0  0  0  0  0  0  0  0
   37.0260   26.6560   33.4440 C   0  0  0  0  0  0  0  0  0  0  0  0
   37.1160   25.4540   32.8170 N   0  0  0  0  0  0  0  0  0  0  0  0
   36.5360   25.1910   31.6400 C   0  0  0  0  0  0  0  0  0  0  0  0
   35.8250   26.1480   31.0340 N   0  0  0  0  0  0  0  0  0  0  0  0
   35.0750   28.0120   30.9610 H   0  0  0  0  0  0  0  0  0  0  0  0
   37.4710   26.9100   34.3810 H   0  0  0  0  0  0  0  0  0  0  0  0
   36.6800   23.8500   31.0040 C   0  0  0  0  0  0  0  0  0  0  0  0
   37.7020   23.4620   31.2140 H   0  0  0  0  0  0  0  0  0  0  0  0
   36.5190   23.9860   29.9080 H   0  0  0  0  0  0  0  0  0  0  0  0
   35.6190   22.9320   31.5190 C   0  0  0  0  0  3  0  0  0  0  0  0
   35.5910   21.5340   31.0500 C   0  0  0  0  0  2  0  0  0  0  0  0
   35.9880   21.8300   32.4830 C   0  0  0  0  0  2  0  0  0  0  0  0
  1  9  2  0  0  0  0
  1  2  1  0  0  0  0
  2  3  2  0  0  0  0
  3  4  1  0  0  0  0
  3 11  1  0  0  0  0
  4  5  1  0  0  0  0
  5 12  1  0  0  0  0
  6  5  1  0  0  0  0
  6 13  1  0  0  0  0
  7  6  2  0  0  0  0
  8  7  1  0  0  0  0
  8  4  2  0  0  0  0
  9  8  1  0  0  0  0
 10  1  1  0  0  0  0
 14  9  1  0  0  0  0
 15 16  1  0  0  0  0
 16  2  1  0  0  0  0
 16 17  2  0  0  0  0
 17 22  1  0  0  0  0
 18 17  1  0  0  0  0
 19 18  2  0  0  0  0
 20 15  2  0  0  0  0
 20 19  1  0  0  0  0
 21 15  1  0  0  0  0
 23 24  1  0  0  0  0
 23 26  1  0  0  0  0
 23 19  1  0  0  0  0
 25 23  1  0  0  0  0
 26 28  1  0  0  0  0
 27 26  1  0  0  0  0
 27 28  1  0  0  0  0
M  END
>  <minimizedAffinity>
-4.92354918

$$$$

 OpenBabel03272501453D

 28 31  0  0  0  0  0  0  0  0999 V2000
   35.8970   30.9430   35.4410 C   0  0  0  0  0  0  0  0  0  0  0  0
   34.9700   30.2100   34.6990 C   0  0  0  0  0  0  0  0  0  0  0  0
   33.6290   30.4960   34.8880 C   0  0  0  0  0  0  0  0  0  0  0  0
   33.2640   31.4930   35.8000 C   0  0  0  0  0  0  0  0  0  0  0  0
   32.0820   31.9860   36.1930 N   0  0  0  0  0  0  0  0  0  0  0  0
   32.2530   32.9400   37.0960 C   0  0  0  0  0  0  0  0  0  0  0  0
   33.5750   33.0840   37.3090 N   0  0  0  0  0  0  0  0  0  0  0  0
   34.1930   32.1980   36.5170 C   0  0  0  0  0  0  0  0  0  0  0  0
   35.5300   31.9220   36.3360 C   0  0  0  0  0  0  0  0  0  0  0  0
   36.9880   30.8250   35.3970 H   0  0  0  0  0  0  0  0  0  0  0  0
   32.8970   29.9400   34.3240 H   0  0  0  0  0  0  0  0  0  0  0  0
   31.1810   31.6060   35.7840 H   0  0  0  0  0  0  0  0  0  0  0  0
   31.3960   33.4460   37.5210 H   0  0  0  0  0  0  0  0  0  0  0  0
   36.2410   32.5050   36.9230 H   0  0  0  0  0  0  0  0  0  0  0  0
   36.3900   28.2840   34.3860 C   0  0  0  0  0  0  0  0  0  0  0  0
   35.4790   29.2080   33.7930 C   0  0  0  0  0  0  0  0  0  0  0  0
   35.1890   29.0370   32.4520 C   0  0  0  0  0  0  0  0  0  0  0  0
   35.7820   28.0110   31.7870 N   0  0  0  0  0  0  0  0  0  0  0  0
   36.6350   27.1540   32.3620 C   0  0  0  0  0  0  0  0  0  0  0  0
   36.9310   27.2990   33.6580 N   0  0  0  0  0  0  0  0  0  0  0  0
   36.7430   28.2550   35.4160 H   0  0  0  0  0  0  0  0  0  0  0  0
   34.5050   29.7430   32.0350 H   0  0  0  0  0  0  0  0  0  0  0  0
   37.2470   26.0460   31.5730 C   0  0  0  0  0  0  0  0  0  0  0  0
   38.3430   26.0340   31.7650 H   0  0  0  0  0  0  0  0  0  0  0  0
   37.0290   26.2480   30.4980 H   0  0  0  0  0  0  0  0  0  0  0  0
   36.6020   24.7500   31.9440 C   0  0  0  0  0  3  0  0  0  0  0  0
   35.3570   24.3480   31.2630 C   0  0  0  0  0  2  0  0  0  0  0  0
   36.6400   23.5920   30.9760 C   0  0  0  0  0  2  0  0  0  0  0  0
  1  9  1  0  0  0  0
  2  3  1  0  0  0  0
  2  1  2  0  0  0  0
  3  4  2  0  0  0  0
  4  5  1  0  0  0  0
  4  8  1  0  0  0  0
  5  6  1  0  0  0  0
  6  7  2  0  0  0  0
  6 13  1  0  0  0  0
  8  7  1  0  0  0  0
  9  8  2  0  0  0  0
  9 14  1  0  0  0  0
 10  1  1  0  0  0  0
 11  3  1  0  0  0  0
 12  5  1  0  0  0  0
 15 21  1  0  0  0  0
 16 15  1  0  0  0  0
 16  2  1  0  0  0  0
 17 16  2  0  0  0  0
 18 19  2  0  0  0  0
 18 17  1  0  0  0  0
 19 20  1  0  0  0  0
 20 15  2  0  0  0  0
 22 17  1  0  0  0  0
 23 24  1  0  0  0  0
 23 26  1  0  0  0  0
 23 19  1  0  0  0  0
 25 23  1  0  0  0  0
 27 26  1  0  0  0  0
 28 27  1  0  0  0  0
 28 26  1  0  0  0  0
M  END
>  <minimizedAffinity>
-4.90291739

$$$$

 OpenBabel03272501453D

 28 31  0  0  0  0  0  0  0  0999 V2000
   37.9010   24.6730   36.6750 C   0  0  0  0  0  0  0  0  0  0  0  0
   38.4300   24.9540   35.4140 C   0  0  0  0  0  0  0  0  0  0  0  0
   39.5730   24.2740   35.0330 C   0  0  0  0  0  0  0  0  0  0  0  0
   40.1430   23.3470   35.9130 C   0  0  0  0  0  0  0  0  0  0  0  0
   41.2190   22.5520   35.8360 N   0  0  0  0  0  0  0  0  0  0  0  0
   41.3510   21.8390   36.9450 C   0  0  0  0  0  0  0  0  0  0  0  0
   40.3430   22.1660   37.7760 N   0  0  0  0  0  0  0  0  0  0  0  0
   39.6050   23.0880   37.1450 C   0  0  0  0  0  0  0  0  0  0  0  0
   38.4680   23.7600   37.5340 C   0  0  0  0  0  0  0  0  0  0  0  0
   37.0040   25.1350   37.1100 H   0  0  0  0  0  0  0  0  0  0  0  0
   39.9970   24.4770   34.0620 H   0  0  0  0  0  0  0  0  0  0  0  0
   41.8260   22.5580   34.9670 H   0  0  0  0  0  0  0  0  0  0  0  0
   42.1730   21.1440   37.0480 H   0  0  0  0  0  0  0  0  0  0  0  0
   38.0670   23.5280   38.5220 H   0  0  0  0  0  0  0  0  0  0  0  0
   37.5040   25.5240   33.2580 C   0  0  0  0  0  0  0  0  0  0  0  0
   37.7460   25.9340   34.6040 C   0  0  0  0  0  0  0  0  0  0  0  0
   37.3000   27.1900   34.9710 C   0  0  0  0  0  0  0  0  0  0  0  0
   36.6670   27.9500   34.0400 N   0  0  0  0  0  0  0  0  0  0  0  0
   36.4500   27.5470   32.7820 C   0  0  0  0  0  0  0  0  0  0  0  0
   36.8710   26.3370   32.4030 N   0  0  0  0  0  0  0  0  0  0  0  0
   37.7790   24.5830   32.7840 H   0  0  0  0  0  0  0  0  0  0  0  0
   37.4950   27.4710   35.9830 H   0  0  0  0  0  0  0  0  0  0  0  0
   35.7420   28.4320   31.8110 C   0  0  0  0  0  0  0  0  0  0  0  0
   34.8530   27.8910   31.4170 H   0  0  0  0  0  0  0  0  0  0  0  0
   36.4640   28.6670   30.9940 H   0  0  0  0  0  0  0  0  0  0  0  0
   35.3640   29.7130   32.4820 C   0  0  0  0  0  3  0  0  0  0  0  0
   36.0120   30.9650   32.0520 C   0  0  0  0  0  2  0  0  0  0  0  0
   34.5480   30.7370   31.7300 C   0  0  0  0  0  2  0  0  0  0  0  0
  1 10  1  0  0  0  0
  1  9  1  0  0  0  0
  2  1  2  0  0  0  0
  3  2  1  0  0  0  0
  3  4  2  0  0  0  0
  4  8  1  0  0  0  0
  5  4  1  0  0  0  0
  5  6  1  0  0  0  0
  6 13  1  0  0  0  0
  6  7  2  0  0  0  0
  8  9  2  0  0  0  0
  8  7  1  0  0  0  0
  9 14  1  0  0  0  0
 11  3  1  0  0  0  0
 12  5  1  0  0  0  0
 15 16  1  0  0  0  0
 16 17  2  0  0  0  0
 16  2  1  0  0  0  0
 17 22  1  0  0  0  0
 18 17  1  0  0  0  0
 19 18  2  0  0  0  0
 20 19  1  0  0  0  0
 20 15  2  0  0  0  0
 21 15  1  0  0  0  0
 23 26  1  0  0  0  0
 23 19  1  0  0  0  0
 24 23  1  0  0  0  0
 25 23  1  0  0  0  0
 27 26  1  0  0  0  0
 28 27  1  0  0  0  0
 28 26  1  0  0  0  0
M  END
>  <minimizedAffinity>
-4.82119656

$$$$

 OpenBabel03272501453D

 28 31  0  0  0  0  0  0  0  0999 V2000
   37.6950   21.9270   32.0870 C   0  0  0  0  0  0  0  0  0  0  0  0
   36.4470   22.5430   31.9780 C   0  0  0  0  0  0  0  0  0  0  0  0
   35.3330   21.7240   31.9230 C   0  0  0  0  0  0  0  0  0  0  0  0
   35.4990   20.3360   31.9780 C   0  0  0  0  0  0  0  0  0  0  0  0
   34.6390   19.3090   31.9470 N   0  0  0  0  0  0  0  0  0  0  0  0
   35.2890   18.1560   32.0300 C   0  0  0  0  0  0  0  0  0  0  0  0
   36.6060   18.4230   32.1170 N   0  0  0  0  0  0  0  0  0  0  0  0
   36.7340   19.7550   32.0840 C   0  0  0  0  0  0  0  0  0  0  0  0
   37.8500   20.5600   32.1400 C   0  0  0  0  0  0  0  0  0  0  0  0
   38.6620   22.4450   32.1380 H   0  0  0  0  0  0  0  0  0  0  0  0
   34.3590   22.1810   31.8390 H   0  0  0  0  0  0  0  0  0  0  0  0
   33.5980   19.4850   31.8670 H   0  0  0  0  0  0  0  0  0  0  0  0
   34.7420   17.2230   32.0190 H   0  0  0  0  0  0  0  0  0  0  0  0
   38.8180   20.0630   32.2250 H   0  0  0  0  0  0  0  0  0  0  0  0
   35.3580   24.5260   31.1360 C   0  0  0  0  0  0  0  0  0  0  0  0
   36.4140   23.9850   31.9300 C   0  0  0  0  0  0  0  0  0  0  0  0
   37.2590   24.8840   32.5530 C   0  0  0  0  0  0  0  0  0  0  0  0
   37.0370   26.2120   32.3740 N   0  0  0  0  0  0  0  0  0  0  0  0
   36.0410   26.7000   31.6250 C   0  0  0  0  0  0  0  0  0  0  0  0
   35.2100   25.8500   31.0120 N   0  0  0  0  0  0  0  0  0  0  0  0
   34.6000   23.9860   30.5700 H   0  0  0  0  0  0  0  0  0  0  0  0
   38.0400   24.4520   33.1390 H   0  0  0  0  0  0  0  0  0  0  0  0
   35.8510   28.1710   31.4760 C   0  0  0  0  0  0  0  0  0  0  0  0
   35.6270   28.6060   32.4760 H   0  0  0  0  0  0  0  0  0  0  0  0
   34.9990   28.3240   30.7710 H   0  0  0  0  0  0  0  0  0  0  0  0
   37.0740   28.7770   30.8660 C   0  0  0  0  0  3  0  0  0  0  0  0
   37.2910   28.6440   29.4130 C   0  0  0  0  0  2  0  0  0  0  0  0
   36.9460   30.0020   29.9930 C   0  0  0  0  0  2  0  0  0  0  0  0
  1 10  1  0  0  0  0
  1  9  1  0  0  0  0
  2  1  2  0  0  0  0
  3  2  1  0  0  0  0
  3  4  2  0  0  0  0
  4  8  1  0  0  0  0
  5  4  1  0  0  0  0
  5  6  1  0  0  0  0
  6  7  2  0  0  0  0
  8  7  1  0  0  0  0
  8  9  2  0  0  0  0
  9 14  1  0  0  0  0
 11  3  1  0  0  0  0
 12  5  1  0  0  0  0
 13  6  1  0  0  0  0
 15 16  1  0  0  0  0
 16  2  1  0  0  0  0
 16 17  2  0  0  0  0
 17 22  1  0  0  0  0
 18 17  1  0  0  0  0
 19 18  2  0  0  0  0
 20 15  2  0  0  0  0
 20 19  1  0  0  0  0
 21 15  1  0  0  0  0
 23 19  1  0  0  0  0
 23 24  1  0  0  0  0
 25 23  1  0  0  0  0
 26 23  1  0  0  0  0
 27 28  1  0  0  0  0
 27 26  1  0  0  0  0
 28 26  1  0  0  0  0
M  END
>  <minimizedAffinity>
-4.7885623

$$$$
