
 OpenBabel03272508573D

 34 37  0  0  1  0  0  0  0  0999 V2000
   38.3990   31.8250   44.6060 C   0  0  0  0  0  0  0  0  0  0  0  0
   37.3640   32.5330   44.4950 O   0  0  0  0  0  0  0  0  0  0  0  0
   38.8640   31.3840   45.8950 N   0  0  0  0  0  0  0  0  0  0  0  0
   39.8060   30.9670   46.0640 H   0  0  0  0  0  0  0  0  0  0  0  0
   39.1630   31.4280   43.4160 C   0  0  0  0  0  0  0  0  0  0  0  0
   40.1490   30.4890   43.5510 C   0  0  0  0  0  0  0  0  0  0  0  0
   40.8620   30.0900   42.4340 C   0  0  0  0  0  0  0  0  0  0  0  0
   40.5330   30.6680   41.2470 C   0  0  0  0  0  0  0  0  0  0  0  0
   39.5400   31.6230   41.0820 C   0  0  0  0  0  0  0  0  0  0  0  0
   38.8790   31.9700   42.2130 N   0  0  0  0  0  0  0  0  0  0  0  0
   40.4280   30.0130   44.4990 H   0  0  0  0  0  0  0  0  0  0  0  0
   41.6510   29.3600   42.4480 H   0  0  0  0  0  0  0  0  0  0  0  0
   41.0630   30.3900   40.3350 H   0  0  0  0  0  0  0  0  0  0  0  0
   39.2540   32.2150   39.7710 C   0  0  0  0  0  0  0  0  0  0  0  0
   39.5130   31.5040   38.7440 O   0  0  0  0  0  0  0  0  0  0  0  0
   38.6830   33.5990   39.7810 C   0  0  0  0  0  3  0  0  0  0  0  0
   37.1730   33.6020   39.4630 C   0  0  0  0  0  2  0  0  0  0  0  0
   38.1350   34.1580   38.5020 C   0  0  0  0  0  2  0  0  0  0  0  0
   38.1090   30.6980   48.1630 C   0  0  2  0  0  0  0  0  0  0  0  0
   38.6710   32.0620   48.2940 C   0  0  0  0  0  0  0  0  0  0  0  0
   37.9640   31.5330   47.0150 C   0  0  1  0  0  0  0  0  0  0  0  0
   38.8970   29.9010   48.1890 H   0  0  0  0  0  0  0  0  0  0  0  0
   38.0840   32.7830   48.9080 H   0  0  0  0  0  0  0  0  0  0  0  0
   39.7510   32.2190   48.2500 H   0  0  0  0  0  0  0  0  0  0  0  0
   36.9770   32.0490   46.8160 H   0  0  0  0  0  0  0  0  0  0  0  0
   34.5770   29.9980   49.0140 C   0  0  0  0  0  0  0  0  0  0  0  0
   34.6920   29.4820   50.3370 C   0  0  0  0  0  0  0  0  0  0  0  0
   36.0090   29.3930   50.9290 C   0  0  0  0  0  0  0  0  0  0  0  0
   37.0930   29.8050   50.1980 N   0  0  0  0  0  0  0  0  0  0  0  0
   36.8970   30.2860   48.9370 C   0  0  0  0  0  0  0  0  0  0  0  0
   35.6600   30.3970   48.3140 N   0  0  0  0  0  0  0  0  0  0  0  0
   33.5710   30.0420   48.6200 H   0  0  0  0  0  0  0  0  0  0  0  0
   33.8230   29.1760   50.8620 H   0  0  0  0  0  0  0  0  0  0  0  0
   36.0870   29.0050   51.9240 H   0  0  0  0  0  0  0  0  0  0  0  0
  1  3  1  0  0  0  0
  2  1  2  0  0  0  0
  3  4  1  0  0  0  0
  3 21  1  0  0  0  0
  5  6  1  0  0  0  0
  5  1  1  0  0  0  0
  6 11  1  0  0  0  0
  7 12  1  0  0  0  0
  7  6  2  0  0  0  0
  8  7  1  0  0  0  0
  9  8  2  0  0  0  0
  9 10  1  0  0  0  0
 10  5  2  0  0  0  0
 13  8  1  0  0  0  0
 14 16  1  0  0  0  0
 14  9  1  0  0  0  0
 15 14  2  0  0  0  0
 17 16  1  0  0  0  0
 18 17  1  0  0  0  0
 18 16  1  0  0  0  0
 19 22  1  6  0  0  0
 19 20  1  0  0  0  0
 19 30  1  0  0  0  0
 20 23  1  0  0  0  0
 21 25  1  6  0  0  0
 21 19  1  0  0  0  0
 21 20  1  0  0  0  0
 24 20  1  0  0  0  0
 26 27  1  0  0  0  0
 27 33  1  0  0  0  0
 27 28  2  0  0  0  0
 28 34  1  0  0  0  0
 29 28  1  0  0  0  0
 30 29  2  0  0  0  0
 31 30  1  0  0  0  0
 31 26  2  0  0  0  0
 32 26  1  0  0  0  0
M  END
>  <minimizedAffinity>
-4.98699951

>  <minimizedRMSD>
1.53715003

$$$$
