
 OpenBabel03262521313D

 37 40  0  0  1  0  0  0  0  0999 V2000
   38.2550   30.9980   47.5070 C   0  0  1  0  0  0  0  0  0  0  0  0
   37.2380   29.8870   47.6950 C   0  0  2  0  0  0  0  0  0  0  0  0
   36.1560   30.2250   46.8650 O   0  0  0  0  0  0  0  0  0  0  0  0
   36.8050   30.7560   45.7730 C   0  0  0  0  0  0  0  0  0  0  0  0
   37.6270   31.8990   46.5780 C   0  0  2  0  0  0  0  0  0  0  0  0
   39.1220   30.4890   46.9220 H   0  0  0  0  0  0  0  0  0  0  0  0
   37.6310   28.9230   47.3390 H   0  0  0  0  0  0  0  0  0  0  0  0
   37.3830   30.0200   45.3390 H   0  0  0  0  0  0  0  0  0  0  0  0
   36.1460   31.3000   45.1390 H   0  0  0  0  0  0  0  0  0  0  0  0
   36.7290   32.4520   46.6820 H   0  0  0  0  0  0  0  0  0  0  0  0
   37.1660   29.5230   51.4320 C   0  0  0  0  0  0  0  0  0  0  0  0
   37.7240   29.6780   50.1250 C   0  0  0  0  0  0  0  0  0  0  0  0
   36.7740   29.7260   49.0790 C   0  0  0  0  0  0  0  0  0  0  0  0
   35.4090   29.6260   49.3460 N   0  0  0  0  0  0  0  0  0  0  0  0
   34.9750   29.4810   50.6100 C   0  0  0  0  0  0  0  0  0  0  0  0
   35.8350   29.4300   51.6410 N   0  0  0  0  0  0  0  0  0  0  0  0
   37.8890   29.4860   52.2360 H   0  0  0  0  0  0  0  0  0  0  0  0
   38.7740   29.7340   50.0150 H   0  0  0  0  0  0  0  0  0  0  0  0
   33.9320   29.3990   50.8700 H   0  0  0  0  0  0  0  0  0  0  0  0
   38.8190   31.4610   48.6230 O   0  0  0  0  0  0  0  0  0  0  0  0
   38.7970   32.4390   48.6820 H   0  0  0  0  0  0  0  0  0  0  0  0
   38.5390   32.4740   45.7520 O   0  0  0  0  0  0  0  0  0  0  0  0
   39.3300   31.3310   43.7910 C   0  0  1  0  0  0  0  0  0  0  0  0
   39.4980   31.8060   45.1870 C   0  0  1  0  0  0  0  0  0  0  0  0
   40.6280   32.8480   45.0070 C   0  0  0  0  0  0  0  0  0  0  0  0
   40.2170   33.4990   43.8300 O   0  0  0  0  0  0  0  0  0  0  0  0
   39.6610   32.5500   42.9810 C   0  0  0  0  0  0  0  0  0  0  0  0
   38.2960   31.0030   43.6110 H   0  0  0  0  0  0  0  0  0  0  0  0
   40.0080   31.0160   45.7850 H   0  0  0  0  0  0  0  0  0  0  0  0
   41.5880   32.3210   44.8390 H   0  0  0  0  0  0  0  0  0  0  0  0
   40.6370   33.5070   45.8680 H   0  0  0  0  0  0  0  0  0  0  0  0
   40.3200   32.2870   42.1350 H   0  0  0  0  0  0  0  0  0  0  0  0
   38.7400   33.0130   42.5310 H   0  0  0  0  0  0  0  0  0  0  0  0
   40.2040   30.3130   43.5370 O   0  0  0  0  0  0  0  0  0  0  0  0
   40.3450   29.8520   42.2740 C   0  0  0  0  0  0  0  0  0  0  0  0
   41.6220   29.0990   41.9030 C   0  0  0  0  0  0  0  0  0  0  0  0
   40.3820   28.3100   42.1950 C   0  0  0  0  0  0  0  0  0  0  0  0
  1  6  1  6  0  0  0
  1  2  1  0  0  0  0
  1 20  1  0  0  0  0
  2  7  1  6  0  0  0
  2 13  1  0  0  0  0
  3  2  1  0  0  0  0
  4  5  1  0  0  0  0
  4  3  1  0  0  0  0
  5 10  1  1  0  0  0
  5  1  1  0  0  0  0
  8  4  1  0  0  0  0
  9  4  1  0  0  0  0
 11 16  1  0  0  0  0
 11 17  1  0  0  0  0
 12 11  2  0  0  0  0
 13 14  2  0  0  0  0
 13 12  1  0  0  0  0
 14 15  1  0  0  0  0
 15 19  1  0  0  0  0
 15 16  2  0  0  0  0
 18 12  1  0  0  0  0
 20 21  1  0  0  0  0
 22  5  1  0  0  0  0
 23 28  1  6  0  0  0
 23 24  1  0  0  0  0
 24 22  1  0  0  0  0
 24 29  1  1  0  0  0
 25 24  1  0  0  0  0
 25 31  1  0  0  0  0
 26 25  1  0  0  0  0
 27 23  1  0  0  0  0
 27 26  1  0  0  0  0
 30 25  1  0  0  0  0
 32 27  1  0  0  0  0
 33 27  1  0  0  0  0
 34 23  1  0  0  0  0
 35 34  1  0  0  0  0
 36 37  1  0  0  0  0
 36 35  1  0  0  0  0
 37 35  1  0  0  0  0
M  END
>  <minimizedAffinity>
-5.06715679

>  <minimizedRMSD>
1.9229399

$$$$
