
 OpenBabel03272510313D

 26 28  0  0  0  0  0  0  0  0999 V2000
   37.4230   31.1770   49.3590 C   0  0  0  0  0  0  0  0  0  0  0  0
   38.3780   32.1760   49.4270 C   0  0  0  0  0  0  0  0  0  0  0  0
   38.7880   32.6660   48.1970 C   0  0  0  0  0  0  0  0  0  0  0  0
   38.2700   32.1780   47.0400 N   0  0  0  0  0  0  0  0  0  0  0  0
   37.3390   31.2030   47.0180 C   0  0  0  0  0  0  0  0  0  0  0  0
   36.9100   30.6920   48.2110 N   0  0  0  0  0  0  0  0  0  0  0  0
   38.7370   32.5060   50.3900 H   0  0  0  0  0  0  0  0  0  0  0  0
   39.5370   33.4520   48.2000 H   0  0  0  0  0  0  0  0  0  0  0  0
   36.9090   30.6180   50.6620 C   0  0  0  0  0  0  0  0  0  0  0  0
   36.0040   29.5200   50.7300 C   0  0  0  0  0  0  0  0  0  0  0  0
   37.4800   29.2090   50.9450 C   0  0  0  0  0  0  0  0  0  0  0  0
   37.0250   31.3250   51.5250 H   0  0  0  0  0  0  0  0  0  0  0  0
   35.3910   29.3750   51.6270 H   0  0  0  0  0  0  0  0  0  0  0  0
   35.5990   29.0350   49.8080 H   0  0  0  0  0  0  0  0  0  0  0  0
   37.8300   29.0530   51.9650 H   0  0  0  0  0  0  0  0  0  0  0  0
   38.0380   28.7080   50.1550 H   0  0  0  0  0  0  0  0  0  0  0  0
   36.7660   30.6770   45.7860 C   0  0  0  0  0  0  0  0  0  0  0  0
   36.1920   31.4160   45.2170 H   0  0  0  0  0  0  0  0  0  0  0  0
   36.1560   29.7840   45.9810 H   0  0  0  0  0  0  0  0  0  0  0  0
   38.0980   30.8130   43.6770 C   0  0  0  0  0  0  0  0  0  0  0  0
   37.3550   31.7150   43.1550 O   0  0  0  0  0  0  0  0  0  0  0  0
   37.8710   30.2370   44.9520 N   0  0  0  0  0  0  0  0  0  0  0  0
   38.4940   29.4810   45.3240 H   0  0  0  0  0  0  0  0  0  0  0  0
   39.2570   30.3720   42.8570 C   0  0  0  0  0  3  0  0  0  0  0  0
   40.0630   31.3750   42.0910 C   0  0  0  0  0  2  0  0  0  0  0  0
   40.6500   30.7400   43.2950 C   0  0  0  0  0  2  0  0  0  0  0  0
  1  2  1  0  0  0  0
  1  9  1  0  0  0  0
  2  7  1  0  0  0  0
  3  8  1  0  0  0  0
  3  2  2  0  0  0  0
  4  3  1  0  0  0  0
  5  4  2  0  0  0  0
  5  6  1  0  0  0  0
  6  1  2  0  0  0  0
  9 10  1  0  0  0  0
  9 11  1  0  0  0  0
  9 12  1  0  0  0  0
 10 11  1  0  0  0  0
 10 13  1  0  0  0  0
 11 15  1  0  0  0  0
 14 10  1  0  0  0  0
 16 11  1  0  0  0  0
 17 19  1  0  0  0  0
 17  5  1  0  0  0  0
 18 17  1  0  0  0  0
 20 22  1  0  0  0  0
 21 20  2  0  0  0  0
 22 23  1  0  0  0  0
 22 17  1  0  0  0  0
 24 26  1  0  0  0  0
 24 20  1  0  0  0  0
 25 24  1  0  0  0  0
 25 26  1  0  0  0  0
M  END
>  <minimizedAffinity>
-4.63398123

>  <minimizedRMSD>
2.47097301

$$$$
