
 OpenBabel03262521513D

 16 17  0  0  0  0  0  0  0  0999 V2000
   37.8420   30.6160   49.2970 C   0  0  0  0  0  0  0  0  0  0  0  0
   38.2400   31.8660   49.7810 C   0  0  0  0  0  0  0  0  0  0  0  0
   38.6750   32.7970   48.8080 C   0  0  0  0  0  0  0  0  0  0  0  0
   38.6840   32.4480   47.4990 N   0  0  0  0  0  0  0  0  0  0  0  0
   38.2860   31.2260   47.1030 C   0  0  0  0  0  0  0  0  0  0  0  0
   37.8750   30.3410   48.0020 N   0  0  0  0  0  0  0  0  0  0  0  0
   38.2660   32.2250   50.7890 H   0  0  0  0  0  0  0  0  0  0  0  0
   39.0020   33.7980   49.1270 H   0  0  0  0  0  0  0  0  0  0  0  0
   38.2940   30.9550   46.0650 H   0  0  0  0  0  0  0  0  0  0  0  0
   37.3190   29.5350   50.6250 S   0  0  0  0  0  0  0  0  0  0  0  0
   35.5260   29.3880   50.5060 C   0  0  0  0  0  0  0  0  0  0  0  0
   35.1840   28.9970   51.4890 H   0  0  0  0  0  0  0  0  0  0  0  0
   35.0310   30.3750   50.3690 H   0  0  0  0  0  0  0  0  0  0  0  0
   35.0900   28.4510   49.4300 C   0  0  0  0  0  0  0  0  0  0  0  0
   33.6340   28.2840   49.1270 C   0  0  0  0  0  0  0  0  0  0  0  0
   34.4700   29.1050   48.2130 C   0  0  0  0  0  0  0  0  0  0  0  0
  1  2  1  0  0  0  0
  1 10  1  0  0  0  0
  2  7  1  0  0  0  0
  3  8  1  0  0  0  0
  3  2  2  0  0  0  0
  4  3  1  0  0  0  0
  5  4  2  0  0  0  0
  5  6  1  0  0  0  0
  6  1  2  0  0  0  0
  9  5  1  0  0  0  0
 11 10  1  0  0  0  0
 11 12  1  0  0  0  0
 13 11  1  0  0  0  0
 14 11  1  0  0  0  0
 15 14  1  0  0  0  0
 16 15  1  0  0  0  0
 16 14  1  0  0  0  0
M  END
>  <minimizedAffinity>
-4.08456898

>  <minimizedRMSD>
1.90214896

$$$$
