
 OpenBabel03272509453D

 13 14  0  0  0  0  0  0  0  0999 V2000
   37.8390   30.5700   50.8170 C   0  0  0  0  0  0  0  0  0  0  0  0
   37.9150   31.4850   49.7640 C   0  0  0  0  0  0  0  0  0  0  0  0
   37.0830   31.2810   48.6520 C   0  0  0  0  0  0  0  0  0  0  0  0
   36.2370   30.1910   48.6550 N   0  0  0  0  0  0  0  0  0  0  0  0
   36.2060   29.3300   49.7100 C   0  0  0  0  0  0  0  0  0  0  0  0
   37.0060   29.5300   50.7760 N   0  0  0  0  0  0  0  0  0  0  0  0
   38.4850   30.7380   51.6650 H   0  0  0  0  0  0  0  0  0  0  0  0
   38.5710   32.3490   49.7370 H   0  0  0  0  0  0  0  0  0  0  0  0
   37.1020   31.9530   47.8200 H   0  0  0  0  0  0  0  0  0  0  0  0
   35.2970   28.3080   49.5210 O   0  0  0  0  0  0  0  0  0  0  0  0
   34.3250   28.4570   48.5020 C   0  0  0  0  0  3  0  0  0  0  0  0
   32.9330   28.0030   48.7260 C   0  0  0  0  0  2  0  0  0  0  0  0
   33.8500   27.1150   47.9530 C   0  0  0  0  0  2  0  0  0  0  0  0
  1  7  1  0  0  0  0
  2  1  2  0  0  0  0
  3  4  2  0  0  0  0
  3  2  1  0  0  0  0
  4  5  1  0  0  0  0
  5  6  2  0  0  0  0
  6  1  1  0  0  0  0
  8  2  1  0  0  0  0
  9  3  1  0  0  0  0
 10  5  1  0  0  0  0
 11 12  1  0  0  0  0
 11 10  1  0  0  0  0
 13 11  1  0  0  0  0
 13 12  1  0  0  0  0
M  END
>  <minimizedAffinity>
-3.48911071

>  <minimizedRMSD>
1.7274586

$$$$
