
 OpenBabel03272504203D

 21 22  0  0  0  0  0  0  0  0999 V2000
   35.3650   29.7250   50.2370 C   0  0  0  0  0  0  0  0  0  0  0  0
   34.7890   29.8270   51.1960 H   0  0  0  0  0  0  0  0  0  0  0  0
   36.0320   28.8460   50.3790 H   0  0  0  0  0  0  0  0  0  0  0  0
   34.4560   29.3630   49.1220 C   0  0  0  0  0  0  0  0  0  0  0  0
   34.4300   30.1720   47.9950 C   0  0  0  0  0  0  0  0  0  0  0  0
   33.5810   29.8400   46.9470 C   0  0  0  0  0  0  0  0  0  0  0  0
   32.8090   28.7320   47.0720 N   0  0  0  0  0  0  0  0  0  0  0  0
   32.8460   27.9520   48.1790 C   0  0  0  0  0  0  0  0  0  0  0  0
   33.6690   28.2680   49.2040 N   0  0  0  0  0  0  0  0  0  0  0  0
   35.0530   31.0660   47.8940 H   0  0  0  0  0  0  0  0  0  0  0  0
   33.5550   30.4720   46.0560 H   0  0  0  0  0  0  0  0  0  0  0  0
   32.2060   27.0680   48.2360 H   0  0  0  0  0  0  0  0  0  0  0  0
   36.0580   30.9020   49.9970 O   0  0  0  0  0  0  0  0  0  0  0  0
   37.9230   30.0730   48.3430 O   0  0  0  0  0  0  0  0  0  0  0  0
   37.6820   30.4940   49.7630 P   0  0  2  0  0  0  0  0  0  0  0  0
   38.0650   29.1700   50.7650 O   0  0  0  0  0  0  0  0  0  0  0  0
   38.7580   28.5820   50.3700 H   0  0  0  0  0  0  0  0  0  0  0  0
   38.6840   31.8170   50.1220 O   0  0  0  0  0  0  0  0  0  0  0  0
   38.3340   32.8700   49.2970 C   0  0  0  0  0  3  0  0  0  0  0  0
   39.3240   34.0460   49.4050 C   0  0  0  0  0  2  0  0  0  0  0  0
   39.1220   33.2660   48.1130 C   0  0  0  0  0  2  0  0  0  0  0  0
  1  3  1  0  0  0  0
  1  2  1  0  0  0  0
  4  9  1  0  0  0  0
  4  1  1  0  0  0  0
  5  4  2  0  0  0  0
  6  7  2  0  0  0  0
  6  5  1  0  0  0  0
  7  8  1  0  0  0  0
  8 12  1  0  0  0  0
  8  9  2  0  0  0  0
 10  5  1  0  0  0  0
 11  6  1  0  0  0  0
 13  1  1  0  0  0  0
 15 14  2  6  0  0  0
 15 13  1  0  0  0  0
 15 18  1  0  0  0  0
 15 16  1  0  0  0  0
 17 16  1  0  0  0  0
 19 20  1  0  0  0  0
 19 18  1  0  0  0  0
 21 19  1  0  0  0  0
 21 20  1  0  0  0  0
M  END
>  <minimizedAffinity>
-4.45805311

>  <minimizedRMSD>
1.34638572

$$$$
