
 OpenBabel03272501293D

 14 15  0  0  0  0  0  0  0  0999 V2000
   37.3070   29.9640   51.2460 C   0  0  0  0  0  0  0  0  0  0  0  0
   38.1000   30.8750   50.5340 C   0  0  0  0  0  0  0  0  0  0  0  0
   37.5660   31.4320   49.3820 C   0  0  0  0  0  0  0  0  0  0  0  0
   36.3160   31.0770   48.9940 N   0  0  0  0  0  0  0  0  0  0  0  0
   35.5830   30.1930   49.7120 C   0  0  0  0  0  0  0  0  0  0  0  0
   36.0560   29.6330   50.8260 N   0  0  0  0  0  0  0  0  0  0  0  0
   37.7490   29.5510   52.1340 H   0  0  0  0  0  0  0  0  0  0  0  0
   39.1030   31.1340   50.8820 H   0  0  0  0  0  0  0  0  0  0  0  0
   34.5690   29.8930   49.4130 H   0  0  0  0  0  0  0  0  0  0  0  0
   38.3220   32.3850   48.5860 C   0  0  0  0  0  0  0  0  0  0  0  0
   38.9780   33.3420   49.0960 O   0  0  0  0  0  0  0  0  0  0  0  0
   38.3730   32.2960   47.1190 C   0  0  0  0  0  0  0  0  0  0  0  0
   39.3120   31.1720   46.6240 C   0  0  0  0  0  0  0  0  0  0  0  0
   39.5830   32.6280   46.3440 C   0  0  0  0  0  0  0  0  0  0  0  0
  1  7  1  0  0  0  0
  2  8  1  0  0  0  0
  2  1  2  0  0  0  0
  3  2  1  0  0  0  0
  4  3  2  0  0  0  0
  4  5  1  0  0  0  0
  5  6  2  0  0  0  0
  6  1  1  0  0  0  0
  9  5  1  0  0  0  0
 10 11  2  0  0  0  0
 10  3  1  0  0  0  0
 12 10  1  0  0  0  0
 13 12  1  0  0  0  0
 14 13  1  0  0  0  0
 14 12  1  0  0  0  0
M  END
>  <minimizedAffinity>
-4.3312993

>  <minimizedRMSD>
1.9200995

$$$$
