
 OpenBabel03272504183D

 20 21  0  0  0  0  0  0  0  0999 V2000
   35.9440   30.7310   49.3340 C   0  0  0  0  0  0  0  0  0  0  0  0
   36.2000   29.9580   50.4740 C   0  0  0  0  0  0  0  0  0  0  0  0
   37.4460   30.0510   51.0620 C   0  0  0  0  0  0  0  0  0  0  0  0
   38.3790   30.8760   50.5300 N   0  0  0  0  0  0  0  0  0  0  0  0
   38.1070   31.6150   49.4230 C   0  0  0  0  0  0  0  0  0  0  0  0
   36.8810   31.5370   48.8270 N   0  0  0  0  0  0  0  0  0  0  0  0
   37.5860   29.4340   51.9370 H   0  0  0  0  0  0  0  0  0  0  0  0
   38.8880   32.2400   49.0620 H   0  0  0  0  0  0  0  0  0  0  0  0
   35.1080   29.1560   50.8870 N   0  0  0  0  0  0  0  0  0  0  0  0
   35.2600   28.1210   50.8790 H   0  0  0  0  0  0  0  0  0  0  0  0
   34.1620   29.4910   51.2000 H   0  0  0  0  0  0  0  0  0  0  0  0
   34.7670   30.7730   48.6120 O   0  0  0  0  0  0  0  0  0  0  0  0
   35.4920   29.9040   46.1910 O   0  0  0  0  0  0  0  0  0  0  0  0
   34.4730   29.7140   47.2710 P   0  0  1  0  0  0  0  0  0  0  0  0
   34.4920   28.1530   47.8820 O   0  0  0  0  0  0  0  0  0  0  0  0
   34.0470   28.1620   48.7520 H   0  0  0  0  0  0  0  0  0  0  0  0
   32.9660   30.1120   46.5830 O   0  0  0  0  0  0  0  0  0  0  0  0
   32.1600   28.9690   46.5680 C   0  0  0  0  0  0  0  0  0  0  0  0
   31.6400   28.4960   45.2590 C   0  0  0  0  0  0  0  0  0  0  0  0
   30.7210   29.2910   46.1620 C   0  0  0  0  0  0  0  0  0  0  0  0
  1  2  1  0  0  0  0
  2  9  1  0  0  0  0
  2  3  2  0  0  0  0
  3  7  1  0  0  0  0
  4  3  1  0  0  0  0
  5  4  2  0  0  0  0
  6  1  2  0  0  0  0
  6  5  1  0  0  0  0
  8  5  1  0  0  0  0
  9 11  1  0  0  0  0
 10  9  1  0  0  0  0
 12  1  1  0  0  0  0
 14 13  2  6  0  0  0
 14 15  1  0  0  0  0
 14 12  1  0  0  0  0
 15 16  1  0  0  0  0
 17 14  1  0  0  0  0
 18 17  1  0  0  0  0
 19 20  1  0  0  0  0
 19 18  1  0  0  0  0
 20 18  1  0  0  0  0
M  END
>  <minimizedAffinity>
-3.60399532

>  <minimizedRMSD>
0.898235977

$$$$
