
 OpenBabel03272508573D

 34 37  0  0  1  0  0  0  0  0999 V2000
   37.9630   31.6370   45.1140 C   0  0  0  0  0  0  0  0  0  0  0  0
   36.9380   30.9280   45.2920 O   0  0  0  0  0  0  0  0  0  0  0  0
   38.4510   32.5120   46.1470 N   0  0  0  0  0  0  0  0  0  0  0  0
   39.1670   33.2550   45.9920 H   0  0  0  0  0  0  0  0  0  0  0  0
   38.6910   31.5900   43.8390 C   0  0  0  0  0  0  0  0  0  0  0  0
   39.7760   30.7640   43.7310 C   0  0  0  0  0  0  0  0  0  0  0  0
   40.4590   30.6940   42.5300 C   0  0  0  0  0  0  0  0  0  0  0  0
   40.0000   31.4680   41.5080 C   0  0  0  0  0  0  0  0  0  0  0  0
   38.9050   32.3150   41.5890 C   0  0  0  0  0  0  0  0  0  0  0  0
   38.2800   32.3370   42.7930 N   0  0  0  0  0  0  0  0  0  0  0  0
   40.1610   30.1340   44.5440 H   0  0  0  0  0  0  0  0  0  0  0  0
   41.3190   30.0730   42.3570 H   0  0  0  0  0  0  0  0  0  0  0  0
   40.5000   31.4500   40.5390 H   0  0  0  0  0  0  0  0  0  0  0  0
   38.4790   33.1330   40.4490 C   0  0  0  0  0  0  0  0  0  0  0  0
   38.0040   34.2880   40.7070 O   0  0  0  0  0  0  0  0  0  0  0  0
   38.6520   32.5170   39.0940 C   0  0  0  0  0  0  0  0  0  0  0  0
   39.5710   33.3630   38.1880 C   0  0  0  0  0  0  0  0  0  0  0  0
   38.1350   33.2580   37.8990 C   0  0  0  0  0  0  0  0  0  0  0  0
   38.5390   31.4490   48.3940 C   0  0  2  0  0  0  0  0  0  0  0  0
   38.8500   32.8840   48.5880 C   0  0  0  0  0  0  0  0  0  0  0  0
   37.9090   32.3410   47.4760 C   0  0  1  0  0  0  0  0  0  0  0  0
   39.4340   30.8510   48.0800 H   0  0  0  0  0  0  0  0  0  0  0  0
   38.3460   33.3880   49.4440 H   0  0  0  0  0  0  0  0  0  0  0  0
   39.8200   33.2830   48.2830 H   0  0  0  0  0  0  0  0  0  0  0  0
   36.8300   32.6400   47.6320 H   0  0  0  0  0  0  0  0  0  0  0  0
   35.9370   29.2280   49.8040 C   0  0  0  0  0  0  0  0  0  0  0  0
   36.2260   29.2890   51.1980 C   0  0  0  0  0  0  0  0  0  0  0  0
   37.3260   30.1200   51.6380 C   0  0  0  0  0  0  0  0  0  0  0  0
   38.0480   30.8120   50.7010 N   0  0  0  0  0  0  0  0  0  0  0  0
   37.7080   30.6990   49.3860 C   0  0  0  0  0  0  0  0  0  0  0  0
   36.6640   29.9200   48.9020 N   0  0  0  0  0  0  0  0  0  0  0  0
   35.1060   28.5930   49.5310 H   0  0  0  0  0  0  0  0  0  0  0  0
   35.6380   28.7340   51.8840 H   0  0  0  0  0  0  0  0  0  0  0  0
   37.5360   30.1600   52.6880 H   0  0  0  0  0  0  0  0  0  0  0  0
  1  2  2  0  0  0  0
  1  3  1  0  0  0  0
  3 21  1  0  0  0  0
  4  3  1  0  0  0  0
  5  1  1  0  0  0  0
  6  5  1  0  0  0  0
  6 11  1  0  0  0  0
  7  6  2  0  0  0  0
  8  9  2  0  0  0  0
  8  7  1  0  0  0  0
  9 10  1  0  0  0  0
 10  5  2  0  0  0  0
 12  7  1  0  0  0  0
 13  8  1  0  0  0  0
 14 15  2  0  0  0  0
 14  9  1  0  0  0  0
 16 14  1  0  0  0  0
 17 16  1  0  0  0  0
 18 17  1  0  0  0  0
 18 16  1  0  0  0  0
 19 22  1  6  0  0  0
 19 20  1  0  0  0  0
 19 30  1  0  0  0  0
 20 23  1  0  0  0  0
 21 25  1  1  0  0  0
 21 19  1  0  0  0  0
 21 20  1  0  0  0  0
 24 20  1  0  0  0  0
 26 27  1  0  0  0  0
 27 28  2  0  0  0  0
 27 33  1  0  0  0  0
 28 34  1  0  0  0  0
 29 28  1  0  0  0  0
 30 29  2  0  0  0  0
 31 30  1  0  0  0  0
 31 26  2  0  0  0  0
 32 26  1  0  0  0  0
M  END
>  <minimizedAffinity>
-5.34041166

>  <minimizedRMSD>
1.12918985

$$$$
