
 OpenBabel03272500453D

 19 21  0  0  0  0  0  0  0  0999 V2000
   36.8670   30.7990   48.3410 C   0  0  0  0  0  0  0  0  0  0  0  0
   37.9910   30.6630   47.5320 C   0  0  0  0  0  0  0  0  0  0  0  0
   38.7720   31.8160   47.6930 C   0  0  0  0  0  0  0  0  0  0  0  0
   38.1160   32.5980   48.5740 N   0  0  0  0  0  0  0  0  0  0  0  0
   37.0140   31.9780   48.9310 N   0  0  0  0  0  0  0  0  0  0  0  0
   38.2960   29.8600   46.8670 H   0  0  0  0  0  0  0  0  0  0  0  0
   39.7230   32.0040   47.1850 H   0  0  0  0  0  0  0  0  0  0  0  0
   35.7150   28.9130   49.5240 C   0  0  0  0  0  0  0  0  0  0  0  0
   35.8340   29.8010   48.4350 C   0  0  0  0  0  0  0  0  0  0  0  0
   34.8930   29.6830   47.4180 C   0  0  0  0  0  0  0  0  0  0  0  0
   33.9220   28.7310   47.5270 N   0  0  0  0  0  0  0  0  0  0  0  0
   33.8500   27.9020   48.5910 C   0  0  0  0  0  0  0  0  0  0  0  0
   34.7530   27.9920   49.6000 N   0  0  0  0  0  0  0  0  0  0  0  0
   36.4960   29.0800   50.2720 H   0  0  0  0  0  0  0  0  0  0  0  0
   34.8940   30.3200   46.5320 H   0  0  0  0  0  0  0  0  0  0  0  0
   33.0870   27.1400   48.6960 H   0  0  0  0  0  0  0  0  0  0  0  0
   38.5490   33.8930   49.0440 C   0  0  0  0  0  0  0  0  0  0  0  0
   39.6790   33.9180   50.1050 C   0  0  0  0  0  0  0  0  0  0  0  0
   39.8930   34.3920   48.7080 C   0  0  0  0  0  0  0  0  0  0  0  0
  1  9  1  0  0  0  0
  1  5  2  0  0  0  0
  2  3  2  0  0  0  0
  2  1  1  0  0  0  0
  3  4  1  0  0  0  0
  4  5  1  0  0  0  0
  4 17  1  0  0  0  0
  6  2  1  0  0  0  0
  7  3  1  0  0  0  0
  8 13  1  0  0  0  0
  8 14  1  0  0  0  0
  9  8  2  0  0  0  0
 10 11  2  0  0  0  0
 10  9  1  0  0  0  0
 11 12  1  0  0  0  0
 12 16  1  0  0  0  0
 12 13  2  0  0  0  0
 15 10  1  0  0  0  0
 17 18  1  0  0  0  0
 19 17  1  0  0  0  0
 19 18  1  0  0  0  0
M  END
>  <minimizedAffinity>
-4.31262398

>  <minimizedRMSD>
2.20899677

$$$$
