
 OpenBabel03272508573D

 34 37  0  0  1  0  0  0  0  0999 V2000
   38.4090   31.8610   44.5360 C   0  0  0  0  0  0  0  0  0  0  0  0
   37.3030   32.4480   44.4120 O   0  0  0  0  0  0  0  0  0  0  0  0
   38.9510   31.5630   45.8350 N   0  0  0  0  0  0  0  0  0  0  0  0
   39.9360   31.2590   46.0010 H   0  0  0  0  0  0  0  0  0  0  0  0
   39.1790   31.4620   43.3510 C   0  0  0  0  0  0  0  0  0  0  0  0
   40.1720   30.5310   43.4940 C   0  0  0  0  0  0  0  0  0  0  0  0
   40.8920   30.1300   42.3830 C   0  0  0  0  0  0  0  0  0  0  0  0
   40.5620   30.6990   41.1910 C   0  0  0  0  0  0  0  0  0  0  0  0
   39.5630   31.6450   41.0160 C   0  0  0  0  0  0  0  0  0  0  0  0
   38.8950   31.9940   42.1440 N   0  0  0  0  0  0  0  0  0  0  0  0
   40.4520   30.0630   44.4470 H   0  0  0  0  0  0  0  0  0  0  0  0
   41.6860   29.4070   42.4040 H   0  0  0  0  0  0  0  0  0  0  0  0
   41.0970   30.4190   40.2830 H   0  0  0  0  0  0  0  0  0  0  0  0
   39.2760   32.2260   39.7010 C   0  0  0  0  0  0  0  0  0  0  0  0
   38.7170   33.3730   39.6810 O   0  0  0  0  0  0  0  0  0  0  0  0
   39.6750   31.4040   38.5140 C   0  0  0  0  0  3  0  0  0  0  0  0
   40.8570   32.0340   37.7480 C   0  0  0  0  0  2  0  0  0  0  0  0
   39.5170   31.9960   37.1460 C   0  0  0  0  0  2  0  0  0  0  0  0
   38.4210   31.1040   48.2220 C   0  0  2  0  0  0  0  0  0  0  0  0
   38.6790   32.5590   48.1130 C   0  0  0  0  0  0  0  0  0  0  0  0
   38.0690   31.6970   46.9720 C   0  0  1  0  0  0  0  0  0  0  0  0
   39.3630   30.5040   48.3200 H   0  0  0  0  0  0  0  0  0  0  0  0
   37.9660   33.2290   48.6460 H   0  0  0  0  0  0  0  0  0  0  0  0
   39.6980   32.9290   47.9820 H   0  0  0  0  0  0  0  0  0  0  0  0
   36.9900   31.9560   46.7570 H   0  0  0  0  0  0  0  0  0  0  0  0
   35.0690   30.2250   49.5180 C   0  0  0  0  0  0  0  0  0  0  0  0
   35.3920   29.5630   50.7380 C   0  0  0  0  0  0  0  0  0  0  0  0
   36.7870   29.4390   51.1060 C   0  0  0  0  0  0  0  0  0  0  0  0
   37.7410   29.9580   50.2690 N   0  0  0  0  0  0  0  0  0  0  0  0
   37.3480   30.5760   49.1200 C   0  0  0  0  0  0  0  0  0  0  0  0
   36.0270   30.7280   48.7120 N   0  0  0  0  0  0  0  0  0  0  0  0
   34.0140   30.2890   49.2930 H   0  0  0  0  0  0  0  0  0  0  0  0
   34.6180   29.1780   51.3510 H   0  0  0  0  0  0  0  0  0  0  0  0
   37.0200   28.9400   52.0240 H   0  0  0  0  0  0  0  0  0  0  0  0
  1  3  1  0  0  0  0
  2  1  2  0  0  0  0
  3  4  1  0  0  0  0
  3 21  1  0  0  0  0
  5  6  1  0  0  0  0
  5  1  1  0  0  0  0
  6 11  1  0  0  0  0
  7 12  1  0  0  0  0
  7  6  2  0  0  0  0
  8  7  1  0  0  0  0
  9  8  2  0  0  0  0
  9 10  1  0  0  0  0
 10  5  2  0  0  0  0
 13  8  1  0  0  0  0
 14  9  1  0  0  0  0
 15 14  2  0  0  0  0
 16 14  1  0  0  0  0
 17 16  1  0  0  0  0
 18 17  1  0  0  0  0
 18 16  1  0  0  0  0
 19 22  1  6  0  0  0
 19 30  1  0  0  0  0
 20 19  1  0  0  0  0
 20 23  1  0  0  0  0
 21 25  1  6  0  0  0
 21 20  1  0  0  0  0
 21 19  1  0  0  0  0
 24 20  1  0  0  0  0
 26 27  1  0  0  0  0
 27 28  2  0  0  0  0
 27 33  1  0  0  0  0
 28 34  1  0  0  0  0
 29 28  1  0  0  0  0
 30 29  2  0  0  0  0
 31 30  1  0  0  0  0
 31 26  2  0  0  0  0
 32 26  1  0  0  0  0
M  END
>  <minimizedAffinity>
-4.90820408

>  <minimizedRMSD>
0.425721765

$$$$
