
 OpenBabel03272509433D

 32 34  0  0  1  0  0  0  0  0999 V2000
   37.0350   30.9240   49.0300 C   0  0  0  0  0  0  0  0  0  0  0  0
   36.7470   31.8090   50.0710 C   0  0  0  0  0  0  0  0  0  0  0  0
   37.3360   33.0620   50.1510 C   0  0  0  0  0  0  0  0  0  0  0  0
   38.2440   33.4570   49.1640 C   0  0  0  0  0  0  0  0  0  0  0  0
   38.5160   32.5820   48.1520 C   0  0  0  0  0  0  0  0  0  0  0  0
   37.9080   31.3360   48.1040 C   0  0  0  0  0  0  0  0  0  0  0  0
   36.0340   31.4700   50.8270 H   0  0  0  0  0  0  0  0  0  0  0  0
   37.0300   33.6460   51.0030 H   0  0  0  0  0  0  0  0  0  0  0  0
   38.6480   34.4390   49.3070 H   0  0  0  0  0  0  0  0  0  0  0  0
   39.2380   33.0290   47.4680 H   0  0  0  0  0  0  0  0  0  0  0  0
   36.4450   29.6050   48.9690 C   0  0  2  0  0  0  0  0  0  0  0  0
   36.9670   29.0840   48.0770 H   0  0  0  0  0  0  0  0  0  0  0  0
   33.5940   30.0760   46.7650 C   0  0  0  0  0  0  0  0  0  0  0  0
   32.8880   28.8920   46.8740 C   0  0  0  0  0  0  0  0  0  0  0  0
   33.3510   27.9360   47.7580 C   0  0  0  0  0  0  0  0  0  0  0  0
   34.4890   28.1910   48.4930 N   0  0  0  0  0  0  0  0  0  0  0  0
   35.1190   29.3390   48.3420 C   0  0  0  0  0  0  0  0  0  0  0  0
   34.6790   30.2860   47.4830 N   0  0  0  0  0  0  0  0  0  0  0  0
   33.2560   30.8520   46.0770 H   0  0  0  0  0  0  0  0  0  0  0  0
   32.0120   28.7850   46.2560 H   0  0  0  0  0  0  0  0  0  0  0  0
   32.8020   27.0090   47.8490 H   0  0  0  0  0  0  0  0  0  0  0  0
   36.8940   28.8190   49.8830 O   0  0  0  0  0  0  0  0  0  0  0  0
   36.5660   28.7780   50.7970 H   0  0  0  0  0  0  0  0  0  0  0  0
   38.3110   30.4990   46.9970 C   0  0  0  0  0  3  0  0  0  0  0  0
   39.0190   30.9390   45.9520 C   0  0  0  0  0  3  0  0  0  0  0  0
   39.5190   30.1680   44.7910 C   0  0  0  0  0  0  0  0  0  0  0  0
   39.1310   29.1180   44.7810 H   0  0  0  0  0  0  0  0  0  0  0  0
   40.6230   30.1060   44.7690 H   0  0  0  0  0  0  0  0  0  0  0  0
   38.9860   30.9550   43.2670 S   0  0  0  0  0  0  0  0  0  0  0  0
   37.5240   30.0780   42.6000 C   0  0  0  0  0  3  0  0  0  0  0  0
   36.4570   29.7770   43.5830 C   0  0  0  0  0  2  0  0  0  0  0  0
   37.2840   28.6770   43.0230 C   0  0  0  0  0  2  0  0  0  0  0  0
  1  2  1  0  0  0  0
  2  3  2  0  0  0  0
  2  7  1  0  0  0  0
  3  8  1  0  0  0  0
  4  9  1  0  0  0  0
  4  3  1  0  0  0  0
  5  4  2  0  0  0  0
  6  5  1  0  0  0  0
  6  1  2  0  0  0  0
 10  5  1  0  0  0  0
 11 12  1  6  0  0  0
 11  1  1  0  0  0  0
 11 22  1  0  0  0  0
 13 14  2  0  0  0  0
 13 18  1  0  0  0  0
 14 15  1  0  0  0  0
 15 21  1  0  0  0  0
 15 16  2  0  0  0  0
 17 16  1  0  0  0  0
 17 11  1  0  0  0  0
 18 17  2  0  0  0  0
 19 13  1  0  0  0  0
 20 14  1  0  0  0  0
 22 23  1  0  0  0  0
 24  6  1  0  0  0  0
 25 24  2  0  0  0  0
 26 25  1  0  0  0  0
 27 26  1  0  0  0  0
 28 26  1  0  0  0  0
 29 26  1  0  0  0  0
 30 32  1  0  0  0  0
 30 29  1  0  0  0  0
 30 31  1  0  0  0  0
 32 31  1  0  0  0  0
M  END
>  <minimizedAffinity>
-5.20844316

>  <minimizedRMSD>
0.552944779

$$$$
