
 OpenBabel03272506253D

 26 28  0  0  0  0  0  0  0  0999 V2000
   38.2930   30.8500   47.4040 C   0  0  0  0  0  0  0  0  0  0  0  0
   38.4560   30.2280   46.1860 C   0  0  0  0  0  0  0  0  0  0  0  0
   39.2100   30.7390   45.1390 C   0  0  0  0  0  0  0  0  0  0  0  0
   39.8560   31.9750   45.3200 C   0  0  0  0  0  0  0  0  0  0  0  0
   39.6950   32.6020   46.5390 C   0  0  0  0  0  0  0  0  0  0  0  0
   38.9380   32.0730   47.5680 C   0  0  0  0  0  0  0  0  0  0  0  0
   37.9880   29.2720   45.9780 H   0  0  0  0  0  0  0  0  0  0  0  0
   39.3210   30.2270   44.1920 H   0  0  0  0  0  0  0  0  0  0  0  0
   40.4590   32.4440   44.5620 H   0  0  0  0  0  0  0  0  0  0  0  0
   40.1400   33.5520   46.7970 H   0  0  0  0  0  0  0  0  0  0  0  0
   38.1060   29.8090   49.5890 C   0  0  0  0  0  0  0  0  0  0  0  0
   37.4810   30.1870   48.3810 C   0  0  0  0  0  0  0  0  0  0  0  0
   36.1270   29.8830   48.2410 C   0  0  0  0  0  0  0  0  0  0  0  0
   35.4860   29.2510   49.2510 N   0  0  0  0  0  0  0  0  0  0  0  0
   36.1230   28.8960   50.4150 C   0  0  0  0  0  0  0  0  0  0  0  0
   37.4470   29.1880   50.5660 N   0  0  0  0  0  0  0  0  0  0  0  0
   39.1550   30.0250   49.7400 H   0  0  0  0  0  0  0  0  0  0  0  0
   35.4630   28.3990   51.1180 H   0  0  0  0  0  0  0  0  0  0  0  0
   35.3390   30.2220   47.0210 C   0  0  0  0  0  0  0  0  0  0  0  0
   34.0810   30.7250   47.4120 F   0  0  0  0  0  0  0  0  0  0  0  0
   35.9000   31.0880   46.1520 F   0  0  0  0  0  0  0  0  0  0  0  0
   35.0090   29.0450   46.3390 F   0  0  0  0  0  0  0  0  0  0  0  0
   38.7290   32.8810   49.1430 S   0  0  0  0  0  0  0  0  0  0  0  0
   37.0700   33.4780   49.4270 C   0  0  0  0  0  3  0  0  0  0  0  0
   36.2720   32.6160   50.4160 C   0  0  0  0  0  2  0  0  0  0  0  0
   36.6030   34.0520   50.6880 C   0  0  0  0  0  2  0  0  0  0  0  0
  1  6  1  0  0  0  0
  1 12  1  0  0  0  0
  2  1  2  0  0  0  0
  3  4  2  0  0  0  0
  3  2  1  0  0  0  0
  4  5  1  0  0  0  0
  5 10  1  0  0  0  0
  5  6  2  0  0  0  0
  6 23  1  0  0  0  0
  7  2  1  0  0  0  0
  8  3  1  0  0  0  0
  9  4  1  0  0  0  0
 11 17  1  0  0  0  0
 11 16  1  0  0  0  0
 12 11  2  0  0  0  0
 13 12  1  0  0  0  0
 13 14  2  0  0  0  0
 14 15  1  0  0  0  0
 15 16  2  0  0  0  0
 15 18  1  0  0  0  0
 19 20  1  0  0  0  0
 19 13  1  0  0  0  0
 21 19  1  0  0  0  0
 22 19  1  0  0  0  0
 23 24  1  0  0  0  0
 24 25  1  0  0  0  0
 24 26  1  0  0  0  0
 25 26  1  0  0  0  0
M  END
>  <minimizedAffinity>
-2.82399368

>  <minimizedRMSD>
1.02338839

$$$$
