
 OpenBabel03262522253D

 29 31  0  0  0  0  0  0  0  0999 V2000
   38.0410   30.3340   49.4860 C   0  0  0  0  0  0  0  0  0  0  0  0
   37.9180   31.0290   48.2630 C   0  0  0  0  0  0  0  0  0  0  0  0
   36.7620   30.8670   47.5200 C   0  0  0  0  0  0  0  0  0  0  0  0
   35.8020   30.0390   48.0210 N   0  0  0  0  0  0  0  0  0  0  0  0
   35.9500   29.4110   49.1600 C   0  0  0  0  0  0  0  0  0  0  0  0
   37.0900   29.5330   49.9480 N   0  0  0  0  0  0  0  0  0  0  0  0
   38.8960   30.3810   50.1490 H   0  0  0  0  0  0  0  0  0  0  0  0
   36.6910   31.4040   46.5980 H   0  0  0  0  0  0  0  0  0  0  0  0
   38.9880   31.8170   47.9220 O   0  0  0  0  0  0  0  0  0  0  0  0
   39.4380   31.7570   46.5900 C   0  0  0  0  0  0  0  0  0  0  0  0
   39.7170   30.6300   45.8330 C   0  0  0  0  0  0  0  0  0  0  0  0
   40.1410   30.7670   44.5650 C   0  0  0  0  0  0  0  0  0  0  0  0
   40.2870   32.0410   44.0470 C   0  0  0  0  0  0  0  0  0  0  0  0
   40.0070   33.1550   44.8080 C   0  0  0  0  0  0  0  0  0  0  0  0
   39.5820   32.9710   46.0830 N   0  0  0  0  0  0  0  0  0  0  0  0
   39.5510   29.6950   46.3870 H   0  0  0  0  0  0  0  0  0  0  0  0
   40.3480   29.8530   44.0080 H   0  0  0  0  0  0  0  0  0  0  0  0
   40.6290   32.1330   43.0240 H   0  0  0  0  0  0  0  0  0  0  0  0
   40.1740   34.5250   44.2210 C   0  0  0  0  0  0  0  0  0  0  0  0
   39.8740   34.5130   43.1500 H   0  0  0  0  0  0  0  0  0  0  0  0
   39.5970   35.2560   44.8320 H   0  0  0  0  0  0  0  0  0  0  0  0
   41.2680   34.8000   44.2260 H   0  0  0  0  0  0  0  0  0  0  0  0
   34.5010   28.3930   49.5420 S   0  0  0  0  0  0  0  0  0  0  0  0
   33.4590   28.5010   48.0470 C   0  0  0  0  0  0  0  0  0  0  0  0
   34.0650   28.3220   47.1340 H   0  0  0  0  0  0  0  0  0  0  0  0
   32.9230   29.4720   48.0090 H   0  0  0  0  0  0  0  0  0  0  0  0
   32.4440   27.3790   48.1340 C   0  0  0  0  0  0  0  0  0  0  0  0
   31.1570   27.6220   48.8400 C   0  0  0  0  0  0  0  0  0  0  0  0
   31.1490   27.5200   47.3640 C   0  0  0  0  0  0  0  0  0  0  0  0
  1  6  1  0  0  0  0
  1  7  1  0  0  0  0
  2  1  2  0  0  0  0
  3  4  2  0  0  0  0
  3  2  1  0  0  0  0
  4  5  1  0  0  0  0
  5 23  1  0  0  0  0
  5  6  2  0  0  0  0
  8  3  1  0  0  0  0
  9  2  1  0  0  0  0
 10  9  1  0  0  0  0
 11 16  1  0  0  0  0
 11 10  2  0  0  0  0
 12 11  1  0  0  0  0
 13 12  2  0  0  0  0
 13 14  1  0  0  0  0
 14 15  2  0  0  0  0
 15 10  1  0  0  0  0
 17 12  1  0  0  0  0
 18 13  1  0  0  0  0
 19 22  1  0  0  0  0
 19 14  1  0  0  0  0
 19 21  1  0  0  0  0
 20 19  1  0  0  0  0
 24 27  1  0  0  0  0
 24 23  1  0  0  0  0
 25 24  1  0  0  0  0
 26 24  1  0  0  0  0
 27 28  1  0  0  0  0
 29 27  1  0  0  0  0
 29 28  1  0  0  0  0
M  END
>  <minimizedAffinity>
-4.64546824

>  <minimizedRMSD>
1.19921756

$$$$
