
 OpenBabel03272504203D

 21 22  0  0  0  0  0  0  0  0999 V2000
   35.4050   29.7600   50.2370 C   0  0  0  0  0  0  0  0  0  0  0  0
   34.8380   29.8590   51.2010 H   0  0  0  0  0  0  0  0  0  0  0  0
   36.0810   28.8880   50.3750 H   0  0  0  0  0  0  0  0  0  0  0  0
   34.4890   29.3890   49.1310 C   0  0  0  0  0  0  0  0  0  0  0  0
   34.4520   30.1910   48.0000 C   0  0  0  0  0  0  0  0  0  0  0  0
   33.5960   29.8500   46.9600 C   0  0  0  0  0  0  0  0  0  0  0  0
   32.8290   28.7410   47.0980 N   0  0  0  0  0  0  0  0  0  0  0  0
   32.8760   27.9690   48.2090 C   0  0  0  0  0  0  0  0  0  0  0  0
   33.7050   28.2930   49.2260 N   0  0  0  0  0  0  0  0  0  0  0  0
   35.0720   31.0860   47.8890 H   0  0  0  0  0  0  0  0  0  0  0  0
   33.5630   30.4770   46.0650 H   0  0  0  0  0  0  0  0  0  0  0  0
   32.2390   27.0830   48.2760 H   0  0  0  0  0  0  0  0  0  0  0  0
   36.0860   30.9430   49.9890 O   0  0  0  0  0  0  0  0  0  0  0  0
   37.9510   30.1160   48.3320 O   0  0  0  0  0  0  0  0  0  0  0  0
   37.7130   30.5480   49.7500 P   0  0  2  0  0  0  0  0  0  0  0  0
   38.1150   29.2370   50.7620 O   0  0  0  0  0  0  0  0  0  0  0  0
   38.8110   28.6520   50.3690 H   0  0  0  0  0  0  0  0  0  0  0  0
   38.7040   31.8840   50.0910 O   0  0  0  0  0  0  0  0  0  0  0  0
   38.3660   32.9130   49.2310 C   0  0  0  0  0  0  0  0  0  0  0  0
   39.3610   34.0870   49.3130 C   0  0  0  0  0  0  0  0  0  0  0  0
   39.1660   33.2690   48.0420 C   0  0  0  0  0  0  0  0  0  0  0  0
  1  3  1  0  0  0  0
  1  2  1  0  0  0  0
  4  9  1  0  0  0  0
  4  1  1  0  0  0  0
  5  4  2  0  0  0  0
  6  7  2  0  0  0  0
  6  5  1  0  0  0  0
  7  8  1  0  0  0  0
  8 12  1  0  0  0  0
  8  9  2  0  0  0  0
 10  5  1  0  0  0  0
 11  6  1  0  0  0  0
 13  1  1  0  0  0  0
 15 14  2  6  0  0  0
 15 13  1  0  0  0  0
 15 18  1  0  0  0  0
 15 16  1  0  0  0  0
 17 16  1  0  0  0  0
 19 20  1  0  0  0  0
 19 18  1  0  0  0  0
 21 19  1  0  0  0  0
 21 20  1  0  0  0  0
M  END
>  <minimizedAffinity>
-4.46764565

>  <minimizedRMSD>
1.27716601

$$$$
