
 OpenBabel03272510103D

 22 24  0  0  0  0  0  0  0  0999 V2000
   38.2830   31.0600   47.9120 C   0  0  0  0  0  0  0  0  0  0  0  0
   38.8570   32.2910   47.8580 C   0  0  0  0  0  0  0  0  0  0  0  0
   39.4870   32.8000   46.7390 C   0  0  0  0  0  0  0  0  0  0  0  0
   39.5620   32.0410   45.5850 C   0  0  0  0  0  0  0  0  0  0  0  0
   38.9730   30.8020   45.6730 C   0  0  0  0  0  0  0  0  0  0  0  0
   38.3630   30.3240   46.7710 N   0  0  0  0  0  0  0  0  0  0  0  0
   38.8070   32.9030   48.7560 H   0  0  0  0  0  0  0  0  0  0  0  0
   39.9380   33.7850   46.7190 H   0  0  0  0  0  0  0  0  0  0  0  0
   38.9290   30.0670   44.8800 H   0  0  0  0  0  0  0  0  0  0  0  0
   37.9880   30.8250   50.4000 C   0  0  0  0  0  0  0  0  0  0  0  0
   37.6190   30.5220   49.0920 C   0  0  0  0  0  0  0  0  0  0  0  0
   36.5610   29.6580   48.9150 C   0  0  0  0  0  0  0  0  0  0  0  0
   35.9280   29.1430   50.0090 N   0  0  0  0  0  0  0  0  0  0  0  0
   36.3290   29.4730   51.2610 C   0  0  0  0  0  0  0  0  0  0  0  0
   37.3670   30.3210   51.4730 N   0  0  0  0  0  0  0  0  0  0  0  0
   38.8300   31.5120   50.4560 H   0  0  0  0  0  0  0  0  0  0  0  0
   36.2590   29.4100   47.9080 H   0  0  0  0  0  0  0  0  0  0  0  0
   35.8600   29.0920   52.1600 H   0  0  0  0  0  0  0  0  0  0  0  0
   40.1610   32.4300   44.4080 O   0  0  0  0  0  0  0  0  0  0  0  0
   39.5900   33.0900   43.3290 C   0  0  0  0  0  3  0  0  0  0  0  0
   39.4630   32.2590   42.0100 C   0  0  0  0  0  2  0  0  0  0  0  0
   38.2500   32.7290   42.8030 C   0  0  0  0  0  2  0  0  0  0  0  0
  1 11  1  0  0  0  0
  2  1  1  0  0  0  0
  2  7  1  0  0  0  0
  3  2  2  0  0  0  0
  4  5  2  0  0  0  0
  4  3  1  0  0  0  0
  5  6  1  0  0  0  0
  6  1  2  0  0  0  0
  8  3  1  0  0  0  0
  9  5  1  0  0  0  0
 10 16  1  0  0  0  0
 10 15  1  0  0  0  0
 11 10  2  0  0  0  0
 12 11  1  0  0  0  0
 12 13  2  0  0  0  0
 13 14  1  0  0  0  0
 14 15  2  0  0  0  0
 14 18  1  0  0  0  0
 17 12  1  0  0  0  0
 19  4  1  0  0  0  0
 20 19  1  0  0  0  0
 21 22  1  0  0  0  0
 21 20  1  0  0  0  0
 22 20  1  0  0  0  0
M  END
>  <minimizedAffinity>
-4.88566971

>  <minimizedRMSD>
1.98332596

$$$$
