
 OpenBabel03272506363D

 17 18  0  0  0  0  0  0  0  0999 V2000
   37.2270   30.3460   48.2330 C   0  0  0  0  0  0  0  0  0  0  0  0
   38.1870   30.5730   47.2210 C   0  0  0  0  0  0  0  0  0  0  0  0
   37.7660   30.7200   45.9000 C   0  0  0  0  0  0  0  0  0  0  0  0
   36.4290   30.6350   45.6480 N   0  0  0  0  0  0  0  0  0  0  0  0
   35.5320   30.4150   46.6460 C   0  0  0  0  0  0  0  0  0  0  0  0
   35.9290   30.2720   47.9210 N   0  0  0  0  0  0  0  0  0  0  0  0
   33.5680   29.0670   46.6990 C   0  0  0  0  0  0  0  0  0  0  0  0
   34.1440   28.0640   47.2340 O   0  0  0  0  0  0  0  0  0  0  0  0
   34.1310   30.3320   46.3390 N   0  0  0  0  0  0  0  0  0  0  0  0
   39.2440   30.6470   47.3720 H   0  0  0  0  0  0  0  0  0  0  0  0
   38.4360   30.8950   45.0790 H   0  0  0  0  0  0  0  0  0  0  0  0
   32.5440   28.7300   46.5840 H   0  0  0  0  0  0  0  0  0  0  0  0
   33.4670   30.9940   45.9170 H   0  0  0  0  0  0  0  0  0  0  0  0
   37.8160   30.2260   49.4670 O   0  0  0  0  0  0  0  0  0  0  0  0
   37.0520   30.5500   50.6250 C   0  0  0  0  0  0  0  0  0  0  0  0
   37.4710   29.9850   51.9460 C   0  0  0  0  0  0  0  0  0  0  0  0
   36.2410   29.4520   51.2650 C   0  0  0  0  0  0  0  0  0  0  0  0
  1 14  1  0  0  0  0
  2 10  1  0  0  0  0
  2  1  2  0  0  0  0
  3  2  1  0  0  0  0
  4  3  2  0  0  0  0
  4  5  1  0  0  0  0
  5  6  2  0  0  0  0
  6  1  1  0  0  0  0
  7  8  2  0  0  0  0
  9  5  1  0  0  0  0
  9  7  1  0  0  0  0
 11  3  1  0  0  0  0
 12  7  1  0  0  0  0
 13  9  1  0  0  0  0
 14 15  1  0  0  0  0
 15 17  1  0  0  0  0
 15 16  1  0  0  0  0
 17 16  1  0  0  0  0
M  END
>  <minimizedAffinity>
-4.09628248

>  <minimizedRMSD>
2.9710536

$$$$
