
 OpenBabel03262521163D

 22 23  0  0  0  0  0  0  0  0999 V2000
   38.7140   32.7040   49.5810 C   0  0  0  0  0  0  0  0  0  0  0  0
   39.2810   31.7720   49.8190 H   0  0  0  0  0  0  0  0  0  0  0  0
   38.8410   33.3400   50.5080 H   0  0  0  0  0  0  0  0  0  0  0  0
   38.9720   33.2970   48.4210 C   0  0  0  0  0  0  0  0  0  0  0  0
   38.2240   34.0970   48.1630 H   0  0  0  0  0  0  0  0  0  0  0  0
   39.9260   33.9160   48.4690 H   0  0  0  0  0  0  0  0  0  0  0  0
   39.1550   32.5450   47.1330 C   0  0  0  0  0  0  0  0  0  0  0  0
   38.2060   32.3620   46.5870 H   0  0  0  0  0  0  0  0  0  0  0  0
   39.5450   31.5030   47.3310 H   0  0  0  0  0  0  0  0  0  0  0  0
   40.1230   33.1710   46.1850 C   0  0  0  0  0  0  0  0  0  0  0  0
   40.8620   32.3590   45.1630 C   0  0  0  0  0  0  0  0  0  0  0  0
   39.7270   33.2670   44.7660 C   0  0  0  0  0  0  0  0  0  0  0  0
   37.3530   32.5310   49.4010 O   0  0  0  0  0  0  0  0  0  0  0  0
   36.8430   31.2800   49.6860 C   0  0  0  0  0  0  0  0  0  0  0  0
   36.1950   30.6900   48.5960 C   0  0  0  0  0  0  0  0  0  0  0  0
   35.6290   29.4280   48.7280 C   0  0  0  0  0  0  0  0  0  0  0  0
   35.7450   28.8170   49.9590 N   0  0  0  0  0  0  0  0  0  0  0  0
   36.3820   29.4190   51.0030 C   0  0  0  0  0  0  0  0  0  0  0  0
   36.9190   30.6200   50.8680 N   0  0  0  0  0  0  0  0  0  0  0  0
   36.0770   31.1200   47.6180 H   0  0  0  0  0  0  0  0  0  0  0  0
   35.1190   28.9330   47.9180 H   0  0  0  0  0  0  0  0  0  0  0  0
   36.4530   28.9060   51.9540 H   0  0  0  0  0  0  0  0  0  0  0  0
  1  2  1  0  0  0  0
  1  3  1  0  0  0  0
  4  6  1  0  0  0  0
  4  1  1  0  0  0  0
  5  4  1  0  0  0  0
  7  9  1  0  0  0  0
  7  4  1  0  0  0  0
  8  7  1  0  0  0  0
 10  7  1  0  0  0  0
 11 10  1  0  0  0  0
 12 11  1  0  0  0  0
 12 10  1  0  0  0  0
 13  1  1  0  0  0  0
 13 14  1  0  0  0  0
 14 19  1  0  0  0  0
 15 16  1  0  0  0  0
 15 14  2  0  0  0  0
 16 17  2  0  0  0  0
 17 18  1  0  0  0  0
 18 22  1  0  0  0  0
 19 18  2  0  0  0  0
 20 15  1  0  0  0  0
 21 16  1  0  0  0  0
M  END
>  <minimizedAffinity>
-4.43481207

>  <minimizedRMSD>
5.89032078

$$$$
