
 OpenBabel03272503383D

 20 22  0  0  0  0  0  0  0  0999 V2000
   38.8590   31.7960   47.5680 C   0  0  0  0  0  0  0  0  0  0  0  0
   37.8370   30.8990   47.8670 C   0  0  0  0  0  0  0  0  0  0  0  0
   36.9870   31.2030   48.9120 C   0  0  0  0  0  0  0  0  0  0  0  0
   37.1790   32.3640   49.6070 N   0  0  0  0  0  0  0  0  0  0  0  0
   38.1910   33.2220   49.2870 C   0  0  0  0  0  0  0  0  0  0  0  0
   39.0210   32.9210   48.2640 N   0  0  0  0  0  0  0  0  0  0  0  0
   37.6340   29.9620   47.3530 H   0  0  0  0  0  0  0  0  0  0  0  0
   38.3330   34.1340   49.8420 H   0  0  0  0  0  0  0  0  0  0  0  0
   35.8800   30.3250   49.2990 C   0  0  0  0  0  0  0  0  0  0  0  0
   35.9410   28.9610   49.3890 C   0  0  0  0  0  0  0  0  0  0  0  0
   34.6610   28.5960   49.7880 C   0  0  0  0  0  0  0  0  0  0  0  0
   33.8880   29.6930   49.9240 N   0  0  0  0  0  0  0  0  0  0  0  0
   34.6430   30.7560   49.6220 N   0  0  0  0  0  0  0  0  0  0  0  0
   36.7730   28.3010   49.2000 H   0  0  0  0  0  0  0  0  0  0  0  0
   34.3920   27.5430   49.9490 H   0  0  0  0  0  0  0  0  0  0  0  0
   32.8900   29.6040   50.2200 H   0  0  0  0  0  0  0  0  0  0  0  0
   39.6340   31.3680   46.5040 O   0  0  0  0  0  0  0  0  0  0  0  0
   40.3650   32.2090   45.6480 C   0  0  0  0  0  0  0  0  0  0  0  0
   40.4520   31.9430   44.1950 C   0  0  0  0  0  0  0  0  0  0  0  0
   39.5720   33.0680   44.7300 C   0  0  0  0  0  0  0  0  0  0  0  0
  1  2  2  0  0  0  0
  1  6  1  0  0  0  0
  2  3  1  0  0  0  0
  3  9  1  0  0  0  0
  3  4  2  0  0  0  0
  5  4  1  0  0  0  0
  5  8  1  0  0  0  0
  6  5  2  0  0  0  0
  7  2  1  0  0  0  0
  9 10  1  0  0  0  0
  9 13  2  0  0  0  0
 10 11  2  0  0  0  0
 11 12  1  0  0  0  0
 11 15  1  0  0  0  0
 12 16  1  0  0  0  0
 13 12  1  0  0  0  0
 14 10  1  0  0  0  0
 17  1  1  0  0  0  0
 18 17  1  0  0  0  0
 19 20  1  0  0  0  0
 19 18  1  0  0  0  0
 20 18  1  0  0  0  0
M  END
>  <minimizedAffinity>
-5.38427067

>  <minimizedRMSD>
6.26879787

$$$$
