
 OpenBabel03272509573D

 40 43  0  0  0  0  0  0  0  0999 V2000
   34.4750   28.8120   49.6600 O   0  0  0  0  0  0  0  0  0  0  0  0
   37.2220   29.9840   51.7030 C   0  0  0  0  0  0  0  0  0  0  0  0
   37.9900   30.6450   50.7170 C   0  0  0  0  0  0  0  0  0  0  0  0
   37.5160   30.6480   49.4150 C   0  0  0  0  0  0  0  0  0  0  0  0
   36.3270   29.9970   49.2030 N   0  0  0  0  0  0  0  0  0  0  0  0
   35.6200   29.3790   50.1430 C   0  0  0  0  0  0  0  0  0  0  0  0
   36.0830   29.3780   51.4120 N   0  0  0  0  0  0  0  0  0  0  0  0
   37.6140   29.9960   52.7140 H   0  0  0  0  0  0  0  0  0  0  0  0
   38.9230   31.1530   50.8990 H   0  0  0  0  0  0  0  0  0  0  0  0
   38.8870   33.1980   49.3200 F   0  0  0  0  0  0  0  0  0  0  0  0
   38.8060   32.4620   48.2280 C   0  0  0  0  0  0  0  0  0  0  0  0
   38.1630   31.2710   48.2830 C   0  0  0  0  0  0  0  0  0  0  0  0
   38.1330   30.5720   47.0790 C   0  0  0  0  0  0  0  0  0  0  0  0
   38.7170   31.0650   45.9330 C   0  0  0  0  0  0  0  0  0  0  0  0
   39.3560   32.2760   45.9230 C   0  0  0  0  0  0  0  0  0  0  0  0
   39.3970   32.9750   47.0910 C   0  0  0  0  0  0  0  0  0  0  0  0
   37.6550   29.6060   46.9720 H   0  0  0  0  0  0  0  0  0  0  0  0
   38.6850   30.5100   45.0000 H   0  0  0  0  0  0  0  0  0  0  0  0
   39.8260   32.6890   45.0300 H   0  0  0  0  0  0  0  0  0  0  0  0
   39.8980   33.9300   47.0940 H   0  0  0  0  0  0  0  0  0  0  0  0
   34.4380   28.3720   48.3140 C   0  0  0  0  0  0  0  0  0  0  0  0
   34.1400   29.2180   47.6810 H   0  0  0  0  0  0  0  0  0  0  0  0
   35.4420   27.9490   48.0630 H   0  0  0  0  0  0  0  0  0  0  0  0
   33.4370   27.2640   48.1350 C   0  0  0  0  0  0  0  0  0  0  0  0
   33.7050   26.5890   47.2860 H   0  0  0  0  0  0  0  0  0  0  0  0
   33.4360   26.6280   49.0250 H   0  0  0  0  0  0  0  0  0  0  0  0
   32.0590   27.7950   47.8990 C   0  0  0  0  0  0  0  0  0  0  0  0
   31.0740   27.4420   48.8000 C   0  0  0  0  0  0  0  0  0  0  0  0
   29.7800   27.8730   48.6760 C   0  0  0  0  0  0  0  0  0  0  0  0
   29.4550   28.6570   47.6590 N   0  0  0  0  0  0  0  0  0  0  0  0
   30.4250   29.0020   46.7760 C   0  0  0  0  0  0  0  0  0  0  0  0
   31.7040   28.5890   46.8760 N   0  0  0  0  0  0  0  0  0  0  0  0
   31.3280   26.8020   49.6350 H   0  0  0  0  0  0  0  0  0  0  0  0
   29.0500   27.5500   49.4330 H   0  0  0  0  0  0  0  0  0  0  0  0
   30.0440   29.8920   45.6250 C   0  0  0  0  0  0  0  0  0  0  0  0
   29.4240   30.7430   46.0000 H   0  0  0  0  0  0  0  0  0  0  0  0
   29.4400   29.3110   44.8800 H   0  0  0  0  0  0  0  0  0  0  0  0
   31.2430   30.4300   44.9150 C   0  0  0  0  0  3  0  0  0  0  0  0
   30.9180   31.6510   44.0300 C   0  0  0  0  0  2  0  0  0  0  0  0
   31.8400   31.7400   45.2050 C   0  0  0  0  0  2  0  0  0  0  0  0
  1  6  1  0  0  0  0
  2  8  1  0  0  0  0
  3  9  1  0  0  0  0
  3  2  2  0  0  0  0
  4  3  1  0  0  0  0
  5  4  2  0  0  0  0
  5  6  1  0  0  0  0
  6  7  2  0  0  0  0
  7  2  1  0  0  0  0
 11 12  1  0  0  0  0
 11 10  1  0  0  0  0
 12  4  1  0  0  0  0
 13 12  2  0  0  0  0
 14 13  1  0  0  0  0
 15 14  2  0  0  0  0
 15 16  1  0  0  0  0
 16 20  1  0  0  0  0
 16 11  2  0  0  0  0
 17 13  1  0  0  0  0
 18 14  1  0  0  0  0
 19 15  1  0  0  0  0
 21  1  1  0  0  0  0
 22 21  1  0  0  0  0
 23 21  1  0  0  0  0
 24 21  1  0  0  0  0
 24 26  1  0  0  0  0
 25 24  1  0  0  0  0
 27 24  1  0  0  0  0
 27 28  1  0  0  0  0
 28 33  1  0  0  0  0
 29 28  2  0  0  0  0
 29 34  1  0  0  0  0
 30 29  1  0  0  0  0
 31 32  1  0  0  0  0
 31 30  2  0  0  0  0
 32 27  2  0  0  0  0
 35 36  1  0  0  0  0
 35 31  1  0  0  0  0
 37 35  1  0  0  0  0
 38 40  1  0  0  0  0
 38 35  1  0  0  0  0
 39 38  1  0  0  0  0
 39 40  1  0  0  0  0
M  END
>  <minimizedAffinity>
-6.14990139

>  <minimizedRMSD>
0.681278169

$$$$
