
 OpenBabel03272501193D

 24 26  0  0  0  0  0  0  0  0999 V2000
   38.9440   31.9700   47.7640 C   0  0  0  0  0  0  0  0  0  0  0  0
   38.3910   32.1790   49.0180 C   0  0  0  0  0  0  0  0  0  0  0  0
   38.6930   33.4100   49.5950 C   0  0  0  0  0  0  0  0  0  0  0  0
   39.4980   34.3460   48.9340 C   0  0  0  0  0  0  0  0  0  0  0  0
   40.0080   34.0380   47.6710 C   0  0  0  0  0  0  0  0  0  0  0  0
   39.7270   32.8340   47.0800 C   0  0  0  0  0  0  0  0  0  0  0  0
   38.2640   33.5800   50.5740 H   0  0  0  0  0  0  0  0  0  0  0  0
   39.6640   35.2540   49.4680 H   0  0  0  0  0  0  0  0  0  0  0  0
   40.5980   34.8370   47.2930 H   0  0  0  0  0  0  0  0  0  0  0  0
   36.2330   31.0570   49.3270 C   0  0  0  0  0  0  0  0  0  0  0  0
   37.5670   31.2220   49.6960 C   0  0  0  0  0  0  0  0  0  0  0  0
   38.0440   30.4250   50.7380 C   0  0  0  0  0  0  0  0  0  0  0  0
   37.1660   29.5460   51.3130 N   0  0  0  0  0  0  0  0  0  0  0  0
   35.8850   29.4170   50.9270 C   0  0  0  0  0  0  0  0  0  0  0  0
   35.4070   30.1820   49.9190 N   0  0  0  0  0  0  0  0  0  0  0  0
   35.7630   31.6330   48.5220 H   0  0  0  0  0  0  0  0  0  0  0  0
   39.0720   30.5100   51.0680 H   0  0  0  0  0  0  0  0  0  0  0  0
   35.2350   28.7040   51.4180 H   0  0  0  0  0  0  0  0  0  0  0  0
   38.6870   30.7550   47.1170 O   0  0  0  0  0  0  0  0  0  0  0  0
   37.7700   30.3460   47.0750 H   0  0  0  0  0  0  0  0  0  0  0  0
   40.2460   32.5670   45.8370 O   0  0  0  0  0  0  0  0  0  0  0  0
   39.8480   33.0660   44.6070 C   0  0  0  0  0  0  0  0  0  0  0  0
   38.5420   32.6830   43.9920 C   0  0  0  0  0  0  0  0  0  0  0  0
   39.8140   32.1670   43.4030 C   0  0  0  0  0  0  0  0  0  0  0  0
  1  2  1  0  0  0  0
  2  3  2  0  0  0  0
  2 11  1  0  0  0  0
  3  7  1  0  0  0  0
  4  8  1  0  0  0  0
  4  3  1  0  0  0  0
  5  4  2  0  0  0  0
  6  5  1  0  0  0  0
  6  1  2  0  0  0  0
  9  5  1  0  0  0  0
 10 11  2  0  0  0  0
 10 15  1  0  0  0  0
 11 12  1  0  0  0  0
 12 17  1  0  0  0  0
 12 13  2  0  0  0  0
 14 13  1  0  0  0  0
 14 18  1  0  0  0  0
 15 14  2  0  0  0  0
 16 10  1  0  0  0  0
 19  1  1  0  0  0  0
 20 19  1  0  0  0  0
 21  6  1  0  0  0  0
 22 21  1  0  0  0  0
 23 22  1  0  0  0  0
 24 23  1  0  0  0  0
 24 22  1  0  0  0  0
M  END
>  <minimizedAffinity>
-5.72240686

>  <minimizedRMSD>
0.879474163

$$$$
