
 OpenBabel03272505443D

 18 19  0  0  0  0  0  0  0  0999 V2000
   39.7790   22.7950   37.6710 C   0  0  0  0  0  0  0  0  0  0  0  0
   38.8680   23.2220   38.6880 C   0  0  0  0  0  0  0  0  0  0  0  0
   37.9960   24.2730   38.3840 C   0  0  0  0  0  0  0  0  0  0  0  0
   38.0470   24.8390   37.1530 N   0  0  0  0  0  0  0  0  0  0  0  0
   38.9220   24.4100   36.2120 C   0  0  0  0  0  0  0  0  0  0  0  0
   39.7730   23.4010   36.4760 N   0  0  0  0  0  0  0  0  0  0  0  0
   40.4350   21.9950   37.9160 H   0  0  0  0  0  0  0  0  0  0  0  0
   38.8570   22.7480   39.6530 H   0  0  0  0  0  0  0  0  0  0  0  0
   37.2860   24.6370   39.1140 H   0  0  0  0  0  0  0  0  0  0  0  0
   38.8280   25.1080   35.0140 O   0  0  0  0  0  0  0  0  0  0  0  0
   40.7520   26.8450   34.7110 O   0  0  0  0  0  0  0  0  0  0  0  0
   39.2370   26.7410   34.8360 P   0  0  2  0  0  0  0  0  0  0  0  0
   38.8110   27.6780   36.1640 O   0  0  0  0  0  0  0  0  0  0  0  0
   39.4460   27.6270   36.9150 H   0  0  0  0  0  0  0  0  0  0  0  0
   38.5990   27.4580   33.4590 O   0  0  0  0  0  0  0  0  0  0  0  0
   37.2100   27.3290   33.3950 C   0  0  0  0  0  3  0  0  0  0  0  0
   36.2810   28.3560   33.8680 C   0  0  0  0  0  2  0  0  0  0  0  0
   36.4590   28.1720   32.3990 C   0  0  0  0  0  2  0  0  0  0  0  0
  1  7  1  0  0  0  0
  1  2  1  0  0  0  0
  2  8  1  0  0  0  0
  3  2  2  0  0  0  0
  3  9  1  0  0  0  0
  4  3  1  0  0  0  0
  5  6  1  0  0  0  0
  5  4  2  0  0  0  0
  6  1  2  0  0  0  0
 10  5  1  0  0  0  0
 12 11  2  6  0  0  0
 12 10  1  0  0  0  0
 12 13  1  0  0  0  0
 13 14  1  0  0  0  0
 15 12  1  0  0  0  0
 16 15  1  0  0  0  0
 16 17  1  0  0  0  0
 18 16  1  0  0  0  0
 18 17  1  0  0  0  0
M  END
>  <minimizedAffinity>
-4.24443388

$$$$

 OpenBabel03272505443D

 18 19  0  0  0  0  0  0  0  0999 V2000
   38.1590   27.5340   35.4340 C   0  0  0  0  0  0  0  0  0  0  0  0
   37.8880   27.1660   34.0780 C   0  0  0  0  0  0  0  0  0  0  0  0
   37.7920   25.8030   33.7790 C   0  0  0  0  0  0  0  0  0  0  0  0
   37.9560   24.8950   34.7730 N   0  0  0  0  0  0  0  0  0  0  0  0
   38.2120   25.2780   36.0470 C   0  0  0  0  0  0  0  0  0  0  0  0
   38.3090   26.5820   36.3640 N   0  0  0  0  0  0  0  0  0  0  0  0
   38.2290   28.5740   35.6460 H   0  0  0  0  0  0  0  0  0  0  0  0
   37.7630   27.9150   33.3170 H   0  0  0  0  0  0  0  0  0  0  0  0
   37.5890   25.4660   32.7720 H   0  0  0  0  0  0  0  0  0  0  0  0
   38.3490   24.2100   36.9260 O   0  0  0  0  0  0  0  0  0  0  0  0
   38.9530   21.9050   35.8620 O   0  0  0  0  0  0  0  0  0  0  0  0
   39.5170   22.9960   36.7640 P   0  0  2  0  0  0  0  0  0  0  0  0
   39.9000   22.2490   38.2190 O   0  0  0  0  0  0  0  0  0  0  0  0
   39.2580   21.5570   38.5000 H   0  0  0  0  0  0  0  0  0  0  0  0
   40.9430   23.5120   36.0450 O   0  0  0  0  0  0  0  0  0  0  0  0
   42.0720   23.0260   36.7080 C   0  0  0  0  0  3  0  0  0  0  0  0
   43.1290   22.2600   36.0470 C   0  0  0  0  0  2  0  0  0  0  0  0
   43.4000   23.6750   36.4280 C   0  0  0  0  0  2  0  0  0  0  0  0
  1  7  1  0  0  0  0
  1  6  1  0  0  0  0
  2  1  2  0  0  0  0
  3  2  1  0  0  0  0
  3  4  2  0  0  0  0
  4  5  1  0  0  0  0
  5  6  2  0  0  0  0
  5 10  1  0  0  0  0
  8  2  1  0  0  0  0
  9  3  1  0  0  0  0
 12 11  2  6  0  0  0
 12 10  1  0  0  0  0
 12 13  1  0  0  0  0
 13 14  1  0  0  0  0
 15 16  1  0  0  0  0
 15 12  1  0  0  0  0
 17 18  1  0  0  0  0
 17 16  1  0  0  0  0
 18 16  1  0  0  0  0
M  END
>  <minimizedAffinity>
-3.90607882

$$$$

 OpenBabel03272505443D

 18 19  0  0  0  0  0  0  0  0999 V2000
   39.8060   22.8370   37.6030 C   0  0  0  0  0  0  0  0  0  0  0  0
   38.9370   23.3640   38.6100 C   0  0  0  0  0  0  0  0  0  0  0  0
   37.8440   24.1300   38.1920 C   0  0  0  0  0  0  0  0  0  0  0  0
   37.6530   24.3410   36.8670 N   0  0  0  0  0  0  0  0  0  0  0  0
   38.4950   23.8270   35.9390 C   0  0  0  0  0  0  0  0  0  0  0  0
   39.5550   23.0850   36.3110 N   0  0  0  0  0  0  0  0  0  0  0  0
   40.6330   22.2560   37.9360 H   0  0  0  0  0  0  0  0  0  0  0  0
   39.1220   23.1750   39.6520 H   0  0  0  0  0  0  0  0  0  0  0  0
   37.1540   24.5540   38.9100 H   0  0  0  0  0  0  0  0  0  0  0  0
   38.1390   24.1470   34.6340 O   0  0  0  0  0  0  0  0  0  0  0  0
   39.2280   26.4340   34.0070 O   0  0  0  0  0  0  0  0  0  0  0  0
   37.8800   25.7270   34.0850 P   0  0  2  0  0  0  0  0  0  0  0  0
   36.9310   26.6420   35.1270 O   0  0  0  0  0  0  0  0  0  0  0  0
   37.4200   27.0170   35.8950 H   0  0  0  0  0  0  0  0  0  0  0  0
   37.2110   25.8150   32.5480 O   0  0  0  0  0  0  0  0  0  0  0  0
   36.6660   24.5950   32.1420 C   0  0  0  0  0  3  0  0  0  0  0  0
   35.5900   24.4800   31.1570 C   0  0  0  0  0  2  0  0  0  0  0  0
   36.9750   24.1010   30.7550 C   0  0  0  0  0  2  0  0  0  0  0  0
  1  7  1  0  0  0  0
  1  2  1  0  0  0  0
  2  8  1  0  0  0  0
  3  2  2  0  0  0  0
  3  9  1  0  0  0  0
  4  3  1  0  0  0  0
  5  6  1  0  0  0  0
  5  4  2  0  0  0  0
  6  1  2  0  0  0  0
 10  5  1  0  0  0  0
 12 11  2  6  0  0  0
 12 10  1  0  0  0  0
 12 13  1  0  0  0  0
 13 14  1  0  0  0  0
 15 12  1  0  0  0  0
 16 15  1  0  0  0  0
 17 16  1  0  0  0  0
 18 17  1  0  0  0  0
 18 16  1  0  0  0  0
M  END
>  <minimizedAffinity>
-3.80671787

$$$$

 OpenBabel03272505443D

 18 19  0  0  0  0  0  0  0  0999 V2000
   42.5910   20.7550   37.1580 C   0  0  0  0  0  0  0  0  0  0  0  0
   43.4050   21.4850   36.2350 C   0  0  0  0  0  0  0  0  0  0  0  0
   42.9720   22.7570   35.8480 C   0  0  0  0  0  0  0  0  0  0  0  0
   41.8130   23.2430   36.3550 N   0  0  0  0  0  0  0  0  0  0  0  0
   41.0650   22.5260   37.2280 C   0  0  0  0  0  0  0  0  0  0  0  0
   41.4570   21.2990   37.6190 N   0  0  0  0  0  0  0  0  0  0  0  0
   42.9340   19.7900   37.4440 H   0  0  0  0  0  0  0  0  0  0  0  0
   44.3190   21.0660   35.8550 H   0  0  0  0  0  0  0  0  0  0  0  0
   43.5470   23.3540   35.1530 H   0  0  0  0  0  0  0  0  0  0  0  0
   39.9130   23.1870   37.6390 O   0  0  0  0  0  0  0  0  0  0  0  0
   37.3310   23.5630   37.6730 O   0  0  0  0  0  0  0  0  0  0  0  0
   38.4880   23.2580   36.7300 P   0  0  2  0  0  0  0  0  0  0  0  0
   38.1090   21.8020   35.9810 O   0  0  0  0  0  0  0  0  0  0  0  0
   37.6690   21.1470   36.5700 H   0  0  0  0  0  0  0  0  0  0  0  0
   38.4810   24.4670   35.5650 O   0  0  0  0  0  0  0  0  0  0  0  0
   37.8730   25.6360   36.0260 C   0  0  0  0  0  3  0  0  0  0  0  0
   38.5300   26.9440   36.0200 C   0  0  0  0  0  2  0  0  0  0  0  0
   37.4610   26.6730   35.0170 C   0  0  0  0  0  2  0  0  0  0  0  0
  1  7  1  0  0  0  0
  1  6  1  0  0  0  0
  2  1  2  0  0  0  0
  3  2  1  0  0  0  0
  3  4  2  0  0  0  0
  4  5  1  0  0  0  0
  5  6  2  0  0  0  0
  5 10  1  0  0  0  0
  8  2  1  0  0  0  0
  9  3  1  0  0  0  0
 12 10  1  0  0  0  0
 12 11  2  1  0  0  0
 13 14  1  0  0  0  0
 13 12  1  0  0  0  0
 15 16  1  0  0  0  0
 15 12  1  0  0  0  0
 17 16  1  0  0  0  0
 18 17  1  0  0  0  0
 18 16  1  0  0  0  0
M  END
>  <minimizedAffinity>
-3.7917521

$$$$

 OpenBabel03272505443D

 18 19  0  0  0  0  0  0  0  0999 V2000
   40.1700   22.6610   37.7360 C   0  0  0  0  0  0  0  0  0  0  0  0
   39.0170   23.2460   38.3490 C   0  0  0  0  0  0  0  0  0  0  0  0
   37.8520   23.3490   37.5820 C   0  0  0  0  0  0  0  0  0  0  0  0
   37.8600   22.8980   36.3040 N   0  0  0  0  0  0  0  0  0  0  0  0
   38.9690   22.3490   35.7540 C   0  0  0  0  0  0  0  0  0  0  0  0
   40.1050   22.2350   36.4680 N   0  0  0  0  0  0  0  0  0  0  0  0
   41.0480   22.5880   38.3320 H   0  0  0  0  0  0  0  0  0  0  0  0
   39.0490   23.5920   39.3670 H   0  0  0  0  0  0  0  0  0  0  0  0
   36.9510   23.7830   37.9930 H   0  0  0  0  0  0  0  0  0  0  0  0
   38.7880   21.9430   34.4360 O   0  0  0  0  0  0  0  0  0  0  0  0
   39.0680   22.9170   32.0320 O   0  0  0  0  0  0  0  0  0  0  0  0
   38.1240   22.9250   33.2280 P   0  0  2  0  0  0  0  0  0  0  0  0
   37.9700   24.5320   33.6920 O   0  0  0  0  0  0  0  0  0  0  0  0
   38.8030   25.0540   33.6220 H   0  0  0  0  0  0  0  0  0  0  0  0
   36.6360   22.3950   32.6590 O   0  0  0  0  0  0  0  0  0  0  0  0
   36.4310   21.0370   32.9100 C   0  0  0  0  0  3  0  0  0  0  0  0
   35.5750   20.5350   33.9860 C   0  0  0  0  0  2  0  0  0  0  0  0
   35.0880   20.4440   32.5800 C   0  0  0  0  0  2  0  0  0  0  0  0
  1  7  1  0  0  0  0
  1  2  1  0  0  0  0
  2  8  1  0  0  0  0
  3  9  1  0  0  0  0
  3  2  2  0  0  0  0
  4  3  1  0  0  0  0
  5  4  2  0  0  0  0
  5  6  1  0  0  0  0
  6  1  2  0  0  0  0
 10  5  1  0  0  0  0
 12 11  2  6  0  0  0
 12 13  1  0  0  0  0
 12 10  1  0  0  0  0
 14 13  1  0  0  0  0
 15 16  1  0  0  0  0
 15 12  1  0  0  0  0
 16 17  1  0  0  0  0
 18 16  1  0  0  0  0
 18 17  1  0  0  0  0
M  END
>  <minimizedAffinity>
-3.75594592

$$$$

 OpenBabel03272505443D

 18 19  0  0  0  0  0  0  0  0999 V2000
   36.9240   23.0430   32.2000 C   0  0  0  0  0  0  0  0  0  0  0  0
   35.9030   23.6000   31.3660 C   0  0  0  0  0  0  0  0  0  0  0  0
   35.7560   24.9910   31.3570 C   0  0  0  0  0  0  0  0  0  0  0  0
   36.5750   25.7470   32.1270 N   0  0  0  0  0  0  0  0  0  0  0  0
   37.5320   25.1880   32.9060 C   0  0  0  0  0  0  0  0  0  0  0  0
   37.6980   23.8520   32.9350 N   0  0  0  0  0  0  0  0  0  0  0  0
   37.0250   21.9840   32.1960 H   0  0  0  0  0  0  0  0  0  0  0  0
   35.2730   22.9670   30.7680 H   0  0  0  0  0  0  0  0  0  0  0  0
   35.0010   25.4670   30.7460 H   0  0  0  0  0  0  0  0  0  0  0  0
   38.2730   26.1200   33.6230 O   0  0  0  0  0  0  0  0  0  0  0  0
   36.6880   27.7210   34.9380 O   0  0  0  0  0  0  0  0  0  0  0  0
   37.8210   26.7230   35.1380 P   0  0  2  0  0  0  0  0  0  0  0  0
   39.0550   27.5640   35.9100 O   0  0  0  0  0  0  0  0  0  0  0  0
   39.1650   28.4930   35.6010 H   0  0  0  0  0  0  0  0  0  0  0  0
   37.2410   25.5540   36.1940 O   0  0  0  0  0  0  0  0  0  0  0  0
   38.2310   24.6400   36.5610 C   0  0  0  0  0  3  0  0  0  0  0  0
   38.2270   23.9140   37.8320 C   0  0  0  0  0  2  0  0  0  0  0  0
   37.8810   23.1770   36.5830 C   0  0  0  0  0  2  0  0  0  0  0  0
  1  6  1  0  0  0  0
  2  1  2  0  0  0  0
  3  2  1  0  0  0  0
  3  4  2  0  0  0  0
  4  5  1  0  0  0  0
  5  6  2  0  0  0  0
  5 10  1  0  0  0  0
  7  1  1  0  0  0  0
  8  2  1  0  0  0  0
  9  3  1  0  0  0  0
 10 12  1  0  0  0  0
 12 11  2  6  0  0  0
 12 13  1  0  0  0  0
 12 15  1  0  0  0  0
 14 13  1  0  0  0  0
 15 16  1  0  0  0  0
 16 18  1  0  0  0  0
 16 17  1  0  0  0  0
 18 17  1  0  0  0  0
M  END
>  <minimizedAffinity>
-3.70343995

$$$$

 OpenBabel03272505443D

 18 19  0  0  0  0  0  0  0  0999 V2000
   36.9530   28.9030   31.4890 C   0  0  0  0  0  0  0  0  0  0  0  0
   36.1680   30.0420   31.8520 C   0  0  0  0  0  0  0  0  0  0  0  0
   35.6110   30.0690   33.1350 C   0  0  0  0  0  0  0  0  0  0  0  0
   35.8340   29.0280   33.9740 N   0  0  0  0  0  0  0  0  0  0  0  0
   36.5820   27.9630   33.5980 C   0  0  0  0  0  0  0  0  0  0  0  0
   37.1320   27.9100   32.3710 N   0  0  0  0  0  0  0  0  0  0  0  0
   37.3700   28.8970   30.5110 H   0  0  0  0  0  0  0  0  0  0  0  0
   36.0140   30.8500   31.1590 H   0  0  0  0  0  0  0  0  0  0  0  0
   35.0090   30.9050   33.4640 H   0  0  0  0  0  0  0  0  0  0  0  0
   36.7000   26.9950   34.5890 O   0  0  0  0  0  0  0  0  0  0  0  0
   37.9380   25.3220   36.1640 O   0  0  0  0  0  0  0  0  0  0  0  0
   38.1600   26.5860   35.3420 P   0  0  2  0  0  0  0  0  0  0  0  0
   38.6990   27.7570   36.4200 O   0  0  0  0  0  0  0  0  0  0  0  0
   38.2640   27.7240   37.3030 H   0  0  0  0  0  0  0  0  0  0  0  0
   39.4070   26.2410   34.2720 O   0  0  0  0  0  0  0  0  0  0  0  0
   40.6440   26.6770   34.7500 C   0  0  0  0  0  3  0  0  0  0  0  0
   41.8800   25.9040   34.6130 C   0  0  0  0  0  2  0  0  0  0  0  0
   41.6850   27.1050   33.7520 C   0  0  0  0  0  2  0  0  0  0  0  0
  1  2  2  0  0  0  0
  1  6  1  0  0  0  0
  2  3  1  0  0  0  0
  3  9  1  0  0  0  0
  3  4  2  0  0  0  0
  5  4  1  0  0  0  0
  5 10  1  0  0  0  0
  6  5  2  0  0  0  0
  7  1  1  0  0  0  0
  8  2  1  0  0  0  0
 10 12  1  0  0  0  0
 12 11  2  1  0  0  0
 12 13  1  0  0  0  0
 13 14  1  0  0  0  0
 15 16  1  0  0  0  0
 15 12  1  0  0  0  0
 17 16  1  0  0  0  0
 18 17  1  0  0  0  0
 18 16  1  0  0  0  0
M  END
>  <minimizedAffinity>
-3.66448951

$$$$

 OpenBabel03272505443D

 18 19  0  0  0  0  0  0  0  0999 V2000
   36.6990   23.6660   31.9900 C   0  0  0  0  0  0  0  0  0  0  0  0
   35.7210   24.2880   31.1510 C   0  0  0  0  0  0  0  0  0  0  0  0
   35.5870   25.6790   31.2270 C   0  0  0  0  0  0  0  0  0  0  0  0
   36.3780   26.3730   32.0800 N   0  0  0  0  0  0  0  0  0  0  0  0
   37.2950   25.7520   32.8610 C   0  0  0  0  0  0  0  0  0  0  0  0
   37.4470   24.4160   32.8090 N   0  0  0  0  0  0  0  0  0  0  0  0
   36.7900   22.6080   31.9210 H   0  0  0  0  0  0  0  0  0  0  0  0
   35.1120   23.7030   30.4860 H   0  0  0  0  0  0  0  0  0  0  0  0
   34.8640   26.2030   30.6160 H   0  0  0  0  0  0  0  0  0  0  0  0
   38.0120   26.6260   33.6700 O   0  0  0  0  0  0  0  0  0  0  0  0
   37.4310   25.4940   35.9480 O   0  0  0  0  0  0  0  0  0  0  0  0
   38.5440   26.2490   35.2310 P   0  0  2  0  0  0  0  0  0  0  0  0
   38.8650   27.6070   36.1670 O   0  0  0  0  0  0  0  0  0  0  0  0
   38.0660   28.0210   36.5670 H   0  0  0  0  0  0  0  0  0  0  0  0
   39.8930   25.2500   35.2710 O   0  0  0  0  0  0  0  0  0  0  0  0
   39.6090   24.0060   35.8370 C   0  0  0  0  0  3  0  0  0  0  0  0
   39.7550   22.7400   35.1160 C   0  0  0  0  0  2  0  0  0  0  0  0
   40.7580   23.0900   36.1620 C   0  0  0  0  0  2  0  0  0  0  0  0
  1  6  1  0  0  0  0
  2  3  1  0  0  0  0
  2  1  2  0  0  0  0
  3  4  2  0  0  0  0
  4  5  1  0  0  0  0
  5 10  1  0  0  0  0
  6  5  2  0  0  0  0
  7  1  1  0  0  0  0
  8  2  1  0  0  0  0
  9  3  1  0  0  0  0
 10 12  1  0  0  0  0
 12 15  1  0  0  0  0
 12 11  2  1  0  0  0
 12 13  1  0  0  0  0
 13 14  1  0  0  0  0
 15 16  1  0  0  0  0
 16 18  1  0  0  0  0
 17 16  1  0  0  0  0
 17 18  1  0  0  0  0
M  END
>  <minimizedAffinity>
-3.60756469

$$$$

 OpenBabel03272505443D

 18 19  0  0  0  0  0  0  0  0999 V2000
   37.2680   27.9270   31.4210 C   0  0  0  0  0  0  0  0  0  0  0  0
   36.2290   28.9020   31.2960 C   0  0  0  0  0  0  0  0  0  0  0  0
   35.5270   29.2580   32.4520 C   0  0  0  0  0  0  0  0  0  0  0  0
   35.8550   28.6750   33.6310 N   0  0  0  0  0  0  0  0  0  0  0  0
   36.8450   27.7550   33.7140 C   0  0  0  0  0  0  0  0  0  0  0  0
   37.5380   27.3920   32.6190 N   0  0  0  0  0  0  0  0  0  0  0  0
   37.7940   27.6660   30.5330 H   0  0  0  0  0  0  0  0  0  0  0  0
   35.9980   29.3430   30.3430 H   0  0  0  0  0  0  0  0  0  0  0  0
   34.7310   29.9900   32.4170 H   0  0  0  0  0  0  0  0  0  0  0  0
   37.0380   27.2680   35.0020 O   0  0  0  0  0  0  0  0  0  0  0  0
   39.6000   27.0180   35.4290 O   0  0  0  0  0  0  0  0  0  0  0  0
   38.2980   26.2270   35.4410 P   0  0  2  0  0  0  0  0  0  0  0  0
   38.5130   24.9570   34.3620 O   0  0  0  0  0  0  0  0  0  0  0  0
   39.0250   25.1940   33.5550 H   0  0  0  0  0  0  0  0  0  0  0  0
   38.1480   25.5870   36.9860 O   0  0  0  0  0  0  0  0  0  0  0  0
   38.0100   24.1970   36.9670 C   0  0  0  0  0  3  0  0  0  0  0  0
   39.0580   23.2760   37.4070 C   0  0  0  0  0  2  0  0  0  0  0  0
   37.8670   23.4760   38.2800 C   0  0  0  0  0  2  0  0  0  0  0  0
  1  6  1  0  0  0  0
  2  1  2  0  0  0  0
  2  3  1  0  0  0  0
  3  4  2  0  0  0  0
  4  5  1  0  0  0  0
  5 10  1  0  0  0  0
  6  5  2  0  0  0  0
  7  1  1  0  0  0  0
  8  2  1  0  0  0  0
  9  3  1  0  0  0  0
 10 12  1  0  0  0  0
 12 11  2  6  0  0  0
 12 15  1  0  0  0  0
 13 12  1  0  0  0  0
 14 13  1  0  0  0  0
 16 15  1  0  0  0  0
 16 17  1  0  0  0  0
 16 18  1  0  0  0  0
 17 18  1  0  0  0  0
M  END
>  <minimizedAffinity>
-3.60265112

$$$$
