
 OpenBabel03272509573D

 40 43  0  0  0  0  0  0  0  0999 V2000
   35.0270   28.3450   49.5550 O   0  0  0  0  0  0  0  0  0  0  0  0
   37.3870   30.1980   51.5770 C   0  0  0  0  0  0  0  0  0  0  0  0
   38.0910   30.8810   50.5590 C   0  0  0  0  0  0  0  0  0  0  0  0
   37.7120   30.6640   49.2450 C   0  0  0  0  0  0  0  0  0  0  0  0
   36.6710   29.7900   49.0530 N   0  0  0  0  0  0  0  0  0  0  0  0
   36.0210   29.1560   50.0240 C   0  0  0  0  0  0  0  0  0  0  0  0
   36.3920   29.3700   51.3040 N   0  0  0  0  0  0  0  0  0  0  0  0
   37.7020   30.3860   52.5970 H   0  0  0  0  0  0  0  0  0  0  0  0
   38.9070   31.5650   50.7250 H   0  0  0  0  0  0  0  0  0  0  0  0
   38.9630   33.2670   49.0330 F   0  0  0  0  0  0  0  0  0  0  0  0
   38.9010   32.4870   47.9710 C   0  0  0  0  0  0  0  0  0  0  0  0
   38.3140   31.2710   48.0800 C   0  0  0  0  0  0  0  0  0  0  0  0
   38.2990   30.5260   46.9040 C   0  0  0  0  0  0  0  0  0  0  0  0
   38.8450   31.0010   45.7310 C   0  0  0  0  0  0  0  0  0  0  0  0
   39.4280   32.2390   45.6670 C   0  0  0  0  0  0  0  0  0  0  0  0
   39.4520   32.9830   46.8070 C   0  0  0  0  0  0  0  0  0  0  0  0
   37.8650   29.5370   46.8400 H   0  0  0  0  0  0  0  0  0  0  0  0
   38.8260   30.4100   44.8210 H   0  0  0  0  0  0  0  0  0  0  0  0
   39.8670   32.6390   44.7520 H   0  0  0  0  0  0  0  0  0  0  0  0
   39.9100   33.9580   46.7670 H   0  0  0  0  0  0  0  0  0  0  0  0
   34.5420   28.5380   48.2380 C   0  0  0  0  0  0  0  0  0  0  0  0
   34.0630   29.5250   48.1860 H   0  0  0  0  0  0  0  0  0  0  0  0
   35.4020   28.4140   47.5340 H   0  0  0  0  0  0  0  0  0  0  0  0
   33.5240   27.4920   47.8780 C   0  0  0  0  0  0  0  0  0  0  0  0
   33.8820   26.8210   47.0590 H   0  0  0  0  0  0  0  0  0  0  0  0
   33.3540   26.8380   48.7380 H   0  0  0  0  0  0  0  0  0  0  0  0
   32.2270   28.1030   47.4530 C   0  0  0  0  0  0  0  0  0  0  0  0
   31.0790   27.6820   48.0960 C   0  0  0  0  0  0  0  0  0  0  0  0
   29.8410   28.1770   47.7840 C   0  0  0  0  0  0  0  0  0  0  0  0
   29.7340   29.0940   46.8330 N   0  0  0  0  0  0  0  0  0  0  0  0
   30.8620   29.5060   46.2040 C   0  0  0  0  0  0  0  0  0  0  0  0
   32.0900   29.0320   46.4930 N   0  0  0  0  0  0  0  0  0  0  0  0
   31.1560   26.9340   48.8740 H   0  0  0  0  0  0  0  0  0  0  0  0
   28.9730   27.7930   48.3390 H   0  0  0  0  0  0  0  0  0  0  0  0
   30.7280   30.5460   45.1260 C   0  0  0  0  0  0  0  0  0  0  0  0
   29.7300   31.0440   45.2100 H   0  0  0  0  0  0  0  0  0  0  0  0
   30.8000   30.0600   44.1180 H   0  0  0  0  0  0  0  0  0  0  0  0
   31.8030   31.5780   45.2090 C   0  0  0  0  0  3  0  0  0  0  0  0
   32.2530   32.0880   43.8240 C   0  0  0  0  0  2  0  0  0  0  0  0
   31.6100   32.9850   44.8330 C   0  0  0  0  0  2  0  0  0  0  0  0
  1  6  1  0  0  0  0
  2  8  1  0  0  0  0
  3  9  1  0  0  0  0
  3  2  2  0  0  0  0
  4  3  1  0  0  0  0
  5  4  2  0  0  0  0
  5  6  1  0  0  0  0
  6  7  2  0  0  0  0
  7  2  1  0  0  0  0
 11 12  1  0  0  0  0
 11 10  1  0  0  0  0
 12  4  1  0  0  0  0
 13 12  2  0  0  0  0
 14 13  1  0  0  0  0
 15 14  2  0  0  0  0
 15 16  1  0  0  0  0
 16 11  2  0  0  0  0
 17 13  1  0  0  0  0
 18 14  1  0  0  0  0
 19 15  1  0  0  0  0
 20 16  1  0  0  0  0
 21  1  1  0  0  0  0
 22 21  1  0  0  0  0
 23 21  1  0  0  0  0
 24 21  1  0  0  0  0
 24 26  1  0  0  0  0
 25 24  1  0  0  0  0
 27 24  1  0  0  0  0
 27 28  1  0  0  0  0
 28 33  1  0  0  0  0
 29 28  2  0  0  0  0
 29 34  1  0  0  0  0
 30 29  1  0  0  0  0
 31 32  1  0  0  0  0
 31 30  2  0  0  0  0
 32 27  2  0  0  0  0
 35 38  1  0  0  0  0
 35 36  1  0  0  0  0
 35 31  1  0  0  0  0
 37 35  1  0  0  0  0
 39 40  1  0  0  0  0
 39 38  1  0  0  0  0
 40 38  1  0  0  0  0
M  END
>  <minimizedAffinity>
-6.19080687

>  <minimizedRMSD>
1.19913924

$$$$
