
 OpenBabel03262520223D

 17 18  0  0  0  0  0  0  0  0999 V2000
   40.5300   23.8230   35.3550 C   0  0  0  0  0  0  0  0  0  0  0  0
   39.3490   24.1970   36.0410 C   0  0  0  0  0  0  0  0  0  0  0  0
   39.0080   23.5120   37.1990 C   0  0  0  0  0  0  0  0  0  0  0  0
   39.8510   22.5160   37.5940 N   0  0  0  0  0  0  0  0  0  0  0  0
   40.9650   22.1630   36.9480 C   0  0  0  0  0  0  0  0  0  0  0  0
   41.2850   22.8360   35.8250 N   0  0  0  0  0  0  0  0  0  0  0  0
   41.7140   21.0930   37.5210 N   0  0  0  0  0  0  0  0  0  0  0  0
   40.8820   24.2780   34.4650 H   0  0  0  0  0  0  0  0  0  0  0  0
   41.9670   20.1860   37.0920 H   0  0  0  0  0  0  0  0  0  0  0  0
   42.0620   21.2330   38.5130 H   0  0  0  0  0  0  0  0  0  0  0  0
   37.7800   23.8910   37.9250 C   0  0  0  0  0  0  0  0  0  0  0  0
   38.0610   24.9880   38.6500 F   0  0  0  0  0  0  0  0  0  0  0  0
   36.7110   24.1200   37.0870 F   0  0  0  0  0  0  0  0  0  0  0  0
   37.3860   22.8730   38.8190 F   0  0  0  0  0  0  0  0  0  0  0  0
   38.5430   25.3080   35.4690 C   0  0  0  0  0  3  0  0  0  0  0  0
   39.0780   26.2800   34.5020 C   0  0  0  0  0  2  0  0  0  0  0  0
   38.9490   26.7000   35.8970 C   0  0  0  0  0  2  0  0  0  0  0  0
  1  6  2  0  0  0  0
  1  2  1  0  0  0  0
  2  3  2  0  0  0  0
  3  4  1  0  0  0  0
  3 11  1  0  0  0  0
  5  7  1  0  0  0  0
  5  4  2  0  0  0  0
  6  5  1  0  0  0  0
  7 10  1  0  0  0  0
  8  1  1  0  0  0  0
  9  7  1  0  0  0  0
 11 12  1  0  0  0  0
 11 14  1  0  0  0  0
 13 11  1  0  0  0  0
 15 17  1  0  0  0  0
 15  2  1  0  0  0  0
 16 15  1  0  0  0  0
 16 17  1  0  0  0  0
M  END
>  <minimizedAffinity>
-4.52718639

$$$$

 OpenBabel03262520223D

 17 18  0  0  0  0  0  0  0  0999 V2000
   38.6520   24.7460   34.4180 C   0  0  0  0  0  0  0  0  0  0  0  0
   38.5110   23.9040   35.5480 C   0  0  0  0  0  0  0  0  0  0  0  0
   38.2930   24.4880   36.7870 C   0  0  0  0  0  0  0  0  0  0  0  0
   38.2280   25.8490   36.8240 N   0  0  0  0  0  0  0  0  0  0  0  0
   38.3610   26.6440   35.7590 C   0  0  0  0  0  0  0  0  0  0  0  0
   38.5730   26.0650   34.5600 N   0  0  0  0  0  0  0  0  0  0  0  0
   38.2640   28.0460   36.0030 N   0  0  0  0  0  0  0  0  0  0  0  0
   38.8220   24.4080   33.4280 H   0  0  0  0  0  0  0  0  0  0  0  0
   38.9680   28.7800   35.8130 H   0  0  0  0  0  0  0  0  0  0  0  0
   37.3590   28.3930   36.4330 H   0  0  0  0  0  0  0  0  0  0  0  0
   38.1430   23.6220   37.9740 C   0  0  0  0  0  0  0  0  0  0  0  0
   37.9740   24.4240   39.0400 F   0  0  0  0  0  0  0  0  0  0  0  0
   37.0990   22.7320   37.8610 F   0  0  0  0  0  0  0  0  0  0  0  0
   39.3090   22.8570   38.1920 F   0  0  0  0  0  0  0  0  0  0  0  0
   38.6090   22.4370   35.3290 C   0  0  0  0  0  3  0  0  0  0  0  0
   38.6920   21.8220   33.9930 C   0  0  0  0  0  2  0  0  0  0  0  0
   37.4050   21.7880   34.6880 C   0  0  0  0  0  2  0  0  0  0  0  0
  1  6  2  0  0  0  0
  1  2  1  0  0  0  0
  2  3  2  0  0  0  0
  3  4  1  0  0  0  0
  3 11  1  0  0  0  0
  5  7  1  0  0  0  0
  5  4  2  0  0  0  0
  6  5  1  0  0  0  0
  7 10  1  0  0  0  0
  8  1  1  0  0  0  0
  9  7  1  0  0  0  0
 11 14  1  0  0  0  0
 11 12  1  0  0  0  0
 13 11  1  0  0  0  0
 15  2  1  0  0  0  0
 16 17  1  0  0  0  0
 16 15  1  0  0  0  0
 17 15  1  0  0  0  0
M  END
>  <minimizedAffinity>
-4.33474398

$$$$

 OpenBabel03262520223D

 17 18  0  0  0  0  0  0  0  0999 V2000
   38.2050   23.0580   35.0220 C   0  0  0  0  0  0  0  0  0  0  0  0
   38.1990   24.4680   34.8880 C   0  0  0  0  0  0  0  0  0  0  0  0
   38.2970   25.2450   36.0330 C   0  0  0  0  0  0  0  0  0  0  0  0
   38.3950   24.5820   37.2200 N   0  0  0  0  0  0  0  0  0  0  0  0
   38.4000   23.2530   37.3480 C   0  0  0  0  0  0  0  0  0  0  0  0
   38.3040   22.5080   36.2280 N   0  0  0  0  0  0  0  0  0  0  0  0
   38.5090   22.7470   38.6780 N   0  0  0  0  0  0  0  0  0  0  0  0
   38.1340   22.3730   34.2170 H   0  0  0  0  0  0  0  0  0  0  0  0
   37.8490   22.1320   39.1850 H   0  0  0  0  0  0  0  0  0  0  0  0
   39.3710   23.0310   39.2250 H   0  0  0  0  0  0  0  0  0  0  0  0
   38.2930   26.7160   35.9080 C   0  0  0  0  0  0  0  0  0  0  0  0
   38.2530   27.2280   37.1510 F   0  0  0  0  0  0  0  0  0  0  0  0
   39.3820   27.1990   35.2160 F   0  0  0  0  0  0  0  0  0  0  0  0
   37.1440   27.1620   35.2210 F   0  0  0  0  0  0  0  0  0  0  0  0
   38.0850   25.0280   33.5150 C   0  0  0  0  0  3  0  0  0  0  0  0
   38.2380   24.2170   32.2950 C   0  0  0  0  0  2  0  0  0  0  0  0
   39.3640   25.0540   32.7090 C   0  0  0  0  0  2  0  0  0  0  0  0
  1  6  1  0  0  0  0
  2  1  2  0  0  0  0
  2  3  1  0  0  0  0
  3  4  2  0  0  0  0
  4  5  1  0  0  0  0
  5  7  1  0  0  0  0
  6  5  2  0  0  0  0
  7  9  1  0  0  0  0
  7 10  1  0  0  0  0
  8  1  1  0  0  0  0
 11  3  1  0  0  0  0
 11 12  1  0  0  0  0
 13 11  1  0  0  0  0
 14 11  1  0  0  0  0
 15  2  1  0  0  0  0
 16 17  1  0  0  0  0
 16 15  1  0  0  0  0
 17 15  1  0  0  0  0
M  END
>  <minimizedAffinity>
-4.26283646

$$$$

 OpenBabel03262520223D

 17 18  0  0  0  0  0  0  0  0999 V2000
   39.5910   27.1280   32.1220 C   0  0  0  0  0  0  0  0  0  0  0  0
   38.5770   27.1330   33.1110 C   0  0  0  0  0  0  0  0  0  0  0  0
   38.9540   27.1590   34.4470 C   0  0  0  0  0  0  0  0  0  0  0  0
   40.2910   27.1790   34.7080 N   0  0  0  0  0  0  0  0  0  0  0  0
   41.2470   27.1750   33.7760 C   0  0  0  0  0  0  0  0  0  0  0  0
   40.8690   27.1490   32.4820 N   0  0  0  0  0  0  0  0  0  0  0  0
   42.5920   27.1980   34.2520 N   0  0  0  0  0  0  0  0  0  0  0  0
   39.4160   27.1090   31.0770 H   0  0  0  0  0  0  0  0  0  0  0  0
   43.3430   26.5070   34.0830 H   0  0  0  0  0  0  0  0  0  0  0  0
   42.8690   28.0230   34.8560 H   0  0  0  0  0  0  0  0  0  0  0  0
   37.9080   27.1650   35.4890 C   0  0  0  0  0  0  0  0  0  0  0  0
   37.3210   28.3740   35.4650 F   0  0  0  0  0  0  0  0  0  0  0  0
   36.9760   26.1650   35.3190 F   0  0  0  0  0  0  0  0  0  0  0  0
   38.4700   26.9840   36.7710 F   0  0  0  0  0  0  0  0  0  0  0  0
   37.1640   27.1080   32.6490 C   0  0  0  0  0  3  0  0  0  0  0  0
   36.7630   27.3810   31.2590 C   0  0  0  0  0  2  0  0  0  0  0  0
   36.5810   28.4430   32.2490 C   0  0  0  0  0  2  0  0  0  0  0  0
  1  6  2  0  0  0  0
  1  2  1  0  0  0  0
  2  3  2  0  0  0  0
  3  4  1  0  0  0  0
  3 11  1  0  0  0  0
  5  7  1  0  0  0  0
  5  4  2  0  0  0  0
  6  5  1  0  0  0  0
  7 10  1  0  0  0  0
  8  1  1  0  0  0  0
  9  7  1  0  0  0  0
 11 14  1  0  0  0  0
 12 11  1  0  0  0  0
 13 11  1  0  0  0  0
 15  2  1  0  0  0  0
 16 17  1  0  0  0  0
 16 15  1  0  0  0  0
 17 15  1  0  0  0  0
M  END
>  <minimizedAffinity>
-4.15336132

$$$$

 OpenBabel03262520223D

 17 18  0  0  0  0  0  0  0  0999 V2000
   39.5120   27.0560   32.0240 C   0  0  0  0  0  0  0  0  0  0  0  0
   38.9300   27.1520   33.3120 C   0  0  0  0  0  0  0  0  0  0  0  0
   37.5710   27.4180   33.4070 C   0  0  0  0  0  0  0  0  0  0  0  0
   36.8900   27.5690   32.2370 N   0  0  0  0  0  0  0  0  0  0  0  0
   37.4380   27.4780   31.0230 C   0  0  0  0  0  0  0  0  0  0  0  0
   38.7590   27.2200   30.9420 N   0  0  0  0  0  0  0  0  0  0  0  0
   36.5570   27.6680   29.9170 N   0  0  0  0  0  0  0  0  0  0  0  0
   40.5360   26.8580   31.8360 H   0  0  0  0  0  0  0  0  0  0  0  0
   36.6140   28.3780   29.1660 H   0  0  0  0  0  0  0  0  0  0  0  0
   35.7340   27.0030   29.8440 H   0  0  0  0  0  0  0  0  0  0  0  0
   36.9510   27.5210   34.7430 C   0  0  0  0  0  0  0  0  0  0  0  0
   35.7670   28.1400   34.5920 F   0  0  0  0  0  0  0  0  0  0  0  0
   36.7880   26.2980   35.3540 F   0  0  0  0  0  0  0  0  0  0  0  0
   37.7400   28.3070   35.6090 F   0  0  0  0  0  0  0  0  0  0  0  0
   39.8220   26.9610   34.4860 C   0  0  0  0  0  3  0  0  0  0  0  0
   41.1810   26.4030   34.3880 C   0  0  0  0  0  2  0  0  0  0  0  0
   40.1100   25.5270   34.8640 C   0  0  0  0  0  2  0  0  0  0  0  0
  1  2  1  0  0  0  0
  2  3  2  0  0  0  0
  2 15  1  0  0  0  0
  3 11  1  0  0  0  0
  4  3  1  0  0  0  0
  5  4  2  0  0  0  0
  6  5  1  0  0  0  0
  6  1  2  0  0  0  0
  7  5  1  0  0  0  0
  8  1  1  0  0  0  0
  9  7  1  0  0  0  0
 10  7  1  0  0  0  0
 11 13  1  0  0  0  0
 11 14  1  0  0  0  0
 12 11  1  0  0  0  0
 15 17  1  0  0  0  0
 16 15  1  0  0  0  0
 16 17  1  0  0  0  0
M  END
>  <minimizedAffinity>
-4.14668941

$$$$

 OpenBabel03262520223D

 17 18  0  0  0  0  0  0  0  0999 V2000
   37.8820   24.1990   33.3000 C   0  0  0  0  0  0  0  0  0  0  0  0
   38.0290   25.4770   33.8940 C   0  0  0  0  0  0  0  0  0  0  0  0
   38.2040   25.5530   35.2690 C   0  0  0  0  0  0  0  0  0  0  0  0
   38.2220   24.3740   35.9530 N   0  0  0  0  0  0  0  0  0  0  0  0
   38.0830   23.1700   35.3940 C   0  0  0  0  0  0  0  0  0  0  0  0
   37.9130   23.1080   34.0570 N   0  0  0  0  0  0  0  0  0  0  0  0
   38.1280   22.0540   36.2800 N   0  0  0  0  0  0  0  0  0  0  0  0
   37.7430   24.0260   32.2640 H   0  0  0  0  0  0  0  0  0  0  0  0
   37.4030   21.3330   36.4410 H   0  0  0  0  0  0  0  0  0  0  0  0
   39.0120   21.9360   36.8530 H   0  0  0  0  0  0  0  0  0  0  0  0
   38.3590   26.8780   35.9020 C   0  0  0  0  0  0  0  0  0  0  0  0
   38.2370   26.7080   37.2300 F   0  0  0  0  0  0  0  0  0  0  0  0
   39.5590   27.4810   35.5950 F   0  0  0  0  0  0  0  0  0  0  0  0
   37.3410   27.7600   35.4850 F   0  0  0  0  0  0  0  0  0  0  0  0
   37.9850   26.6620   32.9980 C   0  0  0  0  0  3  0  0  0  0  0  0
   38.1380   26.5760   31.5360 C   0  0  0  0  0  2  0  0  0  0  0  0
   39.2880   27.0220   32.3220 C   0  0  0  0  0  2  0  0  0  0  0  0
  1  2  2  0  0  0  0
  1  6  1  0  0  0  0
  2  3  1  0  0  0  0
  3 11  1  0  0  0  0
  3  4  2  0  0  0  0
  5  4  1  0  0  0  0
  5  7  1  0  0  0  0
  6  5  2  0  0  0  0
  7  9  1  0  0  0  0
  7 10  1  0  0  0  0
  8  1  1  0  0  0  0
 11 12  1  0  0  0  0
 13 11  1  0  0  0  0
 14 11  1  0  0  0  0
 15  2  1  0  0  0  0
 16 17  1  0  0  0  0
 16 15  1  0  0  0  0
 17 15  1  0  0  0  0
M  END
>  <minimizedAffinity>
-4.11506319

$$$$

 OpenBabel03262520223D

 17 18  0  0  0  0  0  0  0  0999 V2000
   37.7570   21.9690   34.0970 C   0  0  0  0  0  0  0  0  0  0  0  0
   37.1170   21.5290   32.9120 C   0  0  0  0  0  0  0  0  0  0  0  0
   35.9320   20.8160   33.0240 C   0  0  0  0  0  0  0  0  0  0  0  0
   35.4650   20.5910   34.2850 N   0  0  0  0  0  0  0  0  0  0  0  0
   36.0680   21.0060   35.4020 C   0  0  0  0  0  0  0  0  0  0  0  0
   37.2190   21.6970   35.2810 N   0  0  0  0  0  0  0  0  0  0  0  0
   35.4220   20.6700   36.6280 N   0  0  0  0  0  0  0  0  0  0  0  0
   38.6630   22.5170   34.1270 H   0  0  0  0  0  0  0  0  0  0  0  0
   35.7960   20.1160   37.4190 H   0  0  0  0  0  0  0  0  0  0  0  0
   34.4330   21.0270   36.7590 H   0  0  0  0  0  0  0  0  0  0  0  0
   35.2530   20.3510   31.7970 C   0  0  0  0  0  0  0  0  0  0  0  0
   36.0810   19.4910   31.1790 F   0  0  0  0  0  0  0  0  0  0  0  0
   34.0340   19.7610   32.0490 F   0  0  0  0  0  0  0  0  0  0  0  0
   35.0110   21.4260   30.9150 F   0  0  0  0  0  0  0  0  0  0  0  0
   37.7650   21.8610   31.6160 C   0  0  0  0  0  3  0  0  0  0  0  0
   38.9060   22.7830   31.4950 C   0  0  0  0  0  2  0  0  0  0  0  0
   37.5790   23.2810   31.1350 C   0  0  0  0  0  2  0  0  0  0  0  0
  1  8  1  0  0  0  0
  1  6  1  0  0  0  0
  2  3  1  0  0  0  0
  2  1  2  0  0  0  0
  3  4  2  0  0  0  0
  4  5  1  0  0  0  0
  5  7  1  0  0  0  0
  6  5  2  0  0  0  0
  7 10  1  0  0  0  0
  7  9  1  0  0  0  0
 11 13  1  0  0  0  0
 11  3  1  0  0  0  0
 12 11  1  0  0  0  0
 14 11  1  0  0  0  0
 15  2  1  0  0  0  0
 16 15  1  0  0  0  0
 17 16  1  0  0  0  0
 17 15  1  0  0  0  0
M  END
>  <minimizedAffinity>
-4.09985828

$$$$

 OpenBabel03262520223D

 17 18  0  0  0  0  0  0  0  0999 V2000
   38.1110   23.8160   33.6800 C   0  0  0  0  0  0  0  0  0  0  0  0
   38.5120   24.7090   34.7040 C   0  0  0  0  0  0  0  0  0  0  0  0
   38.0590   26.0200   34.6550 C   0  0  0  0  0  0  0  0  0  0  0  0
   37.2500   26.3530   33.6100 N   0  0  0  0  0  0  0  0  0  0  0  0
   36.8730   25.5120   32.6440 C   0  0  0  0  0  0  0  0  0  0  0  0
   37.3190   24.2410   32.7020 N   0  0  0  0  0  0  0  0  0  0  0  0
   36.0230   26.0520   31.6340 N   0  0  0  0  0  0  0  0  0  0  0  0
   38.3980   22.7980   33.6190 H   0  0  0  0  0  0  0  0  0  0  0  0
   36.1910   26.1030   30.6140 H   0  0  0  0  0  0  0  0  0  0  0  0
   35.0970   26.4570   31.9570 H   0  0  0  0  0  0  0  0  0  0  0  0
   38.4680   26.9620   35.7160 C   0  0  0  0  0  0  0  0  0  0  0  0
   37.8290   28.1240   35.4930 F   0  0  0  0  0  0  0  0  0  0  0  0
   38.2000   26.4920   36.9820 F   0  0  0  0  0  0  0  0  0  0  0  0
   39.8550   27.2160   35.6600 F   0  0  0  0  0  0  0  0  0  0  0  0
   39.4000   24.1780   35.7710 C   0  0  0  0  0  3  0  0  0  0  0  0
   39.7000   22.7460   35.9360 C   0  0  0  0  0  2  0  0  0  0  0  0
   38.7200   23.3510   36.8380 C   0  0  0  0  0  2  0  0  0  0  0  0
  1  2  1  0  0  0  0
  2 15  1  0  0  0  0
  3  2  2  0  0  0  0
  3 11  1  0  0  0  0
  4  3  1  0  0  0  0
  5  6  1  0  0  0  0
  5  4  2  0  0  0  0
  6  1  2  0  0  0  0
  7 10  1  0  0  0  0
  7  5  1  0  0  0  0
  8  1  1  0  0  0  0
  9  7  1  0  0  0  0
 11 13  1  0  0  0  0
 12 11  1  0  0  0  0
 14 11  1  0  0  0  0
 15 16  1  0  0  0  0
 15 17  1  0  0  0  0
 16 17  1  0  0  0  0
M  END
>  <minimizedAffinity>
-4.06529045

$$$$

 OpenBabel03262520223D

 17 18  0  0  0  0  0  0  0  0999 V2000
   38.1750   25.7560   36.1590 C   0  0  0  0  0  0  0  0  0  0  0  0
   38.0380   24.3500   36.2630 C   0  0  0  0  0  0  0  0  0  0  0  0
   38.2080   23.5810   35.1200 C   0  0  0  0  0  0  0  0  0  0  0  0
   38.4980   24.2470   33.9680 N   0  0  0  0  0  0  0  0  0  0  0  0
   38.6270   25.5720   33.8690 C   0  0  0  0  0  0  0  0  0  0  0  0
   38.4600   26.3090   34.9850 N   0  0  0  0  0  0  0  0  0  0  0  0
   38.9330   26.0810   32.5720 N   0  0  0  0  0  0  0  0  0  0  0  0
   38.0660   26.4350   36.9650 H   0  0  0  0  0  0  0  0  0  0  0  0
   38.3910   26.7550   32.0040 H   0  0  0  0  0  0  0  0  0  0  0  0
   39.8280   25.7330   32.1230 H   0  0  0  0  0  0  0  0  0  0  0  0
   38.0680   22.1140   35.2140 C   0  0  0  0  0  0  0  0  0  0  0  0
   39.1390   21.6480   35.8800 F   0  0  0  0  0  0  0  0  0  0  0  0
   36.9010   21.7240   35.8310 F   0  0  0  0  0  0  0  0  0  0  0  0
   38.0680   21.5230   33.9320 F   0  0  0  0  0  0  0  0  0  0  0  0
   37.7170   23.7870   37.6010 C   0  0  0  0  0  3  0  0  0  0  0  0
   37.9190   24.5240   38.8590 C   0  0  0  0  0  2  0  0  0  0  0  0
   38.9020   23.5040   38.4950 C   0  0  0  0  0  2  0  0  0  0  0  0
  1  2  1  0  0  0  0
  1  8  1  0  0  0  0
  2 15  1  0  0  0  0
  3 11  1  0  0  0  0
  3  2  2  0  0  0  0
  4  3  1  0  0  0  0
  5  4  2  0  0  0  0
  5  6  1  0  0  0  0
  6  1  2  0  0  0  0
  7  5  1  0  0  0  0
  9  7  1  0  0  0  0
 10  7  1  0  0  0  0
 11 13  1  0  0  0  0
 11 12  1  0  0  0  0
 14 11  1  0  0  0  0
 15 17  1  0  0  0  0
 15 16  1  0  0  0  0
 17 16  1  0  0  0  0
M  END
>  <minimizedAffinity>
-3.9925468

$$$$
