
 OpenBabel03272508573D

 34 37  0  0  1  0  0  0  0  0999 V2000
   38.4070   31.8610   44.5340 C   0  0  0  0  0  0  0  0  0  0  0  0
   37.2990   32.4440   44.4100 O   0  0  0  0  0  0  0  0  0  0  0  0
   38.9510   31.5660   45.8340 N   0  0  0  0  0  0  0  0  0  0  0  0
   39.9370   31.2660   45.9990 H   0  0  0  0  0  0  0  0  0  0  0  0
   39.1780   31.4620   43.3490 C   0  0  0  0  0  0  0  0  0  0  0  0
   40.1700   30.5320   43.4930 C   0  0  0  0  0  0  0  0  0  0  0  0
   40.8910   30.1310   42.3810 C   0  0  0  0  0  0  0  0  0  0  0  0
   40.5610   30.7000   41.1900 C   0  0  0  0  0  0  0  0  0  0  0  0
   39.5620   31.6460   41.0150 C   0  0  0  0  0  0  0  0  0  0  0  0
   38.8940   31.9950   42.1420 N   0  0  0  0  0  0  0  0  0  0  0  0
   40.4500   30.0630   44.4450 H   0  0  0  0  0  0  0  0  0  0  0  0
   41.6860   29.4080   42.4020 H   0  0  0  0  0  0  0  0  0  0  0  0
   41.0970   30.4200   40.2810 H   0  0  0  0  0  0  0  0  0  0  0  0
   39.2760   32.2280   39.6990 C   0  0  0  0  0  0  0  0  0  0  0  0
   38.7170   33.3740   39.6800 O   0  0  0  0  0  0  0  0  0  0  0  0
   39.6740   31.4060   38.5130 C   0  0  0  0  0  3  0  0  0  0  0  0
   40.8580   32.0350   37.7480 C   0  0  0  0  0  2  0  0  0  0  0  0
   39.5190   31.9980   37.1440 C   0  0  0  0  0  2  0  0  0  0  0  0
   38.4220   31.1060   48.2200 C   0  0  2  0  0  0  0  0  0  0  0  0
   38.6800   32.5600   48.1130 C   0  0  0  0  0  0  0  0  0  0  0  0
   38.0700   31.6990   46.9710 C   0  0  1  0  0  0  0  0  0  0  0  0
   39.3630   30.5050   48.3170 H   0  0  0  0  0  0  0  0  0  0  0  0
   37.9680   33.2290   48.6470 H   0  0  0  0  0  0  0  0  0  0  0  0
   39.6990   32.9290   47.9810 H   0  0  0  0  0  0  0  0  0  0  0  0
   36.9910   31.9600   46.7560 H   0  0  0  0  0  0  0  0  0  0  0  0
   35.0690   30.2310   49.5190 C   0  0  0  0  0  0  0  0  0  0  0  0
   35.3930   29.5630   50.7350 C   0  0  0  0  0  0  0  0  0  0  0  0
   36.7870   29.4330   51.0990 C   0  0  0  0  0  0  0  0  0  0  0  0
   37.7410   29.9530   50.2630 N   0  0  0  0  0  0  0  0  0  0  0  0
   37.3480   30.5770   49.1170 C   0  0  0  0  0  0  0  0  0  0  0  0
   36.0280   30.7340   48.7130 N   0  0  0  0  0  0  0  0  0  0  0  0
   34.0140   30.2990   49.2950 H   0  0  0  0  0  0  0  0  0  0  0  0
   34.6180   29.1770   51.3480 H   0  0  0  0  0  0  0  0  0  0  0  0
   37.0210   28.9290   52.0150 H   0  0  0  0  0  0  0  0  0  0  0  0
  1  3  1  0  0  0  0
  2  1  2  0  0  0  0
  3  4  1  0  0  0  0
  3 21  1  0  0  0  0
  5  6  1  0  0  0  0
  5  1  1  0  0  0  0
  6 11  1  0  0  0  0
  7 12  1  0  0  0  0
  7  6  2  0  0  0  0
  8  7  1  0  0  0  0
  9  8  2  0  0  0  0
  9 10  1  0  0  0  0
 10  5  2  0  0  0  0
 13  8  1  0  0  0  0
 14  9  1  0  0  0  0
 15 14  2  0  0  0  0
 16 14  1  0  0  0  0
 17 16  1  0  0  0  0
 18 17  1  0  0  0  0
 18 16  1  0  0  0  0
 19 22  1  6  0  0  0
 19 30  1  0  0  0  0
 20 19  1  0  0  0  0
 20 23  1  0  0  0  0
 21 25  1  6  0  0  0
 21 20  1  0  0  0  0
 21 19  1  0  0  0  0
 24 20  1  0  0  0  0
 26 27  1  0  0  0  0
 27 28  2  0  0  0  0
 27 33  1  0  0  0  0
 28 34  1  0  0  0  0
 29 28  1  0  0  0  0
 30 29  2  0  0  0  0
 31 30  1  0  0  0  0
 31 26  2  0  0  0  0
 32 26  1  0  0  0  0
M  END
>  <minimizedAffinity>
-4.90592909

>  <minimizedRMSD>
0.1768599

$$$$
