
 OpenBabel03272506323D

 34 36  0  0  1  0  0  0  0  0999 V2000
   35.1580   30.1310   48.8690 C   0  0  1  0  0  0  0  0  0  0  0  0
   34.6410   30.1610   50.2200 C   0  0  0  0  0  0  0  0  0  0  0  0
   35.3990   29.3660   51.2630 C   0  0  0  0  0  0  0  0  0  0  0  0
   36.8760   29.3700   51.1140 C   0  0  0  0  0  0  0  0  0  0  0  0
   37.4350   29.3630   49.7310 C   0  0  0  0  0  0  0  0  0  0  0  0
   36.6660   30.2250   48.8020 C   0  0  2  0  0  0  0  0  0  0  0  0
   34.8400   31.0810   48.3310 H   0  0  0  0  0  0  0  0  0  0  0  0
   33.5710   29.9480   50.3180 H   0  0  0  0  0  0  0  0  0  0  0  0
   34.7330   31.2290   50.5930 H   0  0  0  0  0  0  0  0  0  0  0  0
   35.1450   29.7720   52.2640 H   0  0  0  0  0  0  0  0  0  0  0  0
   35.0290   28.3100   51.2600 H   0  0  0  0  0  0  0  0  0  0  0  0
   37.2560   28.4300   51.5990 H   0  0  0  0  0  0  0  0  0  0  0  0
   37.3170   30.1950   51.7140 H   0  0  0  0  0  0  0  0  0  0  0  0
   37.4370   28.3220   49.3520 H   0  0  0  0  0  0  0  0  0  0  0  0
   38.4590   29.7320   49.7740 H   0  0  0  0  0  0  0  0  0  0  0  0
   37.0700   30.1120   47.7950 H   0  0  0  0  0  0  0  0  0  0  0  0
   34.2800   27.7690   48.4480 C   0  0  0  0  0  0  0  0  0  0  0  0
   34.6410   29.0700   47.9870 C   0  0  0  0  0  0  0  0  0  0  0  0
   34.4730   29.2840   46.6370 C   0  0  0  0  0  0  0  0  0  0  0  0
   33.9870   28.2800   45.8410 N   0  0  0  0  0  0  0  0  0  0  0  0
   33.6620   27.0710   46.3270 C   0  0  0  0  0  0  0  0  0  0  0  0
   33.8120   26.8150   47.6550 N   0  0  0  0  0  0  0  0  0  0  0  0
   34.3910   27.5520   49.4790 H   0  0  0  0  0  0  0  0  0  0  0  0
   34.7050   30.2090   46.1690 H   0  0  0  0  0  0  0  0  0  0  0  0
   33.2920   26.3790   45.5830 H   0  0  0  0  0  0  0  0  0  0  0  0
   36.9730   31.6730   49.2670 C   0  0  0  0  0  0  0  0  0  0  0  0
   36.7760   31.7970   50.3410 H   0  0  0  0  0  0  0  0  0  0  0  0
   36.3600   32.4120   48.7360 H   0  0  0  0  0  0  0  0  0  0  0  0
   38.4420   31.9980   49.0220 C   0  0  0  0  0  0  0  0  0  0  0  0
   39.0880   31.4800   49.7310 H   0  0  0  0  0  0  0  0  0  0  0  0
   38.7360   31.8170   47.9740 H   0  0  0  0  0  0  0  0  0  0  0  0
   38.5360   33.5160   49.2350 C   0  0  0  0  0  0  0  0  0  0  0  0
   39.6760   34.2380   48.5680 C   0  0  0  0  0  0  0  0  0  0  0  0
   39.5970   34.0930   50.0580 C   0  0  0  0  0  0  0  0  0  0  0  0
  1  7  1  6  0  0  0
  1  2  1  0  0  0  0
  2  8  1  0  0  0  0
  2  9  1  0  0  0  0
  2  3  1  0  0  0  0
  3 10  1  0  0  0  0
  4  3  1  0  0  0  0
  4 12  1  0  0  0  0
  4 13  1  0  0  0  0
  5 15  1  0  0  0  0
  5  4  1  0  0  0  0
  6 16  1  6  0  0  0
  6  1  1  0  0  0  0
  6 26  1  0  0  0  0
  6  5  1  0  0  0  0
 11  3  1  0  0  0  0
 14  5  1  0  0  0  0
 17 23  1  0  0  0  0
 18 17  1  0  0  0  0
 18  1  1  0  0  0  0
 19 18  2  0  0  0  0
 20 21  2  0  0  0  0
 20 19  1  0  0  0  0
 21 22  1  0  0  0  0
 22 17  2  0  0  0  0
 24 19  1  0  0  0  0
 25 21  1  0  0  0  0
 26 27  1  0  0  0  0
 28 26  1  0  0  0  0
 29 32  1  0  0  0  0
 29 26  1  0  0  0  0
 29 30  1  0  0  0  0
 31 29  1  0  0  0  0
 32 34  1  0  0  0  0
 33 32  1  0  0  0  0
 33 34  1  0  0  0  0
M  END
>  <minimizedAffinity>
-5.62306547

>  <minimizedRMSD>
1.11267722

$$$$
