
 OpenBabel03272510043D

 31 33  0  0  0  0  0  0  0  0999 V2000
   36.3180   30.6030   45.1560 C   0  0  0  0  0  0  0  0  0  0  0  0
   35.9140   30.3730   46.4330 C   0  0  0  0  0  0  0  0  0  0  0  0
   34.6280   29.9040   46.6830 C   0  0  0  0  0  0  0  0  0  0  0  0
   33.7170   29.6580   45.6730 C   0  0  0  0  0  0  0  0  0  0  0  0
   34.0870   29.8820   44.3710 C   0  0  0  0  0  0  0  0  0  0  0  0
   35.3630   30.3430   44.1600 C   0  0  0  0  0  0  0  0  0  0  0  0
   34.3320   29.7250   47.7260 H   0  0  0  0  0  0  0  0  0  0  0  0
   32.7600   29.3010   45.9670 H   0  0  0  0  0  0  0  0  0  0  0  0
   33.3510   29.6790   43.6390 H   0  0  0  0  0  0  0  0  0  0  0  0
   35.5310   30.4840   43.0830 H   0  0  0  0  0  0  0  0  0  0  0  0
   38.5430   31.9280   48.4810 C   0  0  0  0  0  0  0  0  0  0  0  0
   37.6890   31.6430   47.4280 C   0  0  0  0  0  0  0  0  0  0  0  0
   36.7630   30.6430   47.5400 C   0  0  0  0  0  0  0  0  0  0  0  0
   36.7270   29.9640   48.7190 N   0  0  0  0  0  0  0  0  0  0  0  0
   37.5470   30.2400   49.7390 C   0  0  0  0  0  0  0  0  0  0  0  0
   38.4520   31.2170   49.6120 N   0  0  0  0  0  0  0  0  0  0  0  0
   39.3170   32.6630   48.5600 H   0  0  0  0  0  0  0  0  0  0  0  0
   37.9410   32.3610   46.6860 H   0  0  0  0  0  0  0  0  0  0  0  0
   37.3460   29.4640   50.9910 C   0  0  0  0  0  0  0  0  0  0  0  0
   37.5730   30.2290   52.1180 F   0  0  0  0  0  0  0  0  0  0  0  0
   35.9400   29.1420   51.1140 F   0  0  0  0  0  0  0  0  0  0  0  0
   37.9370   28.2940   51.0740 F   0  0  0  0  0  0  0  0  0  0  0  0
   37.8760   31.1390   44.7170 S   0  0  0  0  0  0  0  0  0  0  0  0
   38.0590   32.5880   45.0370 O   0  0  0  0  0  0  0  0  0  0  0  0
   37.6490   31.3370   43.2370 O   0  0  0  0  0  0  0  0  0  0  0  0
   39.2120   30.1900   44.3020 C   0  0  0  0  0  0  0  0  0  0  0  0
   39.9530   30.6240   43.6250 H   0  0  0  0  0  0  0  0  0  0  0  0
   39.8300   30.1030   45.2610 H   0  0  0  0  0  0  0  0  0  0  0  0
   38.8990   28.7480   44.0130 C   0  0  0  0  0  3  0  0  0  0  0  0
   39.6770   28.2160   42.7900 C   0  0  0  0  0  2  0  0  0  0  0  0
   38.1700   28.3510   42.7870 C   0  0  0  0  0  2  0  0  0  0  0  0
  1  2  1  0  0  0  0
  2  3  2  0  0  0  0
  2 13  1  0  0  0  0
  3  7  1  0  0  0  0
  4  8  1  0  0  0  0
  4  3  1  0  0  0  0
  5  4  2  0  0  0  0
  6  5  1  0  0  0  0
  6  1  2  0  0  0  0
  9  5  1  0  0  0  0
 10  6  1  0  0  0  0
 11 17  1  0  0  0  0
 11 16  1  0  0  0  0
 12 13  1  0  0  0  0
 12 11  2  0  0  0  0
 13 14  2  0  0  0  0
 14 15  1  0  0  0  0
 15 19  1  0  0  0  0
 16 15  2  0  0  0  0
 18 12  1  0  0  0  0
 19 22  1  0  0  0  0
 19 21  1  0  0  0  0
 19 20  1  0  0  0  0
 23 24  2  0  0  0  0
 23  1  1  0  0  0  0
 25 23  2  0  0  0  0
 26 23  1  0  0  0  0
 26 28  1  0  0  0  0
 27 26  1  0  0  0  0
 29 26  1  0  0  0  0
 30 29  1  0  0  0  0
 31 30  1  0  0  0  0
 31 29  1  0  0  0  0
M  END
>  <minimizedAffinity>
-5.52789783

>  <minimizedRMSD>
1.86380029

$$$$
