
 OpenBabel03272508593D

 34 37  0  0  1  0  0  0  0  0999 V2000
   37.0220   26.4980   32.8010 C   0  0  0  0  0  0  0  0  0  0  0  0
   37.6950   26.1460   33.8040 O   0  0  0  0  0  0  0  0  0  0  0  0
   36.7420   25.5760   31.7320 N   0  0  0  0  0  0  0  0  0  0  0  0
   36.3640   25.8580   30.8020 H   0  0  0  0  0  0  0  0  0  0  0  0
   36.5010   27.8670   32.6940 C   0  0  0  0  0  0  0  0  0  0  0  0
   36.5280   28.4880   31.4750 C   0  0  0  0  0  0  0  0  0  0  0  0
   36.0210   29.7700   31.3550 C   0  0  0  0  0  0  0  0  0  0  0  0
   35.5180   30.3470   32.4800 C   0  0  0  0  0  0  0  0  0  0  0  0
   35.4800   29.7430   33.7280 C   0  0  0  0  0  0  0  0  0  0  0  0
   35.9910   28.4880   33.7780 N   0  0  0  0  0  0  0  0  0  0  0  0
   36.9300   28.0390   30.5570 H   0  0  0  0  0  0  0  0  0  0  0  0
   36.0020   30.3310   30.4380 H   0  0  0  0  0  0  0  0  0  0  0  0
   35.1050   31.3550   32.4420 H   0  0  0  0  0  0  0  0  0  0  0  0
   34.9360   30.4360   34.9010 C   0  0  0  0  0  0  0  0  0  0  0  0
   33.6740   30.3800   35.0750 O   0  0  0  0  0  0  0  0  0  0  0  0
   35.9310   31.1390   35.7720 C   0  0  0  0  0  3  0  0  0  0  0  0
   35.3130   32.3600   36.4850 C   0  0  0  0  0  2  0  0  0  0  0  0
   36.3180   32.5450   35.4300 C   0  0  0  0  0  2  0  0  0  0  0  0
   36.3510   23.1800   31.1890 C   0  0  2  0  0  0  0  0  0  0  0  0
   37.7450   23.4860   30.7920 C   0  0  0  0  0  0  0  0  0  0  0  0
   37.0060   24.1760   31.9740 C   0  0  1  0  0  0  0  0  0  0  0  0
   35.6040   23.4750   30.4080 H   0  0  0  0  0  0  0  0  0  0  0  0
   38.5160   22.7350   31.0780 H   0  0  0  0  0  0  0  0  0  0  0  0
   37.9440   24.0830   29.9000 H   0  0  0  0  0  0  0  0  0  0  0  0
   37.4420   23.9020   32.9810 H   0  0  0  0  0  0  0  0  0  0  0  0
   35.4280   19.6130   31.5270 C   0  0  0  0  0  0  0  0  0  0  0  0
   35.3990   19.4510   32.9430 C   0  0  0  0  0  0  0  0  0  0  0  0
   35.6930   20.6000   33.7730 C   0  0  0  0  0  0  0  0  0  0  0  0
   35.9890   21.7950   33.1690 N   0  0  0  0  0  0  0  0  0  0  0  0
   35.9960   21.8650   31.8080 C   0  0  0  0  0  0  0  0  0  0  0  0
   35.7220   20.8000   30.9570 N   0  0  0  0  0  0  0  0  0  0  0  0
   35.2020   18.7240   30.9560 H   0  0  0  0  0  0  0  0  0  0  0  0
   35.1650   18.5060   33.3620 H   0  0  0  0  0  0  0  0  0  0  0  0
   35.6680   20.4700   34.8350 H   0  0  0  0  0  0  0  0  0  0  0  0
  1  2  2  0  0  0  0
  3 21  1  0  0  0  0
  3  1  1  0  0  0  0
  4  3  1  0  0  0  0
  5  1  1  0  0  0  0
  5 10  1  0  0  0  0
  6  5  2  0  0  0  0
  7  6  1  0  0  0  0
  7  8  2  0  0  0  0
  8  9  1  0  0  0  0
  9 10  2  0  0  0  0
  9 14  1  0  0  0  0
 11  6  1  0  0  0  0
 12  7  1  0  0  0  0
 13  8  1  0  0  0  0
 14 15  2  0  0  0  0
 14 16  1  0  0  0  0
 16 17  1  0  0  0  0
 18 16  1  0  0  0  0
 18 17  1  0  0  0  0
 19 22  1  6  0  0  0
 19 30  1  0  0  0  0
 19 21  1  0  0  0  0
 20 23  1  0  0  0  0
 20 19  1  0  0  0  0
 20 21  1  0  0  0  0
 21 25  1  1  0  0  0
 24 20  1  0  0  0  0
 26 27  1  0  0  0  0
 27 33  1  0  0  0  0
 27 28  2  0  0  0  0
 28 34  1  0  0  0  0
 29 28  1  0  0  0  0
 30 29  2  0  0  0  0
 31 26  2  0  0  0  0
 31 30  1  0  0  0  0
 32 26  1  0  0  0  0
M  END
>  <minimizedAffinity>
-5.48732281

$$$$

 OpenBabel03272508593D

 34 37  0  0  1  0  0  0  0  0999 V2000
   35.7220   25.2700   31.1980 C   0  0  0  0  0  0  0  0  0  0  0  0
   34.5760   25.4050   30.6950 O   0  0  0  0  0  0  0  0  0  0  0  0
   36.4610   26.4070   31.6810 N   0  0  0  0  0  0  0  0  0  0  0  0
   37.4760   26.3830   31.9240 H   0  0  0  0  0  0  0  0  0  0  0  0
   36.3390   23.9420   31.3050 C   0  0  0  0  0  0  0  0  0  0  0  0
   37.5430   23.7240   30.6940 C   0  0  0  0  0  0  0  0  0  0  0  0
   38.1460   22.4840   30.8040 C   0  0  0  0  0  0  0  0  0  0  0  0
   37.4900   21.5360   31.5280 C   0  0  0  0  0  0  0  0  0  0  0  0
   36.2680   21.7280   32.1560 C   0  0  0  0  0  0  0  0  0  0  0  0
   35.7310   22.9640   32.0100 N   0  0  0  0  0  0  0  0  0  0  0  0
   38.0870   24.4760   30.1060 H   0  0  0  0  0  0  0  0  0  0  0  0
   39.0890   22.2260   30.3570 H   0  0  0  0  0  0  0  0  0  0  0  0
   37.9200   20.5410   31.6470 H   0  0  0  0  0  0  0  0  0  0  0  0
   35.6120   20.6510   32.9060 C   0  0  0  0  0  0  0  0  0  0  0  0
   35.6160   20.7440   34.1780 O   0  0  0  0  0  0  0  0  0  0  0  0
   35.0050   19.5530   32.0890 C   0  0  0  0  0  3  0  0  0  0  0  0
   35.3250   18.1580   32.6690 C   0  0  0  0  0  2  0  0  0  0  0  0
   35.9160   18.5870   31.3940 C   0  0  0  0  0  2  0  0  0  0  0  0
   36.0820   28.5450   32.8940 C   0  0  2  0  0  0  0  0  0  0  0  0
   36.6320   28.8990   31.5650 C   0  0  0  0  0  0  0  0  0  0  0  0
   35.7430   27.6520   31.8340 C   0  0  1  0  0  0  0  0  0  0  0  0
   36.8800   28.2710   33.6330 H   0  0  0  0  0  0  0  0  0  0  0  0
   36.1330   29.7410   31.0330 H   0  0  0  0  0  0  0  0  0  0  0  0
   37.6880   28.7330   31.3440 H   0  0  0  0  0  0  0  0  0  0  0  0
   34.7280   27.7230   31.3410 H   0  0  0  0  0  0  0  0  0  0  0  0
   32.7640   30.0100   33.6270 C   0  0  0  0  0  0  0  0  0  0  0  0
   33.0560   30.8510   34.7400 C   0  0  0  0  0  0  0  0  0  0  0  0
   34.4200   30.9090   35.2200 C   0  0  0  0  0  0  0  0  0  0  0  0
   35.3760   30.1540   34.5910 N   0  0  0  0  0  0  0  0  0  0  0  0
   35.0140   29.3740   33.5340 C   0  0  0  0  0  0  0  0  0  0  0  0
   33.7240   29.2760   33.0260 N   0  0  0  0  0  0  0  0  0  0  0  0
   31.7310   30.0040   33.3100 H   0  0  0  0  0  0  0  0  0  0  0  0
   32.2820   31.4160   35.1920 H   0  0  0  0  0  0  0  0  0  0  0  0
   34.6310   31.5450   36.0560 H   0  0  0  0  0  0  0  0  0  0  0  0
  1  5  1  0  0  0  0
  1  3  1  0  0  0  0
  2  1  2  0  0  0  0
  3 21  1  0  0  0  0
  3  4  1  0  0  0  0
  5 10  1  0  0  0  0
  6  7  1  0  0  0  0
  6  5  2  0  0  0  0
  7  8  2  0  0  0  0
  8 13  1  0  0  0  0
  8  9  1  0  0  0  0
  9 14  1  0  0  0  0
 10  9  2  0  0  0  0
 11  6  1  0  0  0  0
 12  7  1  0  0  0  0
 14 15  2  0  0  0  0
 16 17  1  0  0  0  0
 16 14  1  0  0  0  0
 18 16  1  0  0  0  0
 18 17  1  0  0  0  0
 19 30  1  0  0  0  0
 19 22  1  1  0  0  0
 20 21  1  0  0  0  0
 20 19  1  0  0  0  0
 21 25  1  6  0  0  0
 21 19  1  0  0  0  0
 23 20  1  0  0  0  0
 24 20  1  0  0  0  0
 26 27  1  0  0  0  0
 27 33  1  0  0  0  0
 27 28  2  0  0  0  0
 28 34  1  0  0  0  0
 29 28  1  0  0  0  0
 30 29  2  0  0  0  0
 31 30  1  0  0  0  0
 31 26  2  0  0  0  0
 32 26  1  0  0  0  0
M  END
>  <minimizedAffinity>
-5.31058264

$$$$

 OpenBabel03272508593D

 34 37  0  0  1  0  0  0  0  0999 V2000
   38.0190   26.7500   33.2980 C   0  0  0  0  0  0  0  0  0  0  0  0
   39.0080   27.0070   34.0320 O   0  0  0  0  0  0  0  0  0  0  0  0
   37.7700   25.4150   32.8240 N   0  0  0  0  0  0  0  0  0  0  0  0
   37.0910   25.1810   32.0670 H   0  0  0  0  0  0  0  0  0  0  0  0
   37.0870   27.8150   32.9030 C   0  0  0  0  0  0  0  0  0  0  0  0
   37.0330   28.1870   31.5870 C   0  0  0  0  0  0  0  0  0  0  0  0
   36.1440   29.1730   31.1970 C   0  0  0  0  0  0  0  0  0  0  0  0
   35.3630   29.7240   32.1660 C   0  0  0  0  0  0  0  0  0  0  0  0
   35.3980   29.3680   33.5060 C   0  0  0  0  0  0  0  0  0  0  0  0
   36.2890   28.3960   33.8220 N   0  0  0  0  0  0  0  0  0  0  0  0
   37.6550   27.7550   30.7930 H   0  0  0  0  0  0  0  0  0  0  0  0
   36.0350   29.5260   30.1880 H   0  0  0  0  0  0  0  0  0  0  0  0
   34.6450   30.5050   31.9140 H   0  0  0  0  0  0  0  0  0  0  0  0
   34.5350   30.0200   34.4970 C   0  0  0  0  0  0  0  0  0  0  0  0
   33.5360   29.3530   34.9270 O   0  0  0  0  0  0  0  0  0  0  0  0
   34.9250   31.4090   34.9000 C   0  0  0  0  0  3  0  0  0  0  0  0
   36.0680   31.4100   35.9370 C   0  0  0  0  0  2  0  0  0  0  0  0
   34.7140   31.8300   36.3220 C   0  0  0  0  0  2  0  0  0  0  0  0
   37.9970   23.6890   34.6010 C   0  0  2  0  0  0  0  0  0  0  0  0
   37.7990   22.9640   33.3240 C   0  0  0  0  0  0  0  0  0  0  0  0
   38.5140   24.3400   33.4410 C   0  0  1  0  0  0  0  0  0  0  0  0
   37.0320   24.0290   35.0600 H   0  0  0  0  0  0  0  0  0  0  0  0
   38.4640   22.0880   33.1440 H   0  0  0  0  0  0  0  0  0  0  0  0
   36.8150   22.9410   32.8510 H   0  0  0  0  0  0  0  0  0  0  0  0
   39.6190   24.2800   33.2070 H   0  0  0  0  0  0  0  0  0  0  0  0
   40.9150   22.0330   36.1610 C   0  0  0  0  0  0  0  0  0  0  0  0
   40.6840   22.2790   37.5460 C   0  0  0  0  0  0  0  0  0  0  0  0
   39.4980   23.0150   37.9260 C   0  0  0  0  0  0  0  0  0  0  0  0
   38.6450   23.4490   36.9440 N   0  0  0  0  0  0  0  0  0  0  0  0
   38.9390   23.1730   35.6420 C   0  0  0  0  0  0  0  0  0  0  0  0
   40.0600   22.4710   35.2140 N   0  0  0  0  0  0  0  0  0  0  0  0
   41.8150   21.4790   35.9340 H   0  0  0  0  0  0  0  0  0  0  0  0
   41.3740   21.9220   38.2680 H   0  0  0  0  0  0  0  0  0  0  0  0
   39.3320   23.1950   38.9690 H   0  0  0  0  0  0  0  0  0  0  0  0
  1  2  2  0  0  0  0
  3  1  1  0  0  0  0
  3 21  1  0  0  0  0
  4  3  1  0  0  0  0
  5  1  1  0  0  0  0
  5 10  1  0  0  0  0
  6  5  2  0  0  0  0
  7  6  1  0  0  0  0
  7  8  2  0  0  0  0
  8  9  1  0  0  0  0
  9 10  2  0  0  0  0
  9 14  1  0  0  0  0
 11  6  1  0  0  0  0
 12  7  1  0  0  0  0
 13  8  1  0  0  0  0
 14 16  1  0  0  0  0
 14 15  2  0  0  0  0
 16 17  1  0  0  0  0
 16 18  1  0  0  0  0
 17 18  1  0  0  0  0
 19 22  1  1  0  0  0
 19 30  1  0  0  0  0
 20 21  1  0  0  0  0
 20 19  1  0  0  0  0
 21 25  1  6  0  0  0
 21 19  1  0  0  0  0
 23 20  1  0  0  0  0
 24 20  1  0  0  0  0
 26 27  1  0  0  0  0
 27 28  2  0  0  0  0
 27 33  1  0  0  0  0
 28 34  1  0  0  0  0
 29 28  1  0  0  0  0
 30 29  2  0  0  0  0
 31 30  1  0  0  0  0
 31 26  2  0  0  0  0
 32 26  1  0  0  0  0
M  END
>  <minimizedAffinity>
-5.21941233

$$$$

 OpenBabel03272508593D

 34 37  0  0  1  0  0  0  0  0999 V2000
   37.8850   25.0000   35.1030 C   0  0  0  0  0  0  0  0  0  0  0  0
   37.2110   26.0430   35.3050 O   0  0  0  0  0  0  0  0  0  0  0  0
   38.0360   24.4570   33.7790 N   0  0  0  0  0  0  0  0  0  0  0  0
   38.4130   23.5040   33.5780 H   0  0  0  0  0  0  0  0  0  0  0  0
   38.5390   24.3050   36.2190 C   0  0  0  0  0  0  0  0  0  0  0  0
   37.9520   24.3470   37.4540 C   0  0  0  0  0  0  0  0  0  0  0  0
   38.5460   23.6800   38.5110 C   0  0  0  0  0  0  0  0  0  0  0  0
   39.7020   23.0090   38.2510 C   0  0  0  0  0  0  0  0  0  0  0  0
   40.3200   22.9510   37.0110 C   0  0  0  0  0  0  0  0  0  0  0  0
   39.6880   23.6250   36.0190 N   0  0  0  0  0  0  0  0  0  0  0  0
   37.0220   24.8830   37.6830 H   0  0  0  0  0  0  0  0  0  0  0  0
   38.1550   23.6600   39.5120 H   0  0  0  0  0  0  0  0  0  0  0  0
   40.2120   22.4660   39.0480 H   0  0  0  0  0  0  0  0  0  0  0  0
   41.5760   22.2210   36.8120 C   0  0  0  0  0  0  0  0  0  0  0  0
   41.7350   21.1450   37.4770 O   0  0  0  0  0  0  0  0  0  0  0  0
   42.5440   22.8240   35.8400 C   0  0  0  0  0  3  0  0  0  0  0  0
   43.9720   22.9010   36.4200 C   0  0  0  0  0  2  0  0  0  0  0  0
   43.1950   24.1270   36.1910 C   0  0  0  0  0  2  0  0  0  0  0  0
   38.3880   26.4620   32.3500 C   0  0  2  0  0  0  0  0  0  0  0  0
   38.6690   25.2800   31.5030 C   0  0  0  0  0  0  0  0  0  0  0  0
   37.6380   25.2910   32.6670 C   0  0  1  0  0  0  0  0  0  0  0  0
   39.2660   26.7620   32.9790 H   0  0  0  0  0  0  0  0  0  0  0  0
   38.2370   25.2930   30.4760 H   0  0  0  0  0  0  0  0  0  0  0  0
   39.5880   24.7080   31.6430 H   0  0  0  0  0  0  0  0  0  0  0  0
   36.5710   25.1910   32.3080 H   0  0  0  0  0  0  0  0  0  0  0  0
   37.3660   29.1370   30.0060 C   0  0  0  0  0  0  0  0  0  0  0  0
   36.3700   29.8210   30.7610 C   0  0  0  0  0  0  0  0  0  0  0  0
   36.0690   29.3470   32.0940 C   0  0  0  0  0  0  0  0  0  0  0  0
   36.7500   28.2600   32.5800 N   0  0  0  0  0  0  0  0  0  0  0  0
   37.6880   27.6610   31.7930 C   0  0  0  0  0  0  0  0  0  0  0  0
   38.0230   28.0690   30.5070 N   0  0  0  0  0  0  0  0  0  0  0  0
   37.5500   29.5330   29.0170 H   0  0  0  0  0  0  0  0  0  0  0  0
   35.8700   30.6570   30.3410 H   0  0  0  0  0  0  0  0  0  0  0  0
   35.3190   29.8670   32.6550 H   0  0  0  0  0  0  0  0  0  0  0  0
  1  2  2  0  0  0  0
  1  5  1  0  0  0  0
  3  1  1  0  0  0  0
  4  3  1  0  0  0  0
  5  6  1  0  0  0  0
  6 11  1  0  0  0  0
  6  7  2  0  0  0  0
  7 12  1  0  0  0  0
  8  7  1  0  0  0  0
  8 13  1  0  0  0  0
  9  8  2  0  0  0  0
 10  5  2  0  0  0  0
 10  9  1  0  0  0  0
 14  9  1  0  0  0  0
 14 15  2  0  0  0  0
 16 18  1  0  0  0  0
 16 17  1  0  0  0  0
 16 14  1  0  0  0  0
 18 17  1  0  0  0  0
 19 21  1  0  0  0  0
 19 22  1  1  0  0  0
 20 24  1  0  0  0  0
 20 19  1  0  0  0  0
 20 21  1  0  0  0  0
 21 25  1  6  0  0  0
 21  3  1  0  0  0  0
 23 20  1  0  0  0  0
 26 31  2  0  0  0  0
 26 27  1  0  0  0  0
 27 28  2  0  0  0  0
 28 29  1  0  0  0  0
 28 34  1  0  0  0  0
 30 19  1  0  0  0  0
 30 29  2  0  0  0  0
 31 30  1  0  0  0  0
 32 26  1  0  0  0  0
 33 27  1  0  0  0  0
M  END
>  <minimizedAffinity>
-5.21773481

$$$$

 OpenBabel03272508593D

 34 37  0  0  1  0  0  0  0  0999 V2000
   37.1200   27.0510   33.5000 C   0  0  0  0  0  0  0  0  0  0  0  0
   36.5620   26.6060   32.4640 O   0  0  0  0  0  0  0  0  0  0  0  0
   36.6880   28.2810   34.1080 N   0  0  0  0  0  0  0  0  0  0  0  0
   37.2280   28.7920   34.8410 H   0  0  0  0  0  0  0  0  0  0  0  0
   38.2350   26.3220   34.1190 C   0  0  0  0  0  0  0  0  0  0  0  0
   39.5000   26.8270   33.9960 C   0  0  0  0  0  0  0  0  0  0  0  0
   40.5570   26.1620   34.5930 C   0  0  0  0  0  0  0  0  0  0  0  0
   40.2660   25.0220   35.2780 C   0  0  0  0  0  0  0  0  0  0  0  0
   38.9940   24.4870   35.4180 C   0  0  0  0  0  0  0  0  0  0  0  0
   38.0040   25.1860   34.8110 N   0  0  0  0  0  0  0  0  0  0  0  0
   39.7530   27.7430   33.4470 H   0  0  0  0  0  0  0  0  0  0  0  0
   41.5810   26.4860   34.5470 H   0  0  0  0  0  0  0  0  0  0  0  0
   41.0610   24.4590   35.7680 H   0  0  0  0  0  0  0  0  0  0  0  0
   38.7610   23.2430   36.1590 C   0  0  0  0  0  0  0  0  0  0  0  0
   38.4820   22.2030   35.4750 O   0  0  0  0  0  0  0  0  0  0  0  0
   38.8780   23.3300   37.6490 C   0  0  0  0  0  3  0  0  0  0  0  0
   37.5260   23.0790   38.3500 C   0  0  0  0  0  2  0  0  0  0  0  0
   38.1340   24.4160   38.3650 C   0  0  0  0  0  2  0  0  0  0  0  0
   34.6960   29.7120   34.5240 C   0  0  2  0  0  0  0  0  0  0  0  0
   35.4820   30.3740   33.4570 C   0  0  0  0  0  0  0  0  0  0  0  0
   35.4270   28.8350   33.6690 C   0  0  1  0  0  0  0  0  0  0  0  0
   35.0760   29.9500   35.5520 H   0  0  0  0  0  0  0  0  0  0  0  0
   34.9050   30.7620   32.5870 H   0  0  0  0  0  0  0  0  0  0  0  0
   36.4150   30.8870   33.6990 H   0  0  0  0  0  0  0  0  0  0  0  0
   34.8950   28.2960   32.8290 H   0  0  0  0  0  0  0  0  0  0  0  0
   31.2310   29.2810   33.3000 C   0  0  0  0  0  0  0  0  0  0  0  0
   30.4690   29.6440   34.4480 C   0  0  0  0  0  0  0  0  0  0  0  0
   31.1750   30.0500   35.6440 C   0  0  0  0  0  0  0  0  0  0  0  0
   32.5460   30.0680   35.6290 N   0  0  0  0  0  0  0  0  0  0  0  0
   33.2010   29.7050   34.4900 C   0  0  0  0  0  0  0  0  0  0  0  0
   32.5800   29.3080   33.3110 N   0  0  0  0  0  0  0  0  0  0  0  0
   30.6530   28.9870   32.4360 H   0  0  0  0  0  0  0  0  0  0  0  0
   29.4090   29.6130   34.4110 H   0  0  0  0  0  0  0  0  0  0  0  0
   30.5950   30.3210   36.5020 H   0  0  0  0  0  0  0  0  0  0  0  0
  1  3  1  0  0  0  0
  1  5  1  0  0  0  0
  2  1  2  0  0  0  0
  3  4  1  0  0  0  0
  5 10  1  0  0  0  0
  6  5  2  0  0  0  0
  6  7  1  0  0  0  0
  7  8  2  0  0  0  0
  8  9  1  0  0  0  0
  8 13  1  0  0  0  0
  9 14  1  0  0  0  0
 10  9  2  0  0  0  0
 11  6  1  0  0  0  0
 12  7  1  0  0  0  0
 14 16  1  0  0  0  0
 15 14  2  0  0  0  0
 16 17  1  0  0  0  0
 16 18  1  0  0  0  0
 17 18  1  0  0  0  0
 19 22  1  1  0  0  0
 20 21  1  0  0  0  0
 20 24  1  0  0  0  0
 20 19  1  0  0  0  0
 21 25  1  6  0  0  0
 21  3  1  0  0  0  0
 21 19  1  0  0  0  0
 23 20  1  0  0  0  0
 26 31  2  0  0  0  0
 26 27  1  0  0  0  0
 27 28  2  0  0  0  0
 28 34  1  0  0  0  0
 29 28  1  0  0  0  0
 30 19  1  0  0  0  0
 30 29  2  0  0  0  0
 31 30  1  0  0  0  0
 32 26  1  0  0  0  0
 33 27  1  0  0  0  0
M  END
>  <minimizedAffinity>
-5.04151583

$$$$

 OpenBabel03272508593D

 34 37  0  0  1  0  0  0  0  0999 V2000
   37.5290   27.3820   34.2920 C   0  0  0  0  0  0  0  0  0  0  0  0
   38.2160   27.5060   35.3390 O   0  0  0  0  0  0  0  0  0  0  0  0
   37.7580   26.2960   33.3760 N   0  0  0  0  0  0  0  0  0  0  0  0
   37.3600   26.2520   32.4120 H   0  0  0  0  0  0  0  0  0  0  0  0
   36.4680   28.3480   33.9770 C   0  0  0  0  0  0  0  0  0  0  0  0
   35.8560   28.2760   32.7550 C   0  0  0  0  0  0  0  0  0  0  0  0
   34.8400   29.1660   32.4520 C   0  0  0  0  0  0  0  0  0  0  0  0
   34.5060   30.0760   33.4070 C   0  0  0  0  0  0  0  0  0  0  0  0
   35.1110   30.1730   34.6520 C   0  0  0  0  0  0  0  0  0  0  0  0
   36.0970   29.2730   34.8860 N   0  0  0  0  0  0  0  0  0  0  0  0
   36.1120   27.5500   31.9730 H   0  0  0  0  0  0  0  0  0  0  0  0
   34.3060   29.1820   31.5190 H   0  0  0  0  0  0  0  0  0  0  0  0
   33.7130   30.8010   33.2210 H   0  0  0  0  0  0  0  0  0  0  0  0
   34.7070   31.1940   35.6250 C   0  0  0  0  0  0  0  0  0  0  0  0
   35.6400   31.8280   36.2220 O   0  0  0  0  0  0  0  0  0  0  0  0
   33.2340   31.3820   35.8120 C   0  0  0  0  0  3  0  0  0  0  0  0
   32.8220   31.2740   37.2960 C   0  0  0  0  0  2  0  0  0  0  0  0
   32.4250   30.2350   36.3360 C   0  0  0  0  0  2  0  0  0  0  0  0
   38.0790   24.2500   34.7530 C   0  0  2  0  0  0  0  0  0  0  0  0
   38.0980   23.8190   33.3360 C   0  0  0  0  0  0  0  0  0  0  0  0
   38.5940   25.2070   33.8290 C   0  0  1  0  0  0  0  0  0  0  0  0
   37.0390   24.3560   35.1590 H   0  0  0  0  0  0  0  0  0  0  0  0
   38.8950   23.0950   33.0500 H   0  0  0  0  0  0  0  0  0  0  0  0
   37.1720   23.7850   32.7590 H   0  0  0  0  0  0  0  0  0  0  0  0
   39.7110   25.3380   33.7170 H   0  0  0  0  0  0  0  0  0  0  0  0
   39.3840   22.9890   37.9780 C   0  0  0  0  0  0  0  0  0  0  0  0
   40.6420   22.4440   37.5900 C   0  0  0  0  0  0  0  0  0  0  0  0
   41.0320   22.5320   36.1990 C   0  0  0  0  0  0  0  0  0  0  0  0
   40.1790   23.1320   35.3090 N   0  0  0  0  0  0  0  0  0  0  0  0
   38.9920   23.6280   35.7610 C   0  0  0  0  0  0  0  0  0  0  0  0
   38.5620   23.5760   37.0820 N   0  0  0  0  0  0  0  0  0  0  0  0
   39.1440   22.8960   39.0270 H   0  0  0  0  0  0  0  0  0  0  0  0
   41.2670   21.9890   38.3160 H   0  0  0  0  0  0  0  0  0  0  0  0
   41.9790   22.1200   35.9160 H   0  0  0  0  0  0  0  0  0  0  0  0
  1  2  2  0  0  0  0
  3 21  1  0  0  0  0
  3  1  1  0  0  0  0
  4  3  1  0  0  0  0
  5  1  1  0  0  0  0
  5 10  1  0  0  0  0
  6  5  2  0  0  0  0
  7  6  1  0  0  0  0
  7  8  2  0  0  0  0
  8  9  1  0  0  0  0
  9 10  2  0  0  0  0
  9 14  1  0  0  0  0
 11  6  1  0  0  0  0
 12  7  1  0  0  0  0
 13  8  1  0  0  0  0
 14 16  1  0  0  0  0
 14 15  2  0  0  0  0
 16 18  1  0  0  0  0
 16 17  1  0  0  0  0
 18 17  1  0  0  0  0
 19 22  1  1  0  0  0
 19 30  1  0  0  0  0
 20 21  1  0  0  0  0
 20 19  1  0  0  0  0
 21 25  1  1  0  0  0
 21 19  1  0  0  0  0
 23 20  1  0  0  0  0
 24 20  1  0  0  0  0
 26 32  1  0  0  0  0
 27 26  1  0  0  0  0
 27 33  1  0  0  0  0
 28 27  2  0  0  0  0
 29 30  2  0  0  0  0
 29 28  1  0  0  0  0
 30 31  1  0  0  0  0
 31 26  2  0  0  0  0
 34 28  1  0  0  0  0
M  END
>  <minimizedAffinity>
-4.98299503

$$$$

 OpenBabel03272508593D

 34 37  0  0  1  0  0  0  0  0999 V2000
   36.0900   28.7110   34.0260 C   0  0  0  0  0  0  0  0  0  0  0  0
   36.8750   27.9740   34.6760 O   0  0  0  0  0  0  0  0  0  0  0  0
   36.0220   28.6430   32.5900 N   0  0  0  0  0  0  0  0  0  0  0  0
   35.5410   29.3530   31.9950 H   0  0  0  0  0  0  0  0  0  0  0  0
   35.2160   29.6660   34.7200 C   0  0  0  0  0  0  0  0  0  0  0  0
   35.7870   30.7150   35.3880 C   0  0  0  0  0  0  0  0  0  0  0  0
   34.9750   31.6340   36.0290 C   0  0  0  0  0  0  0  0  0  0  0  0
   33.6310   31.4340   35.9540 C   0  0  0  0  0  0  0  0  0  0  0  0
   33.0240   30.3800   35.2870 C   0  0  0  0  0  0  0  0  0  0  0  0
   33.8750   29.5160   34.6800 N   0  0  0  0  0  0  0  0  0  0  0  0
   36.8680   30.8920   35.4600 H   0  0  0  0  0  0  0  0  0  0  0  0
   35.3370   32.4850   36.5760 H   0  0  0  0  0  0  0  0  0  0  0  0
   32.9450   32.1280   36.4410 H   0  0  0  0  0  0  0  0  0  0  0  0
   31.5670   30.2200   35.2650 C   0  0  0  0  0  0  0  0  0  0  0  0
   30.8730   31.2560   34.9940 O   0  0  0  0  0  0  0  0  0  0  0  0
   31.0480   28.8480   35.5650 C   0  0  0  0  0  3  0  0  0  0  0  0
   30.1800   28.8260   36.8410 C   0  0  0  0  0  2  0  0  0  0  0  0
   31.4950   28.1720   36.8250 C   0  0  0  0  0  2  0  0  0  0  0  0
   35.8850   26.5910   31.1920 C   0  0  2  0  0  0  0  0  0  0  0  0
   36.6140   27.6040   30.3940 C   0  0  0  0  0  0  0  0  0  0  0  0
   36.6630   27.5200   31.9460 C   0  0  1  0  0  0  0  0  0  0  0  0
   34.7720   26.7060   31.1250 H   0  0  0  0  0  0  0  0  0  0  0  0
   37.5270   27.2510   29.8620 H   0  0  0  0  0  0  0  0  0  0  0  0
   36.0770   28.4430   29.9470 H   0  0  0  0  0  0  0  0  0  0  0  0
   37.6800   27.2170   32.3350 H   0  0  0  0  0  0  0  0  0  0  0  0
   35.6770   22.9020   31.3990 C   0  0  0  0  0  0  0  0  0  0  0  0
   37.0000   22.5150   31.0400 C   0  0  0  0  0  0  0  0  0  0  0  0
   37.9640   23.5520   30.7380 C   0  0  0  0  0  0  0  0  0  0  0  0
   37.5690   24.8630   30.8060 N   0  0  0  0  0  0  0  0  0  0  0  0
   36.2830   25.1490   31.1570 C   0  0  0  0  0  0  0  0  0  0  0  0
   35.3130   24.2010   31.4590 N   0  0  0  0  0  0  0  0  0  0  0  0
   34.9990   22.0890   31.6140 H   0  0  0  0  0  0  0  0  0  0  0  0
   37.2580   21.4870   31.0010 H   0  0  0  0  0  0  0  0  0  0  0  0
   38.9560   23.2510   30.4700 H   0  0  0  0  0  0  0  0  0  0  0  0
  1  2  2  0  0  0  0
  1  5  1  0  0  0  0
  3  1  1  0  0  0  0
  4  3  1  0  0  0  0
  5  6  1  0  0  0  0
  6 11  1  0  0  0  0
  6  7  2  0  0  0  0
  7 12  1  0  0  0  0
  8  7  1  0  0  0  0
  8 13  1  0  0  0  0
  9  8  2  0  0  0  0
 10  5  2  0  0  0  0
 10  9  1  0  0  0  0
 14  9  1  0  0  0  0
 14 16  1  0  0  0  0
 15 14  2  0  0  0  0
 16 18  1  0  0  0  0
 16 17  1  0  0  0  0
 18 17  1  0  0  0  0
 19 22  1  1  0  0  0
 19 21  1  0  0  0  0
 20 19  1  0  0  0  0
 20 21  1  0  0  0  0
 21 25  1  1  0  0  0
 21  3  1  0  0  0  0
 23 20  1  0  0  0  0
 24 20  1  0  0  0  0
 26 31  1  0  0  0  0
 26 32  1  0  0  0  0
 27 26  2  0  0  0  0
 28 29  2  0  0  0  0
 28 27  1  0  0  0  0
 29 30  1  0  0  0  0
 30 19  1  0  0  0  0
 30 31  2  0  0  0  0
 33 27  1  0  0  0  0
 34 28  1  0  0  0  0
M  END
>  <minimizedAffinity>
-4.93651533

$$$$

 OpenBabel03272508593D

 34 37  0  0  1  0  0  0  0  0999 V2000
   37.1270   26.1930   32.8450 C   0  0  0  0  0  0  0  0  0  0  0  0
   37.5320   25.8390   33.9820 O   0  0  0  0  0  0  0  0  0  0  0  0
   37.1260   25.2750   31.7360 N   0  0  0  0  0  0  0  0  0  0  0  0
   36.9890   25.5610   30.7420 H   0  0  0  0  0  0  0  0  0  0  0  0
   36.6430   27.5610   32.6170 C   0  0  0  0  0  0  0  0  0  0  0  0
   36.6690   28.0650   31.3460 C   0  0  0  0  0  0  0  0  0  0  0  0
   36.1950   29.3440   31.1130 C   0  0  0  0  0  0  0  0  0  0  0  0
   35.7250   30.0370   32.1860 C   0  0  0  0  0  0  0  0  0  0  0  0
   35.6880   29.5520   33.4850 C   0  0  0  0  0  0  0  0  0  0  0  0
   36.1650   28.2930   33.6450 N   0  0  0  0  0  0  0  0  0  0  0  0
   37.0450   27.5210   30.4690 H   0  0  0  0  0  0  0  0  0  0  0  0
   36.1790   29.8180   30.1480 H   0  0  0  0  0  0  0  0  0  0  0  0
   35.3390   31.0490   32.0590 H   0  0  0  0  0  0  0  0  0  0  0  0
   35.1810   30.3660   34.5950 C   0  0  0  0  0  0  0  0  0  0  0  0
   36.0210   30.7180   35.4880 O   0  0  0  0  0  0  0  0  0  0  0  0
   33.7210   30.6970   34.5580 C   0  0  0  0  0  3  0  0  0  0  0  0
   32.9130   29.8620   35.5740 C   0  0  0  0  0  2  0  0  0  0  0  0
   32.7550   29.6350   34.1310 C   0  0  0  0  0  2  0  0  0  0  0  0
   36.8030   22.8790   31.1550 C   0  0  2  0  0  0  0  0  0  0  0  0
   38.2470   23.1660   30.9950 C   0  0  0  0  0  0  0  0  0  0  0  0
   37.3290   23.8750   32.0300 C   0  0  1  0  0  0  0  0  0  0  0  0
   36.2010   23.1730   30.2560 H   0  0  0  0  0  0  0  0  0  0  0  0
   38.9510   22.4090   31.4120 H   0  0  0  0  0  0  0  0  0  0  0  0
   38.6010   23.7510   30.1440 H   0  0  0  0  0  0  0  0  0  0  0  0
   37.5860   23.6070   33.0980 H   0  0  0  0  0  0  0  0  0  0  0  0
   35.5560   20.3510   33.5530 C   0  0  0  0  0  0  0  0  0  0  0  0
   35.4260   19.2010   32.7230 C   0  0  0  0  0  0  0  0  0  0  0  0
   35.7870   19.3150   31.3260 C   0  0  0  0  0  0  0  0  0  0  0  0
   36.2380   20.5210   30.8550 N   0  0  0  0  0  0  0  0  0  0  0  0
   36.3330   21.5730   31.7150 C   0  0  0  0  0  0  0  0  0  0  0  0
   36.0030   21.5270   33.0650 N   0  0  0  0  0  0  0  0  0  0  0  0
   35.2730   20.2100   34.5860 H   0  0  0  0  0  0  0  0  0  0  0  0
   35.0720   18.2900   33.1340 H   0  0  0  0  0  0  0  0  0  0  0  0
   35.6860   18.4450   30.7090 H   0  0  0  0  0  0  0  0  0  0  0  0
  1  2  2  0  0  0  0
  3 21  1  0  0  0  0
  3  1  1  0  0  0  0
  4  3  1  0  0  0  0
  5  1  1  0  0  0  0
  5 10  1  0  0  0  0
  6  5  2  0  0  0  0
  7  6  1  0  0  0  0
  7  8  2  0  0  0  0
  8  9  1  0  0  0  0
  9 10  2  0  0  0  0
  9 14  1  0  0  0  0
 11  6  1  0  0  0  0
 12  7  1  0  0  0  0
 13  8  1  0  0  0  0
 14 15  2  0  0  0  0
 16 14  1  0  0  0  0
 16 17  1  0  0  0  0
 18 16  1  0  0  0  0
 18 17  1  0  0  0  0
 19 22  1  6  0  0  0
 19 30  1  0  0  0  0
 19 21  1  0  0  0  0
 20 19  1  0  0  0  0
 20 23  1  0  0  0  0
 20 21  1  0  0  0  0
 21 25  1  1  0  0  0
 24 20  1  0  0  0  0
 26 32  1  0  0  0  0
 27 33  1  0  0  0  0
 27 26  2  0  0  0  0
 28 27  1  0  0  0  0
 29 28  2  0  0  0  0
 29 30  1  0  0  0  0
 30 31  2  0  0  0  0
 31 26  1  0  0  0  0
 34 28  1  0  0  0  0
M  END
>  <minimizedAffinity>
-4.91527367

$$$$

 OpenBabel03272508593D

 34 37  0  0  1  0  0  0  0  0999 V2000
   36.6030   27.0010   32.5530 C   0  0  0  0  0  0  0  0  0  0  0  0
   36.3390   27.3030   31.3600 O   0  0  0  0  0  0  0  0  0  0  0  0
   36.4710   27.9670   33.6120 N   0  0  0  0  0  0  0  0  0  0  0  0
   36.8550   27.8350   34.5730 H   0  0  0  0  0  0  0  0  0  0  0  0
   37.0540   25.6470   32.8970 C   0  0  0  0  0  0  0  0  0  0  0  0
   36.7540   24.6170   32.0470 C   0  0  0  0  0  0  0  0  0  0  0  0
   37.1920   23.3400   32.3490 C   0  0  0  0  0  0  0  0  0  0  0  0
   37.9070   23.1820   33.4960 C   0  0  0  0  0  0  0  0  0  0  0  0
   38.2240   24.2060   34.3760 C   0  0  0  0  0  0  0  0  0  0  0  0
   37.7670   25.4330   34.0230 N   0  0  0  0  0  0  0  0  0  0  0  0
   36.1780   24.7250   31.1190 H   0  0  0  0  0  0  0  0  0  0  0  0
   37.0020   22.4750   31.7390 H   0  0  0  0  0  0  0  0  0  0  0  0
   38.2770   22.1960   33.7810 H   0  0  0  0  0  0  0  0  0  0  0  0
   38.9860   23.9560   35.6040 C   0  0  0  0  0  0  0  0  0  0  0  0
   40.2180   24.2850   35.6000 O   0  0  0  0  0  0  0  0  0  0  0  0
   38.2280   23.3350   36.7370 C   0  0  0  0  0  3  0  0  0  0  0  0
   37.9590   24.3450   37.8730 C   0  0  0  0  0  2  0  0  0  0  0  0
   38.8950   23.2310   38.0740 C   0  0  0  0  0  2  0  0  0  0  0  0
   34.4550   29.4050   33.8400 C   0  0  2  0  0  0  0  0  0  0  0  0
   35.5510   30.0880   34.5650 C   0  0  0  0  0  0  0  0  0  0  0  0
   35.7630   29.1910   33.3130 C   0  0  1  0  0  0  0  0  0  0  0  0
   33.9550   28.6130   34.4580 H   0  0  0  0  0  0  0  0  0  0  0  0
   35.6480   31.1850   34.3940 H   0  0  0  0  0  0  0  0  0  0  0  0
   35.8960   29.7070   35.5280 H   0  0  0  0  0  0  0  0  0  0  0  0
   36.1080   29.7760   32.4090 H   0  0  0  0  0  0  0  0  0  0  0  0
   32.9520   31.4140   31.1200 C   0  0  0  0  0  0  0  0  0  0  0  0
   31.6080   31.5550   31.5700 C   0  0  0  0  0  0  0  0  0  0  0  0
   31.2370   30.9540   32.8340 C   0  0  0  0  0  0  0  0  0  0  0  0
   32.1890   30.2710   33.5460 N   0  0  0  0  0  0  0  0  0  0  0  0
   33.4540   30.1820   33.0450 C   0  0  0  0  0  0  0  0  0  0  0  0
   33.8710   30.7380   31.8410 N   0  0  0  0  0  0  0  0  0  0  0  0
   33.1740   31.8820   30.1720 H   0  0  0  0  0  0  0  0  0  0  0  0
   30.9070   32.0930   30.9830 H   0  0  0  0  0  0  0  0  0  0  0  0
   30.2250   31.0650   33.1640 H   0  0  0  0  0  0  0  0  0  0  0  0
  1  5  1  0  0  0  0
  1  3  1  0  0  0  0
  2  1  2  0  0  0  0
  3  4  1  0  0  0  0
  5 10  1  0  0  0  0
  6  7  1  0  0  0  0
  6  5  2  0  0  0  0
  7  8  2  0  0  0  0
  8 13  1  0  0  0  0
  8  9  1  0  0  0  0
  9 14  1  0  0  0  0
 10  9  2  0  0  0  0
 11  6  1  0  0  0  0
 12  7  1  0  0  0  0
 14 16  1  0  0  0  0
 15 14  2  0  0  0  0
 16 17  1  0  0  0  0
 16 18  1  0  0  0  0
 17 18  1  0  0  0  0
 19 22  1  1  0  0  0
 19 20  1  0  0  0  0
 20 24  1  0  0  0  0
 21 25  1  6  0  0  0
 21  3  1  0  0  0  0
 21 19  1  0  0  0  0
 21 20  1  0  0  0  0
 23 20  1  0  0  0  0
 26 27  2  0  0  0  0
 26 31  1  0  0  0  0
 27 28  1  0  0  0  0
 28 34  1  0  0  0  0
 28 29  2  0  0  0  0
 30 29  1  0  0  0  0
 30 19  1  0  0  0  0
 31 30  2  0  0  0  0
 32 26  1  0  0  0  0
 33 27  1  0  0  0  0
M  END
>  <minimizedAffinity>
-4.91105556

$$$$
