
 OpenBabel03272510303D

 22 24  0  0  0  0  0  0  0  0999 V2000
   37.2120   31.3380   49.1940 C   0  0  0  0  0  0  0  0  0  0  0  0
   37.4010   32.5850   49.7950 C   0  0  0  0  0  0  0  0  0  0  0  0
   38.3470   33.3980   49.2120 C   0  0  0  0  0  0  0  0  0  0  0  0
   39.0350   32.9630   48.1080 N   0  0  0  0  0  0  0  0  0  0  0  0
   38.8120   31.7300   47.5560 C   0  0  0  0  0  0  0  0  0  0  0  0
   37.8750   30.8990   48.1180 N   0  0  0  0  0  0  0  0  0  0  0  0
   36.8350   32.8850   50.6660 H   0  0  0  0  0  0  0  0  0  0  0  0
   38.5640   34.3830   49.6070 H   0  0  0  0  0  0  0  0  0  0  0  0
   36.1610   30.4370   49.7890 C   0  0  0  0  0  0  0  0  0  0  0  0
   36.1460   29.0100   49.5950 C   0  0  0  0  0  0  0  0  0  0  0  0
   36.7160   29.5330   50.9020 C   0  0  0  0  0  0  0  0  0  0  0  0
   35.2160   30.9870   50.0800 H   0  0  0  0  0  0  0  0  0  0  0  0
   35.1570   28.5000   49.6280 H   0  0  0  0  0  0  0  0  0  0  0  0
   36.8730   28.4990   48.9340 H   0  0  0  0  0  0  0  0  0  0  0  0
   36.0810   29.3970   51.8090 H   0  0  0  0  0  0  0  0  0  0  0  0
   37.7950   29.5210   51.0840 H   0  0  0  0  0  0  0  0  0  0  0  0
   39.5240   31.2450   46.3660 C   0  0  0  0  0  0  0  0  0  0  0  0
   39.9580   32.0730   45.7710 H   0  0  0  0  0  0  0  0  0  0  0  0
   40.3850   30.6210   46.6870 H   0  0  0  0  0  0  0  0  0  0  0  0
   38.6220   30.3730   45.5240 C   0  0  0  0  0  3  0  0  0  0  0  0
   38.0220   30.8640   44.2720 C   0  0  0  0  0  2  0  0  0  0  0  0
   39.1110   29.7720   44.2740 C   0  0  0  0  0  2  0  0  0  0  0  0
  1  9  1  0  0  0  0
  1  2  1  0  0  0  0
  2  7  1  0  0  0  0
  3  8  1  0  0  0  0
  3  2  2  0  0  0  0
  4  3  1  0  0  0  0
  5  4  2  0  0  0  0
  5  6  1  0  0  0  0
  6  1  2  0  0  0  0
  9 12  1  0  0  0  0
  9 11  1  0  0  0  0
 10 13  1  0  0  0  0
 10  9  1  0  0  0  0
 10 11  1  0  0  0  0
 11 16  1  0  0  0  0
 11 15  1  0  0  0  0
 14 10  1  0  0  0  0
 17 19  1  0  0  0  0
 17  5  1  0  0  0  0
 18 17  1  0  0  0  0
 20 17  1  0  0  0  0
 21 22  1  0  0  0  0
 21 20  1  0  0  0  0
 22 20  1  0  0  0  0
M  END
>  <minimizedAffinity>
-4.80020237

>  <minimizedRMSD>
0.65018934

$$$$
