
 OpenBabel03272508273D

 32 35  0  0  1  0  0  0  0  0999 V2000
   35.6010   30.3660   49.0060 C   0  0  1  0  0  0  0  0  0  0  0  0
   35.6800   28.9470   48.7460 C   0  0  1  0  0  0  0  0  0  0  0  0
   35.8480   29.3840   50.1640 C   0  0  0  0  0  0  0  0  0  0  0  0
   34.6850   30.9620   49.2060 H   0  0  0  0  0  0  0  0  0  0  0  0
   36.6260   28.6160   48.2230 H   0  0  0  0  0  0  0  0  0  0  0  0
   36.8540   29.3300   50.6120 H   0  0  0  0  0  0  0  0  0  0  0  0
   35.0130   29.1470   50.8460 H   0  0  0  0  0  0  0  0  0  0  0  0
   33.7990   28.9110   47.2140 C   0  0  2  0  0  0  0  0  0  0  0  0
   34.5110   28.1290   48.3100 C   0  0  2  0  0  0  0  0  0  0  0  0
   33.5950   27.9700   49.3070 O   0  0  0  0  0  0  0  0  0  0  0  0
   32.3270   28.0590   48.8130 C   0  0  0  0  0  0  0  0  0  0  0  0
   32.4150   28.2610   47.3150 C   0  0  1  0  0  0  0  0  0  0  0  0
   33.6550   29.9720   47.4640 H   0  0  0  0  0  0  0  0  0  0  0  0
   34.7830   27.1490   47.8630 H   0  0  0  0  0  0  0  0  0  0  0  0
   31.8650   28.9760   49.2290 H   0  0  0  0  0  0  0  0  0  0  0  0
   31.6750   27.2010   49.0650 H   0  0  0  0  0  0  0  0  0  0  0  0
   32.4510   27.2230   46.8830 H   0  0  0  0  0  0  0  0  0  0  0  0
   34.3560   28.7220   45.9600 O   0  0  0  0  0  0  0  0  0  0  0  0
   34.3610   29.5790   45.4940 H   0  0  0  0  0  0  0  0  0  0  0  0
   31.4370   29.0540   46.7860 O   0  0  0  0  0  0  0  0  0  0  0  0
   30.1880   28.4590   46.7580 C   0  0  0  0  0  3  0  0  0  0  0  0
   29.0200   29.0650   47.4200 C   0  0  0  0  0  2  0  0  0  0  0  0
   29.0990   29.0050   45.9110 C   0  0  0  0  0  2  0  0  0  0  0  0
   36.7930   31.2790   48.7790 C   0  0  0  0  0  0  0  0  0  0  0  0
   37.0450   32.2680   49.7280 C   0  0  0  0  0  0  0  0  0  0  0  0
   38.1320   33.0830   49.4580 C   0  0  0  0  0  0  0  0  0  0  0  0
   38.8860   32.9100   48.3380 N   0  0  0  0  0  0  0  0  0  0  0  0
   38.6060   31.9280   47.4330 C   0  0  0  0  0  0  0  0  0  0  0  0
   37.5450   31.1070   47.6640 N   0  0  0  0  0  0  0  0  0  0  0  0
   36.4080   32.3510   50.5950 H   0  0  0  0  0  0  0  0  0  0  0  0
   38.3680   33.8720   50.1750 H   0  0  0  0  0  0  0  0  0  0  0  0
   39.1910   31.7740   46.5370 H   0  0  0  0  0  0  0  0  0  0  0  0
  1  4  1  6  0  0  0
  1  3  1  0  0  0  0
  2  5  1  6  0  0  0
  2  1  1  0  0  0  0
  2  3  1  0  0  0  0
  3  6  1  0  0  0  0
  3  7  1  0  0  0  0
  8 12  1  0  0  0  0
  8 13  1  1  0  0  0
  8  9  1  0  0  0  0
  9 14  1  6  0  0  0
  9  2  1  0  0  0  0
  9 10  1  0  0  0  0
 11 16  1  0  0  0  0
 11 15  1  0  0  0  0
 11 10  1  0  0  0  0
 12 17  1  6  0  0  0
 12 11  1  0  0  0  0
 18  8  1  0  0  0  0
 19 18  1  0  0  0  0
 20 12  1  0  0  0  0
 21 20  1  0  0  0  0
 21 22  1  0  0  0  0
 23 21  1  0  0  0  0
 23 22  1  0  0  0  0
 24  1  1  0  0  0  0
 24 25  1  0  0  0  0
 25 30  1  0  0  0  0
 26 25  2  0  0  0  0
 26 31  1  0  0  0  0
 27 26  1  0  0  0  0
 28 29  1  0  0  0  0
 28 27  2  0  0  0  0
 29 24  2  0  0  0  0
 32 28  1  0  0  0  0
M  END
>  <minimizedAffinity>
-4.84171438

>  <minimizedRMSD>
0.553667367

$$$$
