
 OpenBabel03272509403D

 29 31  0  0  0  0  0  0  0  0999 V2000
   37.0360   30.9540   49.0630 C   0  0  0  0  0  0  0  0  0  0  0  0
   36.7210   31.8520   50.0970 C   0  0  0  0  0  0  0  0  0  0  0  0
   37.3020   33.1140   50.1680 C   0  0  0  0  0  0  0  0  0  0  0  0
   38.2220   33.5220   49.2010 C   0  0  0  0  0  0  0  0  0  0  0  0
   38.5120   32.6260   48.2000 C   0  0  0  0  0  0  0  0  0  0  0  0
   37.9260   31.3740   48.1440 C   0  0  0  0  0  0  0  0  0  0  0  0
   36.0080   31.5290   50.8440 H   0  0  0  0  0  0  0  0  0  0  0  0
   37.0330   33.7790   50.9850 H   0  0  0  0  0  0  0  0  0  0  0  0
   38.6470   34.5120   49.2950 H   0  0  0  0  0  0  0  0  0  0  0  0
   39.2320   33.0080   47.4850 H   0  0  0  0  0  0  0  0  0  0  0  0
   36.3860   29.6580   49.0650 C   0  0  0  0  0  0  0  0  0  0  0  0
   36.9590   28.7740   49.7960 O   0  0  0  0  0  0  0  0  0  0  0  0
   33.6140   30.1630   46.7730 C   0  0  0  0  0  0  0  0  0  0  0  0
   32.9320   28.9470   46.8100 C   0  0  0  0  0  0  0  0  0  0  0  0
   33.4210   27.9460   47.6240 C   0  0  0  0  0  0  0  0  0  0  0  0
   34.5400   28.1640   48.3610 N   0  0  0  0  0  0  0  0  0  0  0  0
   35.1770   29.3260   48.3140 C   0  0  0  0  0  0  0  0  0  0  0  0
   34.6980   30.3130   47.5140 N   0  0  0  0  0  0  0  0  0  0  0  0
   33.2840   30.9860   46.1580 H   0  0  0  0  0  0  0  0  0  0  0  0
   32.0580   28.9010   46.1790 H   0  0  0  0  0  0  0  0  0  0  0  0
   32.8790   27.0280   47.6310 H   0  0  0  0  0  0  0  0  0  0  0  0
   38.3550   30.5730   47.0310 C   0  0  0  0  0  3  0  0  0  0  0  0
   39.1190   30.9140   46.0170 C   0  0  0  0  0  3  0  0  0  0  0  0
   39.6400   30.2170   44.8520 C   0  0  0  0  0  0  0  0  0  0  0  0
   40.2050   30.9220   44.1910 H   0  0  0  0  0  0  0  0  0  0  0  0
   40.3390   29.4050   45.1340 H   0  0  0  0  0  0  0  0  0  0  0  0
   38.5080   29.6020   44.0730 C   0  0  0  0  0  3  0  0  0  0  0  0
   38.8580   28.3500   43.2620 C   0  0  0  0  0  2  0  0  0  0  0  0
   38.4620   29.6130   42.5920 C   0  0  0  0  0  2  0  0  0  0  0  0
  1 11  1  0  0  0  0
  1  2  1  0  0  0  0
  2  3  2  0  0  0  0
  2  7  1  0  0  0  0
  3  8  1  0  0  0  0
  4  9  1  0  0  0  0
  4  3  1  0  0  0  0
  5  4  2  0  0  0  0
  6  5  1  0  0  0  0
  6  1  2  0  0  0  0
 10  5  1  0  0  0  0
 11 12  2  0  0  0  0
 13 14  2  0  0  0  0
 13 18  1  0  0  0  0
 14 15  1  0  0  0  0
 15 21  1  0  0  0  0
 15 16  2  0  0  0  0
 17 16  1  0  0  0  0
 17 11  1  0  0  0  0
 18 17  2  0  0  0  0
 19 13  1  0  0  0  0
 20 14  1  0  0  0  0
 22  6  1  0  0  0  0
 23 22  2  0  0  0  0
 24 26  1  0  0  0  0
 24 23  1  0  0  0  0
 25 24  1  0  0  0  0
 27 24  1  0  0  0  0
 28 27  1  0  0  0  0
 29 28  1  0  0  0  0
 29 27  1  0  0  0  0
M  END
>  <minimizedAffinity>
-5.39817762

>  <minimizedRMSD>
0.824069679

$$$$
