
 OpenBabel03272504013D

 25 27  0  0  0  0  0  0  0  0999 V2000
   37.7380   27.5520   35.3910 C   0  0  0  0  0  0  0  0  0  0  0  0
   38.0120   28.6190   35.5980 H   0  0  0  0  0  0  0  0  0  0  0  0
   36.9620   27.3450   36.1420 H   0  0  0  0  0  0  0  0  0  0  0  0
   37.0660   27.4250   34.0740 C   0  0  0  0  0  0  0  0  0  0  0  0
   36.2980   28.4650   33.5700 C   0  0  0  0  0  0  0  0  0  0  0  0
   35.8110   28.0720   32.3550 C   0  0  0  0  0  0  0  0  0  0  0  0
   36.2690   26.8400   32.1350 N   0  0  0  0  0  0  0  0  0  0  0  0
   37.0070   26.4730   33.1570 N   0  0  0  0  0  0  0  0  0  0  0  0
   36.0630   29.4430   33.9790 H   0  0  0  0  0  0  0  0  0  0  0  0
   35.1670   28.6060   31.6460 H   0  0  0  0  0  0  0  0  0  0  0  0
   36.0140   26.0140   30.9690 C   0  0  0  0  0  3  0  0  0  0  0  0
   34.6800   25.2830   30.8750 C   0  0  0  0  0  2  0  0  0  0  0  0
   35.9470   24.5600   31.1690 C   0  0  0  0  0  2  0  0  0  0  0  0
   39.0000   26.7810   35.4690 C   0  0  0  0  0  0  0  0  0  0  0  0
   39.4680   26.8390   34.4360 H   0  0  0  0  0  0  0  0  0  0  0  0
   39.7850   27.3200   36.0870 H   0  0  0  0  0  0  0  0  0  0  0  0
   38.9190   25.3780   35.7890 C   0  0  0  0  0  0  0  0  0  0  0  0
   38.0300   24.9100   36.7200 C   0  0  0  0  0  0  0  0  0  0  0  0
   37.9710   23.5280   37.0200 C   0  0  0  0  0  0  0  0  0  0  0  0
   38.8560   22.7260   36.3160 N   0  0  0  0  0  0  0  0  0  0  0  0
   39.7140   23.2410   35.4050 C   0  0  0  0  0  0  0  0  0  0  0  0
   39.7490   24.5800   35.1360 N   0  0  0  0  0  0  0  0  0  0  0  0
   37.3040   25.4290   37.3170 H   0  0  0  0  0  0  0  0  0  0  0  0
   37.3290   23.0490   37.7170 H   0  0  0  0  0  0  0  0  0  0  0  0
   40.3730   22.5470   34.8970 H   0  0  0  0  0  0  0  0  0  0  0  0
  1 14  1  0  0  0  0
  1  2  1  0  0  0  0
  1  3  1  0  0  0  0
  4  1  1  0  0  0  0
  5  9  1  0  0  0  0
  5  4  1  0  0  0  0
  6  5  2  0  0  0  0
  7  6  1  0  0  0  0
  7  8  1  0  0  0  0
  8  4  2  0  0  0  0
 10  6  1  0  0  0  0
 11 13  1  0  0  0  0
 11  7  1  0  0  0  0
 12 11  1  0  0  0  0
 12 13  1  0  0  0  0
 14 17  1  0  0  0  0
 14 16  1  0  0  0  0
 15 14  1  0  0  0  0
 17 18  1  0  0  0  0
 18 19  2  0  0  0  0
 18 23  1  0  0  0  0
 19 24  1  0  0  0  0
 20 19  1  0  0  0  0
 21 20  2  0  0  0  0
 22 21  1  0  0  0  0
 22 17  2  0  0  0  0
 25 21  1  0  0  0  0
M  END
>  <minimizedAffinity>
-4.53701115

$$$$

 OpenBabel03272504013D

 25 27  0  0  0  0  0  0  0  0999 V2000
   38.1330   25.8220   36.0140 C   0  0  0  0  0  0  0  0  0  0  0  0
   39.2470   25.9470   36.0170 H   0  0  0  0  0  0  0  0  0  0  0  0
   37.7940   26.6030   36.7080 H   0  0  0  0  0  0  0  0  0  0  0  0
   37.5630   26.1820   34.6930 C   0  0  0  0  0  0  0  0  0  0  0  0
   37.1010   27.4690   34.4510 C   0  0  0  0  0  0  0  0  0  0  0  0
   36.6400   27.5100   33.1650 C   0  0  0  0  0  0  0  0  0  0  0  0
   36.8160   26.2930   32.6520 N   0  0  0  0  0  0  0  0  0  0  0  0
   37.3610   25.5220   33.5640 N   0  0  0  0  0  0  0  0  0  0  0  0
   37.0660   28.3470   35.0880 H   0  0  0  0  0  0  0  0  0  0  0  0
   36.1990   28.3390   32.5990 H   0  0  0  0  0  0  0  0  0  0  0  0
   36.4750   25.8590   31.3090 C   0  0  0  0  0  3  0  0  0  0  0  0
   35.0790   25.3010   31.0600 C   0  0  0  0  0  2  0  0  0  0  0  0
   36.2780   24.4200   31.0910 C   0  0  0  0  0  2  0  0  0  0  0  0
   37.8780   24.4100   36.3840 C   0  0  0  0  0  0  0  0  0  0  0  0
   37.4810   24.4310   37.4480 H   0  0  0  0  0  0  0  0  0  0  0  0
   36.9820   23.9850   35.8330 H   0  0  0  0  0  0  0  0  0  0  0  0
   38.9960   23.5000   36.3980 C   0  0  0  0  0  0  0  0  0  0  0  0
   39.5410   23.0610   37.5750 C   0  0  0  0  0  0  0  0  0  0  0  0
   40.6410   22.1700   37.5650 C   0  0  0  0  0  0  0  0  0  0  0  0
   41.0950   21.7980   36.3090 N   0  0  0  0  0  0  0  0  0  0  0  0
   40.5180   22.2610   35.1770 C   0  0  0  0  0  0  0  0  0  0  0  0
   39.4570   23.1210   35.2170 N   0  0  0  0  0  0  0  0  0  0  0  0
   39.2750   23.2760   38.5940 H   0  0  0  0  0  0  0  0  0  0  0  0
   41.1460   21.7640   38.4050 H   0  0  0  0  0  0  0  0  0  0  0  0
   40.9320   21.9210   34.2350 H   0  0  0  0  0  0  0  0  0  0  0  0
  1  2  1  0  0  0  0
  1 14  1  0  0  0  0
  1  3  1  0  0  0  0
  4  1  1  0  0  0  0
  5  4  1  0  0  0  0
  5  9  1  0  0  0  0
  6  5  2  0  0  0  0
  7  6  1  0  0  0  0
  7  8  1  0  0  0  0
  8  4  2  0  0  0  0
 10  6  1  0  0  0  0
 11  7  1  0  0  0  0
 12 13  1  0  0  0  0
 12 11  1  0  0  0  0
 13 11  1  0  0  0  0
 14 17  1  0  0  0  0
 14 15  1  0  0  0  0
 16 14  1  0  0  0  0
 17 18  1  0  0  0  0
 18 23  1  0  0  0  0
 19 18  2  0  0  0  0
 19 24  1  0  0  0  0
 20 19  1  0  0  0  0
 21 22  1  0  0  0  0
 21 20  2  0  0  0  0
 22 17  2  0  0  0  0
 25 21  1  0  0  0  0
M  END
>  <minimizedAffinity>
-4.35877275

$$$$

 OpenBabel03272504013D

 25 27  0  0  0  0  0  0  0  0999 V2000
   38.9570   26.9080   35.0510 C   0  0  0  0  0  0  0  0  0  0  0  0
   39.7880   27.5190   35.4900 H   0  0  0  0  0  0  0  0  0  0  0  0
   39.2550   26.8040   33.9980 H   0  0  0  0  0  0  0  0  0  0  0  0
   38.9620   25.5320   35.6060 C   0  0  0  0  0  0  0  0  0  0  0  0
   37.9330   25.1010   36.4310 C   0  0  0  0  0  0  0  0  0  0  0  0
   38.1980   23.8080   36.7860 C   0  0  0  0  0  0  0  0  0  0  0  0
   39.3450   23.4730   36.1960 N   0  0  0  0  0  0  0  0  0  0  0  0
   39.7830   24.4980   35.5050 N   0  0  0  0  0  0  0  0  0  0  0  0
   37.0430   25.6100   36.7890 H   0  0  0  0  0  0  0  0  0  0  0  0
   37.6300   23.1200   37.4230 H   0  0  0  0  0  0  0  0  0  0  0  0
   40.0240   22.1920   36.2830 C   0  0  0  0  0  3  0  0  0  0  0  0
   40.9350   21.9330   37.4770 C   0  0  0  0  0  2  0  0  0  0  0  0
   41.4830   22.1860   36.1170 C   0  0  0  0  0  2  0  0  0  0  0  0
   37.7060   27.6430   35.3470 C   0  0  0  0  0  0  0  0  0  0  0  0
   37.1110   26.9800   36.0510 H   0  0  0  0  0  0  0  0  0  0  0  0
   37.8930   28.5430   36.0130 H   0  0  0  0  0  0  0  0  0  0  0  0
   36.8220   27.9470   34.2500 C   0  0  0  0  0  0  0  0  0  0  0  0
   36.8550   27.2230   33.0880 C   0  0  0  0  0  0  0  0  0  0  0  0
   35.9790   27.5430   32.0220 C   0  0  0  0  0  0  0  0  0  0  0  0
   35.1230   28.6080   32.2520 N   0  0  0  0  0  0  0  0  0  0  0  0
   35.1320   29.2900   33.4200 C   0  0  0  0  0  0  0  0  0  0  0  0
   35.9890   28.9590   34.4320 N   0  0  0  0  0  0  0  0  0  0  0  0
   37.4640   26.3860   32.8010 H   0  0  0  0  0  0  0  0  0  0  0  0
   35.9120   27.0580   31.0800 H   0  0  0  0  0  0  0  0  0  0  0  0
   34.4310   30.1100   33.5210 H   0  0  0  0  0  0  0  0  0  0  0  0
  1 14  1  0  0  0  0
  1  2  1  0  0  0  0
  1  4  1  0  0  0  0
  3  1  1  0  0  0  0
  4  5  1  0  0  0  0
  5  6  2  0  0  0  0
  5  9  1  0  0  0  0
  6 10  1  0  0  0  0
  7 11  1  0  0  0  0
  7  6  1  0  0  0  0
  8  4  2  0  0  0  0
  8  7  1  0  0  0  0
 11 12  1  0  0  0  0
 13 11  1  0  0  0  0
 13 12  1  0  0  0  0
 14 16  1  0  0  0  0
 14 15  1  0  0  0  0
 17 22  1  0  0  0  0
 17 14  1  0  0  0  0
 18 17  2  0  0  0  0
 19 20  2  0  0  0  0
 19 18  1  0  0  0  0
 20 21  1  0  0  0  0
 21 25  1  0  0  0  0
 21 22  2  0  0  0  0
 23 18  1  0  0  0  0
 24 19  1  0  0  0  0
M  END
>  <minimizedAffinity>
-4.32262993

$$$$

 OpenBabel03272504013D

 25 27  0  0  0  0  0  0  0  0999 V2000
   37.9280   27.7130   35.2360 C   0  0  0  0  0  0  0  0  0  0  0  0
   37.7170   28.2610   36.1910 H   0  0  0  0  0  0  0  0  0  0  0  0
   38.7480   28.2940   34.7920 H   0  0  0  0  0  0  0  0  0  0  0  0
   38.4900   26.3680   35.5100 C   0  0  0  0  0  0  0  0  0  0  0  0
   39.5990   25.9110   34.8120 C   0  0  0  0  0  0  0  0  0  0  0  0
   39.8910   24.6570   35.2710 C   0  0  0  0  0  0  0  0  0  0  0  0
   38.9910   24.3690   36.2110 N   0  0  0  0  0  0  0  0  0  0  0  0
   38.1730   25.3870   36.3410 N   0  0  0  0  0  0  0  0  0  0  0  0
   40.1940   26.3760   34.0330 H   0  0  0  0  0  0  0  0  0  0  0  0
   40.6880   23.9650   34.9750 H   0  0  0  0  0  0  0  0  0  0  0  0
   38.9040   23.1430   36.9830 C   0  0  0  0  0  3  0  0  0  0  0  0
   38.9700   23.2360   38.5020 C   0  0  0  0  0  2  0  0  0  0  0  0
   40.1080   22.7080   37.7030 C   0  0  0  0  0  2  0  0  0  0  0  0
   36.6420   27.6600   34.5030 C   0  0  0  0  0  0  0  0  0  0  0  0
   36.3740   26.5590   34.4170 H   0  0  0  0  0  0  0  0  0  0  0  0
   35.7790   28.0380   35.1360 H   0  0  0  0  0  0  0  0  0  0  0  0
   36.6050   28.1810   33.1590 C   0  0  0  0  0  0  0  0  0  0  0  0
   37.4980   27.7630   32.2090 C   0  0  0  0  0  0  0  0  0  0  0  0
   37.4450   28.2920   30.8970 C   0  0  0  0  0  0  0  0  0  0  0  0
   36.4500   29.2290   30.6710 N   0  0  0  0  0  0  0  0  0  0  0  0
   35.5920   29.6060   31.6470 C   0  0  0  0  0  0  0  0  0  0  0  0
   35.6660   29.0790   32.9040 N   0  0  0  0  0  0  0  0  0  0  0  0
   38.3000   27.0490   32.2670 H   0  0  0  0  0  0  0  0  0  0  0  0
   38.0790   28.0480   30.0810 H   0  0  0  0  0  0  0  0  0  0  0  0
   34.8410   30.3440   31.3890 H   0  0  0  0  0  0  0  0  0  0  0  0
  1  4  1  0  0  0  0
  1  2  1  0  0  0  0
  3  1  1  0  0  0  0
  4  8  2  0  0  0  0
  5  6  2  0  0  0  0
  5  4  1  0  0  0  0
  6  7  1  0  0  0  0
  7  8  1  0  0  0  0
  7 11  1  0  0  0  0
  9  5  1  0  0  0  0
 10  6  1  0  0  0  0
 11 13  1  0  0  0  0
 11 12  1  0  0  0  0
 13 12  1  0  0  0  0
 14 16  1  0  0  0  0
 14  1  1  0  0  0  0
 15 14  1  0  0  0  0
 17 14  1  0  0  0  0
 18 23  1  0  0  0  0
 18 17  2  0  0  0  0
 19 18  1  0  0  0  0
 20 19  2  0  0  0  0
 20 21  1  0  0  0  0
 21 22  2  0  0  0  0
 22 17  1  0  0  0  0
 24 19  1  0  0  0  0
 25 21  1  0  0  0  0
M  END
>  <minimizedAffinity>
-4.27548695

$$$$

 OpenBabel03272504013D

 25 27  0  0  0  0  0  0  0  0999 V2000
   38.4540   24.8970   33.5250 C   0  0  0  0  0  0  0  0  0  0  0  0
   39.3670   24.2560   33.6380 H   0  0  0  0  0  0  0  0  0  0  0  0
   38.8130   25.7350   32.9100 H   0  0  0  0  0  0  0  0  0  0  0  0
   37.4240   24.2120   32.7070 C   0  0  0  0  0  0  0  0  0  0  0  0
   36.4600   24.9430   32.0280 C   0  0  0  0  0  0  0  0  0  0  0  0
   35.6560   24.0580   31.3650 C   0  0  0  0  0  0  0  0  0  0  0  0
   36.1190   22.8380   31.6350 N   0  0  0  0  0  0  0  0  0  0  0  0
   37.1610   22.9450   32.4270 N   0  0  0  0  0  0  0  0  0  0  0  0
   36.2860   26.0120   31.9670 H   0  0  0  0  0  0  0  0  0  0  0  0
   34.7870   24.2380   30.7220 H   0  0  0  0  0  0  0  0  0  0  0  0
   35.5840   21.5790   31.1490 C   0  0  0  0  0  3  0  0  0  0  0  0
   34.7750   20.7150   32.1090 C   0  0  0  0  0  2  0  0  0  0  0  0
   36.1560   20.3420   31.6980 C   0  0  0  0  0  2  0  0  0  0  0  0
   37.9910   25.1980   34.8990 C   0  0  0  0  0  0  0  0  0  0  0  0
   38.3100   26.2670   35.1120 H   0  0  0  0  0  0  0  0  0  0  0  0
   36.8610   25.3010   34.9510 H   0  0  0  0  0  0  0  0  0  0  0  0
   38.5180   24.4050   35.9820 C   0  0  0  0  0  0  0  0  0  0  0  0
   37.9030   24.3710   37.2040 C   0  0  0  0  0  0  0  0  0  0  0  0
   38.4410   23.5890   38.2540 C   0  0  0  0  0  0  0  0  0  0  0  0
   39.5970   22.8900   37.9450 N   0  0  0  0  0  0  0  0  0  0  0  0
   40.1650   22.9590   36.7190 C   0  0  0  0  0  0  0  0  0  0  0  0
   39.6230   23.7230   35.7240 N   0  0  0  0  0  0  0  0  0  0  0  0
   37.0120   24.8610   37.5540 H   0  0  0  0  0  0  0  0  0  0  0  0
   38.0570   23.4830   39.2380 H   0  0  0  0  0  0  0  0  0  0  0  0
   41.0670   22.3820   36.5570 H   0  0  0  0  0  0  0  0  0  0  0  0
  1  2  1  0  0  0  0
  1 14  1  0  0  0  0
  3  1  1  0  0  0  0
  4  1  1  0  0  0  0
  5  4  1  0  0  0  0
  6  7  1  0  0  0  0
  6  5  2  0  0  0  0
  7  8  1  0  0  0  0
  8  4  2  0  0  0  0
  9  5  1  0  0  0  0
 10  6  1  0  0  0  0
 11  7  1  0  0  0  0
 11 13  1  0  0  0  0
 11 12  1  0  0  0  0
 13 12  1  0  0  0  0
 14 16  1  0  0  0  0
 14 15  1  0  0  0  0
 14 17  1  0  0  0  0
 17 18  1  0  0  0  0
 18 23  1  0  0  0  0
 18 19  2  0  0  0  0
 19 24  1  0  0  0  0
 20 19  1  0  0  0  0
 21 20  2  0  0  0  0
 22 17  2  0  0  0  0
 22 21  1  0  0  0  0
 25 21  1  0  0  0  0
M  END
>  <minimizedAffinity>
-4.2167511

$$$$

 OpenBabel03272504013D

 25 27  0  0  0  0  0  0  0  0999 V2000
   37.8360   24.9900   33.8930 C   0  0  0  0  0  0  0  0  0  0  0  0
   37.1160   24.3120   34.4200 H   0  0  0  0  0  0  0  0  0  0  0  0
   37.9890   24.4880   32.9270 H   0  0  0  0  0  0  0  0  0  0  0  0
   37.1990   26.2910   33.5720 C   0  0  0  0  0  0  0  0  0  0  0  0
   37.0060   27.2450   34.5610 C   0  0  0  0  0  0  0  0  0  0  0  0
   36.4080   28.3290   33.9830 C   0  0  0  0  0  0  0  0  0  0  0  0
   36.2470   28.0390   32.6920 N   0  0  0  0  0  0  0  0  0  0  0  0
   36.7180   26.8350   32.4650 N   0  0  0  0  0  0  0  0  0  0  0  0
   37.2450   27.2350   35.6200 H   0  0  0  0  0  0  0  0  0  0  0  0
   36.0940   29.2820   34.4240 H   0  0  0  0  0  0  0  0  0  0  0  0
   35.6540   28.8920   31.6770 C   0  0  0  0  0  3  0  0  0  0  0  0
   36.5800   29.6270   30.7160 C   0  0  0  0  0  2  0  0  0  0  0  0
   35.8590   30.3410   31.8050 C   0  0  0  0  0  2  0  0  0  0  0  0
   39.0040   25.1290   34.7930 C   0  0  0  0  0  0  0  0  0  0  0  0
   39.8900   24.6990   34.2260 H   0  0  0  0  0  0  0  0  0  0  0  0
   39.3280   26.2110   34.9000 H   0  0  0  0  0  0  0  0  0  0  0  0
   38.9720   24.4380   36.0580 C   0  0  0  0  0  0  0  0  0  0  0  0
   38.0350   24.7400   37.0100 C   0  0  0  0  0  0  0  0  0  0  0  0
   38.0250   24.0520   38.2460 C   0  0  0  0  0  0  0  0  0  0  0  0
   39.0070   23.0850   38.3990 N   0  0  0  0  0  0  0  0  0  0  0  0
   39.9090   22.8260   37.4250 C   0  0  0  0  0  0  0  0  0  0  0  0
   39.8950   23.5070   36.2410 N   0  0  0  0  0  0  0  0  0  0  0  0
   37.2350   25.4570   37.0010 H   0  0  0  0  0  0  0  0  0  0  0  0
   37.3540   24.1960   39.0560 H   0  0  0  0  0  0  0  0  0  0  0  0
   40.6440   22.0540   37.6220 H   0  0  0  0  0  0  0  0  0  0  0  0
  1  2  1  0  0  0  0
  1 14  1  0  0  0  0
  3  1  1  0  0  0  0
  4  1  1  0  0  0  0
  4  5  1  0  0  0  0
  5  9  1  0  0  0  0
  6 10  1  0  0  0  0
  6  5  2  0  0  0  0
  7  6  1  0  0  0  0
  8  7  1  0  0  0  0
  8  4  2  0  0  0  0
 11 13  1  0  0  0  0
 11  7  1  0  0  0  0
 12 11  1  0  0  0  0
 12 13  1  0  0  0  0
 14 16  1  0  0  0  0
 14 17  1  0  0  0  0
 15 14  1  0  0  0  0
 17 22  2  0  0  0  0
 17 18  1  0  0  0  0
 18 19  2  0  0  0  0
 19 20  1  0  0  0  0
 19 24  1  0  0  0  0
 21 25  1  0  0  0  0
 21 20  2  0  0  0  0
 22 21  1  0  0  0  0
 23 18  1  0  0  0  0
M  END
>  <minimizedAffinity>
-4.14169264

$$$$

 OpenBabel03272504013D

 25 27  0  0  0  0  0  0  0  0999 V2000
   39.4880   27.0470   34.5430 C   0  0  0  0  0  0  0  0  0  0  0  0
   38.7360   27.8300   34.8250 H   0  0  0  0  0  0  0  0  0  0  0  0
   40.4260   27.4420   34.9570 H   0  0  0  0  0  0  0  0  0  0  0  0
   39.2300   25.7800   35.2710 C   0  0  0  0  0  0  0  0  0  0  0  0
   38.1390   25.6630   36.1200 C   0  0  0  0  0  0  0  0  0  0  0  0
   38.1520   24.4010   36.6440 C   0  0  0  0  0  0  0  0  0  0  0  0
   39.2120   23.7800   36.1290 N   0  0  0  0  0  0  0  0  0  0  0  0
   39.8370   24.6050   35.3220 N   0  0  0  0  0  0  0  0  0  0  0  0
   37.3640   26.3740   36.3890 H   0  0  0  0  0  0  0  0  0  0  0  0
   37.4640   23.9230   37.3510 H   0  0  0  0  0  0  0  0  0  0  0  0
   39.6340   22.4160   36.3950 C   0  0  0  0  0  3  0  0  0  0  0  0
   40.6230   22.1700   37.5270 C   0  0  0  0  0  2  0  0  0  0  0  0
   41.0290   22.0670   36.0990 C   0  0  0  0  0  2  0  0  0  0  0  0
   39.3910   26.8950   33.0730 C   0  0  0  0  0  0  0  0  0  0  0  0
   39.8580   27.8300   32.6290 H   0  0  0  0  0  0  0  0  0  0  0  0
   40.1000   26.0990   32.6830 H   0  0  0  0  0  0  0  0  0  0  0  0
   38.0780   26.7930   32.4860 C   0  0  0  0  0  0  0  0  0  0  0  0
   37.1960   27.8400   32.5300 C   0  0  0  0  0  0  0  0  0  0  0  0
   35.9110   27.7160   31.9510 C   0  0  0  0  0  0  0  0  0  0  0  0
   35.6380   26.4930   31.3600 N   0  0  0  0  0  0  0  0  0  0  0  0
   36.5470   25.4910   31.3440 C   0  0  0  0  0  0  0  0  0  0  0  0
   37.7810   25.6390   31.9120 N   0  0  0  0  0  0  0  0  0  0  0  0
   37.2970   28.8240   32.9520 H   0  0  0  0  0  0  0  0  0  0  0  0
   35.1460   28.4520   31.9220 H   0  0  0  0  0  0  0  0  0  0  0  0
   36.2560   24.5650   30.8620 H   0  0  0  0  0  0  0  0  0  0  0  0
  1  2  1  0  0  0  0
  1  3  1  0  0  0  0
  1  4  1  0  0  0  0
  4  8  2  0  0  0  0
  4  5  1  0  0  0  0
  5  9  1  0  0  0  0
  5  6  2  0  0  0  0
  6 10  1  0  0  0  0
  7 11  1  0  0  0  0
  7  6  1  0  0  0  0
  8  7  1  0  0  0  0
 11 12  1  0  0  0  0
 13 11  1  0  0  0  0
 13 12  1  0  0  0  0
 14  1  1  0  0  0  0
 15 14  1  0  0  0  0
 16 14  1  0  0  0  0
 17 18  1  0  0  0  0
 17 14  1  0  0  0  0
 18 23  1  0  0  0  0
 19 18  2  0  0  0  0
 20 19  1  0  0  0  0
 21 20  2  0  0  0  0
 21 22  1  0  0  0  0
 22 17  2  0  0  0  0
 24 19  1  0  0  0  0
 25 21  1  0  0  0  0
M  END
>  <minimizedAffinity>
-4.12163305

$$$$

 OpenBabel03272504013D

 25 27  0  0  0  0  0  0  0  0999 V2000
   38.3290   22.6370   33.4500 C   0  0  0  0  0  0  0  0  0  0  0  0
   38.0990   21.9190   32.6210 H   0  0  0  0  0  0  0  0  0  0  0  0
   39.4240   22.7230   33.4070 H   0  0  0  0  0  0  0  0  0  0  0  0
   37.8080   23.9900   33.1380 C   0  0  0  0  0  0  0  0  0  0  0  0
   36.8300   24.1640   32.1680 C   0  0  0  0  0  0  0  0  0  0  0  0
   36.5450   25.4980   32.0980 C   0  0  0  0  0  0  0  0  0  0  0  0
   37.3230   26.1070   32.9930 N   0  0  0  0  0  0  0  0  0  0  0  0
   38.0600   25.2060   33.5970 N   0  0  0  0  0  0  0  0  0  0  0  0
   36.3220   23.4470   31.5300 H   0  0  0  0  0  0  0  0  0  0  0  0
   35.8330   26.0360   31.4600 H   0  0  0  0  0  0  0  0  0  0  0  0
   37.3690   27.5300   33.2770 C   0  0  0  0  0  3  0  0  0  0  0  0
   36.5570   28.0630   34.4510 C   0  0  0  0  0  2  0  0  0  0  0  0
   36.1460   28.3090   33.0420 C   0  0  0  0  0  2  0  0  0  0  0  0
   37.7280   22.0580   34.6740 C   0  0  0  0  0  0  0  0  0  0  0  0
   36.6460   22.4010   34.6850 H   0  0  0  0  0  0  0  0  0  0  0  0
   37.5930   20.9340   34.5860 H   0  0  0  0  0  0  0  0  0  0  0  0
   38.2780   22.4450   35.9490 C   0  0  0  0  0  0  0  0  0  0  0  0
   37.5150   23.0850   36.8880 C   0  0  0  0  0  0  0  0  0  0  0  0
   38.0770   23.4590   38.1320 C   0  0  0  0  0  0  0  0  0  0  0  0
   39.4130   23.1330   38.3050 N   0  0  0  0  0  0  0  0  0  0  0  0
   40.1220   22.4990   37.3430 C   0  0  0  0  0  0  0  0  0  0  0  0
   39.5520   22.1500   36.1520 N   0  0  0  0  0  0  0  0  0  0  0  0
   36.4820   23.3830   36.8670 H   0  0  0  0  0  0  0  0  0  0  0  0
   37.5890   23.9560   38.9330 H   0  0  0  0  0  0  0  0  0  0  0  0
   41.1610   22.2790   37.5570 H   0  0  0  0  0  0  0  0  0  0  0  0
  1 14  1  0  0  0  0
  2  1  1  0  0  0  0
  3  1  1  0  0  0  0
  4  1  1  0  0  0  0
  4  8  2  0  0  0  0
  5  4  1  0  0  0  0
  6  5  2  0  0  0  0
  6  7  1  0  0  0  0
  7 11  1  0  0  0  0
  7  8  1  0  0  0  0
  9  5  1  0  0  0  0
 10  6  1  0  0  0  0
 11 12  1  0  0  0  0
 13 11  1  0  0  0  0
 13 12  1  0  0  0  0
 14 15  1  0  0  0  0
 14 17  1  0  0  0  0
 16 14  1  0  0  0  0
 17 22  2  0  0  0  0
 17 18  1  0  0  0  0
 18 19  2  0  0  0  0
 19 20  1  0  0  0  0
 19 24  1  0  0  0  0
 21 25  1  0  0  0  0
 21 20  2  0  0  0  0
 22 21  1  0  0  0  0
 23 18  1  0  0  0  0
M  END
>  <minimizedAffinity>
-4.1021924

$$$$

 OpenBabel03272504013D

 25 27  0  0  0  0  0  0  0  0999 V2000
   38.1840   26.6410   35.9110 C   0  0  0  0  0  0  0  0  0  0  0  0
   37.7830   27.2360   36.7730 H   0  0  0  0  0  0  0  0  0  0  0  0
   39.1480   27.1250   35.7020 H   0  0  0  0  0  0  0  0  0  0  0  0
   38.5130   25.2570   36.3310 C   0  0  0  0  0  0  0  0  0  0  0  0
   37.8460   24.6640   37.3940 C   0  0  0  0  0  0  0  0  0  0  0  0
   38.3490   23.4030   37.5500 C   0  0  0  0  0  0  0  0  0  0  0  0
   39.2850   23.2410   36.6140 N   0  0  0  0  0  0  0  0  0  0  0  0
   39.3690   24.3420   35.9040 N   0  0  0  0  0  0  0  0  0  0  0  0
   37.0630   25.0400   38.0440 H   0  0  0  0  0  0  0  0  0  0  0  0
   38.0870   22.6230   38.2740 H   0  0  0  0  0  0  0  0  0  0  0  0
   40.0930   22.0560   36.3910 C   0  0  0  0  0  3  0  0  0  0  0  0
   41.2090   21.7430   37.3790 C   0  0  0  0  0  2  0  0  0  0  0  0
   41.4980   22.2550   36.0120 C   0  0  0  0  0  2  0  0  0  0  0  0
   37.1430   26.6910   34.8590 C   0  0  0  0  0  0  0  0  0  0  0  0
   36.5500   25.7270   34.9570 H   0  0  0  0  0  0  0  0  0  0  0  0
   36.3400   27.4570   35.0960 H   0  0  0  0  0  0  0  0  0  0  0  0
   37.5700   26.7530   33.4830 C   0  0  0  0  0  0  0  0  0  0  0  0
   38.8590   27.0770   33.1530 C   0  0  0  0  0  0  0  0  0  0  0  0
   39.2550   27.1350   31.7950 C   0  0  0  0  0  0  0  0  0  0  0  0
   38.2630   26.8460   30.8710 N   0  0  0  0  0  0  0  0  0  0  0  0
   37.0040   26.5320   31.2530 C   0  0  0  0  0  0  0  0  0  0  0  0
   36.6500   26.4830   32.5710 N   0  0  0  0  0  0  0  0  0  0  0  0
   39.7030   27.3130   33.7740 H   0  0  0  0  0  0  0  0  0  0  0  0
   40.2180   27.3730   31.4170 H   0  0  0  0  0  0  0  0  0  0  0  0
   36.2870   26.3180   30.4690 H   0  0  0  0  0  0  0  0  0  0  0  0
  1  4  1  0  0  0  0
  1  2  1  0  0  0  0
  3  1  1  0  0  0  0
  4  5  1  0  0  0  0
  5  6  2  0  0  0  0
  5  9  1  0  0  0  0
  6 10  1  0  0  0  0
  7  6  1  0  0  0  0
  8  4  2  0  0  0  0
  8  7  1  0  0  0  0
 11  7  1  0  0  0  0
 11 12  1  0  0  0  0
 13 11  1  0  0  0  0
 13 12  1  0  0  0  0
 14 15  1  0  0  0  0
 14 16  1  0  0  0  0
 14  1  1  0  0  0  0
 17 14  1  0  0  0  0
 18 17  1  0  0  0  0
 18 23  1  0  0  0  0
 19 18  2  0  0  0  0
 20 21  2  0  0  0  0
 20 19  1  0  0  0  0
 21 22  1  0  0  0  0
 22 17  2  0  0  0  0
 24 19  1  0  0  0  0
 25 21  1  0  0  0  0
M  END
>  <minimizedAffinity>
-4.09043074

$$$$
