
 OpenBabel03272510043D

 31 33  0  0  0  0  0  0  0  0999 V2000
   36.0520   30.4290   45.4290 C   0  0  0  0  0  0  0  0  0  0  0  0
   35.6890   30.2950   46.7320 C   0  0  0  0  0  0  0  0  0  0  0  0
   34.3850   29.9330   47.0590 C   0  0  0  0  0  0  0  0  0  0  0  0
   33.4170   29.6990   46.1000 C   0  0  0  0  0  0  0  0  0  0  0  0
   33.7450   29.8280   44.7750 C   0  0  0  0  0  0  0  0  0  0  0  0
   35.0390   30.1860   44.4880 C   0  0  0  0  0  0  0  0  0  0  0  0
   34.1240   29.8300   48.1210 H   0  0  0  0  0  0  0  0  0  0  0  0
   32.4510   29.4270   46.4510 H   0  0  0  0  0  0  0  0  0  0  0  0
   32.9650   29.6400   44.0850 H   0  0  0  0  0  0  0  0  0  0  0  0
   35.1700   30.2580   43.4000 H   0  0  0  0  0  0  0  0  0  0  0  0
   38.4440   31.8340   48.6200 C   0  0  0  0  0  0  0  0  0  0  0  0
   37.5290   31.5530   47.6190 C   0  0  0  0  0  0  0  0  0  0  0  0
   36.6020   30.5630   47.7890 C   0  0  0  0  0  0  0  0  0  0  0  0
   36.6260   29.8890   48.9710 N   0  0  0  0  0  0  0  0  0  0  0  0
   37.5050   30.1620   49.9410 C   0  0  0  0  0  0  0  0  0  0  0  0
   38.4100   31.1300   49.7590 N   0  0  0  0  0  0  0  0  0  0  0  0
   39.2280   32.5630   48.6520 H   0  0  0  0  0  0  0  0  0  0  0  0
   37.7450   32.2650   46.8600 H   0  0  0  0  0  0  0  0  0  0  0  0
   37.3680   29.3930   51.2070 C   0  0  0  0  0  0  0  0  0  0  0  0
   37.6710   30.1600   52.3150 F   0  0  0  0  0  0  0  0  0  0  0  0
   35.9680   29.0920   51.4140 F   0  0  0  0  0  0  0  0  0  0  0  0
   37.9470   28.2160   51.2600 F   0  0  0  0  0  0  0  0  0  0  0  0
   37.6220   30.8300   44.9000 S   0  0  0  0  0  0  0  0  0  0  0  0
   37.8830   32.2950   45.0420 O   0  0  0  0  0  0  0  0  0  0  0  0
   37.3680   30.8620   43.4120 O   0  0  0  0  0  0  0  0  0  0  0  0
   38.9010   29.7710   44.5760 C   0  0  0  0  0  0  0  0  0  0  0  0
   39.8930   30.0450   44.9450 H   0  0  0  0  0  0  0  0  0  0  0  0
   38.6910   28.8420   45.2100 H   0  0  0  0  0  0  0  0  0  0  0  0
   38.9090   29.1940   43.1880 C   0  0  0  0  0  3  0  0  0  0  0  0
   39.1230   27.6650   43.1930 C   0  0  0  0  0  2  0  0  0  0  0  0
   40.1400   28.6170   42.6030 C   0  0  0  0  0  2  0  0  0  0  0  0
  1  2  1  0  0  0  0
  2  3  2  0  0  0  0
  2 13  1  0  0  0  0
  3  7  1  0  0  0  0
  4  8  1  0  0  0  0
  4  3  1  0  0  0  0
  5  4  2  0  0  0  0
  6  5  1  0  0  0  0
  6  1  2  0  0  0  0
  9  5  1  0  0  0  0
 10  6  1  0  0  0  0
 11 17  1  0  0  0  0
 11 16  1  0  0  0  0
 12 13  1  0  0  0  0
 12 11  2  0  0  0  0
 13 14  2  0  0  0  0
 14 15  1  0  0  0  0
 15 19  1  0  0  0  0
 16 15  2  0  0  0  0
 18 12  1  0  0  0  0
 19 22  1  0  0  0  0
 19 21  1  0  0  0  0
 19 20  1  0  0  0  0
 23 24  2  0  0  0  0
 23  1  1  0  0  0  0
 25 23  2  0  0  0  0
 26 23  1  0  0  0  0
 26 27  1  0  0  0  0
 26 28  1  0  0  0  0
 29 30  1  0  0  0  0
 29 26  1  0  0  0  0
 31 29  1  0  0  0  0
 31 30  1  0  0  0  0
M  END
>  <minimizedAffinity>
-5.70573473

>  <minimizedRMSD>
2.20325398

$$$$
