
 OpenBabel03272509583D

 40 43  0  0  0  0  0  0  0  0999 V2000
   34.9830   28.3590   49.4120 O   0  0  0  0  0  0  0  0  0  0  0  0
   37.3170   30.1670   51.5040 C   0  0  0  0  0  0  0  0  0  0  0  0
   38.0520   30.8510   50.5080 C   0  0  0  0  0  0  0  0  0  0  0  0
   37.7000   30.6500   49.1840 C   0  0  0  0  0  0  0  0  0  0  0  0
   36.6540   29.7890   48.9600 N   0  0  0  0  0  0  0  0  0  0  0  0
   35.9750   29.1540   49.9100 C   0  0  0  0  0  0  0  0  0  0  0  0
   36.3200   29.3530   51.2000 N   0  0  0  0  0  0  0  0  0  0  0  0
   37.6120   30.3420   52.5320 H   0  0  0  0  0  0  0  0  0  0  0  0
   38.8720   31.5240   50.6990 H   0  0  0  0  0  0  0  0  0  0  0  0
   38.9310   33.2650   49.0080 F   0  0  0  0  0  0  0  0  0  0  0  0
   38.9130   32.4830   47.9470 C   0  0  0  0  0  0  0  0  0  0  0  0
   38.3350   31.2610   48.0380 C   0  0  0  0  0  0  0  0  0  0  0  0
   38.3670   30.5140   46.8640 C   0  0  0  0  0  0  0  0  0  0  0  0
   38.9470   30.9920   45.7090 C   0  0  0  0  0  0  0  0  0  0  0  0
   39.5200   32.2360   45.6620 C   0  0  0  0  0  0  0  0  0  0  0  0
   39.4980   32.9820   46.8000 C   0  0  0  0  0  0  0  0  0  0  0  0
   37.9450   29.5200   46.7880 H   0  0  0  0  0  0  0  0  0  0  0  0
   38.9650   30.3990   44.8000 H   0  0  0  0  0  0  0  0  0  0  0  0
   39.9850   32.6380   44.7610 H   0  0  0  0  0  0  0  0  0  0  0  0
   39.9470   33.9620   46.7730 H   0  0  0  0  0  0  0  0  0  0  0  0
   34.4120   28.6740   48.1530 C   0  0  0  0  0  0  0  0  0  0  0  0
   33.7920   29.5720   48.2700 H   0  0  0  0  0  0  0  0  0  0  0  0
   35.2460   28.7920   47.4180 H   0  0  0  0  0  0  0  0  0  0  0  0
   33.5420   27.5520   47.6580 C   0  0  0  0  0  0  0  0  0  0  0  0
   33.7730   27.2790   46.5990 H   0  0  0  0  0  0  0  0  0  0  0  0
   33.7440   26.6500   48.2430 H   0  0  0  0  0  0  0  0  0  0  0  0
   32.0890   27.8940   47.7520 C   0  0  0  0  0  0  0  0  0  0  0  0
   31.4040   27.4720   48.8740 C   0  0  0  0  0  0  0  0  0  0  0  0
   30.0720   27.7310   49.0590 C   0  0  0  0  0  0  0  0  0  0  0  0
   29.4120   28.4110   48.1330 N   0  0  0  0  0  0  0  0  0  0  0  0
   30.0880   28.8250   47.0330 C   0  0  0  0  0  0  0  0  0  0  0  0
   31.3980   28.5800   46.8280 N   0  0  0  0  0  0  0  0  0  0  0  0
   31.9330   26.9150   49.6370 H   0  0  0  0  0  0  0  0  0  0  0  0
   29.5940   27.3620   49.9790 H   0  0  0  0  0  0  0  0  0  0  0  0
   29.3290   29.5950   45.9890 C   0  0  0  0  0  0  0  0  0  0  0  0
   28.6300   30.3120   46.4880 H   0  0  0  0  0  0  0  0  0  0  0  0
   28.7260   28.8890   45.3590 H   0  0  0  0  0  0  0  0  0  0  0  0
   30.2400   30.3490   45.0770 C   0  0  0  0  0  3  0  0  0  0  0  0
   29.7250   30.4030   43.6250 C   0  0  0  0  0  2  0  0  0  0  0  0
   29.8910   31.6340   44.4590 C   0  0  0  0  0  2  0  0  0  0  0  0
  1  6  1  0  0  0  0
  2  8  1  0  0  0  0
  3  9  1  0  0  0  0
  3  2  2  0  0  0  0
  4  3  1  0  0  0  0
  5  4  2  0  0  0  0
  5  6  1  0  0  0  0
  6  7  2  0  0  0  0
  7  2  1  0  0  0  0
 11 12  1  0  0  0  0
 11 10  1  0  0  0  0
 12  4  1  0  0  0  0
 13 12  2  0  0  0  0
 14 13  1  0  0  0  0
 15 14  2  0  0  0  0
 15 16  1  0  0  0  0
 16 11  2  0  0  0  0
 17 13  1  0  0  0  0
 18 14  1  0  0  0  0
 19 15  1  0  0  0  0
 20 16  1  0  0  0  0
 21 22  1  0  0  0  0
 21  1  1  0  0  0  0
 23 21  1  0  0  0  0
 24 27  1  0  0  0  0
 24 21  1  0  0  0  0
 24 26  1  0  0  0  0
 25 24  1  0  0  0  0
 27 28  1  0  0  0  0
 28 29  2  0  0  0  0
 28 33  1  0  0  0  0
 29 34  1  0  0  0  0
 30 29  1  0  0  0  0
 31 30  2  0  0  0  0
 32 31  1  0  0  0  0
 32 27  2  0  0  0  0
 35 36  1  0  0  0  0
 35 31  1  0  0  0  0
 37 35  1  0  0  0  0
 38 35  1  0  0  0  0
 39 40  1  0  0  0  0
 39 38  1  0  0  0  0
 40 38  1  0  0  0  0
M  END
>  <minimizedAffinity>
-6.11314297

>  <minimizedRMSD>
0.190263197

$$$$
