
 OpenBabel03272501133D

 22 24  0  0  1  0  0  0  0  0999 V2000
   38.4470   25.8220   35.1260 C   0  0  1  0  0  0  0  0  0  0  0  0
   37.9010   27.0880   35.5560 C   0  0  1  0  0  0  0  0  0  0  0  0
   39.3770   27.0250   35.2370 C   0  0  0  0  0  0  0  0  0  0  0  0
   38.3150   25.4130   34.0910 H   0  0  0  0  0  0  0  0  0  0  0  0
   37.7260   27.2200   36.6570 H   0  0  0  0  0  0  0  0  0  0  0  0
   39.7020   27.4250   34.2650 H   0  0  0  0  0  0  0  0  0  0  0  0
   40.1210   27.0470   36.0350 H   0  0  0  0  0  0  0  0  0  0  0  0
   38.7890   24.7330   36.1240 C   0  0  0  0  0  0  0  0  0  0  0  0
   38.0080   24.7000   37.2810 C   0  0  0  0  0  0  0  0  0  0  0  0
   38.3560   23.7040   38.1930 C   0  0  0  0  0  0  0  0  0  0  0  0
   39.3870   22.8480   37.9340 N   0  0  0  0  0  0  0  0  0  0  0  0
   40.1180   22.9270   36.7840 C   0  0  0  0  0  0  0  0  0  0  0  0
   39.8040   23.8940   35.8620 N   0  0  0  0  0  0  0  0  0  0  0  0
   37.2060   25.4030   37.4300 H   0  0  0  0  0  0  0  0  0  0  0  0
   37.7880   23.6260   39.1100 H   0  0  0  0  0  0  0  0  0  0  0  0
   40.9260   22.2300   36.6170 H   0  0  0  0  0  0  0  0  0  0  0  0
   36.9520   27.8030   34.6300 C   0  0  0  0  0  0  0  0  0  0  0  0
   37.4050   28.8250   34.4690 H   0  0  0  0  0  0  0  0  0  0  0  0
   35.9520   27.8730   35.0640 H   0  0  0  0  0  0  0  0  0  0  0  0
   36.9210   27.1580   33.2470 C   0  0  0  0  0  3  0  0  0  0  0  0
   37.5210   27.9300   32.1160 C   0  0  0  0  0  2  0  0  0  0  0  0
   36.0130   27.7610   32.2000 C   0  0  0  0  0  2  0  0  0  0  0  0
  1  4  1  6  0  0  0
  1  3  1  0  0  0  0
  1  2  1  0  0  0  0
  1  8  1  0  0  0  0
  2  5  1  1  0  0  0
  3  2  1  0  0  0  0
  3  7  1  0  0  0  0
  6  3  1  0  0  0  0
  8  9  1  0  0  0  0
  9 14  1  0  0  0  0
  9 10  2  0  0  0  0
 10 15  1  0  0  0  0
 11 10  1  0  0  0  0
 12 11  2  0  0  0  0
 13  8  2  0  0  0  0
 13 12  1  0  0  0  0
 16 12  1  0  0  0  0
 17 19  1  0  0  0  0
 17  2  1  0  0  0  0
 18 17  1  0  0  0  0
 20 17  1  0  0  0  0
 21 22  1  0  0  0  0
 21 20  1  0  0  0  0
 22 20  1  0  0  0  0
M  END
>  <minimizedAffinity>
-4.16828966

$$$$

 OpenBabel03272501133D

 22 24  0  0  1  0  0  0  0  0999 V2000
   38.3660   25.8650   35.1670 C   0  0  1  0  0  0  0  0  0  0  0  0
   37.7750   27.1310   35.5310 C   0  0  1  0  0  0  0  0  0  0  0  0
   39.2680   27.0870   35.3000 C   0  0  0  0  0  0  0  0  0  0  0  0
   38.3020   25.4270   34.1370 H   0  0  0  0  0  0  0  0  0  0  0  0
   37.5330   27.2880   36.6160 H   0  0  0  0  0  0  0  0  0  0  0  0
   39.6430   27.4680   34.3380 H   0  0  0  0  0  0  0  0  0  0  0  0
   39.9630   27.1430   36.1390 H   0  0  0  0  0  0  0  0  0  0  0  0
   38.6660   24.8080   36.2110 C   0  0  0  0  0  0  0  0  0  0  0  0
   39.6480   23.8750   35.8700 C   0  0  0  0  0  0  0  0  0  0  0  0
   39.8900   22.9000   36.8360 C   0  0  0  0  0  0  0  0  0  0  0  0
   39.1980   22.8950   38.0140 N   0  0  0  0  0  0  0  0  0  0  0  0
   38.2470   23.8330   38.2940 C   0  0  0  0  0  0  0  0  0  0  0  0
   37.9820   24.8090   37.3670 N   0  0  0  0  0  0  0  0  0  0  0  0
   40.1610   23.9300   34.9240 H   0  0  0  0  0  0  0  0  0  0  0  0
   40.6400   22.1480   36.6320 H   0  0  0  0  0  0  0  0  0  0  0  0
   37.7220   23.7940   39.2370 H   0  0  0  0  0  0  0  0  0  0  0  0
   36.8700   27.8050   34.5320 C   0  0  0  0  0  0  0  0  0  0  0  0
   37.3160   28.8300   34.3700 H   0  0  0  0  0  0  0  0  0  0  0  0
   35.8460   27.8690   34.9050 H   0  0  0  0  0  0  0  0  0  0  0  0
   36.9300   27.1240   33.1680 C   0  0  0  0  0  3  0  0  0  0  0  0
   37.5400   27.8940   32.0420 C   0  0  0  0  0  2  0  0  0  0  0  0
   36.0400   27.6530   32.0670 C   0  0  0  0  0  2  0  0  0  0  0  0
  1  4  1  6  0  0  0
  1  3  1  0  0  0  0
  1  2  1  0  0  0  0
  1  8  1  0  0  0  0
  2  5  1  1  0  0  0
  3  2  1  0  0  0  0
  3  7  1  0  0  0  0
  6  3  1  0  0  0  0
  8 13  1  0  0  0  0
  9  8  2  0  0  0  0
  9 10  1  0  0  0  0
 10 11  2  0  0  0  0
 11 12  1  0  0  0  0
 12 16  1  0  0  0  0
 13 12  2  0  0  0  0
 14  9  1  0  0  0  0
 15 10  1  0  0  0  0
 17 19  1  0  0  0  0
 17  2  1  0  0  0  0
 18 17  1  0  0  0  0
 20 17  1  0  0  0  0
 21 22  1  0  0  0  0
 21 20  1  0  0  0  0
 22 20  1  0  0  0  0
M  END
>  <minimizedAffinity>
-4.12908316

$$$$

 OpenBabel03272501133D

 22 24  0  0  1  0  0  0  0  0999 V2000
   37.5130   26.7300   35.1320 C   0  0  1  0  0  0  0  0  0  0  0  0
   38.7820   26.0410   35.1270 C   0  0  1  0  0  0  0  0  0  0  0  0
   38.6730   27.3200   35.9260 C   0  0  0  0  0  0  0  0  0  0  0  0
   36.6340   26.4000   35.7430 H   0  0  0  0  0  0  0  0  0  0  0  0
   39.4340   26.1770   34.2230 H   0  0  0  0  0  0  0  0  0  0  0  0
   38.5570   27.2270   37.0160 H   0  0  0  0  0  0  0  0  0  0  0  0
   39.1440   28.2380   35.5720 H   0  0  0  0  0  0  0  0  0  0  0  0
   37.0950   27.6160   33.9740 C   0  0  0  0  0  0  0  0  0  0  0  0
   36.0930   28.5470   34.2520 C   0  0  0  0  0  0  0  0  0  0  0  0
   35.7090   29.3350   33.1670 C   0  0  0  0  0  0  0  0  0  0  0  0
   36.2960   29.1740   31.9440 N   0  0  0  0  0  0  0  0  0  0  0  0
   37.2720   28.2450   31.7300 C   0  0  0  0  0  0  0  0  0  0  0  0
   37.6760   27.4520   32.7750 N   0  0  0  0  0  0  0  0  0  0  0  0
   35.6670   28.6280   35.2380 H   0  0  0  0  0  0  0  0  0  0  0  0
   34.9370   30.0770   33.3170 H   0  0  0  0  0  0  0  0  0  0  0  0
   37.7110   28.1490   30.7480 H   0  0  0  0  0  0  0  0  0  0  0  0
   38.8700   24.7110   35.8300 C   0  0  0  0  0  0  0  0  0  0  0  0
   39.7810   24.7830   36.4920 H   0  0  0  0  0  0  0  0  0  0  0  0
   38.9600   23.8900   35.1140 H   0  0  0  0  0  0  0  0  0  0  0  0
   37.6980   24.4980   36.7840 C   0  0  0  0  0  3  0  0  0  0  0  0
   38.0200   24.2620   38.2240 C   0  0  0  0  0  2  0  0  0  0  0  0
   37.4950   23.1200   37.3690 C   0  0  0  0  0  2  0  0  0  0  0  0
  1  4  1  1  0  0  0
  1  3  1  0  0  0  0
  2  5  1  6  0  0  0
  2  1  1  0  0  0  0
  2 17  1  0  0  0  0
  2  3  1  0  0  0  0
  3  6  1  0  0  0  0
  7  3  1  0  0  0  0
  8  9  1  0  0  0  0
  8  1  1  0  0  0  0
  9 14  1  0  0  0  0
 10 15  1  0  0  0  0
 10  9  2  0  0  0  0
 11 10  1  0  0  0  0
 12 11  2  0  0  0  0
 12 13  1  0  0  0  0
 13  8  2  0  0  0  0
 16 12  1  0  0  0  0
 17 18  1  0  0  0  0
 17 20  1  0  0  0  0
 19 17  1  0  0  0  0
 20 22  1  0  0  0  0
 20 21  1  0  0  0  0
 22 21  1  0  0  0  0
M  END
>  <minimizedAffinity>
-4.09338951

$$$$

 OpenBabel03272501133D

 22 24  0  0  1  0  0  0  0  0999 V2000
   37.4540   26.6880   35.1240 C   0  0  1  0  0  0  0  0  0  0  0  0
   38.7630   26.0810   35.1790 C   0  0  1  0  0  0  0  0  0  0  0  0
   38.5210   27.3200   36.0120 C   0  0  0  0  0  0  0  0  0  0  0  0
   36.5610   26.2800   35.6650 H   0  0  0  0  0  0  0  0  0  0  0  0
   39.4600   26.2920   34.3250 H   0  0  0  0  0  0  0  0  0  0  0  0
   38.3420   27.1790   37.0880 H   0  0  0  0  0  0  0  0  0  0  0  0
   38.9510   28.2790   35.7210 H   0  0  0  0  0  0  0  0  0  0  0  0
   37.0530   27.5890   33.9720 C   0  0  0  0  0  0  0  0  0  0  0  0
   37.7440   27.3910   32.7750 C   0  0  0  0  0  0  0  0  0  0  0  0
   37.3730   28.2460   31.7380 C   0  0  0  0  0  0  0  0  0  0  0  0
   36.4030   29.1890   31.9220 N   0  0  0  0  0  0  0  0  0  0  0  0
   35.7600   29.3380   33.1160 C   0  0  0  0  0  0  0  0  0  0  0  0
   36.0980   28.5140   34.1600 N   0  0  0  0  0  0  0  0  0  0  0  0
   38.5010   26.6300   32.6900 H   0  0  0  0  0  0  0  0  0  0  0  0
   37.8720   28.1440   30.7840 H   0  0  0  0  0  0  0  0  0  0  0  0
   34.9980   30.0970   33.2210 H   0  0  0  0  0  0  0  0  0  0  0  0
   38.8930   24.7340   35.8410 C   0  0  0  0  0  0  0  0  0  0  0  0
   39.8480   24.7870   36.4420 H   0  0  0  0  0  0  0  0  0  0  0  0
   38.9310   23.9310   35.1010 H   0  0  0  0  0  0  0  0  0  0  0  0
   37.7880   24.5000   36.8670 C   0  0  0  0  0  3  0  0  0  0  0  0
   38.1940   23.9660   38.2030 C   0  0  0  0  0  2  0  0  0  0  0  0
   37.4410   23.0750   37.2290 C   0  0  0  0  0  2  0  0  0  0  0  0
  1  2  1  0  0  0  0
  1  4  1  1  0  0  0
  1  3  1  0  0  0  0
  2  5  1  6  0  0  0
  2 17  1  0  0  0  0
  2  3  1  0  0  0  0
  3  6  1  0  0  0  0
  7  3  1  0  0  0  0
  8 13  1  0  0  0  0
  8  1  1  0  0  0  0
  9  8  2  0  0  0  0
 10 11  2  0  0  0  0
 10  9  1  0  0  0  0
 11 12  1  0  0  0  0
 12 16  1  0  0  0  0
 12 13  2  0  0  0  0
 14  9  1  0  0  0  0
 15 10  1  0  0  0  0
 17 18  1  0  0  0  0
 17 20  1  0  0  0  0
 19 17  1  0  0  0  0
 20 22  1  0  0  0  0
 20 21  1  0  0  0  0
 22 21  1  0  0  0  0
M  END
>  <minimizedAffinity>
-4.06931114

$$$$

 OpenBabel03272501133D

 22 24  0  0  1  0  0  0  0  0999 V2000
   38.3130   25.8640   35.0430 C   0  0  1  0  0  0  0  0  0  0  0  0
   37.6020   27.0980   35.2810 C   0  0  1  0  0  0  0  0  0  0  0  0
   39.1110   27.1530   35.2070 C   0  0  0  0  0  0  0  0  0  0  0  0
   38.3890   25.3790   34.0350 H   0  0  0  0  0  0  0  0  0  0  0  0
   37.2360   27.2830   36.3260 H   0  0  0  0  0  0  0  0  0  0  0  0
   39.5580   27.5190   34.2700 H   0  0  0  0  0  0  0  0  0  0  0  0
   39.7070   27.2960   36.1090 H   0  0  0  0  0  0  0  0  0  0  0  0
   38.5730   24.8770   36.1650 C   0  0  0  0  0  0  0  0  0  0  0  0
   39.5480   23.9100   35.9120 C   0  0  0  0  0  0  0  0  0  0  0  0
   39.7530   23.0010   36.9490 C   0  0  0  0  0  0  0  0  0  0  0  0
   39.0340   23.0870   38.1060 N   0  0  0  0  0  0  0  0  0  0  0  0
   38.0910   24.0540   38.2990 C   0  0  0  0  0  0  0  0  0  0  0  0
   37.8620   24.9670   37.3000 N   0  0  0  0  0  0  0  0  0  0  0  0
   40.0840   23.8930   34.9780 H   0  0  0  0  0  0  0  0  0  0  0  0
   40.4960   22.2270   36.8150 H   0  0  0  0  0  0  0  0  0  0  0  0
   37.5430   24.0870   39.2290 H   0  0  0  0  0  0  0  0  0  0  0  0
   36.7640   27.6610   34.1620 C   0  0  0  0  0  0  0  0  0  0  0  0
   35.8770   26.9670   34.0750 H   0  0  0  0  0  0  0  0  0  0  0  0
   37.3290   27.7050   33.2280 H   0  0  0  0  0  0  0  0  0  0  0  0
   36.1740   29.0200   34.5280 C   0  0  0  0  0  3  0  0  0  0  0  0
   34.7130   29.2200   34.2880 C   0  0  0  0  0  2  0  0  0  0  0  0
   35.7270   29.9280   33.4060 C   0  0  0  0  0  2  0  0  0  0  0  0
  1  4  1  6  0  0  0
  1  3  1  0  0  0  0
  1  2  1  0  0  0  0
  1  8  1  0  0  0  0
  2  5  1  1  0  0  0
  3  2  1  0  0  0  0
  3  7  1  0  0  0  0
  6  3  1  0  0  0  0
  8 13  1  0  0  0  0
  9  8  2  0  0  0  0
  9 10  1  0  0  0  0
 10 11  2  0  0  0  0
 11 12  1  0  0  0  0
 12 16  1  0  0  0  0
 13 12  2  0  0  0  0
 14  9  1  0  0  0  0
 15 10  1  0  0  0  0
 17 20  1  0  0  0  0
 17  2  1  0  0  0  0
 18 17  1  0  0  0  0
 19 17  1  0  0  0  0
 21 20  1  0  0  0  0
 22 21  1  0  0  0  0
 22 20  1  0  0  0  0
M  END
>  <minimizedAffinity>
-3.99181771

$$$$

 OpenBabel03272501133D

 22 24  0  0  1  0  0  0  0  0999 V2000
   35.0710   30.2870   34.4660 C   0  0  1  0  0  0  0  0  0  0  0  0
   35.9070   31.0750   35.3400 C   0  0  1  0  0  0  0  0  0  0  0  0
   35.6840   31.5770   33.9310 C   0  0  0  0  0  0  0  0  0  0  0  0
   33.9520   30.2770   34.5250 H   0  0  0  0  0  0  0  0  0  0  0  0
   36.9630   30.7260   35.4880 H   0  0  0  0  0  0  0  0  0  0  0  0
   34.9550   32.3900   33.7930 H   0  0  0  0  0  0  0  0  0  0  0  0
   36.4790   31.5160   33.1870 H   0  0  0  0  0  0  0  0  0  0  0  0
   35.6090   29.0560   33.7620 C   0  0  0  0  0  0  0  0  0  0  0  0
   36.5200   28.2880   34.4900 C   0  0  0  0  0  0  0  0  0  0  0  0
   37.0180   27.1750   33.8140 C   0  0  0  0  0  0  0  0  0  0  0  0
   36.6170   26.8940   32.5390 N   0  0  0  0  0  0  0  0  0  0  0  0
   35.7220   27.6810   31.8750 C   0  0  0  0  0  0  0  0  0  0  0  0
   35.2100   28.7860   32.5090 N   0  0  0  0  0  0  0  0  0  0  0  0
   36.7990   28.5600   35.4940 H   0  0  0  0  0  0  0  0  0  0  0  0
   37.7280   26.5380   34.3240 H   0  0  0  0  0  0  0  0  0  0  0  0
   35.4320   27.4240   30.8670 H   0  0  0  0  0  0  0  0  0  0  0  0
   35.2550   31.7710   36.5070 C   0  0  0  0  0  0  0  0  0  0  0  0
   35.6530   32.8280   36.4850 H   0  0  0  0  0  0  0  0  0  0  0  0
   35.4950   31.2740   37.4490 H   0  0  0  0  0  0  0  0  0  0  0  0
   33.7480   31.9080   36.3120 C   0  0  0  0  0  3  0  0  0  0  0  0
   33.0120   32.8050   37.2550 C   0  0  0  0  0  2  0  0  0  0  0  0
   32.8360   31.2980   37.3510 C   0  0  0  0  0  2  0  0  0  0  0  0
  1  4  1  1  0  0  0
  1  2  1  0  0  0  0
  2  5  1  1  0  0  0
  2 17  1  0  0  0  0
  3  1  1  0  0  0  0
  3  2  1  0  0  0  0
  6  3  1  0  0  0  0
  7  3  1  0  0  0  0
  8  1  1  0  0  0  0
  8  9  1  0  0  0  0
  9 14  1  0  0  0  0
 10 15  1  0  0  0  0
 10  9  2  0  0  0  0
 11 10  1  0  0  0  0
 12 13  1  0  0  0  0
 12 11  2  0  0  0  0
 13  8  2  0  0  0  0
 16 12  1  0  0  0  0
 17 19  1  0  0  0  0
 18 17  1  0  0  0  0
 20 17  1  0  0  0  0
 20 21  1  0  0  0  0
 20 22  1  0  0  0  0
 21 22  1  0  0  0  0
M  END
>  <minimizedAffinity>
-3.90852118

$$$$

 OpenBabel03272501133D

 22 24  0  0  1  0  0  0  0  0999 V2000
   38.5660   21.9240   34.3730 C   0  0  1  0  0  0  0  0  0  0  0  0
   37.3240   22.1710   33.6780 C   0  0  1  0  0  0  0  0  0  0  0  0
   38.4970   23.0760   33.3770 C   0  0  0  0  0  0  0  0  0  0  0  0
   39.2720   21.0970   34.1010 H   0  0  0  0  0  0  0  0  0  0  0  0
   36.5220   22.7150   34.2440 H   0  0  0  0  0  0  0  0  0  0  0  0
   39.0530   22.8900   32.4450 H   0  0  0  0  0  0  0  0  0  0  0  0
   38.5200   24.1000   33.7490 H   0  0  0  0  0  0  0  0  0  0  0  0
   38.7790   22.4020   35.7960 C   0  0  0  0  0  0  0  0  0  0  0  0
   40.0530   22.1890   36.3260 C   0  0  0  0  0  0  0  0  0  0  0  0
   40.2190   22.6170   37.6430 C   0  0  0  0  0  0  0  0  0  0  0  0
   39.1870   23.1950   38.3240 N   0  0  0  0  0  0  0  0  0  0  0  0
   37.9600   23.3790   37.7550 C   0  0  0  0  0  0  0  0  0  0  0  0
   37.7600   22.9700   36.4600 N   0  0  0  0  0  0  0  0  0  0  0  0
   40.8290   21.7260   35.7390 H   0  0  0  0  0  0  0  0  0  0  0  0
   41.1840   22.4800   38.1110 H   0  0  0  0  0  0  0  0  0  0  0  0
   37.1700   23.8410   38.3290 H   0  0  0  0  0  0  0  0  0  0  0  0
   36.8650   21.1560   32.6630 C   0  0  0  0  0  0  0  0  0  0  0  0
   37.5930   20.2970   32.7490 H   0  0  0  0  0  0  0  0  0  0  0  0
   36.8620   21.5780   31.6550 H   0  0  0  0  0  0  0  0  0  0  0  0
   35.5070   20.5660   33.0300 C   0  0  0  0  0  3  0  0  0  0  0  0
   35.4100   19.0780   33.1310 C   0  0  0  0  0  2  0  0  0  0  0  0
   34.7510   19.8010   31.9680 C   0  0  0  0  0  2  0  0  0  0  0  0
  1  4  1  6  0  0  0
  1  8  1  0  0  0  0
  2  5  1  1  0  0  0
  2  1  1  0  0  0  0
  3  2  1  0  0  0  0
  3  7  1  0  0  0  0
  3  1  1  0  0  0  0
  6  3  1  0  0  0  0
  8  9  2  0  0  0  0
  8 13  1  0  0  0  0
  9 10  1  0  0  0  0
 10 15  1  0  0  0  0
 10 11  2  0  0  0  0
 12 11  1  0  0  0  0
 12 16  1  0  0  0  0
 13 12  2  0  0  0  0
 14  9  1  0  0  0  0
 17 18  1  0  0  0  0
 17 20  1  0  0  0  0
 17  2  1  0  0  0  0
 19 17  1  0  0  0  0
 20 21  1  0  0  0  0
 22 20  1  0  0  0  0
 22 21  1  0  0  0  0
M  END
>  <minimizedAffinity>
-3.89256167

$$$$

 OpenBabel03272501133D

 22 24  0  0  1  0  0  0  0  0999 V2000
   37.3710   26.4850   35.2540 C   0  0  1  0  0  0  0  0  0  0  0  0
   38.3140   25.5330   35.7950 C   0  0  1  0  0  0  0  0  0  0  0  0
   38.7390   26.9820   35.7100 C   0  0  0  0  0  0  0  0  0  0  0  0
   36.4990   26.8860   35.8330 H   0  0  0  0  0  0  0  0  0  0  0  0
   38.8760   24.8980   35.0590 H   0  0  0  0  0  0  0  0  0  0  0  0
   38.7090   27.5730   36.6380 H   0  0  0  0  0  0  0  0  0  0  0  0
   39.4610   27.3070   34.9600 H   0  0  0  0  0  0  0  0  0  0  0  0
   37.1710   26.6310   33.7590 C   0  0  0  0  0  0  0  0  0  0  0  0
   37.3550   25.4720   33.0030 C   0  0  0  0  0  0  0  0  0  0  0  0
   37.1880   25.6370   31.6280 C   0  0  0  0  0  0  0  0  0  0  0  0
   36.8690   26.8570   31.1040 N   0  0  0  0  0  0  0  0  0  0  0  0
   36.7020   27.9580   31.8920 C   0  0  0  0  0  0  0  0  0  0  0  0
   36.8580   27.8340   33.2500 N   0  0  0  0  0  0  0  0  0  0  0  0
   37.6060   24.5360   33.4730 H   0  0  0  0  0  0  0  0  0  0  0  0
   37.3170   24.7750   30.9880 H   0  0  0  0  0  0  0  0  0  0  0  0
   36.4500   28.9050   31.4380 H   0  0  0  0  0  0  0  0  0  0  0  0
   38.0040   24.9080   37.1300 C   0  0  0  0  0  0  0  0  0  0  0  0
   36.8910   25.0330   37.2680 H   0  0  0  0  0  0  0  0  0  0  0  0
   38.5640   25.3930   37.9340 H   0  0  0  0  0  0  0  0  0  0  0  0
   38.2370   23.4000   37.1140 C   0  0  0  0  0  3  0  0  0  0  0  0
   39.6460   22.9210   37.2550 C   0  0  0  0  0  2  0  0  0  0  0  0
   38.9370   22.7990   35.9170 C   0  0  0  0  0  2  0  0  0  0  0  0
  1  3  1  0  0  0  0
  1  2  1  0  0  0  0
  1  4  1  1  0  0  0
  2  5  1  6  0  0  0
  2 17  1  0  0  0  0
  3  2  1  0  0  0  0
  3  6  1  0  0  0  0
  7  3  1  0  0  0  0
  8  1  1  0  0  0  0
  9 14  1  0  0  0  0
  9  8  2  0  0  0  0
 10  9  1  0  0  0  0
 11 10  2  0  0  0  0
 11 12  1  0  0  0  0
 12 13  2  0  0  0  0
 13  8  1  0  0  0  0
 15 10  1  0  0  0  0
 16 12  1  0  0  0  0
 17 18  1  0  0  0  0
 17 19  1  0  0  0  0
 20 17  1  0  0  0  0
 20 21  1  0  0  0  0
 22 20  1  0  0  0  0
 22 21  1  0  0  0  0
M  END
>  <minimizedAffinity>
-3.75334311

$$$$

 OpenBabel03272501133D

 22 24  0  0  1  0  0  0  0  0999 V2000
   36.3540   25.5540   31.2930 C   0  0  1  0  0  0  0  0  0  0  0  0
   35.8690   24.2560   31.6970 C   0  0  1  0  0  0  0  0  0  0  0  0
   34.9630   25.1180   30.8480 C   0  0  0  0  0  0  0  0  0  0  0  0
   37.0960   25.7070   30.4660 H   0  0  0  0  0  0  0  0  0  0  0  0
   35.4780   24.1600   32.7450 H   0  0  0  0  0  0  0  0  0  0  0  0
   34.8960   24.8780   29.7760 H   0  0  0  0  0  0  0  0  0  0  0  0
   34.0900   25.6060   31.2830 H   0  0  0  0  0  0  0  0  0  0  0  0
   36.3130   26.7380   32.2390 C   0  0  0  0  0  0  0  0  0  0  0  0
   36.9530   26.5590   33.4680 C   0  0  0  0  0  0  0  0  0  0  0  0
   36.8820   27.6530   34.3290 C   0  0  0  0  0  0  0  0  0  0  0  0
   36.2280   28.7930   33.9590 N   0  0  0  0  0  0  0  0  0  0  0  0
   35.6200   28.9130   32.7430 C   0  0  0  0  0  0  0  0  0  0  0  0
   35.6690   27.8560   31.8690 N   0  0  0  0  0  0  0  0  0  0  0  0
   37.4530   25.6350   33.7040 H   0  0  0  0  0  0  0  0  0  0  0  0
   37.3580   27.5770   35.2970 H   0  0  0  0  0  0  0  0  0  0  0  0
   35.1130   29.8320   32.4890 H   0  0  0  0  0  0  0  0  0  0  0  0
   36.5300   23.0360   31.1080 C   0  0  0  0  0  0  0  0  0  0  0  0
   37.3320   22.7440   31.8480 H   0  0  0  0  0  0  0  0  0  0  0  0
   36.9540   23.2520   30.1250 H   0  0  0  0  0  0  0  0  0  0  0  0
   35.5770   21.8460   31.0610 C   0  0  0  0  0  3  0  0  0  0  0  0
   35.1090   21.2890   32.3660 C   0  0  0  0  0  2  0  0  0  0  0  0
   36.0930   20.5010   31.5180 C   0  0  0  0  0  2  0  0  0  0  0  0
  1  4  1  6  0  0  0
  1  2  1  0  0  0  0
  1  8  1  0  0  0  0
  2  5  1  1  0  0  0
  3  7  1  0  0  0  0
  3  1  1  0  0  0  0
  3  2  1  0  0  0  0
  6  3  1  0  0  0  0
  8  9  1  0  0  0  0
  9 14  1  0  0  0  0
  9 10  2  0  0  0  0
 10 15  1  0  0  0  0
 11 10  1  0  0  0  0
 12 11  2  0  0  0  0
 13  8  2  0  0  0  0
 13 12  1  0  0  0  0
 16 12  1  0  0  0  0
 17  2  1  0  0  0  0
 17 18  1  0  0  0  0
 19 17  1  0  0  0  0
 20 17  1  0  0  0  0
 20 22  1  0  0  0  0
 20 21  1  0  0  0  0
 22 21  1  0  0  0  0
M  END
>  <minimizedAffinity>
-3.74906969

$$$$
