
 OpenBabel03272507273D

 33 35  0  0  1  0  0  0  0  0999 V2000
   37.9160   31.4620   49.3600 C   0  0  0  0  0  0  0  0  0  0  0  0
   38.7020   31.9430   48.2930 C   0  0  0  0  0  0  0  0  0  0  0  0
   38.2260   31.7400   46.9910 C   0  0  0  0  0  0  0  0  0  0  0  0
   37.0610   31.1060   46.8350 N   0  0  0  0  0  0  0  0  0  0  0  0
   36.3330   30.6570   47.8700 C   0  0  0  0  0  0  0  0  0  0  0  0
   36.7610   30.8370   49.1260 N   0  0  0  0  0  0  0  0  0  0  0  0
   38.9720   32.1990   45.8920 N   0  0  0  0  0  0  0  0  0  0  0  0
   39.8850   33.3490   45.9050 C   0  0  0  0  0  0  0  0  0  0  0  0
   40.2580   33.6190   44.4760 C   0  0  0  0  0  0  0  0  0  0  0  0
   39.2070   32.9130   43.7190 C   0  0  0  0  0  0  0  0  0  0  0  0
   39.0060   31.6660   44.5670 C   0  0  2  0  0  0  0  0  0  0  0  0
   38.3830   31.6760   50.3320 H   0  0  0  0  0  0  0  0  0  0  0  0
   39.6430   32.4560   48.3980 H   0  0  0  0  0  0  0  0  0  0  0  0
   35.3870   30.1410   47.7700 H   0  0  0  0  0  0  0  0  0  0  0  0
   40.7720   32.9900   46.4690 H   0  0  0  0  0  0  0  0  0  0  0  0
   39.4080   34.1910   46.4030 H   0  0  0  0  0  0  0  0  0  0  0  0
   40.1040   34.7240   44.3220 H   0  0  0  0  0  0  0  0  0  0  0  0
   41.2960   33.3900   44.2360 H   0  0  0  0  0  0  0  0  0  0  0  0
   39.4770   32.6540   42.6760 H   0  0  0  0  0  0  0  0  0  0  0  0
   38.2860   33.5150   43.6800 H   0  0  0  0  0  0  0  0  0  0  0  0
   37.8540   30.8450   44.1120 C   0  0  0  0  0  0  0  0  0  0  0  0
   36.7040   31.4900   44.5460 F   0  0  0  0  0  0  0  0  0  0  0  0
   37.8130   29.5720   44.5810 F   0  0  0  0  0  0  0  0  0  0  0  0
   37.8360   30.9150   42.7290 F   0  0  0  0  0  0  0  0  0  0  0  0
   40.2440   30.8490   44.4870 C   0  0  0  0  0  0  0  0  0  0  0  0
   40.2020   30.1540   45.3520 H   0  0  0  0  0  0  0  0  0  0  0  0
   41.0990   31.5520   44.7300 H   0  0  0  0  0  0  0  0  0  0  0  0
   40.3920   30.5390   43.2910 O   0  0  0  0  0  0  0  0  0  0  0  0
   40.5500   29.4010   42.5870 C   0  0  0  0  0  0  0  0  0  0  0  0
   41.7340   29.3610   42.1670 O   0  0  0  0  0  0  0  0  0  0  0  0
   40.2460   28.1300   41.9640 C   0  0  0  0  0  3  0  0  0  0  0  0
   39.5420   27.0190   42.6310 C   0  0  0  0  0  2  0  0  0  0  0  0
   38.7840   27.8410   41.6890 C   0  0  0  0  0  2  0  0  0  0  0  0
  1 12  1  0  0  0  0
  2 13  1  0  0  0  0
  2  1  2  0  0  0  0
  3  2  1  0  0  0  0
  4  3  2  0  0  0  0
  4  5  1  0  0  0  0
  5  6  2  0  0  0  0
  6  1  1  0  0  0  0
  7  8  1  0  0  0  0
  7  3  1  0  0  0  0
  8 16  1  0  0  0  0
  8 15  1  0  0  0  0
  9  8  1  0  0  0  0
 10  9  1  0  0  0  0
 10 11  1  0  0  0  0
 11 21  1  6  0  0  0
 11  7  1  0  0  0  0
 14  5  1  0  0  0  0
 17  9  1  0  0  0  0
 18  9  1  0  0  0  0
 19 10  1  0  0  0  0
 20 10  1  0  0  0  0
 21 22  1  0  0  0  0
 21 23  1  0  0  0  0
 24 21  1  0  0  0  0
 25 11  1  0  0  0  0
 25 27  1  0  0  0  0
 25 26  1  0  0  0  0
 28 25  1  0  0  0  0
 29 28  1  0  0  0  0
 30 29  2  0  0  0  0
 31 29  1  0  0  0  0
 31 32  1  0  0  0  0
 33 31  1  0  0  0  0
 33 32  1  0  0  0  0
M  END
>  <minimizedAffinity>
-4.93521976

>  <minimizedRMSD>
1.39932835

$$$$
