
 OpenBabel03272504573D

 27 29  0  0  1  0  0  0  0  0999 V2000
   37.1910   31.8710   48.8660 C   0  0  1  0  0  0  0  0  0  0  0  0
   36.3330   30.9320   48.1880 C   0  0  0  0  0  0  0  0  0  0  0  0
   37.3480   30.4490   49.1700 C   0  0  2  0  0  0  0  0  0  0  0  0
   36.8290   32.4970   49.7540 H   0  0  0  0  0  0  0  0  0  0  0  0
   35.3190   31.2590   48.3170 H   0  0  0  0  0  0  0  0  0  0  0  0
   36.5600   30.7350   47.1190 H   0  0  0  0  0  0  0  0  0  0  0  0
   38.0000   29.7290   48.7100 H   0  0  0  0  0  0  0  0  0  0  0  0
   38.3240   32.5440   48.1440 C   0  0  0  0  0  0  0  0  0  0  0  0
   38.9600   33.5950   48.8440 C   0  0  0  0  0  0  0  0  0  0  0  0
   39.9980   34.1850   48.1650 C   0  0  0  0  0  0  0  0  0  0  0  0
   40.3470   33.7560   46.9210 N   0  0  0  0  0  0  0  0  0  0  0  0
   39.7070   32.7410   46.2870 C   0  0  0  0  0  0  0  0  0  0  0  0
   38.6670   32.1310   46.9340 N   0  0  0  0  0  0  0  0  0  0  0  0
   40.0620   32.2770   45.0160 N   0  0  0  0  0  0  0  0  0  0  0  0
   38.6880   33.9400   49.8290 H   0  0  0  0  0  0  0  0  0  0  0  0
   40.5130   34.9930   48.6590 H   0  0  0  0  0  0  0  0  0  0  0  0
   40.3130   32.8900   44.2130 H   0  0  0  0  0  0  0  0  0  0  0  0
   40.1160   31.2720   44.7210 H   0  0  0  0  0  0  0  0  0  0  0  0
   36.8430   30.0380   50.4070 O   0  0  0  0  0  0  0  0  0  0  0  0
   34.8210   28.9210   51.5570 O   0  0  0  0  0  0  0  0  0  0  0  0
   35.3010   29.4340   50.2360 P   0  0  1  0  0  0  0  0  0  0  0  0
   34.2210   30.7300   49.8420 O   0  0  0  0  0  0  0  0  0  0  0  0
   34.0040   31.2280   50.6670 H   0  0  0  0  0  0  0  0  0  0  0  0
   35.2920   28.2850   49.0090 O   0  0  0  0  0  0  0  0  0  0  0  0
   34.0500   27.9840   48.5280 C   0  0  0  0  0  3  0  0  0  0  0  0
   33.9070   26.7460   47.7220 C   0  0  0  0  0  2  0  0  0  0  0  0
   33.9050   28.0350   46.9910 C   0  0  0  0  0  2  0  0  0  0  0  0
  1  3  1  0  0  0  0
  1  4  1  1  0  0  0
  2  5  1  0  0  0  0
  2  1  1  0  0  0  0
  2  3  1  0  0  0  0
  3  7  1  6  0  0  0
  3 19  1  0  0  0  0
  6  2  1  0  0  0  0
  8  9  1  0  0  0  0
  8  1  1  0  0  0  0
  9 15  1  0  0  0  0
 10 16  1  0  0  0  0
 10  9  2  0  0  0  0
 11 10  1  0  0  0  0
 12 11  2  0  0  0  0
 12 13  1  0  0  0  0
 13  8  2  0  0  0  0
 14 12  1  0  0  0  0
 17 14  1  0  0  0  0
 18 14  1  0  0  0  0
 21 19  1  0  0  0  0
 21 20  2  1  0  0  0
 22 21  1  0  0  0  0
 22 23  1  0  0  0  0
 24 21  1  0  0  0  0
 25 24  1  0  0  0  0
 26 25  1  0  0  0  0
 27 26  1  0  0  0  0
 27 25  1  0  0  0  0
M  END
>  <minimizedAffinity>
-4.56004333

>  <minimizedRMSD>
1.16811657

$$$$
