
 OpenBabel03272510303D

 22 24  0  0  0  0  0  0  0  0999 V2000
   37.3070   31.3510   49.2060 C   0  0  0  0  0  0  0  0  0  0  0  0
   37.6030   32.6400   49.6560 C   0  0  0  0  0  0  0  0  0  0  0  0
   38.5050   33.3520   48.8960 C   0  0  0  0  0  0  0  0  0  0  0  0
   39.0490   32.7840   47.7730 N   0  0  0  0  0  0  0  0  0  0  0  0
   38.7250   31.5150   47.3730 C   0  0  0  0  0  0  0  0  0  0  0  0
   37.8300   30.7830   48.1130 N   0  0  0  0  0  0  0  0  0  0  0  0
   37.1490   33.0460   50.5480 H   0  0  0  0  0  0  0  0  0  0  0  0
   38.7970   34.3590   49.1650 H   0  0  0  0  0  0  0  0  0  0  0  0
   36.3000   30.5570   49.9970 C   0  0  0  0  0  0  0  0  0  0  0  0
   36.2140   29.1210   49.9470 C   0  0  0  0  0  0  0  0  0  0  0  0
   36.9470   29.7370   51.1260 C   0  0  0  0  0  0  0  0  0  0  0  0
   35.4130   31.1740   50.3350 H   0  0  0  0  0  0  0  0  0  0  0  0
   35.2180   28.6610   50.1370 H   0  0  0  0  0  0  0  0  0  0  0  0
   36.8430   28.5180   49.2630 H   0  0  0  0  0  0  0  0  0  0  0  0
   36.4150   29.7150   52.1060 H   0  0  0  0  0  0  0  0  0  0  0  0
   38.0380   29.6940   51.1890 H   0  0  0  0  0  0  0  0  0  0  0  0
   39.2830   30.8880   46.1670 C   0  0  0  0  0  0  0  0  0  0  0  0
   40.3200   31.2240   45.9620 H   0  0  0  0  0  0  0  0  0  0  0  0
   39.3480   29.7920   46.3250 H   0  0  0  0  0  0  0  0  0  0  0  0
   38.3810   31.1230   44.9780 C   0  0  0  0  0  3  0  0  0  0  0  0
   38.8770   31.0100   43.5970 C   0  0  0  0  0  2  0  0  0  0  0  0
   37.8770   29.9930   44.1830 C   0  0  0  0  0  2  0  0  0  0  0  0
  1  2  1  0  0  0  0
  1  9  1  0  0  0  0
  2  7  1  0  0  0  0
  3  8  1  0  0  0  0
  3  2  2  0  0  0  0
  4  3  1  0  0  0  0
  5  4  2  0  0  0  0
  5  6  1  0  0  0  0
  6  1  2  0  0  0  0
  9 12  1  0  0  0  0
  9 11  1  0  0  0  0
 10  9  1  0  0  0  0
 10 13  1  0  0  0  0
 10 11  1  0  0  0  0
 11 16  1  0  0  0  0
 11 15  1  0  0  0  0
 14 10  1  0  0  0  0
 17 19  1  0  0  0  0
 17  5  1  0  0  0  0
 18 17  1  0  0  0  0
 20 17  1  0  0  0  0
 21 22  1  0  0  0  0
 21 20  1  0  0  0  0
 22 20  1  0  0  0  0
M  END
>  <minimizedAffinity>
-4.62906551

>  <minimizedRMSD>
0.161622643

$$$$
