
 OpenBabel03272509313D

 32 34  0  0  1  0  0  0  0  0999 V2000
   36.1290   30.7300   49.0810 C   0  0  2  0  0  0  0  0  0  0  0  0
   37.1150   31.6360   49.7530 C   0  0  0  0  0  0  0  0  0  0  0  0
   38.1140   30.8920   50.6110 C   0  0  0  0  0  0  0  0  0  0  0  0
   37.3990   30.0390   51.6540 C   0  0  0  0  0  0  0  0  0  0  0  0
   36.1260   29.4090   51.1590 C   0  0  0  0  0  0  0  0  0  0  0  0
   36.1830   29.3360   49.6240 C   0  0  1  0  0  0  0  0  0  0  0  0
   35.0590   31.0580   49.1800 H   0  0  0  0  0  0  0  0  0  0  0  0
   36.4870   32.2000   50.5240 H   0  0  0  0  0  0  0  0  0  0  0  0
   37.5750   32.4060   49.1630 H   0  0  0  0  0  0  0  0  0  0  0  0
   38.8650   30.3290   50.0600 H   0  0  0  0  0  0  0  0  0  0  0  0
   38.6670   31.6630   51.1910 H   0  0  0  0  0  0  0  0  0  0  0  0
   37.2360   30.5660   52.6050 H   0  0  0  0  0  0  0  0  0  0  0  0
   38.1000   29.1790   51.8610 H   0  0  0  0  0  0  0  0  0  0  0  0
   35.9730   28.3870   51.5150 H   0  0  0  0  0  0  0  0  0  0  0  0
   35.2610   30.0770   51.4140 H   0  0  0  0  0  0  0  0  0  0  0  0
   37.1600   28.9360   49.4820 H   0  0  0  0  0  0  0  0  0  0  0  0
   36.3750   30.6720   47.6160 C   0  0  0  0  0  0  0  0  0  0  0  0
   37.6260   31.1190   47.1870 C   0  0  0  0  0  0  0  0  0  0  0  0
   37.8770   31.0680   45.8090 C   0  0  0  0  0  0  0  0  0  0  0  0
   36.9020   30.5890   44.9740 N   0  0  0  0  0  0  0  0  0  0  0  0
   35.6830   30.1580   45.4490 C   0  0  0  0  0  0  0  0  0  0  0  0
   35.4500   30.2100   46.7610 N   0  0  0  0  0  0  0  0  0  0  0  0
   38.4720   31.5030   47.7190 H   0  0  0  0  0  0  0  0  0  0  0  0
   38.7940   31.3800   45.3410 H   0  0  0  0  0  0  0  0  0  0  0  0
   34.9410   29.7870   44.7600 H   0  0  0  0  0  0  0  0  0  0  0  0
   33.8610   28.3550   49.2470 C   0  0  0  0  0  0  0  0  0  0  0  0
   33.1170   29.0120   50.0300 O   0  0  0  0  0  0  0  0  0  0  0  0
   35.2750   28.4150   49.0460 N   0  0  0  0  0  0  0  0  0  0  0  0
   35.6230   27.6560   48.3760 H   0  0  0  0  0  0  0  0  0  0  0  0
   33.0250   27.3780   48.4430 C   0  0  0  0  0  3  0  0  0  0  0  0
   31.5430   27.6020   48.3410 C   0  0  0  0  0  2  0  0  0  0  0  0
   32.3740   27.9270   47.1580 C   0  0  0  0  0  2  0  0  0  0  0  0
  1  7  1  1  0  0  0
  1  6  1  0  0  0  0
  1  2  1  0  0  0  0
  2  8  1  0  0  0  0
  2  3  1  0  0  0  0
  3 11  1  0  0  0  0
  3  4  1  0  0  0  0
  4 13  1  0  0  0  0
  4 12  1  0  0  0  0
  5 15  1  0  0  0  0
  5 14  1  0  0  0  0
  5  4  1  0  0  0  0
  6 16  1  6  0  0  0
  6  5  1  0  0  0  0
  9  2  1  0  0  0  0
 10  3  1  0  0  0  0
 17  1  1  0  0  0  0
 18 17  1  0  0  0  0
 18 23  1  0  0  0  0
 19 18  2  0  0  0  0
 20 21  2  0  0  0  0
 20 19  1  0  0  0  0
 21 22  1  0  0  0  0
 22 17  2  0  0  0  0
 24 19  1  0  0  0  0
 25 21  1  0  0  0  0
 26 27  2  0  0  0  0
 28 26  1  0  0  0  0
 28  6  1  0  0  0  0
 29 28  1  0  0  0  0
 30 26  1  0  0  0  0
 31 30  1  0  0  0  0
 32 31  1  0  0  0  0
 32 30  1  0  0  0  0
M  END
>  <minimizedAffinity>
-5.66277599

>  <minimizedRMSD>
0.497828603

$$$$
