
 OpenBabel03272508573D

 34 37  0  0  1  0  0  0  0  0999 V2000
   38.3690   31.8520   44.5280 C   0  0  0  0  0  0  0  0  0  0  0  0
   37.2380   32.3900   44.4060 O   0  0  0  0  0  0  0  0  0  0  0  0
   38.9410   31.6060   45.8250 N   0  0  0  0  0  0  0  0  0  0  0  0
   39.9390   31.3470   45.9830 H   0  0  0  0  0  0  0  0  0  0  0  0
   39.1400   31.4580   43.3410 C   0  0  0  0  0  0  0  0  0  0  0  0
   40.2190   30.6330   43.5020 C   0  0  0  0  0  0  0  0  0  0  0  0
   40.9420   30.2370   42.3900 C   0  0  0  0  0  0  0  0  0  0  0  0
   40.5260   30.7020   41.1810 C   0  0  0  0  0  0  0  0  0  0  0  0
   39.4380   31.5400   40.9880 C   0  0  0  0  0  0  0  0  0  0  0  0
   38.7730   31.8910   42.1160 N   0  0  0  0  0  0  0  0  0  0  0  0
   40.5700   30.2490   44.4680 H   0  0  0  0  0  0  0  0  0  0  0  0
   41.8020   29.5920   42.4240 H   0  0  0  0  0  0  0  0  0  0  0  0
   41.0590   30.4200   40.2720 H   0  0  0  0  0  0  0  0  0  0  0  0
   39.0600   32.0150   39.6530 C   0  0  0  0  0  0  0  0  0  0  0  0
   39.1260   33.2710   39.4430 O   0  0  0  0  0  0  0  0  0  0  0  0
   38.6340   30.9640   38.6740 C   0  0  0  0  0  3  0  0  0  0  0  0
   37.1400   31.0870   38.3100 C   0  0  0  0  0  2  0  0  0  0  0  0
   37.6190   29.9490   39.1070 C   0  0  0  0  0  2  0  0  0  0  0  0
   38.4270   31.1170   48.2090 C   0  0  2  0  0  0  0  0  0  0  0  0
   38.6950   32.5710   48.1200 C   0  0  0  0  0  0  0  0  0  0  0  0
   38.0690   31.7300   46.9710 C   0  0  1  0  0  0  0  0  0  0  0  0
   39.3650   30.5080   48.2900 H   0  0  0  0  0  0  0  0  0  0  0  0
   37.9920   33.2380   48.6680 H   0  0  0  0  0  0  0  0  0  0  0  0
   39.7160   32.9350   47.9850 H   0  0  0  0  0  0  0  0  0  0  0  0
   36.9910   32.0010   46.7690 H   0  0  0  0  0  0  0  0  0  0  0  0
   35.0800   30.2260   49.5120 C   0  0  0  0  0  0  0  0  0  0  0  0
   35.4080   29.5610   50.7280 C   0  0  0  0  0  0  0  0  0  0  0  0
   36.8040   29.4380   51.0920 C   0  0  0  0  0  0  0  0  0  0  0  0
   37.7540   29.9620   50.2540 N   0  0  0  0  0  0  0  0  0  0  0  0
   37.3570   30.5840   49.1080 C   0  0  0  0  0  0  0  0  0  0  0  0
   36.0360   30.7340   48.7050 N   0  0  0  0  0  0  0  0  0  0  0  0
   34.0250   30.2900   49.2890 H   0  0  0  0  0  0  0  0  0  0  0  0
   34.6360   29.1720   51.3420 H   0  0  0  0  0  0  0  0  0  0  0  0
   37.0410   28.9370   52.0080 H   0  0  0  0  0  0  0  0  0  0  0  0
  1  3  1  0  0  0  0
  2  1  2  0  0  0  0
  3  4  1  0  0  0  0
  3 21  1  0  0  0  0
  5  6  1  0  0  0  0
  5  1  1  0  0  0  0
  6 11  1  0  0  0  0
  7 12  1  0  0  0  0
  7  6  2  0  0  0  0
  8  7  1  0  0  0  0
  9  8  2  0  0  0  0
  9 10  1  0  0  0  0
 10  5  2  0  0  0  0
 13  8  1  0  0  0  0
 14  9  1  0  0  0  0
 15 14  2  0  0  0  0
 16 18  1  0  0  0  0
 16 14  1  0  0  0  0
 17 16  1  0  0  0  0
 17 18  1  0  0  0  0
 19 22  1  6  0  0  0
 19 30  1  0  0  0  0
 20 19  1  0  0  0  0
 20 23  1  0  0  0  0
 21 25  1  6  0  0  0
 21 20  1  0  0  0  0
 21 19  1  0  0  0  0
 24 20  1  0  0  0  0
 26 27  1  0  0  0  0
 27 28  2  0  0  0  0
 27 33  1  0  0  0  0
 28 34  1  0  0  0  0
 29 28  1  0  0  0  0
 30 29  2  0  0  0  0
 31 30  1  0  0  0  0
 31 26  2  0  0  0  0
 32 26  1  0  0  0  0
M  END
>  <minimizedAffinity>
-4.82296896

>  <minimizedRMSD>
0.464743942

$$$$
