
 OpenBabel03272508573D

 34 37  0  0  1  0  0  0  0  0999 V2000
   38.4090   31.8600   44.5350 C   0  0  0  0  0  0  0  0  0  0  0  0
   37.3030   32.4480   44.4110 O   0  0  0  0  0  0  0  0  0  0  0  0
   38.9520   31.5630   45.8340 N   0  0  0  0  0  0  0  0  0  0  0  0
   39.9360   31.2590   46.0000 H   0  0  0  0  0  0  0  0  0  0  0  0
   39.1800   31.4610   43.3500 C   0  0  0  0  0  0  0  0  0  0  0  0
   40.1720   30.5310   43.4930 C   0  0  0  0  0  0  0  0  0  0  0  0
   40.8920   30.1300   42.3820 C   0  0  0  0  0  0  0  0  0  0  0  0
   40.5620   30.6980   41.1900 C   0  0  0  0  0  0  0  0  0  0  0  0
   39.5630   31.6440   41.0150 C   0  0  0  0  0  0  0  0  0  0  0  0
   38.8960   31.9930   42.1430 N   0  0  0  0  0  0  0  0  0  0  0  0
   40.4520   30.0620   44.4460 H   0  0  0  0  0  0  0  0  0  0  0  0
   41.6870   29.4060   42.4030 H   0  0  0  0  0  0  0  0  0  0  0  0
   41.0970   30.4180   40.2820 H   0  0  0  0  0  0  0  0  0  0  0  0
   39.2760   32.2250   39.7000 C   0  0  0  0  0  0  0  0  0  0  0  0
   38.7170   33.3710   39.6800 O   0  0  0  0  0  0  0  0  0  0  0  0
   39.6750   31.4030   38.5130 C   0  0  0  0  0  3  0  0  0  0  0  0
   40.8580   32.0340   37.7470 C   0  0  0  0  0  2  0  0  0  0  0  0
   39.5190   31.9940   37.1450 C   0  0  0  0  0  2  0  0  0  0  0  0
   38.4220   31.1040   48.2210 C   0  0  2  0  0  0  0  0  0  0  0  0
   38.6800   32.5580   48.1120 C   0  0  0  0  0  0  0  0  0  0  0  0
   38.0700   31.6970   46.9710 C   0  0  1  0  0  0  0  0  0  0  0  0
   39.3630   30.5030   48.3190 H   0  0  0  0  0  0  0  0  0  0  0  0
   37.9670   33.2280   48.6450 H   0  0  0  0  0  0  0  0  0  0  0  0
   39.6990   32.9280   47.9810 H   0  0  0  0  0  0  0  0  0  0  0  0
   36.9910   31.9570   46.7560 H   0  0  0  0  0  0  0  0  0  0  0  0
   35.0700   30.2190   49.5140 C   0  0  0  0  0  0  0  0  0  0  0  0
   35.3930   29.5630   50.7370 C   0  0  0  0  0  0  0  0  0  0  0  0
   36.7870   29.4450   51.1080 C   0  0  0  0  0  0  0  0  0  0  0  0
   37.7410   29.9640   50.2710 N   0  0  0  0  0  0  0  0  0  0  0  0
   37.3480   30.5760   49.1190 C   0  0  0  0  0  0  0  0  0  0  0  0
   36.0280   30.7220   48.7080 N   0  0  0  0  0  0  0  0  0  0  0  0
   34.0150   30.2800   49.2870 H   0  0  0  0  0  0  0  0  0  0  0  0
   34.6190   29.1780   51.3510 H   0  0  0  0  0  0  0  0  0  0  0  0
   37.0200   28.9500   52.0290 H   0  0  0  0  0  0  0  0  0  0  0  0
  1  3  1  0  0  0  0
  2  1  2  0  0  0  0
  3  4  1  0  0  0  0
  3 21  1  0  0  0  0
  5  6  1  0  0  0  0
  5  1  1  0  0  0  0
  6 11  1  0  0  0  0
  7 12  1  0  0  0  0
  7  6  2  0  0  0  0
  8  7  1  0  0  0  0
  9  8  2  0  0  0  0
  9 10  1  0  0  0  0
 10  5  2  0  0  0  0
 13  8  1  0  0  0  0
 14  9  1  0  0  0  0
 15 14  2  0  0  0  0
 16 14  1  0  0  0  0
 17 16  1  0  0  0  0
 18 17  1  0  0  0  0
 18 16  1  0  0  0  0
 19 22  1  6  0  0  0
 19 30  1  0  0  0  0
 20 19  1  0  0  0  0
 20 23  1  0  0  0  0
 21 25  1  6  0  0  0
 21 20  1  0  0  0  0
 21 19  1  0  0  0  0
 24 20  1  0  0  0  0
 26 27  1  0  0  0  0
 27 28  2  0  0  0  0
 27 33  1  0  0  0  0
 28 34  1  0  0  0  0
 29 28  1  0  0  0  0
 30 29  2  0  0  0  0
 31 30  1  0  0  0  0
 31 26  2  0  0  0  0
 32 26  1  0  0  0  0
M  END
>  <minimizedAffinity>
-4.90875816

>  <minimizedRMSD>
0.128727734

$$$$
