
 OpenBabel03272505433D

 18 19  0  0  0  0  0  0  0  0999 V2000
   37.3320   30.3020   51.3810 C   0  0  0  0  0  0  0  0  0  0  0  0
   38.0250   30.6700   50.1850 C   0  0  0  0  0  0  0  0  0  0  0  0
   37.5430   30.1670   48.9710 C   0  0  0  0  0  0  0  0  0  0  0  0
   36.4530   29.3610   48.9760 N   0  0  0  0  0  0  0  0  0  0  0  0
   35.8200   29.0320   50.1280 C   0  0  0  0  0  0  0  0  0  0  0  0
   36.2600   29.5020   51.3100 N   0  0  0  0  0  0  0  0  0  0  0  0
   37.7090   30.6930   52.2960 H   0  0  0  0  0  0  0  0  0  0  0  0
   38.8860   31.3130   50.2210 H   0  0  0  0  0  0  0  0  0  0  0  0
   38.0270   30.4120   48.0360 H   0  0  0  0  0  0  0  0  0  0  0  0
   34.7240   28.1990   49.9350 O   0  0  0  0  0  0  0  0  0  0  0  0
   32.3140   27.9700   48.9620 O   0  0  0  0  0  0  0  0  0  0  0  0
   33.7600   28.2110   48.5450 P   0  0  2  0  0  0  0  0  0  0  0  0
   34.1450   26.9850   47.4620 O   0  0  0  0  0  0  0  0  0  0  0  0
   33.7600   26.1080   47.6910 H   0  0  0  0  0  0  0  0  0  0  0  0
   33.7750   29.6710   47.7160 O   0  0  0  0  0  0  0  0  0  0  0  0
   33.0320   29.6110   46.5350 C   0  0  0  0  0  0  0  0  0  0  0  0
   32.4320   30.7850   45.9000 C   0  0  0  0  0  0  0  0  0  0  0  0
   33.6410   30.1730   45.2790 C   0  0  0  0  0  0  0  0  0  0  0  0
  1  7  1  0  0  0  0
  2  8  1  0  0  0  0
  2  1  2  0  0  0  0
  3  4  2  0  0  0  0
  3  2  1  0  0  0  0
  4  5  1  0  0  0  0
  5  6  2  0  0  0  0
  6  1  1  0  0  0  0
  9  3  1  0  0  0  0
 10  5  1  0  0  0  0
 12 11  2  1  0  0  0
 12 10  1  0  0  0  0
 13 14  1  0  0  0  0
 13 12  1  0  0  0  0
 15 12  1  0  0  0  0
 16 15  1  0  0  0  0
 17 16  1  0  0  0  0
 18 17  1  0  0  0  0
 18 16  1  0  0  0  0
M  END
>  <minimizedAffinity>
-3.97416353

>  <minimizedRMSD>
1.76280546

$$$$
