
 OpenBabel03272509453D

 13 14  0  0  0  0  0  0  0  0999 V2000
   38.0120   30.9290   50.3640 C   0  0  0  0  0  0  0  0  0  0  0  0
   38.6080   31.9580   49.6320 C   0  0  0  0  0  0  0  0  0  0  0  0
   38.1670   32.1730   48.3160 C   0  0  0  0  0  0  0  0  0  0  0  0
   37.1720   31.3590   47.8160 N   0  0  0  0  0  0  0  0  0  0  0  0
   36.6270   30.3680   48.5760 C   0  0  0  0  0  0  0  0  0  0  0  0
   37.0530   30.1660   49.8380 N   0  0  0  0  0  0  0  0  0  0  0  0
   38.3610   30.7740   51.3740 H   0  0  0  0  0  0  0  0  0  0  0  0
   39.3920   32.6120   50.0020 H   0  0  0  0  0  0  0  0  0  0  0  0
   38.5910   32.9480   47.7140 H   0  0  0  0  0  0  0  0  0  0  0  0
   35.6510   29.6680   47.8960 O   0  0  0  0  0  0  0  0  0  0  0  0
   34.4750   29.3060   48.5990 C   0  0  0  0  0  3  0  0  0  0  0  0
   34.3420   27.9500   49.1810 C   0  0  0  0  0  2  0  0  0  0  0  0
   33.6760   28.2270   47.8740 C   0  0  0  0  0  2  0  0  0  0  0  0
  1  7  1  0  0  0  0
  2  8  1  0  0  0  0
  2  1  2  0  0  0  0
  3  2  1  0  0  0  0
  4  3  2  0  0  0  0
  4  5  1  0  0  0  0
  5  6  2  0  0  0  0
  6  1  1  0  0  0  0
  9  3  1  0  0  0  0
 10  5  1  0  0  0  0
 10 11  1  0  0  0  0
 11 12  1  0  0  0  0
 13 11  1  0  0  0  0
 13 12  1  0  0  0  0
M  END
>  <minimizedAffinity>
-3.39330387

>  <minimizedRMSD>
2.41657066

$$$$
