
 OpenBabel03272508273D

 32 35  0  0  1  0  0  0  0  0999 V2000
   35.7720   30.5260   49.0260 C   0  0  1  0  0  0  0  0  0  0  0  0
   35.8750   29.0940   48.8610 C   0  0  1  0  0  0  0  0  0  0  0  0
   35.9800   29.6220   50.2540 C   0  0  0  0  0  0  0  0  0  0  0  0
   34.8440   31.1230   49.1510 H   0  0  0  0  0  0  0  0  0  0  0  0
   36.8450   28.7420   48.3990 H   0  0  0  0  0  0  0  0  0  0  0  0
   36.9670   29.6080   50.7450 H   0  0  0  0  0  0  0  0  0  0  0  0
   35.1190   29.4180   50.9140 H   0  0  0  0  0  0  0  0  0  0  0  0
   33.9870   28.9960   47.3400 C   0  0  2  0  0  0  0  0  0  0  0  0
   34.7320   28.2360   48.4300 C   0  0  2  0  0  0  0  0  0  0  0  0
   33.8290   28.0430   49.4320 O   0  0  0  0  0  0  0  0  0  0  0  0
   32.5560   28.0890   48.9460 C   0  0  0  0  0  0  0  0  0  0  0  0
   32.6270   28.2970   47.4490 C   0  0  1  0  0  0  0  0  0  0  0  0
   33.8070   30.0500   47.5940 H   0  0  0  0  0  0  0  0  0  0  0  0
   35.0360   27.2680   47.9790 H   0  0  0  0  0  0  0  0  0  0  0  0
   32.0640   28.9890   49.3670 H   0  0  0  0  0  0  0  0  0  0  0  0
   31.9350   27.2080   49.2010 H   0  0  0  0  0  0  0  0  0  0  0  0
   32.6970   27.2620   47.0130 H   0  0  0  0  0  0  0  0  0  0  0  0
   34.5420   28.8290   46.0820 O   0  0  0  0  0  0  0  0  0  0  0  0
   34.5140   29.6870   45.6180 H   0  0  0  0  0  0  0  0  0  0  0  0
   31.6190   29.0560   46.9270 O   0  0  0  0  0  0  0  0  0  0  0  0
   30.8980   28.4220   45.9300 C   0  0  0  0  0  3  0  0  0  0  0  0
   30.0130   29.1630   45.0170 C   0  0  0  0  0  2  0  0  0  0  0  0
   31.2940   28.5430   44.5050 C   0  0  0  0  0  2  0  0  0  0  0  0
   36.9650   31.4360   48.7910 C   0  0  0  0  0  0  0  0  0  0  0  0
   37.1730   32.4810   49.6900 C   0  0  0  0  0  0  0  0  0  0  0  0
   38.2620   33.2900   49.4130 C   0  0  0  0  0  0  0  0  0  0  0  0
   39.0580   33.0610   48.3330 N   0  0  0  0  0  0  0  0  0  0  0  0
   38.8210   32.0260   47.4760 C   0  0  0  0  0  0  0  0  0  0  0  0
   37.7590   31.2080   47.7160 N   0  0  0  0  0  0  0  0  0  0  0  0
   36.5030   32.6070   50.5260 H   0  0  0  0  0  0  0  0  0  0  0  0
   38.4650   34.1210   50.0910 H   0  0  0  0  0  0  0  0  0  0  0  0
   39.4400   31.8270   46.6130 H   0  0  0  0  0  0  0  0  0  0  0  0
  1  4  1  6  0  0  0
  1  3  1  0  0  0  0
  2  5  1  6  0  0  0
  2  1  1  0  0  0  0
  2  3  1  0  0  0  0
  3  6  1  0  0  0  0
  3  7  1  0  0  0  0
  8 12  1  0  0  0  0
  8 13  1  1  0  0  0
  8  9  1  0  0  0  0
  9 14  1  6  0  0  0
  9  2  1  0  0  0  0
  9 10  1  0  0  0  0
 11 16  1  0  0  0  0
 11 15  1  0  0  0  0
 11 10  1  0  0  0  0
 12 17  1  6  0  0  0
 12 11  1  0  0  0  0
 18  8  1  0  0  0  0
 19 18  1  0  0  0  0
 20 12  1  0  0  0  0
 21 20  1  0  0  0  0
 22 21  1  0  0  0  0
 23 22  1  0  0  0  0
 23 21  1  0  0  0  0
 24  1  1  0  0  0  0
 24 25  1  0  0  0  0
 25 30  1  0  0  0  0
 26 25  2  0  0  0  0
 26 31  1  0  0  0  0
 27 26  1  0  0  0  0
 28 29  1  0  0  0  0
 28 27  2  0  0  0  0
 29 24  2  0  0  0  0
 32 28  1  0  0  0  0
M  END
>  <minimizedAffinity>
-4.59313345

>  <minimizedRMSD>
0.152227476

$$$$
