
 OpenBabel03262522133D

 27 29  0  0  0  0  0  0  0  0999 V2000
   38.4500   25.3850   33.7080 C   0  0  0  0  0  0  0  0  0  0  0  0
   38.3570   26.7890   33.5830 C   0  0  0  0  0  0  0  0  0  0  0  0
   37.4160   27.3570   32.7570 C   0  0  0  0  0  0  0  0  0  0  0  0
   36.5990   26.4920   32.0830 C   0  0  0  0  0  0  0  0  0  0  0  0
   36.6930   25.1450   32.2080 C   0  0  0  0  0  0  0  0  0  0  0  0
   37.6130   24.5660   33.0170 N   0  0  0  0  0  0  0  0  0  0  0  0
   39.0260   27.4420   34.1370 H   0  0  0  0  0  0  0  0  0  0  0  0
   37.3060   28.4330   32.6260 H   0  0  0  0  0  0  0  0  0  0  0  0
   35.8310   26.8500   31.4110 H   0  0  0  0  0  0  0  0  0  0  0  0
   39.4550   24.8730   34.5900 C   0  0  0  0  0  0  0  0  0  0  0  0
   40.6440   24.8440   34.2470 O   0  0  0  0  0  0  0  0  0  0  0  0
   39.9200   23.3140   36.4410 C   0  0  0  0  0  0  0  0  0  0  0  0
   39.1460   24.3620   35.9300 C   0  0  0  0  0  0  0  0  0  0  0  0
   38.1050   24.8750   36.7200 C   0  0  0  0  0  0  0  0  0  0  0  0
   37.8960   24.3270   37.9560 N   0  0  0  0  0  0  0  0  0  0  0  0
   38.6710   23.3130   38.4120 C   0  0  0  0  0  0  0  0  0  0  0  0
   39.6570   22.8170   37.6790 N   0  0  0  0  0  0  0  0  0  0  0  0
   40.7280   22.9360   35.7950 H   0  0  0  0  0  0  0  0  0  0  0  0
   37.5100   25.6870   36.3200 H   0  0  0  0  0  0  0  0  0  0  0  0
   38.5120   22.8760   39.3900 H   0  0  0  0  0  0  0  0  0  0  0  0
   35.6130   23.9840   31.3170 S   0  0  0  0  0  0  0  0  0  0  0  0
   36.2510   22.3280   31.7400 C   0  0  0  0  0  0  0  0  0  0  0  0
   37.1410   22.3830   32.3920 H   0  0  0  0  0  0  0  0  0  0  0  0
   36.4930   21.7970   30.7960 H   0  0  0  0  0  0  0  0  0  0  0  0
   35.1100   21.5760   32.3970 C   0  0  0  0  0  3  0  0  0  0  0  0
   35.5360   20.5160   33.4340 C   0  0  0  0  0  2  0  0  0  0  0  0
   35.0130   20.0900   32.1260 C   0  0  0  0  0  2  0  0  0  0  0  0
  1 10  1  0  0  0  0
  2  1  1  0  0  0  0
  2  7  1  0  0  0  0
  3  2  2  0  0  0  0
  4  5  2  0  0  0  0
  4  3  1  0  0  0  0
  5  6  1  0  0  0  0
  6  1  2  0  0  0  0
  8  3  1  0  0  0  0
  9  4  1  0  0  0  0
 10 13  1  0  0  0  0
 11 10  2  0  0  0  0
 12 17  1  0  0  0  0
 13 12  2  0  0  0  0
 13 14  1  0  0  0  0
 14 15  2  0  0  0  0
 15 16  1  0  0  0  0
 16 20  1  0  0  0  0
 17 16  2  0  0  0  0
 18 12  1  0  0  0  0
 19 14  1  0  0  0  0
 21 22  1  0  0  0  0
 21  5  1  0  0  0  0
 22 23  1  0  0  0  0
 22 25  1  0  0  0  0
 24 22  1  0  0  0  0
 25 26  1  0  0  0  0
 27 25  1  0  0  0  0
 27 26  1  0  0  0  0
M  END
>  <minimizedAffinity>
-4.90254116

$$$$

 OpenBabel03262522133D

 27 29  0  0  0  0  0  0  0  0999 V2000
   38.2560   25.0820   35.7160 C   0  0  0  0  0  0  0  0  0  0  0  0
   38.3930   26.4190   36.1500 C   0  0  0  0  0  0  0  0  0  0  0  0
   38.0480   27.4630   35.3240 C   0  0  0  0  0  0  0  0  0  0  0  0
   37.5760   27.1250   34.0860 C   0  0  0  0  0  0  0  0  0  0  0  0
   37.4460   25.8390   33.6750 C   0  0  0  0  0  0  0  0  0  0  0  0
   37.7810   24.7980   34.4750 N   0  0  0  0  0  0  0  0  0  0  0  0
   38.7730   26.6460   37.1430 H   0  0  0  0  0  0  0  0  0  0  0  0
   38.1370   28.5090   35.6130 H   0  0  0  0  0  0  0  0  0  0  0  0
   37.2820   27.8790   33.3700 H   0  0  0  0  0  0  0  0  0  0  0  0
   38.6370   24.0550   36.6380 C   0  0  0  0  0  0  0  0  0  0  0  0
   37.8820   23.7180   37.5590 O   0  0  0  0  0  0  0  0  0  0  0  0
   40.2060   22.3580   37.4950 C   0  0  0  0  0  0  0  0  0  0  0  0
   39.9200   23.3500   36.5500 C   0  0  0  0  0  0  0  0  0  0  0  0
   40.8760   23.6290   35.5600 C   0  0  0  0  0  0  0  0  0  0  0  0
   42.0440   22.9160   35.5650 N   0  0  0  0  0  0  0  0  0  0  0  0
   42.2790   21.9640   36.5000 C   0  0  0  0  0  0  0  0  0  0  0  0
   41.3880   21.6890   37.4410 N   0  0  0  0  0  0  0  0  0  0  0  0
   39.4340   22.1660   38.2570 H   0  0  0  0  0  0  0  0  0  0  0  0
   40.6500   24.3960   34.8290 H   0  0  0  0  0  0  0  0  0  0  0  0
   43.2000   21.3950   36.5090 H   0  0  0  0  0  0  0  0  0  0  0  0
   36.8210   25.3770   32.0310 S   0  0  0  0  0  0  0  0  0  0  0  0
   37.0430   23.5690   31.9340 C   0  0  0  0  0  0  0  0  0  0  0  0
   37.4930   23.1580   32.8550 H   0  0  0  0  0  0  0  0  0  0  0  0
   37.6840   23.3440   31.0550 H   0  0  0  0  0  0  0  0  0  0  0  0
   35.6770   22.9750   31.6550 C   0  0  0  0  0  3  0  0  0  0  0  0
   35.3460   21.6920   32.4460 C   0  0  0  0  0  2  0  0  0  0  0  0
   35.6340   21.6090   31.0050 C   0  0  0  0  0  2  0  0  0  0  0  0
  1  2  1  0  0  0  0
  1 10  1  0  0  0  0
  2  7  1  0  0  0  0
  3  8  1  0  0  0  0
  3  2  2  0  0  0  0
  4  3  1  0  0  0  0
  5  4  2  0  0  0  0
  5  6  1  0  0  0  0
  6  1  2  0  0  0  0
  9  4  1  0  0  0  0
 10 11  2  0  0  0  0
 12 18  1  0  0  0  0
 13 10  1  0  0  0  0
 13 12  2  0  0  0  0
 14 15  2  0  0  0  0
 14 13  1  0  0  0  0
 15 16  1  0  0  0  0
 16 20  1  0  0  0  0
 16 17  2  0  0  0  0
 17 12  1  0  0  0  0
 19 14  1  0  0  0  0
 21  5  1  0  0  0  0
 22 21  1  0  0  0  0
 22 23  1  0  0  0  0
 24 22  1  0  0  0  0
 25 22  1  0  0  0  0
 25 26  1  0  0  0  0
 27 25  1  0  0  0  0
 27 26  1  0  0  0  0
M  END
>  <minimizedAffinity>
-4.83443022

$$$$

 OpenBabel03262522133D

 27 29  0  0  0  0  0  0  0  0999 V2000
   37.7240   22.1760   35.4120 C   0  0  0  0  0  0  0  0  0  0  0  0
   36.6950   21.5880   36.1790 C   0  0  0  0  0  0  0  0  0  0  0  0
   35.7090   20.8430   35.5760 C   0  0  0  0  0  0  0  0  0  0  0  0
   35.7920   20.7160   34.2160 C   0  0  0  0  0  0  0  0  0  0  0  0
   36.7830   21.2830   33.4850 C   0  0  0  0  0  0  0  0  0  0  0  0
   37.7630   22.0200   34.0620 N   0  0  0  0  0  0  0  0  0  0  0  0
   36.6650   21.7130   37.2590 H   0  0  0  0  0  0  0  0  0  0  0  0
   34.8950   20.3710   36.1240 H   0  0  0  0  0  0  0  0  0  0  0  0
   35.0610   20.1490   33.6580 H   0  0  0  0  0  0  0  0  0  0  0  0
   38.7130   22.9350   36.1170 C   0  0  0  0  0  0  0  0  0  0  0  0
   39.3830   22.4180   37.0200 O   0  0  0  0  0  0  0  0  0  0  0  0
   38.1270   25.3180   36.3410 C   0  0  0  0  0  0  0  0  0  0  0  0
   38.9870   24.3450   35.8200 C   0  0  0  0  0  0  0  0  0  0  0  0
   40.0730   24.7600   35.0330 C   0  0  0  0  0  0  0  0  0  0  0  0
   40.2410   26.1000   34.8120 N   0  0  0  0  0  0  0  0  0  0  0  0
   39.3840   27.0090   35.3370 C   0  0  0  0  0  0  0  0  0  0  0  0
   38.3540   26.6340   36.0820 N   0  0  0  0  0  0  0  0  0  0  0  0
   37.2860   24.9560   36.9540 H   0  0  0  0  0  0  0  0  0  0  0  0
   40.7370   24.0030   34.6340 H   0  0  0  0  0  0  0  0  0  0  0  0
   39.5110   28.0710   35.1680 H   0  0  0  0  0  0  0  0  0  0  0  0
   36.9040   21.1220   31.6770 S   0  0  0  0  0  0  0  0  0  0  0  0
   35.5600   22.1650   31.0210 C   0  0  0  0  0  0  0  0  0  0  0  0
   34.5690   21.6990   31.1610 H   0  0  0  0  0  0  0  0  0  0  0  0
   35.7540   22.3460   29.9420 H   0  0  0  0  0  0  0  0  0  0  0  0
   35.6630   23.5040   31.7240 C   0  0  0  0  0  3  0  0  0  0  0  0
   35.2030   24.7190   30.8900 C   0  0  0  0  0  2  0  0  0  0  0  0
   36.6370   24.5130   31.1540 C   0  0  0  0  0  2  0  0  0  0  0  0
  1 10  1  0  0  0  0
  1  2  1  0  0  0  0
  2  7  1  0  0  0  0
  3  8  1  0  0  0  0
  3  2  2  0  0  0  0
  4  3  1  0  0  0  0
  5  6  1  0  0  0  0
  5  4  2  0  0  0  0
  6  1  2  0  0  0  0
  9  4  1  0  0  0  0
 10 11  2  0  0  0  0
 12 18  1  0  0  0  0
 13 10  1  0  0  0  0
 13 12  2  0  0  0  0
 14 13  1  0  0  0  0
 15 14  2  0  0  0  0
 15 16  1  0  0  0  0
 16 17  2  0  0  0  0
 17 12  1  0  0  0  0
 19 14  1  0  0  0  0
 20 16  1  0  0  0  0
 21  5  1  0  0  0  0
 22 23  1  0  0  0  0
 22 21  1  0  0  0  0
 22 25  1  0  0  0  0
 24 22  1  0  0  0  0
 26 27  1  0  0  0  0
 26 25  1  0  0  0  0
 27 25  1  0  0  0  0
M  END
>  <minimizedAffinity>
-4.8261261

$$$$

 OpenBabel03262522133D

 27 29  0  0  0  0  0  0  0  0999 V2000
   37.4600   26.3520   33.8720 C   0  0  0  0  0  0  0  0  0  0  0  0
   36.9620   27.5930   33.4180 C   0  0  0  0  0  0  0  0  0  0  0  0
   36.2270   27.6710   32.2590 C   0  0  0  0  0  0  0  0  0  0  0  0
   36.0190   26.4950   31.5920 C   0  0  0  0  0  0  0  0  0  0  0  0
   36.5010   25.3060   32.0340 C   0  0  0  0  0  0  0  0  0  0  0  0
   37.2260   25.2090   33.1740 N   0  0  0  0  0  0  0  0  0  0  0  0
   37.1490   28.5060   33.9780 H   0  0  0  0  0  0  0  0  0  0  0  0
   35.8220   28.6030   31.8680 H   0  0  0  0  0  0  0  0  0  0  0  0
   35.4540   26.4600   30.6720 H   0  0  0  0  0  0  0  0  0  0  0  0
   38.2150   26.3570   35.0900 C   0  0  0  0  0  0  0  0  0  0  0  0
   38.5020   27.4210   35.6530 O   0  0  0  0  0  0  0  0  0  0  0  0
   37.8840   24.5380   36.7190 C   0  0  0  0  0  0  0  0  0  0  0  0
   38.6850   25.1260   35.7330 C   0  0  0  0  0  0  0  0  0  0  0  0
   39.9040   24.5130   35.4050 C   0  0  0  0  0  0  0  0  0  0  0  0
   40.2540   23.3660   36.0650 N   0  0  0  0  0  0  0  0  0  0  0  0
   39.4480   22.8310   37.0130 C   0  0  0  0  0  0  0  0  0  0  0  0
   38.2940   23.3970   37.3350 N   0  0  0  0  0  0  0  0  0  0  0  0
   36.9350   25.0450   36.9500 H   0  0  0  0  0  0  0  0  0  0  0  0
   40.5200   24.9700   34.6390 H   0  0  0  0  0  0  0  0  0  0  0  0
   39.7170   21.9230   37.5380 H   0  0  0  0  0  0  0  0  0  0  0  0
   36.2320   23.7350   31.1570 S   0  0  0  0  0  0  0  0  0  0  0  0
   36.5720   22.4410   32.3970 C   0  0  0  0  0  0  0  0  0  0  0  0
   36.8770   22.8690   33.3680 H   0  0  0  0  0  0  0  0  0  0  0  0
   37.3680   21.7770   31.9980 H   0  0  0  0  0  0  0  0  0  0  0  0
   35.3120   21.6060   32.5130 C   0  0  0  0  0  3  0  0  0  0  0  0
   35.4950   20.2350   33.1970 C   0  0  0  0  0  2  0  0  0  0  0  0
   35.2700   20.3030   31.7440 C   0  0  0  0  0  2  0  0  0  0  0  0
  1 10  1  0  0  0  0
  2  1  1  0  0  0  0
  2  7  1  0  0  0  0
  3  2  2  0  0  0  0
  4  5  2  0  0  0  0
  4  3  1  0  0  0  0
  5  6  1  0  0  0  0
  6  1  2  0  0  0  0
  8  3  1  0  0  0  0
  9  4  1  0  0  0  0
 10 11  2  0  0  0  0
 10 13  1  0  0  0  0
 12 18  1  0  0  0  0
 12 17  1  0  0  0  0
 13 12  2  0  0  0  0
 14 13  1  0  0  0  0
 14 15  2  0  0  0  0
 15 16  1  0  0  0  0
 16 17  2  0  0  0  0
 16 20  1  0  0  0  0
 19 14  1  0  0  0  0
 21  5  1  0  0  0  0
 21 22  1  0  0  0  0
 22 25  1  0  0  0  0
 22 23  1  0  0  0  0
 24 22  1  0  0  0  0
 25 26  1  0  0  0  0
 27 25  1  0  0  0  0
 27 26  1  0  0  0  0
M  END
>  <minimizedAffinity>
-4.79425001

$$$$

 OpenBabel03262522133D

 27 29  0  0  0  0  0  0  0  0999 V2000
   37.8980   27.2530   33.9330 C   0  0  0  0  0  0  0  0  0  0  0  0
   38.2740   27.3330   32.5740 C   0  0  0  0  0  0  0  0  0  0  0  0
   37.5100   28.0400   31.6760 C   0  0  0  0  0  0  0  0  0  0  0  0
   36.3900   28.6440   32.1770 C   0  0  0  0  0  0  0  0  0  0  0  0
   36.0340   28.5650   33.4830 C   0  0  0  0  0  0  0  0  0  0  0  0
   36.7740   27.8720   34.3830 N   0  0  0  0  0  0  0  0  0  0  0  0
   39.1730   26.8380   32.2160 H   0  0  0  0  0  0  0  0  0  0  0  0
   37.7580   28.1300   30.6190 H   0  0  0  0  0  0  0  0  0  0  0  0
   35.7300   29.2200   31.5440 H   0  0  0  0  0  0  0  0  0  0  0  0
   38.7490   26.4980   34.8030 C   0  0  0  0  0  0  0  0  0  0  0  0
   39.8320   26.9570   35.1850 O   0  0  0  0  0  0  0  0  0  0  0  0
   38.4870   24.0810   34.3970 C   0  0  0  0  0  0  0  0  0  0  0  0
   38.3960   25.1590   35.2860 C   0  0  0  0  0  0  0  0  0  0  0  0
   37.9680   24.9100   36.5990 C   0  0  0  0  0  0  0  0  0  0  0  0
   37.6600   23.6240   36.9510 N   0  0  0  0  0  0  0  0  0  0  0  0
   37.7630   22.6110   36.0580 C   0  0  0  0  0  0  0  0  0  0  0  0
   38.1650   22.8280   34.8140 N   0  0  0  0  0  0  0  0  0  0  0  0
   38.8270   24.3130   33.3750 H   0  0  0  0  0  0  0  0  0  0  0  0
   37.9010   25.7470   37.2840 H   0  0  0  0  0  0  0  0  0  0  0  0
   37.5230   21.5900   36.3290 H   0  0  0  0  0  0  0  0  0  0  0  0
   34.5470   29.3630   34.1610 S   0  0  0  0  0  0  0  0  0  0  0  0
   34.9600   31.1380   34.2390 C   0  0  0  0  0  0  0  0  0  0  0  0
   34.0560   31.7720   34.2410 H   0  0  0  0  0  0  0  0  0  0  0  0
   35.6050   31.3840   33.3690 H   0  0  0  0  0  0  0  0  0  0  0  0
   35.7970   31.3370   35.4870 C   0  0  0  0  0  3  0  0  0  0  0  0
   35.1440   32.2060   36.5830 C   0  0  0  0  0  2  0  0  0  0  0  0
   36.2630   32.7440   35.7920 C   0  0  0  0  0  2  0  0  0  0  0  0
  1  6  1  0  0  0  0
  1 10  1  0  0  0  0
  2  1  2  0  0  0  0
  3  4  2  0  0  0  0
  3  2  1  0  0  0  0
  4  5  1  0  0  0  0
  5 21  1  0  0  0  0
  5  6  2  0  0  0  0
  7  2  1  0  0  0  0
  8  3  1  0  0  0  0
  9  4  1  0  0  0  0
 10 11  2  0  0  0  0
 10 13  1  0  0  0  0
 12 17  2  0  0  0  0
 12 13  1  0  0  0  0
 13 14  2  0  0  0  0
 14 15  1  0  0  0  0
 14 19  1  0  0  0  0
 16 20  1  0  0  0  0
 16 15  2  0  0  0  0
 17 16  1  0  0  0  0
 18 12  1  0  0  0  0
 21 22  1  0  0  0  0
 22 23  1  0  0  0  0
 22 25  1  0  0  0  0
 24 22  1  0  0  0  0
 25 27  1  0  0  0  0
 25 26  1  0  0  0  0
 27 26  1  0  0  0  0
M  END
>  <minimizedAffinity>
-4.68292046

$$$$

 OpenBabel03262522133D

 27 29  0  0  0  0  0  0  0  0999 V2000
   38.0310   25.0340   35.6820 C   0  0  0  0  0  0  0  0  0  0  0  0
   38.3800   26.2310   36.3460 C   0  0  0  0  0  0  0  0  0  0  0  0
   38.2540   27.4450   35.7130 C   0  0  0  0  0  0  0  0  0  0  0  0
   37.7820   27.4140   34.4300 C   0  0  0  0  0  0  0  0  0  0  0  0
   37.4480   26.2610   33.7980 C   0  0  0  0  0  0  0  0  0  0  0  0
   37.5650   25.0550   34.4050 N   0  0  0  0  0  0  0  0  0  0  0  0
   38.7520   26.2130   37.3670 H   0  0  0  0  0  0  0  0  0  0  0  0
   38.5100   28.3940   36.1820 H   0  0  0  0  0  0  0  0  0  0  0  0
   37.6510   28.3200   33.8550 H   0  0  0  0  0  0  0  0  0  0  0  0
   38.1900   23.8130   36.4120 C   0  0  0  0  0  0  0  0  0  0  0  0
   37.2740   23.3700   37.1150 O   0  0  0  0  0  0  0  0  0  0  0  0
   40.0000   22.6170   37.5840 C   0  0  0  0  0  0  0  0  0  0  0  0
   39.4270   23.0240   36.3730 C   0  0  0  0  0  0  0  0  0  0  0  0
   40.0630   22.6630   35.1750 C   0  0  0  0  0  0  0  0  0  0  0  0
   41.2140   21.9280   35.2460 N   0  0  0  0  0  0  0  0  0  0  0  0
   41.7340   21.5540   36.4400 C   0  0  0  0  0  0  0  0  0  0  0  0
   41.1460   21.8870   37.5800 N   0  0  0  0  0  0  0  0  0  0  0  0
   39.4740   22.9180   38.5030 H   0  0  0  0  0  0  0  0  0  0  0  0
   39.6150   22.9790   34.2400 H   0  0  0  0  0  0  0  0  0  0  0  0
   42.6440   20.9710   36.5040 H   0  0  0  0  0  0  0  0  0  0  0  0
   36.8190   26.2060   32.0920 S   0  0  0  0  0  0  0  0  0  0  0  0
   36.0590   27.8410   31.8180 C   0  0  0  0  0  0  0  0  0  0  0  0
   35.7040   28.2950   32.7600 H   0  0  0  0  0  0  0  0  0  0  0  0
   35.2160   27.7180   31.1050 H   0  0  0  0  0  0  0  0  0  0  0  0
   37.1030   28.6990   31.1310 C   0  0  0  0  0  3  0  0  0  0  0  0
   36.5430   29.8630   30.2870 C   0  0  0  0  0  2  0  0  0  0  0  0
   37.1230   28.6870   29.6180 C   0  0  0  0  0  2  0  0  0  0  0  0
  1  2  1  0  0  0  0
  1 10  1  0  0  0  0
  2  7  1  0  0  0  0
  3  8  1  0  0  0  0
  3  2  2  0  0  0  0
  4  3  1  0  0  0  0
  5  6  1  0  0  0  0
  5  4  2  0  0  0  0
  6  1  2  0  0  0  0
  9  4  1  0  0  0  0
 10 11  2  0  0  0  0
 12 18  1  0  0  0  0
 13 10  1  0  0  0  0
 13 12  2  0  0  0  0
 14 15  2  0  0  0  0
 14 13  1  0  0  0  0
 15 16  1  0  0  0  0
 16 20  1  0  0  0  0
 16 17  2  0  0  0  0
 17 12  1  0  0  0  0
 19 14  1  0  0  0  0
 21  5  1  0  0  0  0
 22 21  1  0  0  0  0
 22 23  1  0  0  0  0
 24 22  1  0  0  0  0
 25 22  1  0  0  0  0
 26 25  1  0  0  0  0
 27 26  1  0  0  0  0
 27 25  1  0  0  0  0
M  END
>  <minimizedAffinity>
-4.61275721

$$$$

 OpenBabel03262522133D

 27 29  0  0  0  0  0  0  0  0999 V2000
   36.7870   26.0250   32.0940 C   0  0  0  0  0  0  0  0  0  0  0  0
   35.6330   26.2880   31.3250 C   0  0  0  0  0  0  0  0  0  0  0  0
   34.8660   25.2570   30.8370 C   0  0  0  0  0  0  0  0  0  0  0  0
   35.2880   23.9910   31.1390 C   0  0  0  0  0  0  0  0  0  0  0  0
   36.3980   23.7450   31.8790 C   0  0  0  0  0  0  0  0  0  0  0  0
   37.1660   24.7480   32.3690 N   0  0  0  0  0  0  0  0  0  0  0  0
   35.3310   27.3090   31.1070 H   0  0  0  0  0  0  0  0  0  0  0  0
   33.9680   25.4090   30.2390 H   0  0  0  0  0  0  0  0  0  0  0  0
   34.7480   23.1200   30.7970 H   0  0  0  0  0  0  0  0  0  0  0  0
   37.5300   27.1550   32.5660 C   0  0  0  0  0  0  0  0  0  0  0  0
   37.0290   28.2860   32.5680 O   0  0  0  0  0  0  0  0  0  0  0  0
   39.1080   26.9410   34.4470 C   0  0  0  0  0  0  0  0  0  0  0  0
   38.9040   27.0440   33.0660 C   0  0  0  0  0  0  0  0  0  0  0  0
   40.0250   27.0410   32.2200 C   0  0  0  0  0  0  0  0  0  0  0  0
   41.2660   26.9350   32.7860 N   0  0  0  0  0  0  0  0  0  0  0  0
   41.4170   26.8370   34.1290 C   0  0  0  0  0  0  0  0  0  0  0  0
   40.3700   26.8390   34.9410 N   0  0  0  0  0  0  0  0  0  0  0  0
   38.2070   26.9470   35.0800 H   0  0  0  0  0  0  0  0  0  0  0  0
   39.8620   27.1190   31.1520 H   0  0  0  0  0  0  0  0  0  0  0  0
   42.3960   26.7510   34.5840 H   0  0  0  0  0  0  0  0  0  0  0  0
   36.9700   22.0680   32.2870 S   0  0  0  0  0  0  0  0  0  0  0  0
   35.4950   21.2110   32.9320 C   0  0  0  0  0  0  0  0  0  0  0  0
   34.6650   21.9110   33.1330 H   0  0  0  0  0  0  0  0  0  0  0  0
   35.7830   20.6740   33.8610 H   0  0  0  0  0  0  0  0  0  0  0  0
   35.1170   20.1600   31.9070 C   0  0  0  0  0  3  0  0  0  0  0  0
   35.1470   18.7040   32.4200 C   0  0  0  0  0  2  0  0  0  0  0  0
   36.1910   19.1760   31.4950 C   0  0  0  0  0  2  0  0  0  0  0  0
  1  6  1  0  0  0  0
  1 10  1  0  0  0  0
  2  1  2  0  0  0  0
  3  4  2  0  0  0  0
  3  2  1  0  0  0  0
  4  5  1  0  0  0  0
  5 21  1  0  0  0  0
  5  6  2  0  0  0  0
  7  2  1  0  0  0  0
  8  3  1  0  0  0  0
  9  4  1  0  0  0  0
 10 11  2  0  0  0  0
 10 13  1  0  0  0  0
 12 17  1  0  0  0  0
 12 18  1  0  0  0  0
 13 12  2  0  0  0  0
 14 15  2  0  0  0  0
 14 13  1  0  0  0  0
 15 16  1  0  0  0  0
 16 20  1  0  0  0  0
 16 17  2  0  0  0  0
 19 14  1  0  0  0  0
 21 22  1  0  0  0  0
 22 23  1  0  0  0  0
 22 24  1  0  0  0  0
 25 26  1  0  0  0  0
 25 22  1  0  0  0  0
 27 25  1  0  0  0  0
 27 26  1  0  0  0  0
M  END
>  <minimizedAffinity>
-4.61220217

$$$$

 OpenBabel03262522133D

 27 29  0  0  0  0  0  0  0  0999 V2000
   37.8120   25.7860   33.8220 C   0  0  0  0  0  0  0  0  0  0  0  0
   38.0380   27.1390   34.1590 C   0  0  0  0  0  0  0  0  0  0  0  0
   38.2660   27.5070   35.4640 C   0  0  0  0  0  0  0  0  0  0  0  0
   38.2590   26.4990   36.3880 C   0  0  0  0  0  0  0  0  0  0  0  0
   38.0430   25.2010   36.0580 C   0  0  0  0  0  0  0  0  0  0  0  0
   37.8160   24.8200   34.7780 N   0  0  0  0  0  0  0  0  0  0  0  0
   38.0350   27.9110   33.3940 H   0  0  0  0  0  0  0  0  0  0  0  0
   38.4440   28.5360   35.7740 H   0  0  0  0  0  0  0  0  0  0  0  0
   38.4290   26.6950   37.4370 H   0  0  0  0  0  0  0  0  0  0  0  0
   37.5840   25.4870   32.4400 C   0  0  0  0  0  0  0  0  0  0  0  0
   37.6760   26.3690   31.5770 O   0  0  0  0  0  0  0  0  0  0  0  0
   35.8800   23.7990   31.8750 C   0  0  0  0  0  0  0  0  0  0  0  0
   37.2330   24.1420   31.9710 C   0  0  0  0  0  0  0  0  0  0  0  0
   38.1950   23.1840   31.6160 C   0  0  0  0  0  0  0  0  0  0  0  0
   37.7650   21.9570   31.1910 N   0  0  0  0  0  0  0  0  0  0  0  0
   36.4440   21.6670   31.1130 C   0  0  0  0  0  0  0  0  0  0  0  0
   35.5220   22.5600   31.4440 N   0  0  0  0  0  0  0  0  0  0  0  0
   35.1530   24.5750   32.1610 H   0  0  0  0  0  0  0  0  0  0  0  0
   39.2420   23.4550   31.6900 H   0  0  0  0  0  0  0  0  0  0  0  0
   36.0950   20.6990   30.7760 H   0  0  0  0  0  0  0  0  0  0  0  0
   38.0300   23.8520   37.2770 S   0  0  0  0  0  0  0  0  0  0  0  0
   39.1950   22.6120   36.6190 C   0  0  0  0  0  0  0  0  0  0  0  0
   39.4550   22.8090   35.5640 H   0  0  0  0  0  0  0  0  0  0  0  0
   38.7300   21.6090   36.7230 H   0  0  0  0  0  0  0  0  0  0  0  0
   40.4140   22.6360   37.5200 C   0  0  0  0  0  3  0  0  0  0  0  0
   41.7590   22.8590   36.7970 C   0  0  0  0  0  2  0  0  0  0  0  0
   41.4310   21.5300   37.3400 C   0  0  0  0  0  2  0  0  0  0  0  0
  1  2  2  0  0  0  0
  1  6  1  0  0  0  0
  2  3  1  0  0  0  0
  3  8  1  0  0  0  0
  3  4  2  0  0  0  0
  4  9  1  0  0  0  0
  5  4  1  0  0  0  0
  5 21  1  0  0  0  0
  6  5  2  0  0  0  0
  7  2  1  0  0  0  0
 10  1  1  0  0  0  0
 11 10  2  0  0  0  0
 12 13  1  0  0  0  0
 12 18  1  0  0  0  0
 13 10  1  0  0  0  0
 14 19  1  0  0  0  0
 14 13  2  0  0  0  0
 15 14  1  0  0  0  0
 16 15  2  0  0  0  0
 16 17  1  0  0  0  0
 17 12  2  0  0  0  0
 20 16  1  0  0  0  0
 22 24  1  0  0  0  0
 22 21  1  0  0  0  0
 22 25  1  0  0  0  0
 23 22  1  0  0  0  0
 26 27  1  0  0  0  0
 26 25  1  0  0  0  0
 27 25  1  0  0  0  0
M  END
>  <minimizedAffinity>
-4.60327101

$$$$

 OpenBabel03262522133D

 27 29  0  0  0  0  0  0  0  0999 V2000
   38.0540   26.0190   33.7770 C   0  0  0  0  0  0  0  0  0  0  0  0
   38.3910   27.2060   34.4640 C   0  0  0  0  0  0  0  0  0  0  0  0
   38.5690   27.2000   35.8270 C   0  0  0  0  0  0  0  0  0  0  0  0
   38.4000   25.9960   36.4560 C   0  0  0  0  0  0  0  0  0  0  0  0
   38.0770   24.8590   35.7900 C   0  0  0  0  0  0  0  0  0  0  0  0
   37.8980   24.8460   34.4470 N   0  0  0  0  0  0  0  0  0  0  0  0
   38.5160   28.1430   33.9280 H   0  0  0  0  0  0  0  0  0  0  0  0
   38.8280   28.0880   36.4020 H   0  0  0  0  0  0  0  0  0  0  0  0
   38.5190   25.8970   37.5250 H   0  0  0  0  0  0  0  0  0  0  0  0
   37.8880   26.1100   32.3580 C   0  0  0  0  0  0  0  0  0  0  0  0
   38.1430   25.1460   31.6260 O   0  0  0  0  0  0  0  0  0  0  0  0
   38.2920   28.0150   30.8460 C   0  0  0  0  0  0  0  0  0  0  0  0
   37.4140   27.3310   31.6950 C   0  0  0  0  0  0  0  0  0  0  0  0
   36.1210   27.8440   31.8780 C   0  0  0  0  0  0  0  0  0  0  0  0
   35.7760   28.9900   31.2160 N   0  0  0  0  0  0  0  0  0  0  0  0
   36.6580   29.6200   30.4020 C   0  0  0  0  0  0  0  0  0  0  0  0
   37.8830   29.1490   30.2190 N   0  0  0  0  0  0  0  0  0  0  0  0
   39.2980   27.5830   30.7260 H   0  0  0  0  0  0  0  0  0  0  0  0
   35.4440   27.3100   32.5350 H   0  0  0  0  0  0  0  0  0  0  0  0
   36.3920   30.5270   29.8730 H   0  0  0  0  0  0  0  0  0  0  0  0
   37.8490   23.2540   36.6130 S   0  0  0  0  0  0  0  0  0  0  0  0
   39.3210   22.2780   36.1570 C   0  0  0  0  0  0  0  0  0  0  0  0
   39.7160   22.5660   35.1660 H   0  0  0  0  0  0  0  0  0  0  0  0
   39.0420   21.2030   36.1660 H   0  0  0  0  0  0  0  0  0  0  0  0
   40.3410   22.4850   37.2590 C   0  0  0  0  0  3  0  0  0  0  0  0
   41.7560   22.8690   36.7770 C   0  0  0  0  0  2  0  0  0  0  0  0
   41.5070   21.5210   37.3140 C   0  0  0  0  0  2  0  0  0  0  0  0
  1  6  2  0  0  0  0
  1  2  1  0  0  0  0
  2  3  2  0  0  0  0
  3  8  1  0  0  0  0
  3  4  1  0  0  0  0
  4  9  1  0  0  0  0
  5  4  2  0  0  0  0
  5 21  1  0  0  0  0
  6  5  1  0  0  0  0
  7  2  1  0  0  0  0
 10  1  1  0  0  0  0
 11 10  2  0  0  0  0
 12 13  1  0  0  0  0
 13 14  2  0  0  0  0
 13 10  1  0  0  0  0
 14 19  1  0  0  0  0
 15 14  1  0  0  0  0
 16 15  2  0  0  0  0
 17 16  1  0  0  0  0
 17 12  2  0  0  0  0
 18 12  1  0  0  0  0
 20 16  1  0  0  0  0
 22 24  1  0  0  0  0
 22 21  1  0  0  0  0
 22 25  1  0  0  0  0
 23 22  1  0  0  0  0
 25 27  1  0  0  0  0
 26 25  1  0  0  0  0
 26 27  1  0  0  0  0
M  END
>  <minimizedAffinity>
-4.58318901

$$$$
