
 OpenBabel03272508273D

 32 35  0  0  1  0  0  0  0  0999 V2000
   35.6540   30.4040   49.0610 C   0  0  1  0  0  0  0  0  0  0  0  0
   35.7450   28.9860   48.8000 C   0  0  1  0  0  0  0  0  0  0  0  0
   35.9090   29.4220   50.2180 C   0  0  0  0  0  0  0  0  0  0  0  0
   34.7340   30.9920   49.2620 H   0  0  0  0  0  0  0  0  0  0  0  0
   36.6930   28.6630   48.2760 H   0  0  0  0  0  0  0  0  0  0  0  0
   36.9160   29.3760   50.6650 H   0  0  0  0  0  0  0  0  0  0  0  0
   35.0760   29.1770   50.9000 H   0  0  0  0  0  0  0  0  0  0  0  0
   33.8730   28.9300   47.2580 C   0  0  2  0  0  0  0  0  0  0  0  0
   34.5820   28.1590   48.3630 C   0  0  2  0  0  0  0  0  0  0  0  0
   33.6620   28.0010   49.3550 O   0  0  0  0  0  0  0  0  0  0  0  0
   32.3960   28.0810   48.8540 C   0  0  0  0  0  0  0  0  0  0  0  0
   32.4910   28.2730   47.3560 C   0  0  1  0  0  0  0  0  0  0  0  0
   33.7220   29.9910   47.5000 H   0  0  0  0  0  0  0  0  0  0  0  0
   34.8620   27.1770   47.9240 H   0  0  0  0  0  0  0  0  0  0  0  0
   31.9270   28.9990   49.2620 H   0  0  0  0  0  0  0  0  0  0  0  0
   31.7470   27.2210   49.1090 H   0  0  0  0  0  0  0  0  0  0  0  0
   32.5350   27.2320   46.9300 H   0  0  0  0  0  0  0  0  0  0  0  0
   34.4370   28.7360   46.0080 O   0  0  0  0  0  0  0  0  0  0  0  0
   34.4400   29.5890   45.5360 H   0  0  0  0  0  0  0  0  0  0  0  0
   31.5120   29.0570   46.8160 O   0  0  0  0  0  0  0  0  0  0  0  0
   30.7660   28.4260   45.8360 C   0  0  0  0  0  3  0  0  0  0  0  0
   31.2550   28.2820   44.4550 C   0  0  0  0  0  2  0  0  0  0  0  0
   31.1290   27.0710   45.3520 C   0  0  0  0  0  2  0  0  0  0  0  0
   36.8390   31.3260   48.8350 C   0  0  0  0  0  0  0  0  0  0  0  0
   37.0480   32.3530   49.7540 C   0  0  0  0  0  0  0  0  0  0  0  0
   38.1310   33.1750   49.4850 C   0  0  0  0  0  0  0  0  0  0  0  0
   38.9190   32.9740   48.3940 N   0  0  0  0  0  0  0  0  0  0  0  0
   38.6800   31.9550   47.5180 C   0  0  0  0  0  0  0  0  0  0  0  0
   37.6250   31.1260   47.7490 N   0  0  0  0  0  0  0  0  0  0  0  0
   36.3850   32.4570   50.5990 H   0  0  0  0  0  0  0  0  0  0  0  0
   38.3340   33.9930   50.1790 H   0  0  0  0  0  0  0  0  0  0  0  0
   39.2930   31.7780   46.6450 H   0  0  0  0  0  0  0  0  0  0  0  0
  1  4  1  6  0  0  0
  1  3  1  0  0  0  0
  2  5  1  6  0  0  0
  2  1  1  0  0  0  0
  2  3  1  0  0  0  0
  3  6  1  0  0  0  0
  3  7  1  0  0  0  0
  8 12  1  0  0  0  0
  8 13  1  1  0  0  0
  8  9  1  0  0  0  0
  9 14  1  6  0  0  0
  9  2  1  0  0  0  0
  9 10  1  0  0  0  0
 11 16  1  0  0  0  0
 11 15  1  0  0  0  0
 11 10  1  0  0  0  0
 12 17  1  6  0  0  0
 12 11  1  0  0  0  0
 18  8  1  0  0  0  0
 19 18  1  0  0  0  0
 20 12  1  0  0  0  0
 21 20  1  0  0  0  0
 22 23  1  0  0  0  0
 22 21  1  0  0  0  0
 23 21  1  0  0  0  0
 24  1  1  0  0  0  0
 24 25  1  0  0  0  0
 25 30  1  0  0  0  0
 26 25  2  0  0  0  0
 26 31  1  0  0  0  0
 27 26  1  0  0  0  0
 28 29  1  0  0  0  0
 28 27  2  0  0  0  0
 29 24  2  0  0  0  0
 32 28  1  0  0  0  0
M  END
>  <minimizedAffinity>
-4.5835638

>  <minimizedRMSD>
0.262858659

$$$$
