
 OpenBabel03272500233D

 31 33  0  0  0  0  0  0  0  0999 V2000
   36.4940   29.2740   30.9810 C   0  0  0  0  0  0  0  0  0  0  0  0
   37.3530   28.2580   31.4720 C   0  0  0  0  0  0  0  0  0  0  0  0
   37.1210   27.7540   32.7330 C   0  0  0  0  0  0  0  0  0  0  0  0
   36.0700   28.2580   33.4590 N   0  0  0  0  0  0  0  0  0  0  0  0
   35.2770   29.2090   32.9840 C   0  0  0  0  0  0  0  0  0  0  0  0
   35.4790   29.7220   31.7540 N   0  0  0  0  0  0  0  0  0  0  0  0
   36.6610   29.6840   29.9890 H   0  0  0  0  0  0  0  0  0  0  0  0
   36.0840   30.8370   35.4010 Cl  0  0  0  0  0  0  0  0  0  0  0  0
   34.4290   30.4690   34.9480 C   0  0  0  0  0  0  0  0  0  0  0  0
   34.1650   29.7090   33.8130 C   0  0  0  0  0  0  0  0  0  0  0  0
   32.8730   29.3900   33.4110 C   0  0  0  0  0  0  0  0  0  0  0  0
   31.8440   29.8770   34.2140 C   0  0  0  0  0  0  0  0  0  0  0  0
   32.0660   30.6270   35.3390 C   0  0  0  0  0  0  0  0  0  0  0  0
   30.6950   31.1790   36.2630 Cl  0  0  0  0  0  0  0  0  0  0  0  0
   33.3810   30.9210   35.6990 C   0  0  0  0  0  0  0  0  0  0  0  0
   32.6790   28.7970   32.5240 H   0  0  0  0  0  0  0  0  0  0  0  0
   30.8540   29.6020   33.8610 H   0  0  0  0  0  0  0  0  0  0  0  0
   33.6380   31.7300   36.9120 C   0  0  0  0  0  0  0  0  0  0  0  0
   33.0980   33.0140   36.7680 F   0  0  0  0  0  0  0  0  0  0  0  0
   34.9620   31.7980   37.2240 F   0  0  0  0  0  0  0  0  0  0  0  0
   32.9800   31.1630   37.9890 F   0  0  0  0  0  0  0  0  0  0  0  0
   38.4650   27.7860   30.5930 C   0  0  0  0  0  0  0  0  0  0  0  0
   38.3170   26.4400   30.2780 F   0  0  0  0  0  0  0  0  0  0  0  0
   38.4090   28.5100   29.4150 F   0  0  0  0  0  0  0  0  0  0  0  0
   39.7150   27.9820   31.1530 F   0  0  0  0  0  0  0  0  0  0  0  0
   38.0010   26.6980   33.2600 C   0  0  0  0  0  0  0  0  0  0  0  0
   37.3990   25.9040   33.7370 H   0  0  0  0  0  0  0  0  0  0  0  0
   38.6240   26.3210   32.4050 H   0  0  0  0  0  0  0  0  0  0  0  0
   39.0060   27.2740   34.2360 C   0  0  0  0  0  3  0  0  0  0  0  0
   39.6620   26.2590   35.1980 C   0  0  0  0  0  2  0  0  0  0  0  0
   38.6540   27.2140   35.7150 C   0  0  0  0  0  2  0  0  0  0  0  0
  1  2  2  0  0  0  0
  1  6  1  0  0  0  0
  2  3  1  0  0  0  0
  3 26  1  0  0  0  0
  3  4  2  0  0  0  0
  5  4  1  0  0  0  0
  5 10  1  0  0  0  0
  6  5  2  0  0  0  0
  7  1  1  0  0  0  0
  9  8  1  0  0  0  0
  9 15  1  0  0  0  0
 10  9  2  0  0  0  0
 11 10  1  0  0  0  0
 11 12  2  0  0  0  0
 12 13  1  0  0  0  0
 13 15  2  0  0  0  0
 13 14  1  0  0  0  0
 15 18  1  0  0  0  0
 16 11  1  0  0  0  0
 17 12  1  0  0  0  0
 18 20  1  0  0  0  0
 18 21  1  0  0  0  0
 19 18  1  0  0  0  0
 22 25  1  0  0  0  0
 22  2  1  0  0  0  0
 23 22  1  0  0  0  0
 24 22  1  0  0  0  0
 26 27  1  0  0  0  0
 26 29  1  0  0  0  0
 28 26  1  0  0  0  0
 29 30  1  0  0  0  0
 29 31  1  0  0  0  0
 30 31  1  0  0  0  0
M  END
>  <minimizedAffinity>
-5.84563971

$$$$

 OpenBabel03272500233D

 31 33  0  0  0  0  0  0  0  0999 V2000
   37.3540   25.7090   33.4670 C   0  0  0  0  0  0  0  0  0  0  0  0
   38.2340   25.5890   34.5730 C   0  0  0  0  0  0  0  0  0  0  0  0
   38.8410   24.3740   34.8010 C   0  0  0  0  0  0  0  0  0  0  0  0
   38.5680   23.3330   33.9480 N   0  0  0  0  0  0  0  0  0  0  0  0
   37.7420   23.4630   32.9190 C   0  0  0  0  0  0  0  0  0  0  0  0
   37.1320   24.6390   32.6700 N   0  0  0  0  0  0  0  0  0  0  0  0
   36.8650   26.6600   33.2720 H   0  0  0  0  0  0  0  0  0  0  0  0
   35.7220   21.4620   33.9480 Cl  0  0  0  0  0  0  0  0  0  0  0  0
   36.5760   21.3280   32.4200 C   0  0  0  0  0  0  0  0  0  0  0  0
   37.4880   22.3070   32.0390 C   0  0  0  0  0  0  0  0  0  0  0  0
   38.1900   22.2480   30.8410 C   0  0  0  0  0  0  0  0  0  0  0  0
   37.9300   21.1440   30.0320 C   0  0  0  0  0  0  0  0  0  0  0  0
   37.0390   20.1610   30.3750 C   0  0  0  0  0  0  0  0  0  0  0  0
   36.7980   18.8270   29.2790 Cl  0  0  0  0  0  0  0  0  0  0  0  0
   36.3590   20.2670   31.5880 C   0  0  0  0  0  0  0  0  0  0  0  0
   38.9000   23.0170   30.5540 H   0  0  0  0  0  0  0  0  0  0  0  0
   38.5010   21.1420   29.1080 H   0  0  0  0  0  0  0  0  0  0  0  0
   35.3930   19.2130   31.9730 C   0  0  0  0  0  0  0  0  0  0  0  0
   35.6010   18.8170   33.3010 F   0  0  0  0  0  0  0  0  0  0  0  0
   35.4360   18.1370   31.1390 F   0  0  0  0  0  0  0  0  0  0  0  0
   34.1100   19.7280   31.9300 F   0  0  0  0  0  0  0  0  0  0  0  0
   38.4560   26.7900   35.4330 C   0  0  0  0  0  0  0  0  0  0  0  0
   38.2160   26.4990   36.7710 F   0  0  0  0  0  0  0  0  0  0  0  0
   39.7830   27.1600   35.3080 F   0  0  0  0  0  0  0  0  0  0  0  0
   37.6770   27.8720   35.0620 F   0  0  0  0  0  0  0  0  0  0  0  0
   39.7590   24.2290   35.9430 C   0  0  0  0  0  0  0  0  0  0  0  0
   40.8010   24.1500   35.5860 H   0  0  0  0  0  0  0  0  0  0  0  0
   39.5940   25.1090   36.6210 H   0  0  0  0  0  0  0  0  0  0  0  0
   39.3820   23.0280   36.7840 C   0  0  0  0  0  3  0  0  0  0  0  0
   39.1790   23.3030   38.2910 C   0  0  0  0  0  2  0  0  0  0  0  0
   40.3840   22.5720   37.8350 C   0  0  0  0  0  2  0  0  0  0  0  0
  1  2  1  0  0  0  0
  2  3  2  0  0  0  0
  2 22  1  0  0  0  0
  3 26  1  0  0  0  0
  4  3  1  0  0  0  0
  5  4  2  0  0  0  0
  6  5  1  0  0  0  0
  6  1  2  0  0  0  0
  7  1  1  0  0  0  0
  9  8  1  0  0  0  0
 10  9  1  0  0  0  0
 10  5  1  0  0  0  0
 11 10  2  0  0  0  0
 12 13  2  0  0  0  0
 12 11  1  0  0  0  0
 13 15  1  0  0  0  0
 14 13  1  0  0  0  0
 15 18  1  0  0  0  0
 15  9  2  0  0  0  0
 16 11  1  0  0  0  0
 17 12  1  0  0  0  0
 18 19  1  0  0  0  0
 20 18  1  0  0  0  0
 21 18  1  0  0  0  0
 22 23  1  0  0  0  0
 24 22  1  0  0  0  0
 25 22  1  0  0  0  0
 26 28  1  0  0  0  0
 26 29  1  0  0  0  0
 27 26  1  0  0  0  0
 29 31  1  0  0  0  0
 29 30  1  0  0  0  0
 31 30  1  0  0  0  0
M  END
>  <minimizedAffinity>
-5.81410933

$$$$

 OpenBabel03272500233D

 31 33  0  0  0  0  0  0  0  0999 V2000
   35.9680   29.4740   31.4820 C   0  0  0  0  0  0  0  0  0  0  0  0
   36.5930   28.2570   31.8540 C   0  0  0  0  0  0  0  0  0  0  0  0
   36.7380   27.9750   33.1940 C   0  0  0  0  0  0  0  0  0  0  0  0
   36.2710   28.8850   34.1110 N   0  0  0  0  0  0  0  0  0  0  0  0
   35.6890   30.0190   33.7450 C   0  0  0  0  0  0  0  0  0  0  0  0
   35.5340   30.3230   32.4410 N   0  0  0  0  0  0  0  0  0  0  0  0
   35.8460   29.7140   30.4290 H   0  0  0  0  0  0  0  0  0  0  0  0
   32.9290   29.4490   34.8380 Cl  0  0  0  0  0  0  0  0  0  0  0  0
   33.9510   30.7820   35.3450 C   0  0  0  0  0  0  0  0  0  0  0  0
   35.2090   30.9560   34.7770 C   0  0  0  0  0  0  0  0  0  0  0  0
   36.0570   31.9950   35.1430 C   0  0  0  0  0  0  0  0  0  0  0  0
   35.5760   32.8640   36.1210 C   0  0  0  0  0  0  0  0  0  0  0  0
   34.3420   32.7230   36.7010 C   0  0  0  0  0  0  0  0  0  0  0  0
   33.8500   33.8750   37.9130 Cl  0  0  0  0  0  0  0  0  0  0  0  0
   33.5290   31.6640   36.2990 C   0  0  0  0  0  0  0  0  0  0  0  0
   37.0370   32.1210   34.6940 H   0  0  0  0  0  0  0  0  0  0  0  0
   36.2720   33.6580   36.3730 H   0  0  0  0  0  0  0  0  0  0  0  0
   32.1930   31.4990   36.9170 C   0  0  0  0  0  0  0  0  0  0  0  0
   31.7090   32.7310   37.3730 F   0  0  0  0  0  0  0  0  0  0  0  0
   32.1940   30.5800   37.9220 F   0  0  0  0  0  0  0  0  0  0  0  0
   31.2930   31.0730   35.9560 F   0  0  0  0  0  0  0  0  0  0  0  0
   37.0620   27.3420   30.7700 C   0  0  0  0  0  0  0  0  0  0  0  0
   36.3740   26.1340   30.8010 F   0  0  0  0  0  0  0  0  0  0  0  0
   36.7990   27.9530   29.5570 F   0  0  0  0  0  0  0  0  0  0  0  0
   38.4210   27.0860   30.8290 F   0  0  0  0  0  0  0  0  0  0  0  0
   37.3830   26.7160   33.6010 C   0  0  0  0  0  0  0  0  0  0  0  0
   36.7540   26.1860   34.3380 H   0  0  0  0  0  0  0  0  0  0  0  0
   37.5660   26.1150   32.6700 H   0  0  0  0  0  0  0  0  0  0  0  0
   38.7660   26.9780   34.1600 C   0  0  0  0  0  3  0  0  0  0  0  0
   39.3390   25.8720   35.0740 C   0  0  0  0  0  2  0  0  0  0  0  0
   38.8870   27.1530   35.6670 C   0  0  0  0  0  2  0  0  0  0  0  0
  1  2  2  0  0  0  0
  1  6  1  0  0  0  0
  2  3  1  0  0  0  0
  3 26  1  0  0  0  0
  3  4  2  0  0  0  0
  5  4  1  0  0  0  0
  5 10  1  0  0  0  0
  6  5  2  0  0  0  0
  7  1  1  0  0  0  0
  8  9  1  0  0  0  0
  9 15  1  0  0  0  0
 10 11  1  0  0  0  0
 10  9  2  0  0  0  0
 11 12  2  0  0  0  0
 12 17  1  0  0  0  0
 12 13  1  0  0  0  0
 13 14  1  0  0  0  0
 15 13  2  0  0  0  0
 15 18  1  0  0  0  0
 16 11  1  0  0  0  0
 18 19  1  0  0  0  0
 18 20  1  0  0  0  0
 21 18  1  0  0  0  0
 22 23  1  0  0  0  0
 22 25  1  0  0  0  0
 22  2  1  0  0  0  0
 24 22  1  0  0  0  0
 26 29  1  0  0  0  0
 26 27  1  0  0  0  0
 28 26  1  0  0  0  0
 29 30  1  0  0  0  0
 29 31  1  0  0  0  0
 30 31  1  0  0  0  0
M  END
>  <minimizedAffinity>
-5.81014538

$$$$

 OpenBabel03272500233D

 31 33  0  0  0  0  0  0  0  0999 V2000
   38.2450   25.9440   36.7270 C   0  0  0  0  0  0  0  0  0  0  0  0
   38.5060   24.5600   36.8990 C   0  0  0  0  0  0  0  0  0  0  0  0
   39.0470   23.8570   35.8450 C   0  0  0  0  0  0  0  0  0  0  0  0
   39.3090   24.5270   34.6740 N   0  0  0  0  0  0  0  0  0  0  0  0
   39.0580   25.8210   34.5310 C   0  0  0  0  0  0  0  0  0  0  0  0
   38.5290   26.5360   35.5450 N   0  0  0  0  0  0  0  0  0  0  0  0
   37.8190   26.5140   37.5480 H   0  0  0  0  0  0  0  0  0  0  0  0
   36.6600   26.8240   32.9860 Cl  0  0  0  0  0  0  0  0  0  0  0  0
   38.3280   26.9810   32.4600 C   0  0  0  0  0  0  0  0  0  0  0  0
   39.3600   26.4830   33.2490 C   0  0  0  0  0  0  0  0  0  0  0  0
   40.6960   26.5820   32.8790 C   0  0  0  0  0  0  0  0  0  0  0  0
   40.9510   27.2120   31.6630 C   0  0  0  0  0  0  0  0  0  0  0  0
   39.9590   27.7130   30.8600 C   0  0  0  0  0  0  0  0  0  0  0  0
   40.4030   28.4810   29.3590 Cl  0  0  0  0  0  0  0  0  0  0  0  0
   38.6340   27.5890   31.2770 C   0  0  0  0  0  0  0  0  0  0  0  0
   41.4950   26.1900   33.5020 H   0  0  0  0  0  0  0  0  0  0  0  0
   42.0070   27.2650   31.4170 H   0  0  0  0  0  0  0  0  0  0  0  0
   37.5510   28.1260   30.4210 C   0  0  0  0  0  0  0  0  0  0  0  0
   36.4670   27.2400   30.3880 F   0  0  0  0  0  0  0  0  0  0  0  0
   37.9780   28.4110   29.1590 F   0  0  0  0  0  0  0  0  0  0  0  0
   37.0650   29.2960   30.9760 F   0  0  0  0  0  0  0  0  0  0  0  0
   38.1810   23.9370   38.2170 C   0  0  0  0  0  0  0  0  0  0  0  0
   39.3230   23.4270   38.8250 F   0  0  0  0  0  0  0  0  0  0  0  0
   37.6660   24.9250   39.0360 F   0  0  0  0  0  0  0  0  0  0  0  0
   37.2360   22.9310   38.1200 F   0  0  0  0  0  0  0  0  0  0  0  0
   39.3260   22.4210   36.0020 C   0  0  0  0  0  0  0  0  0  0  0  0
   38.9670   22.0690   36.9850 H   0  0  0  0  0  0  0  0  0  0  0  0
   38.8390   21.8870   35.1420 H   0  0  0  0  0  0  0  0  0  0  0  0
   40.8040   22.1400   35.8340 C   0  0  0  0  0  3  0  0  0  0  0  0
   41.4990   21.4670   37.0390 C   0  0  0  0  0  2  0  0  0  0  0  0
   41.7650   22.8940   36.7430 C   0  0  0  0  0  2  0  0  0  0  0  0
  1  2  1  0  0  0  0
  1  7  1  0  0  0  0
  2 22  1  0  0  0  0
  3 26  1  0  0  0  0
  3  2  2  0  0  0  0
  4  3  1  0  0  0  0
  5  4  2  0  0  0  0
  5  6  1  0  0  0  0
  6  1  2  0  0  0  0
  9  8  1  0  0  0  0
  9 10  1  0  0  0  0
 10  5  1  0  0  0  0
 11 10  2  0  0  0  0
 11 16  1  0  0  0  0
 12 11  1  0  0  0  0
 13 15  1  0  0  0  0
 13 12  2  0  0  0  0
 14 13  1  0  0  0  0
 15  9  2  0  0  0  0
 17 12  1  0  0  0  0
 18 21  1  0  0  0  0
 18 15  1  0  0  0  0
 19 18  1  0  0  0  0
 20 18  1  0  0  0  0
 22 23  1  0  0  0  0
 22 24  1  0  0  0  0
 25 22  1  0  0  0  0
 26 27  1  0  0  0  0
 28 26  1  0  0  0  0
 29 26  1  0  0  0  0
 29 31  1  0  0  0  0
 29 30  1  0  0  0  0
 31 30  1  0  0  0  0
M  END
>  <minimizedAffinity>
-5.75650549

$$$$

 OpenBabel03272500233D

 31 33  0  0  0  0  0  0  0  0999 V2000
   35.5030   29.7440   31.9840 C   0  0  0  0  0  0  0  0  0  0  0  0
   36.1380   28.5570   32.4300 C   0  0  0  0  0  0  0  0  0  0  0  0
   36.3360   28.3850   33.7820 C   0  0  0  0  0  0  0  0  0  0  0  0
   35.9110   29.3710   34.6390 N   0  0  0  0  0  0  0  0  0  0  0  0
   35.3190   30.4760   34.2040 C   0  0  0  0  0  0  0  0  0  0  0  0
   35.1110   30.6720   32.8860 N   0  0  0  0  0  0  0  0  0  0  0  0
   35.3390   29.8960   30.9210 H   0  0  0  0  0  0  0  0  0  0  0  0
   36.7620   33.1270   34.0340 Cl  0  0  0  0  0  0  0  0  0  0  0  0
   35.4860   32.7530   35.1790 C   0  0  0  0  0  0  0  0  0  0  0  0
   34.8850   31.4980   35.1740 C   0  0  0  0  0  0  0  0  0  0  0  0
   33.8710   31.1520   36.0590 C   0  0  0  0  0  0  0  0  0  0  0  0
   33.4820   32.1380   36.9630 C   0  0  0  0  0  0  0  0  0  0  0  0
   34.0520   33.3840   36.9970 C   0  0  0  0  0  0  0  0  0  0  0  0
   33.4810   34.5350   38.1750 Cl  0  0  0  0  0  0  0  0  0  0  0  0
   35.0660   33.6820   36.0870 C   0  0  0  0  0  0  0  0  0  0  0  0
   33.4080   30.1700   36.0460 H   0  0  0  0  0  0  0  0  0  0  0  0
   32.6890   31.8210   37.6320 H   0  0  0  0  0  0  0  0  0  0  0  0
   35.6920   35.0240   36.1120 C   0  0  0  0  0  0  0  0  0  0  0  0
   37.0870   34.9170   36.0590 F   0  0  0  0  0  0  0  0  0  0  0  0
   35.3070   35.7590   37.1930 F   0  0  0  0  0  0  0  0  0  0  0  0
   35.3240   35.7230   34.9760 F   0  0  0  0  0  0  0  0  0  0  0  0
   36.5590   27.5520   31.4070 C   0  0  0  0  0  0  0  0  0  0  0  0
   37.9220   27.2910   31.4930 F   0  0  0  0  0  0  0  0  0  0  0  0
   35.8800   26.3750   31.6670 F   0  0  0  0  0  0  0  0  0  0  0  0
   36.2570   27.9400   30.1130 F   0  0  0  0  0  0  0  0  0  0  0  0
   36.9930   27.1600   34.2660 C   0  0  0  0  0  0  0  0  0  0  0  0
   36.2360   26.4300   34.6020 H   0  0  0  0  0  0  0  0  0  0  0  0
   37.6350   26.7700   33.4310 H   0  0  0  0  0  0  0  0  0  0  0  0
   37.9700   27.4780   35.3780 C   0  0  0  0  0  3  0  0  0  0  0  0
   39.3840   26.8760   35.2190 C   0  0  0  0  0  2  0  0  0  0  0  0
   38.4580   26.3150   36.2300 C   0  0  0  0  0  2  0  0  0  0  0  0
  1  2  2  0  0  0  0
  1  6  1  0  0  0  0
  2  3  1  0  0  0  0
  3 26  1  0  0  0  0
  3  4  2  0  0  0  0
  5  4  1  0  0  0  0
  5 10  1  0  0  0  0
  6  5  2  0  0  0  0
  7  1  1  0  0  0  0
  8  9  1  0  0  0  0
  9 15  1  0  0  0  0
 10  9  2  0  0  0  0
 10 11  1  0  0  0  0
 11 12  2  0  0  0  0
 12 13  1  0  0  0  0
 12 17  1  0  0  0  0
 13 14  1  0  0  0  0
 15 18  1  0  0  0  0
 15 13  2  0  0  0  0
 16 11  1  0  0  0  0
 18 20  1  0  0  0  0
 19 18  1  0  0  0  0
 21 18  1  0  0  0  0
 22 23  1  0  0  0  0
 22 24  1  0  0  0  0
 22  2  1  0  0  0  0
 25 22  1  0  0  0  0
 26 27  1  0  0  0  0
 26 29  1  0  0  0  0
 28 26  1  0  0  0  0
 29 31  1  0  0  0  0
 30 29  1  0  0  0  0
 30 31  1  0  0  0  0
M  END
>  <minimizedAffinity>
-5.68865681

$$$$

 OpenBabel03272500233D

 31 33  0  0  0  0  0  0  0  0999 V2000
   37.1820   29.1150   31.0860 C   0  0  0  0  0  0  0  0  0  0  0  0
   36.3630   29.9710   31.8660 C   0  0  0  0  0  0  0  0  0  0  0  0
   35.8950   29.5090   33.0760 C   0  0  0  0  0  0  0  0  0  0  0  0
   36.2410   28.2400   33.4740 N   0  0  0  0  0  0  0  0  0  0  0  0
   37.0080   27.4530   32.7300 C   0  0  0  0  0  0  0  0  0  0  0  0
   37.4810   27.8780   31.5410 N   0  0  0  0  0  0  0  0  0  0  0  0
   37.5600   29.4630   30.1280 H   0  0  0  0  0  0  0  0  0  0  0  0
   37.8390   27.2730   35.6320 Cl  0  0  0  0  0  0  0  0  0  0  0  0
   37.7390   25.9090   34.5320 C   0  0  0  0  0  0  0  0  0  0  0  0
   37.3440   26.1010   33.2120 C   0  0  0  0  0  0  0  0  0  0  0  0
   37.2490   25.0550   32.3010 C   0  0  0  0  0  0  0  0  0  0  0  0
   37.5730   23.7890   32.7850 C   0  0  0  0  0  0  0  0  0  0  0  0
   37.9660   23.5640   34.0780 C   0  0  0  0  0  0  0  0  0  0  0  0
   38.3460   21.9340   34.5670 Cl  0  0  0  0  0  0  0  0  0  0  0  0
   38.0450   24.6470   34.9530 C   0  0  0  0  0  0  0  0  0  0  0  0
   36.9390   25.2160   31.2730 H   0  0  0  0  0  0  0  0  0  0  0  0
   37.4830   23.0060   32.0380 H   0  0  0  0  0  0  0  0  0  0  0  0
   38.4690   24.4190   36.3540 C   0  0  0  0  0  0  0  0  0  0  0  0
   39.8180   24.0490   36.4040 F   0  0  0  0  0  0  0  0  0  0  0  0
   37.6930   23.4970   36.9890 F   0  0  0  0  0  0  0  0  0  0  0  0
   38.3770   25.6050   37.0590 F   0  0  0  0  0  0  0  0  0  0  0  0
   36.0520   31.3320   31.3330 C   0  0  0  0  0  0  0  0  0  0  0  0
   36.5730   32.3230   32.1580 F   0  0  0  0  0  0  0  0  0  0  0  0
   36.6520   31.4480   30.0930 F   0  0  0  0  0  0  0  0  0  0  0  0
   34.6950   31.5500   31.1710 F   0  0  0  0  0  0  0  0  0  0  0  0
   35.0440   30.3810   33.9020 C   0  0  0  0  0  0  0  0  0  0  0  0
   34.8420   31.3290   33.3710 H   0  0  0  0  0  0  0  0  0  0  0  0
   34.1090   29.8080   34.1440 H   0  0  0  0  0  0  0  0  0  0  0  0
   35.6880   30.6410   35.2470 C   0  0  0  0  0  3  0  0  0  0  0  0
   34.9590   31.6580   36.1530 C   0  0  0  0  0  2  0  0  0  0  0  0
   36.2330   32.0390   35.5010 C   0  0  0  0  0  2  0  0  0  0  0  0
  1  6  2  0  0  0  0
  1  2  1  0  0  0  0
  2  3  2  0  0  0  0
  3  4  1  0  0  0  0
  3 26  1  0  0  0  0
  5 10  1  0  0  0  0
  5  4  2  0  0  0  0
  6  5  1  0  0  0  0
  7  1  1  0  0  0  0
  9 15  1  0  0  0  0
  9  8  1  0  0  0  0
 10  9  2  0  0  0  0
 11 12  2  0  0  0  0
 11 10  1  0  0  0  0
 12 13  1  0  0  0  0
 13 14  1  0  0  0  0
 13 15  2  0  0  0  0
 15 18  1  0  0  0  0
 16 11  1  0  0  0  0
 17 12  1  0  0  0  0
 18 19  1  0  0  0  0
 18 20  1  0  0  0  0
 18 21  1  0  0  0  0
 22  2  1  0  0  0  0
 22 23  1  0  0  0  0
 24 22  1  0  0  0  0
 25 22  1  0  0  0  0
 26 28  1  0  0  0  0
 26 29  1  0  0  0  0
 27 26  1  0  0  0  0
 29 31  1  0  0  0  0
 29 30  1  0  0  0  0
 31 30  1  0  0  0  0
M  END
>  <minimizedAffinity>
-5.6555686

$$$$

 OpenBabel03272500233D

 31 33  0  0  0  0  0  0  0  0999 V2000
   36.8700   29.5330   31.0540 C   0  0  0  0  0  0  0  0  0  0  0  0
   36.1420   30.2860   32.0100 C   0  0  0  0  0  0  0  0  0  0  0  0
   35.7560   29.6670   33.1790 C   0  0  0  0  0  0  0  0  0  0  0  0
   36.0920   28.3480   33.3650 N   0  0  0  0  0  0  0  0  0  0  0  0
   36.7730   27.6590   32.4590 C   0  0  0  0  0  0  0  0  0  0  0  0
   37.1640   28.2380   31.3060 N   0  0  0  0  0  0  0  0  0  0  0  0
   37.1820   30.0050   30.1260 H   0  0  0  0  0  0  0  0  0  0  0  0
   35.2020   25.6400   30.8480 Cl  0  0  0  0  0  0  0  0  0  0  0  0
   36.4370   25.2370   32.0290 C   0  0  0  0  0  0  0  0  0  0  0  0
   37.1030   26.2460   32.7180 C   0  0  0  0  0  0  0  0  0  0  0  0
   38.0880   25.9810   33.6610 C   0  0  0  0  0  0  0  0  0  0  0  0
   38.3780   24.6360   33.8840 C   0  0  0  0  0  0  0  0  0  0  0  0
   37.7420   23.6170   33.2240 C   0  0  0  0  0  0  0  0  0  0  0  0
   38.1920   21.9730   33.5890 Cl  0  0  0  0  0  0  0  0  0  0  0  0
   36.7610   23.9360   32.2860 C   0  0  0  0  0  0  0  0  0  0  0  0
   38.6020   26.7750   34.1930 H   0  0  0  0  0  0  0  0  0  0  0  0
   39.1530   24.4790   34.6280 H   0  0  0  0  0  0  0  0  0  0  0  0
   36.0650   22.8450   31.5650 C   0  0  0  0  0  0  0  0  0  0  0  0
   35.2760   22.0980   32.4490 F   0  0  0  0  0  0  0  0  0  0  0  0
   36.9260   22.0360   30.8870 F   0  0  0  0  0  0  0  0  0  0  0  0
   35.1870   23.3910   30.6460 F   0  0  0  0  0  0  0  0  0  0  0  0
   35.8330   31.7140   31.7000 C   0  0  0  0  0  0  0  0  0  0  0  0
   36.7040   32.5710   32.3650 F   0  0  0  0  0  0  0  0  0  0  0  0
   36.0060   31.8990   30.3400 F   0  0  0  0  0  0  0  0  0  0  0  0
   34.5310   32.0660   32.0140 F   0  0  0  0  0  0  0  0  0  0  0  0
   35.0010   30.4310   34.1850 C   0  0  0  0  0  0  0  0  0  0  0  0
   34.5620   31.3350   33.7270 H   0  0  0  0  0  0  0  0  0  0  0  0
   34.2270   29.7420   34.6190 H   0  0  0  0  0  0  0  0  0  0  0  0
   35.8860   30.7940   35.3580 C   0  0  0  0  0  3  0  0  0  0  0  0
   35.2300   31.6770   36.4440 C   0  0  0  0  0  2  0  0  0  0  0  0
   36.2410   32.2640   35.5340 C   0  0  0  0  0  2  0  0  0  0  0  0
  1  6  2  0  0  0  0
  1  2  1  0  0  0  0
  2  3  2  0  0  0  0
  3  4  1  0  0  0  0
  3 26  1  0  0  0  0
  5 10  1  0  0  0  0
  5  4  2  0  0  0  0
  6  5  1  0  0  0  0
  7  1  1  0  0  0  0
  8  9  1  0  0  0  0
  9 15  2  0  0  0  0
  9 10  1  0  0  0  0
 10 11  2  0  0  0  0
 11 12  1  0  0  0  0
 11 16  1  0  0  0  0
 12 17  1  0  0  0  0
 13 14  1  0  0  0  0
 13 12  2  0  0  0  0
 15 13  1  0  0  0  0
 18 15  1  0  0  0  0
 18 19  1  0  0  0  0
 20 18  1  0  0  0  0
 21 18  1  0  0  0  0
 22  2  1  0  0  0  0
 22 25  1  0  0  0  0
 22 23  1  0  0  0  0
 24 22  1  0  0  0  0
 26 28  1  0  0  0  0
 26 29  1  0  0  0  0
 27 26  1  0  0  0  0
 29 31  1  0  0  0  0
 29 30  1  0  0  0  0
 31 30  1  0  0  0  0
M  END
>  <minimizedAffinity>
-5.64897919

$$$$

 OpenBabel03272500233D

 31 33  0  0  0  0  0  0  0  0999 V2000
   35.8340   30.5080   30.8550 C   0  0  0  0  0  0  0  0  0  0  0  0
   36.5890   29.3080   30.8140 C   0  0  0  0  0  0  0  0  0  0  0  0
   36.2900   28.3110   31.7160 C   0  0  0  0  0  0  0  0  0  0  0  0
   35.2740   28.5230   32.6160 N   0  0  0  0  0  0  0  0  0  0  0  0
   34.5780   29.6520   32.6410 C   0  0  0  0  0  0  0  0  0  0  0  0
   34.8490   30.6460   31.7710 N   0  0  0  0  0  0  0  0  0  0  0  0
   36.0570   31.3050   30.1520 H   0  0  0  0  0  0  0  0  0  0  0  0
   35.3560   31.1000   35.1780 Cl  0  0  0  0  0  0  0  0  0  0  0  0
   33.7530   30.4720   34.8340 C   0  0  0  0  0  0  0  0  0  0  0  0
   33.5000   29.8200   33.6320 C   0  0  0  0  0  0  0  0  0  0  0  0
   32.2500   29.3050   33.3110 C   0  0  0  0  0  0  0  0  0  0  0  0
   31.2510   29.4780   34.2670 C   0  0  0  0  0  0  0  0  0  0  0  0
   31.4650   30.1150   35.4610 C   0  0  0  0  0  0  0  0  0  0  0  0
   30.1350   30.2710   36.5780 Cl  0  0  0  0  0  0  0  0  0  0  0  0
   32.7370   30.6150   35.7350 C   0  0  0  0  0  0  0  0  0  0  0  0
   32.0620   28.7970   32.3700 H   0  0  0  0  0  0  0  0  0  0  0  0
   30.2930   29.0600   33.9710 H   0  0  0  0  0  0  0  0  0  0  0  0
   32.9840   31.3050   37.0220 C   0  0  0  0  0  0  0  0  0  0  0  0
   32.2060   32.4660   37.1130 F   0  0  0  0  0  0  0  0  0  0  0  0
   34.3010   31.5930   37.2160 F   0  0  0  0  0  0  0  0  0  0  0  0
   32.5730   30.4930   38.0640 F   0  0  0  0  0  0  0  0  0  0  0  0
   37.6710   29.1880   29.7910 C   0  0  0  0  0  0  0  0  0  0  0  0
   37.2620   28.4020   28.7190 F   0  0  0  0  0  0  0  0  0  0  0  0
   37.9430   30.4570   29.3110 F   0  0  0  0  0  0  0  0  0  0  0  0
   38.8460   28.6690   30.3060 F   0  0  0  0  0  0  0  0  0  0  0  0
   37.0610   27.0570   31.6890 C   0  0  0  0  0  0  0  0  0  0  0  0
   37.6060   26.9670   30.7330 H   0  0  0  0  0  0  0  0  0  0  0  0
   37.7420   27.0620   32.5820 H   0  0  0  0  0  0  0  0  0  0  0  0
   36.1540   25.8650   31.9100 C   0  0  0  0  0  3  0  0  0  0  0  0
   36.3950   24.6590   30.9750 C   0  0  0  0  0  2  0  0  0  0  0  0
   35.1930   25.5030   30.7870 C   0  0  0  0  0  2  0  0  0  0  0  0
  1  6  1  0  0  0  0
  2  1  2  0  0  0  0
  2  3  1  0  0  0  0
  3  4  2  0  0  0  0
  4  5  1  0  0  0  0
  5 10  1  0  0  0  0
  6  5  2  0  0  0  0
  7  1  1  0  0  0  0
  9  8  1  0  0  0  0
  9 15  1  0  0  0  0
 10  9  2  0  0  0  0
 11 10  1  0  0  0  0
 11 12  2  0  0  0  0
 12 13  1  0  0  0  0
 13 15  2  0  0  0  0
 13 14  1  0  0  0  0
 15 18  1  0  0  0  0
 16 11  1  0  0  0  0
 17 12  1  0  0  0  0
 18 19  1  0  0  0  0
 18 20  1  0  0  0  0
 18 21  1  0  0  0  0
 22 25  1  0  0  0  0
 22  2  1  0  0  0  0
 23 22  1  0  0  0  0
 24 22  1  0  0  0  0
 26  3  1  0  0  0  0
 26 29  1  0  0  0  0
 26 28  1  0  0  0  0
 27 26  1  0  0  0  0
 30 29  1  0  0  0  0
 31 30  1  0  0  0  0
 31 29  1  0  0  0  0
M  END
>  <minimizedAffinity>
-5.62279606

$$$$

 OpenBabel03272500233D

 31 33  0  0  0  0  0  0  0  0999 V2000
   37.4300   23.4070   32.5900 C   0  0  0  0  0  0  0  0  0  0  0  0
   37.9870   23.3130   33.8910 C   0  0  0  0  0  0  0  0  0  0  0  0
   38.1690   24.4710   34.6140 C   0  0  0  0  0  0  0  0  0  0  0  0
   37.8050   25.6660   34.0430 N   0  0  0  0  0  0  0  0  0  0  0  0
   37.2860   25.7360   32.8240 C   0  0  0  0  0  0  0  0  0  0  0  0
   37.0950   24.6190   32.0930 N   0  0  0  0  0  0  0  0  0  0  0  0
   37.2790   22.5040   32.0060 H   0  0  0  0  0  0  0  0  0  0  0  0
   36.3690   27.7940   34.8390 Cl  0  0  0  0  0  0  0  0  0  0  0  0
   36.4790   28.0670   33.1090 C   0  0  0  0  0  0  0  0  0  0  0  0
   36.9150   27.0490   32.2660 C   0  0  0  0  0  0  0  0  0  0  0  0
   37.0210   27.2130   30.8900 C   0  0  0  0  0  0  0  0  0  0  0  0
   36.6630   28.4640   30.3920 C   0  0  0  0  0  0  0  0  0  0  0  0
   36.2300   29.4890   31.1920 C   0  0  0  0  0  0  0  0  0  0  0  0
   35.8100   31.0100   30.4520 Cl  0  0  0  0  0  0  0  0  0  0  0  0
   36.1420   29.2730   32.5670 C   0  0  0  0  0  0  0  0  0  0  0  0
   37.3620   26.4120   30.2410 H   0  0  0  0  0  0  0  0  0  0  0  0
   36.7620   28.5430   29.3140 H   0  0  0  0  0  0  0  0  0  0  0  0
   35.6740   30.3710   33.4450 C   0  0  0  0  0  0  0  0  0  0  0  0
   36.1870   31.6000   33.0100 F   0  0  0  0  0  0  0  0  0  0  0  0
   35.9820   30.1580   34.7550 F   0  0  0  0  0  0  0  0  0  0  0  0
   34.2990   30.4810   33.3480 F   0  0  0  0  0  0  0  0  0  0  0  0
   38.3450   21.9590   34.4110 C   0  0  0  0  0  0  0  0  0  0  0  0
   37.4020   21.5080   35.3270 F   0  0  0  0  0  0  0  0  0  0  0  0
   38.3540   21.0830   33.3400 F   0  0  0  0  0  0  0  0  0  0  0  0
   39.5970   21.9210   35.0000 F   0  0  0  0  0  0  0  0  0  0  0  0
   38.7450   24.3950   35.9670 C   0  0  0  0  0  0  0  0  0  0  0  0
   39.3980   23.5090   36.0530 H   0  0  0  0  0  0  0  0  0  0  0  0
   39.2890   25.3590   36.1560 H   0  0  0  0  0  0  0  0  0  0  0  0
   37.6520   24.3650   37.0140 C   0  0  0  0  0  3  0  0  0  0  0  0
   38.1000   24.6830   38.4580 C   0  0  0  0  0  2  0  0  0  0  0  0
   37.7470   23.2920   38.0900 C   0  0  0  0  0  2  0  0  0  0  0  0
  1  2  1  0  0  0  0
  2 22  1  0  0  0  0
  2  3  2  0  0  0  0
  3 26  1  0  0  0  0
  4  3  1  0  0  0  0
  5  4  2  0  0  0  0
  6  1  2  0  0  0  0
  6  5  1  0  0  0  0
  7  1  1  0  0  0  0
  9  8  1  0  0  0  0
 10  5  1  0  0  0  0
 10  9  2  0  0  0  0
 11 10  1  0  0  0  0
 12 11  2  0  0  0  0
 12 13  1  0  0  0  0
 13 15  2  0  0  0  0
 14 13  1  0  0  0  0
 15  9  1  0  0  0  0
 15 18  1  0  0  0  0
 16 11  1  0  0  0  0
 17 12  1  0  0  0  0
 18 20  1  0  0  0  0
 19 18  1  0  0  0  0
 21 18  1  0  0  0  0
 22 25  1  0  0  0  0
 22 23  1  0  0  0  0
 24 22  1  0  0  0  0
 26 27  1  0  0  0  0
 26 28  1  0  0  0  0
 26 29  1  0  0  0  0
 29 31  1  0  0  0  0
 29 30  1  0  0  0  0
 31 30  1  0  0  0  0
M  END
>  <minimizedAffinity>
-5.5822258

$$$$
