
 OpenBabel03272508523D

 23 25  0  0  1  0  0  0  0  0999 V2000
   37.5560   27.5400   35.0830 C   0  0  2  0  0  0  0  0  0  0  0  0
   38.9320   27.2080   34.7380 C   0  0  0  0  0  0  0  0  0  0  0  0
   37.8760   26.1200   34.9930 C   0  0  1  0  0  0  0  0  0  0  0  0
   37.2950   27.8700   36.1350 H   0  0  0  0  0  0  0  0  0  0  0  0
   39.3140   27.2930   33.7010 H   0  0  0  0  0  0  0  0  0  0  0  0
   39.6690   27.2830   35.5600 H   0  0  0  0  0  0  0  0  0  0  0  0
   37.7940   25.4560   34.1220 H   0  0  0  0  0  0  0  0  0  0  0  0
   34.9770   29.7520   33.6130 C   0  0  0  0  0  0  0  0  0  0  0  0
   34.8300   29.2160   32.3070 C   0  0  0  0  0  0  0  0  0  0  0  0
   35.6390   28.0830   31.9560 C   0  0  0  0  0  0  0  0  0  0  0  0
   36.4930   27.5840   32.8760 N   0  0  0  0  0  0  0  0  0  0  0  0
   36.5910   28.1420   34.1130 C   0  0  0  0  0  0  0  0  0  0  0  0
   35.8600   29.2060   34.5040 N   0  0  0  0  0  0  0  0  0  0  0  0
   34.3440   30.5990   33.8140 H   0  0  0  0  0  0  0  0  0  0  0  0
   34.1270   29.6620   31.6150 H   0  0  0  0  0  0  0  0  0  0  0  0
   35.5340   27.6710   30.9710 H   0  0  0  0  0  0  0  0  0  0  0  0
   38.0330   23.9650   36.1860 C   0  0  0  0  0  0  0  0  0  0  0  0
   38.0140   23.3770   35.0750 O   0  0  0  0  0  0  0  0  0  0  0  0
   38.0580   25.4030   36.2610 N   0  0  0  0  0  0  0  0  0  0  0  0
   38.1930   25.9530   37.1270 H   0  0  0  0  0  0  0  0  0  0  0  0
   38.0280   23.2600   37.4960 C   0  0  0  0  0  3  0  0  0  0  0  0
   39.3690   23.0600   38.2040 C   0  0  0  0  0  2  0  0  0  0  0  0
   38.3200   23.9620   38.7520 C   0  0  0  0  0  2  0  0  0  0  0  0
  1  4  1  1  0  0  0
  2  3  1  0  0  0  0
  2  1  1  0  0  0  0
  2  6  1  0  0  0  0
  3  7  1  6  0  0  0
  3  1  1  0  0  0  0
  3 19  1  0  0  0  0
  5  2  1  0  0  0  0
  8 14  1  0  0  0  0
  8 13  1  0  0  0  0
  9  8  2  0  0  0  0
 10  9  1  0  0  0  0
 10 11  2  0  0  0  0
 11 12  1  0  0  0  0
 12 13  2  0  0  0  0
 12  1  1  0  0  0  0
 15  9  1  0  0  0  0
 16 10  1  0  0  0  0
 17 19  1  0  0  0  0
 17 21  1  0  0  0  0
 18 17  2  0  0  0  0
 19 20  1  0  0  0  0
 21 22  1  0  0  0  0
 21 23  1  0  0  0  0
 22 23  1  0  0  0  0
M  END
>  <minimizedAffinity>
-4.33463144

$$$$

 OpenBabel03272508523D

 23 25  0  0  1  0  0  0  0  0999 V2000
   38.6270   21.9880   34.3350 C   0  0  2  0  0  0  0  0  0  0  0  0
   38.9440   22.8450   33.2000 C   0  0  0  0  0  0  0  0  0  0  0  0
   37.4950   22.4620   33.5450 C   0  0  1  0  0  0  0  0  0  0  0  0
   38.7780   20.8680   34.2640 H   0  0  0  0  0  0  0  0  0  0  0  0
   39.2190   23.9100   33.3280 H   0  0  0  0  0  0  0  0  0  0  0  0
   39.3130   22.3290   32.2930 H   0  0  0  0  0  0  0  0  0  0  0  0
   36.8880   23.3650   33.6960 H   0  0  0  0  0  0  0  0  0  0  0  0
   40.0790   22.6450   37.6760 C   0  0  0  0  0  0  0  0  0  0  0  0
   38.9900   23.2420   38.3660 C   0  0  0  0  0  0  0  0  0  0  0  0
   37.7570   23.4070   37.6480 C   0  0  0  0  0  0  0  0  0  0  0  0
   37.6900   22.9910   36.3650 N   0  0  0  0  0  0  0  0  0  0  0  0
   38.7690   22.4270   35.7570 C   0  0  0  0  0  0  0  0  0  0  0  0
   39.9530   22.2430   36.3750 N   0  0  0  0  0  0  0  0  0  0  0  0
   40.9730   22.5490   38.2670 H   0  0  0  0  0  0  0  0  0  0  0  0
   39.1070   23.5550   39.3950 H   0  0  0  0  0  0  0  0  0  0  0  0
   36.9290   23.8570   38.1610 H   0  0  0  0  0  0  0  0  0  0  0  0
   35.9470   20.5780   33.1710 C   0  0  0  0  0  0  0  0  0  0  0  0
   35.5470   20.7030   34.3560 O   0  0  0  0  0  0  0  0  0  0  0  0
   36.8970   21.5030   32.6090 N   0  0  0  0  0  0  0  0  0  0  0  0
   37.1820   21.5360   31.6150 H   0  0  0  0  0  0  0  0  0  0  0  0
   35.4950   19.4960   32.2540 C   0  0  0  0  0  3  0  0  0  0  0  0
   36.4720   18.3580   31.9560 C   0  0  0  0  0  2  0  0  0  0  0  0
   35.2260   18.1370   32.7380 C   0  0  0  0  0  2  0  0  0  0  0  0
  1  4  1  6  0  0  0
  1 12  1  0  0  0  0
  2  5  1  0  0  0  0
  2  3  1  0  0  0  0
  2  1  1  0  0  0  0
  3  7  1  1  0  0  0
  3  1  1  0  0  0  0
  6  2  1  0  0  0  0
  8 14  1  0  0  0  0
  8  9  1  0  0  0  0
  9 15  1  0  0  0  0
 10 16  1  0  0  0  0
 10  9  2  0  0  0  0
 11 10  1  0  0  0  0
 12 11  2  0  0  0  0
 12 13  1  0  0  0  0
 13  8  2  0  0  0  0
 17 18  2  0  0  0  0
 19 17  1  0  0  0  0
 19  3  1  0  0  0  0
 20 19  1  0  0  0  0
 21 23  1  0  0  0  0
 21 17  1  0  0  0  0
 22 21  1  0  0  0  0
 22 23  1  0  0  0  0
M  END
>  <minimizedAffinity>
-4.31989574

$$$$

 OpenBabel03272508523D

 23 25  0  0  1  0  0  0  0  0999 V2000
   38.3210   27.1900   34.3000 C   0  0  2  0  0  0  0  0  0  0  0  0
   39.7470   26.9750   34.5150 C   0  0  0  0  0  0  0  0  0  0  0  0
   38.7280   25.8290   34.6380 C   0  0  1  0  0  0  0  0  0  0  0  0
   37.6900   27.6760   35.1040 H   0  0  0  0  0  0  0  0  0  0  0  0
   40.4640   26.9110   33.6730 H   0  0  0  0  0  0  0  0  0  0  0  0
   40.1420   27.2970   35.4970 H   0  0  0  0  0  0  0  0  0  0  0  0
   38.9940   25.0080   33.9590 H   0  0  0  0  0  0  0  0  0  0  0  0
   35.8630   27.9370   31.6340 C   0  0  0  0  0  0  0  0  0  0  0  0
   36.6800   27.9760   30.4740 C   0  0  0  0  0  0  0  0  0  0  0  0
   38.0870   27.7400   30.6410 C   0  0  0  0  0  0  0  0  0  0  0  0
   38.5630   27.4940   31.8800 N   0  0  0  0  0  0  0  0  0  0  0  0
   37.7290   27.4690   32.9560 C   0  0  0  0  0  0  0  0  0  0  0  0
   36.4010   27.6820   32.8670 N   0  0  0  0  0  0  0  0  0  0  0  0
   34.8200   28.1210   31.4430 H   0  0  0  0  0  0  0  0  0  0  0  0
   36.2380   28.1790   29.5070 H   0  0  0  0  0  0  0  0  0  0  0  0
   38.7120   27.7680   29.7690 H   0  0  0  0  0  0  0  0  0  0  0  0
   38.1280   24.0120   36.1950 C   0  0  0  0  0  0  0  0  0  0  0  0
   38.1740   23.2050   35.2330 O   0  0  0  0  0  0  0  0  0  0  0  0
   38.4900   25.3950   36.0200 N   0  0  0  0  0  0  0  0  0  0  0  0
   38.5910   26.0870   36.7820 H   0  0  0  0  0  0  0  0  0  0  0  0
   37.7070   23.6360   37.5720 C   0  0  0  0  0  3  0  0  0  0  0  0
   38.8010   23.3040   38.5880 C   0  0  0  0  0  2  0  0  0  0  0  0
   37.9470   24.5160   38.7210 C   0  0  0  0  0  2  0  0  0  0  0  0
  1  2  1  0  0  0  0
  1  3  1  0  0  0  0
  1  4  1  1  0  0  0
  2  3  1  0  0  0  0
  2  6  1  0  0  0  0
  3  7  1  6  0  0  0
  3 19  1  0  0  0  0
  5  2  1  0  0  0  0
  8 13  1  0  0  0  0
  9 10  1  0  0  0  0
  9  8  2  0  0  0  0
 10 11  2  0  0  0  0
 11 12  1  0  0  0  0
 12  1  1  0  0  0  0
 13 12  2  0  0  0  0
 14  8  1  0  0  0  0
 15  9  1  0  0  0  0
 16 10  1  0  0  0  0
 17 21  1  0  0  0  0
 18 17  2  0  0  0  0
 19 17  1  0  0  0  0
 19 20  1  0  0  0  0
 21 22  1  0  0  0  0
 21 23  1  0  0  0  0
 22 23  1  0  0  0  0
M  END
>  <minimizedAffinity>
-4.27960014

$$$$

 OpenBabel03272508523D

 23 25  0  0  1  0  0  0  0  0999 V2000
   38.8770   25.6540   34.9270 C   0  0  2  0  0  0  0  0  0  0  0  0
   39.4000   27.0140   34.9430 C   0  0  0  0  0  0  0  0  0  0  0  0
   37.8960   26.7270   34.8000 C   0  0  1  0  0  0  0  0  0  0  0  0
   38.9630   25.0190   33.9930 H   0  0  0  0  0  0  0  0  0  0  0  0
   39.7230   27.5080   35.8800 H   0  0  0  0  0  0  0  0  0  0  0  0
   39.8540   27.3680   33.9980 H   0  0  0  0  0  0  0  0  0  0  0  0
   37.3340   27.2350   35.5950 H   0  0  0  0  0  0  0  0  0  0  0  0
   37.9830   24.2640   38.2400 C   0  0  0  0  0  0  0  0  0  0  0  0
   38.8390   23.1350   38.3340 C   0  0  0  0  0  0  0  0  0  0  0  0
   39.7210   22.8740   37.2310 C   0  0  0  0  0  0  0  0  0  0  0  0
   39.6970   23.7050   36.1670 N   0  0  0  0  0  0  0  0  0  0  0  0
   38.8530   24.7720   36.1340 C   0  0  0  0  0  0  0  0  0  0  0  0
   38.0010   25.0720   37.1360 N   0  0  0  0  0  0  0  0  0  0  0  0
   37.3480   24.4050   39.0970 H   0  0  0  0  0  0  0  0  0  0  0  0
   38.8120   22.5060   39.2130 H   0  0  0  0  0  0  0  0  0  0  0  0
   40.3720   22.0220   37.2930 H   0  0  0  0  0  0  0  0  0  0  0  0
   36.4100   28.0500   33.3400 C   0  0  0  0  0  0  0  0  0  0  0  0
   36.1710   28.8080   34.3130 O   0  0  0  0  0  0  0  0  0  0  0  0
   37.3700   26.9820   33.4530 N   0  0  0  0  0  0  0  0  0  0  0  0
   37.7050   26.3960   32.6700 H   0  0  0  0  0  0  0  0  0  0  0  0
   35.7480   28.1710   32.0130 C   0  0  0  0  0  3  0  0  0  0  0  0
   36.2110   29.2950   31.0840 C   0  0  0  0  0  2  0  0  0  0  0  0
   36.4560   27.8620   30.7650 C   0  0  0  0  0  2  0  0  0  0  0  0
  1  4  1  6  0  0  0
  1  2  1  0  0  0  0
  1 12  1  0  0  0  0
  2  5  1  0  0  0  0
  3  1  1  0  0  0  0
  3  2  1  0  0  0  0
  3  7  1  1  0  0  0
  6  2  1  0  0  0  0
  8  9  1  0  0  0  0
  8 14  1  0  0  0  0
  9 15  1  0  0  0  0
 10 16  1  0  0  0  0
 10  9  2  0  0  0  0
 11 10  1  0  0  0  0
 12 11  2  0  0  0  0
 12 13  1  0  0  0  0
 13  8  2  0  0  0  0
 17 19  1  0  0  0  0
 17 18  2  0  0  0  0
 19  3  1  0  0  0  0
 20 19  1  0  0  0  0
 21 17  1  0  0  0  0
 22 21  1  0  0  0  0
 23 22  1  0  0  0  0
 23 21  1  0  0  0  0
M  END
>  <minimizedAffinity>
-4.21327877

$$$$

 OpenBabel03272508523D

 23 25  0  0  1  0  0  0  0  0999 V2000
   38.7160   22.0770   34.2120 C   0  0  2  0  0  0  0  0  0  0  0  0
   38.9040   23.0020   33.1010 C   0  0  0  0  0  0  0  0  0  0  0  0
   37.5140   22.4650   33.4810 C   0  0  1  0  0  0  0  0  0  0  0  0
   38.9740   20.9810   34.0910 H   0  0  0  0  0  0  0  0  0  0  0  0
   39.0780   24.0850   33.2620 H   0  0  0  0  0  0  0  0  0  0  0  0
   39.2870   22.5590   32.1620 H   0  0  0  0  0  0  0  0  0  0  0  0
   36.8280   23.2970   33.6890 H   0  0  0  0  0  0  0  0  0  0  0  0
   38.0050   23.5090   37.5510 C   0  0  0  0  0  0  0  0  0  0  0  0
   39.1880   23.1950   38.2710 C   0  0  0  0  0  0  0  0  0  0  0  0
   40.2230   22.4830   37.5760 C   0  0  0  0  0  0  0  0  0  0  0  0
   40.0260   22.1480   36.2820 N   0  0  0  0  0  0  0  0  0  0  0  0
   38.8690   22.4770   35.6440 C   0  0  0  0  0  0  0  0  0  0  0  0
   37.8610   23.1440   36.2400 N   0  0  0  0  0  0  0  0  0  0  0  0
   37.2690   24.0420   38.1270 H   0  0  0  0  0  0  0  0  0  0  0  0
   39.2850   23.4910   39.3080 H   0  0  0  0  0  0  0  0  0  0  0  0
   41.1200   22.2410   38.1120 H   0  0  0  0  0  0  0  0  0  0  0  0
   35.9940   20.5710   33.0480 C   0  0  0  0  0  0  0  0  0  0  0  0
   35.5190   20.7200   34.2020 O   0  0  0  0  0  0  0  0  0  0  0  0
   36.9780   21.4850   32.5290 N   0  0  0  0  0  0  0  0  0  0  0  0
   37.3250   21.4990   31.5550 H   0  0  0  0  0  0  0  0  0  0  0  0
   35.6020   19.4700   32.1270 C   0  0  0  0  0  3  0  0  0  0  0  0
   36.5550   18.2820   31.9880 C   0  0  0  0  0  2  0  0  0  0  0  0
   35.2180   18.1440   32.6280 C   0  0  0  0  0  2  0  0  0  0  0  0
  1  4  1  6  0  0  0
  1 12  1  0  0  0  0
  2  5  1  0  0  0  0
  2  3  1  0  0  0  0
  2  1  1  0  0  0  0
  3  7  1  1  0  0  0
  3  1  1  0  0  0  0
  6  2  1  0  0  0  0
  8 14  1  0  0  0  0
  8  9  1  0  0  0  0
  9 15  1  0  0  0  0
 10 16  1  0  0  0  0
 10  9  2  0  0  0  0
 11 10  1  0  0  0  0
 12 13  1  0  0  0  0
 12 11  2  0  0  0  0
 13  8  2  0  0  0  0
 17 18  2  0  0  0  0
 19 17  1  0  0  0  0
 19  3  1  0  0  0  0
 20 19  1  0  0  0  0
 21 23  1  0  0  0  0
 21 17  1  0  0  0  0
 22 21  1  0  0  0  0
 22 23  1  0  0  0  0
M  END
>  <minimizedAffinity>
-4.20021486

$$$$

 OpenBabel03272508523D

 23 25  0  0  1  0  0  0  0  0999 V2000
   37.1930   26.8030   34.8790 C   0  0  2  0  0  0  0  0  0  0  0  0
   38.0270   27.7040   35.6650 C   0  0  0  0  0  0  0  0  0  0  0  0
   38.5140   26.3050   35.2500 C   0  0  1  0  0  0  0  0  0  0  0  0
   36.3500   26.2310   35.3730 H   0  0  0  0  0  0  0  0  0  0  0  0
   38.5520   28.5670   35.2080 H   0  0  0  0  0  0  0  0  0  0  0  0
   37.7890   27.7670   36.7440 H   0  0  0  0  0  0  0  0  0  0  0  0
   39.4550   26.3800   34.6880 H   0  0  0  0  0  0  0  0  0  0  0  0
   36.6260   26.2040   31.2710 C   0  0  0  0  0  0  0  0  0  0  0  0
   36.2770   27.4970   30.8020 C   0  0  0  0  0  0  0  0  0  0  0  0
   36.2440   28.5670   31.7590 C   0  0  0  0  0  0  0  0  0  0  0  0
   36.5440   28.2970   33.0480 N   0  0  0  0  0  0  0  0  0  0  0  0
   36.8710   27.0340   33.4380 C   0  0  0  0  0  0  0  0  0  0  0  0
   36.9200   25.9880   32.5890 N   0  0  0  0  0  0  0  0  0  0  0  0
   36.6330   25.4470   30.5060 H   0  0  0  0  0  0  0  0  0  0  0  0
   36.0460   27.6500   29.7560 H   0  0  0  0  0  0  0  0  0  0  0  0
   35.9810   29.5490   31.4140 H   0  0  0  0  0  0  0  0  0  0  0  0
   38.9030   23.9890   36.0070 C   0  0  0  0  0  0  0  0  0  0  0  0
   39.2780   23.6980   34.8440 O   0  0  0  0  0  0  0  0  0  0  0  0
   38.5680   25.3450   36.3600 N   0  0  0  0  0  0  0  0  0  0  0  0
   38.3680   25.6810   37.3170 H   0  0  0  0  0  0  0  0  0  0  0  0
   38.7680   22.9960   37.1070 C   0  0  0  0  0  3  0  0  0  0  0  0
   40.0240   22.6370   37.9030 C   0  0  0  0  0  2  0  0  0  0  0  0
   38.8910   23.3820   38.5170 C   0  0  0  0  0  2  0  0  0  0  0  0
  1  3  1  0  0  0  0
  1  4  1  1  0  0  0
  1  2  1  0  0  0  0
  2  6  1  0  0  0  0
  3  7  1  6  0  0  0
  3  2  1  0  0  0  0
  3 19  1  0  0  0  0
  5  2  1  0  0  0  0
  8 13  1  0  0  0  0
  9  8  2  0  0  0  0
  9 10  1  0  0  0  0
 10 11  2  0  0  0  0
 11 12  1  0  0  0  0
 12  1  1  0  0  0  0
 13 12  2  0  0  0  0
 14  8  1  0  0  0  0
 15  9  1  0  0  0  0
 16 10  1  0  0  0  0
 17 19  1  0  0  0  0
 17 21  1  0  0  0  0
 18 17  2  0  0  0  0
 19 20  1  0  0  0  0
 21 22  1  0  0  0  0
 21 23  1  0  0  0  0
 22 23  1  0  0  0  0
M  END
>  <minimizedAffinity>
-4.18363285

$$$$

 OpenBabel03272508523D

 23 25  0  0  1  0  0  0  0  0999 V2000
   39.0800   25.6000   34.7330 C   0  0  2  0  0  0  0  0  0  0  0  0
   39.8110   26.8600   34.6910 C   0  0  0  0  0  0  0  0  0  0  0  0
   38.2750   26.8140   34.6550 C   0  0  1  0  0  0  0  0  0  0  0  0
   39.0010   24.9550   33.8050 H   0  0  0  0  0  0  0  0  0  0  0  0
   40.2720   27.3010   35.5970 H   0  0  0  0  0  0  0  0  0  0  0  0
   40.2500   27.1330   33.7130 H   0  0  0  0  0  0  0  0  0  0  0  0
   37.8560   27.4100   35.4770 H   0  0  0  0  0  0  0  0  0  0  0  0
   39.7600   22.9020   37.1750 C   0  0  0  0  0  0  0  0  0  0  0  0
   38.8220   23.1830   38.2030 C   0  0  0  0  0  0  0  0  0  0  0  0
   37.9600   24.3180   38.0270 C   0  0  0  0  0  0  0  0  0  0  0  0
   38.0800   25.0590   36.9030 N   0  0  0  0  0  0  0  0  0  0  0  0
   39.0000   24.7400   35.9520 C   0  0  0  0  0  0  0  0  0  0  0  0
   39.8370   23.6880   36.0570 N   0  0  0  0  0  0  0  0  0  0  0  0
   40.3750   22.0400   37.3660 H   0  0  0  0  0  0  0  0  0  0  0  0
   38.7750   22.5520   39.0800 H   0  0  0  0  0  0  0  0  0  0  0  0
   37.2470   24.5390   38.7990 H   0  0  0  0  0  0  0  0  0  0  0  0
   36.5410   27.9920   33.3520 C   0  0  0  0  0  0  0  0  0  0  0  0
   36.1490   28.5370   34.4140 O   0  0  0  0  0  0  0  0  0  0  0  0
   37.7040   27.1430   33.3420 N   0  0  0  0  0  0  0  0  0  0  0  0
   38.1540   26.7570   32.4950 H   0  0  0  0  0  0  0  0  0  0  0  0
   35.8660   28.1600   32.0370 C   0  0  0  0  0  3  0  0  0  0  0  0
   36.1830   29.4180   31.2260 C   0  0  0  0  0  2  0  0  0  0  0  0
   36.6040   28.0640   30.7720 C   0  0  0  0  0  2  0  0  0  0  0  0
  1  4  1  6  0  0  0
  1 12  1  0  0  0  0
  2  1  1  0  0  0  0
  2  5  1  0  0  0  0
  3  2  1  0  0  0  0
  3  1  1  0  0  0  0
  3  7  1  1  0  0  0
  6  2  1  0  0  0  0
  8 14  1  0  0  0  0
  8  9  1  0  0  0  0
  9 15  1  0  0  0  0
 10  9  2  0  0  0  0
 10 16  1  0  0  0  0
 11 10  1  0  0  0  0
 12 13  1  0  0  0  0
 12 11  2  0  0  0  0
 13  8  2  0  0  0  0
 17 18  2  0  0  0  0
 19 17  1  0  0  0  0
 19  3  1  0  0  0  0
 20 19  1  0  0  0  0
 21 17  1  0  0  0  0
 22 21  1  0  0  0  0
 23 22  1  0  0  0  0
 23 21  1  0  0  0  0
M  END
>  <minimizedAffinity>
-4.18317175

$$$$

 OpenBabel03272508523D

 23 25  0  0  1  0  0  0  0  0999 V2000
   36.2240   23.6390   31.8630 C   0  0  2  0  0  0  0  0  0  0  0  0
   36.9660   24.4680   30.9220 C   0  0  0  0  0  0  0  0  0  0  0  0
   37.5100   24.1500   32.3250 C   0  0  1  0  0  0  0  0  0  0  0  0
   35.3450   24.0690   32.4330 H   0  0  0  0  0  0  0  0  0  0  0  0
   37.5200   24.0350   30.0670 H   0  0  0  0  0  0  0  0  0  0  0  0
   36.6250   25.5170   30.8290 H   0  0  0  0  0  0  0  0  0  0  0  0
   38.4980   23.6780   32.2530 H   0  0  0  0  0  0  0  0  0  0  0  0
   34.8410   20.2160   32.1490 C   0  0  0  0  0  0  0  0  0  0  0  0
   35.7300   19.4640   31.3370 C   0  0  0  0  0  0  0  0  0  0  0  0
   36.8050   20.1680   30.6960 C   0  0  0  0  0  0  0  0  0  0  0  0
   36.9220   21.4990   30.8940 N   0  0  0  0  0  0  0  0  0  0  0  0
   36.0370   22.1660   31.6850 C   0  0  0  0  0  0  0  0  0  0  0  0
   35.0070   21.5650   32.3140 N   0  0  0  0  0  0  0  0  0  0  0  0
   34.0580   19.6330   32.6010 H   0  0  0  0  0  0  0  0  0  0  0  0
   35.5830   18.3990   31.2170 H   0  0  0  0  0  0  0  0  0  0  0  0
   37.4820   19.6070   30.0800 H   0  0  0  0  0  0  0  0  0  0  0  0
   37.9870   25.0540   34.5710 C   0  0  0  0  0  0  0  0  0  0  0  0
   38.5750   23.9800   34.8520 O   0  0  0  0  0  0  0  0  0  0  0  0
   37.4710   25.2920   33.2480 N   0  0  0  0  0  0  0  0  0  0  0  0
   37.0840   26.1900   32.9100 H   0  0  0  0  0  0  0  0  0  0  0  0
   37.7680   26.1570   35.5460 C   0  0  0  0  0  3  0  0  0  0  0  0
   38.8630   27.2160   35.6860 C   0  0  0  0  0  2  0  0  0  0  0  0
   37.5290   27.5380   35.1100 C   0  0  0  0  0  2  0  0  0  0  0  0
  1  3  1  0  0  0  0
  1  4  1  1  0  0  0
  2  1  1  0  0  0  0
  2  3  1  0  0  0  0
  3  7  1  1  0  0  0
  3 19  1  0  0  0  0
  5  2  1  0  0  0  0
  6  2  1  0  0  0  0
  8 13  1  0  0  0  0
  8 14  1  0  0  0  0
  9  8  2  0  0  0  0
 10 11  2  0  0  0  0
 10  9  1  0  0  0  0
 11 12  1  0  0  0  0
 12  1  1  0  0  0  0
 12 13  2  0  0  0  0
 15  9  1  0  0  0  0
 16 10  1  0  0  0  0
 17 18  2  0  0  0  0
 17 21  1  0  0  0  0
 19 17  1  0  0  0  0
 20 19  1  0  0  0  0
 21 22  1  0  0  0  0
 23 21  1  0  0  0  0
 23 22  1  0  0  0  0
M  END
>  <minimizedAffinity>
-4.16937113

$$$$

 OpenBabel03272508523D

 23 25  0  0  1  0  0  0  0  0999 V2000
   36.0950   23.6500   31.8520 C   0  0  2  0  0  0  0  0  0  0  0  0
   35.5940   24.7490   31.0360 C   0  0  0  0  0  0  0  0  0  0  0  0
   36.9440   24.8340   31.7690 C   0  0  1  0  0  0  0  0  0  0  0  0
   35.6790   23.4750   32.8910 H   0  0  0  0  0  0  0  0  0  0  0  0
   35.6320   24.7240   29.9290 H   0  0  0  0  0  0  0  0  0  0  0  0
   34.8180   25.3850   31.5040 H   0  0  0  0  0  0  0  0  0  0  0  0
   37.7520   25.0460   31.0560 H   0  0  0  0  0  0  0  0  0  0  0  0
   38.2660   21.1080   30.2630 C   0  0  0  0  0  0  0  0  0  0  0  0
   37.4200   19.9690   30.2280 C   0  0  0  0  0  0  0  0  0  0  0  0
   36.0950   20.1060   30.7640 C   0  0  0  0  0  0  0  0  0  0  0  0
   35.7180   21.3000   31.2710 N   0  0  0  0  0  0  0  0  0  0  0  0
   36.5750   22.3570   31.2770 C   0  0  0  0  0  0  0  0  0  0  0  0
   37.8310   22.2940   30.7890 N   0  0  0  0  0  0  0  0  0  0  0  0
   39.2450   20.9420   29.8460 H   0  0  0  0  0  0  0  0  0  0  0  0
   37.7810   19.0390   29.8080 H   0  0  0  0  0  0  0  0  0  0  0  0
   35.4480   19.2490   30.7420 H   0  0  0  0  0  0  0  0  0  0  0  0
   37.8440   25.4090   33.9930 C   0  0  0  0  0  0  0  0  0  0  0  0
   38.7010   24.5000   33.8540 O   0  0  0  0  0  0  0  0  0  0  0  0
   36.9320   25.7360   32.9270 N   0  0  0  0  0  0  0  0  0  0  0  0
   36.2840   26.5420   32.9230 H   0  0  0  0  0  0  0  0  0  0  0  0
   37.6880   26.2160   35.2330 C   0  0  0  0  0  3  0  0  0  0  0  0
   38.7770   27.2370   35.5640 C   0  0  0  0  0  2  0  0  0  0  0  0
   37.3990   27.6540   35.1880 C   0  0  0  0  0  2  0  0  0  0  0  0
  1  4  1  1  0  0  0
  2  6  1  0  0  0  0
  2  3  1  0  0  0  0
  2  1  1  0  0  0  0
  3  7  1  6  0  0  0
  3  1  1  0  0  0  0
  3 19  1  0  0  0  0
  5  2  1  0  0  0  0
  8 13  1  0  0  0  0
  9  8  2  0  0  0  0
  9 10  1  0  0  0  0
 10 11  2  0  0  0  0
 11 12  1  0  0  0  0
 12  1  1  0  0  0  0
 13 12  2  0  0  0  0
 14  8  1  0  0  0  0
 15  9  1  0  0  0  0
 16 10  1  0  0  0  0
 17 21  1  0  0  0  0
 18 17  2  0  0  0  0
 19 17  1  0  0  0  0
 20 19  1  0  0  0  0
 21 22  1  0  0  0  0
 23 21  1  0  0  0  0
 23 22  1  0  0  0  0
M  END
>  <minimizedAffinity>
-3.9733026

$$$$
