
 OpenBabel03272501133D

 22 24  0  0  1  0  0  0  0  0999 V2000
   36.6950   30.9940   50.2200 C   0  0  1  0  0  0  0  0  0  0  0  0
   36.3640   29.5890   50.2600 C   0  0  1  0  0  0  0  0  0  0  0  0
   37.4010   30.1010   51.2340 C   0  0  0  0  0  0  0  0  0  0  0  0
   36.0440   31.7940   50.6590 H   0  0  0  0  0  0  0  0  0  0  0  0
   36.8280   28.9330   49.4750 H   0  0  0  0  0  0  0  0  0  0  0  0
   37.0800   30.2690   52.2730 H   0  0  0  0  0  0  0  0  0  0  0  0
   38.4580   29.8720   51.0920 H   0  0  0  0  0  0  0  0  0  0  0  0
   37.6450   31.5490   49.1770 C   0  0  0  0  0  0  0  0  0  0  0  0
   38.1560   32.8230   49.4360 C   0  0  0  0  0  0  0  0  0  0  0  0
   39.0100   33.3210   48.4520 C   0  0  0  0  0  0  0  0  0  0  0  0
   39.2970   32.5860   47.3380 N   0  0  0  0  0  0  0  0  0  0  0  0
   38.7680   31.3440   47.1370 C   0  0  0  0  0  0  0  0  0  0  0  0
   37.9230   30.8210   48.0840 N   0  0  0  0  0  0  0  0  0  0  0  0
   37.8930   33.3550   50.3340 H   0  0  0  0  0  0  0  0  0  0  0  0
   39.4400   34.3030   48.5930 H   0  0  0  0  0  0  0  0  0  0  0  0
   39.0200   30.7950   46.2420 H   0  0  0  0  0  0  0  0  0  0  0  0
   34.9930   29.1960   50.7450 C   0  0  0  0  0  0  0  0  0  0  0  0
   34.5910   30.1090   51.2750 H   0  0  0  0  0  0  0  0  0  0  0  0
   35.0420   28.3350   51.4150 H   0  0  0  0  0  0  0  0  0  0  0  0
   34.0320   28.9530   49.5850 C   0  0  0  0  0  0  0  0  0  0  0  0
   34.2620   27.7360   48.7480 C   0  0  0  0  0  0  0  0  0  0  0  0
   34.5590   29.1130   48.1780 C   0  0  0  0  0  0  0  0  0  0  0  0
  1  2  1  0  0  0  0
  1  4  1  1  0  0  0
  1  3  1  0  0  0  0
  2  5  1  6  0  0  0
  2 17  1  0  0  0  0
  2  3  1  0  0  0  0
  3  6  1  0  0  0  0
  7  3  1  0  0  0  0
  8  9  1  0  0  0  0
  8  1  1  0  0  0  0
  9 14  1  0  0  0  0
 10 15  1  0  0  0  0
 10  9  2  0  0  0  0
 11 10  1  0  0  0  0
 12 11  2  0  0  0  0
 12 13  1  0  0  0  0
 13  8  2  0  0  0  0
 16 12  1  0  0  0  0
 17 18  1  0  0  0  0
 17 19  1  0  0  0  0
 20 17  1  0  0  0  0
 21 20  1  0  0  0  0
 22 21  1  0  0  0  0
 22 20  1  0  0  0  0
M  END
>  <minimizedAffinity>
-5.24240828

>  <minimizedRMSD>
1.52738321

$$$$
