
 OpenBabel03272509453D

 13 14  0  0  0  0  0  0  0  0999 V2000
   37.7860   30.0550   50.5970 C   0  0  0  0  0  0  0  0  0  0  0  0
   38.2450   31.2410   50.0190 C   0  0  0  0  0  0  0  0  0  0  0  0
   37.5830   31.7190   48.8780 C   0  0  0  0  0  0  0  0  0  0  0  0
   36.5160   30.9950   48.3860 N   0  0  0  0  0  0  0  0  0  0  0  0
   36.1110   29.8430   48.9900 C   0  0  0  0  0  0  0  0  0  0  0  0
   36.7500   29.3890   50.0860 N   0  0  0  0  0  0  0  0  0  0  0  0
   38.3060   29.6990   51.4740 H   0  0  0  0  0  0  0  0  0  0  0  0
   39.0810   31.8290   50.3860 H   0  0  0  0  0  0  0  0  0  0  0  0
   37.8950   32.6220   48.3990 H   0  0  0  0  0  0  0  0  0  0  0  0
   35.0310   29.2700   48.3490 O   0  0  0  0  0  0  0  0  0  0  0  0
   34.4880   28.0780   48.8880 C   0  0  0  0  0  3  0  0  0  0  0  0
   33.8590   27.0760   47.9970 C   0  0  0  0  0  2  0  0  0  0  0  0
   32.9710   28.0150   48.7430 C   0  0  0  0  0  2  0  0  0  0  0  0
  1  7  1  0  0  0  0
  2  8  1  0  0  0  0
  2  1  2  0  0  0  0
  3  2  1  0  0  0  0
  4  3  2  0  0  0  0
  4  5  1  0  0  0  0
  5  6  2  0  0  0  0
  6  1  1  0  0  0  0
  9  3  1  0  0  0  0
 10 11  1  0  0  0  0
 10  5  1  0  0  0  0
 12 13  1  0  0  0  0
 12 11  1  0  0  0  0
 13 11  1  0  0  0  0
M  END
>  <minimizedAffinity>
-3.53301311

>  <minimizedRMSD>
2.07963276

$$$$
