
 OpenBabel03272509583D

 40 43  0  0  0  0  0  0  0  0999 V2000
   34.7970   28.5010   49.6910 O   0  0  0  0  0  0  0  0  0  0  0  0
   37.3750   30.1510   51.6190 C   0  0  0  0  0  0  0  0  0  0  0  0
   38.0760   30.8010   50.5760 C   0  0  0  0  0  0  0  0  0  0  0  0
   37.6190   30.6330   49.2800 C   0  0  0  0  0  0  0  0  0  0  0  0
   36.5120   29.8360   49.1270 N   0  0  0  0  0  0  0  0  0  0  0  0
   35.8670   29.2330   50.1200 C   0  0  0  0  0  0  0  0  0  0  0  0
   36.3130   29.3990   51.3840 N   0  0  0  0  0  0  0  0  0  0  0  0
   37.7520   30.3000   52.6240 H   0  0  0  0  0  0  0  0  0  0  0  0
   38.9450   31.4240   50.7110 H   0  0  0  0  0  0  0  0  0  0  0  0
   39.0810   33.1220   49.0520 F   0  0  0  0  0  0  0  0  0  0  0  0
   38.8910   32.3800   47.9780 C   0  0  0  0  0  0  0  0  0  0  0  0
   38.2060   31.2170   48.0950 C   0  0  0  0  0  0  0  0  0  0  0  0
   38.0580   30.5080   46.9060 C   0  0  0  0  0  0  0  0  0  0  0  0
   38.5760   30.9650   45.7130 C   0  0  0  0  0  0  0  0  0  0  0  0
   39.2620   32.1490   45.6420 C   0  0  0  0  0  0  0  0  0  0  0  0
   39.4160   32.8570   46.7940 C   0  0  0  0  0  0  0  0  0  0  0  0
   37.5350   29.5620   46.8460 H   0  0  0  0  0  0  0  0  0  0  0  0
   38.4530   30.4030   44.7930 H   0  0  0  0  0  0  0  0  0  0  0  0
   39.6810   32.5340   44.7110 H   0  0  0  0  0  0  0  0  0  0  0  0
   39.9550   33.7900   46.7490 H   0  0  0  0  0  0  0  0  0  0  0  0
   34.5560   28.3810   48.2990 C   0  0  0  0  0  0  0  0  0  0  0  0
   34.1180   29.3210   47.9420 H   0  0  0  0  0  0  0  0  0  0  0  0
   35.5240   28.1150   47.8050 H   0  0  0  0  0  0  0  0  0  0  0  0
   33.5940   27.2620   48.0110 C   0  0  0  0  0  0  0  0  0  0  0  0
   33.8840   26.6820   47.1010 H   0  0  0  0  0  0  0  0  0  0  0  0
   33.6150   26.5430   48.8350 H   0  0  0  0  0  0  0  0  0  0  0  0
   32.1980   27.7660   47.8250 C   0  0  0  0  0  0  0  0  0  0  0  0
   31.2440   27.3650   48.7390 C   0  0  0  0  0  0  0  0  0  0  0  0
   29.9380   27.7680   48.6610 C   0  0  0  0  0  0  0  0  0  0  0  0
   29.5700   28.5730   47.6750 N   0  0  0  0  0  0  0  0  0  0  0  0
   30.5080   28.9650   46.7780 C   0  0  0  0  0  0  0  0  0  0  0  0
   31.7980   28.5810   46.8350 N   0  0  0  0  0  0  0  0  0  0  0  0
   31.5350   26.7080   49.5490 H   0  0  0  0  0  0  0  0  0  0  0  0
   29.2360   27.4060   49.4260 H   0  0  0  0  0  0  0  0  0  0  0  0
   30.0780   29.8780   45.6630 C   0  0  0  0  0  0  0  0  0  0  0  0
   29.4710   30.7190   46.0820 H   0  0  0  0  0  0  0  0  0  0  0  0
   29.4450   29.3110   44.9310 H   0  0  0  0  0  0  0  0  0  0  0  0
   31.2440   30.4360   44.9160 C   0  0  0  0  0  3  0  0  0  0  0  0
   30.8700   31.6450   44.0360 C   0  0  0  0  0  2  0  0  0  0  0  0
   31.8230   31.7580   45.1830 C   0  0  0  0  0  2  0  0  0  0  0  0
  1  6  1  0  0  0  0
  2  8  1  0  0  0  0
  3  9  1  0  0  0  0
  3  2  2  0  0  0  0
  4  3  1  0  0  0  0
  5  4  2  0  0  0  0
  5  6  1  0  0  0  0
  6  7  2  0  0  0  0
  7  2  1  0  0  0  0
 11 12  1  0  0  0  0
 11 10  1  0  0  0  0
 12  4  1  0  0  0  0
 13 12  2  0  0  0  0
 14 13  1  0  0  0  0
 15 14  2  0  0  0  0
 15 16  1  0  0  0  0
 16 11  2  0  0  0  0
 17 13  1  0  0  0  0
 18 14  1  0  0  0  0
 19 15  1  0  0  0  0
 20 16  1  0  0  0  0
 21  1  1  0  0  0  0
 22 21  1  0  0  0  0
 23 21  1  0  0  0  0
 24 21  1  0  0  0  0
 24 26  1  0  0  0  0
 25 24  1  0  0  0  0
 27 24  1  0  0  0  0
 27 28  1  0  0  0  0
 28 33  1  0  0  0  0
 29 28  2  0  0  0  0
 29 34  1  0  0  0  0
 30 29  1  0  0  0  0
 31 32  1  0  0  0  0
 31 30  2  0  0  0  0
 32 27  2  0  0  0  0
 35 36  1  0  0  0  0
 35 31  1  0  0  0  0
 37 35  1  0  0  0  0
 38 40  1  0  0  0  0
 38 35  1  0  0  0  0
 39 38  1  0  0  0  0
 39 40  1  0  0  0  0
M  END
>  <minimizedAffinity>
-6.13816214

>  <minimizedRMSD>
0.458532035

$$$$
