
 OpenBabel03272507373D

 17 18  0  0  0  0  0  0  0  0999 V2000
   36.3290   30.7510   48.4460 C   0  0  0  0  0  0  0  0  0  0  0  0
   37.5110   31.0220   47.7530 C   0  0  0  0  0  0  0  0  0  0  0  0
   37.5360   30.8520   46.3720 C   0  0  0  0  0  0  0  0  0  0  0  0
   36.3890   30.4230   45.7600 N   0  0  0  0  0  0  0  0  0  0  0  0
   35.2570   30.1690   46.4710 C   0  0  0  0  0  0  0  0  0  0  0  0
   35.2290   30.3310   47.7970 N   0  0  0  0  0  0  0  0  0  0  0  0
   38.4030   31.0370   45.7500 H   0  0  0  0  0  0  0  0  0  0  0  0
   34.3690   29.8290   45.9430 H   0  0  0  0  0  0  0  0  0  0  0  0
   38.8050   32.7550   48.8550 C   0  0  0  0  0  0  0  0  0  0  0  0
   38.0070   33.7630   48.9880 O   0  0  0  0  0  0  0  0  0  0  0  0
   38.7160   31.4600   48.2960 N   0  0  0  0  0  0  0  0  0  0  0  0
   39.5500   33.3690   49.3640 H   0  0  0  0  0  0  0  0  0  0  0  0
   39.6680   31.0200   48.4020 H   0  0  0  0  0  0  0  0  0  0  0  0
   36.4920   30.9750   49.7990 O   0  0  0  0  0  0  0  0  0  0  0  0
   36.3950   29.8120   50.6130 C   0  0  0  0  0  0  0  0  0  0  0  0
   37.0330   29.7550   51.9290 C   0  0  0  0  0  0  0  0  0  0  0  0
   37.6880   29.0320   50.8060 C   0  0  0  0  0  0  0  0  0  0  0  0
  1 14  1  0  0  0  0
  2 11  1  0  0  0  0
  2  1  2  0  0  0  0
  3  2  1  0  0  0  0
  4  3  2  0  0  0  0
  4  5  1  0  0  0  0
  5  6  2  0  0  0  0
  6  1  1  0  0  0  0
  7  3  1  0  0  0  0
  8  5  1  0  0  0  0
  9 10  2  0  0  0  0
  9 12  1  0  0  0  0
 11 13  1  0  0  0  0
 11  9  1  0  0  0  0
 14 15  1  0  0  0  0
 15 17  1  0  0  0  0
 15 16  1  0  0  0  0
 17 16  1  0  0  0  0
M  END
>  <minimizedAffinity>
-4.13672495

>  <minimizedRMSD>
2.81593418

$$$$
