
 OpenBabel03272508083D

 18 19  0  0  0  0  0  0  0  0999 V2000
   37.3040   30.2340   51.4160 C   0  0  0  0  0  0  0  0  0  0  0  0
   38.0590   30.5870   50.3020 C   0  0  0  0  0  0  0  0  0  0  0  0
   37.6070   30.1720   49.0480 C   0  0  0  0  0  0  0  0  0  0  0  0
   36.4580   29.4510   48.9880 N   0  0  0  0  0  0  0  0  0  0  0  0
   35.7560   29.1320   50.1050 C   0  0  0  0  0  0  0  0  0  0  0  0
   36.1840   29.5250   51.3010 N   0  0  0  0  0  0  0  0  0  0  0  0
   37.7690   30.6210   52.3240 H   0  0  0  0  0  0  0  0  0  0  0  0
   38.9670   31.1460   50.2430 H   0  0  0  0  0  0  0  0  0  0  0  0
   34.8400   28.5570   50.0620 H   0  0  0  0  0  0  0  0  0  0  0  0
   38.1570   30.3860   47.8260 O   0  0  0  0  0  0  0  0  0  0  0  0
   39.0940   32.8790   48.1510 O   0  0  0  0  0  0  0  0  0  0  0  0
   38.6740   31.8380   47.1550 P   0  0  2  0  0  0  0  0  0  0  0  0
   37.5070   32.4700   46.1020 O   0  0  0  0  0  0  0  0  0  0  0  0
   37.0330   31.6940   45.7150 H   0  0  0  0  0  0  0  0  0  0  0  0
   40.0460   31.5210   46.1740 O   0  0  0  0  0  0  0  0  0  0  0  0
   39.7070   31.5010   44.8380 C   0  0  0  0  0  0  0  0  0  0  0  0
   40.6970   30.8580   43.9330 C   0  0  0  0  0  0  0  0  0  0  0  0
   39.4120   30.1450   44.2690 C   0  0  0  0  0  0  0  0  0  0  0  0
  1  7  1  0  0  0  0
  2  1  2  0  0  0  0
  3  2  1  0  0  0  0
  4  3  2  0  0  0  0
  4  5  1  0  0  0  0
  5  6  2  0  0  0  0
  6  1  1  0  0  0  0
  8  2  1  0  0  0  0
  9  5  1  0  0  0  0
 10  3  1  0  0  0  0
 12 10  1  0  0  0  0
 12 11  2  1  0  0  0
 13 12  1  0  0  0  0
 14 13  1  0  0  0  0
 15 12  1  0  0  0  0
 16 15  1  0  0  0  0
 17 18  1  0  0  0  0
 17 16  1  0  0  0  0
 18 16  1  0  0  0  0
M  END
>  <minimizedAffinity>
-4.5733633

>  <minimizedRMSD>
0.851480424

$$$$
