
 OpenBabel03262522093D

 14 15  0  0  0  0  0  0  0  0999 V2000
   40.1560   23.5480   35.5490 C   0  0  0  0  0  0  0  0  0  0  0  0
   38.9200   24.0870   36.0100 C   0  0  0  0  0  0  0  0  0  0  0  0
   38.5140   23.7980   37.3240 C   0  0  0  0  0  0  0  0  0  0  0  0
   39.3250   23.0230   38.0740 N   0  0  0  0  0  0  0  0  0  0  0  0
   40.4830   22.5310   37.6120 C   0  0  0  0  0  0  0  0  0  0  0  0
   40.9060   22.7790   36.3740 N   0  0  0  0  0  0  0  0  0  0  0  0
   40.4310   23.7970   34.5240 H   0  0  0  0  0  0  0  0  0  0  0  0
   37.5690   24.2270   37.6330 H   0  0  0  0  0  0  0  0  0  0  0  0
   41.0850   21.9090   38.2850 H   0  0  0  0  0  0  0  0  0  0  0  0
   38.1390   24.9220   35.0660 C   0  0  0  0  0  0  0  0  0  0  0  0
   38.0130   24.4180   33.9320 O   0  0  0  0  0  0  0  0  0  0  0  0
   37.5660   26.2310   35.4490 C   0  0  0  0  0  3  0  0  0  0  0  0
   38.4650   27.3800   35.7550 C   0  0  0  0  0  2  0  0  0  0  0  0
   37.5840   27.3790   34.5180 C   0  0  0  0  0  2  0  0  0  0  0  0
  1  2  2  0  0  0  0
  1  6  1  0  0  0  0
  2  3  1  0  0  0  0
  3  8  1  0  0  0  0
  3  4  2  0  0  0  0
  5  4  1  0  0  0  0
  5  9  1  0  0  0  0
  6  5  2  0  0  0  0
  7  1  1  0  0  0  0
 10 12  1  0  0  0  0
 10  2  1  0  0  0  0
 11 10  2  0  0  0  0
 12 13  1  0  0  0  0
 14 12  1  0  0  0  0
 14 13  1  0  0  0  0
M  END
>  <minimizedAffinity>
-3.52840424

$$$$

 OpenBabel03262522093D

 14 15  0  0  0  0  0  0  0  0999 V2000
   38.5520   23.7820   37.2170 C   0  0  0  0  0  0  0  0  0  0  0  0
   39.0290   24.0750   35.9070 C   0  0  0  0  0  0  0  0  0  0  0  0
   40.2720   23.5490   35.5150 C   0  0  0  0  0  0  0  0  0  0  0  0
   40.9420   22.7920   36.4090 N   0  0  0  0  0  0  0  0  0  0  0  0
   40.4660   22.5350   37.6370 C   0  0  0  0  0  0  0  0  0  0  0  0
   39.2940   23.0130   38.0490 N   0  0  0  0  0  0  0  0  0  0  0  0
   37.5850   24.2120   37.4780 H   0  0  0  0  0  0  0  0  0  0  0  0
   40.5960   23.7950   34.5120 H   0  0  0  0  0  0  0  0  0  0  0  0
   41.0720   21.9110   38.3040 H   0  0  0  0  0  0  0  0  0  0  0  0
   38.1780   24.9230   35.0380 C   0  0  0  0  0  0  0  0  0  0  0  0
   37.9910   24.4500   33.8990 O   0  0  0  0  0  0  0  0  0  0  0  0
   37.6080   26.2100   35.4940 C   0  0  0  0  0  3  0  0  0  0  0  0
   38.4960   27.3890   35.7020 C   0  0  0  0  0  2  0  0  0  0  0  0
   37.4780   27.3600   34.5760 C   0  0  0  0  0  2  0  0  0  0  0  0
  1  7  1  0  0  0  0
  1  6  1  0  0  0  0
  2  1  2  0  0  0  0
  3  2  1  0  0  0  0
  3  4  2  0  0  0  0
  4  5  1  0  0  0  0
  5  6  2  0  0  0  0
  5  9  1  0  0  0  0
  8  3  1  0  0  0  0
 10 12  1  0  0  0  0
 10  2  1  0  0  0  0
 11 10  2  0  0  0  0
 12 13  1  0  0  0  0
 14 12  1  0  0  0  0
 14 13  1  0  0  0  0
M  END
>  <minimizedAffinity>
-3.51875949

$$$$

 OpenBabel03262522093D

 14 15  0  0  0  0  0  0  0  0999 V2000
   37.1590   24.3520   32.4480 C   0  0  0  0  0  0  0  0  0  0  0  0
   36.1220   23.7460   31.6810 C   0  0  0  0  0  0  0  0  0  0  0  0
   35.2060   24.5800   31.0190 C   0  0  0  0  0  0  0  0  0  0  0  0
   35.3650   25.9140   31.1500 N   0  0  0  0  0  0  0  0  0  0  0  0
   36.3520   26.4550   31.8800 C   0  0  0  0  0  0  0  0  0  0  0  0
   37.2420   25.7020   32.5240 N   0  0  0  0  0  0  0  0  0  0  0  0
   37.8460   23.6670   32.9460 H   0  0  0  0  0  0  0  0  0  0  0  0
   34.4350   24.0800   30.4480 H   0  0  0  0  0  0  0  0  0  0  0  0
   36.4130   27.5480   31.9360 H   0  0  0  0  0  0  0  0  0  0  0  0
   36.0780   22.2650   31.6330 C   0  0  0  0  0  0  0  0  0  0  0  0
   36.9540   21.7570   30.9060 O   0  0  0  0  0  0  0  0  0  0  0  0
   35.0790   21.4740   32.3860 C   0  0  0  0  0  3  0  0  0  0  0  0
   34.8490   20.0410   32.0460 C   0  0  0  0  0  2  0  0  0  0  0  0
   35.4920   20.4440   33.3620 C   0  0  0  0  0  2  0  0  0  0  0  0
  1  6  1  0  0  0  0
  1  7  1  0  0  0  0
  2  1  2  0  0  0  0
  3  4  2  0  0  0  0
  3  2  1  0  0  0  0
  4  5  1  0  0  0  0
  5  9  1  0  0  0  0
  5  6  2  0  0  0  0
  8  3  1  0  0  0  0
 10  2  1  0  0  0  0
 10 12  1  0  0  0  0
 11 10  2  0  0  0  0
 12 14  1  0  0  0  0
 13 12  1  0  0  0  0
 13 14  1  0  0  0  0
M  END
>  <minimizedAffinity>
-3.50366354

$$$$

 OpenBabel03262522093D

 14 15  0  0  0  0  0  0  0  0999 V2000
   37.6190   26.1540   35.2060 C   0  0  0  0  0  0  0  0  0  0  0  0
   38.1330   24.8430   34.9910 C   0  0  0  0  0  0  0  0  0  0  0  0
   38.0220   24.2840   33.7070 C   0  0  0  0  0  0  0  0  0  0  0  0
   37.4300   25.0280   32.7490 N   0  0  0  0  0  0  0  0  0  0  0  0
   36.9560   26.2600   32.9830 C   0  0  0  0  0  0  0  0  0  0  0  0
   37.0410   26.8280   34.1830 N   0  0  0  0  0  0  0  0  0  0  0  0
   37.7270   26.5480   36.2170 H   0  0  0  0  0  0  0  0  0  0  0  0
   38.4250   23.2860   33.5870 H   0  0  0  0  0  0  0  0  0  0  0  0
   36.4900   26.8000   32.1500 H   0  0  0  0  0  0  0  0  0  0  0  0
   38.7560   24.1500   36.1450 C   0  0  0  0  0  0  0  0  0  0  0  0
   39.9740   23.9290   36.0030 O   0  0  0  0  0  0  0  0  0  0  0  0
   37.9870   23.7630   37.3490 C   0  0  0  0  0  3  0  0  0  0  0  0
   38.7000   23.3090   38.5770 C   0  0  0  0  0  2  0  0  0  0  0  0
   37.9480   24.6290   38.5460 C   0  0  0  0  0  2  0  0  0  0  0  0
  1  7  1  0  0  0  0
  2  1  1  0  0  0  0
  2 10  1  0  0  0  0
  3  2  2  0  0  0  0
  4  5  2  0  0  0  0
  4  3  1  0  0  0  0
  5  6  1  0  0  0  0
  6  1  2  0  0  0  0
  8  3  1  0  0  0  0
  9  5  1  0  0  0  0
 10 12  1  0  0  0  0
 11 10  2  0  0  0  0
 12 14  1  0  0  0  0
 12 13  1  0  0  0  0
 14 13  1  0  0  0  0
M  END
>  <minimizedAffinity>
-3.40035176

$$$$

 OpenBabel03262522093D

 14 15  0  0  0  0  0  0  0  0999 V2000
   37.4200   24.1900   32.8120 C   0  0  0  0  0  0  0  0  0  0  0  0
   37.0270   25.5410   32.5810 C   0  0  0  0  0  0  0  0  0  0  0  0
   36.0250   25.7920   31.6290 C   0  0  0  0  0  0  0  0  0  0  0  0
   35.4920   24.7320   30.9860 N   0  0  0  0  0  0  0  0  0  0  0  0
   35.8830   23.4720   31.2250 C   0  0  0  0  0  0  0  0  0  0  0  0
   36.8280   23.1880   32.1190 N   0  0  0  0  0  0  0  0  0  0  0  0
   38.2000   24.0420   33.5580 H   0  0  0  0  0  0  0  0  0  0  0  0
   35.7570   26.8310   31.4850 H   0  0  0  0  0  0  0  0  0  0  0  0
   35.3990   22.6660   30.6610 H   0  0  0  0  0  0  0  0  0  0  0  0
   37.7070   26.5980   33.3670 C   0  0  0  0  0  0  0  0  0  0  0  0
   37.7040   27.7170   32.8160 O   0  0  0  0  0  0  0  0  0  0  0  0
   38.3290   26.3350   34.6830 C   0  0  0  0  0  3  0  0  0  0  0  0
   39.6800   26.8830   34.9950 C   0  0  0  0  0  2  0  0  0  0  0  0
   38.4400   27.3970   35.7060 C   0  0  0  0  0  2  0  0  0  0  0  0
  1  7  1  0  0  0  0
  2  1  1  0  0  0  0
  2 10  1  0  0  0  0
  3  2  2  0  0  0  0
  4  5  2  0  0  0  0
  4  3  1  0  0  0  0
  5  6  1  0  0  0  0
  6  1  2  0  0  0  0
  8  3  1  0  0  0  0
  9  5  1  0  0  0  0
 10 12  1  0  0  0  0
 11 10  2  0  0  0  0
 12 13  1  0  0  0  0
 12 14  1  0  0  0  0
 13 14  1  0  0  0  0
M  END
>  <minimizedAffinity>
-3.28407693

$$$$

 OpenBabel03262522093D

 14 15  0  0  0  0  0  0  0  0999 V2000
   38.5590   26.6310   35.9860 C   0  0  0  0  0  0  0  0  0  0  0  0
   38.5730   25.4080   35.2550 C   0  0  0  0  0  0  0  0  0  0  0  0
   37.8010   25.3210   34.0840 C   0  0  0  0  0  0  0  0  0  0  0  0
   37.0890   26.4080   33.7210 N   0  0  0  0  0  0  0  0  0  0  0  0
   37.0970   27.5460   34.4310 C   0  0  0  0  0  0  0  0  0  0  0  0
   37.8140   27.6730   35.5450 N   0  0  0  0  0  0  0  0  0  0  0  0
   39.1720   26.6540   36.8880 H   0  0  0  0  0  0  0  0  0  0  0  0
   37.8400   24.3750   33.5600 H   0  0  0  0  0  0  0  0  0  0  0  0
   36.4910   28.3840   34.0670 H   0  0  0  0  0  0  0  0  0  0  0  0
   39.4060   24.3010   35.7820 C   0  0  0  0  0  0  0  0  0  0  0  0
   40.5950   24.3400   35.4070 O   0  0  0  0  0  0  0  0  0  0  0  0
   38.8630   23.2510   36.6720 C   0  0  0  0  0  3  0  0  0  0  0  0
   38.6080   23.5480   38.1110 C   0  0  0  0  0  2  0  0  0  0  0  0
   37.4630   23.2950   37.1450 C   0  0  0  0  0  2  0  0  0  0  0  0
  1  7  1  0  0  0  0
  2 10  1  0  0  0  0
  2  1  2  0  0  0  0
  3  2  1  0  0  0  0
  4  3  2  0  0  0  0
  4  5  1  0  0  0  0
  5  6  2  0  0  0  0
  6  1  1  0  0  0  0
  8  3  1  0  0  0  0
  9  5  1  0  0  0  0
 10 12  1  0  0  0  0
 11 10  2  0  0  0  0
 12 14  1  0  0  0  0
 12 13  1  0  0  0  0
 14 13  1  0  0  0  0
M  END
>  <minimizedAffinity>
-3.27459359

$$$$

 OpenBabel03262522093D

 14 15  0  0  0  0  0  0  0  0999 V2000
   38.0870   23.2560   33.9000 C   0  0  0  0  0  0  0  0  0  0  0  0
   38.3220   24.2370   34.9060 C   0  0  0  0  0  0  0  0  0  0  0  0
   37.9160   25.5590   34.6570 C   0  0  0  0  0  0  0  0  0  0  0  0
   37.3240   25.8210   33.4730 N   0  0  0  0  0  0  0  0  0  0  0  0
   37.1160   24.8740   32.5460 C   0  0  0  0  0  0  0  0  0  0  0  0
   37.4840   23.6100   32.7390 N   0  0  0  0  0  0  0  0  0  0  0  0
   38.4180   22.2440   34.1350 H   0  0  0  0  0  0  0  0  0  0  0  0
   38.1130   26.2720   35.4470 H   0  0  0  0  0  0  0  0  0  0  0  0
   36.6280   25.1690   31.6090 H   0  0  0  0  0  0  0  0  0  0  0  0
   38.9850   23.7950   36.1560 C   0  0  0  0  0  0  0  0  0  0  0  0
   40.2290   23.7520   36.0800 O   0  0  0  0  0  0  0  0  0  0  0  0
   38.2260   23.4410   37.3760 C   0  0  0  0  0  3  0  0  0  0  0  0
   38.9250   23.3400   38.6890 C   0  0  0  0  0  2  0  0  0  0  0  0
   37.9250   24.4500   38.4130 C   0  0  0  0  0  2  0  0  0  0  0  0
  1  7  1  0  0  0  0
  1  2  1  0  0  0  0
  2 10  1  0  0  0  0
  3  2  2  0  0  0  0
  3  8  1  0  0  0  0
  4  3  1  0  0  0  0
  5  6  1  0  0  0  0
  5  4  2  0  0  0  0
  6  1  2  0  0  0  0
  9  5  1  0  0  0  0
 10 12  1  0  0  0  0
 11 10  2  0  0  0  0
 12 14  1  0  0  0  0
 12 13  1  0  0  0  0
 14 13  1  0  0  0  0
M  END
>  <minimizedAffinity>
-3.25314999

$$$$

 OpenBabel03262522093D

 14 15  0  0  0  0  0  0  0  0999 V2000
   36.4000   28.2530   34.1480 C   0  0  0  0  0  0  0  0  0  0  0  0
   35.8430   29.5010   33.7450 C   0  0  0  0  0  0  0  0  0  0  0  0
   35.9710   29.8870   32.4000 C   0  0  0  0  0  0  0  0  0  0  0  0
   36.6180   29.0460   31.5660 N   0  0  0  0  0  0  0  0  0  0  0  0
   37.1320   27.8770   31.9760 C   0  0  0  0  0  0  0  0  0  0  0  0
   37.0340   27.4730   33.2400 N   0  0  0  0  0  0  0  0  0  0  0  0
   36.2790   27.9950   35.2000 H   0  0  0  0  0  0  0  0  0  0  0  0
   35.5330   30.8410   32.1360 H   0  0  0  0  0  0  0  0  0  0  0  0
   37.6420   27.2500   31.2360 H   0  0  0  0  0  0  0  0  0  0  0  0
   35.1610   30.3160   34.7790 C   0  0  0  0  0  0  0  0  0  0  0  0
   33.9170   30.2420   34.7410 O   0  0  0  0  0  0  0  0  0  0  0  0
   35.9030   31.1390   35.7600 C   0  0  0  0  0  3  0  0  0  0  0  0
   36.1280   32.5900   35.5030 C   0  0  0  0  0  2  0  0  0  0  0  0
   35.2100   32.1210   36.6190 C   0  0  0  0  0  2  0  0  0  0  0  0
  1  7  1  0  0  0  0
  2  1  1  0  0  0  0
  2 10  1  0  0  0  0
  3  2  2  0  0  0  0
  4  5  2  0  0  0  0
  4  3  1  0  0  0  0
  5  6  1  0  0  0  0
  6  1  2  0  0  0  0
  8  3  1  0  0  0  0
  9  5  1  0  0  0  0
 10 12  1  0  0  0  0
 11 10  2  0  0  0  0
 12 14  1  0  0  0  0
 13 12  1  0  0  0  0
 13 14  1  0  0  0  0
M  END
>  <minimizedAffinity>
-3.22160816

$$$$

 OpenBabel03262522093D

 14 15  0  0  0  0  0  0  0  0999 V2000
   36.9520   20.9450   30.7720 C   0  0  0  0  0  0  0  0  0  0  0  0
   36.1540   21.9650   31.3640 C   0  0  0  0  0  0  0  0  0  0  0  0
   35.0430   21.5810   32.1350 C   0  0  0  0  0  0  0  0  0  0  0  0
   34.7990   20.2610   32.2680 N   0  0  0  0  0  0  0  0  0  0  0  0
   35.5700   19.3240   31.6970 C   0  0  0  0  0  0  0  0  0  0  0  0
   36.6310   19.6420   30.9600 N   0  0  0  0  0  0  0  0  0  0  0  0
   37.8030   21.2880   30.1820 H   0  0  0  0  0  0  0  0  0  0  0  0
   34.4640   22.3880   32.5660 H   0  0  0  0  0  0  0  0  0  0  0  0
   35.3040   18.2720   31.8540 H   0  0  0  0  0  0  0  0  0  0  0  0
   36.5500   23.3740   31.1260 C   0  0  0  0  0  0  0  0  0  0  0  0
   37.6020   23.4980   30.4690 O   0  0  0  0  0  0  0  0  0  0  0  0
   35.7580   24.5180   31.6280 C   0  0  0  0  0  3  0  0  0  0  0  0
   36.0810   25.9040   31.1850 C   0  0  0  0  0  2  0  0  0  0  0  0
   34.7910   25.2230   30.7610 C   0  0  0  0  0  2  0  0  0  0  0  0
  1  6  2  0  0  0  0
  1  2  1  0  0  0  0
  2  3  2  0  0  0  0
  3  4  1  0  0  0  0
  3  8  1  0  0  0  0
  5  9  1  0  0  0  0
  5  4  2  0  0  0  0
  6  5  1  0  0  0  0
  7  1  1  0  0  0  0
 10  2  1  0  0  0  0
 10 12  1  0  0  0  0
 11 10  2  0  0  0  0
 13 12  1  0  0  0  0
 14 13  1  0  0  0  0
 14 12  1  0  0  0  0
M  END
>  <minimizedAffinity>
-3.188308

$$$$
