
 OpenBabel03272510313D

 26 28  0  0  0  0  0  0  0  0999 V2000
   37.4080   31.1420   49.4130 C   0  0  0  0  0  0  0  0  0  0  0  0
   38.3750   32.1310   49.4530 C   0  0  0  0  0  0  0  0  0  0  0  0
   38.7570   32.6140   48.2120 C   0  0  0  0  0  0  0  0  0  0  0  0
   38.2040   32.1280   47.0690 N   0  0  0  0  0  0  0  0  0  0  0  0
   37.2620   31.1630   47.0750 C   0  0  0  0  0  0  0  0  0  0  0  0
   36.8590   30.6590   48.2810 N   0  0  0  0  0  0  0  0  0  0  0  0
   38.7620   32.4600   50.4060 H   0  0  0  0  0  0  0  0  0  0  0  0
   39.5140   33.3920   48.1920 H   0  0  0  0  0  0  0  0  0  0  0  0
   36.9220   30.5910   50.7310 C   0  0  0  0  0  0  0  0  0  0  0  0
   36.0090   29.5030   50.8260 C   0  0  0  0  0  0  0  0  0  0  0  0
   37.4860   29.1780   51.0030 C   0  0  0  0  0  0  0  0  0  0  0  0
   37.0680   31.3000   51.5880 H   0  0  0  0  0  0  0  0  0  0  0  0
   35.4190   29.3660   51.7390 H   0  0  0  0  0  0  0  0  0  0  0  0
   35.5760   29.0190   49.9160 H   0  0  0  0  0  0  0  0  0  0  0  0
   37.8620   29.0210   52.0140 H   0  0  0  0  0  0  0  0  0  0  0  0
   38.0190   28.6690   50.2010 H   0  0  0  0  0  0  0  0  0  0  0  0
   36.6510   30.6400   45.8610 C   0  0  0  0  0  0  0  0  0  0  0  0
   36.0010   31.3580   45.3500 H   0  0  0  0  0  0  0  0  0  0  0  0
   36.1100   29.7040   46.0580 H   0  0  0  0  0  0  0  0  0  0  0  0
   37.9460   31.0380   43.7610 C   0  0  0  0  0  0  0  0  0  0  0  0
   37.2130   32.0170   43.3840 O   0  0  0  0  0  0  0  0  0  0  0  0
   37.7310   30.2970   44.9500 N   0  0  0  0  0  0  0  0  0  0  0  0
   38.3440   29.4870   45.2010 H   0  0  0  0  0  0  0  0  0  0  0  0
   39.0800   30.6930   42.8640 C   0  0  0  0  0  3  0  0  0  0  0  0
   39.8800   31.7770   42.2090 C   0  0  0  0  0  2  0  0  0  0  0  0
   40.4870   30.9900   43.3080 C   0  0  0  0  0  2  0  0  0  0  0  0
  1  2  1  0  0  0  0
  1  9  1  0  0  0  0
  2  7  1  0  0  0  0
  3  2  2  0  0  0  0
  4  5  2  0  0  0  0
  4  3  1  0  0  0  0
  5  6  1  0  0  0  0
  6  1  2  0  0  0  0
  8  3  1  0  0  0  0
  9 10  1  0  0  0  0
  9 11  1  0  0  0  0
  9 12  1  0  0  0  0
 10 11  1  0  0  0  0
 10 13  1  0  0  0  0
 11 15  1  0  0  0  0
 14 10  1  0  0  0  0
 16 11  1  0  0  0  0
 17 19  1  0  0  0  0
 17  5  1  0  0  0  0
 18 17  1  0  0  0  0
 20 22  1  0  0  0  0
 21 20  2  0  0  0  0
 22 23  1  0  0  0  0
 22 17  1  0  0  0  0
 24 26  1  0  0  0  0
 24 20  1  0  0  0  0
 25 24  1  0  0  0  0
 25 26  1  0  0  0  0
M  END
>  <minimizedAffinity>
-4.64459991

>  <minimizedRMSD>
2.53300047

$$$$
