
 OpenBabel03272509433D

 32 34  0  0  1  0  0  0  0  0999 V2000
   37.0240   30.9200   49.0370 C   0  0  0  0  0  0  0  0  0  0  0  0
   36.7380   31.7980   50.0840 C   0  0  0  0  0  0  0  0  0  0  0  0
   37.3260   33.0510   50.1710 C   0  0  0  0  0  0  0  0  0  0  0  0
   38.2320   33.4520   49.1850 C   0  0  0  0  0  0  0  0  0  0  0  0
   38.5020   32.5830   48.1670 C   0  0  0  0  0  0  0  0  0  0  0  0
   37.8950   31.3370   48.1130 C   0  0  0  0  0  0  0  0  0  0  0  0
   36.0260   31.4540   50.8400 H   0  0  0  0  0  0  0  0  0  0  0  0
   37.0210   33.6300   51.0280 H   0  0  0  0  0  0  0  0  0  0  0  0
   38.6360   34.4330   49.3330 H   0  0  0  0  0  0  0  0  0  0  0  0
   39.2230   33.0350   47.4840 H   0  0  0  0  0  0  0  0  0  0  0  0
   36.4340   29.6000   48.9690 C   0  0  2  0  0  0  0  0  0  0  0  0
   36.9620   29.0810   48.0810 H   0  0  0  0  0  0  0  0  0  0  0  0
   33.5760   30.1050   46.7820 C   0  0  0  0  0  0  0  0  0  0  0  0
   32.8900   28.9070   46.8460 C   0  0  0  0  0  0  0  0  0  0  0  0
   33.3690   27.9260   47.6930 C   0  0  0  0  0  0  0  0  0  0  0  0
   34.5030   28.1730   48.4390 N   0  0  0  0  0  0  0  0  0  0  0  0
   35.1130   29.3350   48.3320 C   0  0  0  0  0  0  0  0  0  0  0  0
   34.6570   30.3070   47.5090 N   0  0  0  0  0  0  0  0  0  0  0  0
   33.2250   30.9020   46.1240 H   0  0  0  0  0  0  0  0  0  0  0  0
   32.0160   28.8080   46.2240 H   0  0  0  0  0  0  0  0  0  0  0  0
   32.8360   26.9870   47.7490 H   0  0  0  0  0  0  0  0  0  0  0  0
   36.8750   28.8130   49.8860 O   0  0  0  0  0  0  0  0  0  0  0  0
   36.5400   28.7700   50.7970 H   0  0  0  0  0  0  0  0  0  0  0  0
   38.2960   30.5080   47.0000 C   0  0  0  0  0  3  0  0  0  0  0  0
   39.0340   30.9450   45.9750 C   0  0  0  0  0  3  0  0  0  0  0  0
   39.5340   30.1790   44.8100 C   0  0  0  0  0  0  0  0  0  0  0  0
   38.8480   29.3420   44.5280 H   0  0  0  0  0  0  0  0  0  0  0  0
   40.5310   29.7330   44.9940 H   0  0  0  0  0  0  0  0  0  0  0  0
   39.6770   31.2650   43.3870 S   0  0  0  0  0  0  0  0  0  0  0  0
   38.0230   31.5340   42.6510 C   0  0  0  0  0  3  0  0  0  0  0  0
   37.7730   32.8950   42.1230 C   0  0  0  0  0  2  0  0  0  0  0  0
   37.0730   32.4350   43.3510 C   0  0  0  0  0  2  0  0  0  0  0  0
  1  2  1  0  0  0  0
  2  3  2  0  0  0  0
  2  7  1  0  0  0  0
  3  8  1  0  0  0  0
  4  9  1  0  0  0  0
  4  3  1  0  0  0  0
  5  4  2  0  0  0  0
  6  5  1  0  0  0  0
  6  1  2  0  0  0  0
 10  5  1  0  0  0  0
 11 12  1  6  0  0  0
 11  1  1  0  0  0  0
 11 22  1  0  0  0  0
 13 14  2  0  0  0  0
 13 18  1  0  0  0  0
 14 15  1  0  0  0  0
 15 21  1  0  0  0  0
 15 16  2  0  0  0  0
 17 16  1  0  0  0  0
 17 11  1  0  0  0  0
 18 17  2  0  0  0  0
 19 13  1  0  0  0  0
 20 14  1  0  0  0  0
 22 23  1  0  0  0  0
 24  6  1  0  0  0  0
 25 24  2  0  0  0  0
 26 28  1  0  0  0  0
 26 25  1  0  0  0  0
 27 26  1  0  0  0  0
 29 26  1  0  0  0  0
 30 32  1  0  0  0  0
 30 29  1  0  0  0  0
 31 30  1  0  0  0  0
 31 32  1  0  0  0  0
M  END
>  <minimizedAffinity>
-5.33154154

>  <minimizedRMSD>
0.300536364

$$$$
