
 OpenBabel03272502293D

 17 18  0  0  0  0  0  0  0  0999 V2000
   37.2840   30.1800   51.4150 C   0  0  0  0  0  0  0  0  0  0  0  0
   38.0160   30.9000   50.4450 C   0  0  0  0  0  0  0  0  0  0  0  0
   37.7200   30.6630   49.1140 C   0  0  0  0  0  0  0  0  0  0  0  0
   36.7620   29.7730   48.8040 N   0  0  0  0  0  0  0  0  0  0  0  0
   36.0660   29.0900   49.7290 C   0  0  0  0  0  0  0  0  0  0  0  0
   36.3260   29.2910   51.0420 N   0  0  0  0  0  0  0  0  0  0  0  0
   37.5270   30.3750   52.4530 H   0  0  0  0  0  0  0  0  0  0  0  0
   38.7730   31.6010   50.7410 H   0  0  0  0  0  0  0  0  0  0  0  0
   35.3130   28.3930   49.3790 H   0  0  0  0  0  0  0  0  0  0  0  0
   38.4560   31.3840   48.1300 C   0  0  0  0  0  0  0  0  0  0  0  0
   38.8720   32.6100   48.2570 C   0  0  0  0  0  0  0  0  0  0  0  0
   39.6420   33.3380   47.2150 C   0  0  0  0  0  0  0  0  0  0  0  0
   40.7100   33.4920   47.5420 H   0  0  0  0  0  0  0  0  0  0  0  0
   39.2560   34.3810   47.1080 H   0  0  0  0  0  0  0  0  0  0  0  0
   39.5980   32.6630   45.8830 C   0  0  0  0  0  0  0  0  0  0  0  0
   40.9020   32.3780   45.1740 C   0  0  0  0  0  0  0  0  0  0  0  0
   39.9870   33.4480   44.7060 C   0  0  0  0  0  0  0  0  0  0  0  0
  1  7  1  0  0  0  0
  2  8  1  0  0  0  0
  2  1  2  0  0  0  0
  3  2  1  0  0  0  0
  4  3  2  0  0  0  0
  4  5  1  0  0  0  0
  5  6  2  0  0  0  0
  6  1  1  0  0  0  0
  9  5  1  0  0  0  0
 10 11  2  0  0  0  0
 10  3  1  0  0  0  0
 12 13  1  0  0  0  0
 12 11  1  0  0  0  0
 14 12  1  0  0  0  0
 15 12  1  0  0  0  0
 16 15  1  0  0  0  0
 17 16  1  0  0  0  0
 17 15  1  0  0  0  0
M  END
>  <minimizedAffinity>
-4.73020315

>  <minimizedRMSD>
1.1836983

$$$$
