
 OpenBabel03272509573D

 40 43  0  0  0  0  0  0  0  0999 V2000
   34.9790   28.3620   49.4150 O   0  0  0  0  0  0  0  0  0  0  0  0
   37.3170   30.1660   51.5060 C   0  0  0  0  0  0  0  0  0  0  0  0
   38.0520   30.8510   50.5100 C   0  0  0  0  0  0  0  0  0  0  0  0
   37.6980   30.6500   49.1860 C   0  0  0  0  0  0  0  0  0  0  0  0
   36.6510   29.7910   48.9620 N   0  0  0  0  0  0  0  0  0  0  0  0
   35.9730   29.1560   49.9130 C   0  0  0  0  0  0  0  0  0  0  0  0
   36.3190   29.3530   51.2030 N   0  0  0  0  0  0  0  0  0  0  0  0
   37.6120   30.3410   52.5340 H   0  0  0  0  0  0  0  0  0  0  0  0
   38.8720   31.5230   50.7000 H   0  0  0  0  0  0  0  0  0  0  0  0
   38.9320   33.2640   49.0110 F   0  0  0  0  0  0  0  0  0  0  0  0
   38.9130   32.4820   47.9490 C   0  0  0  0  0  0  0  0  0  0  0  0
   38.3330   31.2610   48.0400 C   0  0  0  0  0  0  0  0  0  0  0  0
   38.3630   30.5150   46.8650 C   0  0  0  0  0  0  0  0  0  0  0  0
   38.9420   30.9930   45.7100 C   0  0  0  0  0  0  0  0  0  0  0  0
   39.5170   32.2360   45.6630 C   0  0  0  0  0  0  0  0  0  0  0  0
   39.4970   32.9820   46.8020 C   0  0  0  0  0  0  0  0  0  0  0  0
   37.9400   29.5220   46.7890 H   0  0  0  0  0  0  0  0  0  0  0  0
   38.9590   30.4010   44.8010 H   0  0  0  0  0  0  0  0  0  0  0  0
   39.9810   32.6390   44.7620 H   0  0  0  0  0  0  0  0  0  0  0  0
   39.9470   33.9610   46.7750 H   0  0  0  0  0  0  0  0  0  0  0  0
   34.4130   28.6740   48.1540 C   0  0  0  0  0  0  0  0  0  0  0  0
   33.7940   29.5730   48.2650 H   0  0  0  0  0  0  0  0  0  0  0  0
   35.2500   28.7870   47.4210 H   0  0  0  0  0  0  0  0  0  0  0  0
   33.5440   27.5510   47.6600 C   0  0  0  0  0  0  0  0  0  0  0  0
   33.7740   27.2760   46.6010 H   0  0  0  0  0  0  0  0  0  0  0  0
   33.7450   26.6490   48.2460 H   0  0  0  0  0  0  0  0  0  0  0  0
   32.0900   27.8930   47.7530 C   0  0  0  0  0  0  0  0  0  0  0  0
   31.4040   27.4710   48.8740 C   0  0  0  0  0  0  0  0  0  0  0  0
   30.0720   27.7310   49.0590 C   0  0  0  0  0  0  0  0  0  0  0  0
   29.4130   28.4110   48.1330 N   0  0  0  0  0  0  0  0  0  0  0  0
   30.0900   28.8250   47.0320 C   0  0  0  0  0  0  0  0  0  0  0  0
   31.4000   28.5800   46.8290 N   0  0  0  0  0  0  0  0  0  0  0  0
   31.9330   26.9140   49.6380 H   0  0  0  0  0  0  0  0  0  0  0  0
   29.5940   27.3620   49.9780 H   0  0  0  0  0  0  0  0  0  0  0  0
   29.3310   29.5950   45.9880 C   0  0  0  0  0  0  0  0  0  0  0  0
   28.6310   30.3110   46.4870 H   0  0  0  0  0  0  0  0  0  0  0  0
   28.7310   28.8900   45.3560 H   0  0  0  0  0  0  0  0  0  0  0  0
   30.2440   30.3510   45.0790 C   0  0  0  0  0  3  0  0  0  0  0  0
   29.7340   30.4030   43.6240 C   0  0  0  0  0  2  0  0  0  0  0  0
   29.8920   31.6340   44.4570 C   0  0  0  0  0  2  0  0  0  0  0  0
  1  6  1  0  0  0  0
  2  8  1  0  0  0  0
  3  9  1  0  0  0  0
  3  2  2  0  0  0  0
  4  3  1  0  0  0  0
  5  4  2  0  0  0  0
  5  6  1  0  0  0  0
  6  7  2  0  0  0  0
  7  2  1  0  0  0  0
 11 12  1  0  0  0  0
 11 10  1  0  0  0  0
 12  4  1  0  0  0  0
 13 12  2  0  0  0  0
 14 13  1  0  0  0  0
 15 14  2  0  0  0  0
 15 16  1  0  0  0  0
 16 11  2  0  0  0  0
 17 13  1  0  0  0  0
 18 14  1  0  0  0  0
 19 15  1  0  0  0  0
 20 16  1  0  0  0  0
 21 22  1  0  0  0  0
 21  1  1  0  0  0  0
 23 21  1  0  0  0  0
 24 27  1  0  0  0  0
 24 21  1  0  0  0  0
 24 26  1  0  0  0  0
 25 24  1  0  0  0  0
 27 28  1  0  0  0  0
 28 29  2  0  0  0  0
 28 33  1  0  0  0  0
 29 34  1  0  0  0  0
 30 29  1  0  0  0  0
 31 30  2  0  0  0  0
 32 31  1  0  0  0  0
 32 27  2  0  0  0  0
 35 36  1  0  0  0  0
 35 31  1  0  0  0  0
 37 35  1  0  0  0  0
 38 35  1  0  0  0  0
 39 40  1  0  0  0  0
 39 38  1  0  0  0  0
 40 38  1  0  0  0  0
M  END
>  <minimizedAffinity>
-6.11267328

>  <minimizedRMSD>
0.390283942

$$$$
