
 OpenBabel03272510303D

 22 24  0  0  0  0  0  0  0  0999 V2000
   37.3670   31.3610   49.2200 C   0  0  0  0  0  0  0  0  0  0  0  0
   37.7020   32.6640   49.5930 C   0  0  0  0  0  0  0  0  0  0  0  0
   38.5720   33.3260   48.7550 C   0  0  0  0  0  0  0  0  0  0  0  0
   39.0500   32.6990   47.6330 N   0  0  0  0  0  0  0  0  0  0  0  0
   38.6890   31.4180   47.3110 C   0  0  0  0  0  0  0  0  0  0  0  0
   37.8250   30.7350   48.1300 N   0  0  0  0  0  0  0  0  0  0  0  0
   37.3010   33.1190   50.4880 H   0  0  0  0  0  0  0  0  0  0  0  0
   38.8910   34.3400   48.9610 H   0  0  0  0  0  0  0  0  0  0  0  0
   36.3920   30.6200   50.0990 C   0  0  0  0  0  0  0  0  0  0  0  0
   36.2780   29.1850   50.1130 C   0  0  0  0  0  0  0  0  0  0  0  0
   37.0870   29.8340   51.2230 C   0  0  0  0  0  0  0  0  0  0  0  0
   35.5370   31.2680   50.4590 H   0  0  0  0  0  0  0  0  0  0  0  0
   35.2870   28.7540   50.3780 H   0  0  0  0  0  0  0  0  0  0  0  0
   36.8570   28.5420   49.4210 H   0  0  0  0  0  0  0  0  0  0  0  0
   36.6110   29.8620   52.2310 H   0  0  0  0  0  0  0  0  0  0  0  0
   38.1800   29.7720   51.2270 H   0  0  0  0  0  0  0  0  0  0  0  0
   39.1760   30.7270   46.1090 C   0  0  0  0  0  0  0  0  0  0  0  0
   40.2520   30.9170   45.9240 H   0  0  0  0  0  0  0  0  0  0  0  0
   39.0840   29.6310   46.2580 H   0  0  0  0  0  0  0  0  0  0  0  0
   38.3350   31.0930   44.9080 C   0  0  0  0  0  3  0  0  0  0  0  0
   38.3320   30.2700   43.6870 C   0  0  0  0  0  2  0  0  0  0  0  0
   37.0980   30.3580   44.6060 C   0  0  0  0  0  2  0  0  0  0  0  0
  1  2  1  0  0  0  0
  1  9  1  0  0  0  0
  2  7  1  0  0  0  0
  3  8  1  0  0  0  0
  3  2  2  0  0  0  0
  4  3  1  0  0  0  0
  5  4  2  0  0  0  0
  5  6  1  0  0  0  0
  6  1  2  0  0  0  0
  9 10  1  0  0  0  0
  9 12  1  0  0  0  0
  9 11  1  0  0  0  0
 10 13  1  0  0  0  0
 10 11  1  0  0  0  0
 11 16  1  0  0  0  0
 11 15  1  0  0  0  0
 14 10  1  0  0  0  0
 17 19  1  0  0  0  0
 17  5  1  0  0  0  0
 18 17  1  0  0  0  0
 20 17  1  0  0  0  0
 21 22  1  0  0  0  0
 21 20  1  0  0  0  0
 22 20  1  0  0  0  0
M  END
>  <minimizedAffinity>
-4.60143423

>  <minimizedRMSD>
0.0753908455

$$$$
