
 OpenBabel03272501013D

 28 30  0  0  0  0  0  0  0  0999 V2000
   37.8210   30.0380   47.8930 F   0  0  0  0  0  0  0  0  0  0  0  0
   36.9070   30.1290   46.8990 C   0  0  0  0  0  0  0  0  0  0  0  0
   37.1470   30.7660   45.6880 C   0  0  0  0  0  0  0  0  0  0  0  0
   36.1660   30.8060   44.7480 C   0  0  0  0  0  0  0  0  0  0  0  0
   34.9150   30.2380   44.9270 C   0  0  0  0  0  0  0  0  0  0  0  0
   34.6850   29.6020   46.1450 C   0  0  0  0  0  0  0  0  0  0  0  0
   35.6660   29.5440   47.1240 C   0  0  0  0  0  0  0  0  0  0  0  0
   36.4400   31.3200   43.8410 H   0  0  0  0  0  0  0  0  0  0  0  0
   34.1620   30.2940   44.1480 H   0  0  0  0  0  0  0  0  0  0  0  0
   33.7020   29.1540   46.2900 H   0  0  0  0  0  0  0  0  0  0  0  0
   39.6600   33.3200   44.9250 C   0  0  0  0  0  0  0  0  0  0  0  0
   40.8790   32.6550   45.0640 C   0  0  0  0  0  0  0  0  0  0  0  0
   40.8300   31.3020   45.4270 C   0  0  0  0  0  0  0  0  0  0  0  0
   39.6350   30.6870   45.6300 N   0  0  0  0  0  0  0  0  0  0  0  0
   38.4690   31.3730   45.4840 C   0  0  0  0  0  0  0  0  0  0  0  0
   38.4960   32.6920   45.1290 N   0  0  0  0  0  0  0  0  0  0  0  0
   39.7050   34.3680   44.6420 H   0  0  0  0  0  0  0  0  0  0  0  0
   41.8470   33.0930   44.9150 H   0  0  0  0  0  0  0  0  0  0  0  0
   41.7010   30.6630   45.5710 H   0  0  0  0  0  0  0  0  0  0  0  0
   35.4070   28.9170   48.2950 O   0  0  0  0  0  0  0  0  0  0  0  0
   33.2540   28.5880   49.6880 O   0  0  0  0  0  0  0  0  0  0  0  0
   34.5140   29.4470   49.5980 P   0  0  2  0  0  0  0  0  0  0  0  0
   33.9910   31.0430   49.5120 O   0  0  0  0  0  0  0  0  0  0  0  0
   33.7110   31.2820   48.6150 H   0  0  0  0  0  0  0  0  0  0  0  0
   35.3460   29.1960   51.0730 O   0  0  0  0  0  0  0  0  0  0  0  0
   36.7100   29.3330   50.9130 C   0  0  0  0  0  0  0  0  0  0  0  0
   37.4220   29.8560   52.1790 C   0  0  0  0  0  0  0  0  0  0  0  0
   37.3750   30.6490   50.9150 C   0  0  0  0  0  0  0  0  0  0  0  0
  2  7  1  0  0  0  0
  2  1  1  0  0  0  0
  3  2  2  0  0  0  0
  4  5  2  0  0  0  0
  4  3  1  0  0  0  0
  5  6  1  0  0  0  0
  6 10  1  0  0  0  0
  6  7  2  0  0  0  0
  7 20  1  0  0  0  0
  8  4  1  0  0  0  0
  9  5  1  0  0  0  0
 11 12  2  0  0  0  0
 11 16  1  0  0  0  0
 12 13  1  0  0  0  0
 13 19  1  0  0  0  0
 13 14  2  0  0  0  0
 15 14  1  0  0  0  0
 15  3  1  0  0  0  0
 16 15  2  0  0  0  0
 17 11  1  0  0  0  0
 18 12  1  0  0  0  0
 20 22  1  0  0  0  0
 22 21  2  1  0  0  0
 22 25  1  0  0  0  0
 23 22  1  0  0  0  0
 24 23  1  0  0  0  0
 26 28  1  0  0  0  0
 26 25  1  0  0  0  0
 26 27  1  0  0  0  0
 28 27  1  0  0  0  0
M  END
>  <minimizedAffinity>
-5.1915946

>  <minimizedRMSD>
1.97601151

$$$$
