
 OpenBabel03272508573D

 34 37  0  0  1  0  0  0  0  0999 V2000
   38.3950   31.8610   44.5370 C   0  0  0  0  0  0  0  0  0  0  0  0
   37.2870   32.4440   44.4160 O   0  0  0  0  0  0  0  0  0  0  0  0
   38.9440   31.5660   45.8350 N   0  0  0  0  0  0  0  0  0  0  0  0
   39.9300   31.2660   45.9970 H   0  0  0  0  0  0  0  0  0  0  0  0
   39.1630   31.4630   43.3500 C   0  0  0  0  0  0  0  0  0  0  0  0
   40.2230   30.6130   43.5060 C   0  0  0  0  0  0  0  0  0  0  0  0
   40.9420   30.2130   42.3940 C   0  0  0  0  0  0  0  0  0  0  0  0
   40.5420   30.7000   41.1870 C   0  0  0  0  0  0  0  0  0  0  0  0
   39.4730   31.5630   40.9990 C   0  0  0  0  0  0  0  0  0  0  0  0
   38.8110   31.9160   42.1280 N   0  0  0  0  0  0  0  0  0  0  0  0
   40.5610   30.2110   44.4700 H   0  0  0  0  0  0  0  0  0  0  0  0
   41.7880   29.5500   42.4240 H   0  0  0  0  0  0  0  0  0  0  0  0
   41.0730   30.4170   40.2780 H   0  0  0  0  0  0  0  0  0  0  0  0
   39.1120   32.0600   39.6670 C   0  0  0  0  0  0  0  0  0  0  0  0
   39.1050   33.3250   39.5020 O   0  0  0  0  0  0  0  0  0  0  0  0
   38.7870   31.0210   38.6400 C   0  0  0  0  0  3  0  0  0  0  0  0
   37.3300   31.1310   38.1460 C   0  0  0  0  0  2  0  0  0  0  0  0
   37.7520   29.9880   38.9670 C   0  0  0  0  0  2  0  0  0  0  0  0
   38.4220   31.1030   48.2220 C   0  0  2  0  0  0  0  0  0  0  0  0
   38.6810   32.5570   48.1160 C   0  0  0  0  0  0  0  0  0  0  0  0
   38.0660   31.6990   46.9750 C   0  0  1  0  0  0  0  0  0  0  0  0
   39.3630   30.5010   48.3150 H   0  0  0  0  0  0  0  0  0  0  0  0
   37.9710   33.2270   48.6530 H   0  0  0  0  0  0  0  0  0  0  0  0
   39.7000   32.9260   47.9820 H   0  0  0  0  0  0  0  0  0  0  0  0
   36.9870   31.9610   46.7640 H   0  0  0  0  0  0  0  0  0  0  0  0
   35.0730   30.2110   49.5200 C   0  0  0  0  0  0  0  0  0  0  0  0
   35.3990   29.5600   50.7450 C   0  0  0  0  0  0  0  0  0  0  0  0
   36.7940   29.4480   51.1150 C   0  0  0  0  0  0  0  0  0  0  0  0
   37.7460   29.9670   50.2760 N   0  0  0  0  0  0  0  0  0  0  0  0
   37.3500   30.5740   49.1220 C   0  0  0  0  0  0  0  0  0  0  0  0
   36.0300   30.7150   48.7120 N   0  0  0  0  0  0  0  0  0  0  0  0
   34.0180   30.2670   49.2930 H   0  0  0  0  0  0  0  0  0  0  0  0
   34.6270   29.1740   51.3600 H   0  0  0  0  0  0  0  0  0  0  0  0
   37.0300   28.9570   52.0380 H   0  0  0  0  0  0  0  0  0  0  0  0
  1  3  1  0  0  0  0
  2  1  2  0  0  0  0
  3  4  1  0  0  0  0
  3 21  1  0  0  0  0
  5  6  1  0  0  0  0
  5  1  1  0  0  0  0
  6 11  1  0  0  0  0
  7 12  1  0  0  0  0
  7  6  2  0  0  0  0
  8  7  1  0  0  0  0
  9  8  2  0  0  0  0
  9 10  1  0  0  0  0
 10  5  2  0  0  0  0
 13  8  1  0  0  0  0
 14  9  1  0  0  0  0
 15 14  2  0  0  0  0
 16 18  1  0  0  0  0
 16 14  1  0  0  0  0
 17 16  1  0  0  0  0
 17 18  1  0  0  0  0
 19 22  1  6  0  0  0
 19 30  1  0  0  0  0
 20 19  1  0  0  0  0
 20 23  1  0  0  0  0
 21 25  1  6  0  0  0
 21 20  1  0  0  0  0
 21 19  1  0  0  0  0
 24 20  1  0  0  0  0
 26 27  1  0  0  0  0
 27 28  2  0  0  0  0
 27 33  1  0  0  0  0
 28 34  1  0  0  0  0
 29 28  1  0  0  0  0
 30 29  2  0  0  0  0
 31 30  1  0  0  0  0
 31 26  2  0  0  0  0
 32 26  1  0  0  0  0
M  END
>  <minimizedAffinity>
-4.8343997

>  <minimizedRMSD>
0.358381897

$$$$
