
 OpenBabel03272506363D

 17 18  0  0  0  0  0  0  0  0999 V2000
   38.3060   26.7550   35.4340 C   0  0  0  0  0  0  0  0  0  0  0  0
   39.5900   26.8340   34.8490 C   0  0  0  0  0  0  0  0  0  0  0  0
   40.4270   25.7190   34.8860 C   0  0  0  0  0  0  0  0  0  0  0  0
   39.9580   24.5940   35.4950 N   0  0  0  0  0  0  0  0  0  0  0  0
   38.7160   24.5520   36.0480 C   0  0  0  0  0  0  0  0  0  0  0  0
   37.9030   25.6210   36.0180 N   0  0  0  0  0  0  0  0  0  0  0  0
   37.9480   23.5420   38.0640 C   0  0  0  0  0  0  0  0  0  0  0  0
   38.0290   24.6100   38.7550 O   0  0  0  0  0  0  0  0  0  0  0  0
   38.2580   23.3470   36.6810 N   0  0  0  0  0  0  0  0  0  0  0  0
   39.9990   27.6940   34.3610 H   0  0  0  0  0  0  0  0  0  0  0  0
   41.4140   25.7040   34.4630 H   0  0  0  0  0  0  0  0  0  0  0  0
   37.5840   22.8120   38.7800 H   0  0  0  0  0  0  0  0  0  0  0  0
   38.1140   22.3890   36.3390 H   0  0  0  0  0  0  0  0  0  0  0  0
   37.6220   27.9380   35.3060 O   0  0  0  0  0  0  0  0  0  0  0  0
   36.4100   27.9510   34.5560 C   0  0  0  0  0  3  0  0  0  0  0  0
   36.4350   28.4690   33.1530 C   0  0  0  0  0  2  0  0  0  0  0  0
   35.7910   29.2870   34.2380 C   0  0  0  0  0  2  0  0  0  0  0  0
  1  6  1  0  0  0  0
  2  3  1  0  0  0  0
  2  1  2  0  0  0  0
  3  4  2  0  0  0  0
  4  5  1  0  0  0  0
  5  9  1  0  0  0  0
  6  5  2  0  0  0  0
  7  8  2  0  0  0  0
  7 12  1  0  0  0  0
  9  7  1  0  0  0  0
 10  2  1  0  0  0  0
 11  3  1  0  0  0  0
 13  9  1  0  0  0  0
 14  1  1  0  0  0  0
 15 14  1  0  0  0  0
 16 17  1  0  0  0  0
 16 15  1  0  0  0  0
 17 15  1  0  0  0  0
M  END
>  <minimizedAffinity>
-3.98732734

$$$$

 OpenBabel03272506363D

 17 18  0  0  0  0  0  0  0  0999 V2000
   38.1320   22.2590   34.6830 C   0  0  0  0  0  0  0  0  0  0  0  0
   39.1750   22.7340   33.8560 C   0  0  0  0  0  0  0  0  0  0  0  0
   40.3690   23.1610   34.4380 C   0  0  0  0  0  0  0  0  0  0  0  0
   40.4700   23.0980   35.7960 N   0  0  0  0  0  0  0  0  0  0  0  0
   39.4460   22.6350   36.5620 C   0  0  0  0  0  0  0  0  0  0  0  0
   38.2930   22.2220   36.0110 N   0  0  0  0  0  0  0  0  0  0  0  0
   38.6190   23.3870   38.6660 C   0  0  0  0  0  0  0  0  0  0  0  0
   37.6890   24.1000   38.1650 O   0  0  0  0  0  0  0  0  0  0  0  0
   39.5920   22.5840   37.9910 N   0  0  0  0  0  0  0  0  0  0  0  0
   39.1410   22.8010   32.7890 H   0  0  0  0  0  0  0  0  0  0  0  0
   41.2030   23.5330   33.8750 H   0  0  0  0  0  0  0  0  0  0  0  0
   38.4940   23.5340   39.7330 H   0  0  0  0  0  0  0  0  0  0  0  0
   40.2490   22.0930   38.6090 H   0  0  0  0  0  0  0  0  0  0  0  0
   37.0380   21.8820   33.9450 O   0  0  0  0  0  0  0  0  0  0  0  0
   37.0950   22.0010   32.5260 C   0  0  0  0  0  3  0  0  0  0  0  0
   35.9710   22.6850   31.8150 C   0  0  0  0  0  2  0  0  0  0  0  0
   36.1190   21.1930   31.7110 C   0  0  0  0  0  2  0  0  0  0  0  0
  1  6  1  0  0  0  0
  2  3  1  0  0  0  0
  2  1  2  0  0  0  0
  3  4  2  0  0  0  0
  4  5  1  0  0  0  0
  5  9  1  0  0  0  0
  6  5  2  0  0  0  0
  7 12  1  0  0  0  0
  8  7  2  0  0  0  0
  9 13  1  0  0  0  0
  9  7  1  0  0  0  0
 10  2  1  0  0  0  0
 11  3  1  0  0  0  0
 14  1  1  0  0  0  0
 15 14  1  0  0  0  0
 16 15  1  0  0  0  0
 17 16  1  0  0  0  0
 17 15  1  0  0  0  0
M  END
>  <minimizedAffinity>
-3.87253189

$$$$

 OpenBabel03272506363D

 17 18  0  0  0  0  0  0  0  0999 V2000
   38.2520   25.5280   35.3110 C   0  0  0  0  0  0  0  0  0  0  0  0
   38.0980   26.8460   35.7990 C   0  0  0  0  0  0  0  0  0  0  0  0
   37.4270   27.7880   35.0200 C   0  0  0  0  0  0  0  0  0  0  0  0
   36.9470   27.3840   33.8100 N   0  0  0  0  0  0  0  0  0  0  0  0
   37.1130   26.1080   33.3710 C   0  0  0  0  0  0  0  0  0  0  0  0
   37.7590   25.1940   34.1140 N   0  0  0  0  0  0  0  0  0  0  0  0
   37.6170   25.2650   31.2000 C   0  0  0  0  0  0  0  0  0  0  0  0
   38.8690   25.1690   31.4130 O   0  0  0  0  0  0  0  0  0  0  0  0
   36.5920   25.7220   32.0890 N   0  0  0  0  0  0  0  0  0  0  0  0
   38.4570   27.2070   36.7400 H   0  0  0  0  0  0  0  0  0  0  0  0
   37.2710   28.8060   35.3230 H   0  0  0  0  0  0  0  0  0  0  0  0
   37.5120   24.9150   30.1800 H   0  0  0  0  0  0  0  0  0  0  0  0
   35.6440   25.7110   31.6940 H   0  0  0  0  0  0  0  0  0  0  0  0
   38.9330   24.7390   36.2040 O   0  0  0  0  0  0  0  0  0  0  0  0
   38.1890   23.9040   37.0870 C   0  0  0  0  0  3  0  0  0  0  0  0
   37.9840   24.3500   38.5000 C   0  0  0  0  0  2  0  0  0  0  0  0
   38.9320   23.2210   38.2060 C   0  0  0  0  0  2  0  0  0  0  0  0
  1  2  1  0  0  0  0
  1 14  1  0  0  0  0
  2 10  1  0  0  0  0
  3 11  1  0  0  0  0
  3  2  2  0  0  0  0
  4  3  1  0  0  0  0
  5  4  2  0  0  0  0
  5  6  1  0  0  0  0
  6  1  2  0  0  0  0
  7  8  2  0  0  0  0
  7  9  1  0  0  0  0
  9  5  1  0  0  0  0
 12  7  1  0  0  0  0
 13  9  1  0  0  0  0
 14 15  1  0  0  0  0
 15 17  1  0  0  0  0
 15 16  1  0  0  0  0
 17 16  1  0  0  0  0
M  END
>  <minimizedAffinity>
-3.85446119

$$$$

 OpenBabel03272506363D

 17 18  0  0  0  0  0  0  0  0999 V2000
   39.8620   23.1490   36.4830 C   0  0  0  0  0  0  0  0  0  0  0  0
   39.5330   22.8760   37.8300 C   0  0  0  0  0  0  0  0  0  0  0  0
   38.5330   23.6220   38.4540 C   0  0  0  0  0  0  0  0  0  0  0  0
   37.9160   24.5920   37.7220 N   0  0  0  0  0  0  0  0  0  0  0  0
   38.2580   24.8290   36.4270 C   0  0  0  0  0  0  0  0  0  0  0  0
   39.2200   24.1160   35.8180 N   0  0  0  0  0  0  0  0  0  0  0  0
   38.4810   26.8760   35.2300 C   0  0  0  0  0  0  0  0  0  0  0  0
   39.7420   26.9580   35.3940 O   0  0  0  0  0  0  0  0  0  0  0  0
   37.5840   25.8610   35.6890 N   0  0  0  0  0  0  0  0  0  0  0  0
   39.9880   22.1260   38.4420 H   0  0  0  0  0  0  0  0  0  0  0  0
   38.2290   23.4720   39.4730 H   0  0  0  0  0  0  0  0  0  0  0  0
   38.2500   27.7650   34.6530 H   0  0  0  0  0  0  0  0  0  0  0  0
   36.6000   26.0080   35.4340 H   0  0  0  0  0  0  0  0  0  0  0  0
   40.8610   22.3230   36.0330 O   0  0  0  0  0  0  0  0  0  0  0  0
   41.9190   21.9790   36.9240 C   0  0  0  0  0  3  0  0  0  0  0  0
   43.2990   21.8070   36.3720 C   0  0  0  0  0  2  0  0  0  0  0  0
   42.5160   20.6010   36.8120 C   0  0  0  0  0  2  0  0  0  0  0  0
  1  2  1  0  0  0  0
  2 10  1  0  0  0  0
  2  3  2  0  0  0  0
  3 11  1  0  0  0  0
  4  3  1  0  0  0  0
  5  4  2  0  0  0  0
  6  5  1  0  0  0  0
  6  1  2  0  0  0  0
  7  8  2  0  0  0  0
  7  9  1  0  0  0  0
  9  5  1  0  0  0  0
 12  7  1  0  0  0  0
 13  9  1  0  0  0  0
 14  1  1  0  0  0  0
 14 15  1  0  0  0  0
 16 17  1  0  0  0  0
 16 15  1  0  0  0  0
 17 15  1  0  0  0  0
M  END
>  <minimizedAffinity>
-3.8124299

$$$$

 OpenBabel03272506363D

 17 18  0  0  0  0  0  0  0  0999 V2000
   36.9470   27.3820   32.7320 C   0  0  0  0  0  0  0  0  0  0  0  0
   36.1350   28.3890   33.3020 C   0  0  0  0  0  0  0  0  0  0  0  0
   35.5790   29.3670   32.4770 C   0  0  0  0  0  0  0  0  0  0  0  0
   35.8530   29.3010   31.1430 N   0  0  0  0  0  0  0  0  0  0  0  0
   36.6400   28.3190   30.6280 C   0  0  0  0  0  0  0  0  0  0  0  0
   37.1790   27.3730   31.4150 N   0  0  0  0  0  0  0  0  0  0  0  0
   38.3010   28.3940   28.9220 C   0  0  0  0  0  0  0  0  0  0  0  0
   39.2780   28.5090   29.7320 O   0  0  0  0  0  0  0  0  0  0  0  0
   36.9050   28.2850   29.2170 N   0  0  0  0  0  0  0  0  0  0  0  0
   35.8930   28.4790   34.3400 H   0  0  0  0  0  0  0  0  0  0  0  0
   34.9530   30.1610   32.8370 H   0  0  0  0  0  0  0  0  0  0  0  0
   38.7840   28.3960   27.9510 H   0  0  0  0  0  0  0  0  0  0  0  0
   36.2970   28.2000   28.3940 H   0  0  0  0  0  0  0  0  0  0  0  0
   37.4060   26.5080   33.6860 O   0  0  0  0  0  0  0  0  0  0  0  0
   37.4260   26.9280   35.0470 C   0  0  0  0  0  3  0  0  0  0  0  0
   38.7350   27.3110   35.6640 C   0  0  0  0  0  2  0  0  0  0  0  0
   38.0760   26.0180   36.0570 C   0  0  0  0  0  2  0  0  0  0  0  0
  1  2  1  0  0  0  0
  1 14  1  0  0  0  0
  2 10  1  0  0  0  0
  3 11  1  0  0  0  0
  3  2  2  0  0  0  0
  4  3  1  0  0  0  0
  5  4  2  0  0  0  0
  5  6  1  0  0  0  0
  6  1  2  0  0  0  0
  7  9  1  0  0  0  0
  7  8  2  0  0  0  0
  9  5  1  0  0  0  0
 12  7  1  0  0  0  0
 13  9  1  0  0  0  0
 14 15  1  0  0  0  0
 15 16  1  0  0  0  0
 15 17  1  0  0  0  0
 16 17  1  0  0  0  0
M  END
>  <minimizedAffinity>
-3.80541682

$$$$

 OpenBabel03272506363D

 17 18  0  0  0  0  0  0  0  0999 V2000
   35.9020   29.3040   34.0130 C   0  0  0  0  0  0  0  0  0  0  0  0
   36.0250   29.4730   32.6150 C   0  0  0  0  0  0  0  0  0  0  0  0
   36.6180   28.4650   31.8550 C   0  0  0  0  0  0  0  0  0  0  0  0
   37.0570   27.3530   32.5090 N   0  0  0  0  0  0  0  0  0  0  0  0
   36.9230   27.2230   33.8560 C   0  0  0  0  0  0  0  0  0  0  0  0
   36.3540   28.1890   34.5970 N   0  0  0  0  0  0  0  0  0  0  0  0
   38.4080   26.3160   35.4840 C   0  0  0  0  0  0  0  0  0  0  0  0
   38.9000   27.4430   35.8170 O   0  0  0  0  0  0  0  0  0  0  0  0
   37.3990   26.0350   34.5090 N   0  0  0  0  0  0  0  0  0  0  0  0
   35.6950   30.3260   32.0610 H   0  0  0  0  0  0  0  0  0  0  0  0
   36.7450   28.5220   30.7910 H   0  0  0  0  0  0  0  0  0  0  0  0
   38.9390   25.6170   36.1200 H   0  0  0  0  0  0  0  0  0  0  0  0
   37.1600   25.0410   34.4110 H   0  0  0  0  0  0  0  0  0  0  0  0
   35.2970   30.3880   34.5990 O   0  0  0  0  0  0  0  0  0  0  0  0
   35.9540   31.0360   35.6840 C   0  0  0  0  0  3  0  0  0  0  0  0
   35.1540   31.9240   36.5840 C   0  0  0  0  0  2  0  0  0  0  0  0
   36.1270   32.5310   35.6130 C   0  0  0  0  0  2  0  0  0  0  0  0
  1  6  1  0  0  0  0
  1 14  1  0  0  0  0
  2  1  2  0  0  0  0
  3  4  2  0  0  0  0
  3  2  1  0  0  0  0
  4  5  1  0  0  0  0
  5  9  1  0  0  0  0
  5  6  2  0  0  0  0
  7  8  2  0  0  0  0
  7 12  1  0  0  0  0
  9  7  1  0  0  0  0
 10  2  1  0  0  0  0
 11  3  1  0  0  0  0
 13  9  1  0  0  0  0
 14 15  1  0  0  0  0
 15 16  1  0  0  0  0
 17 15  1  0  0  0  0
 17 16  1  0  0  0  0
M  END
>  <minimizedAffinity>
-3.77510548

$$$$

 OpenBabel03272506363D

 17 18  0  0  0  0  0  0  0  0999 V2000
   38.3660   24.4760   36.4480 C   0  0  0  0  0  0  0  0  0  0  0  0
   38.0290   24.0830   37.7640 C   0  0  0  0  0  0  0  0  0  0  0  0
   38.8680   23.2050   38.4500 C   0  0  0  0  0  0  0  0  0  0  0  0
   39.9850   22.7610   37.8050 N   0  0  0  0  0  0  0  0  0  0  0  0
   40.2780   23.1600   36.5390 C   0  0  0  0  0  0  0  0  0  0  0  0
   39.4760   24.0060   35.8710 N   0  0  0  0  0  0  0  0  0  0  0  0
   41.1740   21.9430   34.6970 C   0  0  0  0  0  0  0  0  0  0  0  0
   40.0400   21.6990   34.1700 O   0  0  0  0  0  0  0  0  0  0  0  0
   41.4650   22.6700   35.8940 N   0  0  0  0  0  0  0  0  0  0  0  0
   37.1660   24.4050   38.3070 H   0  0  0  0  0  0  0  0  0  0  0  0
   38.6780   22.8620   39.4490 H   0  0  0  0  0  0  0  0  0  0  0  0
   41.8700   21.4670   34.0160 H   0  0  0  0  0  0  0  0  0  0  0  0
   42.4640   22.7390   36.1250 H   0  0  0  0  0  0  0  0  0  0  0  0
   37.4340   25.3400   35.9290 O   0  0  0  0  0  0  0  0  0  0  0  0
   37.8560   26.3100   34.9740 C   0  0  0  0  0  3  0  0  0  0  0  0
   38.4720   27.5830   35.4640 C   0  0  0  0  0  2  0  0  0  0  0  0
   37.0830   27.6000   34.8890 C   0  0  0  0  0  2  0  0  0  0  0  0
  1  2  1  0  0  0  0
  2 10  1  0  0  0  0
  2  3  2  0  0  0  0
  3 11  1  0  0  0  0
  4  3  1  0  0  0  0
  5  4  2  0  0  0  0
  6  1  2  0  0  0  0
  6  5  1  0  0  0  0
  7  9  1  0  0  0  0
  8  7  2  0  0  0  0
  9 13  1  0  0  0  0
  9  5  1  0  0  0  0
 12  7  1  0  0  0  0
 14  1  1  0  0  0  0
 15 16  1  0  0  0  0
 15 14  1  0  0  0  0
 17 15  1  0  0  0  0
 17 16  1  0  0  0  0
M  END
>  <minimizedAffinity>
-3.7714932

$$$$

 OpenBabel03272506363D

 17 18  0  0  0  0  0  0  0  0999 V2000
   36.4250   23.9990   31.9910 C   0  0  0  0  0  0  0  0  0  0  0  0
   35.3580   24.3570   31.1360 C   0  0  0  0  0  0  0  0  0  0  0  0
   35.0960   25.7060   30.9000 C   0  0  0  0  0  0  0  0  0  0  0  0
   35.8930   26.6250   31.5160 N   0  0  0  0  0  0  0  0  0  0  0  0
   36.9110   26.2450   32.3330 C   0  0  0  0  0  0  0  0  0  0  0  0
   37.1710   24.9480   32.5670 N   0  0  0  0  0  0  0  0  0  0  0  0
   37.6770   27.1670   34.3920 C   0  0  0  0  0  0  0  0  0  0  0  0
   37.0210   26.3540   35.1220 O   0  0  0  0  0  0  0  0  0  0  0  0
   37.7290   27.2430   32.9650 N   0  0  0  0  0  0  0  0  0  0  0  0
   34.7090   23.6730   30.6320 H   0  0  0  0  0  0  0  0  0  0  0  0
   34.3040   26.0540   30.2640 H   0  0  0  0  0  0  0  0  0  0  0  0
   38.1900   27.7900   35.1160 H   0  0  0  0  0  0  0  0  0  0  0  0
   38.3320   27.9880   32.5950 H   0  0  0  0  0  0  0  0  0  0  0  0
   36.5390   22.6360   32.1080 O   0  0  0  0  0  0  0  0  0  0  0  0
   35.6400   21.8080   31.3750 C   0  0  0  0  0  3  0  0  0  0  0  0
   34.9180   20.7140   32.0950 C   0  0  0  0  0  2  0  0  0  0  0  0
   36.0310   20.3720   31.1450 C   0  0  0  0  0  2  0  0  0  0  0  0
  1 14  1  0  0  0  0
  1  6  1  0  0  0  0
  2  1  2  0  0  0  0
  3  2  1  0  0  0  0
  3  4  2  0  0  0  0
  4  5  1  0  0  0  0
  5  6  2  0  0  0  0
  5  9  1  0  0  0  0
  7 12  1  0  0  0  0
  7  8  2  0  0  0  0
  9  7  1  0  0  0  0
 10  2  1  0  0  0  0
 11  3  1  0  0  0  0
 13  9  1  0  0  0  0
 15 16  1  0  0  0  0
 15 14  1  0  0  0  0
 17 15  1  0  0  0  0
 17 16  1  0  0  0  0
M  END
>  <minimizedAffinity>
-3.72013116

$$$$

 OpenBabel03272506363D

 17 18  0  0  0  0  0  0  0  0999 V2000
   37.4620   22.0230   34.9670 C   0  0  0  0  0  0  0  0  0  0  0  0
   36.4580   21.1130   35.3710 C   0  0  0  0  0  0  0  0  0  0  0  0
   35.5810   20.5960   34.4180 C   0  0  0  0  0  0  0  0  0  0  0  0
   35.7390   21.0020   33.1260 N   0  0  0  0  0  0  0  0  0  0  0  0
   36.7160   21.8790   32.7720 C   0  0  0  0  0  0  0  0  0  0  0  0
   37.5650   22.3820   33.6830 N   0  0  0  0  0  0  0  0  0  0  0  0
   36.6890   23.6930   31.2280 C   0  0  0  0  0  0  0  0  0  0  0  0
   36.4560   24.5800   32.1120 O   0  0  0  0  0  0  0  0  0  0  0  0
   36.8490   22.2820   31.3990 N   0  0  0  0  0  0  0  0  0  0  0  0
   36.2980   20.7670   36.3710 H   0  0  0  0  0  0  0  0  0  0  0  0
   34.7960   19.9020   34.6490 H   0  0  0  0  0  0  0  0  0  0  0  0
   36.7390   24.2670   30.3090 H   0  0  0  0  0  0  0  0  0  0  0  0
   37.0330   21.7600   30.5330 H   0  0  0  0  0  0  0  0  0  0  0  0
   38.2310   22.4260   36.0310 O   0  0  0  0  0  0  0  0  0  0  0  0
   37.6050   23.1310   37.1000 C   0  0  0  0  0  3  0  0  0  0  0  0
   38.0160   24.5440   37.3700 C   0  0  0  0  0  2  0  0  0  0  0  0
   38.4360   23.4530   38.3140 C   0  0  0  0  0  2  0  0  0  0  0  0
  1  2  1  0  0  0  0
  1 14  1  0  0  0  0
  2 10  1  0  0  0  0
  3 11  1  0  0  0  0
  3  2  2  0  0  0  0
  4  3  1  0  0  0  0
  5  4  2  0  0  0  0
  5  6  1  0  0  0  0
  6  1  2  0  0  0  0
  7  9  1  0  0  0  0
  7  8  2  0  0  0  0
  9  5  1  0  0  0  0
 12  7  1  0  0  0  0
 13  9  1  0  0  0  0
 14 15  1  0  0  0  0
 15 16  1  0  0  0  0
 15 17  1  0  0  0  0
 16 17  1  0  0  0  0
M  END
>  <minimizedAffinity>
-3.70259929

$$$$
