
 OpenBabel03272508283D

 32 35  0  0  1  0  0  0  0  0999 V2000
   35.6150   30.3730   49.0290 C   0  0  1  0  0  0  0  0  0  0  0  0
   35.6970   28.9550   48.7660 C   0  0  1  0  0  0  0  0  0  0  0  0
   35.8770   29.3900   50.1830 C   0  0  0  0  0  0  0  0  0  0  0  0
   34.7000   30.9660   49.2390 H   0  0  0  0  0  0  0  0  0  0  0  0
   36.6390   28.6280   48.2330 H   0  0  0  0  0  0  0  0  0  0  0  0
   36.8880   29.3380   50.6210 H   0  0  0  0  0  0  0  0  0  0  0  0
   35.0490   29.1480   50.8720 H   0  0  0  0  0  0  0  0  0  0  0  0
   33.8270   28.8950   47.2220 C   0  0  2  0  0  0  0  0  0  0  0  0
   34.5270   28.1330   48.3390 C   0  0  2  0  0  0  0  0  0  0  0  0
   33.6030   28.0000   49.3320 O   0  0  0  0  0  0  0  0  0  0  0  0
   32.3400   28.0850   48.8280 C   0  0  0  0  0  0  0  0  0  0  0  0
   32.4380   28.2550   47.3270 C   0  0  1  0  0  0  0  0  0  0  0  0
   33.6860   29.9620   47.4480 H   0  0  0  0  0  0  0  0  0  0  0  0
   34.7970   27.1430   47.9150 H   0  0  0  0  0  0  0  0  0  0  0  0
   31.8790   29.0130   49.2210 H   0  0  0  0  0  0  0  0  0  0  0  0
   31.6810   27.2360   49.0940 H   0  0  0  0  0  0  0  0  0  0  0  0
   32.4720   27.2070   46.9170 H   0  0  0  0  0  0  0  0  0  0  0  0
   34.3910   28.6770   45.9760 O   0  0  0  0  0  0  0  0  0  0  0  0
   34.4030   29.5240   45.4910 H   0  0  0  0  0  0  0  0  0  0  0  0
   31.4690   29.0400   46.7750 O   0  0  0  0  0  0  0  0  0  0  0  0
   30.6930   28.3920   45.8290 C   0  0  0  0  0  3  0  0  0  0  0  0
   31.1930   28.1050   44.4740 C   0  0  0  0  0  2  0  0  0  0  0  0
   30.9600   26.9800   45.4580 C   0  0  0  0  0  2  0  0  0  0  0  0
   36.8020   31.2900   48.7930 C   0  0  0  0  0  0  0  0  0  0  0  0
   37.0530   32.2860   49.7360 C   0  0  0  0  0  0  0  0  0  0  0  0
   38.1350   33.1050   49.4570 C   0  0  0  0  0  0  0  0  0  0  0  0
   38.8850   32.9300   48.3350 N   0  0  0  0  0  0  0  0  0  0  0  0
   38.6060   31.9420   47.4360 C   0  0  0  0  0  0  0  0  0  0  0  0
   37.5510   31.1170   47.6760 N   0  0  0  0  0  0  0  0  0  0  0  0
   36.4180   32.3700   50.6050 H   0  0  0  0  0  0  0  0  0  0  0  0
   38.3690   33.8990   50.1690 H   0  0  0  0  0  0  0  0  0  0  0  0
   39.1890   31.7870   46.5380 H   0  0  0  0  0  0  0  0  0  0  0  0
  1  4  1  6  0  0  0
  1  3  1  0  0  0  0
  2  5  1  6  0  0  0
  2  1  1  0  0  0  0
  2  3  1  0  0  0  0
  3  6  1  0  0  0  0
  3  7  1  0  0  0  0
  8 12  1  0  0  0  0
  8 13  1  1  0  0  0
  8  9  1  0  0  0  0
  9 14  1  6  0  0  0
  9  2  1  0  0  0  0
  9 10  1  0  0  0  0
 11 16  1  0  0  0  0
 11 15  1  0  0  0  0
 11 10  1  0  0  0  0
 12 17  1  6  0  0  0
 12 11  1  0  0  0  0
 18  8  1  0  0  0  0
 19 18  1  0  0  0  0
 20 12  1  0  0  0  0
 21 20  1  0  0  0  0
 22 23  1  0  0  0  0
 22 21  1  0  0  0  0
 23 21  1  0  0  0  0
 24  1  1  0  0  0  0
 24 25  1  0  0  0  0
 25 30  1  0  0  0  0
 26 25  2  0  0  0  0
 26 31  1  0  0  0  0
 27 26  1  0  0  0  0
 28 29  1  0  0  0  0
 28 27  2  0  0  0  0
 29 24  2  0  0  0  0
 32 28  1  0  0  0  0
M  END
>  <minimizedAffinity>
-4.58286428

>  <minimizedRMSD>
0.290119171

$$$$
