
 OpenBabel03272510103D

 22 24  0  0  0  0  0  0  0  0999 V2000
   37.8040   31.1800   47.9330 C   0  0  0  0  0  0  0  0  0  0  0  0
   38.8530   32.0420   47.8680 C   0  0  0  0  0  0  0  0  0  0  0  0
   39.3060   32.6180   46.6970 C   0  0  0  0  0  0  0  0  0  0  0  0
   38.6820   32.3250   45.4980 C   0  0  0  0  0  0  0  0  0  0  0  0
   37.6260   31.4500   45.5990 C   0  0  0  0  0  0  0  0  0  0  0  0
   37.2000   30.9000   46.7480 N   0  0  0  0  0  0  0  0  0  0  0  0
   39.3560   32.2860   48.8020 H   0  0  0  0  0  0  0  0  0  0  0  0
   40.1450   33.3040   46.6690 H   0  0  0  0  0  0  0  0  0  0  0  0
   37.0160   31.1010   44.7770 H   0  0  0  0  0  0  0  0  0  0  0  0
   37.8920   30.7990   50.4200 C   0  0  0  0  0  0  0  0  0  0  0  0
   37.3270   30.5700   49.1690 C   0  0  0  0  0  0  0  0  0  0  0  0
   36.2520   29.7110   49.1050 C   0  0  0  0  0  0  0  0  0  0  0  0
   35.7930   29.1290   50.2500 N   0  0  0  0  0  0  0  0  0  0  0  0
   36.3810   29.3880   51.4440 C   0  0  0  0  0  0  0  0  0  0  0  0
   37.4410   30.2300   51.5440 N   0  0  0  0  0  0  0  0  0  0  0  0
   38.7350   31.4880   50.3860 H   0  0  0  0  0  0  0  0  0  0  0  0
   35.7990   29.5200   48.1430 H   0  0  0  0  0  0  0  0  0  0  0  0
   36.0540   28.9530   52.3800 H   0  0  0  0  0  0  0  0  0  0  0  0
   39.0340   32.8300   44.2670 O   0  0  0  0  0  0  0  0  0  0  0  0
   38.6480   32.3840   43.0110 C   0  0  0  0  0  3  0  0  0  0  0  0
   38.9790   33.3380   41.8160 C   0  0  0  0  0  2  0  0  0  0  0  0
   39.6360   31.9740   41.9820 C   0  0  0  0  0  2  0  0  0  0  0  0
  1 11  1  0  0  0  0
  2  1  1  0  0  0  0
  2  7  1  0  0  0  0
  3  2  2  0  0  0  0
  4  5  2  0  0  0  0
  4  3  1  0  0  0  0
  5  6  1  0  0  0  0
  6  1  2  0  0  0  0
  8  3  1  0  0  0  0
  9  5  1  0  0  0  0
 10 15  1  0  0  0  0
 11 10  2  0  0  0  0
 12 11  1  0  0  0  0
 12 13  2  0  0  0  0
 13 14  1  0  0  0  0
 14 15  2  0  0  0  0
 14 18  1  0  0  0  0
 16 10  1  0  0  0  0
 17 12  1  0  0  0  0
 19  4  1  0  0  0  0
 20 19  1  0  0  0  0
 21 22  1  0  0  0  0
 21 20  1  0  0  0  0
 22 20  1  0  0  0  0
M  END
>  <minimizedAffinity>
-4.85709

>  <minimizedRMSD>
2.3043592

$$$$
