
 OpenBabel03272501313D

 14 15  0  0  0  0  0  0  0  0999 V2000
   39.8600   22.9350   37.5150 C   0  0  0  0  0  0  0  0  0  0  0  0
   39.6310   23.5290   36.2660 C   0  0  0  0  0  0  0  0  0  0  0  0
   38.4840   24.2940   36.1180 C   0  0  0  0  0  0  0  0  0  0  0  0
   37.6430   24.4350   37.1710 N   0  0  0  0  0  0  0  0  0  0  0  0
   37.9020   23.8440   38.3620 C   0  0  0  0  0  0  0  0  0  0  0  0
   38.9930   23.0990   38.5500 N   0  0  0  0  0  0  0  0  0  0  0  0
   40.7570   22.3490   37.5980 H   0  0  0  0  0  0  0  0  0  0  0  0
   40.3360   23.3900   35.4430 H   0  0  0  0  0  0  0  0  0  0  0  0
   37.2320   23.9460   39.2260 H   0  0  0  0  0  0  0  0  0  0  0  0
   38.1710   24.9440   34.8560 C   0  0  0  0  0  0  0  0  0  0  0  0
   37.8670   24.3020   33.8060 O   0  0  0  0  0  0  0  0  0  0  0  0
   38.1890   26.4080   34.7170 C   0  0  0  0  0  3  0  0  0  0  0  0
   39.6140   26.9690   34.5130 C   0  0  0  0  0  2  0  0  0  0  0  0
   38.7880   27.2960   35.7300 C   0  0  0  0  0  2  0  0  0  0  0  0
  1  7  1  0  0  0  0
  1  6  1  0  0  0  0
  2  1  2  0  0  0  0
  3  2  1  0  0  0  0
  3  4  2  0  0  0  0
  4  5  1  0  0  0  0
  5  6  2  0  0  0  0
  5  9  1  0  0  0  0
  8  2  1  0  0  0  0
 10  3  1  0  0  0  0
 11 10  2  0  0  0  0
 12 10  1  0  0  0  0
 12 14  1  0  0  0  0
 13 12  1  0  0  0  0
 13 14  1  0  0  0  0
M  END
>  <minimizedAffinity>
-3.68287253

$$$$

 OpenBabel03272501313D

 14 15  0  0  0  0  0  0  0  0999 V2000
   38.2250   23.4870   38.1310 C   0  0  0  0  0  0  0  0  0  0  0  0
   39.5710   23.0950   38.1310 C   0  0  0  0  0  0  0  0  0  0  0  0
   40.0410   22.4060   37.0240 C   0  0  0  0  0  0  0  0  0  0  0  0
   39.1930   22.1420   36.0000 N   0  0  0  0  0  0  0  0  0  0  0  0
   37.8990   22.5390   36.0400 C   0  0  0  0  0  0  0  0  0  0  0  0
   37.4030   23.2040   37.0850 N   0  0  0  0  0  0  0  0  0  0  0  0
   37.8910   24.0190   39.0020 H   0  0  0  0  0  0  0  0  0  0  0  0
   40.2210   23.3290   38.9770 H   0  0  0  0  0  0  0  0  0  0  0  0
   37.1970   22.3330   35.2210 H   0  0  0  0  0  0  0  0  0  0  0  0
   41.4240   21.9640   36.9440 C   0  0  0  0  0  0  0  0  0  0  0  0
   41.9000   21.0530   37.6860 O   0  0  0  0  0  0  0  0  0  0  0  0
   42.3690   22.5540   35.9850 C   0  0  0  0  0  3  0  0  0  0  0  0
   43.2690   23.6350   36.6260 C   0  0  0  0  0  2  0  0  0  0  0  0
   42.2770   23.9570   35.5390 C   0  0  0  0  0  2  0  0  0  0  0  0
  1  2  1  0  0  0  0
  1  7  1  0  0  0  0
  2  8  1  0  0  0  0
  3  2  2  0  0  0  0
  4  5  2  0  0  0  0
  4  3  1  0  0  0  0
  5  6  1  0  0  0  0
  6  1  2  0  0  0  0
  9  5  1  0  0  0  0
 10  3  1  0  0  0  0
 10 11  2  0  0  0  0
 12 13  1  0  0  0  0
 12 10  1  0  0  0  0
 14 12  1  0  0  0  0
 14 13  1  0  0  0  0
M  END
>  <minimizedAffinity>
-3.48188639

$$$$

 OpenBabel03272501313D

 14 15  0  0  0  0  0  0  0  0999 V2000
   37.1720   27.4990   34.5820 C   0  0  0  0  0  0  0  0  0  0  0  0
   37.7350   26.6630   35.5570 C   0  0  0  0  0  0  0  0  0  0  0  0
   38.0100   25.3510   35.2000 C   0  0  0  0  0  0  0  0  0  0  0  0
   37.7280   24.9360   33.9410 N   0  0  0  0  0  0  0  0  0  0  0  0
   37.1840   25.7780   33.0290 C   0  0  0  0  0  0  0  0  0  0  0  0
   36.9020   27.0470   33.3290 N   0  0  0  0  0  0  0  0  0  0  0  0
   36.9710   28.5080   34.8900 H   0  0  0  0  0  0  0  0  0  0  0  0
   37.9470   27.0380   36.5610 H   0  0  0  0  0  0  0  0  0  0  0  0
   36.9480   25.4590   32.0040 H   0  0  0  0  0  0  0  0  0  0  0  0
   38.5940   24.4190   36.1500 C   0  0  0  0  0  0  0  0  0  0  0  0
   39.7900   24.0070   36.0660 O   0  0  0  0  0  0  0  0  0  0  0  0
   37.8220   23.8890   37.2840 C   0  0  0  0  0  3  0  0  0  0  0  0
   38.0080   24.7220   38.5720 C   0  0  0  0  0  2  0  0  0  0  0  0
   38.4610   23.2890   38.4690 C   0  0  0  0  0  2  0  0  0  0  0  0
  1  7  1  0  0  0  0
  1  2  1  0  0  0  0
  2  8  1  0  0  0  0
  3  2  2  0  0  0  0
  3 10  1  0  0  0  0
  4  3  1  0  0  0  0
  5  6  1  0  0  0  0
  5  4  2  0  0  0  0
  6  1  2  0  0  0  0
  9  5  1  0  0  0  0
 10 12  1  0  0  0  0
 11 10  2  0  0  0  0
 12 14  1  0  0  0  0
 12 13  1  0  0  0  0
 14 13  1  0  0  0  0
M  END
>  <minimizedAffinity>
-3.47989488

$$$$

 OpenBabel03272501313D

 14 15  0  0  0  0  0  0  0  0999 V2000
   37.2000   25.2290   32.5560 C   0  0  0  0  0  0  0  0  0  0  0  0
   37.1540   23.8300   32.4660 C   0  0  0  0  0  0  0  0  0  0  0  0
   36.1620   23.2680   31.6760 C   0  0  0  0  0  0  0  0  0  0  0  0
   35.2900   24.0810   31.0320 N   0  0  0  0  0  0  0  0  0  0  0  0
   35.3710   25.4280   31.1450 C   0  0  0  0  0  0  0  0  0  0  0  0
   36.3070   26.0130   31.8940 N   0  0  0  0  0  0  0  0  0  0  0  0
   37.9790   25.6330   33.1750 H   0  0  0  0  0  0  0  0  0  0  0  0
   37.8770   23.2120   33.0020 H   0  0  0  0  0  0  0  0  0  0  0  0
   34.6730   26.1030   30.6310 H   0  0  0  0  0  0  0  0  0  0  0  0
   36.0440   21.8260   31.5290 C   0  0  0  0  0  0  0  0  0  0  0  0
   36.7950   21.1470   30.7660 O   0  0  0  0  0  0  0  0  0  0  0  0
   35.0320   21.0560   32.2670 C   0  0  0  0  0  3  0  0  0  0  0  0
   35.5640   20.5090   33.6110 C   0  0  0  0  0  2  0  0  0  0  0  0
   35.1420   19.6020   32.4840 C   0  0  0  0  0  2  0  0  0  0  0  0
  1  7  1  0  0  0  0
  2  1  1  0  0  0  0
  2  8  1  0  0  0  0
  3  2  2  0  0  0  0
  4  5  2  0  0  0  0
  4  3  1  0  0  0  0
  5  6  1  0  0  0  0
  6  1  2  0  0  0  0
  9  5  1  0  0  0  0
 10  3  1  0  0  0  0
 10 12  1  0  0  0  0
 11 10  2  0  0  0  0
 12 14  1  0  0  0  0
 12 13  1  0  0  0  0
 14 13  1  0  0  0  0
M  END
>  <minimizedAffinity>
-3.40575886

$$$$

 OpenBabel03272501313D

 14 15  0  0  0  0  0  0  0  0999 V2000
   38.1680   23.0840   37.0580 C   0  0  0  0  0  0  0  0  0  0  0  0
   38.0890   24.4650   36.8250 C   0  0  0  0  0  0  0  0  0  0  0  0
   38.0460   24.8940   35.5070 C   0  0  0  0  0  0  0  0  0  0  0  0
   38.0830   23.9750   34.5110 N   0  0  0  0  0  0  0  0  0  0  0  0
   38.1590   22.6500   34.7800 C   0  0  0  0  0  0  0  0  0  0  0  0
   38.2020   22.1920   36.0330 N   0  0  0  0  0  0  0  0  0  0  0  0
   38.1990   22.7840   38.0890 H   0  0  0  0  0  0  0  0  0  0  0  0
   38.0610   25.1710   37.6580 H   0  0  0  0  0  0  0  0  0  0  0  0
   38.1900   21.8910   33.9870 H   0  0  0  0  0  0  0  0  0  0  0  0
   37.9640   26.3080   35.1790 C   0  0  0  0  0  0  0  0  0  0  0  0
   36.8660   26.9000   34.9490 O   0  0  0  0  0  0  0  0  0  0  0  0
   39.1650   27.1510   35.0900 C   0  0  0  0  0  3  0  0  0  0  0  0
   39.7920   27.1460   33.6780 C   0  0  0  0  0  2  0  0  0  0  0  0
   40.5140   26.5930   34.8790 C   0  0  0  0  0  2  0  0  0  0  0  0
  1  7  1  0  0  0  0
  2  1  1  0  0  0  0
  2  8  1  0  0  0  0
  3  2  2  0  0  0  0
  4  5  2  0  0  0  0
  4  3  1  0  0  0  0
  5  6  1  0  0  0  0
  6  1  2  0  0  0  0
  9  5  1  0  0  0  0
 10  3  1  0  0  0  0
 11 10  2  0  0  0  0
 12 10  1  0  0  0  0
 13 14  1  0  0  0  0
 13 12  1  0  0  0  0
 14 12  1  0  0  0  0
M  END
>  <minimizedAffinity>
-3.38479114

$$$$

 OpenBabel03272501313D

 14 15  0  0  0  0  0  0  0  0999 V2000
   38.2240   23.8110   38.2660 C   0  0  0  0  0  0  0  0  0  0  0  0
   37.8240   24.5090   37.1180 C   0  0  0  0  0  0  0  0  0  0  0  0
   38.5900   24.3580   35.9720 C   0  0  0  0  0  0  0  0  0  0  0  0
   39.6800   23.5530   36.0080 N   0  0  0  0  0  0  0  0  0  0  0  0
   40.0320   22.8960   37.1390 C   0  0  0  0  0  0  0  0  0  0  0  0
   39.3250   23.0120   38.2640 N   0  0  0  0  0  0  0  0  0  0  0  0
   37.6100   23.9500   39.1370 H   0  0  0  0  0  0  0  0  0  0  0  0
   36.9380   25.1480   37.1330 H   0  0  0  0  0  0  0  0  0  0  0  0
   40.9120   22.2410   37.1870 H   0  0  0  0  0  0  0  0  0  0  0  0
   38.2440   25.0460   34.7390 C   0  0  0  0  0  0  0  0  0  0  0  0
   37.7900   24.4470   33.7190 O   0  0  0  0  0  0  0  0  0  0  0  0
   38.4030   26.5010   34.5970 C   0  0  0  0  0  3  0  0  0  0  0  0
   37.0790   27.2680   34.8150 C   0  0  0  0  0  2  0  0  0  0  0  0
   37.7970   27.2630   33.4900 C   0  0  0  0  0  2  0  0  0  0  0  0
  1  7  1  0  0  0  0
  2  8  1  0  0  0  0
  2  1  2  0  0  0  0
  3  4  2  0  0  0  0
  3  2  1  0  0  0  0
  4  5  1  0  0  0  0
  5  9  1  0  0  0  0
  5  6  2  0  0  0  0
  6  1  1  0  0  0  0
 10  3  1  0  0  0  0
 11 10  2  0  0  0  0
 12 10  1  0  0  0  0
 12 13  1  0  0  0  0
 14 12  1  0  0  0  0
 14 13  1  0  0  0  0
M  END
>  <minimizedAffinity>
-3.35824728

$$$$

 OpenBabel03272501313D

 14 15  0  0  0  0  0  0  0  0999 V2000
   41.6610   22.8190   35.4790 C   0  0  0  0  0  0  0  0  0  0  0  0
   40.5900   23.7010   35.2820 C   0  0  0  0  0  0  0  0  0  0  0  0
   39.5910   23.7270   36.2440 C   0  0  0  0  0  0  0  0  0  0  0  0
   39.6900   22.9100   37.3210 N   0  0  0  0  0  0  0  0  0  0  0  0
   40.7440   22.0730   37.4730 C   0  0  0  0  0  0  0  0  0  0  0  0
   41.7260   22.0140   36.5730 N   0  0  0  0  0  0  0  0  0  0  0  0
   42.4180   22.8230   34.7160 H   0  0  0  0  0  0  0  0  0  0  0  0
   40.5490   24.3430   34.3990 H   0  0  0  0  0  0  0  0  0  0  0  0
   40.8400   21.4030   38.3390 H   0  0  0  0  0  0  0  0  0  0  0  0
   38.4460   24.6130   36.1160 C   0  0  0  0  0  0  0  0  0  0  0  0
   37.3930   24.4830   36.8110 O   0  0  0  0  0  0  0  0  0  0  0  0
   38.4360   25.7290   35.1590 C   0  0  0  0  0  3  0  0  0  0  0  0
   38.8090   27.0780   35.8160 C   0  0  0  0  0  2  0  0  0  0  0  0
   37.4480   26.8220   35.2220 C   0  0  0  0  0  2  0  0  0  0  0  0
  1  6  1  0  0  0  0
  2  1  2  0  0  0  0
  2  3  1  0  0  0  0
  3  4  2  0  0  0  0
  4  5  1  0  0  0  0
  5  9  1  0  0  0  0
  6  5  2  0  0  0  0
  7  1  1  0  0  0  0
  8  2  1  0  0  0  0
 10  3  1  0  0  0  0
 10 11  2  0  0  0  0
 12 14  1  0  0  0  0
 12 13  1  0  0  0  0
 12 10  1  0  0  0  0
 14 13  1  0  0  0  0
M  END
>  <minimizedAffinity>
-3.28492975

$$$$

 OpenBabel03272501313D

 14 15  0  0  0  0  0  0  0  0999 V2000
   38.2510   27.1310   35.6660 C   0  0  0  0  0  0  0  0  0  0  0  0
   38.2860   25.9580   36.4320 C   0  0  0  0  0  0  0  0  0  0  0  0
   38.1900   24.7470   35.7630 C   0  0  0  0  0  0  0  0  0  0  0  0
   38.0660   24.7460   34.4130 N   0  0  0  0  0  0  0  0  0  0  0  0
   38.0370   25.9030   33.7100 C   0  0  0  0  0  0  0  0  0  0  0  0
   38.1260   27.0900   34.3120 N   0  0  0  0  0  0  0  0  0  0  0  0
   38.3290   28.0510   36.2130 H   0  0  0  0  0  0  0  0  0  0  0  0
   38.3880   26.0030   37.5190 H   0  0  0  0  0  0  0  0  0  0  0  0
   37.9360   25.9220   32.6160 H   0  0  0  0  0  0  0  0  0  0  0  0
   38.2180   23.4840   36.4830 C   0  0  0  0  0  0  0  0  0  0  0  0
   37.2690   23.0940   37.2280 O   0  0  0  0  0  0  0  0  0  0  0  0
   39.3650   22.5690   36.3910 C   0  0  0  0  0  3  0  0  0  0  0  0
   40.2810   22.6360   37.6340 C   0  0  0  0  0  2  0  0  0  0  0  0
   40.7550   23.0460   36.2640 C   0  0  0  0  0  2  0  0  0  0  0  0
  1  7  1  0  0  0  0
  1  2  1  0  0  0  0
  2  8  1  0  0  0  0
  3  2  2  0  0  0  0
  3 10  1  0  0  0  0
  4  3  1  0  0  0  0
  5  6  1  0  0  0  0
  5  4  2  0  0  0  0
  6  1  2  0  0  0  0
  9  5  1  0  0  0  0
 10 11  2  0  0  0  0
 12 10  1  0  0  0  0
 12 13  1  0  0  0  0
 14 12  1  0  0  0  0
 14 13  1  0  0  0  0
M  END
>  <minimizedAffinity>
-3.2562294

$$$$

 OpenBabel03272501313D

 14 15  0  0  0  0  0  0  0  0999 V2000
   38.5970   23.0410   37.1030 C   0  0  0  0  0  0  0  0  0  0  0  0
   38.1200   24.3430   36.8950 C   0  0  0  0  0  0  0  0  0  0  0  0
   38.7150   25.0960   35.8950 C   0  0  0  0  0  0  0  0  0  0  0  0
   39.7220   24.5510   35.1680 N   0  0  0  0  0  0  0  0  0  0  0  0
   40.1530   23.2890   35.4010 C   0  0  0  0  0  0  0  0  0  0  0  0
   39.6090   22.5290   36.3530 N   0  0  0  0  0  0  0  0  0  0  0  0
   38.1150   22.4840   37.8850 H   0  0  0  0  0  0  0  0  0  0  0  0
   37.3060   24.7440   37.5040 H   0  0  0  0  0  0  0  0  0  0  0  0
   40.9670   22.8310   34.8230 H   0  0  0  0  0  0  0  0  0  0  0  0
   38.2800   26.4550   35.6150 C   0  0  0  0  0  0  0  0  0  0  0  0
   38.9740   27.4750   35.9060 O   0  0  0  0  0  0  0  0  0  0  0  0
   36.9890   26.7340   34.9680 C   0  0  0  0  0  3  0  0  0  0  0  0
   37.0830   26.7270   33.4260 C   0  0  0  0  0  2  0  0  0  0  0  0
   36.7330   27.9690   34.2040 C   0  0  0  0  0  2  0  0  0  0  0  0
  1  7  1  0  0  0  0
  2  1  1  0  0  0  0
  2  8  1  0  0  0  0
  3  2  2  0  0  0  0
  4  5  2  0  0  0  0
  4  3  1  0  0  0  0
  5  6  1  0  0  0  0
  6  1  2  0  0  0  0
  9  5  1  0  0  0  0
 10  3  1  0  0  0  0
 10 11  2  0  0  0  0
 12 10  1  0  0  0  0
 13 14  1  0  0  0  0
 13 12  1  0  0  0  0
 14 12  1  0  0  0  0
M  END
>  <minimizedAffinity>
-3.18601799

$$$$
