
 OpenBabel03272509453D

 13 14  0  0  0  0  0  0  0  0999 V2000
   37.6870   32.3820   49.5460 C   0  0  0  0  0  0  0  0  0  0  0  0
   38.5500   32.7270   48.5030 C   0  0  0  0  0  0  0  0  0  0  0  0
   38.3640   32.1030   47.2600 C   0  0  0  0  0  0  0  0  0  0  0  0
   37.3430   31.1840   47.1320 N   0  0  0  0  0  0  0  0  0  0  0  0
   36.5310   30.8860   48.1850 C   0  0  0  0  0  0  0  0  0  0  0  0
   36.7130   31.4880   49.3760 N   0  0  0  0  0  0  0  0  0  0  0  0
   37.8420   32.8690   50.4970 H   0  0  0  0  0  0  0  0  0  0  0  0
   39.3600   33.4450   48.5780 H   0  0  0  0  0  0  0  0  0  0  0  0
   38.9970   32.3320   46.4290 H   0  0  0  0  0  0  0  0  0  0  0  0
   35.5740   29.9470   47.8550 O   0  0  0  0  0  0  0  0  0  0  0  0
   34.6220   29.5870   48.8400 C   0  0  0  0  0  3  0  0  0  0  0  0
   34.8400   28.3910   49.6880 C   0  0  0  0  0  2  0  0  0  0  0  0
   33.9240   28.2690   48.5150 C   0  0  0  0  0  2  0  0  0  0  0  0
  1  7  1  0  0  0  0
  2  8  1  0  0  0  0
  2  1  2  0  0  0  0
  3  2  1  0  0  0  0
  4  3  2  0  0  0  0
  4  5  1  0  0  0  0
  5  6  2  0  0  0  0
  6  1  1  0  0  0  0
  9  3  1  0  0  0  0
 10  5  1  0  0  0  0
 10 11  1  0  0  0  0
 11 12  1  0  0  0  0
 13 11  1  0  0  0  0
 13 12  1  0  0  0  0
M  END
>  <minimizedAffinity>
-3.57961369

>  <minimizedRMSD>
2.63764215

$$$$
