
 OpenBabel03272509573D

 40 43  0  0  0  0  0  0  0  0999 V2000
   34.7120   28.6260   49.6440 O   0  0  0  0  0  0  0  0  0  0  0  0
   37.3520   30.1360   51.6040 C   0  0  0  0  0  0  0  0  0  0  0  0
   38.0790   30.7760   50.5750 C   0  0  0  0  0  0  0  0  0  0  0  0
   37.6190   30.6500   49.2750 C   0  0  0  0  0  0  0  0  0  0  0  0
   36.4800   29.9010   49.1070 N   0  0  0  0  0  0  0  0  0  0  0  0
   35.8100   29.3060   50.0880 C   0  0  0  0  0  0  0  0  0  0  0  0
   36.2600   29.4310   51.3550 N   0  0  0  0  0  0  0  0  0  0  0  0
   37.7320   30.2500   52.6130 H   0  0  0  0  0  0  0  0  0  0  0  0
   38.9720   31.3610   50.7220 H   0  0  0  0  0  0  0  0  0  0  0  0
   38.9880   33.1910   49.0490 F   0  0  0  0  0  0  0  0  0  0  0  0
   38.8730   32.4180   47.9860 C   0  0  0  0  0  0  0  0  0  0  0  0
   38.2300   31.2310   48.1020 C   0  0  0  0  0  0  0  0  0  0  0  0
   38.1610   30.4920   46.9240 C   0  0  0  0  0  0  0  0  0  0  0  0
   38.7090   30.9440   45.7440 C   0  0  0  0  0  0  0  0  0  0  0  0
   39.3490   32.1520   45.6720 C   0  0  0  0  0  0  0  0  0  0  0  0
   39.4270   32.8910   46.8130 C   0  0  0  0  0  0  0  0  0  0  0  0
   37.6790   29.5240   46.8650 H   0  0  0  0  0  0  0  0  0  0  0  0
   38.6470   30.3570   44.8320 H   0  0  0  0  0  0  0  0  0  0  0  0
   39.7910   32.5340   44.7510 H   0  0  0  0  0  0  0  0  0  0  0  0
   39.9300   33.8440   46.7680 H   0  0  0  0  0  0  0  0  0  0  0  0
   34.5610   28.3900   48.2540 C   0  0  0  0  0  0  0  0  0  0  0  0
   34.1510   29.2980   47.7920 H   0  0  0  0  0  0  0  0  0  0  0  0
   35.5570   28.0850   47.8480 H   0  0  0  0  0  0  0  0  0  0  0  0
   33.6130   27.2510   47.9990 C   0  0  0  0  0  0  0  0  0  0  0  0
   33.9100   26.6510   47.1040 H   0  0  0  0  0  0  0  0  0  0  0  0
   33.6460   26.5550   48.8420 H   0  0  0  0  0  0  0  0  0  0  0  0
   32.2100   27.7310   47.8020 C   0  0  0  0  0  0  0  0  0  0  0  0
   31.2460   27.2680   48.6750 C   0  0  0  0  0  0  0  0  0  0  0  0
   29.9330   27.6440   48.5830 C   0  0  0  0  0  0  0  0  0  0  0  0
   29.5680   28.4830   47.6250 N   0  0  0  0  0  0  0  0  0  0  0  0
   30.5160   28.9370   46.7690 C   0  0  0  0  0  0  0  0  0  0  0  0
   31.8140   28.5800   46.8400 N   0  0  0  0  0  0  0  0  0  0  0  0
   31.5340   26.5810   49.4620 H   0  0  0  0  0  0  0  0  0  0  0  0
   29.2230   27.2320   49.3150 H   0  0  0  0  0  0  0  0  0  0  0  0
   30.0900   29.8880   45.6860 C   0  0  0  0  0  0  0  0  0  0  0  0
   29.5110   30.7330   46.1370 H   0  0  0  0  0  0  0  0  0  0  0  0
   29.4300   29.3560   44.9520 H   0  0  0  0  0  0  0  0  0  0  0  0
   31.2570   30.4360   44.9320 C   0  0  0  0  0  3  0  0  0  0  0  0
   30.8870   31.6490   44.0540 C   0  0  0  0  0  2  0  0  0  0  0  0
   31.8480   31.7550   45.1960 C   0  0  0  0  0  2  0  0  0  0  0  0
  1  6  1  0  0  0  0
  2  8  1  0  0  0  0
  3  9  1  0  0  0  0
  3  2  2  0  0  0  0
  4  3  1  0  0  0  0
  5  4  2  0  0  0  0
  5  6  1  0  0  0  0
  6  7  2  0  0  0  0
  7  2  1  0  0  0  0
 11 12  1  0  0  0  0
 11 10  1  0  0  0  0
 12  4  1  0  0  0  0
 13 12  2  0  0  0  0
 14 13  1  0  0  0  0
 15 14  2  0  0  0  0
 15 16  1  0  0  0  0
 16 11  2  0  0  0  0
 17 13  1  0  0  0  0
 18 14  1  0  0  0  0
 19 15  1  0  0  0  0
 20 16  1  0  0  0  0
 21  1  1  0  0  0  0
 22 21  1  0  0  0  0
 23 21  1  0  0  0  0
 24 21  1  0  0  0  0
 24 26  1  0  0  0  0
 25 24  1  0  0  0  0
 27 24  1  0  0  0  0
 27 28  1  0  0  0  0
 28 33  1  0  0  0  0
 29 28  2  0  0  0  0
 29 34  1  0  0  0  0
 30 29  1  0  0  0  0
 31 32  1  0  0  0  0
 31 30  2  0  0  0  0
 32 27  2  0  0  0  0
 35 36  1  0  0  0  0
 35 31  1  0  0  0  0
 37 35  1  0  0  0  0
 38 40  1  0  0  0  0
 38 35  1  0  0  0  0
 39 38  1  0  0  0  0
 39 40  1  0  0  0  0
M  END
>  <minimizedAffinity>
-6.12380457

>  <minimizedRMSD>
0.410480797

$$$$
