
 OpenBabel03272508343D

 19 21  0  0  0  0  0  0  0  0999 V2000
   37.9570   25.0640   34.9140 C   0  0  0  0  0  0  0  0  0  0  0  0
   37.5170   26.3650   35.0270 C   0  0  0  0  0  0  0  0  0  0  0  0
   37.0480   26.7620   33.7770 C   0  0  0  0  0  0  0  0  0  0  0  0
   37.2180   25.7040   32.9630 N   0  0  0  0  0  0  0  0  0  0  0  0
   37.7680   24.6650   33.6340 N   0  0  0  0  0  0  0  0  0  0  0  0
   37.5140   27.0010   35.8980 H   0  0  0  0  0  0  0  0  0  0  0  0
   36.6380   27.7100   33.5180 H   0  0  0  0  0  0  0  0  0  0  0  0
   38.5580   23.5730   38.3150 C   0  0  0  0  0  0  0  0  0  0  0  0
   37.9350   24.3180   37.3140 C   0  0  0  0  0  0  0  0  0  0  0  0
   38.5180   24.3220   36.0390 C   0  0  0  0  0  0  0  0  0  0  0  0
   39.6720   23.5940   35.8420 N   0  0  0  0  0  0  0  0  0  0  0  0
   40.2410   22.8830   36.8520 C   0  0  0  0  0  0  0  0  0  0  0  0
   39.6930   22.8710   38.0770 N   0  0  0  0  0  0  0  0  0  0  0  0
   38.1050   23.5700   39.2970 H   0  0  0  0  0  0  0  0  0  0  0  0
   37.0390   24.8860   37.4570 H   0  0  0  0  0  0  0  0  0  0  0  0
   41.1440   22.3580   36.5600 H   0  0  0  0  0  0  0  0  0  0  0  0
   36.8750   25.6470   31.5670 C   0  0  0  0  0  3  0  0  0  0  0  0
   36.7290   24.3540   30.8790 C   0  0  0  0  0  2  0  0  0  0  0  0
   35.4760   25.0880   31.2030 C   0  0  0  0  0  2  0  0  0  0  0  0
  1  2  1  0  0  0  0
  1 10  1  0  0  0  0
  2  6  1  0  0  0  0
  3  2  2  0  0  0  0
  4  5  1  0  0  0  0
  4  3  1  0  0  0  0
  5  1  2  0  0  0  0
  7  3  1  0  0  0  0
  8 14  1  0  0  0  0
  9 15  1  0  0  0  0
  9  8  2  0  0  0  0
 10  9  1  0  0  0  0
 11 10  2  0  0  0  0
 11 12  1  0  0  0  0
 12 13  2  0  0  0  0
 13  8  1  0  0  0  0
 16 12  1  0  0  0  0
 17  4  1  0  0  0  0
 18 19  1  0  0  0  0
 18 17  1  0  0  0  0
 19 17  1  0  0  0  0
M  END
>  <minimizedAffinity>
-4.16650963

$$$$

 OpenBabel03272508343D

 19 21  0  0  0  0  0  0  0  0999 V2000
   38.1230   25.7360   35.5220 C   0  0  0  0  0  0  0  0  0  0  0  0
   38.0480   27.0450   35.9470 C   0  0  0  0  0  0  0  0  0  0  0  0
   37.4710   27.7880   34.9200 C   0  0  0  0  0  0  0  0  0  0  0  0
   37.2200   26.9170   33.9250 N   0  0  0  0  0  0  0  0  0  0  0  0
   37.6080   25.6680   34.2720 N   0  0  0  0  0  0  0  0  0  0  0  0
   38.3630   27.4660   36.8880 H   0  0  0  0  0  0  0  0  0  0  0  0
   37.2690   28.8340   34.9220 H   0  0  0  0  0  0  0  0  0  0  0  0
   38.7670   23.2960   38.3120 C   0  0  0  0  0  0  0  0  0  0  0  0
   38.1550   24.3320   37.6070 C   0  0  0  0  0  0  0  0  0  0  0  0
   38.6780   24.6700   36.3510 C   0  0  0  0  0  0  0  0  0  0  0  0
   39.7650   23.9650   35.8820 N   0  0  0  0  0  0  0  0  0  0  0  0
   40.3260   22.9620   36.6080 C   0  0  0  0  0  0  0  0  0  0  0  0
   39.8350   22.6280   37.8120 N   0  0  0  0  0  0  0  0  0  0  0  0
   38.3600   23.0360   39.2810 H   0  0  0  0  0  0  0  0  0  0  0  0
   37.3100   24.8850   37.9630 H   0  0  0  0  0  0  0  0  0  0  0  0
   41.1740   22.4930   36.1210 H   0  0  0  0  0  0  0  0  0  0  0  0
   36.6230   27.2330   32.6550 C   0  0  0  0  0  3  0  0  0  0  0  0
   36.5770   28.6220   32.1690 C   0  0  0  0  0  2  0  0  0  0  0  0
   37.5700   27.7200   31.5280 C   0  0  0  0  0  2  0  0  0  0  0  0
  1  2  1  0  0  0  0
  1 10  1  0  0  0  0
  2  6  1  0  0  0  0
  3  7  1  0  0  0  0
  3  2  2  0  0  0  0
  4  5  1  0  0  0  0
  4  3  1  0  0  0  0
  5  1  2  0  0  0  0
  8 14  1  0  0  0  0
  9 15  1  0  0  0  0
  9  8  2  0  0  0  0
 10  9  1  0  0  0  0
 11 10  2  0  0  0  0
 11 12  1  0  0  0  0
 12 13  2  0  0  0  0
 13  8  1  0  0  0  0
 16 12  1  0  0  0  0
 17  4  1  0  0  0  0
 18 17  1  0  0  0  0
 19 18  1  0  0  0  0
 19 17  1  0  0  0  0
M  END
>  <minimizedAffinity>
-4.15201807

$$$$

 OpenBabel03272508343D

 19 21  0  0  0  0  0  0  0  0999 V2000
   36.1200   23.7070   31.7210 C   0  0  0  0  0  0  0  0  0  0  0  0
   35.3010   24.5700   31.0250 C   0  0  0  0  0  0  0  0  0  0  0  0
   35.6730   25.8690   31.3640 C   0  0  0  0  0  0  0  0  0  0  0  0
   36.6880   25.7490   32.2390 N   0  0  0  0  0  0  0  0  0  0  0  0
   36.9740   24.4460   32.4680 N   0  0  0  0  0  0  0  0  0  0  0  0
   34.5060   24.3340   30.3360 H   0  0  0  0  0  0  0  0  0  0  0  0
   35.2400   26.7730   31.0040 H   0  0  0  0  0  0  0  0  0  0  0  0
   34.9990   20.1330   32.0650 C   0  0  0  0  0  0  0  0  0  0  0  0
   35.0060   21.5150   32.2440 C   0  0  0  0  0  0  0  0  0  0  0  0
   36.0120   22.2560   31.6070 C   0  0  0  0  0  0  0  0  0  0  0  0
   36.9380   21.5810   30.8420 N   0  0  0  0  0  0  0  0  0  0  0  0
   36.8890   20.2290   30.6980 C   0  0  0  0  0  0  0  0  0  0  0  0
   35.9310   19.5090   31.3030 N   0  0  0  0  0  0  0  0  0  0  0  0
   34.2210   19.5640   32.5570 H   0  0  0  0  0  0  0  0  0  0  0  0
   34.2900   22.0490   32.8360 H   0  0  0  0  0  0  0  0  0  0  0  0
   37.6770   19.8290   30.0710 H   0  0  0  0  0  0  0  0  0  0  0  0
   37.3970   26.8330   32.8660 C   0  0  0  0  0  3  0  0  0  0  0  0
   36.7090   28.0930   33.1920 C   0  0  0  0  0  2  0  0  0  0  0  0
   37.0130   27.1810   34.3270 C   0  0  0  0  0  2  0  0  0  0  0  0
  1  5  2  0  0  0  0
  2  3  2  0  0  0  0
  2  1  1  0  0  0  0
  3  4  1  0  0  0  0
  4  5  1  0  0  0  0
  4 17  1  0  0  0  0
  6  2  1  0  0  0  0
  7  3  1  0  0  0  0
  8  9  1  0  0  0  0
  8 14  1  0  0  0  0
  9 15  1  0  0  0  0
 10  1  1  0  0  0  0
 10  9  2  0  0  0  0
 11 10  1  0  0  0  0
 12 11  2  0  0  0  0
 12 13  1  0  0  0  0
 13  8  2  0  0  0  0
 16 12  1  0  0  0  0
 17 18  1  0  0  0  0
 17 19  1  0  0  0  0
 18 19  1  0  0  0  0
M  END
>  <minimizedAffinity>
-4.03141356

$$$$

 OpenBabel03272508343D

 19 21  0  0  0  0  0  0  0  0999 V2000
   37.1650   21.7520   34.9310 C   0  0  0  0  0  0  0  0  0  0  0  0
   36.0530   20.9520   35.0860 C   0  0  0  0  0  0  0  0  0  0  0  0
   35.5910   20.6220   33.8150 C   0  0  0  0  0  0  0  0  0  0  0  0
   36.4250   21.2240   32.9470 N   0  0  0  0  0  0  0  0  0  0  0  0
   37.3860   21.9140   33.6050 N   0  0  0  0  0  0  0  0  0  0  0  0
   35.5880   20.6170   35.9990 H   0  0  0  0  0  0  0  0  0  0  0  0
   34.7470   20.0160   33.5770 H   0  0  0  0  0  0  0  0  0  0  0  0
   39.9190   22.7530   37.2890 C   0  0  0  0  0  0  0  0  0  0  0  0
   39.3100   22.2060   36.1610 C   0  0  0  0  0  0  0  0  0  0  0  0
   37.9130   22.2890   36.0640 C   0  0  0  0  0  0  0  0  0  0  0  0
   37.2200   22.9030   37.0840 N   0  0  0  0  0  0  0  0  0  0  0  0
   37.8620   23.4220   38.1650 C   0  0  0  0  0  0  0  0  0  0  0  0
   39.1980   23.3490   38.2700 N   0  0  0  0  0  0  0  0  0  0  0  0
   40.9970   22.6890   37.3610 H   0  0  0  0  0  0  0  0  0  0  0  0
   39.8400   21.7280   35.3630 H   0  0  0  0  0  0  0  0  0  0  0  0
   37.1960   23.8740   38.8910 H   0  0  0  0  0  0  0  0  0  0  0  0
   36.3400   21.1640   31.5120 C   0  0  0  0  0  3  0  0  0  0  0  0
   37.5480   21.2870   30.6800 C   0  0  0  0  0  2  0  0  0  0  0  0
   36.9610   19.9270   30.8150 C   0  0  0  0  0  2  0  0  0  0  0  0
  1  2  1  0  0  0  0
  1 10  1  0  0  0  0
  2  6  1  0  0  0  0
  3  2  2  0  0  0  0
  4  5  1  0  0  0  0
  4  3  1  0  0  0  0
  5  1  2  0  0  0  0
  7  3  1  0  0  0  0
  8 14  1  0  0  0  0
  8 13  1  0  0  0  0
  9  8  2  0  0  0  0
 10  9  1  0  0  0  0
 10 11  2  0  0  0  0
 11 12  1  0  0  0  0
 12 13  2  0  0  0  0
 12 16  1  0  0  0  0
 15  9  1  0  0  0  0
 17  4  1  0  0  0  0
 18 19  1  0  0  0  0
 18 17  1  0  0  0  0
 19 17  1  0  0  0  0
M  END
>  <minimizedAffinity>
-3.96201086

$$$$

 OpenBabel03272508343D

 19 21  0  0  0  0  0  0  0  0999 V2000
   38.1330   24.4950   34.7060 C   0  0  0  0  0  0  0  0  0  0  0  0
   38.3400   23.7330   33.5760 C   0  0  0  0  0  0  0  0  0  0  0  0
   37.8810   24.4660   32.4840 C   0  0  0  0  0  0  0  0  0  0  0  0
   37.4200   25.6280   32.9820 N   0  0  0  0  0  0  0  0  0  0  0  0
   37.5640   25.6640   34.3270 N   0  0  0  0  0  0  0  0  0  0  0  0
   38.7710   22.7480   33.4990 H   0  0  0  0  0  0  0  0  0  0  0  0
   37.8930   24.1670   31.4620 H   0  0  0  0  0  0  0  0  0  0  0  0
   39.8460   22.8150   37.6030 C   0  0  0  0  0  0  0  0  0  0  0  0
   39.5900   23.1910   36.2850 C   0  0  0  0  0  0  0  0  0  0  0  0
   38.4980   24.0360   36.0430 C   0  0  0  0  0  0  0  0  0  0  0  0
   37.7380   24.4490   37.1150 N   0  0  0  0  0  0  0  0  0  0  0  0
   38.0290   24.0550   38.3840 C   0  0  0  0  0  0  0  0  0  0  0  0
   39.0710   23.2460   38.6290 N   0  0  0  0  0  0  0  0  0  0  0  0
   40.6900   22.1640   37.7870 H   0  0  0  0  0  0  0  0  0  0  0  0
   40.1750   22.8750   35.4450 H   0  0  0  0  0  0  0  0  0  0  0  0
   37.3500   24.4530   39.1300 H   0  0  0  0  0  0  0  0  0  0  0  0
   36.8460   26.7060   32.2210 C   0  0  0  0  0  3  0  0  0  0  0  0
   36.6740   28.0410   32.8180 C   0  0  0  0  0  2  0  0  0  0  0  0
   37.7830   27.8810   31.8400 C   0  0  0  0  0  2  0  0  0  0  0  0
  1 10  1  0  0  0  0
  2  1  1  0  0  0  0
  3  4  1  0  0  0  0
  3  2  2  0  0  0  0
  4  5  1  0  0  0  0
  5  1  2  0  0  0  0
  6  2  1  0  0  0  0
  7  3  1  0  0  0  0
  8 14  1  0  0  0  0
  8 13  1  0  0  0  0
  9  8  2  0  0  0  0
 10  9  1  0  0  0  0
 10 11  2  0  0  0  0
 11 12  1  0  0  0  0
 12 13  2  0  0  0  0
 12 16  1  0  0  0  0
 15  9  1  0  0  0  0
 17 18  1  0  0  0  0
 17  4  1  0  0  0  0
 19 17  1  0  0  0  0
 19 18  1  0  0  0  0
M  END
>  <minimizedAffinity>
-3.92270637

$$$$

 OpenBabel03272508343D

 19 21  0  0  0  0  0  0  0  0999 V2000
   39.6110   26.4140   34.7330 C   0  0  0  0  0  0  0  0  0  0  0  0
   38.8500   27.3040   35.4600 C   0  0  0  0  0  0  0  0  0  0  0  0
   38.1210   26.5710   36.3940 C   0  0  0  0  0  0  0  0  0  0  0  0
   38.4600   25.2830   36.2020 N   0  0  0  0  0  0  0  0  0  0  0  0
   39.3620   25.1670   35.2000 N   0  0  0  0  0  0  0  0  0  0  0  0
   38.7940   28.3760   35.3630 H   0  0  0  0  0  0  0  0  0  0  0  0
   37.4340   26.9530   37.1120 H   0  0  0  0  0  0  0  0  0  0  0  0
   41.0130   27.4400   31.3970 C   0  0  0  0  0  0  0  0  0  0  0  0
   40.0700   27.0360   32.3410 C   0  0  0  0  0  0  0  0  0  0  0  0
   40.5050   26.8360   33.6600 C   0  0  0  0  0  0  0  0  0  0  0  0
   41.8350   27.0470   33.9510 N   0  0  0  0  0  0  0  0  0  0  0  0
   42.7160   27.4420   32.9930 C   0  0  0  0  0  0  0  0  0  0  0  0
   42.3130   27.6360   31.7270 N   0  0  0  0  0  0  0  0  0  0  0  0
   40.6750   27.5950   30.3810 H   0  0  0  0  0  0  0  0  0  0  0  0
   39.0350   26.8700   32.1250 H   0  0  0  0  0  0  0  0  0  0  0  0
   43.7290   27.5700   33.3580 H   0  0  0  0  0  0  0  0  0  0  0  0
   37.9550   24.1560   36.9420 C   0  0  0  0  0  3  0  0  0  0  0  0
   38.8590   23.3140   37.7420 C   0  0  0  0  0  2  0  0  0  0  0  0
   37.9800   24.2540   38.4880 C   0  0  0  0  0  2  0  0  0  0  0  0
  1  5  2  0  0  0  0
  1  2  1  0  0  0  0
  2  3  2  0  0  0  0
  3  7  1  0  0  0  0
  4  3  1  0  0  0  0
  4 17  1  0  0  0  0
  5  4  1  0  0  0  0
  6  2  1  0  0  0  0
  8 13  2  0  0  0  0
  8  9  1  0  0  0  0
  9 10  2  0  0  0  0
 10 11  1  0  0  0  0
 10  1  1  0  0  0  0
 12 16  1  0  0  0  0
 12 11  2  0  0  0  0
 13 12  1  0  0  0  0
 14  8  1  0  0  0  0
 15  9  1  0  0  0  0
 17 18  1  0  0  0  0
 17 19  1  0  0  0  0
 18 19  1  0  0  0  0
M  END
>  <minimizedAffinity>
-3.87853241

$$$$

 OpenBabel03272508343D

 19 21  0  0  0  0  0  0  0  0999 V2000
   38.3610   24.6690   35.7590 C   0  0  0  0  0  0  0  0  0  0  0  0
   37.9360   24.4840   37.0570 C   0  0  0  0  0  0  0  0  0  0  0  0
   38.7100   23.4680   37.6130 C   0  0  0  0  0  0  0  0  0  0  0  0
   39.5640   23.0800   36.6470 N   0  0  0  0  0  0  0  0  0  0  0  0
   39.3670   23.7960   35.5160 N   0  0  0  0  0  0  0  0  0  0  0  0
   37.1550   25.0020   37.5890 H   0  0  0  0  0  0  0  0  0  0  0  0
   38.6410   23.0780   38.6010 H   0  0  0  0  0  0  0  0  0  0  0  0
   36.8900   27.8320   34.3510 C   0  0  0  0  0  0  0  0  0  0  0  0
   37.4560   26.9660   35.2850 C   0  0  0  0  0  0  0  0  0  0  0  0
   37.7660   25.6630   34.8700 C   0  0  0  0  0  0  0  0  0  0  0  0
   37.4950   25.3080   33.5670 N   0  0  0  0  0  0  0  0  0  0  0  0
   36.9420   26.1910   32.6920 C   0  0  0  0  0  0  0  0  0  0  0  0
   36.6400   27.4410   33.0770 N   0  0  0  0  0  0  0  0  0  0  0  0
   36.6530   28.8380   34.6730 H   0  0  0  0  0  0  0  0  0  0  0  0
   37.6710   27.2330   36.3000 H   0  0  0  0  0  0  0  0  0  0  0  0
   36.7820   25.7800   31.7020 H   0  0  0  0  0  0  0  0  0  0  0  0
   40.5610   22.0490   36.7640 C   0  0  0  0  0  3  0  0  0  0  0  0
   41.5110   21.7940   35.6690 C   0  0  0  0  0  2  0  0  0  0  0  0
   42.0400   22.5020   36.8650 C   0  0  0  0  0  2  0  0  0  0  0  0
  1  2  1  0  0  0  0
  2  6  1  0  0  0  0
  2  3  2  0  0  0  0
  3  7  1  0  0  0  0
  4 17  1  0  0  0  0
  4  3  1  0  0  0  0
  5  1  2  0  0  0  0
  5  4  1  0  0  0  0
  8 14  1  0  0  0  0
  8  9  1  0  0  0  0
  9 15  1  0  0  0  0
 10  9  2  0  0  0  0
 10  1  1  0  0  0  0
 11 10  1  0  0  0  0
 12 13  1  0  0  0  0
 12 11  2  0  0  0  0
 13  8  2  0  0  0  0
 16 12  1  0  0  0  0
 17 19  1  0  0  0  0
 18 17  1  0  0  0  0
 18 19  1  0  0  0  0
M  END
>  <minimizedAffinity>
-3.87156916

$$$$

 OpenBabel03272508343D

 19 21  0  0  0  0  0  0  0  0999 V2000
   37.3160   27.0440   34.5010 C   0  0  0  0  0  0  0  0  0  0  0  0
   37.9750   27.5330   35.6080 C   0  0  0  0  0  0  0  0  0  0  0  0
   38.4750   26.4430   36.3160 C   0  0  0  0  0  0  0  0  0  0  0  0
   38.1070   25.3490   35.6240 N   0  0  0  0  0  0  0  0  0  0  0  0
   37.4030   25.6930   34.5200 N   0  0  0  0  0  0  0  0  0  0  0  0
   38.1070   28.5590   35.9140 H   0  0  0  0  0  0  0  0  0  0  0  0
   39.0340   26.4700   37.2220 H   0  0  0  0  0  0  0  0  0  0  0  0
   35.2210   29.7130   32.8750 C   0  0  0  0  0  0  0  0  0  0  0  0
   35.7880   28.9460   33.8920 C   0  0  0  0  0  0  0  0  0  0  0  0
   36.6630   27.9130   33.5260 C   0  0  0  0  0  0  0  0  0  0  0  0
   36.9150   27.7110   32.1860 N   0  0  0  0  0  0  0  0  0  0  0  0
   36.3370   28.4880   31.2310 C   0  0  0  0  0  0  0  0  0  0  0  0
   35.4970   29.4800   31.5690 N   0  0  0  0  0  0  0  0  0  0  0  0
   34.5480   30.5110   33.1610 H   0  0  0  0  0  0  0  0  0  0  0  0
   35.5990   29.0960   34.9360 H   0  0  0  0  0  0  0  0  0  0  0  0
   36.6210   28.2200   30.2200 H   0  0  0  0  0  0  0  0  0  0  0  0
   38.4020   23.9860   35.9780 C   0  0  0  0  0  3  0  0  0  0  0  0
   38.8360   23.6390   37.3410 C   0  0  0  0  0  2  0  0  0  0  0  0
   37.4390   23.2870   36.9710 C   0  0  0  0  0  2  0  0  0  0  0  0
  1  5  2  0  0  0  0
  1  2  1  0  0  0  0
  2  6  1  0  0  0  0
  2  3  2  0  0  0  0
  3  7  1  0  0  0  0
  4 17  1  0  0  0  0
  4  3  1  0  0  0  0
  5  4  1  0  0  0  0
  8 14  1  0  0  0  0
  8  9  1  0  0  0  0
  9 15  1  0  0  0  0
 10  9  2  0  0  0  0
 10  1  1  0  0  0  0
 11 10  1  0  0  0  0
 12 13  1  0  0  0  0
 12 11  2  0  0  0  0
 13  8  2  0  0  0  0
 16 12  1  0  0  0  0
 17 19  1  0  0  0  0
 17 18  1  0  0  0  0
 19 18  1  0  0  0  0
M  END
>  <minimizedAffinity>
-3.85270619

$$$$

 OpenBabel03272508343D

 19 21  0  0  0  0  0  0  0  0999 V2000
   35.8160   28.8100   33.8460 C   0  0  0  0  0  0  0  0  0  0  0  0
   36.7210   27.9290   34.3970 C   0  0  0  0  0  0  0  0  0  0  0  0
   36.9820   26.9450   33.4470 C   0  0  0  0  0  0  0  0  0  0  0  0
   36.2380   27.2590   32.3710 N   0  0  0  0  0  0  0  0  0  0  0  0
   35.5240   28.3870   32.5940 N   0  0  0  0  0  0  0  0  0  0  0  0
   37.1730   27.9530   35.3760 H   0  0  0  0  0  0  0  0  0  0  0  0
   37.6380   26.1120   33.5510 H   0  0  0  0  0  0  0  0  0  0  0  0
   35.5140   31.8060   36.1010 C   0  0  0  0  0  0  0  0  0  0  0  0
   36.0980   30.7100   35.4680 C   0  0  0  0  0  0  0  0  0  0  0  0
   35.3130   29.9760   34.5670 C   0  0  0  0  0  0  0  0  0  0  0  0
   34.0110   30.3740   34.3570 N   0  0  0  0  0  0  0  0  0  0  0  0
   33.4870   31.4520   35.0000 C   0  0  0  0  0  0  0  0  0  0  0  0
   34.2270   32.1630   35.8640 N   0  0  0  0  0  0  0  0  0  0  0  0
   36.1220   32.3720   36.7950 H   0  0  0  0  0  0  0  0  0  0  0  0
   37.1090   30.3930   35.6250 H   0  0  0  0  0  0  0  0  0  0  0  0
   32.4530   31.6520   34.7420 H   0  0  0  0  0  0  0  0  0  0  0  0
   36.1820   26.5230   31.1360 C   0  0  0  0  0  3  0  0  0  0  0  0
   36.4320   25.0720   31.1130 C   0  0  0  0  0  2  0  0  0  0  0  0
   35.0190   25.5120   30.9650 C   0  0  0  0  0  2  0  0  0  0  0  0
  1  2  1  0  0  0  0
  1 10  1  0  0  0  0
  2  6  1  0  0  0  0
  3  7  1  0  0  0  0
  3  2  2  0  0  0  0
  4  5  1  0  0  0  0
  4  3  1  0  0  0  0
  5  1  2  0  0  0  0
  8 14  1  0  0  0  0
  9 15  1  0  0  0  0
  9  8  2  0  0  0  0
 10  9  1  0  0  0  0
 11 10  2  0  0  0  0
 11 12  1  0  0  0  0
 12 13  2  0  0  0  0
 13  8  1  0  0  0  0
 16 12  1  0  0  0  0
 17  4  1  0  0  0  0
 18 17  1  0  0  0  0
 19 18  1  0  0  0  0
 19 17  1  0  0  0  0
M  END
>  <minimizedAffinity>
-3.82018328

$$$$
