
 OpenBabel03262522023D

 33 36  0  0  1  0  0  0  0  0999 V2000
   34.5520   29.1860   48.6030 C   0  0  2  0  0  0  0  0  0  0  0  0
   35.1660   28.4460   49.7430 C   0  0  0  0  0  0  0  0  0  0  0  0
   36.3130   29.2000   50.2260 N   0  0  0  0  0  0  0  0  0  0  0  0
   37.2580   29.9110   51.0400 C   0  0  0  0  0  0  0  0  0  0  0  0
   37.4660   30.0870   52.2600 O   0  0  0  0  0  0  0  0  0  0  0  0
   38.0030   30.4400   49.8970 C   0  0  1  0  0  0  0  0  0  0  0  0
   37.1880   29.4520   49.1080 C   0  0  2  0  0  0  0  0  0  0  0  0
   35.9630   30.1870   47.9810 S   0  0  0  0  0  0  0  0  0  0  0  0
   35.4330   27.4010   49.5210 H   0  0  0  0  0  0  0  0  0  0  0  0
   34.4200   28.4030   50.5690 H   0  0  0  0  0  0  0  0  0  0  0  0
   39.0650   30.1750   49.7650 H   0  0  0  0  0  0  0  0  0  0  0  0
   37.7170   28.5760   48.6980 H   0  0  0  0  0  0  0  0  0  0  0  0
   33.3510   30.0120   48.9340 C   0  0  0  0  0  0  0  0  0  0  0  0
   33.2990   30.1150   50.0520 H   0  0  0  0  0  0  0  0  0  0  0  0
   32.3980   29.5360   48.6160 H   0  0  0  0  0  0  0  0  0  0  0  0
   33.4900   31.0260   48.5240 H   0  0  0  0  0  0  0  0  0  0  0  0
   34.2510   28.2050   47.4620 C   0  0  0  0  0  0  0  0  0  0  0  0
   35.0750   28.1440   46.7530 H   0  0  0  0  0  0  0  0  0  0  0  0
   33.3600   28.5900   46.9210 H   0  0  0  0  0  0  0  0  0  0  0  0
   33.8900   26.8410   47.9860 C   0  0  0  0  0  0  0  0  0  0  0  0
   32.5170   26.3480   47.5170 C   0  0  0  0  0  0  0  0  0  0  0  0
   33.7630   25.6840   47.0620 C   0  0  0  0  0  0  0  0  0  0  0  0
   37.7870   31.8710   49.6000 C   0  0  0  0  0  0  0  0  0  0  0  0
   36.8000   32.3790   50.2040 O   0  0  0  0  0  0  0  0  0  0  0  0
   38.6320   32.6170   48.7030 C   0  0  0  0  0  0  0  0  0  0  0  0
   39.1580   33.8140   49.1660 C   0  0  0  0  0  0  0  0  0  0  0  0
   39.9890   34.5500   48.2840 C   0  0  0  0  0  0  0  0  0  0  0  0
   40.2200   34.0340   47.0340 N   0  0  0  0  0  0  0  0  0  0  0  0
   39.6920   32.8840   46.6390 C   0  0  0  0  0  0  0  0  0  0  0  0
   38.9010   32.1710   47.4630 N   0  0  0  0  0  0  0  0  0  0  0  0
   38.9310   34.1570   50.1690 H   0  0  0  0  0  0  0  0  0  0  0  0
   40.3690   35.4610   48.6860 H   0  0  0  0  0  0  0  0  0  0  0  0
   39.9530   32.5890   45.6310 H   0  0  0  0  0  0  0  0  0  0  0  0
  1 17  1  6  0  0  0
  1 13  1  0  0  0  0
  1  2  1  0  0  0  0
  2  3  1  0  0  0  0
  2 10  1  0  0  0  0
  3  4  1  0  0  0  0
  4  5  2  0  0  0  0
  6 11  1  1  0  0  0
  6  4  1  0  0  0  0
  7 12  1  6  0  0  0
  7  6  1  0  0  0  0
  7  3  1  0  0  0  0
  8  1  1  0  0  0  0
  8  7  1  0  0  0  0
  9  2  1  0  0  0  0
 13 14  1  0  0  0  0
 15 13  1  0  0  0  0
 16 13  1  0  0  0  0
 17 20  1  0  0  0  0
 18 17  1  0  0  0  0
 19 17  1  0  0  0  0
 21 20  1  0  0  0  0
 22 21  1  0  0  0  0
 22 20  1  0  0  0  0
 23  6  1  0  0  0  0
 23 24  2  0  0  0  0
 25 26  1  0  0  0  0
 25 23  1  0  0  0  0
 26 31  1  0  0  0  0
 27 32  1  0  0  0  0
 27 26  2  0  0  0  0
 28 27  1  0  0  0  0
 29 28  2  0  0  0  0
 29 30  1  0  0  0  0
 30 25  2  0  0  0  0
 33 29  1  0  0  0  0
M  END
>  <minimizedAffinity>
-4.98743868

>  <minimizedRMSD>
0.440119863

$$$$
