
 OpenBabel03272510303D

 22 24  0  0  0  0  0  0  0  0999 V2000
   37.3580   31.3570   49.1900 C   0  0  0  0  0  0  0  0  0  0  0  0
   37.5760   32.6630   49.6340 C   0  0  0  0  0  0  0  0  0  0  0  0
   38.4760   33.4060   48.9010 C   0  0  0  0  0  0  0  0  0  0  0  0
   39.0920   32.8490   47.8090 N   0  0  0  0  0  0  0  0  0  0  0  0
   38.8420   31.5620   47.4160 C   0  0  0  0  0  0  0  0  0  0  0  0
   37.9520   30.7990   48.1290 N   0  0  0  0  0  0  0  0  0  0  0  0
   37.0670   33.0600   50.5000 H   0  0  0  0  0  0  0  0  0  0  0  0
   38.7110   34.4290   49.1670 H   0  0  0  0  0  0  0  0  0  0  0  0
   36.3550   30.5280   49.9520 C   0  0  0  0  0  0  0  0  0  0  0  0
   36.3330   29.0890   49.9140 C   0  0  0  0  0  0  0  0  0  0  0  0
   36.9920   29.7480   51.1140 C   0  0  0  0  0  0  0  0  0  0  0  0
   35.4310   31.1090   50.2480 H   0  0  0  0  0  0  0  0  0  0  0  0
   35.3510   28.5890   50.0710 H   0  0  0  0  0  0  0  0  0  0  0  0
   37.0140   28.5070   49.2620 H   0  0  0  0  0  0  0  0  0  0  0  0
   36.4230   29.7130   52.0720 H   0  0  0  0  0  0  0  0  0  0  0  0
   38.0810   29.7530   51.2200 H   0  0  0  0  0  0  0  0  0  0  0  0
   39.4790   30.9450   46.2430 C   0  0  0  0  0  0  0  0  0  0  0  0
   40.4930   31.3500   46.0560 H   0  0  0  0  0  0  0  0  0  0  0  0
   39.6170   29.8610   46.4340 H   0  0  0  0  0  0  0  0  0  0  0  0
   38.5960   31.0820   45.0250 C   0  0  0  0  0  3  0  0  0  0  0  0
   37.1270   31.0350   45.1280 C   0  0  0  0  0  2  0  0  0  0  0  0
   37.8700   32.3350   44.7600 C   0  0  0  0  0  2  0  0  0  0  0  0
  1  2  1  0  0  0  0
  1  9  1  0  0  0  0
  2  7  1  0  0  0  0
  3  8  1  0  0  0  0
  3  2  2  0  0  0  0
  4  3  1  0  0  0  0
  5  4  2  0  0  0  0
  5  6  1  0  0  0  0
  6  1  2  0  0  0  0
  9 12  1  0  0  0  0
  9 11  1  0  0  0  0
 10  9  1  0  0  0  0
 10 13  1  0  0  0  0
 10 11  1  0  0  0  0
 11 16  1  0  0  0  0
 11 15  1  0  0  0  0
 14 10  1  0  0  0  0
 17 19  1  0  0  0  0
 17  5  1  0  0  0  0
 18 17  1  0  0  0  0
 20 21  1  0  0  0  0
 20 17  1  0  0  0  0
 22 20  1  0  0  0  0
 22 21  1  0  0  0  0
M  END
>  <minimizedAffinity>
-4.7590785

>  <minimizedRMSD>
0.230478838

$$$$
