
 OpenBabel03272510303D

 22 24  0  0  0  0  0  0  0  0999 V2000
   37.2110   31.3380   49.1940 C   0  0  0  0  0  0  0  0  0  0  0  0
   37.3990   32.5840   49.7960 C   0  0  0  0  0  0  0  0  0  0  0  0
   38.3460   33.3970   49.2140 C   0  0  0  0  0  0  0  0  0  0  0  0
   39.0340   32.9620   48.1090 N   0  0  0  0  0  0  0  0  0  0  0  0
   38.8110   31.7300   47.5570 C   0  0  0  0  0  0  0  0  0  0  0  0
   37.8740   30.8990   48.1180 N   0  0  0  0  0  0  0  0  0  0  0  0
   36.8340   32.8840   50.6660 H   0  0  0  0  0  0  0  0  0  0  0  0
   38.5630   34.3810   49.6090 H   0  0  0  0  0  0  0  0  0  0  0  0
   36.1590   30.4360   49.7880 C   0  0  0  0  0  0  0  0  0  0  0  0
   36.1460   29.0090   49.5960 C   0  0  0  0  0  0  0  0  0  0  0  0
   36.7130   29.5340   50.9040 C   0  0  0  0  0  0  0  0  0  0  0  0
   35.2130   30.9860   50.0760 H   0  0  0  0  0  0  0  0  0  0  0  0
   35.1570   28.4980   49.6270 H   0  0  0  0  0  0  0  0  0  0  0  0
   36.8750   28.4970   48.9370 H   0  0  0  0  0  0  0  0  0  0  0  0
   36.0770   29.3990   51.8090 H   0  0  0  0  0  0  0  0  0  0  0  0
   37.7920   29.5240   51.0880 H   0  0  0  0  0  0  0  0  0  0  0  0
   39.5240   31.2450   46.3670 C   0  0  0  0  0  0  0  0  0  0  0  0
   39.9580   32.0740   45.7720 H   0  0  0  0  0  0  0  0  0  0  0  0
   40.3850   30.6220   46.6880 H   0  0  0  0  0  0  0  0  0  0  0  0
   38.6220   30.3730   45.5240 C   0  0  0  0  0  3  0  0  0  0  0  0
   38.0210   30.8630   44.2720 C   0  0  0  0  0  2  0  0  0  0  0  0
   39.1110   29.7730   44.2740 C   0  0  0  0  0  2  0  0  0  0  0  0
  1  9  1  0  0  0  0
  1  2  1  0  0  0  0
  2  7  1  0  0  0  0
  3  8  1  0  0  0  0
  3  2  2  0  0  0  0
  4  3  1  0  0  0  0
  5  4  2  0  0  0  0
  5  6  1  0  0  0  0
  6  1  2  0  0  0  0
  9 12  1  0  0  0  0
  9 11  1  0  0  0  0
 10 13  1  0  0  0  0
 10  9  1  0  0  0  0
 10 11  1  0  0  0  0
 11 16  1  0  0  0  0
 11 15  1  0  0  0  0
 14 10  1  0  0  0  0
 17 19  1  0  0  0  0
 17  5  1  0  0  0  0
 18 17  1  0  0  0  0
 20 17  1  0  0  0  0
 21 22  1  0  0  0  0
 21 20  1  0  0  0  0
 22 20  1  0  0  0  0
M  END
>  <minimizedAffinity>
-4.80029011

>  <minimizedRMSD>
0.645862997

$$$$
