
 OpenBabel03272509583D

 40 43  0  0  0  0  0  0  0  0999 V2000
   35.0610   28.4590   49.0740 O   0  0  0  0  0  0  0  0  0  0  0  0
   37.2590   30.1090   51.4290 C   0  0  0  0  0  0  0  0  0  0  0  0
   38.0430   30.8700   50.5320 C   0  0  0  0  0  0  0  0  0  0  0  0
   37.7680   30.7710   49.1780 C   0  0  0  0  0  0  0  0  0  0  0  0
   36.7440   29.9260   48.8300 N   0  0  0  0  0  0  0  0  0  0  0  0
   36.0180   29.2170   49.6880 C   0  0  0  0  0  0  0  0  0  0  0  0
   36.2870   29.3170   51.0070 N   0  0  0  0  0  0  0  0  0  0  0  0
   37.4930   30.2050   52.4820 H   0  0  0  0  0  0  0  0  0  0  0  0
   38.8450   31.5300   50.8210 H   0  0  0  0  0  0  0  0  0  0  0  0
   38.8310   33.4640   49.2180 F   0  0  0  0  0  0  0  0  0  0  0  0
   38.9630   32.7300   48.1310 C   0  0  0  0  0  0  0  0  0  0  0  0
   38.4620   31.4710   48.1210 C   0  0  0  0  0  0  0  0  0  0  0  0
   38.6520   30.7790   46.9280 C   0  0  0  0  0  0  0  0  0  0  0  0
   39.3010   31.3440   45.8510 C   0  0  0  0  0  0  0  0  0  0  0  0
   39.7900   32.6220   45.9050 C   0  0  0  0  0  0  0  0  0  0  0  0
   39.6150   33.3150   47.0640 C   0  0  0  0  0  0  0  0  0  0  0  0
   38.3070   29.7650   46.7750 H   0  0  0  0  0  0  0  0  0  0  0  0
   39.4420   30.7940   44.9260 H   0  0  0  0  0  0  0  0  0  0  0  0
   40.3070   33.0930   45.0670 H   0  0  0  0  0  0  0  0  0  0  0  0
   39.9970   34.3220   47.1160 H   0  0  0  0  0  0  0  0  0  0  0  0
   34.4080   28.9700   47.9250 C   0  0  0  0  0  0  0  0  0  0  0  0
   33.7450   29.7870   48.2380 H   0  0  0  0  0  0  0  0  0  0  0  0
   35.1950   29.2810   47.1930 H   0  0  0  0  0  0  0  0  0  0  0  0
   33.5800   27.9080   47.2570 C   0  0  0  0  0  0  0  0  0  0  0  0
   33.7030   27.9160   46.1460 H   0  0  0  0  0  0  0  0  0  0  0  0
   33.9220   26.9210   47.5820 H   0  0  0  0  0  0  0  0  0  0  0  0
   32.1250   28.0600   47.5710 C   0  0  0  0  0  0  0  0  0  0  0  0
   31.6680   27.5250   48.7590 C   0  0  0  0  0  0  0  0  0  0  0  0
   30.3560   27.6080   49.1430 C   0  0  0  0  0  0  0  0  0  0  0  0
   29.4900   28.2230   48.3510 N   0  0  0  0  0  0  0  0  0  0  0  0
   29.9420   28.7480   47.1850 C   0  0  0  0  0  0  0  0  0  0  0  0
   31.2280   28.6770   46.7860 N   0  0  0  0  0  0  0  0  0  0  0  0
   32.3670   27.0200   49.4140 H   0  0  0  0  0  0  0  0  0  0  0  0
   30.0660   27.1580   50.1030 H   0  0  0  0  0  0  0  0  0  0  0  0
   28.9500   29.4430   46.2940 C   0  0  0  0  0  0  0  0  0  0  0  0
   28.3040   30.1170   46.9100 H   0  0  0  0  0  0  0  0  0  0  0  0
   28.2960   28.6850   45.7900 H   0  0  0  0  0  0  0  0  0  0  0  0
   29.6220   30.2430   45.2270 C   0  0  0  0  0  3  0  0  0  0  0  0
   28.8790   30.1870   43.8770 C   0  0  0  0  0  2  0  0  0  0  0  0
   29.0480   31.4610   44.6410 C   0  0  0  0  0  2  0  0  0  0  0  0
  1  6  1  0  0  0  0
  2  8  1  0  0  0  0
  3  9  1  0  0  0  0
  3  2  2  0  0  0  0
  4  3  1  0  0  0  0
  5  4  2  0  0  0  0
  5  6  1  0  0  0  0
  6  7  2  0  0  0  0
  7  2  1  0  0  0  0
 11 10  1  0  0  0  0
 12 11  1  0  0  0  0
 12  4  1  0  0  0  0
 13 12  2  0  0  0  0
 14 15  2  0  0  0  0
 14 13  1  0  0  0  0
 15 16  1  0  0  0  0
 16 20  1  0  0  0  0
 16 11  2  0  0  0  0
 17 13  1  0  0  0  0
 18 14  1  0  0  0  0
 19 15  1  0  0  0  0
 21 22  1  0  0  0  0
 21  1  1  0  0  0  0
 23 21  1  0  0  0  0
 24 27  1  0  0  0  0
 24 26  1  0  0  0  0
 24 21  1  0  0  0  0
 25 24  1  0  0  0  0
 27 28  1  0  0  0  0
 28 29  2  0  0  0  0
 28 33  1  0  0  0  0
 29 34  1  0  0  0  0
 30 29  1  0  0  0  0
 31 30  2  0  0  0  0
 32 31  1  0  0  0  0
 32 27  2  0  0  0  0
 35 36  1  0  0  0  0
 35 31  1  0  0  0  0
 37 35  1  0  0  0  0
 38 35  1  0  0  0  0
 39 40  1  0  0  0  0
 39 38  1  0  0  0  0
 40 38  1  0  0  0  0
M  END
>  <minimizedAffinity>
-6.10161543

>  <minimizedRMSD>
0.943102181

$$$$
