
 OpenBabel03272509583D

 40 43  0  0  0  0  0  0  0  0999 V2000
   34.4750   28.8130   49.6600 O   0  0  0  0  0  0  0  0  0  0  0  0
   37.2220   29.9830   51.7030 C   0  0  0  0  0  0  0  0  0  0  0  0
   37.9900   30.6450   50.7170 C   0  0  0  0  0  0  0  0  0  0  0  0
   37.5160   30.6480   49.4150 C   0  0  0  0  0  0  0  0  0  0  0  0
   36.3270   29.9970   49.2020 N   0  0  0  0  0  0  0  0  0  0  0  0
   35.6200   29.3790   50.1430 C   0  0  0  0  0  0  0  0  0  0  0  0
   36.0820   29.3780   51.4110 N   0  0  0  0  0  0  0  0  0  0  0  0
   37.6130   29.9960   52.7130 H   0  0  0  0  0  0  0  0  0  0  0  0
   38.9220   31.1530   50.8990 H   0  0  0  0  0  0  0  0  0  0  0  0
   38.8870   33.1980   49.3200 F   0  0  0  0  0  0  0  0  0  0  0  0
   38.8070   32.4620   48.2280 C   0  0  0  0  0  0  0  0  0  0  0  0
   38.1630   31.2710   48.2820 C   0  0  0  0  0  0  0  0  0  0  0  0
   38.1330   30.5720   47.0790 C   0  0  0  0  0  0  0  0  0  0  0  0
   38.7170   31.0650   45.9320 C   0  0  0  0  0  0  0  0  0  0  0  0
   39.3570   32.2760   45.9230 C   0  0  0  0  0  0  0  0  0  0  0  0
   39.3970   32.9750   47.0910 C   0  0  0  0  0  0  0  0  0  0  0  0
   37.6550   29.6070   46.9720 H   0  0  0  0  0  0  0  0  0  0  0  0
   38.6860   30.5100   45.0000 H   0  0  0  0  0  0  0  0  0  0  0  0
   39.8270   32.6890   45.0300 H   0  0  0  0  0  0  0  0  0  0  0  0
   39.8990   33.9290   47.0940 H   0  0  0  0  0  0  0  0  0  0  0  0
   34.4380   28.3720   48.3130 C   0  0  0  0  0  0  0  0  0  0  0  0
   34.1400   29.2180   47.6800 H   0  0  0  0  0  0  0  0  0  0  0  0
   35.4420   27.9490   48.0630 H   0  0  0  0  0  0  0  0  0  0  0  0
   33.4370   27.2640   48.1350 C   0  0  0  0  0  0  0  0  0  0  0  0
   33.7050   26.5890   47.2850 H   0  0  0  0  0  0  0  0  0  0  0  0
   33.4350   26.6280   49.0250 H   0  0  0  0  0  0  0  0  0  0  0  0
   32.0580   27.7950   47.8980 C   0  0  0  0  0  0  0  0  0  0  0  0
   31.0730   27.4420   48.7990 C   0  0  0  0  0  0  0  0  0  0  0  0
   29.7790   27.8730   48.6760 C   0  0  0  0  0  0  0  0  0  0  0  0
   29.4550   28.6570   47.6580 N   0  0  0  0  0  0  0  0  0  0  0  0
   30.4240   29.0020   46.7750 C   0  0  0  0  0  0  0  0  0  0  0  0
   31.7030   28.5900   46.8760 N   0  0  0  0  0  0  0  0  0  0  0  0
   31.3280   26.8020   49.6340 H   0  0  0  0  0  0  0  0  0  0  0  0
   29.0500   27.5500   49.4330 H   0  0  0  0  0  0  0  0  0  0  0  0
   30.0440   29.8920   45.6250 C   0  0  0  0  0  0  0  0  0  0  0  0
   29.4240   30.7440   46.0000 H   0  0  0  0  0  0  0  0  0  0  0  0
   29.4400   29.3120   44.8790 H   0  0  0  0  0  0  0  0  0  0  0  0
   31.2420   30.4300   44.9150 C   0  0  0  0  0  3  0  0  0  0  0  0
   30.9180   31.6510   44.0300 C   0  0  0  0  0  2  0  0  0  0  0  0
   31.8400   31.7410   45.2050 C   0  0  0  0  0  2  0  0  0  0  0  0
  1  6  1  0  0  0  0
  2  8  1  0  0  0  0
  3  9  1  0  0  0  0
  3  2  2  0  0  0  0
  4  3  1  0  0  0  0
  5  4  2  0  0  0  0
  5  6  1  0  0  0  0
  6  7  2  0  0  0  0
  7  2  1  0  0  0  0
 11 12  1  0  0  0  0
 11 10  1  0  0  0  0
 12  4  1  0  0  0  0
 13 12  2  0  0  0  0
 14 13  1  0  0  0  0
 15 14  2  0  0  0  0
 15 16  1  0  0  0  0
 16 20  1  0  0  0  0
 16 11  2  0  0  0  0
 17 13  1  0  0  0  0
 18 14  1  0  0  0  0
 19 15  1  0  0  0  0
 21  1  1  0  0  0  0
 22 21  1  0  0  0  0
 23 21  1  0  0  0  0
 24 21  1  0  0  0  0
 24 26  1  0  0  0  0
 25 24  1  0  0  0  0
 27 24  1  0  0  0  0
 27 28  1  0  0  0  0
 28 33  1  0  0  0  0
 29 28  2  0  0  0  0
 29 34  1  0  0  0  0
 30 29  1  0  0  0  0
 31 32  1  0  0  0  0
 31 30  2  0  0  0  0
 32 27  2  0  0  0  0
 35 36  1  0  0  0  0
 35 31  1  0  0  0  0
 37 35  1  0  0  0  0
 38 40  1  0  0  0  0
 38 35  1  0  0  0  0
 39 38  1  0  0  0  0
 39 40  1  0  0  0  0
M  END
>  <minimizedAffinity>
-6.15006256

>  <minimizedRMSD>
0.485570937

$$$$
