
 OpenBabel03272508423D

 14 15  0  0  0  0  0  0  0  0999 V2000
   37.4570   30.4430   50.8770 C   0  0  0  0  0  0  0  0  0  0  0  0
   38.3610   31.3020   50.2090 C   0  0  0  0  0  0  0  0  0  0  0  0
   38.0750   31.6440   48.8870 C   0  0  0  0  0  0  0  0  0  0  0  0
   36.9550   31.1350   48.3330 N   0  0  0  0  0  0  0  0  0  0  0  0
   36.1110   30.3200   48.9930 C   0  0  0  0  0  0  0  0  0  0  0  0
   36.3550   29.9730   50.2520 N   0  0  0  0  0  0  0  0  0  0  0  0
   37.6850   30.1810   51.9020 H   0  0  0  0  0  0  0  0  0  0  0  0
   39.2530   31.6970   50.6750 H   0  0  0  0  0  0  0  0  0  0  0  0
   38.7400   32.2980   48.3380 H   0  0  0  0  0  0  0  0  0  0  0  0
   34.9100   29.7830   48.3710 C   0  0  0  0  0  0  0  0  0  0  0  0
   34.0120   29.1820   49.0010 O   0  0  0  0  0  0  0  0  0  0  0  0
   34.6310   29.8970   46.9100 C   0  0  0  0  0  3  0  0  0  0  0  0
   33.2670   30.2460   46.4440 C   0  0  0  0  0  2  0  0  0  0  0  0
   33.8500   28.8370   46.2130 C   0  0  0  0  0  2  0  0  0  0  0  0
  1  7  1  0  0  0  0
  2  8  1  0  0  0  0
  2  1  2  0  0  0  0
  3  2  1  0  0  0  0
  4  3  2  0  0  0  0
  4  5  1  0  0  0  0
  5  6  2  0  0  0  0
  6  1  1  0  0  0  0
  9  3  1  0  0  0  0
 10  5  1  0  0  0  0
 10 11  2  0  0  0  0
 12 10  1  0  0  0  0
 13 12  1  0  0  0  0
 14 13  1  0  0  0  0
 14 12  1  0  0  0  0
M  END
>  <minimizedAffinity>
-3.52830386

>  <minimizedRMSD>
2.35693836

$$$$
