
 OpenBabel03262521153D

 13 14  0  0  0  0  0  0  0  0999 V2000
   36.7550   31.2170   49.9880 C   0  0  0  0  0  0  0  0  0  0  0  0
   35.5050   30.8010   49.5240 C   0  0  0  0  0  0  0  0  0  0  0  0
   34.9070   29.7160   50.1620 C   0  0  0  0  0  0  0  0  0  0  0  0
   35.5690   29.1200   51.2000 N   0  0  0  0  0  0  0  0  0  0  0  0
   36.7790   29.5510   51.6200 C   0  0  0  0  0  0  0  0  0  0  0  0
   37.3710   30.5980   51.0150 N   0  0  0  0  0  0  0  0  0  0  0  0
   34.9570   31.2340   48.7270 H   0  0  0  0  0  0  0  0  0  0  0  0
   33.9470   29.3110   49.8900 H   0  0  0  0  0  0  0  0  0  0  0  0
   37.2980   29.0740   52.4410 H   0  0  0  0  0  0  0  0  0  0  0  0
   37.2320   32.3030   49.2640 O   0  0  0  0  0  0  0  0  0  0  0  0
   38.6120   32.5390   49.2710 C   0  0  0  0  0  0  0  0  0  0  0  0
   39.1470   33.0620   47.9280 C   0  0  0  0  0  0  0  0  0  0  0  0
   39.1930   33.8870   49.1910 C   0  0  0  0  0  0  0  0  0  0  0  0
  1  6  1  0  0  0  0
  2  1  2  0  0  0  0
  2  3  1  0  0  0  0
  3  4  2  0  0  0  0
  4  5  1  0  0  0  0
  5  9  1  0  0  0  0
  6  5  2  0  0  0  0
  7  2  1  0  0  0  0
  8  3  1  0  0  0  0
 10 11  1  0  0  0  0
 10  1  1  0  0  0  0
 12 13  1  0  0  0  0
 12 11  1  0  0  0  0
 13 11  1  0  0  0  0
M  END
>  <minimizedAffinity>
-3.93146086

>  <minimizedRMSD>
4.48694706

$$$$
