
 OpenBabel03272507273D

 33 35  0  0  1  0  0  0  0  0999 V2000
   36.2360   29.5130   49.4130 C   0  0  0  0  0  0  0  0  0  0  0  0
   37.0890   30.1950   48.5210 C   0  0  0  0  0  0  0  0  0  0  0  0
   36.6250   30.4140   47.2180 C   0  0  0  0  0  0  0  0  0  0  0  0
   35.4090   29.9660   46.8950 N   0  0  0  0  0  0  0  0  0  0  0  0
   34.6180   29.3190   47.7650 C   0  0  0  0  0  0  0  0  0  0  0  0
   35.0320   29.0960   49.0190 N   0  0  0  0  0  0  0  0  0  0  0  0
   37.4360   31.0880   46.2890 N   0  0  0  0  0  0  0  0  0  0  0  0
   38.4540   32.0930   46.6200 C   0  0  0  0  0  0  0  0  0  0  0  0
   38.8840   32.7160   45.3230 C   0  0  0  0  0  0  0  0  0  0  0  0
   37.7870   32.3570   44.4030 C   0  0  0  0  0  0  0  0  0  0  0  0
   37.4490   30.9480   44.8670 C   0  0  2  0  0  0  0  0  0  0  0  0
   36.7000   29.3990   50.4040 H   0  0  0  0  0  0  0  0  0  0  0  0
   38.0720   30.5630   48.7610 H   0  0  0  0  0  0  0  0  0  0  0  0
   33.6290   28.9470   47.5290 H   0  0  0  0  0  0  0  0  0  0  0  0
   39.2900   31.5050   47.0550 H   0  0  0  0  0  0  0  0  0  0  0  0
   38.0480   32.8030   47.3380 H   0  0  0  0  0  0  0  0  0  0  0  0
   38.8400   33.8290   45.4870 H   0  0  0  0  0  0  0  0  0  0  0  0
   39.9000   32.4620   45.0230 H   0  0  0  0  0  0  0  0  0  0  0  0
   38.0550   32.3760   43.3280 H   0  0  0  0  0  0  0  0  0  0  0  0
   36.9290   33.0320   44.5410 H   0  0  0  0  0  0  0  0  0  0  0  0
   36.2350   30.4050   44.2040 C   0  0  0  0  0  0  0  0  0  0  0  0
   35.1430   31.0320   44.7900 F   0  0  0  0  0  0  0  0  0  0  0  0
   36.0480   29.0650   44.3190 F   0  0  0  0  0  0  0  0  0  0  0  0
   36.2690   30.8390   42.8910 F   0  0  0  0  0  0  0  0  0  0  0  0
   38.6050   30.0690   44.5530 C   0  0  0  0  0  0  0  0  0  0  0  0
   38.4250   29.1250   45.1100 H   0  0  0  0  0  0  0  0  0  0  0  0
   39.5010   30.5340   45.0690 H   0  0  0  0  0  0  0  0  0  0  0  0
   38.8210   30.1830   43.3330 O   0  0  0  0  0  0  0  0  0  0  0  0
   39.3360   29.4140   42.3540 C   0  0  0  0  0  0  0  0  0  0  0  0
   38.4130   28.6980   41.8910 O   0  0  0  0  0  0  0  0  0  0  0  0
   40.2960   28.8390   41.4350 C   0  0  0  0  0  3  0  0  0  0  0  0
   41.2360   29.6200   40.6090 C   0  0  0  0  0  2  0  0  0  0  0  0
   41.7600   28.9710   41.8120 C   0  0  0  0  0  2  0  0  0  0  0  0
  1 12  1  0  0  0  0
  2 13  1  0  0  0  0
  2  1  2  0  0  0  0
  3  2  1  0  0  0  0
  4  3  2  0  0  0  0
  4  5  1  0  0  0  0
  5  6  2  0  0  0  0
  6  1  1  0  0  0  0
  7  8  1  0  0  0  0
  7  3  1  0  0  0  0
  8 15  1  0  0  0  0
  8 16  1  0  0  0  0
  9 17  1  0  0  0  0
  9  8  1  0  0  0  0
 10 20  1  0  0  0  0
 10 11  1  0  0  0  0
 10  9  1  0  0  0  0
 11 21  1  6  0  0  0
 11  7  1  0  0  0  0
 14  5  1  0  0  0  0
 18  9  1  0  0  0  0
 19 10  1  0  0  0  0
 21 23  1  0  0  0  0
 21 22  1  0  0  0  0
 24 21  1  0  0  0  0
 25 11  1  0  0  0  0
 25 27  1  0  0  0  0
 25 26  1  0  0  0  0
 28 25  1  0  0  0  0
 29 28  1  0  0  0  0
 30 29  2  0  0  0  0
 31 33  1  0  0  0  0
 31 29  1  0  0  0  0
 32 31  1  0  0  0  0
 32 33  1  0  0  0  0
M  END
>  <minimizedAffinity>
-4.17404556

>  <minimizedRMSD>
1.45593584

$$$$
