
 OpenBabel03272509403D

 29 31  0  0  0  0  0  0  0  0999 V2000
   37.0350   30.9540   49.0630 C   0  0  0  0  0  0  0  0  0  0  0  0
   36.7200   31.8510   50.0970 C   0  0  0  0  0  0  0  0  0  0  0  0
   37.3000   33.1130   50.1690 C   0  0  0  0  0  0  0  0  0  0  0  0
   38.2200   33.5210   49.2020 C   0  0  0  0  0  0  0  0  0  0  0  0
   38.5110   32.6260   48.2020 C   0  0  0  0  0  0  0  0  0  0  0  0
   37.9260   31.3730   48.1450 C   0  0  0  0  0  0  0  0  0  0  0  0
   36.0050   31.5290   50.8440 H   0  0  0  0  0  0  0  0  0  0  0  0
   37.0300   33.7790   50.9850 H   0  0  0  0  0  0  0  0  0  0  0  0
   38.6460   34.5120   49.2960 H   0  0  0  0  0  0  0  0  0  0  0  0
   39.2320   33.0080   47.4870 H   0  0  0  0  0  0  0  0  0  0  0  0
   36.3850   29.6580   49.0650 C   0  0  0  0  0  0  0  0  0  0  0  0
   36.9590   28.7730   49.7960 O   0  0  0  0  0  0  0  0  0  0  0  0
   33.6140   30.1620   46.7720 C   0  0  0  0  0  0  0  0  0  0  0  0
   32.9310   28.9460   46.8100 C   0  0  0  0  0  0  0  0  0  0  0  0
   33.4190   27.9470   47.6260 C   0  0  0  0  0  0  0  0  0  0  0  0
   34.5380   28.1650   48.3630 N   0  0  0  0  0  0  0  0  0  0  0  0
   35.1770   29.3260   48.3140 C   0  0  0  0  0  0  0  0  0  0  0  0
   34.6990   30.3120   47.5130 N   0  0  0  0  0  0  0  0  0  0  0  0
   33.2850   30.9840   46.1560 H   0  0  0  0  0  0  0  0  0  0  0  0
   32.0570   28.9000   46.1790 H   0  0  0  0  0  0  0  0  0  0  0  0
   32.8760   27.0280   47.6340 H   0  0  0  0  0  0  0  0  0  0  0  0
   38.3560   30.5730   47.0320 C   0  0  0  0  0  0  0  0  0  0  0  0
   39.1170   30.9150   46.0170 C   0  0  0  0  0  0  0  0  0  0  0  0
   39.6390   30.2170   44.8520 C   0  0  0  0  0  0  0  0  0  0  0  0
   40.2020   30.9240   44.1900 H   0  0  0  0  0  0  0  0  0  0  0  0
   40.3400   29.4070   45.1340 H   0  0  0  0  0  0  0  0  0  0  0  0
   38.5070   29.5990   44.0750 C   0  0  0  0  0  0  0  0  0  0  0  0
   38.8620   28.3520   43.2590 C   0  0  0  0  0  0  0  0  0  0  0  0
   38.4570   29.6140   42.5940 C   0  0  0  0  0  0  0  0  0  0  0  0
  1 11  1  0  0  0  0
  1  2  1  0  0  0  0
  2  3  2  0  0  0  0
  2  7  1  0  0  0  0
  3  8  1  0  0  0  0
  4  9  1  0  0  0  0
  4  3  1  0  0  0  0
  5  4  2  0  0  0  0
  6  5  1  0  0  0  0
  6  1  2  0  0  0  0
 10  5  1  0  0  0  0
 11 12  2  0  0  0  0
 13 14  2  0  0  0  0
 13 18  1  0  0  0  0
 14 15  1  0  0  0  0
 15 21  1  0  0  0  0
 15 16  2  0  0  0  0
 17 16  1  0  0  0  0
 17 11  1  0  0  0  0
 18 17  2  0  0  0  0
 19 13  1  0  0  0  0
 20 14  1  0  0  0  0
 22  6  1  0  0  0  0
 23 22  2  0  0  0  0
 24 26  1  0  0  0  0
 24 23  1  0  0  0  0
 25 24  1  0  0  0  0
 27 24  1  0  0  0  0
 28 27  1  0  0  0  0
 29 28  1  0  0  0  0
 29 27  1  0  0  0  0
M  END
>  <minimizedAffinity>
-5.4030242

>  <minimizedRMSD>
0.758980811

$$$$
