
 OpenBabel03272507273D

 33 35  0  0  1  0  0  0  0  0999 V2000
   37.7950   31.1200   49.3970 C   0  0  0  0  0  0  0  0  0  0  0  0
   38.6190   31.6770   48.3980 C   0  0  0  0  0  0  0  0  0  0  0  0
   38.1700   31.6090   47.0720 C   0  0  0  0  0  0  0  0  0  0  0  0
   36.9930   31.0250   46.8320 N   0  0  0  0  0  0  0  0  0  0  0  0
   36.2280   30.5030   47.8040 C   0  0  0  0  0  0  0  0  0  0  0  0
   36.6300   30.5530   49.0800 N   0  0  0  0  0  0  0  0  0  0  0  0
   38.9540   32.1470   46.0380 N   0  0  0  0  0  0  0  0  0  0  0  0
   39.8960   33.2650   46.1790 C   0  0  0  0  0  0  0  0  0  0  0  0
   40.3110   33.6560   44.7890 C   0  0  0  0  0  0  0  0  0  0  0  0
   39.2610   33.0540   43.9460 C   0  0  0  0  0  0  0  0  0  0  0  0
   39.0070   31.7390   44.6700 C   0  0  2  0  0  0  0  0  0  0  0  0
   38.2430   31.2300   50.3950 H   0  0  0  0  0  0  0  0  0  0  0  0
   39.5700   32.1510   48.5700 H   0  0  0  0  0  0  0  0  0  0  0  0
   35.2720   30.0250   47.6350 H   0  0  0  0  0  0  0  0  0  0  0  0
   40.7600   32.8310   46.7250 H   0  0  0  0  0  0  0  0  0  0  0  0
   39.4290   34.0700   46.7420 H   0  0  0  0  0  0  0  0  0  0  0  0
   40.1900   34.7750   44.7360 H   0  0  0  0  0  0  0  0  0  0  0  0
   41.3480   33.4210   44.5520 H   0  0  0  0  0  0  0  0  0  0  0  0
   39.5500   32.8850   42.8900 H   0  0  0  0  0  0  0  0  0  0  0  0
   38.3570   33.6810   43.9440 H   0  0  0  0  0  0  0  0  0  0  0  0
   37.8460   30.9970   44.1140 C   0  0  0  0  0  0  0  0  0  0  0  0
   36.7040   31.6840   44.5040 F   0  0  0  0  0  0  0  0  0  0  0  0
   37.7120   29.7110   44.5300 F   0  0  0  0  0  0  0  0  0  0  0  0
   37.9160   31.1170   42.7370 F   0  0  0  0  0  0  0  0  0  0  0  0
   40.2250   30.8990   44.5410 C   0  0  0  0  0  0  0  0  0  0  0  0
   40.1030   30.0770   45.2780 H   0  0  0  0  0  0  0  0  0  0  0  0
   41.0790   31.5210   44.9490 H   0  0  0  0  0  0  0  0  0  0  0  0
   40.4480   30.7760   43.3220 O   0  0  0  0  0  0  0  0  0  0  0  0
   40.8830   29.8020   42.5000 C   0  0  0  0  0  0  0  0  0  0  0  0
   40.1810   28.7780   42.6990 O   0  0  0  0  0  0  0  0  0  0  0  0
   41.6600   29.1190   41.4870 C   0  0  0  0  0  3  0  0  0  0  0  0
   41.1160   28.6110   40.2140 C   0  0  0  0  0  2  0  0  0  0  0  0
   41.8780   29.8610   40.1820 C   0  0  0  0  0  2  0  0  0  0  0  0
  1 12  1  0  0  0  0
  2 13  1  0  0  0  0
  2  1  2  0  0  0  0
  3  2  1  0  0  0  0
  4  3  2  0  0  0  0
  4  5  1  0  0  0  0
  5  6  2  0  0  0  0
  6  1  1  0  0  0  0
  7  8  1  0  0  0  0
  7  3  1  0  0  0  0
  8 15  1  0  0  0  0
  8 16  1  0  0  0  0
  9  8  1  0  0  0  0
 10 11  1  0  0  0  0
 10  9  1  0  0  0  0
 11 21  1  6  0  0  0
 11  7  1  0  0  0  0
 14  5  1  0  0  0  0
 17  9  1  0  0  0  0
 18  9  1  0  0  0  0
 19 10  1  0  0  0  0
 20 10  1  0  0  0  0
 21 22  1  0  0  0  0
 21 23  1  0  0  0  0
 24 21  1  0  0  0  0
 25 11  1  0  0  0  0
 25 27  1  0  0  0  0
 25 26  1  0  0  0  0
 28 25  1  0  0  0  0
 29 30  2  0  0  0  0
 29 28  1  0  0  0  0
 31 29  1  0  0  0  0
 32 31  1  0  0  0  0
 33 32  1  0  0  0  0
 33 31  1  0  0  0  0
M  END
>  <minimizedAffinity>
-4.91086006

>  <minimizedRMSD>
0.988436759

$$$$
