
 OpenBabel03272509433D

 32 34  0  0  1  0  0  0  0  0999 V2000
   37.0880   30.9390   49.0450 C   0  0  0  0  0  0  0  0  0  0  0  0
   36.8110   31.8690   50.0490 C   0  0  0  0  0  0  0  0  0  0  0  0
   37.4060   33.1220   50.0710 C   0  0  0  0  0  0  0  0  0  0  0  0
   38.3090   33.4690   49.0630 C   0  0  0  0  0  0  0  0  0  0  0  0
   38.5700   32.5510   48.0880 C   0  0  0  0  0  0  0  0  0  0  0  0
   37.9570   31.3060   48.0970 C   0  0  0  0  0  0  0  0  0  0  0  0
   36.1020   31.5670   50.8230 H   0  0  0  0  0  0  0  0  0  0  0  0
   37.1080   33.7440   50.8990 H   0  0  0  0  0  0  0  0  0  0  0  0
   38.7190   34.4550   49.1600 H   0  0  0  0  0  0  0  0  0  0  0  0
   39.2900   32.9640   47.3800 H   0  0  0  0  0  0  0  0  0  0  0  0
   36.4910   29.6210   49.0450 C   0  0  2  0  0  0  0  0  0  0  0  0
   36.9890   29.0670   48.1580 H   0  0  0  0  0  0  0  0  0  0  0  0
   33.6220   29.9780   46.8440 C   0  0  0  0  0  0  0  0  0  0  0  0
   32.8840   28.8300   47.0680 C   0  0  0  0  0  0  0  0  0  0  0  0
   33.3330   27.9440   48.0280 C   0  0  0  0  0  0  0  0  0  0  0  0
   34.4890   28.2300   48.7230 N   0  0  0  0  0  0  0  0  0  0  0  0
   35.1490   29.3400   48.4610 C   0  0  0  0  0  0  0  0  0  0  0  0
   34.7240   30.2190   47.5260 N   0  0  0  0  0  0  0  0  0  0  0  0
   33.2960   30.6990   46.0930 H   0  0  0  0  0  0  0  0  0  0  0  0
   31.9960   28.6950   46.4740 H   0  0  0  0  0  0  0  0  0  0  0  0
   32.7590   27.0460   48.2090 H   0  0  0  0  0  0  0  0  0  0  0  0
   36.9610   28.8660   49.9730 O   0  0  0  0  0  0  0  0  0  0  0  0
   36.6560   28.8570   50.8970 H   0  0  0  0  0  0  0  0  0  0  0  0
   38.3490   30.4210   47.0240 C   0  0  0  0  0  3  0  0  0  0  0  0
   38.7240   30.8420   45.8120 C   0  0  0  0  0  3  0  0  0  0  0  0
   39.1810   30.0330   44.6590 C   0  0  0  0  0  0  0  0  0  0  0  0
   38.3600   29.8440   43.9230 H   0  0  0  0  0  0  0  0  0  0  0  0
   39.5760   29.0460   44.9670 H   0  0  0  0  0  0  0  0  0  0  0  0
   40.4950   30.9000   43.7940 S   0  0  0  0  0  0  0  0  0  0  0  0
   39.7960   31.8070   42.3660 C   0  0  0  0  0  3  0  0  0  0  0  0
   39.2330   33.1420   42.6710 C   0  0  0  0  0  2  0  0  0  0  0  0
   38.3280   32.0210   42.3100 C   0  0  0  0  0  2  0  0  0  0  0  0
  1 11  1  0  0  0  0
  1  2  1  0  0  0  0
  2  3  2  0  0  0  0
  2  7  1  0  0  0  0
  3  8  1  0  0  0  0
  4  9  1  0  0  0  0
  4  3  1  0  0  0  0
  5  6  1  0  0  0  0
  5  4  2  0  0  0  0
  6  1  2  0  0  0  0
 10  5  1  0  0  0  0
 11 12  1  6  0  0  0
 11 22  1  0  0  0  0
 13 14  2  0  0  0  0
 13 18  1  0  0  0  0
 14 15  1  0  0  0  0
 15 21  1  0  0  0  0
 15 16  2  0  0  0  0
 17 16  1  0  0  0  0
 17 11  1  0  0  0  0
 18 17  2  0  0  0  0
 19 13  1  0  0  0  0
 20 14  1  0  0  0  0
 22 23  1  0  0  0  0
 24  6  1  0  0  0  0
 25 24  2  0  0  0  0
 26 28  1  0  0  0  0
 26 25  1  0  0  0  0
 27 26  1  0  0  0  0
 29 26  1  0  0  0  0
 30 31  1  0  0  0  0
 30 29  1  0  0  0  0
 32 30  1  0  0  0  0
 32 31  1  0  0  0  0
M  END
>  <minimizedAffinity>
-5.50655222

>  <minimizedRMSD>
0.947570384

$$$$
