
 OpenBabel03272509573D

 40 43  0  0  0  0  0  0  0  0999 V2000
   35.0260   28.3520   49.5240 O   0  0  0  0  0  0  0  0  0  0  0  0
   37.3760   30.1950   51.5670 C   0  0  0  0  0  0  0  0  0  0  0  0
   38.0890   30.8790   50.5550 C   0  0  0  0  0  0  0  0  0  0  0  0
   37.7180   30.6650   49.2380 C   0  0  0  0  0  0  0  0  0  0  0  0
   36.6770   29.7940   49.0360 N   0  0  0  0  0  0  0  0  0  0  0  0
   36.0190   29.1600   50.0010 C   0  0  0  0  0  0  0  0  0  0  0  0
   36.3820   29.3700   51.2850 N   0  0  0  0  0  0  0  0  0  0  0  0
   37.6850   30.3800   52.5890 H   0  0  0  0  0  0  0  0  0  0  0  0
   38.9060   31.5610   50.7280 H   0  0  0  0  0  0  0  0  0  0  0  0
   38.9580   33.2750   49.0360 F   0  0  0  0  0  0  0  0  0  0  0  0
   38.9120   32.4930   47.9740 C   0  0  0  0  0  0  0  0  0  0  0  0
   38.3300   31.2740   48.0780 C   0  0  0  0  0  0  0  0  0  0  0  0
   38.3310   30.5280   46.9030 C   0  0  0  0  0  0  0  0  0  0  0  0
   38.8860   31.0040   45.7350 C   0  0  0  0  0  0  0  0  0  0  0  0
   39.4640   32.2440   45.6750 C   0  0  0  0  0  0  0  0  0  0  0  0
   39.4730   32.9900   46.8140 C   0  0  0  0  0  0  0  0  0  0  0  0
   37.9020   29.5360   46.8360 H   0  0  0  0  0  0  0  0  0  0  0  0
   38.8810   30.4120   44.8260 H   0  0  0  0  0  0  0  0  0  0  0  0
   39.9100   32.6450   44.7640 H   0  0  0  0  0  0  0  0  0  0  0  0
   39.9260   33.9680   46.7780 H   0  0  0  0  0  0  0  0  0  0  0  0
   34.5130   28.5840   48.2230 C   0  0  0  0  0  0  0  0  0  0  0  0
   33.9130   29.5030   48.2470 H   0  0  0  0  0  0  0  0  0  0  0  0
   35.3780   28.6250   47.5160 H   0  0  0  0  0  0  0  0  0  0  0  0
   33.6340   27.4480   47.7790 C   0  0  0  0  0  0  0  0  0  0  0  0
   33.9320   27.0540   46.7760 H   0  0  0  0  0  0  0  0  0  0  0  0
   33.7480   26.6070   48.4690 H   0  0  0  0  0  0  0  0  0  0  0  0
   32.1950   27.8510   47.7190 C   0  0  0  0  0  0  0  0  0  0  0  0
   31.3600   27.3990   48.7220 C   0  0  0  0  0  0  0  0  0  0  0  0
   30.0270   27.7100   48.7610 C   0  0  0  0  0  0  0  0  0  0  0  0
   29.5140   28.4710   47.8060 N   0  0  0  0  0  0  0  0  0  0  0  0
   30.3350   28.9140   46.8230 C   0  0  0  0  0  0  0  0  0  0  0  0
   31.6500   28.6210   46.7630 N   0  0  0  0  0  0  0  0  0  0  0  0
   31.7700   26.7760   49.5070 H   0  0  0  0  0  0  0  0  0  0  0  0
   29.4260   27.3120   49.5920 H   0  0  0  0  0  0  0  0  0  0  0  0
   29.7410   29.7780   45.7450 C   0  0  0  0  0  0  0  0  0  0  0  0
   28.9170   30.3990   46.1750 H   0  0  0  0  0  0  0  0  0  0  0  0
   29.3150   29.1320   44.9330 H   0  0  0  0  0  0  0  0  0  0  0  0
   30.7600   30.6730   45.1210 C   0  0  0  0  0  3  0  0  0  0  0  0
   30.6350   30.7480   43.5850 C   0  0  0  0  0  2  0  0  0  0  0  0
   30.4320   31.9440   44.4610 C   0  0  0  0  0  2  0  0  0  0  0  0
  1  6  1  0  0  0  0
  2  8  1  0  0  0  0
  3  9  1  0  0  0  0
  3  2  2  0  0  0  0
  4  3  1  0  0  0  0
  5  4  2  0  0  0  0
  5  6  1  0  0  0  0
  6  7  2  0  0  0  0
  7  2  1  0  0  0  0
 11 12  1  0  0  0  0
 11 10  1  0  0  0  0
 12  4  1  0  0  0  0
 13 12  2  0  0  0  0
 14 13  1  0  0  0  0
 15 14  2  0  0  0  0
 15 16  1  0  0  0  0
 16 11  2  0  0  0  0
 17 13  1  0  0  0  0
 18 14  1  0  0  0  0
 19 15  1  0  0  0  0
 20 16  1  0  0  0  0
 21 22  1  0  0  0  0
 21  1  1  0  0  0  0
 23 21  1  0  0  0  0
 24 21  1  0  0  0  0
 24 26  1  0  0  0  0
 25 24  1  0  0  0  0
 27 24  1  0  0  0  0
 27 28  1  0  0  0  0
 28 29  2  0  0  0  0
 28 33  1  0  0  0  0
 29 34  1  0  0  0  0
 30 29  1  0  0  0  0
 31 30  2  0  0  0  0
 32 31  1  0  0  0  0
 32 27  2  0  0  0  0
 35 36  1  0  0  0  0
 35 31  1  0  0  0  0
 37 35  1  0  0  0  0
 38 35  1  0  0  0  0
 39 40  1  0  0  0  0
 39 38  1  0  0  0  0
 40 38  1  0  0  0  0
M  END
>  <minimizedAffinity>
-6.13363743

>  <minimizedRMSD>
0.447339177

$$$$
