
 OpenBabel03272508573D

 34 37  0  0  1  0  0  0  0  0999 V2000
   38.4090   31.7850   44.5920 C   0  0  0  0  0  0  0  0  0  0  0  0
   37.3760   32.4940   44.4660 O   0  0  0  0  0  0  0  0  0  0  0  0
   38.8640   31.3570   45.8880 N   0  0  0  0  0  0  0  0  0  0  0  0
   39.8030   30.9400   46.0680 H   0  0  0  0  0  0  0  0  0  0  0  0
   39.1800   31.3740   43.4110 C   0  0  0  0  0  0  0  0  0  0  0  0
   40.2530   30.5430   43.5840 C   0  0  0  0  0  0  0  0  0  0  0  0
   40.9770   30.1310   42.4790 C   0  0  0  0  0  0  0  0  0  0  0  0
   40.5690   30.5880   41.2630 C   0  0  0  0  0  0  0  0  0  0  0  0
   39.4870   31.4320   41.0590 C   0  0  0  0  0  0  0  0  0  0  0  0
   38.8210   31.7980   42.1820 N   0  0  0  0  0  0  0  0  0  0  0  0
   40.5980   30.1660   44.5560 H   0  0  0  0  0  0  0  0  0  0  0  0
   41.8320   29.4810   42.5220 H   0  0  0  0  0  0  0  0  0  0  0  0
   41.1030   30.2930   40.3590 H   0  0  0  0  0  0  0  0  0  0  0  0
   39.1170   31.8960   39.7180 C   0  0  0  0  0  0  0  0  0  0  0  0
   39.1030   33.1570   39.5230 O   0  0  0  0  0  0  0  0  0  0  0  0
   38.7950   30.8310   38.7160 C   0  0  0  0  0  3  0  0  0  0  0  0
   37.3240   30.9000   38.2560 C   0  0  0  0  0  2  0  0  0  0  0  0
   37.7910   29.7810   39.0840 C   0  0  0  0  0  2  0  0  0  0  0  0
   38.1020   30.7090   48.1650 C   0  0  2  0  0  0  0  0  0  0  0  0
   38.6510   32.0810   48.2720 C   0  0  0  0  0  0  0  0  0  0  0  0
   37.9550   31.5200   47.0000 C   0  0  1  0  0  0  0  0  0  0  0  0
   38.8970   29.9200   48.2110 H   0  0  0  0  0  0  0  0  0  0  0  0
   38.0530   32.8070   48.8690 H   0  0  0  0  0  0  0  0  0  0  0  0
   39.7290   32.2470   48.2310 H   0  0  0  0  0  0  0  0  0  0  0  0
   36.9660   32.0220   46.7850 H   0  0  0  0  0  0  0  0  0  0  0  0
   34.5670   30.0280   49.0220 C   0  0  0  0  0  0  0  0  0  0  0  0
   34.6830   29.5030   50.3420 C   0  0  0  0  0  0  0  0  0  0  0  0
   36.0010   29.4020   50.9290 C   0  0  0  0  0  0  0  0  0  0  0  0
   37.0860   29.8100   50.1970 N   0  0  0  0  0  0  0  0  0  0  0  0
   36.8900   30.3010   48.9410 C   0  0  0  0  0  0  0  0  0  0  0  0
   35.6510   30.4240   48.3220 N   0  0  0  0  0  0  0  0  0  0  0  0
   33.5610   30.0820   48.6320 H   0  0  0  0  0  0  0  0  0  0  0  0
   33.8130   29.2000   50.8680 H   0  0  0  0  0  0  0  0  0  0  0  0
   36.0790   29.0060   51.9220 H   0  0  0  0  0  0  0  0  0  0  0  0
  1  3  1  0  0  0  0
  2  1  2  0  0  0  0
  3  4  1  0  0  0  0
  3 21  1  0  0  0  0
  5  6  1  0  0  0  0
  5  1  1  0  0  0  0
  6 11  1  0  0  0  0
  7 12  1  0  0  0  0
  7  6  2  0  0  0  0
  8  7  1  0  0  0  0
  9  8  2  0  0  0  0
  9 10  1  0  0  0  0
 10  5  2  0  0  0  0
 13  8  1  0  0  0  0
 14  9  1  0  0  0  0
 15 14  2  0  0  0  0
 16 18  1  0  0  0  0
 16 14  1  0  0  0  0
 17 16  1  0  0  0  0
 17 18  1  0  0  0  0
 19 22  1  6  0  0  0
 19 20  1  0  0  0  0
 19 30  1  0  0  0  0
 20 23  1  0  0  0  0
 21 25  1  6  0  0  0
 21 19  1  0  0  0  0
 21 20  1  0  0  0  0
 24 20  1  0  0  0  0
 26 27  1  0  0  0  0
 27 33  1  0  0  0  0
 27 28  2  0  0  0  0
 28 34  1  0  0  0  0
 29 28  1  0  0  0  0
 30 29  2  0  0  0  0
 31 30  1  0  0  0  0
 31 26  2  0  0  0  0
 32 26  1  0  0  0  0
M  END
>  <minimizedAffinity>
-4.81044483

>  <minimizedRMSD>
0.960645318

$$$$
