
 OpenBabel03272505033D

 23 25  0  0  0  0  0  0  0  0999 V2000
   38.2210   30.4730   46.9490 Cl  0  0  0  0  0  0  0  0  0  0  0  0
   38.6550   31.9150   47.8300 C   0  0  0  0  0  0  0  0  0  0  0  0
   38.1330   32.0880   49.0900 C   0  0  0  0  0  0  0  0  0  0  0  0
   38.5080   33.2560   49.7560 C   0  0  0  0  0  0  0  0  0  0  0  0
   39.3670   34.1520   49.1140 C   0  0  0  0  0  0  0  0  0  0  0  0
   39.8520   33.9300   47.8690 C   0  0  0  0  0  0  0  0  0  0  0  0
   39.4960   32.7880   47.1980 C   0  0  0  0  0  0  0  0  0  0  0  0
   38.1030   33.3940   50.7360 H   0  0  0  0  0  0  0  0  0  0  0  0
   39.5710   35.0150   49.7510 H   0  0  0  0  0  0  0  0  0  0  0  0
   40.4900   34.7290   47.5560 H   0  0  0  0  0  0  0  0  0  0  0  0
   37.6380   30.3840   50.8410 C   0  0  0  0  0  0  0  0  0  0  0  0
   37.2320   31.1410   49.7530 C   0  0  0  0  0  0  0  0  0  0  0  0
   35.9310   30.9750   49.3050 C   0  0  0  0  0  0  0  0  0  0  0  0
   35.1360   30.0870   49.9520 N   0  0  0  0  0  0  0  0  0  0  0  0
   35.5560   29.3740   50.9950 C   0  0  0  0  0  0  0  0  0  0  0  0
   36.8230   29.5130   51.4590 N   0  0  0  0  0  0  0  0  0  0  0  0
   38.6600   30.5420   51.1610 H   0  0  0  0  0  0  0  0  0  0  0  0
   35.5870   31.5420   48.4700 H   0  0  0  0  0  0  0  0  0  0  0  0
   34.8930   28.6740   51.4870 H   0  0  0  0  0  0  0  0  0  0  0  0
   39.9910   32.5710   45.9380 O   0  0  0  0  0  0  0  0  0  0  0  0
   39.5940   33.2170   44.7850 C   0  0  0  0  0  0  0  0  0  0  0  0
   38.3960   32.6290   44.0450 C   0  0  0  0  0  0  0  0  0  0  0  0
   39.7580   32.5530   43.4460 C   0  0  0  0  0  0  0  0  0  0  0  0
  1  2  1  0  0  0  0
  2  3  1  0  0  0  0
  3 12  1  0  0  0  0
  3  4  2  0  0  0  0
  4  8  1  0  0  0  0
  5  9  1  0  0  0  0
  5  4  1  0  0  0  0
  6  5  2  0  0  0  0
  7  2  2  0  0  0  0
  7  6  1  0  0  0  0
 10  6  1  0  0  0  0
 11 17  1  0  0  0  0
 11 16  1  0  0  0  0
 12 11  2  0  0  0  0
 13 12  1  0  0  0  0
 13 14  2  0  0  0  0
 14 15  1  0  0  0  0
 15 16  2  0  0  0  0
 15 19  1  0  0  0  0
 18 13  1  0  0  0  0
 20  7  1  0  0  0  0
 21 20  1  0  0  0  0
 22 21  1  0  0  0  0
 23 22  1  0  0  0  0
 23 21  1  0  0  0  0
M  END
>  <minimizedAffinity>
-5.7866497

>  <minimizedRMSD>
1.0783807

$$$$
