
 OpenBabel03272507273D

 33 35  0  0  1  0  0  0  0  0999 V2000
   36.7980   29.7540   49.4880 C   0  0  0  0  0  0  0  0  0  0  0  0
   37.7560   30.4700   48.7420 C   0  0  0  0  0  0  0  0  0  0  0  0
   37.4390   30.7920   47.4160 C   0  0  0  0  0  0  0  0  0  0  0  0
   36.2530   30.4050   46.9370 N   0  0  0  0  0  0  0  0  0  0  0  0
   35.3600   29.7240   47.6710 C   0  0  0  0  0  0  0  0  0  0  0  0
   35.6340   29.4020   48.9410 N   0  0  0  0  0  0  0  0  0  0  0  0
   38.3580   31.5040   46.6270 N   0  0  0  0  0  0  0  0  0  0  0  0
   39.3580   32.4520   47.1350 C   0  0  0  0  0  0  0  0  0  0  0  0
   39.9380   33.1500   45.9370 C   0  0  0  0  0  0  0  0  0  0  0  0
   38.9370   32.8900   44.8850 C   0  0  0  0  0  0  0  0  0  0  0  0
   38.5190   31.4620   45.2080 C   0  0  2  0  0  0  0  0  0  0  0  0
   37.1510   29.5580   50.5110 H   0  0  0  0  0  0  0  0  0  0  0  0
   38.7170   30.7910   49.1090 H   0  0  0  0  0  0  0  0  0  0  0  0
   34.3940   29.3990   47.3060 H   0  0  0  0  0  0  0  0  0  0  0  0
   40.1300   31.8110   47.6110 H   0  0  0  0  0  0  0  0  0  0  0  0
   38.8950   33.1240   47.8550 H   0  0  0  0  0  0  0  0  0  0  0  0
   39.9020   34.2500   46.1760 H   0  0  0  0  0  0  0  0  0  0  0  0
   40.9740   32.8870   45.7280 H   0  0  0  0  0  0  0  0  0  0  0  0
   39.3180   32.9750   43.8480 H   0  0  0  0  0  0  0  0  0  0  0  0
   38.0850   33.5790   44.9800 H   0  0  0  0  0  0  0  0  0  0  0  0
   37.3700   31.0040   44.3850 C   0  0  0  0  0  0  0  0  0  0  0  0
   36.2270   31.5590   44.9450 F   0  0  0  0  0  0  0  0  0  0  0  0
   37.1850   29.6600   44.3250 F   0  0  0  0  0  0  0  0  0  0  0  0
   37.5120   31.5900   43.1400 F   0  0  0  0  0  0  0  0  0  0  0  0
   39.6820   30.5730   44.9540 C   0  0  0  0  0  0  0  0  0  0  0  0
   39.3230   29.5430   45.1640 H   0  0  0  0  0  0  0  0  0  0  0  0
   40.4260   30.7870   45.7820 H   0  0  0  0  0  0  0  0  0  0  0  0
   40.2180   30.9750   43.9060 O   0  0  0  0  0  0  0  0  0  0  0  0
   40.3620   30.5230   42.6450 C   0  0  0  0  0  0  0  0  0  0  0  0
   40.3260   31.5100   41.8680 O   0  0  0  0  0  0  0  0  0  0  0  0
   40.5420   29.6080   41.5370 C   0  0  0  0  0  3  0  0  0  0  0  0
   41.7350   28.7650   41.3330 C   0  0  0  0  0  2  0  0  0  0  0  0
   40.5310   28.1290   41.8700 C   0  0  0  0  0  2  0  0  0  0  0  0
  1 12  1  0  0  0  0
  2 13  1  0  0  0  0
  2  1  2  0  0  0  0
  3  2  1  0  0  0  0
  4  3  2  0  0  0  0
  4  5  1  0  0  0  0
  5  6  2  0  0  0  0
  6  1  1  0  0  0  0
  7  8  1  0  0  0  0
  7  3  1  0  0  0  0
  8 15  1  0  0  0  0
  8 16  1  0  0  0  0
  9 17  1  0  0  0  0
  9  8  1  0  0  0  0
 10 20  1  0  0  0  0
 10 11  1  0  0  0  0
 10  9  1  0  0  0  0
 11 21  1  6  0  0  0
 11  7  1  0  0  0  0
 14  5  1  0  0  0  0
 18  9  1  0  0  0  0
 19 10  1  0  0  0  0
 21 22  1  0  0  0  0
 23 21  1  0  0  0  0
 24 21  1  0  0  0  0
 25 26  1  0  0  0  0
 25 11  1  0  0  0  0
 25 27  1  0  0  0  0
 28 25  1  0  0  0  0
 29 28  1  0  0  0  0
 30 29  2  0  0  0  0
 31 33  1  0  0  0  0
 31 29  1  0  0  0  0
 32 31  1  0  0  0  0
 32 33  1  0  0  0  0
M  END
>  <minimizedAffinity>
-4.77295685

>  <minimizedRMSD>
0.808057547

$$$$
