
 OpenBabel03272509433D

 32 34  0  0  1  0  0  0  0  0999 V2000
   37.0570   30.9320   49.0250 C   0  0  0  0  0  0  0  0  0  0  0  0
   36.7840   31.8320   50.0560 C   0  0  0  0  0  0  0  0  0  0  0  0
   37.3820   33.0830   50.1150 C   0  0  0  0  0  0  0  0  0  0  0  0
   38.2840   33.4570   49.1150 C   0  0  0  0  0  0  0  0  0  0  0  0
   38.5420   32.5670   48.1140 C   0  0  0  0  0  0  0  0  0  0  0  0
   37.9260   31.3240   48.0880 C   0  0  0  0  0  0  0  0  0  0  0  0
   36.0740   31.5090   50.8230 H   0  0  0  0  0  0  0  0  0  0  0  0
   37.0860   33.6800   50.9610 H   0  0  0  0  0  0  0  0  0  0  0  0
   38.6970   34.4380   49.2410 H   0  0  0  0  0  0  0  0  0  0  0  0
   39.2620   32.9990   47.4170 H   0  0  0  0  0  0  0  0  0  0  0  0
   36.4570   29.6150   48.9870 C   0  0  2  0  0  0  0  0  0  0  0  0
   36.9620   29.0820   48.0930 H   0  0  0  0  0  0  0  0  0  0  0  0
   33.6390   29.9890   46.7240 C   0  0  0  0  0  0  0  0  0  0  0  0
   32.8710   28.8640   46.9570 C   0  0  0  0  0  0  0  0  0  0  0  0
   33.2820   27.9880   47.9440 C   0  0  0  0  0  0  0  0  0  0  0  0
   34.4310   28.2620   48.6550 N   0  0  0  0  0  0  0  0  0  0  0  0
   35.1200   29.3510   48.3840 C   0  0  0  0  0  0  0  0  0  0  0  0
   34.7330   30.2210   47.4230 N   0  0  0  0  0  0  0  0  0  0  0  0
   33.3440   30.7030   45.9530 H   0  0  0  0  0  0  0  0  0  0  0  0
   31.9920   28.7360   46.3480 H   0  0  0  0  0  0  0  0  0  0  0  0
   32.6850   27.1060   48.1320 H   0  0  0  0  0  0  0  0  0  0  0  0
   36.9150   28.8370   49.9030 O   0  0  0  0  0  0  0  0  0  0  0  0
   36.6010   28.8070   50.8220 H   0  0  0  0  0  0  0  0  0  0  0  0
   38.3140   30.4700   46.9890 C   0  0  0  0  0  3  0  0  0  0  0  0
   38.9400   30.9070   45.8920 C   0  0  0  0  0  3  0  0  0  0  0  0
   39.4180   30.1210   44.7320 C   0  0  0  0  0  0  0  0  0  0  0  0
   39.0520   29.0640   44.7570 H   0  0  0  0  0  0  0  0  0  0  0  0
   40.5230   30.0800   44.6750 H   0  0  0  0  0  0  0  0  0  0  0  0
   38.8210   30.8640   43.2090 S   0  0  0  0  0  0  0  0  0  0  0  0
   37.3300   29.9720   42.6330 C   0  0  0  0  0  3  0  0  0  0  0  0
   36.3450   29.6310   43.6860 C   0  0  0  0  0  2  0  0  0  0  0  0
   37.1460   28.5580   43.0440 C   0  0  0  0  0  2  0  0  0  0  0  0
  1  2  1  0  0  0  0
  2  3  2  0  0  0  0
  2  7  1  0  0  0  0
  3  8  1  0  0  0  0
  4  9  1  0  0  0  0
  4  3  1  0  0  0  0
  5  4  2  0  0  0  0
  6  5  1  0  0  0  0
  6  1  2  0  0  0  0
 10  5  1  0  0  0  0
 11 12  1  6  0  0  0
 11  1  1  0  0  0  0
 11 22  1  0  0  0  0
 13 14  2  0  0  0  0
 13 18  1  0  0  0  0
 14 15  1  0  0  0  0
 15 21  1  0  0  0  0
 15 16  2  0  0  0  0
 17 16  1  0  0  0  0
 17 11  1  0  0  0  0
 18 17  2  0  0  0  0
 19 13  1  0  0  0  0
 20 14  1  0  0  0  0
 22 23  1  0  0  0  0
 24  6  1  0  0  0  0
 25 24  2  0  0  0  0
 26 27  1  0  0  0  0
 26 25  1  0  0  0  0
 28 26  1  0  0  0  0
 29 26  1  0  0  0  0
 30 32  1  0  0  0  0
 30 29  1  0  0  0  0
 30 31  1  0  0  0  0
 32 31  1  0  0  0  0
M  END
>  <minimizedAffinity>
-5.20163679

>  <minimizedRMSD>
0.669637442

$$$$
