
 OpenBabel03272509433D

 32 34  0  0  1  0  0  0  0  0999 V2000
   37.0880   30.9410   49.0420 C   0  0  0  0  0  0  0  0  0  0  0  0
   36.8280   31.8520   50.0670 C   0  0  0  0  0  0  0  0  0  0  0  0
   37.4200   33.1060   50.1000 C   0  0  0  0  0  0  0  0  0  0  0  0
   38.3020   33.4740   49.0810 C   0  0  0  0  0  0  0  0  0  0  0  0
   38.5470   32.5730   48.0850 C   0  0  0  0  0  0  0  0  0  0  0  0
   37.9370   31.3270   48.0840 C   0  0  0  0  0  0  0  0  0  0  0  0
   36.1340   31.5340   50.8500 H   0  0  0  0  0  0  0  0  0  0  0  0
   37.1360   33.7120   50.9450 H   0  0  0  0  0  0  0  0  0  0  0  0
   38.7110   34.4590   49.1880 H   0  0  0  0  0  0  0  0  0  0  0  0
   39.2510   33.0010   47.3700 H   0  0  0  0  0  0  0  0  0  0  0  0
   36.4940   29.6210   49.0300 C   0  0  2  0  0  0  0  0  0  0  0  0
   36.9900   29.0780   48.1360 H   0  0  0  0  0  0  0  0  0  0  0  0
   33.6120   29.9990   46.8490 C   0  0  0  0  0  0  0  0  0  0  0  0
   32.8810   28.8440   47.0580 C   0  0  0  0  0  0  0  0  0  0  0  0
   33.3400   27.9450   48.0020 C   0  0  0  0  0  0  0  0  0  0  0  0
   34.4980   28.2250   48.6950 N   0  0  0  0  0  0  0  0  0  0  0  0
   35.1500   29.3420   48.4480 C   0  0  0  0  0  0  0  0  0  0  0  0
   34.7160   30.2350   47.5310 N   0  0  0  0  0  0  0  0  0  0  0  0
   33.2790   30.7310   46.1130 H   0  0  0  0  0  0  0  0  0  0  0  0
   31.9910   28.7140   46.4660 H   0  0  0  0  0  0  0  0  0  0  0  0
   32.7720   27.0400   48.1710 H   0  0  0  0  0  0  0  0  0  0  0  0
   36.9690   28.8570   49.9490 O   0  0  0  0  0  0  0  0  0  0  0  0
   36.6680   28.8380   50.8730 H   0  0  0  0  0  0  0  0  0  0  0  0
   38.3100   30.4620   46.9890 C   0  0  0  0  0  3  0  0  0  0  0  0
   38.9690   30.8790   45.9030 C   0  0  0  0  0  3  0  0  0  0  0  0
   39.4360   30.0790   44.7470 C   0  0  0  0  0  0  0  0  0  0  0  0
   38.8440   29.1390   44.6170 H   0  0  0  0  0  0  0  0  0  0  0  0
   40.4980   29.7840   44.8400 H   0  0  0  0  0  0  0  0  0  0  0  0
   39.2650   31.0380   43.2380 S   0  0  0  0  0  0  0  0  0  0  0  0
   38.0960   32.4190   43.5160 C   0  0  0  0  0  3  0  0  0  0  0  0
   36.6610   32.0800   43.3660 C   0  0  0  0  0  2  0  0  0  0  0  0
   37.3300   32.9450   42.3590 C   0  0  0  0  0  2  0  0  0  0  0  0
  1  2  1  0  0  0  0
  2  3  2  0  0  0  0
  2  7  1  0  0  0  0
  3  8  1  0  0  0  0
  4  9  1  0  0  0  0
  4  3  1  0  0  0  0
  5  4  2  0  0  0  0
  6  5  1  0  0  0  0
  6  1  2  0  0  0  0
 10  5  1  0  0  0  0
 11 12  1  6  0  0  0
 11  1  1  0  0  0  0
 11 22  1  0  0  0  0
 13 14  2  0  0  0  0
 13 18  1  0  0  0  0
 14 15  1  0  0  0  0
 15 21  1  0  0  0  0
 15 16  2  0  0  0  0
 17 16  1  0  0  0  0
 17 11  1  0  0  0  0
 18 17  2  0  0  0  0
 19 13  1  0  0  0  0
 20 14  1  0  0  0  0
 22 23  1  0  0  0  0
 24  6  1  0  0  0  0
 25 24  2  0  0  0  0
 26 28  1  0  0  0  0
 26 25  1  0  0  0  0
 27 26  1  0  0  0  0
 29 30  1  0  0  0  0
 29 26  1  0  0  0  0
 31 30  1  0  0  0  0
 32 31  1  0  0  0  0
 32 30  1  0  0  0  0
M  END
>  <minimizedAffinity>
-5.36324501

>  <minimizedRMSD>
0.693486154

$$$$
