
 OpenBabel03272509573D

 40 43  0  0  0  0  0  0  0  0999 V2000
   34.9860   28.3600   49.4430 O   0  0  0  0  0  0  0  0  0  0  0  0
   37.3290   30.1730   51.5200 C   0  0  0  0  0  0  0  0  0  0  0  0
   38.0570   30.8580   50.5200 C   0  0  0  0  0  0  0  0  0  0  0  0
   37.6990   30.6540   49.1980 C   0  0  0  0  0  0  0  0  0  0  0  0
   36.6530   29.7920   48.9810 N   0  0  0  0  0  0  0  0  0  0  0  0
   35.9810   29.1570   49.9350 C   0  0  0  0  0  0  0  0  0  0  0  0
   36.3310   29.3580   51.2230 N   0  0  0  0  0  0  0  0  0  0  0  0
   37.6280   30.3500   52.5470 H   0  0  0  0  0  0  0  0  0  0  0  0
   38.8770   31.5320   50.7060 H   0  0  0  0  0  0  0  0  0  0  0  0
   38.9450   33.2630   49.0190 F   0  0  0  0  0  0  0  0  0  0  0  0
   38.9120   32.4840   47.9550 C   0  0  0  0  0  0  0  0  0  0  0  0
   38.3270   31.2650   48.0480 C   0  0  0  0  0  0  0  0  0  0  0  0
   38.3430   30.5220   46.8720 C   0  0  0  0  0  0  0  0  0  0  0  0
   38.9150   31.0000   45.7130 C   0  0  0  0  0  0  0  0  0  0  0  0
   39.4950   32.2400   45.6640 C   0  0  0  0  0  0  0  0  0  0  0  0
   39.4890   32.9830   46.8050 C   0  0  0  0  0  0  0  0  0  0  0  0
   37.9140   29.5310   46.7960 H   0  0  0  0  0  0  0  0  0  0  0  0
   38.9210   30.4100   44.8020 H   0  0  0  0  0  0  0  0  0  0  0  0
   39.9540   32.6430   44.7600 H   0  0  0  0  0  0  0  0  0  0  0  0
   39.9440   33.9600   46.7770 H   0  0  0  0  0  0  0  0  0  0  0  0
   34.4260   28.6580   48.1760 C   0  0  0  0  0  0  0  0  0  0  0  0
   33.8090   29.5600   48.2740 H   0  0  0  0  0  0  0  0  0  0  0  0
   35.2660   28.7610   47.4450 H   0  0  0  0  0  0  0  0  0  0  0  0
   33.5550   27.5320   47.6910 C   0  0  0  0  0  0  0  0  0  0  0  0
   33.7940   27.2390   46.6400 H   0  0  0  0  0  0  0  0  0  0  0  0
   33.7460   26.6390   48.2940 H   0  0  0  0  0  0  0  0  0  0  0  0
   32.1030   27.8820   47.7650 C   0  0  0  0  0  0  0  0  0  0  0  0
   31.4000   27.4680   48.8790 C   0  0  0  0  0  0  0  0  0  0  0  0
   30.0680   27.7360   49.0460 C   0  0  0  0  0  0  0  0  0  0  0  0
   29.4240   28.4170   48.1100 N   0  0  0  0  0  0  0  0  0  0  0  0
   30.1170   28.8230   47.0170 C   0  0  0  0  0  0  0  0  0  0  0  0
   31.4280   28.5700   46.8310 N   0  0  0  0  0  0  0  0  0  0  0  0
   31.9160   26.9110   49.6510 H   0  0  0  0  0  0  0  0  0  0  0  0
   29.5760   27.3730   49.9600 H   0  0  0  0  0  0  0  0  0  0  0  0
   29.3760   29.5950   45.9610 C   0  0  0  0  0  0  0  0  0  0  0  0
   28.8460   30.4600   46.4320 H   0  0  0  0  0  0  0  0  0  0  0  0
   28.6150   28.9340   45.4710 H   0  0  0  0  0  0  0  0  0  0  0  0
   30.2900   30.1000   44.8930 C   0  0  0  0  0  3  0  0  0  0  0  0
   29.5340   30.6610   43.6710 C   0  0  0  0  0  2  0  0  0  0  0  0
   30.4110   31.5180   44.5290 C   0  0  0  0  0  2  0  0  0  0  0  0
  1  6  1  0  0  0  0
  2  8  1  0  0  0  0
  3  9  1  0  0  0  0
  3  2  2  0  0  0  0
  4  3  1  0  0  0  0
  5  4  2  0  0  0  0
  5  6  1  0  0  0  0
  6  7  2  0  0  0  0
  7  2  1  0  0  0  0
 11 12  1  0  0  0  0
 11 10  1  0  0  0  0
 12  4  1  0  0  0  0
 13 12  2  0  0  0  0
 14 13  1  0  0  0  0
 15 14  2  0  0  0  0
 15 16  1  0  0  0  0
 16 11  2  0  0  0  0
 17 13  1  0  0  0  0
 18 14  1  0  0  0  0
 19 15  1  0  0  0  0
 20 16  1  0  0  0  0
 21 22  1  0  0  0  0
 21  1  1  0  0  0  0
 23 21  1  0  0  0  0
 24 27  1  0  0  0  0
 24 21  1  0  0  0  0
 24 26  1  0  0  0  0
 25 24  1  0  0  0  0
 27 28  1  0  0  0  0
 28 29  2  0  0  0  0
 28 33  1  0  0  0  0
 29 34  1  0  0  0  0
 30 29  1  0  0  0  0
 31 30  2  0  0  0  0
 32 31  1  0  0  0  0
 32 27  2  0  0  0  0
 35 36  1  0  0  0  0
 35 31  1  0  0  0  0
 37 35  1  0  0  0  0
 38 35  1  0  0  0  0
 39 40  1  0  0  0  0
 39 38  1  0  0  0  0
 40 38  1  0  0  0  0
M  END
>  <minimizedAffinity>
-6.09939241

>  <minimizedRMSD>
0.102782816

$$$$
