
 OpenBabel03272508513D

 23 25  0  0  1  0  0  0  0  0999 V2000
   38.5960   31.9950   49.1980 C   0  0  2  0  0  0  0  0  0  0  0  0
   38.5340   33.4490   49.2790 C   0  0  0  0  0  0  0  0  0  0  0  0
   38.2680   32.6990   47.9630 C   0  0  1  0  0  0  0  0  0  0  0  0
   39.5980   31.4680   49.1550 H   0  0  0  0  0  0  0  0  0  0  0  0
   37.6710   33.9750   49.7330 H   0  0  0  0  0  0  0  0  0  0  0  0
   39.5070   33.9760   49.2770 H   0  0  0  0  0  0  0  0  0  0  0  0
   37.2760   32.9610   47.5690 H   0  0  0  0  0  0  0  0  0  0  0  0
   35.4760   30.0880   49.7750 C   0  0  0  0  0  0  0  0  0  0  0  0
   35.7410   29.4430   51.0110 C   0  0  0  0  0  0  0  0  0  0  0  0
   37.0150   29.6850   51.6290 C   0  0  0  0  0  0  0  0  0  0  0  0
   37.8920   30.5060   51.0130 N   0  0  0  0  0  0  0  0  0  0  0  0
   37.5800   31.0960   49.8270 C   0  0  0  0  0  0  0  0  0  0  0  0
   36.4030   30.9110   49.1960 N   0  0  0  0  0  0  0  0  0  0  0  0
   34.5060   29.8670   49.3640 H   0  0  0  0  0  0  0  0  0  0  0  0
   34.9970   28.7960   51.4550 H   0  0  0  0  0  0  0  0  0  0  0  0
   37.2240   29.2010   52.5650 H   0  0  0  0  0  0  0  0  0  0  0  0
   38.9890   32.5650   45.6070 C   0  0  0  0  0  0  0  0  0  0  0  0
   37.7900   32.3810   45.2770 O   0  0  0  0  0  0  0  0  0  0  0  0
   39.3460   32.8350   46.9760 N   0  0  0  0  0  0  0  0  0  0  0  0
   40.2870   33.1120   47.3040 H   0  0  0  0  0  0  0  0  0  0  0  0
   40.1280   32.5220   44.6510 C   0  0  0  0  0  0  0  0  0  0  0  0
   40.6460   31.1490   44.2180 C   0  0  0  0  0  0  0  0  0  0  0  0
   39.9570   32.0630   43.2670 C   0  0  0  0  0  0  0  0  0  0  0  0
  1  4  1  1  0  0  0
  1  2  1  0  0  0  0
  1 12  1  0  0  0  0
  2  5  1  0  0  0  0
  3  7  1  6  0  0  0
  3  1  1  0  0  0  0
  3  2  1  0  0  0  0
  6  2  1  0  0  0  0
  8  9  1  0  0  0  0
  9 15  1  0  0  0  0
  9 10  2  0  0  0  0
 10 16  1  0  0  0  0
 11 10  1  0  0  0  0
 12 11  2  0  0  0  0
 13  8  2  0  0  0  0
 13 12  1  0  0  0  0
 14  8  1  0  0  0  0
 17 19  1  0  0  0  0
 18 17  2  0  0  0  0
 19 20  1  0  0  0  0
 19  3  1  0  0  0  0
 21 17  1  0  0  0  0
 22 21  1  0  0  0  0
 23 22  1  0  0  0  0
 23 21  1  0  0  0  0
M  END
>  <minimizedAffinity>
-5.5297637

>  <minimizedRMSD>
6.47645426

$$$$
