
 OpenBabel03272507273D

 33 35  0  0  1  0  0  0  0  0999 V2000
   36.9500   30.2730   49.0600 C   0  0  0  0  0  0  0  0  0  0  0  0
   37.9320   30.9020   48.2680 C   0  0  0  0  0  0  0  0  0  0  0  0
   37.6530   31.0830   46.9080 C   0  0  0  0  0  0  0  0  0  0  0  0
   36.4780   30.6520   46.4400 N   0  0  0  0  0  0  0  0  0  0  0  0
   35.5610   30.0550   47.2180 C   0  0  0  0  0  0  0  0  0  0  0  0
   35.7990   29.8680   48.5220 N   0  0  0  0  0  0  0  0  0  0  0  0
   38.5980   31.7040   46.0740 N   0  0  0  0  0  0  0  0  0  0  0  0
   39.5900   32.6970   46.5050 C   0  0  0  0  0  0  0  0  0  0  0  0
   40.2050   33.2620   45.2570 C   0  0  0  0  0  0  0  0  0  0  0  0
   39.2320   32.8950   44.2110 C   0  0  0  0  0  0  0  0  0  0  0  0
   38.7960   31.5120   44.6720 C   0  0  2  0  0  0  0  0  0  0  0  0
   37.2740   30.1840   50.1070 H   0  0  0  0  0  0  0  0  0  0  0  0
   38.8850   31.2560   48.6250 H   0  0  0  0  0  0  0  0  0  0  0  0
   34.6030   29.6970   46.8630 H   0  0  0  0  0  0  0  0  0  0  0  0
   40.3440   32.1070   47.0680 H   0  0  0  0  0  0  0  0  0  0  0  0
   39.1120   33.4430   47.1380 H   0  0  0  0  0  0  0  0  0  0  0  0
   40.1700   34.3820   45.3770 H   0  0  0  0  0  0  0  0  0  0  0  0
   41.2450   32.9750   45.1050 H   0  0  0  0  0  0  0  0  0  0  0  0
   39.6410   32.8690   43.1820 H   0  0  0  0  0  0  0  0  0  0  0  0
   38.3820   33.5940   44.2100 H   0  0  0  0  0  0  0  0  0  0  0  0
   37.6660   30.9730   43.8710 C   0  0  0  0  0  0  0  0  0  0  0  0
   36.5390   31.7020   44.2240 F   0  0  0  0  0  0  0  0  0  0  0  0
   37.3810   29.6590   44.0620 F   0  0  0  0  0  0  0  0  0  0  0  0
   37.9290   31.2860   42.5490 F   0  0  0  0  0  0  0  0  0  0  0  0
   39.9590   30.5960   44.5450 C   0  0  0  0  0  0  0  0  0  0  0  0
   39.7050   29.7020   45.1530 H   0  0  0  0  0  0  0  0  0  0  0  0
   40.8090   31.0890   45.1100 H   0  0  0  0  0  0  0  0  0  0  0  0
   40.2970   30.6100   43.3480 O   0  0  0  0  0  0  0  0  0  0  0  0
   40.8020   29.7280   42.4630 C   0  0  0  0  0  0  0  0  0  0  0  0
   40.1850   28.6420   42.5960 O   0  0  0  0  0  0  0  0  0  0  0  0
   41.6250   29.1770   41.4070 C   0  0  0  0  0  3  0  0  0  0  0  0
   41.1170   28.7290   40.0970 C   0  0  0  0  0  2  0  0  0  0  0  0
   41.7930   30.0260   40.1620 C   0  0  0  0  0  2  0  0  0  0  0  0
  1 12  1  0  0  0  0
  2 13  1  0  0  0  0
  2  1  2  0  0  0  0
  3  2  1  0  0  0  0
  4  3  2  0  0  0  0
  4  5  1  0  0  0  0
  5  6  2  0  0  0  0
  6  1  1  0  0  0  0
  7  8  1  0  0  0  0
  7  3  1  0  0  0  0
  8 15  1  0  0  0  0
  8 16  1  0  0  0  0
  9 17  1  0  0  0  0
  9  8  1  0  0  0  0
 10 11  1  0  0  0  0
 10  9  1  0  0  0  0
 11 21  1  6  0  0  0
 11  7  1  0  0  0  0
 14  5  1  0  0  0  0
 18  9  1  0  0  0  0
 19 10  1  0  0  0  0
 20 10  1  0  0  0  0
 21 23  1  0  0  0  0
 21 22  1  0  0  0  0
 24 21  1  0  0  0  0
 25 11  1  0  0  0  0
 25 27  1  0  0  0  0
 25 26  1  0  0  0  0
 28 25  1  0  0  0  0
 29 30  2  0  0  0  0
 29 28  1  0  0  0  0
 31 29  1  0  0  0  0
 32 33  1  0  0  0  0
 32 31  1  0  0  0  0
 33 31  1  0  0  0  0
M  END
>  <minimizedAffinity>
-4.78703165

>  <minimizedRMSD>
0.732921302

$$$$
