
 OpenBabel03272510043D

 31 33  0  0  0  0  0  0  0  0999 V2000
   36.1820   30.4730   45.4060 C   0  0  0  0  0  0  0  0  0  0  0  0
   35.7940   30.2480   46.6890 C   0  0  0  0  0  0  0  0  0  0  0  0
   34.5350   29.7170   46.9530 C   0  0  0  0  0  0  0  0  0  0  0  0
   33.6360   29.4030   45.9510 C   0  0  0  0  0  0  0  0  0  0  0  0
   33.9900   29.6210   44.6440 C   0  0  0  0  0  0  0  0  0  0  0  0
   35.2390   30.1450   44.4180 C   0  0  0  0  0  0  0  0  0  0  0  0
   34.2520   29.5430   48.0000 H   0  0  0  0  0  0  0  0  0  0  0  0
   32.7000   29.0020   46.2550 H   0  0  0  0  0  0  0  0  0  0  0  0
   33.2630   29.3650   43.9190 H   0  0  0  0  0  0  0  0  0  0  0  0
   35.3960   30.2730   43.3390 H   0  0  0  0  0  0  0  0  0  0  0  0
   38.3000   32.0170   48.7170 C   0  0  0  0  0  0  0  0  0  0  0  0
   37.4600   31.6660   47.6730 C   0  0  0  0  0  0  0  0  0  0  0  0
   36.6310   30.5840   47.7870 C   0  0  0  0  0  0  0  0  0  0  0  0
   36.6730   29.8940   48.9590 N   0  0  0  0  0  0  0  0  0  0  0  0
   37.4800   30.2340   49.9700 C   0  0  0  0  0  0  0  0  0  0  0  0
   38.2900   31.2910   49.8420 N   0  0  0  0  0  0  0  0  0  0  0  0
   39.0050   32.8200   48.7940 H   0  0  0  0  0  0  0  0  0  0  0  0
   37.6350   32.4100   46.9350 H   0  0  0  0  0  0  0  0  0  0  0  0
   37.3680   29.4310   51.2170 C   0  0  0  0  0  0  0  0  0  0  0  0
   37.6900   30.1690   52.3390 F   0  0  0  0  0  0  0  0  0  0  0  0
   35.9730   29.1200   51.4420 F   0  0  0  0  0  0  0  0  0  0  0  0
   37.9510   28.2550   51.2280 F   0  0  0  0  0  0  0  0  0  0  0  0
   37.7080   31.0830   44.9500 S   0  0  0  0  0  0  0  0  0  0  0  0
   37.6210   32.5250   44.5660 O   0  0  0  0  0  0  0  0  0  0  0  0
   37.7620   30.5510   43.5380 O   0  0  0  0  0  0  0  0  0  0  0  0
   39.2180   30.3620   45.1930 C   0  0  0  0  0  0  0  0  0  0  0  0
   39.4020   29.8810   46.1570 H   0  0  0  0  0  0  0  0  0  0  0  0
   39.2330   29.4520   44.4990 H   0  0  0  0  0  0  0  0  0  0  0  0
   40.3880   31.1540   44.6780 C   0  0  0  0  0  3  0  0  0  0  0  0
   41.5330   31.2390   45.7100 C   0  0  0  0  0  2  0  0  0  0  0  0
   40.7520   32.4600   45.2730 C   0  0  0  0  0  2  0  0  0  0  0  0
  1  2  1  0  0  0  0
  2  3  2  0  0  0  0
  2 13  1  0  0  0  0
  3  7  1  0  0  0  0
  4  8  1  0  0  0  0
  4  3  1  0  0  0  0
  5  4  2  0  0  0  0
  6  5  1  0  0  0  0
  6  1  2  0  0  0  0
  9  5  1  0  0  0  0
 10  6  1  0  0  0  0
 11 17  1  0  0  0  0
 11 16  1  0  0  0  0
 12 13  1  0  0  0  0
 12 11  2  0  0  0  0
 13 14  2  0  0  0  0
 14 15  1  0  0  0  0
 15 19  1  0  0  0  0
 16 15  2  0  0  0  0
 18 12  1  0  0  0  0
 19 22  1  0  0  0  0
 19 21  1  0  0  0  0
 19 20  1  0  0  0  0
 23 26  1  0  0  0  0
 23  1  1  0  0  0  0
 24 23  2  0  0  0  0
 25 23  2  0  0  0  0
 26 27  1  0  0  0  0
 28 26  1  0  0  0  0
 29 26  1  0  0  0  0
 29 31  1  0  0  0  0
 29 30  1  0  0  0  0
 31 30  1  0  0  0  0
M  END
>  <minimizedAffinity>
-6.00007915

>  <minimizedRMSD>
1.9123441

$$$$
