
 OpenBabel03272506323D

 34 36  0  0  1  0  0  0  0  0999 V2000
   38.1100   26.3870   35.4500 C   0  0  1  0  0  0  0  0  0  0  0  0
   39.4280   26.9310   35.2030 C   0  0  0  0  0  0  0  0  0  0  0  0
   39.8780   27.0110   33.7590 C   0  0  0  0  0  0  0  0  0  0  0  0
   38.8160   27.3630   32.7820 C   0  0  0  0  0  0  0  0  0  0  0  0
   37.4440   26.8340   33.0270 C   0  0  0  0  0  0  0  0  0  0  0  0
   37.0690   26.8620   34.4610 C   0  0  2  0  0  0  0  0  0  0  0  0
   37.7140   26.8090   36.4280 H   0  0  0  0  0  0  0  0  0  0  0  0
   40.2350   26.4980   35.8030 H   0  0  0  0  0  0  0  0  0  0  0  0
   39.4100   28.0180   35.5270 H   0  0  0  0  0  0  0  0  0  0  0  0
   40.6880   27.7670   33.6860 H   0  0  0  0  0  0  0  0  0  0  0  0
   40.3430   26.0370   33.4650 H   0  0  0  0  0  0  0  0  0  0  0  0
   39.1320   26.9410   31.7890 H   0  0  0  0  0  0  0  0  0  0  0  0
   38.7930   28.4630   32.6250 H   0  0  0  0  0  0  0  0  0  0  0  0
   37.3910   25.7920   32.6520 H   0  0  0  0  0  0  0  0  0  0  0  0
   36.7350   27.4520   32.4750 H   0  0  0  0  0  0  0  0  0  0  0  0
   36.0950   26.3870   34.5840 H   0  0  0  0  0  0  0  0  0  0  0  0
   38.2600   23.9670   34.6420 C   0  0  0  0  0  0  0  0  0  0  0  0
   38.0270   24.9320   35.6680 C   0  0  0  0  0  0  0  0  0  0  0  0
   37.7130   24.4130   36.9040 C   0  0  0  0  0  0  0  0  0  0  0  0
   37.6450   23.0550   37.0780 N   0  0  0  0  0  0  0  0  0  0  0  0
   37.8740   22.1900   36.0770 C   0  0  0  0  0  0  0  0  0  0  0  0
   38.1870   22.6580   34.8380 N   0  0  0  0  0  0  0  0  0  0  0  0
   38.5040   24.3140   33.6710 H   0  0  0  0  0  0  0  0  0  0  0  0
   37.5160   25.0230   37.7500 H   0  0  0  0  0  0  0  0  0  0  0  0
   37.7850   21.1500   36.3610 H   0  0  0  0  0  0  0  0  0  0  0  0
   36.8990   28.3680   34.7910 C   0  0  0  0  0  0  0  0  0  0  0  0
   37.8380   28.9190   34.6410 H   0  0  0  0  0  0  0  0  0  0  0  0
   36.5920   28.5270   35.8330 H   0  0  0  0  0  0  0  0  0  0  0  0
   35.8450   28.9850   33.8780 C   0  0  0  0  0  0  0  0  0  0  0  0
   36.2930   29.3910   32.9710 H   0  0  0  0  0  0  0  0  0  0  0  0
   35.0220   28.2810   33.6630 H   0  0  0  0  0  0  0  0  0  0  0  0
   35.2320   30.1160   34.7150 C   0  0  0  0  0  3  0  0  0  0  0  0
   35.5410   31.5300   34.3010 C   0  0  0  0  0  2  0  0  0  0  0  0
   36.0680   30.9480   35.5780 C   0  0  0  0  0  2  0  0  0  0  0  0
  1 18  1  0  0  0  0
  1  7  1  1  0  0  0
  2  1  1  0  0  0  0
  2  9  1  0  0  0  0
  2  8  1  0  0  0  0
  3  2  1  0  0  0  0
  4  5  1  0  0  0  0
  4  3  1  0  0  0  0
  5  6  1  0  0  0  0
  6 16  1  1  0  0  0
  6 26  1  0  0  0  0
  6  1  1  0  0  0  0
 10  3  1  0  0  0  0
 11  3  1  0  0  0  0
 12  4  1  0  0  0  0
 13  4  1  0  0  0  0
 14  5  1  0  0  0  0
 15  5  1  0  0  0  0
 17 22  2  0  0  0  0
 17 18  1  0  0  0  0
 18 19  2  0  0  0  0
 19 20  1  0  0  0  0
 19 24  1  0  0  0  0
 21 25  1  0  0  0  0
 21 20  2  0  0  0  0
 22 21  1  0  0  0  0
 23 17  1  0  0  0  0
 26 28  1  0  0  0  0
 27 26  1  0  0  0  0
 29 32  1  0  0  0  0
 29 26  1  0  0  0  0
 30 29  1  0  0  0  0
 31 29  1  0  0  0  0
 32 34  1  0  0  0  0
 33 32  1  0  0  0  0
 33 34  1  0  0  0  0
M  END
>  <minimizedAffinity>
-4.82300234

$$$$

 OpenBabel03272506323D

 34 36  0  0  1  0  0  0  0  0999 V2000
   37.4490   26.7230   33.7260 C   0  0  1  0  0  0  0  0  0  0  0  0
   38.6190   26.4210   32.9310 C   0  0  0  0  0  0  0  0  0  0  0  0
   39.9500   26.9260   33.4480 C   0  0  0  0  0  0  0  0  0  0  0  0
   40.1160   26.8820   34.9230 C   0  0  0  0  0  0  0  0  0  0  0  0
   38.9190   27.1670   35.7650 C   0  0  0  0  0  0  0  0  0  0  0  0
   37.6790   26.5720   35.2140 C   0  0  2  0  0  0  0  0  0  0  0  0
   36.6550   25.9330   33.5300 H   0  0  0  0  0  0  0  0  0  0  0  0
   38.5380   26.6600   31.8650 H   0  0  0  0  0  0  0  0  0  0  0  0
   38.7510   25.2940   32.9400 H   0  0  0  0  0  0  0  0  0  0  0  0
   40.7570   26.3220   32.9840 H   0  0  0  0  0  0  0  0  0  0  0  0
   40.1090   27.9740   33.0890 H   0  0  0  0  0  0  0  0  0  0  0  0
   40.8710   27.6710   35.1910 H   0  0  0  0  0  0  0  0  0  0  0  0
   40.5920   25.9240   35.2230 H   0  0  0  0  0  0  0  0  0  0  0  0
   38.7950   28.2650   35.8500 H   0  0  0  0  0  0  0  0  0  0  0  0
   39.0910   26.7470   36.7560 H   0  0  0  0  0  0  0  0  0  0  0  0
   36.8310   26.8850   35.8240 H   0  0  0  0  0  0  0  0  0  0  0  0
   35.9850   28.7160   34.3700 C   0  0  0  0  0  0  0  0  0  0  0  0
   36.7420   27.9770   33.4120 C   0  0  0  0  0  0  0  0  0  0  0  0
   36.7770   28.5180   32.1460 C   0  0  0  0  0  0  0  0  0  0  0  0
   36.1120   29.6870   31.8830 N   0  0  0  0  0  0  0  0  0  0  0  0
   35.4130   30.3430   32.8230 C   0  0  0  0  0  0  0  0  0  0  0  0
   35.3510   29.8460   34.0890 N   0  0  0  0  0  0  0  0  0  0  0  0
   35.9250   28.3430   35.3600 H   0  0  0  0  0  0  0  0  0  0  0  0
   37.3050   28.0660   31.3430 H   0  0  0  0  0  0  0  0  0  0  0  0
   34.9410   31.2510   32.4720 H   0  0  0  0  0  0  0  0  0  0  0  0
   37.8570   25.0430   35.4110 C   0  0  0  0  0  0  0  0  0  0  0  0
   38.7730   24.6820   34.9240 H   0  0  0  0  0  0  0  0  0  0  0  0
   37.0180   24.4750   34.9900 H   0  0  0  0  0  0  0  0  0  0  0  0
   37.9620   24.7200   36.8980 C   0  0  0  0  0  0  0  0  0  0  0  0
   38.6480   25.3980   37.4050 H   0  0  0  0  0  0  0  0  0  0  0  0
   36.9710   24.6820   37.3830 H   0  0  0  0  0  0  0  0  0  0  0  0
   38.5110   23.2860   36.9370 C   0  0  0  0  0  3  0  0  0  0  0  0
   39.6480   23.0070   37.8830 C   0  0  0  0  0  2  0  0  0  0  0  0
   39.8330   22.9750   36.3950 C   0  0  0  0  0  2  0  0  0  0  0  0
  1  7  1  6  0  0  0
  1  6  1  0  0  0  0
  2  9  1  0  0  0  0
  2  3  1  0  0  0  0
  2  1  1  0  0  0  0
  3  4  1  0  0  0  0
  4 12  1  0  0  0  0
  4 13  1  0  0  0  0
  4  5  1  0  0  0  0
  5 14  1  0  0  0  0
  5 15  1  0  0  0  0
  6 26  1  0  0  0  0
  6  5  1  0  0  0  0
  6 16  1  1  0  0  0
  8  2  1  0  0  0  0
 10  3  1  0  0  0  0
 11  3  1  0  0  0  0
 17 23  1  0  0  0  0
 18  1  1  0  0  0  0
 18 17  2  0  0  0  0
 19 18  1  0  0  0  0
 20 19  2  0  0  0  0
 20 21  1  0  0  0  0
 21 22  2  0  0  0  0
 22 17  1  0  0  0  0
 24 19  1  0  0  0  0
 25 21  1  0  0  0  0
 26 29  1  0  0  0  0
 27 26  1  0  0  0  0
 28 26  1  0  0  0  0
 29 32  1  0  0  0  0
 29 31  1  0  0  0  0
 29 30  1  0  0  0  0
 32 33  1  0  0  0  0
 34 32  1  0  0  0  0
 34 33  1  0  0  0  0
M  END
>  <minimizedAffinity>
-4.78968

$$$$

 OpenBabel03272506323D

 34 36  0  0  1  0  0  0  0  0999 V2000
   38.6870   25.6150   33.6150 C   0  0  1  0  0  0  0  0  0  0  0  0
   38.9480   26.9760   34.0300 C   0  0  0  0  0  0  0  0  0  0  0  0
   38.3130   27.4310   35.3280 C   0  0  0  0  0  0  0  0  0  0  0  0
   38.2560   26.4060   36.4000 C   0  0  0  0  0  0  0  0  0  0  0  0
   38.0120   24.9910   35.9960 C   0  0  0  0  0  0  0  0  0  0  0  0
   38.7310   24.6210   34.7540 C   0  0  2  0  0  0  0  0  0  0  0  0
   39.5450   25.2580   32.9590 H   0  0  0  0  0  0  0  0  0  0  0  0
   38.7800   27.7410   33.2650 H   0  0  0  0  0  0  0  0  0  0  0  0
   40.0590   27.0570   34.2450 H   0  0  0  0  0  0  0  0  0  0  0  0
   38.8820   28.3060   35.7070 H   0  0  0  0  0  0  0  0  0  0  0  0
   37.2800   27.8070   35.1190 H   0  0  0  0  0  0  0  0  0  0  0  0
   37.3980   26.6820   37.0720 H   0  0  0  0  0  0  0  0  0  0  0  0
   39.1560   26.4820   37.0470 H   0  0  0  0  0  0  0  0  0  0  0  0
   36.9230   24.8450   35.8500 H   0  0  0  0  0  0  0  0  0  0  0  0
   38.3580   24.3410   36.8000 H   0  0  0  0  0  0  0  0  0  0  0  0
   38.4470   23.6080   34.4660 H   0  0  0  0  0  0  0  0  0  0  0  0
   36.7480   26.4640   32.1830 C   0  0  0  0  0  0  0  0  0  0  0  0
   37.5110   25.4010   32.7530 C   0  0  0  0  0  0  0  0  0  0  0  0
   37.0750   24.1320   32.4440 C   0  0  0  0  0  0  0  0  0  0  0  0
   35.9790   23.9630   31.6380 N   0  0  0  0  0  0  0  0  0  0  0  0
   35.2970   25.0000   31.1270 C   0  0  0  0  0  0  0  0  0  0  0  0
   35.6910   26.2720   31.4060 N   0  0  0  0  0  0  0  0  0  0  0  0
   37.0410   27.4610   32.3910 H   0  0  0  0  0  0  0  0  0  0  0  0
   37.5540   23.2560   32.8050 H   0  0  0  0  0  0  0  0  0  0  0  0
   34.4550   24.7150   30.5090 H   0  0  0  0  0  0  0  0  0  0  0  0
   40.2270   24.5870   35.1630 C   0  0  0  0  0  0  0  0  0  0  0  0
   40.3750   25.0030   36.1700 H   0  0  0  0  0  0  0  0  0  0  0  0
   40.8530   25.1680   34.4750 H   0  0  0  0  0  0  0  0  0  0  0  0
   40.7300   23.1470   35.1750 C   0  0  0  0  0  0  0  0  0  0  0  0
   39.9230   22.4420   34.9780 H   0  0  0  0  0  0  0  0  0  0  0  0
   41.5890   23.0050   34.4970 H   0  0  0  0  0  0  0  0  0  0  0  0
   41.2720   22.9460   36.5980 C   0  0  0  0  0  3  0  0  0  0  0  0
   41.2420   21.5490   37.1580 C   0  0  0  0  0  2  0  0  0  0  0  0
   40.3700   22.6380   37.7060 C   0  0  0  0  0  2  0  0  0  0  0  0
  1  7  1  6  0  0  0
  1  2  1  0  0  0  0
  1  6  1  0  0  0  0
  2  9  1  0  0  0  0
  2  3  1  0  0  0  0
  3 10  1  0  0  0  0
  3  4  1  0  0  0  0
  4 13  1  0  0  0  0
  4 12  1  0  0  0  0
  5  4  1  0  0  0  0
  5 15  1  0  0  0  0
  6 16  1  6  0  0  0
  6 26  1  0  0  0  0
  6  5  1  0  0  0  0
  8  2  1  0  0  0  0
 11  3  1  0  0  0  0
 14  5  1  0  0  0  0
 17 23  1  0  0  0  0
 17 18  1  0  0  0  0
 18  1  1  0  0  0  0
 19 18  2  0  0  0  0
 19 24  1  0  0  0  0
 20 19  1  0  0  0  0
 21 22  1  0  0  0  0
 21 20  2  0  0  0  0
 22 17  2  0  0  0  0
 25 21  1  0  0  0  0
 26 29  1  0  0  0  0
 26 27  1  0  0  0  0
 28 26  1  0  0  0  0
 29 32  1  0  0  0  0
 30 29  1  0  0  0  0
 31 29  1  0  0  0  0
 32 33  1  0  0  0  0
 32 34  1  0  0  0  0
 33 34  1  0  0  0  0
M  END
>  <minimizedAffinity>
-4.6194706

$$$$

 OpenBabel03272506323D

 34 36  0  0  1  0  0  0  0  0999 V2000
   38.7500   23.2230   35.5520 C   0  0  1  0  0  0  0  0  0  0  0  0
   38.5510   23.9050   36.8120 C   0  0  0  0  0  0  0  0  0  0  0  0
   39.0880   23.2230   38.0530 C   0  0  0  0  0  0  0  0  0  0  0  0
   40.3780   22.5100   37.8780 C   0  0  0  0  0  0  0  0  0  0  0  0
   40.6180   21.8190   36.5780 C   0  0  0  0  0  0  0  0  0  0  0  0
   40.1200   22.5970   35.4190 C   0  0  2  0  0  0  0  0  0  0  0  0
   38.7620   23.9920   34.7140 H   0  0  0  0  0  0  0  0  0  0  0  0
   37.5270   24.2430   37.0070 H   0  0  0  0  0  0  0  0  0  0  0  0
   39.1450   24.8710   36.7720 H   0  0  0  0  0  0  0  0  0  0  0  0
   39.2140   23.9900   38.8460 H   0  0  0  0  0  0  0  0  0  0  0  0
   38.3190   22.5090   38.4410 H   0  0  0  0  0  0  0  0  0  0  0  0
   40.4160   21.7040   38.6610 H   0  0  0  0  0  0  0  0  0  0  0  0
   41.2230   23.1850   38.1280 H   0  0  0  0  0  0  0  0  0  0  0  0
   40.1180   20.8300   36.6020 H   0  0  0  0  0  0  0  0  0  0  0  0
   41.6920   21.6760   36.4600 H   0  0  0  0  0  0  0  0  0  0  0  0
   40.2480   22.0040   34.5120 H   0  0  0  0  0  0  0  0  0  0  0  0
   37.4820   21.9030   33.7690 C   0  0  0  0  0  0  0  0  0  0  0  0
   37.6860   22.2970   35.1250 C   0  0  0  0  0  0  0  0  0  0  0  0
   36.8120   21.7480   36.0360 C   0  0  0  0  0  0  0  0  0  0  0  0
   35.8340   20.8870   35.6110 N   0  0  0  0  0  0  0  0  0  0  0  0
   35.6850   20.5490   34.3200 C   0  0  0  0  0  0  0  0  0  0  0  0
   36.5270   21.0680   33.3850 N   0  0  0  0  0  0  0  0  0  0  0  0
   38.1280   22.2990   33.0270 H   0  0  0  0  0  0  0  0  0  0  0  0
   36.8560   21.9600   37.0750 H   0  0  0  0  0  0  0  0  0  0  0  0
   34.8720   19.8610   34.1320 H   0  0  0  0  0  0  0  0  0  0  0  0
   41.0800   23.8120   35.3210 C   0  0  0  0  0  0  0  0  0  0  0  0
   42.1210   23.4880   35.1800 H   0  0  0  0  0  0  0  0  0  0  0  0
   41.0510   24.4300   36.2280 H   0  0  0  0  0  0  0  0  0  0  0  0
   40.6980   24.6830   34.1300 C   0  0  0  0  0  0  0  0  0  0  0  0
   41.3560   24.5050   33.2790 H   0  0  0  0  0  0  0  0  0  0  0  0
   39.6310   24.5760   33.8660 H   0  0  0  0  0  0  0  0  0  0  0  0
   40.8690   26.1210   34.6400 C   0  0  0  0  0  3  0  0  0  0  0  0
   39.6370   26.9830   34.7030 C   0  0  0  0  0  2  0  0  0  0  0  0
   40.7450   27.2580   33.7300 C   0  0  0  0  0  2  0  0  0  0  0  0
  1  7  1  6  0  0  0
  1  2  1  0  0  0  0
  2  8  1  0  0  0  0
  2  3  1  0  0  0  0
  3 11  1  0  0  0  0
  3 10  1  0  0  0  0
  4  3  1  0  0  0  0
  4 13  1  0  0  0  0
  4 12  1  0  0  0  0
  5 14  1  0  0  0  0
  5  4  1  0  0  0  0
  6 16  1  6  0  0  0
  6  1  1  0  0  0  0
  6  5  1  0  0  0  0
  9  2  1  0  0  0  0
 15  5  1  0  0  0  0
 17 18  1  0  0  0  0
 18  1  1  0  0  0  0
 18 19  2  0  0  0  0
 19 24  1  0  0  0  0
 20 19  1  0  0  0  0
 21 20  2  0  0  0  0
 22 17  2  0  0  0  0
 22 21  1  0  0  0  0
 23 17  1  0  0  0  0
 25 21  1  0  0  0  0
 26  6  1  0  0  0  0
 26 28  1  0  0  0  0
 27 26  1  0  0  0  0
 29 32  1  0  0  0  0
 29 26  1  0  0  0  0
 30 29  1  0  0  0  0
 31 29  1  0  0  0  0
 32 33  1  0  0  0  0
 34 32  1  0  0  0  0
 34 33  1  0  0  0  0
M  END
>  <minimizedAffinity>
-4.55311823

$$$$

 OpenBabel03272506323D

 34 36  0  0  1  0  0  0  0  0999 V2000
   38.2140   26.4750   33.2180 C   0  0  1  0  0  0  0  0  0  0  0  0
   39.2400   26.4760   32.1990 C   0  0  0  0  0  0  0  0  0  0  0  0
   40.5530   27.1470   32.5460 C   0  0  0  0  0  0  0  0  0  0  0  0
   41.0050   26.9670   33.9490 C   0  0  0  0  0  0  0  0  0  0  0  0
   39.9650   26.9390   35.0160 C   0  0  0  0  0  0  0  0  0  0  0  0
   38.7470   26.2000   34.6060 C   0  0  2  0  0  0  0  0  0  0  0  0
   37.5270   25.5840   33.0500 H   0  0  0  0  0  0  0  0  0  0  0  0
   38.9190   26.8160   31.2080 H   0  0  0  0  0  0  0  0  0  0  0  0
   39.5420   25.3960   32.0220 H   0  0  0  0  0  0  0  0  0  0  0  0
   41.3380   26.7510   31.8690 H   0  0  0  0  0  0  0  0  0  0  0  0
   40.4770   28.2400   32.3190 H   0  0  0  0  0  0  0  0  0  0  0  0
   41.6680   27.8410   34.1940 H   0  0  0  0  0  0  0  0  0  0  0  0
   41.6710   26.0800   34.0220 H   0  0  0  0  0  0  0  0  0  0  0  0
   39.6930   27.9810   35.2780 H   0  0  0  0  0  0  0  0  0  0  0  0
   40.3870   26.4470   35.8920 H   0  0  0  0  0  0  0  0  0  0  0  0
   37.9960   26.2870   35.3920 H   0  0  0  0  0  0  0  0  0  0  0  0
   36.5600   28.0480   34.3680 C   0  0  0  0  0  0  0  0  0  0  0  0
   37.2760   27.6120   33.2130 C   0  0  0  0  0  0  0  0  0  0  0  0
   37.0370   28.3340   32.0650 C   0  0  0  0  0  0  0  0  0  0  0  0
   36.1610   29.3880   32.0910 N   0  0  0  0  0  0  0  0  0  0  0  0
   35.5130   29.7560   33.2070 C   0  0  0  0  0  0  0  0  0  0  0  0
   35.7180   29.0710   34.3650 N   0  0  0  0  0  0  0  0  0  0  0  0
   36.7080   27.5250   35.2780 H   0  0  0  0  0  0  0  0  0  0  0  0
   37.5060   28.1120   31.1390 H   0  0  0  0  0  0  0  0  0  0  0  0
   34.8550   30.6050   33.0780 H   0  0  0  0  0  0  0  0  0  0  0  0
   39.1920   24.7140   34.5490 C   0  0  0  0  0  0  0  0  0  0  0  0
   40.1330   24.6010   33.9940 H   0  0  0  0  0  0  0  0  0  0  0  0
   38.4430   24.0820   34.0540 H   0  0  0  0  0  0  0  0  0  0  0  0
   39.4160   24.1840   35.9610 C   0  0  0  0  0  0  0  0  0  0  0  0
   39.7170   23.1360   35.9490 H   0  0  0  0  0  0  0  0  0  0  0  0
   40.1160   24.8170   36.5330 H   0  0  0  0  0  0  0  0  0  0  0  0
   38.0490   24.3330   36.6440 C   0  0  0  0  0  3  0  0  0  0  0  0
   38.0050   24.1860   38.1410 C   0  0  0  0  0  2  0  0  0  0  0  0
   37.3740   23.1770   37.2300 C   0  0  0  0  0  2  0  0  0  0  0  0
  1  7  1  6  0  0  0
  1  6  1  0  0  0  0
  2  3  1  0  0  0  0
  2  1  1  0  0  0  0
  3  4  1  0  0  0  0
  4 13  1  0  0  0  0
  4 12  1  0  0  0  0
  4  5  1  0  0  0  0
  5 14  1  0  0  0  0
  5 15  1  0  0  0  0
  6  5  1  0  0  0  0
  6 16  1  1  0  0  0
  8  2  1  0  0  0  0
  9  2  1  0  0  0  0
 10  3  1  0  0  0  0
 11  3  1  0  0  0  0
 17 23  1  0  0  0  0
 18  1  1  0  0  0  0
 18 17  2  0  0  0  0
 19 20  2  0  0  0  0
 19 18  1  0  0  0  0
 20 21  1  0  0  0  0
 21 22  2  0  0  0  0
 22 17  1  0  0  0  0
 24 19  1  0  0  0  0
 25 21  1  0  0  0  0
 26  6  1  0  0  0  0
 26 29  1  0  0  0  0
 27 26  1  0  0  0  0
 28 26  1  0  0  0  0
 29 31  1  0  0  0  0
 29 32  1  0  0  0  0
 30 29  1  0  0  0  0
 32 34  1  0  0  0  0
 32 33  1  0  0  0  0
 34 33  1  0  0  0  0
M  END
>  <minimizedAffinity>
-4.47355413

$$$$

 OpenBabel03272506323D

 34 36  0  0  1  0  0  0  0  0999 V2000
   39.2610   26.3500   34.0980 C   0  0  1  0  0  0  0  0  0  0  0  0
   39.1830   27.1600   35.2940 C   0  0  0  0  0  0  0  0  0  0  0  0
   38.2360   26.6920   36.3790 C   0  0  0  0  0  0  0  0  0  0  0  0
   38.1610   25.2210   36.5640 C   0  0  0  0  0  0  0  0  0  0  0  0
   38.2630   24.3620   35.3490 C   0  0  0  0  0  0  0  0  0  0  0  0
   39.2650   24.8640   34.3790 C   0  0  2  0  0  0  0  0  0  0  0  0
   40.2810   26.5000   33.6170 H   0  0  0  0  0  0  0  0  0  0  0  0
   39.0290   28.2320   35.1270 H   0  0  0  0  0  0  0  0  0  0  0  0
   40.1970   27.1150   35.8000 H   0  0  0  0  0  0  0  0  0  0  0  0
   38.5500   27.1520   37.3400 H   0  0  0  0  0  0  0  0  0  0  0  0
   37.2120   27.0920   36.1710 H   0  0  0  0  0  0  0  0  0  0  0  0
   37.1520   24.9980   37.0090 H   0  0  0  0  0  0  0  0  0  0  0  0
   38.8880   24.8970   37.3390 H   0  0  0  0  0  0  0  0  0  0  0  0
   37.2690   24.3130   34.8620 H   0  0  0  0  0  0  0  0  0  0  0  0
   38.5590   23.3610   35.6620 H   0  0  0  0  0  0  0  0  0  0  0  0
   39.2320   24.2450   33.4810 H   0  0  0  0  0  0  0  0  0  0  0  0
   37.2490   27.6090   33.1510 C   0  0  0  0  0  0  0  0  0  0  0  0
   38.3340   26.6930   33.0050 C   0  0  0  0  0  0  0  0  0  0  0  0
   38.4690   26.1350   31.7540 C   0  0  0  0  0  0  0  0  0  0  0  0
   37.5930   26.4740   30.7560 N   0  0  0  0  0  0  0  0  0  0  0  0
   36.5880   27.3440   30.9470 C   0  0  0  0  0  0  0  0  0  0  0  0
   36.4160   27.9200   32.1680 N   0  0  0  0  0  0  0  0  0  0  0  0
   37.1010   28.0670   34.0950 H   0  0  0  0  0  0  0  0  0  0  0  0
   39.2340   25.4380   31.5150 H   0  0  0  0  0  0  0  0  0  0  0  0
   35.9780   27.5160   30.0700 H   0  0  0  0  0  0  0  0  0  0  0  0
   40.6330   24.6160   35.0670 C   0  0  0  0  0  0  0  0  0  0  0  0
   40.6540   25.0410   36.0800 H   0  0  0  0  0  0  0  0  0  0  0  0
   41.4610   25.0690   34.5060 H   0  0  0  0  0  0  0  0  0  0  0  0
   40.8930   23.1180   35.1840 C   0  0  0  0  0  0  0  0  0  0  0  0
   39.9790   22.5430   35.0310 H   0  0  0  0  0  0  0  0  0  0  0  0
   41.7140   22.7880   34.5250 H   0  0  0  0  0  0  0  0  0  0  0  0
   41.3990   22.9320   36.6220 C   0  0  0  0  0  3  0  0  0  0  0  0
   41.5330   21.5210   37.1310 C   0  0  0  0  0  2  0  0  0  0  0  0
   40.5020   22.4630   37.6770 C   0  0  0  0  0  2  0  0  0  0  0  0
  1  7  1  6  0  0  0
  1  6  1  0  0  0  0
  1  2  1  0  0  0  0
  2  9  1  0  0  0  0
  2  3  1  0  0  0  0
  3  4  1  0  0  0  0
  3 10  1  0  0  0  0
  4 12  1  0  0  0  0
  4 13  1  0  0  0  0
  5 15  1  0  0  0  0
  5  4  1  0  0  0  0
  6 16  1  6  0  0  0
  6 26  1  0  0  0  0
  6  5  1  0  0  0  0
  8  2  1  0  0  0  0
 11  3  1  0  0  0  0
 14  5  1  0  0  0  0
 17 23  1  0  0  0  0
 18 17  1  0  0  0  0
 18  1  1  0  0  0  0
 19 18  2  0  0  0  0
 20 21  2  0  0  0  0
 20 19  1  0  0  0  0
 21 22  1  0  0  0  0
 22 17  2  0  0  0  0
 24 19  1  0  0  0  0
 25 21  1  0  0  0  0
 26 29  1  0  0  0  0
 26 27  1  0  0  0  0
 28 26  1  0  0  0  0
 29 32  1  0  0  0  0
 30 29  1  0  0  0  0
 31 29  1  0  0  0  0
 32 33  1  0  0  0  0
 32 34  1  0  0  0  0
 33 34  1  0  0  0  0
M  END
>  <minimizedAffinity>
-4.43756485

$$$$

 OpenBabel03272506323D

 34 36  0  0  1  0  0  0  0  0999 V2000
   38.7570   24.3820   35.0190 C   0  0  1  0  0  0  0  0  0  0  0  0
   37.8300   25.1580   35.8120 C   0  0  0  0  0  0  0  0  0  0  0  0
   38.3030   26.5170   36.2870 C   0  0  0  0  0  0  0  0  0  0  0  0
   39.1480   27.2660   35.3240 C   0  0  0  0  0  0  0  0  0  0  0  0
   40.0960   26.4860   34.4770 C   0  0  0  0  0  0  0  0  0  0  0  0
   39.5160   25.2070   34.0040 C   0  0  2  0  0  0  0  0  0  0  0  0
   38.1690   23.6730   34.3520 H   0  0  0  0  0  0  0  0  0  0  0  0
   37.3710   24.6280   36.6530 H   0  0  0  0  0  0  0  0  0  0  0  0
   36.9460   25.4120   35.1470 H   0  0  0  0  0  0  0  0  0  0  0  0
   37.4110   27.1330   36.5270 H   0  0  0  0  0  0  0  0  0  0  0  0
   38.8580   26.3960   37.2500 H   0  0  0  0  0  0  0  0  0  0  0  0
   39.7870   27.9690   35.9260 H   0  0  0  0  0  0  0  0  0  0  0  0
   38.5140   27.9300   34.6980 H   0  0  0  0  0  0  0  0  0  0  0  0
   41.0130   26.2810   35.0650 H   0  0  0  0  0  0  0  0  0  0  0  0
   40.3540   27.0890   33.6070 H   0  0  0  0  0  0  0  0  0  0  0  0
   40.2820   24.6470   33.4650 H   0  0  0  0  0  0  0  0  0  0  0  0
   40.7740   22.8180   35.1580 C   0  0  0  0  0  0  0  0  0  0  0  0
   39.6510   23.4680   35.7530 C   0  0  0  0  0  0  0  0  0  0  0  0
   39.4460   23.1880   37.0850 C   0  0  0  0  0  0  0  0  0  0  0  0
   40.2950   22.3360   37.7430 N   0  0  0  0  0  0  0  0  0  0  0  0
   41.3380   21.7500   37.1350 C   0  0  0  0  0  0  0  0  0  0  0  0
   41.5790   21.9980   35.8180 N   0  0  0  0  0  0  0  0  0  0  0  0
   40.9750   22.9990   34.1340 H   0  0  0  0  0  0  0  0  0  0  0  0
   38.6460   23.6060   37.6440 H   0  0  0  0  0  0  0  0  0  0  0  0
   41.9210   21.1040   37.7780 H   0  0  0  0  0  0  0  0  0  0  0  0
   38.4330   25.6250   32.9750 C   0  0  0  0  0  0  0  0  0  0  0  0
   38.8060   26.4050   32.2970 H   0  0  0  0  0  0  0  0  0  0  0  0
   37.5350   26.0210   33.4650 H   0  0  0  0  0  0  0  0  0  0  0  0
   38.0310   24.4230   32.1260 C   0  0  0  0  0  0  0  0  0  0  0  0
   38.3780   24.5280   31.0980 H   0  0  0  0  0  0  0  0  0  0  0  0
   38.3480   23.4700   32.5840 H   0  0  0  0  0  0  0  0  0  0  0  0
   36.4960   24.4260   32.1680 C   0  0  0  0  0  3  0  0  0  0  0  0
   35.7800   23.3930   31.3400 C   0  0  0  0  0  2  0  0  0  0  0  0
   35.7150   24.8540   31.0080 C   0  0  0  0  0  2  0  0  0  0  0  0
  1  7  1  6  0  0  0
  1 18  1  0  0  0  0
  1  2  1  0  0  0  0
  2  3  1  0  0  0  0
  2  8  1  0  0  0  0
  3 10  1  0  0  0  0
  3 11  1  0  0  0  0
  4 12  1  0  0  0  0
  4  3  1  0  0  0  0
  5 14  1  0  0  0  0
  5  4  1  0  0  0  0
  6 16  1  6  0  0  0
  6  5  1  0  0  0  0
  6  1  1  0  0  0  0
  9  2  1  0  0  0  0
 13  4  1  0  0  0  0
 15  5  1  0  0  0  0
 17 18  2  0  0  0  0
 17 22  1  0  0  0  0
 18 19  1  0  0  0  0
 19 24  1  0  0  0  0
 19 20  2  0  0  0  0
 21 20  1  0  0  0  0
 21 25  1  0  0  0  0
 22 21  2  0  0  0  0
 23 17  1  0  0  0  0
 26 28  1  0  0  0  0
 26  6  1  0  0  0  0
 27 26  1  0  0  0  0
 29 32  1  0  0  0  0
 29 31  1  0  0  0  0
 29 26  1  0  0  0  0
 30 29  1  0  0  0  0
 33 32  1  0  0  0  0
 34 33  1  0  0  0  0
 34 32  1  0  0  0  0
M  END
>  <minimizedAffinity>
-4.42311239

$$$$

 OpenBabel03272506323D

 34 36  0  0  1  0  0  0  0  0999 V2000
   39.2430   24.4800   34.3800 C   0  0  1  0  0  0  0  0  0  0  0  0
   40.3150   25.4210   34.6190 C   0  0  0  0  0  0  0  0  0  0  0  0
   39.9180   26.8460   34.9440 C   0  0  0  0  0  0  0  0  0  0  0  0
   38.7040   26.9900   35.7860 C   0  0  0  0  0  0  0  0  0  0  0  0
   37.5930   26.0170   35.5760 C   0  0  0  0  0  0  0  0  0  0  0  0
   38.0810   24.6380   35.3350 C   0  0  2  0  0  0  0  0  0  0  0  0
   39.6090   23.4320   34.6290 H   0  0  0  0  0  0  0  0  0  0  0  0
   41.1050   25.4360   33.8610 H   0  0  0  0  0  0  0  0  0  0  0  0
   40.8570   25.0850   35.5580 H   0  0  0  0  0  0  0  0  0  0  0  0
   40.7680   27.3350   35.4640 H   0  0  0  0  0  0  0  0  0  0  0  0
   39.7770   27.4140   33.9910 H   0  0  0  0  0  0  0  0  0  0  0  0
   38.2680   28.0010   35.5620 H   0  0  0  0  0  0  0  0  0  0  0  0
   38.9880   27.0380   36.8590 H   0  0  0  0  0  0  0  0  0  0  0  0
   36.9860   26.3500   34.7100 H   0  0  0  0  0  0  0  0  0  0  0  0
   36.9700   26.0100   36.4700 H   0  0  0  0  0  0  0  0  0  0  0  0
   37.2310   23.9950   35.1060 H   0  0  0  0  0  0  0  0  0  0  0  0
   37.6630   23.5440   32.6020 C   0  0  0  0  0  0  0  0  0  0  0  0
   38.7840   24.3400   32.9870 C   0  0  0  0  0  0  0  0  0  0  0  0
   39.4280   24.9870   31.9560 C   0  0  0  0  0  0  0  0  0  0  0  0
   38.9770   24.8410   30.6700 N   0  0  0  0  0  0  0  0  0  0  0  0
   37.9160   24.0790   30.3630 C   0  0  0  0  0  0  0  0  0  0  0  0
   37.2490   23.4200   31.3490 N   0  0  0  0  0  0  0  0  0  0  0  0
   37.1330   23.0240   33.3580 H   0  0  0  0  0  0  0  0  0  0  0  0
   40.2750   25.6090   32.1080 H   0  0  0  0  0  0  0  0  0  0  0  0
   37.6750   24.0580   29.3080 H   0  0  0  0  0  0  0  0  0  0  0  0
   38.6550   24.1830   36.7030 C   0  0  0  0  0  0  0  0  0  0  0  0
   37.8890   24.2210   37.4900 H   0  0  0  0  0  0  0  0  0  0  0  0
   39.4900   24.8170   37.0280 H   0  0  0  0  0  0  0  0  0  0  0  0
   39.1510   22.7440   36.6050 C   0  0  0  0  0  0  0  0  0  0  0  0
   38.4250   22.0440   37.0190 H   0  0  0  0  0  0  0  0  0  0  0  0
   39.4510   22.4800   35.5760 H   0  0  0  0  0  0  0  0  0  0  0  0
   40.4380   22.7280   37.4430 C   0  0  0  0  0  3  0  0  0  0  0  0
   41.7460   22.7060   36.6990 C   0  0  0  0  0  2  0  0  0  0  0  0
   41.2770   21.5330   37.5050 C   0  0  0  0  0  2  0  0  0  0  0  0
  1  2  1  0  0  0  0
  1  7  1  1  0  0  0
  1  6  1  0  0  0  0
  2  3  1  0  0  0  0
  2  9  1  0  0  0  0
  3 10  1  0  0  0  0
  3  4  1  0  0  0  0
  4 13  1  0  0  0  0
  5  4  1  0  0  0  0
  5 15  1  0  0  0  0
  6 16  1  6  0  0  0
  6  5  1  0  0  0  0
  6 26  1  0  0  0  0
  8  2  1  0  0  0  0
 11  3  1  0  0  0  0
 12  4  1  0  0  0  0
 14  5  1  0  0  0  0
 17 18  1  0  0  0  0
 17 23  1  0  0  0  0
 18  1  1  0  0  0  0
 19 24  1  0  0  0  0
 19 18  2  0  0  0  0
 20 19  1  0  0  0  0
 21 20  2  0  0  0  0
 21 22  1  0  0  0  0
 22 17  2  0  0  0  0
 25 21  1  0  0  0  0
 26 28  1  0  0  0  0
 26 27  1  0  0  0  0
 29 26  1  0  0  0  0
 29 30  1  0  0  0  0
 29 32  1  0  0  0  0
 31 29  1  0  0  0  0
 32 34  1  0  0  0  0
 33 32  1  0  0  0  0
 33 34  1  0  0  0  0
M  END
>  <minimizedAffinity>
-4.41878128

$$$$

 OpenBabel03272506323D

 34 36  0  0  1  0  0  0  0  0999 V2000
   37.9260   26.0530   32.9060 C   0  0  1  0  0  0  0  0  0  0  0  0
   38.4040   27.0250   31.9480 C   0  0  0  0  0  0  0  0  0  0  0  0
   37.4930   28.1960   31.6440 C   0  0  0  0  0  0  0  0  0  0  0  0
   36.7290   28.7220   32.8040 C   0  0  0  0  0  0  0  0  0  0  0  0
   36.2440   27.7430   33.8180 C   0  0  0  0  0  0  0  0  0  0  0  0
   37.2340   26.6760   34.0980 C   0  0  2  0  0  0  0  0  0  0  0  0
   38.8180   25.5440   33.3930 H   0  0  0  0  0  0  0  0  0  0  0  0
   38.7770   26.6120   31.0050 H   0  0  0  0  0  0  0  0  0  0  0  0
   39.3200   27.5220   32.3990 H   0  0  0  0  0  0  0  0  0  0  0  0
   38.1100   29.0190   31.2260 H   0  0  0  0  0  0  0  0  0  0  0  0
   36.7810   27.9060   30.8320 H   0  0  0  0  0  0  0  0  0  0  0  0
   35.8060   29.2140   32.3910 H   0  0  0  0  0  0  0  0  0  0  0  0
   37.2930   29.5470   33.2890 H   0  0  0  0  0  0  0  0  0  0  0  0
   35.3030   27.2870   33.4520 H   0  0  0  0  0  0  0  0  0  0  0  0
   36.0470   28.2810   34.7450 H   0  0  0  0  0  0  0  0  0  0  0  0
   36.7900   25.9490   34.7800 H   0  0  0  0  0  0  0  0  0  0  0  0
   36.0680   25.0620   31.4570 C   0  0  0  0  0  0  0  0  0  0  0  0
   37.1590   24.9160   32.3670 C   0  0  0  0  0  0  0  0  0  0  0  0
   37.4610   23.6200   32.7200 C   0  0  0  0  0  0  0  0  0  0  0  0
   36.7320   22.5820   32.2010 N   0  0  0  0  0  0  0  0  0  0  0  0
   35.7150   22.7750   31.3470 C   0  0  0  0  0  0  0  0  0  0  0  0
   35.3790   24.0400   30.9700 N   0  0  0  0  0  0  0  0  0  0  0  0
   35.7940   26.0400   31.1540 H   0  0  0  0  0  0  0  0  0  0  0  0
   38.2480   23.3760   33.3890 H   0  0  0  0  0  0  0  0  0  0  0  0
   35.2310   21.8650   31.0190 H   0  0  0  0  0  0  0  0  0  0  0  0
   38.3780   27.3940   34.8620 C   0  0  0  0  0  0  0  0  0  0  0  0
   38.1960   28.4750   34.9280 H   0  0  0  0  0  0  0  0  0  0  0  0
   39.3490   27.2550   34.3700 H   0  0  0  0  0  0  0  0  0  0  0  0
   38.4750   26.8500   36.2840 C   0  0  0  0  0  0  0  0  0  0  0  0
   39.5030   26.8670   36.6470 H   0  0  0  0  0  0  0  0  0  0  0  0
   37.7770   27.3610   36.9700 H   0  0  0  0  0  0  0  0  0  0  0  0
   37.9780   25.4010   36.1710 C   0  0  0  0  0  3  0  0  0  0  0  0
   38.0380   24.5510   37.4120 C   0  0  0  0  0  2  0  0  0  0  0  0
   38.9160   24.2810   36.2270 C   0  0  0  0  0  2  0  0  0  0  0  0
  1  7  1  1  0  0  0
  1  6  1  0  0  0  0
  2  9  1  0  0  0  0
  2  1  1  0  0  0  0
  3  2  1  0  0  0  0
  3  4  1  0  0  0  0
  4 13  1  0  0  0  0
  4  5  1  0  0  0  0
  5  6  1  0  0  0  0
  5 15  1  0  0  0  0
  6 16  1  1  0  0  0
  6 26  1  0  0  0  0
  8  2  1  0  0  0  0
 10  3  1  0  0  0  0
 11  3  1  0  0  0  0
 12  4  1  0  0  0  0
 14  5  1  0  0  0  0
 17 18  1  0  0  0  0
 18 19  2  0  0  0  0
 18  1  1  0  0  0  0
 19 24  1  0  0  0  0
 20 19  1  0  0  0  0
 21 20  2  0  0  0  0
 22 21  1  0  0  0  0
 22 17  2  0  0  0  0
 23 17  1  0  0  0  0
 25 21  1  0  0  0  0
 26 27  1  0  0  0  0
 26 29  1  0  0  0  0
 28 26  1  0  0  0  0
 29 30  1  0  0  0  0
 29 31  1  0  0  0  0
 32 34  1  0  0  0  0
 32 29  1  0  0  0  0
 32 33  1  0  0  0  0
 34 33  1  0  0  0  0
M  END
>  <minimizedAffinity>
-4.363554

$$$$
