
 OpenBabel03272508343D

 19 21  0  0  0  0  0  0  0  0999 V2000
   37.7800   30.7530   47.6540 C   0  0  0  0  0  0  0  0  0  0  0  0
   37.0020   30.6950   46.5180 C   0  0  0  0  0  0  0  0  0  0  0  0
   37.7680   31.1740   45.4580 C   0  0  0  0  0  0  0  0  0  0  0  0
   38.9640   31.5000   45.9800 N   0  0  0  0  0  0  0  0  0  0  0  0
   38.9910   31.2510   47.3110 N   0  0  0  0  0  0  0  0  0  0  0  0
   35.9850   30.3520   46.4160 H   0  0  0  0  0  0  0  0  0  0  0  0
   37.4670   31.2640   44.4400 H   0  0  0  0  0  0  0  0  0  0  0  0
   37.3850   30.2020   51.3540 C   0  0  0  0  0  0  0  0  0  0  0  0
   37.9380   30.6660   50.1610 C   0  0  0  0  0  0  0  0  0  0  0  0
   37.2940   30.3260   48.9630 C   0  0  0  0  0  0  0  0  0  0  0  0
   36.1550   29.5550   49.0270 N   0  0  0  0  0  0  0  0  0  0  0  0
   35.6540   29.1270   50.2170 C   0  0  0  0  0  0  0  0  0  0  0  0
   36.2610   29.4450   51.3710 N   0  0  0  0  0  0  0  0  0  0  0  0
   37.8840   30.4680   52.2780 H   0  0  0  0  0  0  0  0  0  0  0  0
   38.8230   31.2660   50.1010 H   0  0  0  0  0  0  0  0  0  0  0  0
   34.7550   28.5290   50.1220 H   0  0  0  0  0  0  0  0  0  0  0  0
   40.0850   32.0390   45.2570 C   0  0  0  0  0  3  0  0  0  0  0  0
   39.9200   32.5520   43.8870 C   0  0  0  0  0  2  0  0  0  0  0  0
   40.0740   33.5620   44.9680 C   0  0  0  0  0  2  0  0  0  0  0  0
  1 10  1  0  0  0  0
  2  1  1  0  0  0  0
  3  4  1  0  0  0  0
  3  2  2  0  0  0  0
  4  5  1  0  0  0  0
  5  1  2  0  0  0  0
  6  2  1  0  0  0  0
  7  3  1  0  0  0  0
  8 13  1  0  0  0  0
  8 14  1  0  0  0  0
  9  8  2  0  0  0  0
 10 11  2  0  0  0  0
 10  9  1  0  0  0  0
 11 12  1  0  0  0  0
 12 13  2  0  0  0  0
 15  9  1  0  0  0  0
 16 12  1  0  0  0  0
 17  4  1  0  0  0  0
 18 19  1  0  0  0  0
 18 17  1  0  0  0  0
 19 17  1  0  0  0  0
M  END
>  <minimizedAffinity>
-4.84877253

>  <minimizedRMSD>
2.17872477

$$$$
