
 OpenBabel03262522133D

 27 29  0  0  0  0  0  0  0  0999 V2000
   37.7560   31.7360   47.6260 C   0  0  0  0  0  0  0  0  0  0  0  0
   37.9380   32.5090   48.7940 C   0  0  0  0  0  0  0  0  0  0  0  0
   38.9390   33.4480   48.8630 C   0  0  0  0  0  0  0  0  0  0  0  0
   39.7280   33.5770   47.7530 C   0  0  0  0  0  0  0  0  0  0  0  0
   39.5480   32.8320   46.6340 C   0  0  0  0  0  0  0  0  0  0  0  0
   38.5660   31.9020   46.5470 N   0  0  0  0  0  0  0  0  0  0  0  0
   37.2890   32.3760   49.6560 H   0  0  0  0  0  0  0  0  0  0  0  0
   39.1200   34.0680   49.7410 H   0  0  0  0  0  0  0  0  0  0  0  0
   40.5400   34.2900   47.7180 H   0  0  0  0  0  0  0  0  0  0  0  0
   36.6900   30.7810   47.6350 C   0  0  0  0  0  0  0  0  0  0  0  0
   36.1900   30.3790   46.5770 O   0  0  0  0  0  0  0  0  0  0  0  0
   37.0050   29.6300   49.7920 C   0  0  0  0  0  0  0  0  0  0  0  0
   36.1330   30.2290   48.8760 C   0  0  0  0  0  0  0  0  0  0  0  0
   34.7640   30.2740   49.1830 C   0  0  0  0  0  0  0  0  0  0  0  0
   34.3450   29.7300   50.3660 N   0  0  0  0  0  0  0  0  0  0  0  0
   35.2240   29.1590   51.2240 C   0  0  0  0  0  0  0  0  0  0  0  0
   36.5200   29.1080   50.9500 N   0  0  0  0  0  0  0  0  0  0  0  0
   38.0720   29.6130   49.5180 H   0  0  0  0  0  0  0  0  0  0  0  0
   34.0940   30.7410   48.4710 H   0  0  0  0  0  0  0  0  0  0  0  0
   34.9000   28.7280   52.1630 H   0  0  0  0  0  0  0  0  0  0  0  0
   40.5890   32.9930   45.1520 S   0  0  0  0  0  0  0  0  0  0  0  0
   39.4170   33.0110   43.7540 C   0  0  0  0  0  0  0  0  0  0  0  0
   39.3760   33.9990   43.2620 H   0  0  0  0  0  0  0  0  0  0  0  0
   38.4150   32.7260   44.1360 H   0  0  0  0  0  0  0  0  0  0  0  0
   39.8590   31.9190   42.8000 C   0  0  0  0  0  0  0  0  0  0  0  0
   38.9770   30.6530   42.7990 C   0  0  0  0  0  0  0  0  0  0  0  0
   40.3160   30.6110   43.4080 C   0  0  0  0  0  0  0  0  0  0  0  0
  1 10  1  0  0  0  0
  1  2  1  0  0  0  0
  2  3  2  0  0  0  0
  2  7  1  0  0  0  0
  3  8  1  0  0  0  0
  4  3  1  0  0  0  0
  5  4  2  0  0  0  0
  6  5  1  0  0  0  0
  6  1  2  0  0  0  0
  9  4  1  0  0  0  0
 10 13  1  0  0  0  0
 11 10  2  0  0  0  0
 12 17  1  0  0  0  0
 13 14  1  0  0  0  0
 13 12  2  0  0  0  0
 14 15  2  0  0  0  0
 15 16  1  0  0  0  0
 16 20  1  0  0  0  0
 17 16  2  0  0  0  0
 18 12  1  0  0  0  0
 19 14  1  0  0  0  0
 21  5  1  0  0  0  0
 22 24  1  0  0  0  0
 22 21  1  0  0  0  0
 23 22  1  0  0  0  0
 25 27  1  0  0  0  0
 25 22  1  0  0  0  0
 26 25  1  0  0  0  0
 26 27  1  0  0  0  0
M  END
>  <minimizedAffinity>
-4.96345758

>  <minimizedRMSD>
0.885729373

$$$$
