
 OpenBabel03262522583D

 19 21  0  0  0  0  0  0  0  0999 V2000
   37.5920   22.0250   34.8500 C   0  0  0  0  0  0  0  0  0  0  0  0
   38.0750   22.2920   33.5920 C   0  0  0  0  0  0  0  0  0  0  0  0
   37.2770   21.6690   32.6680 C   0  0  0  0  0  0  0  0  0  0  0  0
   36.3110   21.0260   33.3660 N   0  0  0  0  0  0  0  0  0  0  0  0
   36.5210   21.2550   34.6610 N   0  0  0  0  0  0  0  0  0  0  0  0
   38.9510   22.8960   33.3240 H   0  0  0  0  0  0  0  0  0  0  0  0
   37.3890   21.6820   31.5820 H   0  0  0  0  0  0  0  0  0  0  0  0
   37.9050   23.5680   38.1630 C   0  0  0  0  0  0  0  0  0  0  0  0
   39.2640   23.3290   38.4740 C   0  0  0  0  0  0  0  0  0  0  0  0
   40.0420   22.6450   37.5430 C   0  0  0  0  0  0  0  0  0  0  0  0
   39.4610   22.2450   36.3900 N   0  0  0  0  0  0  0  0  0  0  0  0
   38.1390   22.4910   36.1140 C   0  0  0  0  0  0  0  0  0  0  0  0
   37.3920   23.1420   36.9980 N   0  0  0  0  0  0  0  0  0  0  0  0
   37.2990   24.1050   38.8970 H   0  0  0  0  0  0  0  0  0  0  0  0
   39.7140   23.6590   39.4070 H   0  0  0  0  0  0  0  0  0  0  0  0
   41.0950   22.4240   37.7110 H   0  0  0  0  0  0  0  0  0  0  0  0
   35.2670   20.2470   32.7280 C   0  0  0  0  0  3  0  0  0  0  0  0
   35.4500   18.7130   32.7950 C   0  0  0  0  0  2  0  0  0  0  0  0
   35.5620   19.4750   31.4930 C   0  0  0  0  0  2  0  0  0  0  0  0
  1 12  1  0  0  0  0
  2  1  1  0  0  0  0
  3  4  1  0  0  0  0
  3  2  2  0  0  0  0
  4  5  1  0  0  0  0
  5  1  2  0  0  0  0
  6  2  1  0  0  0  0
  7  3  1  0  0  0  0
  8  9  1  0  0  0  0
  8 14  1  0  0  0  0
  9 15  1  0  0  0  0
 10 16  1  0  0  0  0
 10  9  2  0  0  0  0
 11 10  1  0  0  0  0
 12 11  2  0  0  0  0
 12 13  1  0  0  0  0
 13  8  2  0  0  0  0
 17 18  1  0  0  0  0
 17  4  1  0  0  0  0
 19 17  1  0  0  0  0
 19 18  1  0  0  0  0
M  END
>  <minimizedAffinity>
-4.20153093

$$$$

 OpenBabel03262522583D

 19 21  0  0  0  0  0  0  0  0999 V2000
   37.9160   25.1060   34.9240 C   0  0  0  0  0  0  0  0  0  0  0  0
   37.5180   26.4200   34.8820 C   0  0  0  0  0  0  0  0  0  0  0  0
   37.0960   26.7170   33.6120 C   0  0  0  0  0  0  0  0  0  0  0  0
   37.2390   25.5830   32.8850 N   0  0  0  0  0  0  0  0  0  0  0  0
   37.7270   24.6400   33.6890 N   0  0  0  0  0  0  0  0  0  0  0  0
   37.5220   27.1490   35.7030 H   0  0  0  0  0  0  0  0  0  0  0  0
   36.7190   27.6740   33.2480 H   0  0  0  0  0  0  0  0  0  0  0  0
   39.9600   22.9250   37.0500 C   0  0  0  0  0  0  0  0  0  0  0  0
   39.3320   23.0660   38.3090 C   0  0  0  0  0  0  0  0  0  0  0  0
   38.2240   23.9050   38.4030 C   0  0  0  0  0  0  0  0  0  0  0  0
   37.8040   24.5400   37.2860 N   0  0  0  0  0  0  0  0  0  0  0  0
   38.4320   24.3850   36.0760 C   0  0  0  0  0  0  0  0  0  0  0  0
   39.4890   23.5870   35.9810 N   0  0  0  0  0  0  0  0  0  0  0  0
   40.8280   22.2660   36.9820 H   0  0  0  0  0  0  0  0  0  0  0  0
   39.6850   22.5460   39.1960 H   0  0  0  0  0  0  0  0  0  0  0  0
   37.6890   24.0640   39.3380 H   0  0  0  0  0  0  0  0  0  0  0  0
   36.8910   25.5020   31.4790 C   0  0  0  0  0  3  0  0  0  0  0  0
   35.5170   24.8640   31.1720 C   0  0  0  0  0  2  0  0  0  0  0  0
   36.8150   24.1800   30.8050 C   0  0  0  0  0  2  0  0  0  0  0  0
  1 12  1  0  0  0  0
  2  1  1  0  0  0  0
  2  6  1  0  0  0  0
  3  2  2  0  0  0  0
  4  3  1  0  0  0  0
  4  5  1  0  0  0  0
  5  1  2  0  0  0  0
  7  3  1  0  0  0  0
  8  9  1  0  0  0  0
  9 10  2  0  0  0  0
  9 15  1  0  0  0  0
 10 16  1  0  0  0  0
 11 10  1  0  0  0  0
 12 11  2  0  0  0  0
 13 12  1  0  0  0  0
 13  8  2  0  0  0  0
 14  8  1  0  0  0  0
 17  4  1  0  0  0  0
 18 17  1  0  0  0  0
 19 18  1  0  0  0  0
 19 17  1  0  0  0  0
M  END
>  <minimizedAffinity>
-4.17231083

$$$$

 OpenBabel03262522583D

 19 21  0  0  0  0  0  0  0  0999 V2000
   36.0060   23.8570   31.6460 C   0  0  0  0  0  0  0  0  0  0  0  0
   35.1900   24.7470   30.9910 C   0  0  0  0  0  0  0  0  0  0  0  0
   35.5660   26.0230   31.3250 C   0  0  0  0  0  0  0  0  0  0  0  0
   36.6080   25.9050   32.1810 N   0  0  0  0  0  0  0  0  0  0  0  0
   36.8500   24.6060   32.3550 N   0  0  0  0  0  0  0  0  0  0  0  0
   34.3640   24.5210   30.3060 H   0  0  0  0  0  0  0  0  0  0  0  0
   35.1200   26.9560   30.9750 H   0  0  0  0  0  0  0  0  0  0  0  0
   36.7790   20.3720   30.8040 C   0  0  0  0  0  0  0  0  0  0  0  0
   35.7690   19.6680   31.5010 C   0  0  0  0  0  0  0  0  0  0  0  0
   34.8470   20.4010   32.2440 C   0  0  0  0  0  0  0  0  0  0  0  0
   34.9630   21.7480   32.2610 N   0  0  0  0  0  0  0  0  0  0  0  0
   35.9530   22.4060   31.5740 C   0  0  0  0  0  0  0  0  0  0  0  0
   36.8340   21.7120   30.8650 N   0  0  0  0  0  0  0  0  0  0  0  0
   37.4990   19.7910   30.2230 H   0  0  0  0  0  0  0  0  0  0  0  0
   35.6920   18.5830   31.4750 H   0  0  0  0  0  0  0  0  0  0  0  0
   34.0430   19.9310   32.8070 H   0  0  0  0  0  0  0  0  0  0  0  0
   37.2830   27.0510   32.7600 C   0  0  0  0  0  3  0  0  0  0  0  0
   36.9820   27.3130   34.2540 C   0  0  0  0  0  2  0  0  0  0  0  0
   36.5040   28.2490   33.1660 C   0  0  0  0  0  2  0  0  0  0  0  0
  1  5  2  0  0  0  0
  2  3  2  0  0  0  0
  2  1  1  0  0  0  0
  3  4  1  0  0  0  0
  4  5  1  0  0  0  0
  4 17  1  0  0  0  0
  6  2  1  0  0  0  0
  7  3  1  0  0  0  0
  8 13  2  0  0  0  0
  8  9  1  0  0  0  0
  9 10  2  0  0  0  0
 10 11  1  0  0  0  0
 10 16  1  0  0  0  0
 12  1  1  0  0  0  0
 12 11  2  0  0  0  0
 13 12  1  0  0  0  0
 14  8  1  0  0  0  0
 15  9  1  0  0  0  0
 17 19  1  0  0  0  0
 17 18  1  0  0  0  0
 19 18  1  0  0  0  0
M  END
>  <minimizedAffinity>
-4.05066776

$$$$

 OpenBabel03262522583D

 19 21  0  0  0  0  0  0  0  0999 V2000
   38.0220   22.3070   35.4270 C   0  0  0  0  0  0  0  0  0  0  0  0
   37.6440   23.1290   36.4600 C   0  0  0  0  0  0  0  0  0  0  0  0
   38.6860   23.2390   37.3440 C   0  0  0  0  0  0  0  0  0  0  0  0
   39.6930   22.4840   36.8460 N   0  0  0  0  0  0  0  0  0  0  0  0
   39.2720   21.9400   35.7050 N   0  0  0  0  0  0  0  0  0  0  0  0
   36.6800   23.6350   36.5970 H   0  0  0  0  0  0  0  0  0  0  0  0
   38.7100   23.8180   38.2690 H   0  0  0  0  0  0  0  0  0  0  0  0
   36.6740   22.0980   32.0210 C   0  0  0  0  0  0  0  0  0  0  0  0
   35.6510   21.1320   32.1670 C   0  0  0  0  0  0  0  0  0  0  0  0
   35.4460   20.5730   33.4250 C   0  0  0  0  0  0  0  0  0  0  0  0
   36.2330   20.9830   34.4460 N   0  0  0  0  0  0  0  0  0  0  0  0
   37.2180   21.9230   34.2770 C   0  0  0  0  0  0  0  0  0  0  0  0
   37.4190   22.4580   33.0790 N   0  0  0  0  0  0  0  0  0  0  0  0
   36.8300   22.5330   31.0320 H   0  0  0  0  0  0  0  0  0  0  0  0
   35.0270   20.8160   31.3340 H   0  0  0  0  0  0  0  0  0  0  0  0
   34.6780   19.8240   33.6150 H   0  0  0  0  0  0  0  0  0  0  0  0
   40.9770   22.3490   37.5090 C   0  0  0  0  0  3  0  0  0  0  0  0
   42.2040   22.7740   36.6700 C   0  0  0  0  0  2  0  0  0  0  0  0
   41.9530   21.3300   37.0430 C   0  0  0  0  0  2  0  0  0  0  0  0
  1  5  2  0  0  0  0
  1  2  1  0  0  0  0
  2  6  1  0  0  0  0
  2  3  2  0  0  0  0
  3  7  1  0  0  0  0
  4  3  1  0  0  0  0
  4 17  1  0  0  0  0
  5  4  1  0  0  0  0
  8  9  2  0  0  0  0
  8 13  1  0  0  0  0
  9 10  1  0  0  0  0
 10 16  1  0  0  0  0
 10 11  2  0  0  0  0
 12 11  1  0  0  0  0
 12  1  1  0  0  0  0
 13 12  2  0  0  0  0
 14  8  1  0  0  0  0
 15  9  1  0  0  0  0
 18 19  1  0  0  0  0
 18 17  1  0  0  0  0
 19 17  1  0  0  0  0
M  END
>  <minimizedAffinity>
-3.93523002

$$$$

 OpenBabel03262522583D

 19 21  0  0  0  0  0  0  0  0999 V2000
   37.7930   25.8230   35.0760 C   0  0  0  0  0  0  0  0  0  0  0  0
   37.5410   27.1430   35.3600 C   0  0  0  0  0  0  0  0  0  0  0  0
   36.9980   27.7400   34.2510 C   0  0  0  0  0  0  0  0  0  0  0  0
   36.9220   26.7810   33.2980 N   0  0  0  0  0  0  0  0  0  0  0  0
   37.4000   25.6500   33.8140 N   0  0  0  0  0  0  0  0  0  0  0  0
   37.7270   27.6750   36.3010 H   0  0  0  0  0  0  0  0  0  0  0  0
   36.6860   28.7800   34.1460 H   0  0  0  0  0  0  0  0  0  0  0  0
   38.3790   23.6700   37.9880 C   0  0  0  0  0  0  0  0  0  0  0  0
   39.5210   22.9380   37.5900 C   0  0  0  0  0  0  0  0  0  0  0  0
   40.0650   23.1960   36.3340 C   0  0  0  0  0  0  0  0  0  0  0  0
   39.4750   24.1350   35.5590 N   0  0  0  0  0  0  0  0  0  0  0  0
   38.3670   24.8310   35.9720 C   0  0  0  0  0  0  0  0  0  0  0  0
   37.8440   24.5880   37.1670 N   0  0  0  0  0  0  0  0  0  0  0  0
   37.9560   23.4630   38.9740 H   0  0  0  0  0  0  0  0  0  0  0  0
   39.9820   22.1870   38.2270 H   0  0  0  0  0  0  0  0  0  0  0  0
   40.9430   22.6730   35.9570 H   0  0  0  0  0  0  0  0  0  0  0  0
   36.3940   27.0330   31.9700 C   0  0  0  0  0  3  0  0  0  0  0  0
   37.4490   27.3700   30.8910 C   0  0  0  0  0  2  0  0  0  0  0  0
   36.4580   28.3990   31.3890 C   0  0  0  0  0  2  0  0  0  0  0  0
  1  2  1  0  0  0  0
  1 12  1  0  0  0  0
  2  6  1  0  0  0  0
  3  2  2  0  0  0  0
  4  5  1  0  0  0  0
  4  3  1  0  0  0  0
  5  1  2  0  0  0  0
  7  3  1  0  0  0  0
  8 14  1  0  0  0  0
  9  8  1  0  0  0  0
  9 15  1  0  0  0  0
 10  9  2  0  0  0  0
 11 12  2  0  0  0  0
 11 10  1  0  0  0  0
 12 13  1  0  0  0  0
 13  8  2  0  0  0  0
 16 10  1  0  0  0  0
 17  4  1  0  0  0  0
 18 19  1  0  0  0  0
 18 17  1  0  0  0  0
 19 17  1  0  0  0  0
M  END
>  <minimizedAffinity>
-3.92582917

$$$$

 OpenBabel03262522583D

 19 21  0  0  0  0  0  0  0  0999 V2000
   37.9680   26.0350   34.5120 C   0  0  0  0  0  0  0  0  0  0  0  0
   39.1680   25.3730   34.4190 C   0  0  0  0  0  0  0  0  0  0  0  0
   39.2520   24.4580   35.4370 C   0  0  0  0  0  0  0  0  0  0  0  0
   38.1030   24.5670   36.1460 N   0  0  0  0  0  0  0  0  0  0  0  0
   37.3570   25.5110   35.5750 N   0  0  0  0  0  0  0  0  0  0  0  0
   39.9580   25.5190   33.6720 H   0  0  0  0  0  0  0  0  0  0  0  0
   40.0760   23.7740   35.6440 H   0  0  0  0  0  0  0  0  0  0  0  0
   37.5070   28.2210   31.6030 C   0  0  0  0  0  0  0  0  0  0  0  0
   36.4850   29.0920   32.0460 C   0  0  0  0  0  0  0  0  0  0  0  0
   35.9750   28.9110   33.3300 C   0  0  0  0  0  0  0  0  0  0  0  0
   36.4840   27.9140   34.0880 N   0  0  0  0  0  0  0  0  0  0  0  0
   37.4770   27.0840   33.6330 C   0  0  0  0  0  0  0  0  0  0  0  0
   37.9660   27.2510   32.4100 N   0  0  0  0  0  0  0  0  0  0  0  0
   37.9030   28.3670   30.5960 H   0  0  0  0  0  0  0  0  0  0  0  0
   36.0890   29.8890   31.4220 H   0  0  0  0  0  0  0  0  0  0  0  0
   35.1880   29.5410   33.7410 H   0  0  0  0  0  0  0  0  0  0  0  0
   37.8190   23.7530   37.3130 C   0  0  0  0  0  3  0  0  0  0  0  0
   38.0110   24.4580   38.6750 C   0  0  0  0  0  2  0  0  0  0  0  0
   38.9220   23.3400   38.2190 C   0  0  0  0  0  2  0  0  0  0  0  0
  1  5  2  0  0  0  0
  2  1  1  0  0  0  0
  2  3  2  0  0  0  0
  3  7  1  0  0  0  0
  3  4  1  0  0  0  0
  4 17  1  0  0  0  0
  5  4  1  0  0  0  0
  6  2  1  0  0  0  0
  8  9  2  0  0  0  0
  8 13  1  0  0  0  0
  9 10  1  0  0  0  0
 10 16  1  0  0  0  0
 10 11  2  0  0  0  0
 12 11  1  0  0  0  0
 12  1  1  0  0  0  0
 13 12  2  0  0  0  0
 14  8  1  0  0  0  0
 15  9  1  0  0  0  0
 17 19  1  0  0  0  0
 17 18  1  0  0  0  0
 19 18  1  0  0  0  0
M  END
>  <minimizedAffinity>
-3.91613603

$$$$

 OpenBabel03262522583D

 19 21  0  0  0  0  0  0  0  0999 V2000
   37.7480   26.7690   34.2700 C   0  0  0  0  0  0  0  0  0  0  0  0
   37.9860   27.5140   35.3990 C   0  0  0  0  0  0  0  0  0  0  0  0
   38.3250   26.6690   36.4250 C   0  0  0  0  0  0  0  0  0  0  0  0
   38.2930   25.4150   35.9160 N   0  0  0  0  0  0  0  0  0  0  0  0
   37.9470   25.5020   34.6320 N   0  0  0  0  0  0  0  0  0  0  0  0
   37.9250   28.6040   35.5100 H   0  0  0  0  0  0  0  0  0  0  0  0
   38.5740   26.9430   37.4510 H   0  0  0  0  0  0  0  0  0  0  0  0
   37.6340   27.3560   30.6500 C   0  0  0  0  0  0  0  0  0  0  0  0
   36.5570   28.2640   30.5310 C   0  0  0  0  0  0  0  0  0  0  0  0
   35.8920   28.6550   31.6910 C   0  0  0  0  0  0  0  0  0  0  0  0
   36.3120   28.1480   32.8730 N   0  0  0  0  0  0  0  0  0  0  0  0
   37.3610   27.2680   32.9590 C   0  0  0  0  0  0  0  0  0  0  0  0
   37.9980   26.8920   31.8570 N   0  0  0  0  0  0  0  0  0  0  0  0
   38.1510   27.0540   29.7370 H   0  0  0  0  0  0  0  0  0  0  0  0
   36.2340   28.6610   29.5720 H   0  0  0  0  0  0  0  0  0  0  0  0
   35.0540   29.3490   31.6800 H   0  0  0  0  0  0  0  0  0  0  0  0
   38.5980   24.2370   36.7060 C   0  0  0  0  0  3  0  0  0  0  0  0
   37.3910   23.3290   37.0340 C   0  0  0  0  0  2  0  0  0  0  0  0
   38.1030   24.1290   38.1030 C   0  0  0  0  0  2  0  0  0  0  0  0
  1  5  2  0  0  0  0
  1  2  1  0  0  0  0
  2  6  1  0  0  0  0
  2  3  2  0  0  0  0
  3  7  1  0  0  0  0
  4  3  1  0  0  0  0
  4 17  1  0  0  0  0
  5  4  1  0  0  0  0
  8 13  1  0  0  0  0
  9  8  2  0  0  0  0
  9 10  1  0  0  0  0
 10 11  2  0  0  0  0
 11 12  1  0  0  0  0
 12  1  1  0  0  0  0
 13 12  2  0  0  0  0
 14  8  1  0  0  0  0
 15  9  1  0  0  0  0
 16 10  1  0  0  0  0
 17 18  1  0  0  0  0
 17 19  1  0  0  0  0
 18 19  1  0  0  0  0
M  END
>  <minimizedAffinity>
-3.90580821

$$$$

 OpenBabel03262522583D

 19 21  0  0  0  0  0  0  0  0999 V2000
   38.1200   24.9520   34.6810 C   0  0  0  0  0  0  0  0  0  0  0  0
   37.8730   24.3330   33.4800 C   0  0  0  0  0  0  0  0  0  0  0  0
   37.5560   25.2850   32.5450 C   0  0  0  0  0  0  0  0  0  0  0  0
   37.6110   26.4790   33.1810 N   0  0  0  0  0  0  0  0  0  0  0  0
   37.9490   26.2530   34.4500 N   0  0  0  0  0  0  0  0  0  0  0  0
   37.9100   23.2590   33.2580 H   0  0  0  0  0  0  0  0  0  0  0  0
   37.3060   25.1230   31.4960 H   0  0  0  0  0  0  0  0  0  0  0  0
   39.8500   22.8880   37.1710 C   0  0  0  0  0  0  0  0  0  0  0  0
   39.1100   23.1580   38.3450 C   0  0  0  0  0  0  0  0  0  0  0  0
   38.0370   24.0410   38.2590 C   0  0  0  0  0  0  0  0  0  0  0  0
   37.7550   24.5940   37.0580 N   0  0  0  0  0  0  0  0  0  0  0  0
   38.4900   24.3130   35.9340 C   0  0  0  0  0  0  0  0  0  0  0  0
   39.5150   23.4730   36.0100 N   0  0  0  0  0  0  0  0  0  0  0  0
   40.6910   22.1950   37.2440 H   0  0  0  0  0  0  0  0  0  0  0  0
   39.3520   22.7030   39.3030 H   0  0  0  0  0  0  0  0  0  0  0  0
   37.4210   24.2990   39.1200 H   0  0  0  0  0  0  0  0  0  0  0  0
   37.3350   27.7380   32.5140 C   0  0  0  0  0  3  0  0  0  0  0  0
   36.1350   28.5360   33.0760 C   0  0  0  0  0  2  0  0  0  0  0  0
   36.0990   27.8970   31.7050 C   0  0  0  0  0  2  0  0  0  0  0  0
  1 12  1  0  0  0  0
  2  1  1  0  0  0  0
  3  4  1  0  0  0  0
  3  2  2  0  0  0  0
  4  5  1  0  0  0  0
  5  1  2  0  0  0  0
  6  2  1  0  0  0  0
  7  3  1  0  0  0  0
  8 14  1  0  0  0  0
  8  9  1  0  0  0  0
  9 15  1  0  0  0  0
 10  9  2  0  0  0  0
 10 16  1  0  0  0  0
 11 10  1  0  0  0  0
 12 13  1  0  0  0  0
 12 11  2  0  0  0  0
 13  8  2  0  0  0  0
 17 18  1  0  0  0  0
 17  4  1  0  0  0  0
 19 17  1  0  0  0  0
 19 18  1  0  0  0  0
M  END
>  <minimizedAffinity>
-3.87405014

$$$$

 OpenBabel03262522583D

 19 21  0  0  0  0  0  0  0  0999 V2000
   35.8400   28.7160   33.8420 C   0  0  0  0  0  0  0  0  0  0  0  0
   36.7790   27.8350   34.3200 C   0  0  0  0  0  0  0  0  0  0  0  0
   37.0210   26.8820   33.3640 C   0  0  0  0  0  0  0  0  0  0  0  0
   36.2300   27.1870   32.3090 N   0  0  0  0  0  0  0  0  0  0  0  0
   35.5380   28.2830   32.6190 N   0  0  0  0  0  0  0  0  0  0  0  0
   37.2780   27.8500   35.2970 H   0  0  0  0  0  0  0  0  0  0  0  0
   37.7130   26.0410   33.4310 H   0  0  0  0  0  0  0  0  0  0  0  0
   33.5570   31.3550   34.9730 C   0  0  0  0  0  0  0  0  0  0  0  0
   34.3640   32.0750   35.8850 C   0  0  0  0  0  0  0  0  0  0  0  0
   35.6710   31.6410   36.0930 C   0  0  0  0  0  0  0  0  0  0  0  0
   36.1030   30.5550   35.4120 N   0  0  0  0  0  0  0  0  0  0  0  0
   35.2980   29.8760   34.5330 C   0  0  0  0  0  0  0  0  0  0  0  0
   34.0510   30.2840   34.3320 N   0  0  0  0  0  0  0  0  0  0  0  0
   32.5330   31.7000   34.8150 H   0  0  0  0  0  0  0  0  0  0  0  0
   33.9990   32.9460   36.4230 H   0  0  0  0  0  0  0  0  0  0  0  0
   36.3520   32.1420   36.7790 H   0  0  0  0  0  0  0  0  0  0  0  0
   36.2060   26.4000   31.0910 C   0  0  0  0  0  3  0  0  0  0  0  0
   34.9930   25.4530   30.9370 C   0  0  0  0  0  2  0  0  0  0  0  0
   36.3960   24.9280   31.1510 C   0  0  0  0  0  2  0  0  0  0  0  0
  1  2  1  0  0  0  0
  1 12  1  0  0  0  0
  2  6  1  0  0  0  0
  3  7  1  0  0  0  0
  3  2  2  0  0  0  0
  4  5  1  0  0  0  0
  4  3  1  0  0  0  0
  5  1  2  0  0  0  0
  8  9  1  0  0  0  0
  9 10  2  0  0  0  0
  9 15  1  0  0  0  0
 10 16  1  0  0  0  0
 11 10  1  0  0  0  0
 12 11  2  0  0  0  0
 13 12  1  0  0  0  0
 13  8  2  0  0  0  0
 14  8  1  0  0  0  0
 17 19  1  0  0  0  0
 17  4  1  0  0  0  0
 18 17  1  0  0  0  0
 18 19  1  0  0  0  0
M  END
>  <minimizedAffinity>
-3.83265114

$$$$
