
 OpenBabel03272503253D

 26 28  0  0  1  0  0  0  0  0999 V2000
   38.7190   22.4340   36.0120 N   0  0  0  0  0  0  0  0  0  0  0  0
   38.6220   23.1430   37.2360 C   0  0  1  0  0  0  0  0  0  0  0  0
   39.9300   22.8970   37.9440 C   0  0  0  0  0  0  0  0  0  0  0  0
   40.6820   21.9350   36.9960 C   0  0  0  0  0  0  0  0  0  0  0  0
   40.1210   22.3940   35.6800 C   0  0  0  0  0  0  0  0  0  0  0  0
   37.8210   22.5710   37.8470 H   0  0  0  0  0  0  0  0  0  0  0  0
   40.5080   23.8450   37.9090 H   0  0  0  0  0  0  0  0  0  0  0  0
   39.8140   22.4740   38.9460 H   0  0  0  0  0  0  0  0  0  0  0  0
   40.2600   20.9320   37.2040 H   0  0  0  0  0  0  0  0  0  0  0  0
   41.7600   21.9980   37.1020 H   0  0  0  0  0  0  0  0  0  0  0  0
   40.5160   23.3930   35.3840 H   0  0  0  0  0  0  0  0  0  0  0  0
   40.3470   21.6310   34.8950 H   0  0  0  0  0  0  0  0  0  0  0  0
   37.6430   21.8660   35.2770 C   0  0  0  0  0  0  0  0  0  0  0  0
   37.7050   21.9040   33.8760 C   0  0  0  0  0  0  0  0  0  0  0  0
   36.6630   21.3570   33.1270 C   0  0  0  0  0  0  0  0  0  0  0  0
   35.6190   20.8060   33.8430 N   0  0  0  0  0  0  0  0  0  0  0  0
   35.5920   20.7870   35.1930 C   0  0  0  0  0  0  0  0  0  0  0  0
   36.6120   21.3210   35.9350 N   0  0  0  0  0  0  0  0  0  0  0  0
   38.5110   22.3290   33.2990 H   0  0  0  0  0  0  0  0  0  0  0  0
   36.6770   21.3690   32.0530 H   0  0  0  0  0  0  0  0  0  0  0  0
   34.7340   20.3340   35.6590 H   0  0  0  0  0  0  0  0  0  0  0  0
   38.1850   24.5240   37.1940 C   0  0  0  0  0  0  0  0  0  0  0  0
   37.9120   25.1260   38.1970 O   0  0  0  0  0  0  0  0  0  0  0  0
   37.9920   25.3820   35.9970 C   0  0  0  0  0  3  0  0  0  0  0  0
   39.2750   25.9680   35.3960 C   0  0  0  0  0  2  0  0  0  0  0  0
   38.3270   26.8620   36.1050 C   0  0  0  0  0  2  0  0  0  0  0  0
  1  2  1  0  0  0  0
  2  6  1  1  0  0  0
  2  3  1  0  0  0  0
  3  8  1  0  0  0  0
  4 10  1  0  0  0  0
  4  9  1  0  0  0  0
  4  3  1  0  0  0  0
  5  1  1  0  0  0  0
  5  4  1  0  0  0  0
  7  3  1  0  0  0  0
 11  5  1  0  0  0  0
 12  5  1  0  0  0  0
 13 18  1  0  0  0  0
 13  1  1  0  0  0  0
 14 13  2  0  0  0  0
 15 16  2  0  0  0  0
 15 14  1  0  0  0  0
 16 17  1  0  0  0  0
 17 21  1  0  0  0  0
 17 18  2  0  0  0  0
 19 14  1  0  0  0  0
 20 15  1  0  0  0  0
 22  2  1  0  0  0  0
 22 23  2  0  0  0  0
 24 26  1  0  0  0  0
 24 22  1  0  0  0  0
 25 24  1  0  0  0  0
 25 26  1  0  0  0  0
M  END
>  <minimizedAffinity>
-4.63286448

$$$$

 OpenBabel03272503253D

 26 28  0  0  1  0  0  0  0  0999 V2000
   37.7830   25.8850   34.2540 N   0  0  0  0  0  0  0  0  0  0  0  0
   38.7580   25.7200   35.2710 C   0  0  1  0  0  0  0  0  0  0  0  0
   38.7690   27.0230   36.0270 C   0  0  0  0  0  0  0  0  0  0  0  0
   37.7560   27.9000   35.2570 C   0  0  0  0  0  0  0  0  0  0  0  0
   36.8230   26.8300   34.7660 C   0  0  0  0  0  0  0  0  0  0  0  0
   39.7690   25.6740   34.7070 H   0  0  0  0  0  0  0  0  0  0  0  0
   38.2960   26.8370   37.0150 H   0  0  0  0  0  0  0  0  0  0  0  0
   39.7560   27.4920   36.0790 H   0  0  0  0  0  0  0  0  0  0  0  0
   38.3110   28.2840   34.3780 H   0  0  0  0  0  0  0  0  0  0  0  0
   37.3110   28.6720   35.8780 H   0  0  0  0  0  0  0  0  0  0  0  0
   36.2060   26.4040   35.5910 H   0  0  0  0  0  0  0  0  0  0  0  0
   36.1710   27.2470   33.9610 H   0  0  0  0  0  0  0  0  0  0  0  0
   37.7750   25.2520   32.9810 C   0  0  0  0  0  0  0  0  0  0  0  0
   39.0030   24.8550   32.4310 C   0  0  0  0  0  0  0  0  0  0  0  0
   39.0270   24.2330   31.1820 C   0  0  0  0  0  0  0  0  0  0  0  0
   37.8060   24.0530   30.5650 N   0  0  0  0  0  0  0  0  0  0  0  0
   36.6420   24.4490   31.1250 C   0  0  0  0  0  0  0  0  0  0  0  0
   36.6100   25.0590   32.3500 N   0  0  0  0  0  0  0  0  0  0  0  0
   39.9670   24.9860   32.8970 H   0  0  0  0  0  0  0  0  0  0  0  0
   39.9490   23.9170   30.7310 H   0  0  0  0  0  0  0  0  0  0  0  0
   35.7410   24.2630   30.5640 H   0  0  0  0  0  0  0  0  0  0  0  0
   38.6990   24.5240   36.0880 C   0  0  0  0  0  0  0  0  0  0  0  0
   39.5230   23.6560   35.9880 O   0  0  0  0  0  0  0  0  0  0  0  0
   37.6810   24.1690   37.1100 C   0  0  0  0  0  3  0  0  0  0  0  0
   37.9720   24.6730   38.5290 C   0  0  0  0  0  2  0  0  0  0  0  0
   38.0810   23.2250   38.2330 C   0  0  0  0  0  2  0  0  0  0  0  0
  1  5  1  0  0  0  0
  1  2  1  0  0  0  0
  2  6  1  6  0  0  0
  2  3  1  0  0  0  0
  2 22  1  0  0  0  0
  3  8  1  0  0  0  0
  3  7  1  0  0  0  0
  4 10  1  0  0  0  0
  4  3  1  0  0  0  0
  5  4  1  0  0  0  0
  5 11  1  0  0  0  0
  9  4  1  0  0  0  0
 12  5  1  0  0  0  0
 13  1  1  0  0  0  0
 14 19  1  0  0  0  0
 14 13  1  0  0  0  0
 15 14  2  0  0  0  0
 16 17  2  0  0  0  0
 16 15  1  0  0  0  0
 17 18  1  0  0  0  0
 18 13  2  0  0  0  0
 20 15  1  0  0  0  0
 21 17  1  0  0  0  0
 22 24  1  0  0  0  0
 23 22  2  0  0  0  0
 24 26  1  0  0  0  0
 24 25  1  0  0  0  0
 26 25  1  0  0  0  0
M  END
>  <minimizedAffinity>
-4.36868238

$$$$

 OpenBabel03272503253D

 26 28  0  0  1  0  0  0  0  0999 V2000
   38.3500   23.4650   34.5330 N   0  0  0  0  0  0  0  0  0  0  0  0
   38.7840   24.4940   33.6580 C   0  0  1  0  0  0  0  0  0  0  0  0
   38.9760   23.8250   32.3220 C   0  0  0  0  0  0  0  0  0  0  0  0
   38.6670   22.3380   32.6110 C   0  0  0  0  0  0  0  0  0  0  0  0
   37.6590   22.5030   33.7130 C   0  0  0  0  0  0  0  0  0  0  0  0
   39.8470   24.7680   34.0290 H   0  0  0  0  0  0  0  0  0  0  0  0
   38.1520   24.1670   31.6590 H   0  0  0  0  0  0  0  0  0  0  0  0
   39.9780   23.9580   31.9040 H   0  0  0  0  0  0  0  0  0  0  0  0
   39.5910   21.9300   33.0650 H   0  0  0  0  0  0  0  0  0  0  0  0
   38.3260   21.8010   31.7310 H   0  0  0  0  0  0  0  0  0  0  0  0
   36.6850   22.8900   33.3330 H   0  0  0  0  0  0  0  0  0  0  0  0
   37.5190   21.5260   34.2360 H   0  0  0  0  0  0  0  0  0  0  0  0
   38.5730   23.4000   35.9360 C   0  0  0  0  0  0  0  0  0  0  0  0
   39.7610   22.8080   36.3910 C   0  0  0  0  0  0  0  0  0  0  0  0
   40.0070   22.7270   37.7620 C   0  0  0  0  0  0  0  0  0  0  0  0
   39.0340   23.2480   38.5890 N   0  0  0  0  0  0  0  0  0  0  0  0
   37.9010   23.8100   38.1160 C   0  0  0  0  0  0  0  0  0  0  0  0
   37.6520   23.8940   36.7730 N   0  0  0  0  0  0  0  0  0  0  0  0
   40.5340   22.3960   35.7600 H   0  0  0  0  0  0  0  0  0  0  0  0
   40.9060   22.2800   38.1440 H   0  0  0  0  0  0  0  0  0  0  0  0
   37.2020   24.1890   38.8430 H   0  0  0  0  0  0  0  0  0  0  0  0
   38.0340   25.7330   33.6340 C   0  0  0  0  0  0  0  0  0  0  0  0
   36.9360   25.7930   33.1500 O   0  0  0  0  0  0  0  0  0  0  0  0
   38.4550   27.0620   34.1500 C   0  0  0  0  0  3  0  0  0  0  0  0
   39.0190   27.0640   35.5760 C   0  0  0  0  0  2  0  0  0  0  0  0
   37.6870   27.6620   35.3180 C   0  0  0  0  0  2  0  0  0  0  0  0
  1 13  1  0  0  0  0
  2  6  1  1  0  0  0
  2  1  1  0  0  0  0
  3  4  1  0  0  0  0
  3  2  1  0  0  0  0
  4  9  1  0  0  0  0
  4  5  1  0  0  0  0
  5 12  1  0  0  0  0
  5  1  1  0  0  0  0
  7  3  1  0  0  0  0
  8  3  1  0  0  0  0
 10  4  1  0  0  0  0
 11  5  1  0  0  0  0
 13 14  2  0  0  0  0
 13 18  1  0  0  0  0
 14 15  1  0  0  0  0
 15 20  1  0  0  0  0
 15 16  2  0  0  0  0
 17 16  1  0  0  0  0
 17 21  1  0  0  0  0
 18 17  2  0  0  0  0
 19 14  1  0  0  0  0
 22  2  1  0  0  0  0
 22 24  1  0  0  0  0
 23 22  2  0  0  0  0
 24 26  1  0  0  0  0
 24 25  1  0  0  0  0
 26 25  1  0  0  0  0
M  END
>  <minimizedAffinity>
-4.36607838

$$$$

 OpenBabel03272503253D

 26 28  0  0  1  0  0  0  0  0999 V2000
   39.0430   25.0250   34.6600 N   0  0  0  0  0  0  0  0  0  0  0  0
   37.9480   25.2110   33.7780 C   0  0  1  0  0  0  0  0  0  0  0  0
   38.2620   26.4730   33.0160 C   0  0  0  0  0  0  0  0  0  0  0  0
   39.5910   26.9560   33.6420 C   0  0  0  0  0  0  0  0  0  0  0  0
   40.1840   25.6280   34.0200 C   0  0  0  0  0  0  0  0  0  0  0  0
   37.0550   25.4740   34.4680 H   0  0  0  0  0  0  0  0  0  0  0  0
   38.5230   26.1760   31.9780 H   0  0  0  0  0  0  0  0  0  0  0  0
   37.4790   27.2340   33.0860 H   0  0  0  0  0  0  0  0  0  0  0  0
   39.3030   27.4690   34.5800 H   0  0  0  0  0  0  0  0  0  0  0  0
   40.1790   27.5630   32.9610 H   0  0  0  0  0  0  0  0  0  0  0  0
   40.5240   25.0530   33.1270 H   0  0  0  0  0  0  0  0  0  0  0  0
   41.0300   25.7900   34.7310 H   0  0  0  0  0  0  0  0  0  0  0  0
   39.0060   24.3820   35.9280 C   0  0  0  0  0  0  0  0  0  0  0  0
   38.0250   24.7860   36.8470 C   0  0  0  0  0  0  0  0  0  0  0  0
   37.9660   24.1760   38.1000 C   0  0  0  0  0  0  0  0  0  0  0  0
   38.9040   23.1950   38.3480 N   0  0  0  0  0  0  0  0  0  0  0  0
   39.8350   22.8320   37.4390 C   0  0  0  0  0  0  0  0  0  0  0  0
   39.9000   23.4250   36.2070 N   0  0  0  0  0  0  0  0  0  0  0  0
   37.2840   25.5500   36.6720 H   0  0  0  0  0  0  0  0  0  0  0  0
   37.2280   24.4600   38.8280 H   0  0  0  0  0  0  0  0  0  0  0  0
   40.5230   22.0550   37.7280 H   0  0  0  0  0  0  0  0  0  0  0  0
   37.5180   24.0870   32.9730 C   0  0  0  0  0  0  0  0  0  0  0  0
   37.5610   22.9620   33.3930 O   0  0  0  0  0  0  0  0  0  0  0  0
   36.9970   24.1090   31.5810 C   0  0  0  0  0  3  0  0  0  0  0  0
   35.5370   24.5530   31.4340 C   0  0  0  0  0  2  0  0  0  0  0  0
   35.8940   23.1320   31.2050 C   0  0  0  0  0  2  0  0  0  0  0  0
  1 13  1  0  0  0  0
  2  6  1  1  0  0  0
  2  1  1  0  0  0  0
  3  8  1  0  0  0  0
  3  4  1  0  0  0  0
  3  2  1  0  0  0  0
  4  5  1  0  0  0  0
  4  9  1  0  0  0  0
  5  1  1  0  0  0  0
  5 12  1  0  0  0  0
  7  3  1  0  0  0  0
 10  4  1  0  0  0  0
 11  5  1  0  0  0  0
 13 18  2  0  0  0  0
 13 14  1  0  0  0  0
 14 15  2  0  0  0  0
 15 16  1  0  0  0  0
 15 20  1  0  0  0  0
 17 21  1  0  0  0  0
 17 16  2  0  0  0  0
 18 17  1  0  0  0  0
 19 14  1  0  0  0  0
 22 23  2  0  0  0  0
 22  2  1  0  0  0  0
 24 22  1  0  0  0  0
 25 24  1  0  0  0  0
 26 25  1  0  0  0  0
 26 24  1  0  0  0  0
M  END
>  <minimizedAffinity>
-4.28744459

$$$$

 OpenBabel03272503253D

 26 28  0  0  1  0  0  0  0  0999 V2000
   36.6390   26.0270   31.9300 N   0  0  0  0  0  0  0  0  0  0  0  0
   37.4240   26.9410   32.6780 C   0  0  1  0  0  0  0  0  0  0  0  0
   37.6020   28.1390   31.7820 C   0  0  0  0  0  0  0  0  0  0  0  0
   36.8920   27.7250   30.4730 C   0  0  0  0  0  0  0  0  0  0  0  0
   35.8320   26.8230   31.0400 C   0  0  0  0  0  0  0  0  0  0  0  0
   38.4680   26.4440   32.7500 H   0  0  0  0  0  0  0  0  0  0  0  0
   36.9800   28.9600   32.2000 H   0  0  0  0  0  0  0  0  0  0  0  0
   38.6480   28.4080   31.6100 H   0  0  0  0  0  0  0  0  0  0  0  0
   37.6190   27.0840   29.9370 H   0  0  0  0  0  0  0  0  0  0  0  0
   36.5360   28.5750   29.9010 H   0  0  0  0  0  0  0  0  0  0  0  0
   35.0430   27.3950   31.5810 H   0  0  0  0  0  0  0  0  0  0  0  0
   35.3850   26.2140   30.2180 H   0  0  0  0  0  0  0  0  0  0  0  0
   36.6650   24.6090   32.0340 C   0  0  0  0  0  0  0  0  0  0  0  0
   35.6050   23.8840   31.4680 C   0  0  0  0  0  0  0  0  0  0  0  0
   35.6010   22.4920   31.5560 C   0  0  0  0  0  0  0  0  0  0  0  0
   36.6690   21.9180   32.2140 N   0  0  0  0  0  0  0  0  0  0  0  0
   37.6720   22.6470   32.7480 C   0  0  0  0  0  0  0  0  0  0  0  0
   37.6840   24.0140   32.6650 N   0  0  0  0  0  0  0  0  0  0  0  0
   34.7620   24.3150   30.9490 H   0  0  0  0  0  0  0  0  0  0  0  0
   34.8060   21.9060   31.1340 H   0  0  0  0  0  0  0  0  0  0  0  0
   38.4620   22.1060   33.2420 H   0  0  0  0  0  0  0  0  0  0  0  0
   37.0230   27.2330   34.0390 C   0  0  0  0  0  0  0  0  0  0  0  0
   36.2090   28.0810   34.2850 O   0  0  0  0  0  0  0  0  0  0  0  0
   37.5170   26.5990   35.2900 C   0  0  0  0  0  3  0  0  0  0  0  0
   38.7190   27.2900   35.9450 C   0  0  0  0  0  2  0  0  0  0  0  0
   38.9030   25.9740   35.2870 C   0  0  0  0  0  2  0  0  0  0  0  0
  1 13  1  0  0  0  0
  1  2  1  0  0  0  0
  2  6  1  1  0  0  0
  2 22  1  0  0  0  0
  3  7  1  0  0  0  0
  3  2  1  0  0  0  0
  4  5  1  0  0  0  0
  4  3  1  0  0  0  0
  5 11  1  0  0  0  0
  5  1  1  0  0  0  0
  8  3  1  0  0  0  0
  9  4  1  0  0  0  0
 10  4  1  0  0  0  0
 12  5  1  0  0  0  0
 13 18  1  0  0  0  0
 14 15  1  0  0  0  0
 14 13  2  0  0  0  0
 15 16  2  0  0  0  0
 16 17  1  0  0  0  0
 17 21  1  0  0  0  0
 18 17  2  0  0  0  0
 19 14  1  0  0  0  0
 20 15  1  0  0  0  0
 22 23  2  0  0  0  0
 22 24  1  0  0  0  0
 24 25  1  0  0  0  0
 26 24  1  0  0  0  0
 26 25  1  0  0  0  0
M  END
>  <minimizedAffinity>
-4.24358749

$$$$

 OpenBabel03272503253D

 26 28  0  0  1  0  0  0  0  0999 V2000
   36.9700   25.3470   32.3220 N   0  0  0  0  0  0  0  0  0  0  0  0
   35.9500   24.5310   31.7680 C   0  0  1  0  0  0  0  0  0  0  0  0
   35.1740   25.4340   30.8460 C   0  0  0  0  0  0  0  0  0  0  0  0
   35.8500   26.8120   31.0320 C   0  0  0  0  0  0  0  0  0  0  0  0
   37.2500   26.3630   31.3390 C   0  0  0  0  0  0  0  0  0  0  0  0
   35.2410   24.3020   32.6560 H   0  0  0  0  0  0  0  0  0  0  0  0
   35.4170   25.1320   29.8050 H   0  0  0  0  0  0  0  0  0  0  0  0
   34.1030   25.4740   31.0680 H   0  0  0  0  0  0  0  0  0  0  0  0
   35.4210   27.2240   31.9660 H   0  0  0  0  0  0  0  0  0  0  0  0
   35.7360   27.4560   30.1650 H   0  0  0  0  0  0  0  0  0  0  0  0
   37.7640   25.9530   30.4390 H   0  0  0  0  0  0  0  0  0  0  0  0
   37.8270   27.2170   31.7680 H   0  0  0  0  0  0  0  0  0  0  0  0
   37.5760   25.1930   33.5980 C   0  0  0  0  0  0  0  0  0  0  0  0
   37.4320   26.2320   34.5300 C   0  0  0  0  0  0  0  0  0  0  0  0
   38.0170   26.1110   35.7900 C   0  0  0  0  0  0  0  0  0  0  0  0
   38.7150   24.9450   36.0310 N   0  0  0  0  0  0  0  0  0  0  0  0
   38.8340   23.9640   35.1100 C   0  0  0  0  0  0  0  0  0  0  0  0
   38.2620   24.0750   33.8710 N   0  0  0  0  0  0  0  0  0  0  0  0
   36.8900   27.1500   34.3610 H   0  0  0  0  0  0  0  0  0  0  0  0
   37.9270   26.8870   36.5280 H   0  0  0  0  0  0  0  0  0  0  0  0
   39.3990   23.0920   35.3940 H   0  0  0  0  0  0  0  0  0  0  0  0
   36.3270   23.2470   31.2140 C   0  0  0  0  0  0  0  0  0  0  0  0
   37.4050   23.0710   30.7140 O   0  0  0  0  0  0  0  0  0  0  0  0
   35.5090   22.0070   31.1490 C   0  0  0  0  0  3  0  0  0  0  0  0
   35.2590   21.3150   32.4950 C   0  0  0  0  0  2  0  0  0  0  0  0
   36.1690   20.6850   31.5080 C   0  0  0  0  0  2  0  0  0  0  0  0
  1 13  1  0  0  0  0
  2  1  1  0  0  0  0
  2  6  1  1  0  0  0
  3  4  1  0  0  0  0
  3  8  1  0  0  0  0
  3  2  1  0  0  0  0
  4  5  1  0  0  0  0
  4  9  1  0  0  0  0
  5 12  1  0  0  0  0
  5  1  1  0  0  0  0
  7  3  1  0  0  0  0
 10  4  1  0  0  0  0
 11  5  1  0  0  0  0
 13 18  2  0  0  0  0
 13 14  1  0  0  0  0
 14 15  2  0  0  0  0
 15 16  1  0  0  0  0
 15 20  1  0  0  0  0
 17 21  1  0  0  0  0
 17 16  2  0  0  0  0
 18 17  1  0  0  0  0
 19 14  1  0  0  0  0
 22  2  1  0  0  0  0
 23 22  2  0  0  0  0
 24 22  1  0  0  0  0
 24 26  1  0  0  0  0
 24 25  1  0  0  0  0
 26 25  1  0  0  0  0
M  END
>  <minimizedAffinity>
-4.17291355

$$$$

 OpenBabel03272503253D

 26 28  0  0  1  0  0  0  0  0999 V2000
   38.3970   25.7860   33.6130 N   0  0  0  0  0  0  0  0  0  0  0  0
   39.0770   25.4900   34.8210 C   0  0  1  0  0  0  0  0  0  0  0  0
   40.3440   26.3050   34.7750 C   0  0  0  0  0  0  0  0  0  0  0  0
   40.2830   26.9960   33.3940 C   0  0  0  0  0  0  0  0  0  0  0  0
   38.7930   27.1220   33.2440 C   0  0  0  0  0  0  0  0  0  0  0  0
   39.4090   24.3850   34.7100 H   0  0  0  0  0  0  0  0  0  0  0  0
   40.2350   27.1280   35.5140 H   0  0  0  0  0  0  0  0  0  0  0  0
   41.2540   25.7100   34.8920 H   0  0  0  0  0  0  0  0  0  0  0  0
   40.6250   26.2310   32.6690 H   0  0  0  0  0  0  0  0  0  0  0  0
   40.8440   27.9240   33.3630 H   0  0  0  0  0  0  0  0  0  0  0  0
   38.3690   27.8940   33.9280 H   0  0  0  0  0  0  0  0  0  0  0  0
   38.5460   27.3570   32.1810 H   0  0  0  0  0  0  0  0  0  0  0  0
   37.5150   24.9230   32.9060 C   0  0  0  0  0  0  0  0  0  0  0  0
   37.7450   23.5410   32.9750 C   0  0  0  0  0  0  0  0  0  0  0  0
   36.8980   22.6690   32.2900 C   0  0  0  0  0  0  0  0  0  0  0  0
   35.8700   23.2490   31.5760 N   0  0  0  0  0  0  0  0  0  0  0  0
   35.6790   24.5860   31.5320 C   0  0  0  0  0  0  0  0  0  0  0  0
   36.5050   25.4480   32.2010 N   0  0  0  0  0  0  0  0  0  0  0  0
   38.5420   23.0680   33.5280 H   0  0  0  0  0  0  0  0  0  0  0  0
   37.0450   21.6050   32.3210 H   0  0  0  0  0  0  0  0  0  0  0  0
   34.8480   24.9420   30.9460 H   0  0  0  0  0  0  0  0  0  0  0  0
   38.3330   25.5620   36.0620 C   0  0  0  0  0  0  0  0  0  0  0  0
   38.2110   26.5970   36.6610 O   0  0  0  0  0  0  0  0  0  0  0  0
   37.6460   24.4560   36.7780 C   0  0  0  0  0  3  0  0  0  0  0  0
   38.4900   23.7390   37.8390 C   0  0  0  0  0  2  0  0  0  0  0  0
   38.1550   23.0370   36.5760 C   0  0  0  0  0  2  0  0  0  0  0  0
  1  2  1  0  0  0  0
  2  6  1  6  0  0  0
  2 22  1  0  0  0  0
  3  2  1  0  0  0  0
  3  8  1  0  0  0  0
  3  7  1  0  0  0  0
  4  3  1  0  0  0  0
  5  4  1  0  0  0  0
  5  1  1  0  0  0  0
  5 11  1  0  0  0  0
  9  4  1  0  0  0  0
 10  4  1  0  0  0  0
 12  5  1  0  0  0  0
 13 14  1  0  0  0  0
 13  1  1  0  0  0  0
 14 19  1  0  0  0  0
 15 20  1  0  0  0  0
 15 14  2  0  0  0  0
 16 15  1  0  0  0  0
 17 16  2  0  0  0  0
 17 18  1  0  0  0  0
 18 13  2  0  0  0  0
 21 17  1  0  0  0  0
 22 23  2  0  0  0  0
 22 24  1  0  0  0  0
 24 25  1  0  0  0  0
 26 24  1  0  0  0  0
 26 25  1  0  0  0  0
M  END
>  <minimizedAffinity>
-4.15970278

$$$$

 OpenBabel03272503253D

 26 28  0  0  1  0  0  0  0  0999 V2000
   36.4340   27.9650   33.0510 N   0  0  0  0  0  0  0  0  0  0  0  0
   36.2360   29.3690   33.0680 C   0  0  1  0  0  0  0  0  0  0  0  0
   36.0920   29.7680   31.6220 C   0  0  0  0  0  0  0  0  0  0  0  0
   36.3050   28.4430   30.8550 C   0  0  0  0  0  0  0  0  0  0  0  0
   35.7640   27.4780   31.8720 C   0  0  0  0  0  0  0  0  0  0  0  0
   37.2510   29.8060   33.4160 H   0  0  0  0  0  0  0  0  0  0  0  0
   35.0250   30.0290   31.4560 H   0  0  0  0  0  0  0  0  0  0  0  0
   36.8010   30.5390   31.3060 H   0  0  0  0  0  0  0  0  0  0  0  0
   37.4030   28.3020   30.8160 H   0  0  0  0  0  0  0  0  0  0  0  0
   35.8170   28.4360   29.8860 H   0  0  0  0  0  0  0  0  0  0  0  0
   34.6540   27.5400   31.9580 H   0  0  0  0  0  0  0  0  0  0  0  0
   36.0820   26.4410   31.6040 H   0  0  0  0  0  0  0  0  0  0  0  0
   37.1630   27.2030   34.0050 C   0  0  0  0  0  0  0  0  0  0  0  0
   37.4110   25.8510   33.7230 C   0  0  0  0  0  0  0  0  0  0  0  0
   38.1220   25.0770   34.6400 C   0  0  0  0  0  0  0  0  0  0  0  0
   38.5370   25.7180   35.7890 N   0  0  0  0  0  0  0  0  0  0  0  0
   38.2790   27.0220   36.0290 C   0  0  0  0  0  0  0  0  0  0  0  0
   37.5830   27.7890   35.1330 N   0  0  0  0  0  0  0  0  0  0  0  0
   37.0960   25.3330   32.8310 H   0  0  0  0  0  0  0  0  0  0  0  0
   38.3290   24.0390   34.4560 H   0  0  0  0  0  0  0  0  0  0  0  0
   38.6460   27.4320   36.9550 H   0  0  0  0  0  0  0  0  0  0  0  0
   35.2370   29.9090   33.9670 C   0  0  0  0  0  0  0  0  0  0  0  0
   34.2800   29.2650   34.3030 O   0  0  0  0  0  0  0  0  0  0  0  0
   35.2020   31.2610   34.5840 C   0  0  0  0  0  3  0  0  0  0  0  0
   36.0580   31.4290   35.8450 C   0  0  0  0  0  2  0  0  0  0  0  0
   34.5800   31.4120   35.9640 C   0  0  0  0  0  2  0  0  0  0  0  0
  1  2  1  0  0  0  0
  1 13  1  0  0  0  0
  2  6  1  1  0  0  0
  2 22  1  0  0  0  0
  3  2  1  0  0  0  0
  4  3  1  0  0  0  0
  4  5  1  0  0  0  0
  5 11  1  0  0  0  0
  5  1  1  0  0  0  0
  7  3  1  0  0  0  0
  8  3  1  0  0  0  0
  9  4  1  0  0  0  0
 10  4  1  0  0  0  0
 12  5  1  0  0  0  0
 13 18  1  0  0  0  0
 14 13  2  0  0  0  0
 14 15  1  0  0  0  0
 15 16  2  0  0  0  0
 16 17  1  0  0  0  0
 17 21  1  0  0  0  0
 18 17  2  0  0  0  0
 19 14  1  0  0  0  0
 20 15  1  0  0  0  0
 22 23  2  0  0  0  0
 22 24  1  0  0  0  0
 24 25  1  0  0  0  0
 24 26  1  0  0  0  0
 25 26  1  0  0  0  0
M  END
>  <minimizedAffinity>
-4.09579754

$$$$

 OpenBabel03272503253D

 26 28  0  0  1  0  0  0  0  0999 V2000
   37.2310   27.4030   33.4920 N   0  0  0  0  0  0  0  0  0  0  0  0
   38.0610   26.3550   33.0190 C   0  0  1  0  0  0  0  0  0  0  0  0
   39.0890   26.1430   34.1010 C   0  0  0  0  0  0  0  0  0  0  0  0
   38.7490   27.2310   35.1450 C   0  0  0  0  0  0  0  0  0  0  0  0
   37.2650   27.3260   34.9310 C   0  0  0  0  0  0  0  0  0  0  0  0
   38.6360   26.8140   32.1240 H   0  0  0  0  0  0  0  0  0  0  0  0
   38.8490   25.1790   34.6000 H   0  0  0  0  0  0  0  0  0  0  0  0
   40.1210   26.2260   33.7480 H   0  0  0  0  0  0  0  0  0  0  0  0
   39.2010   28.1630   34.7530 H   0  0  0  0  0  0  0  0  0  0  0  0
   39.0690   26.9650   36.1480 H   0  0  0  0  0  0  0  0  0  0  0  0
   36.7280   26.4300   35.3210 H   0  0  0  0  0  0  0  0  0  0  0  0
   36.8800   28.2580   35.4120 H   0  0  0  0  0  0  0  0  0  0  0  0
   36.5230   28.3440   32.6960 C   0  0  0  0  0  0  0  0  0  0  0  0
   37.0860   28.7300   31.4690 C   0  0  0  0  0  0  0  0  0  0  0  0
   36.4160   29.6550   30.6670 C   0  0  0  0  0  0  0  0  0  0  0  0
   35.2180   30.1340   31.1550 N   0  0  0  0  0  0  0  0  0  0  0  0
   34.7070   29.7410   32.3420 C   0  0  0  0  0  0  0  0  0  0  0  0
   35.3570   28.8330   33.1350 N   0  0  0  0  0  0  0  0  0  0  0  0
   38.0200   28.3670   31.0700 H   0  0  0  0  0  0  0  0  0  0  0  0
   36.8180   29.9720   29.7230 H   0  0  0  0  0  0  0  0  0  0  0  0
   33.7640   30.1720   32.6360 H   0  0  0  0  0  0  0  0  0  0  0  0
   37.4280   25.1530   32.5150 C   0  0  0  0  0  0  0  0  0  0  0  0
   37.3850   24.1460   33.1680 O   0  0  0  0  0  0  0  0  0  0  0  0
   36.7770   24.9520   31.1940 C   0  0  0  0  0  3  0  0  0  0  0  0
   35.2990   25.3560   31.1230 C   0  0  0  0  0  2  0  0  0  0  0  0
   35.6650   23.9200   31.0850 C   0  0  0  0  0  2  0  0  0  0  0  0
  1  5  1  0  0  0  0
  2  6  1  6  0  0  0
  2  1  1  0  0  0  0
  2  3  1  0  0  0  0
  3  7  1  0  0  0  0
  3  4  1  0  0  0  0
  4 10  1  0  0  0  0
  5  4  1  0  0  0  0
  5 11  1  0  0  0  0
  5 12  1  0  0  0  0
  8  3  1  0  0  0  0
  9  4  1  0  0  0  0
 13 18  1  0  0  0  0
 13  1  1  0  0  0  0
 14 13  2  0  0  0  0
 15 16  2  0  0  0  0
 15 14  1  0  0  0  0
 16 17  1  0  0  0  0
 17 21  1  0  0  0  0
 17 18  2  0  0  0  0
 19 14  1  0  0  0  0
 20 15  1  0  0  0  0
 22  2  1  0  0  0  0
 22 23  2  0  0  0  0
 24 22  1  0  0  0  0
 25 24  1  0  0  0  0
 26 25  1  0  0  0  0
 26 24  1  0  0  0  0
M  END
>  <minimizedAffinity>
-4.04619837

$$$$
