
 OpenBabel03272508413D

 36 39  0  0  1  0  0  0  0  0999 V2000
   36.9650   27.4760   33.5950 N   0  0  0  0  0  0  0  0  0  0  0  0
   36.3760   28.4020   34.5590 C   0  0  0  0  0  0  0  0  0  0  0  0
   35.1470   29.0490   34.1050 C   0  0  2  0  0  0  0  0  0  0  0  0
   35.2350   29.5150   32.6920 N   0  0  0  0  0  0  0  0  0  0  0  0
   35.6190   28.3410   31.8840 C   0  0  0  0  0  0  0  0  0  0  0  0
   37.0510   28.0900   32.3140 C   0  0  0  0  0  0  0  0  0  0  0  0
   37.1900   29.2070   34.5560 H   0  0  0  0  0  0  0  0  0  0  0  0
   36.2480   27.9280   35.5310 H   0  0  0  0  0  0  0  0  0  0  0  0
   34.2630   28.3950   34.0100 H   0  0  0  0  0  0  0  0  0  0  0  0
   35.9240   30.2900   32.6130 H   0  0  0  0  0  0  0  0  0  0  0  0
   35.4840   28.5240   30.8220 H   0  0  0  0  0  0  0  0  0  0  0  0
   34.9730   27.5090   32.2750 H   0  0  0  0  0  0  0  0  0  0  0  0
   37.5600   29.0840   32.3360 H   0  0  0  0  0  0  0  0  0  0  0  0
   37.6080   27.4920   31.5590 H   0  0  0  0  0  0  0  0  0  0  0  0
   32.2740   29.3740   34.8050 Cl  0  0  0  0  0  0  0  0  0  0  0  0
   33.5580   30.4390   35.3770 C   0  0  0  0  0  0  0  0  0  0  0  0
   34.8370   30.1870   34.9550 C   0  0  0  0  0  0  0  0  0  0  0  0
   35.9510   30.9460   35.3300 C   0  0  0  0  0  0  0  0  0  0  0  0
   35.6830   32.0200   36.1900 C   0  0  0  0  0  0  0  0  0  0  0  0
   34.3870   32.2880   36.6250 C   0  0  0  0  0  0  0  0  0  0  0  0
   33.3280   31.4860   36.2100 C   0  0  0  0  0  0  0  0  0  0  0  0
   37.0020   30.9590   35.1610 H   0  0  0  0  0  0  0  0  0  0  0  0
   36.4110   32.7270   36.5940 H   0  0  0  0  0  0  0  0  0  0  0  0
   34.1700   33.1310   37.3020 H   0  0  0  0  0  0  0  0  0  0  0  0
   31.9790   31.8550   36.7080 C   0  0  0  0  0  3  0  0  0  0  0  0
   31.6170   33.3000   36.9090 C   0  0  0  0  0  2  0  0  0  0  0  0
   31.0270   32.6010   35.7490 C   0  0  0  0  0  2  0  0  0  0  0  0
   37.3870   26.1720   33.9470 C   0  0  0  0  0  0  0  0  0  0  0  0
   37.7610   25.8350   35.2460 C   0  0  0  0  0  0  0  0  0  0  0  0
   38.1550   24.5310   35.5080 C   0  0  0  0  0  0  0  0  0  0  0  0
   38.1560   23.6240   34.4640 N   0  0  0  0  0  0  0  0  0  0  0  0
   37.7830   24.0020   33.2150 C   0  0  0  0  0  0  0  0  0  0  0  0
   37.4050   25.2440   32.9520 N   0  0  0  0  0  0  0  0  0  0  0  0
   37.7320   26.6000   36.0030 H   0  0  0  0  0  0  0  0  0  0  0  0
   38.4430   24.2700   36.5100 H   0  0  0  0  0  0  0  0  0  0  0  0
   37.7960   23.2680   32.4220 H   0  0  0  0  0  0  0  0  0  0  0  0
  1 28  1  0  0  0  0
  1  2  1  0  0  0  0
  2  8  1  0  0  0  0
  3  9  1  1  0  0  0
  3  2  1  0  0  0  0
  3 17  1  0  0  0  0
  4  3  1  0  0  0  0
  5 12  1  0  0  0  0
  5  6  1  0  0  0  0
  5  4  1  0  0  0  0
  6 13  1  0  0  0  0
  6  1  1  0  0  0  0
  7  2  1  0  0  0  0
 10  4  1  0  0  0  0
 11  5  1  0  0  0  0
 14  6  1  0  0  0  0
 15 16  1  0  0  0  0
 16 21  1  0  0  0  0
 17 18  1  0  0  0  0
 17 16  2  0  0  0  0
 18 19  2  0  0  0  0
 19 23  1  0  0  0  0
 19 20  1  0  0  0  0
 20 24  1  0  0  0  0
 21 20  2  0  0  0  0
 21 25  1  0  0  0  0
 22 18  1  0  0  0  0
 25 26  1  0  0  0  0
 27 25  1  0  0  0  0
 27 26  1  0  0  0  0
 28 29  1  0  0  0  0
 29 30  2  0  0  0  0
 29 34  1  0  0  0  0
 30 35  1  0  0  0  0
 31 30  1  0  0  0  0
 32 31  2  0  0  0  0
 33 32  1  0  0  0  0
 33 28  2  0  0  0  0
 36 32  1  0  0  0  0
M  END
>  <minimizedAffinity>
-5.36591291

$$$$

 OpenBabel03272508413D

 36 39  0  0  1  0  0  0  0  0999 V2000
   36.0030   29.2360   31.6710 N   0  0  0  0  0  0  0  0  0  0  0  0
   35.4980   30.1700   32.6750 C   0  0  0  0  0  0  0  0  0  0  0  0
   35.9430   29.8930   34.0380 C   0  0  2  0  0  0  0  0  0  0  0  0
   35.8780   28.4420   34.3760 N   0  0  0  0  0  0  0  0  0  0  0  0
   36.6580   27.7330   33.3430 C   0  0  0  0  0  0  0  0  0  0  0  0
   35.8020   27.8960   32.1030 C   0  0  0  0  0  0  0  0  0  0  0  0
   34.3870   29.8990   32.6300 H   0  0  0  0  0  0  0  0  0  0  0  0
   35.6980   31.2010   32.3870 H   0  0  0  0  0  0  0  0  0  0  0  0
   37.0140   30.0630   34.2420 H   0  0  0  0  0  0  0  0  0  0  0  0
   34.8880   28.1250   34.4070 H   0  0  0  0  0  0  0  0  0  0  0  0
   36.8610   26.7050   33.6290 H   0  0  0  0  0  0  0  0  0  0  0  0
   37.5890   28.3510   33.2230 H   0  0  0  0  0  0  0  0  0  0  0  0
   34.7480   27.6850   32.4080 H   0  0  0  0  0  0  0  0  0  0  0  0
   36.0430   27.1290   31.3330 H   0  0  0  0  0  0  0  0  0  0  0  0
   33.0230   29.3360   33.9270 Cl  0  0  0  0  0  0  0  0  0  0  0  0
   33.7730   30.4500   35.0680 C   0  0  0  0  0  0  0  0  0  0  0  0
   35.1300   30.6310   34.9910 C   0  0  0  0  0  0  0  0  0  0  0  0
   35.8570   31.4800   35.8320 C   0  0  0  0  0  0  0  0  0  0  0  0
   35.1000   32.1650   36.7920 C   0  0  0  0  0  0  0  0  0  0  0  0
   33.7210   31.9920   36.8800 C   0  0  0  0  0  0  0  0  0  0  0  0
   33.0650   31.1270   36.0080 C   0  0  0  0  0  0  0  0  0  0  0  0
   36.8670   31.7820   35.9830 H   0  0  0  0  0  0  0  0  0  0  0  0
   35.4780   32.8710   37.5360 H   0  0  0  0  0  0  0  0  0  0  0  0
   33.1200   32.5280   37.6330 H   0  0  0  0  0  0  0  0  0  0  0  0
   31.5930   31.0170   36.1610 C   0  0  0  0  0  3  0  0  0  0  0  0
   30.7860   32.2140   36.5790 C   0  0  0  0  0  2  0  0  0  0  0  0
   30.6980   31.7850   35.1680 C   0  0  0  0  0  2  0  0  0  0  0  0
   36.5830   29.6640   30.4530 C   0  0  0  0  0  0  0  0  0  0  0  0
   36.5950   31.0010   30.0620 C   0  0  0  0  0  0  0  0  0  0  0  0
   37.1920   31.3360   28.8550 C   0  0  0  0  0  0  0  0  0  0  0  0
   37.7500   30.3230   28.0970 N   0  0  0  0  0  0  0  0  0  0  0  0
   37.7130   29.0350   28.5220 C   0  0  0  0  0  0  0  0  0  0  0  0
   37.1460   28.7030   29.6720 N   0  0  0  0  0  0  0  0  0  0  0  0
   36.1390   31.7300   30.7090 H   0  0  0  0  0  0  0  0  0  0  0  0
   37.2020   32.3660   28.5520 H   0  0  0  0  0  0  0  0  0  0  0  0
   38.1590   28.2690   27.9040 H   0  0  0  0  0  0  0  0  0  0  0  0
  1  6  1  0  0  0  0
  1  2  1  0  0  0  0
  2  3  1  0  0  0  0
  3  9  1  1  0  0  0
  3  4  1  0  0  0  0
  3 17  1  0  0  0  0
  4 10  1  0  0  0  0
  5 11  1  0  0  0  0
  5  4  1  0  0  0  0
  6 13  1  0  0  0  0
  6  5  1  0  0  0  0
  7  2  1  0  0  0  0
  8  2  1  0  0  0  0
 12  5  1  0  0  0  0
 14  6  1  0  0  0  0
 15 16  1  0  0  0  0
 16 21  1  0  0  0  0
 17 16  2  0  0  0  0
 17 18  1  0  0  0  0
 18 22  1  0  0  0  0
 18 19  2  0  0  0  0
 19 20  1  0  0  0  0
 19 23  1  0  0  0  0
 20 24  1  0  0  0  0
 21 25  1  0  0  0  0
 21 20  2  0  0  0  0
 25 26  1  0  0  0  0
 27 25  1  0  0  0  0
 27 26  1  0  0  0  0
 28  1  1  0  0  0  0
 29 28  1  0  0  0  0
 29 34  1  0  0  0  0
 30 29  2  0  0  0  0
 31 32  2  0  0  0  0
 31 30  1  0  0  0  0
 32 33  1  0  0  0  0
 33 28  2  0  0  0  0
 35 30  1  0  0  0  0
 36 32  1  0  0  0  0
M  END
>  <minimizedAffinity>
-5.23377752

$$$$

 OpenBabel03272508413D

 36 39  0  0  1  0  0  0  0  0999 V2000
   36.8310   26.6140   33.2070 N   0  0  0  0  0  0  0  0  0  0  0  0
   37.4860   26.0230   34.3710 C   0  0  0  0  0  0  0  0  0  0  0  0
   38.6710   25.2270   34.0610 C   0  0  2  0  0  0  0  0  0  0  0  0
   38.4710   24.3410   32.8780 N   0  0  0  0  0  0  0  0  0  0  0  0
   38.0340   25.2100   31.7690 C   0  0  0  0  0  0  0  0  0  0  0  0
   36.6420   25.6300   32.1980 C   0  0  0  0  0  0  0  0  0  0  0  0
   36.6680   25.2850   34.6820 H   0  0  0  0  0  0  0  0  0  0  0  0
   37.6920   26.7760   35.1300 H   0  0  0  0  0  0  0  0  0  0  0  0
   39.5500   25.7890   33.7000 H   0  0  0  0  0  0  0  0  0  0  0  0
   37.7720   23.6030   33.0990 H   0  0  0  0  0  0  0  0  0  0  0  0
   38.0850   24.6960   30.8130 H   0  0  0  0  0  0  0  0  0  0  0  0
   38.7150   26.1020   31.8280 H   0  0  0  0  0  0  0  0  0  0  0  0
   36.1280   24.7100   32.5700 H   0  0  0  0  0  0  0  0  0  0  0  0
   36.0320   25.9750   31.3330 H   0  0  0  0  0  0  0  0  0  0  0  0
   41.4550   24.1780   34.0390 Cl  0  0  0  0  0  0  0  0  0  0  0  0
   40.2980   23.8840   35.3360 C   0  0  0  0  0  0  0  0  0  0  0  0
   39.0380   24.4070   35.2030 C   0  0  0  0  0  0  0  0  0  0  0  0
   38.0210   24.2560   36.1530 C   0  0  0  0  0  0  0  0  0  0  0  0
   38.3680   23.5100   37.2880 C   0  0  0  0  0  0  0  0  0  0  0  0
   39.6430   22.9700   37.4340 C   0  0  0  0  0  0  0  0  0  0  0  0
   40.6050   23.1650   36.4460 C   0  0  0  0  0  0  0  0  0  0  0  0
   37.0080   24.5520   36.2930 H   0  0  0  0  0  0  0  0  0  0  0  0
   37.7200   23.2790   38.1370 H   0  0  0  0  0  0  0  0  0  0  0  0
   39.9220   22.3830   38.3250 H   0  0  0  0  0  0  0  0  0  0  0  0
   41.9310   22.5400   36.6750 C   0  0  0  0  0  3  0  0  0  0  0  0
   42.0320   21.2250   37.3960 C   0  0  0  0  0  2  0  0  0  0  0  0
   42.2550   21.2260   35.9350 C   0  0  0  0  0  2  0  0  0  0  0  0
   36.4470   27.9750   33.1550 C   0  0  0  0  0  0  0  0  0  0  0  0
   36.4420   28.7040   31.9670 C   0  0  0  0  0  0  0  0  0  0  0  0
   36.0440   30.0330   32.0040 C   0  0  0  0  0  0  0  0  0  0  0  0
   35.6690   30.5710   33.2210 N   0  0  0  0  0  0  0  0  0  0  0  0
   35.6910   29.8200   34.3500 C   0  0  0  0  0  0  0  0  0  0  0  0
   36.0690   28.5500   34.3280 N   0  0  0  0  0  0  0  0  0  0  0  0
   36.7490   28.2100   31.0610 H   0  0  0  0  0  0  0  0  0  0  0  0
   36.0400   30.5950   31.0890 H   0  0  0  0  0  0  0  0  0  0  0  0
   35.3920   30.2730   35.2840 H   0  0  0  0  0  0  0  0  0  0  0  0
  1  2  1  0  0  0  0
  2  7  1  0  0  0  0
  2  8  1  0  0  0  0
  3  9  1  6  0  0  0
  3  2  1  0  0  0  0
  3 17  1  0  0  0  0
  4 10  1  0  0  0  0
  4  3  1  0  0  0  0
  5 12  1  0  0  0  0
  5  6  1  0  0  0  0
  5  4  1  0  0  0  0
  6 13  1  0  0  0  0
  6  1  1  0  0  0  0
 11  5  1  0  0  0  0
 14  6  1  0  0  0  0
 15 16  1  0  0  0  0
 16 21  1  0  0  0  0
 17 16  2  0  0  0  0
 17 18  1  0  0  0  0
 18 22  1  0  0  0  0
 18 19  2  0  0  0  0
 19 20  1  0  0  0  0
 19 23  1  0  0  0  0
 20 24  1  0  0  0  0
 21 25  1  0  0  0  0
 21 20  2  0  0  0  0
 25 26  1  0  0  0  0
 27 25  1  0  0  0  0
 27 26  1  0  0  0  0
 28  1  1  0  0  0  0
 28 33  1  0  0  0  0
 29 30  1  0  0  0  0
 29 28  2  0  0  0  0
 30 31  2  0  0  0  0
 31 32  1  0  0  0  0
 32 36  1  0  0  0  0
 33 32  2  0  0  0  0
 34 29  1  0  0  0  0
 35 30  1  0  0  0  0
M  END
>  <minimizedAffinity>
-5.21972847

$$$$

 OpenBabel03272508413D

 36 39  0  0  1  0  0  0  0  0999 V2000
   36.0830   28.9360   31.6870 N   0  0  0  0  0  0  0  0  0  0  0  0
   35.2470   29.7310   32.5820 C   0  0  0  0  0  0  0  0  0  0  0  0
   35.6310   29.6630   33.9900 C   0  0  2  0  0  0  0  0  0  0  0  0
   35.9540   28.2740   34.4270 N   0  0  0  0  0  0  0  0  0  0  0  0
   36.9910   27.7720   33.5050 C   0  0  0  0  0  0  0  0  0  0  0  0
   36.2360   27.6180   32.2000 C   0  0  0  0  0  0  0  0  0  0  0  0
   34.2680   29.1480   32.4800 H   0  0  0  0  0  0  0  0  0  0  0  0
   35.1690   30.7610   32.2350 H   0  0  0  0  0  0  0  0  0  0  0  0
   36.5870   30.1470   34.2550 H   0  0  0  0  0  0  0  0  0  0  0  0
   35.0960   27.6860   34.4120 H   0  0  0  0  0  0  0  0  0  0  0  0
   37.4530   26.8630   33.8790 H   0  0  0  0  0  0  0  0  0  0  0  0
   37.7140   28.6270   33.4060 H   0  0  0  0  0  0  0  0  0  0  0  0
   35.2640   27.1260   32.4460 H   0  0  0  0  0  0  0  0  0  0  0  0
   36.7520   26.9160   31.5070 H   0  0  0  0  0  0  0  0  0  0  0  0
   36.3890   31.9060   35.7910 Cl  0  0  0  0  0  0  0  0  0  0  0  0
   34.7640   31.2320   35.6820 C   0  0  0  0  0  0  0  0  0  0  0  0
   34.5610   30.1800   34.8270 C   0  0  0  0  0  0  0  0  0  0  0  0
   33.3260   29.5490   34.6380 C   0  0  0  0  0  0  0  0  0  0  0  0
   32.2670   30.0640   35.3980 C   0  0  0  0  0  0  0  0  0  0  0  0
   32.4600   31.1310   36.2720 C   0  0  0  0  0  0  0  0  0  0  0  0
   33.7190   31.7090   36.4060 C   0  0  0  0  0  0  0  0  0  0  0  0
   32.9150   28.7570   34.0580 H   0  0  0  0  0  0  0  0  0  0  0  0
   31.2330   29.7120   35.3950 H   0  0  0  0  0  0  0  0  0  0  0  0
   31.6310   31.5400   36.8730 H   0  0  0  0  0  0  0  0  0  0  0  0
   33.8380   32.8290   37.3730 C   0  0  0  0  0  3  0  0  0  0  0  0
   34.2210   34.2020   36.8960 C   0  0  0  0  0  2  0  0  0  0  0  0
   32.8130   33.9780   37.2870 C   0  0  0  0  0  2  0  0  0  0  0  0
   36.6220   29.4520   30.4840 C   0  0  0  0  0  0  0  0  0  0  0  0
   36.5730   30.8090   30.1670 C   0  0  0  0  0  0  0  0  0  0  0  0
   37.1320   31.2330   28.9700 C   0  0  0  0  0  0  0  0  0  0  0  0
   37.7150   30.2860   28.1470 N   0  0  0  0  0  0  0  0  0  0  0  0
   37.7370   28.9760   28.5010 C   0  0  0  0  0  0  0  0  0  0  0  0
   37.2060   28.5590   29.6410 N   0  0  0  0  0  0  0  0  0  0  0  0
   36.1010   31.4810   30.8620 H   0  0  0  0  0  0  0  0  0  0  0  0
   37.0950   32.2780   28.7250 H   0  0  0  0  0  0  0  0  0  0  0  0
   38.2000   28.2640   27.8340 H   0  0  0  0  0  0  0  0  0  0  0  0
  1  6  1  0  0  0  0
  1  2  1  0  0  0  0
  2  3  1  0  0  0  0
  3  9  1  1  0  0  0
  3  4  1  0  0  0  0
  3 17  1  0  0  0  0
  5 11  1  0  0  0  0
  5  4  1  0  0  0  0
  6 13  1  0  0  0  0
  6  5  1  0  0  0  0
  7  2  1  0  0  0  0
  8  2  1  0  0  0  0
 10  4  1  0  0  0  0
 12  5  1  0  0  0  0
 14  6  1  0  0  0  0
 16 15  1  0  0  0  0
 16 21  1  0  0  0  0
 17 16  2  0  0  0  0
 18 17  1  0  0  0  0
 18 19  2  0  0  0  0
 19 20  1  0  0  0  0
 20 21  2  0  0  0  0
 20 24  1  0  0  0  0
 21 25  1  0  0  0  0
 22 18  1  0  0  0  0
 23 19  1  0  0  0  0
 26 27  1  0  0  0  0
 26 25  1  0  0  0  0
 27 25  1  0  0  0  0
 28  1  1  0  0  0  0
 29 28  1  0  0  0  0
 29 34  1  0  0  0  0
 30 29  2  0  0  0  0
 31 32  2  0  0  0  0
 31 30  1  0  0  0  0
 32 33  1  0  0  0  0
 33 28  2  0  0  0  0
 35 30  1  0  0  0  0
 36 32  1  0  0  0  0
M  END
>  <minimizedAffinity>
-5.21744585

$$$$

 OpenBabel03272508413D

 36 39  0  0  1  0  0  0  0  0999 V2000
   36.4340   28.8950   32.7400 N   0  0  0  0  0  0  0  0  0  0  0  0
   35.7020   29.1780   33.9720 C   0  0  0  0  0  0  0  0  0  0  0  0
   34.3500   29.6920   33.7700 C   0  0  2  0  0  0  0  0  0  0  0  0
   34.2850   30.7250   32.6960 N   0  0  0  0  0  0  0  0  0  0  0  0
   34.8750   30.1150   31.4880 C   0  0  0  0  0  0  0  0  0  0  0  0
   36.3420   30.0000   31.8500 C   0  0  0  0  0  0  0  0  0  0  0  0
   36.3310   30.0530   34.3580 H   0  0  0  0  0  0  0  0  0  0  0  0
   35.7120   28.3190   34.6410 H   0  0  0  0  0  0  0  0  0  0  0  0
   33.6180   28.9770   33.3560 H   0  0  0  0  0  0  0  0  0  0  0  0
   34.7950   31.5810   32.9930 H   0  0  0  0  0  0  0  0  0  0  0  0
   34.6650   30.7030   30.6000 H   0  0  0  0  0  0  0  0  0  0  0  0
   34.4300   29.0830   31.4510 H   0  0  0  0  0  0  0  0  0  0  0  0
   36.6350   30.9700   32.3210 H   0  0  0  0  0  0  0  0  0  0  0  0
   36.9830   29.9100   30.9440 H   0  0  0  0  0  0  0  0  0  0  0  0
   35.9030   31.9920   34.8380 Cl  0  0  0  0  0  0  0  0  0  0  0  0
   34.4440   31.3510   35.5910 C   0  0  0  0  0  0  0  0  0  0  0  0
   33.8420   30.2680   35.0040 C   0  0  0  0  0  0  0  0  0  0  0  0
   32.6800   29.6580   35.4890 C   0  0  0  0  0  0  0  0  0  0  0  0
   32.1430   30.2280   36.6520 C   0  0  0  0  0  0  0  0  0  0  0  0
   32.7470   31.3270   37.2590 C   0  0  0  0  0  0  0  0  0  0  0  0
   33.9020   31.8820   36.7170 C   0  0  0  0  0  0  0  0  0  0  0  0
   32.0350   28.8500   35.2320 H   0  0  0  0  0  0  0  0  0  0  0  0
   31.2480   29.9000   37.1840 H   0  0  0  0  0  0  0  0  0  0  0  0
   32.3290   31.7800   38.1740 H   0  0  0  0  0  0  0  0  0  0  0  0
   34.4870   33.0390   37.4390 C   0  0  0  0  0  3  0  0  0  0  0  0
   34.5830   34.3790   36.7660 C   0  0  0  0  0  2  0  0  0  0  0  0
   33.5560   34.2100   37.8140 C   0  0  0  0  0  2  0  0  0  0  0  0
   37.1300   27.6810   32.5270 C   0  0  0  0  0  0  0  0  0  0  0  0
   38.0420   27.5190   31.4860 C   0  0  0  0  0  0  0  0  0  0  0  0
   38.6880   26.2980   31.3520 C   0  0  0  0  0  0  0  0  0  0  0  0
   38.3950   25.2980   32.2620 N   0  0  0  0  0  0  0  0  0  0  0  0
   37.4980   25.5060   33.2590 C   0  0  0  0  0  0  0  0  0  0  0  0
   36.8750   26.6670   33.3970 N   0  0  0  0  0  0  0  0  0  0  0  0
   38.2150   28.3460   30.8200 H   0  0  0  0  0  0  0  0  0  0  0  0
   39.3910   26.1710   30.5500 H   0  0  0  0  0  0  0  0  0  0  0  0
   37.2930   24.7030   33.9520 H   0  0  0  0  0  0  0  0  0  0  0  0
  1  2  1  0  0  0  0
  2  7  1  0  0  0  0
  2  8  1  0  0  0  0
  3  9  1  6  0  0  0
  3  2  1  0  0  0  0
  3 17  1  0  0  0  0
  4 10  1  0  0  0  0
  4  3  1  0  0  0  0
  5  6  1  0  0  0  0
  5  4  1  0  0  0  0
  6 13  1  0  0  0  0
  6  1  1  0  0  0  0
 11  5  1  0  0  0  0
 12  5  1  0  0  0  0
 14  6  1  0  0  0  0
 15 16  1  0  0  0  0
 16 21  1  0  0  0  0
 17 18  1  0  0  0  0
 17 16  2  0  0  0  0
 18 19  2  0  0  0  0
 19 23  1  0  0  0  0
 19 20  1  0  0  0  0
 20 24  1  0  0  0  0
 21 20  2  0  0  0  0
 21 25  1  0  0  0  0
 22 18  1  0  0  0  0
 25 27  1  0  0  0  0
 26 25  1  0  0  0  0
 26 27  1  0  0  0  0
 28  1  1  0  0  0  0
 28 33  1  0  0  0  0
 29 28  2  0  0  0  0
 30 29  1  0  0  0  0
 30 31  2  0  0  0  0
 31 32  1  0  0  0  0
 32 33  2  0  0  0  0
 32 36  1  0  0  0  0
 34 29  1  0  0  0  0
 35 30  1  0  0  0  0
M  END
>  <minimizedAffinity>
-5.21548605

$$$$

 OpenBabel03272508413D

 36 39  0  0  1  0  0  0  0  0999 V2000
   37.3760   25.5380   32.4780 N   0  0  0  0  0  0  0  0  0  0  0  0
   37.3910   26.9640   32.1610 C   0  0  0  0  0  0  0  0  0  0  0  0
   36.1980   27.4440   31.4690 C   0  0  2  0  0  0  0  0  0  0  0  0
   35.7540   26.5190   30.3870 N   0  0  0  0  0  0  0  0  0  0  0  0
   35.5850   25.1920   31.0100 C   0  0  0  0  0  0  0  0  0  0  0  0
   37.0090   24.7850   31.3290 C   0  0  0  0  0  0  0  0  0  0  0  0
   38.2400   26.9690   31.3940 H   0  0  0  0  0  0  0  0  0  0  0  0
   37.6120   27.5600   33.0460 H   0  0  0  0  0  0  0  0  0  0  0  0
   35.2680   27.4620   32.0630 H   0  0  0  0  0  0  0  0  0  0  0  0
   36.4550   26.5060   29.6180 H   0  0  0  0  0  0  0  0  0  0  0  0
   35.0470   24.5090   30.3580 H   0  0  0  0  0  0  0  0  0  0  0  0
   35.0440   25.4020   31.9720 H   0  0  0  0  0  0  0  0  0  0  0  0
   37.6240   25.0270   30.4280 H   0  0  0  0  0  0  0  0  0  0  0  0
   37.1030   23.6830   31.4580 H   0  0  0  0  0  0  0  0  0  0  0  0
   35.2330   29.7520   33.0780 Cl  0  0  0  0  0  0  0  0  0  0  0  0
   36.0810   29.9050   31.5400 C   0  0  0  0  0  0  0  0  0  0  0  0
   36.4460   28.7540   30.8910 C   0  0  0  0  0  0  0  0  0  0  0  0
   37.1250   28.7250   29.6680 C   0  0  0  0  0  0  0  0  0  0  0  0
   37.4200   29.9800   29.1160 C   0  0  0  0  0  0  0  0  0  0  0  0
   37.0520   31.1560   29.7630 C   0  0  0  0  0  0  0  0  0  0  0  0
   36.3790   31.1060   30.9810 C   0  0  0  0  0  0  0  0  0  0  0  0
   37.5140   28.0050   28.9880 H   0  0  0  0  0  0  0  0  0  0  0  0
   37.9390   30.1690   28.1730 H   0  0  0  0  0  0  0  0  0  0  0  0
   37.2810   32.1450   29.3340 H   0  0  0  0  0  0  0  0  0  0  0  0
   36.0100   32.4070   31.5920 C   0  0  0  0  0  3  0  0  0  0  0  0
   36.4830   32.7540   32.9760 C   0  0  0  0  0  2  0  0  0  0  0  0
   37.1290   33.4400   31.8380 C   0  0  0  0  0  2  0  0  0  0  0  0
   37.7060   25.0370   33.7590 C   0  0  0  0  0  0  0  0  0  0  0  0
   38.0580   23.7050   33.9710 C   0  0  0  0  0  0  0  0  0  0  0  0
   38.3750   23.2970   35.2590 C   0  0  0  0  0  0  0  0  0  0  0  0
   38.3260   24.2350   36.2740 N   0  0  0  0  0  0  0  0  0  0  0  0
   37.9770   25.5200   36.0170 C   0  0  0  0  0  0  0  0  0  0  0  0
   37.6730   25.9220   34.7920 N   0  0  0  0  0  0  0  0  0  0  0  0
   38.0710   23.0370   33.1270 H   0  0  0  0  0  0  0  0  0  0  0  0
   38.6460   22.2710   35.4230 H   0  0  0  0  0  0  0  0  0  0  0  0
   37.9500   26.2270   36.8340 H   0  0  0  0  0  0  0  0  0  0  0  0
  1 28  1  0  0  0  0
  2  1  1  0  0  0  0
  2  8  1  0  0  0  0
  3  9  1  1  0  0  0
  3  2  1  0  0  0  0
  4  5  1  0  0  0  0
  4  3  1  0  0  0  0
  5  6  1  0  0  0  0
  5 12  1  0  0  0  0
  6 14  1  0  0  0  0
  6  1  1  0  0  0  0
  7  2  1  0  0  0  0
 10  4  1  0  0  0  0
 11  5  1  0  0  0  0
 13  6  1  0  0  0  0
 16 15  1  0  0  0  0
 17  3  1  0  0  0  0
 17 16  2  0  0  0  0
 18 17  1  0  0  0  0
 19 18  2  0  0  0  0
 19 20  1  0  0  0  0
 20 21  2  0  0  0  0
 21 16  1  0  0  0  0
 21 25  1  0  0  0  0
 22 18  1  0  0  0  0
 23 19  1  0  0  0  0
 24 20  1  0  0  0  0
 25 27  1  0  0  0  0
 25 26  1  0  0  0  0
 27 26  1  0  0  0  0
 28 29  2  0  0  0  0
 28 33  1  0  0  0  0
 29 30  1  0  0  0  0
 30 35  1  0  0  0  0
 30 31  2  0  0  0  0
 32 31  1  0  0  0  0
 32 36  1  0  0  0  0
 33 32  2  0  0  0  0
 34 29  1  0  0  0  0
M  END
>  <minimizedAffinity>
-5.21070099

$$$$

 OpenBabel03272508413D

 36 39  0  0  1  0  0  0  0  0999 V2000
   36.7130   28.1220   32.0080 N   0  0  0  0  0  0  0  0  0  0  0  0
   36.8400   27.1420   33.0830 C   0  0  0  0  0  0  0  0  0  0  0  0
   38.2000   26.6520   33.3000 C   0  0  2  0  0  0  0  0  0  0  0  0
   38.9070   26.3460   32.0230 N   0  0  0  0  0  0  0  0  0  0  0  0
   38.8420   27.5710   31.2010 C   0  0  0  0  0  0  0  0  0  0  0  0
   37.3730   27.6540   30.8370 C   0  0  0  0  0  0  0  0  0  0  0  0
   36.2530   26.2800   32.6120 H   0  0  0  0  0  0  0  0  0  0  0  0
   36.3930   27.5100   34.0050 H   0  0  0  0  0  0  0  0  0  0  0  0
   38.9160   27.3820   33.7150 H   0  0  0  0  0  0  0  0  0  0  0  0
   38.4610   25.5330   31.5530 H   0  0  0  0  0  0  0  0  0  0  0  0
   39.5220   27.5220   30.3560 H   0  0  0  0  0  0  0  0  0  0  0  0
   39.0850   28.4010   31.9170 H   0  0  0  0  0  0  0  0  0  0  0  0
   37.0560   26.6270   30.5340 H   0  0  0  0  0  0  0  0  0  0  0  0
   37.2070   28.2890   29.9370 H   0  0  0  0  0  0  0  0  0  0  0  0
   38.3460   27.1110   36.2350 Cl  0  0  0  0  0  0  0  0  0  0  0  0
   38.2080   25.5190   35.4890 C   0  0  0  0  0  0  0  0  0  0  0  0
   38.1770   25.4530   34.1200 C   0  0  0  0  0  0  0  0  0  0  0  0
   38.0670   24.2610   33.3950 C   0  0  0  0  0  0  0  0  0  0  0  0
   37.9920   23.0940   34.1670 C   0  0  0  0  0  0  0  0  0  0  0  0
   38.0250   23.1470   35.5580 C   0  0  0  0  0  0  0  0  0  0  0  0
   38.1340   24.3720   36.2110 C   0  0  0  0  0  0  0  0  0  0  0  0
   38.0150   23.9460   32.3790 H   0  0  0  0  0  0  0  0  0  0  0  0
   37.9050   22.0710   33.7930 H   0  0  0  0  0  0  0  0  0  0  0  0
   37.9670   22.2330   36.1710 H   0  0  0  0  0  0  0  0  0  0  0  0
   38.1800   24.3340   37.6940 C   0  0  0  0  0  3  0  0  0  0  0  0
   37.6930   23.1210   38.4340 C   0  0  0  0  0  2  0  0  0  0  0  0
   39.1520   23.3440   38.3680 C   0  0  0  0  0  2  0  0  0  0  0  0
   36.0070   29.3380   32.1620 C   0  0  0  0  0  0  0  0  0  0  0  0
   35.6770   29.8540   33.4140 C   0  0  0  0  0  0  0  0  0  0  0  0
   34.9900   31.0590   33.4770 C   0  0  0  0  0  0  0  0  0  0  0  0
   34.6660   31.6910   32.2900 N   0  0  0  0  0  0  0  0  0  0  0  0
   35.0110   31.1480   31.0960 C   0  0  0  0  0  0  0  0  0  0  0  0
   35.6670   29.9990   31.0230 N   0  0  0  0  0  0  0  0  0  0  0  0
   35.9650   29.3000   34.2900 H   0  0  0  0  0  0  0  0  0  0  0  0
   34.7340   31.4570   34.4410 H   0  0  0  0  0  0  0  0  0  0  0  0
   34.7420   31.6690   30.1880 H   0  0  0  0  0  0  0  0  0  0  0  0
  1 28  1  0  0  0  0
  1  2  1  0  0  0  0
  2  3  1  0  0  0  0
  2  8  1  0  0  0  0
  3  9  1  1  0  0  0
  3 17  1  0  0  0  0
  4  3  1  0  0  0  0
  5 12  1  0  0  0  0
  5  4  1  0  0  0  0
  6  5  1  0  0  0  0
  6  1  1  0  0  0  0
  7  2  1  0  0  0  0
 10  4  1  0  0  0  0
 11  5  1  0  0  0  0
 13  6  1  0  0  0  0
 14  6  1  0  0  0  0
 16 21  1  0  0  0  0
 16 15  1  0  0  0  0
 17 16  2  0  0  0  0
 18 17  1  0  0  0  0
 18 19  2  0  0  0  0
 19 20  1  0  0  0  0
 20 24  1  0  0  0  0
 20 21  2  0  0  0  0
 21 25  1  0  0  0  0
 22 18  1  0  0  0  0
 23 19  1  0  0  0  0
 25 27  1  0  0  0  0
 25 26  1  0  0  0  0
 27 26  1  0  0  0  0
 28 29  1  0  0  0  0
 29 30  2  0  0  0  0
 29 34  1  0  0  0  0
 30 35  1  0  0  0  0
 31 30  1  0  0  0  0
 32 31  2  0  0  0  0
 33 32  1  0  0  0  0
 33 28  2  0  0  0  0
 36 32  1  0  0  0  0
M  END
>  <minimizedAffinity>
-5.20704269

$$$$

 OpenBabel03272508413D

 36 39  0  0  1  0  0  0  0  0999 V2000
   36.6290   27.5570   32.3440 N   0  0  0  0  0  0  0  0  0  0  0  0
   35.9780   28.2480   33.4540 C   0  0  0  0  0  0  0  0  0  0  0  0
   35.2180   29.4340   33.0670 C   0  0  2  0  0  0  0  0  0  0  0  0
   35.9440   30.2820   32.0790 N   0  0  0  0  0  0  0  0  0  0  0  0
   36.2910   29.4040   30.9440 C   0  0  0  0  0  0  0  0  0  0  0  0
   37.3420   28.4860   31.5370 C   0  0  0  0  0  0  0  0  0  0  0  0
   36.9100   28.6220   34.0040 H   0  0  0  0  0  0  0  0  0  0  0  0
   35.3790   27.5600   34.0480 H   0  0  0  0  0  0  0  0  0  0  0  0
   34.2990   29.2500   32.4840 H   0  0  0  0  0  0  0  0  0  0  0  0
   36.7860   30.7050   32.5210 H   0  0  0  0  0  0  0  0  0  0  0  0
   36.6160   29.9760   30.0800 H   0  0  0  0  0  0  0  0  0  0  0  0
   35.3570   28.8100   30.7550 H   0  0  0  0  0  0  0  0  0  0  0  0
   38.0410   29.1320   32.1220 H   0  0  0  0  0  0  0  0  0  0  0  0
   37.9700   28.0160   30.7470 H   0  0  0  0  0  0  0  0  0  0  0  0
   32.3370   29.5960   33.7900 Cl  0  0  0  0  0  0  0  0  0  0  0  0
   33.6290   30.3750   34.7010 C   0  0  0  0  0  0  0  0  0  0  0  0
   34.9130   30.2390   34.2380 C   0  0  0  0  0  0  0  0  0  0  0  0
   36.0340   30.7990   34.8610 C   0  0  0  0  0  0  0  0  0  0  0  0
   35.7690   31.5380   36.0220 C   0  0  0  0  0  0  0  0  0  0  0  0
   34.4700   31.6860   36.5000 C   0  0  0  0  0  0  0  0  0  0  0  0
   33.4030   31.0970   35.8280 C   0  0  0  0  0  0  0  0  0  0  0  0
   37.0890   30.8360   34.7210 H   0  0  0  0  0  0  0  0  0  0  0  0
   36.5030   32.0510   36.6470 H   0  0  0  0  0  0  0  0  0  0  0  0
   34.2560   32.2660   37.4130 H   0  0  0  0  0  0  0  0  0  0  0  0
   32.0510   31.3220   36.3980 C   0  0  0  0  0  3  0  0  0  0  0  0
   31.6660   32.6780   36.9170 C   0  0  0  0  0  2  0  0  0  0  0  0
   31.0810   32.2440   35.6320 C   0  0  0  0  0  2  0  0  0  0  0  0
   36.5410   26.1570   32.1590 C   0  0  0  0  0  0  0  0  0  0  0  0
   35.6020   25.5750   31.3100 C   0  0  0  0  0  0  0  0  0  0  0  0
   35.5880   24.1930   31.1800 C   0  0  0  0  0  0  0  0  0  0  0  0
   36.5110   23.4580   31.9010 N   0  0  0  0  0  0  0  0  0  0  0  0
   37.4060   24.0720   32.7150 C   0  0  0  0  0  0  0  0  0  0  0  0
   37.4290   25.3900   32.8480 N   0  0  0  0  0  0  0  0  0  0  0  0
   34.9170   26.2170   30.7840 H   0  0  0  0  0  0  0  0  0  0  0  0
   34.8650   23.7430   30.5260 H   0  0  0  0  0  0  0  0  0  0  0  0
   38.1130   23.4670   33.2640 H   0  0  0  0  0  0  0  0  0  0  0  0
  1  2  1  0  0  0  0
  2  7  1  0  0  0  0
  2  8  1  0  0  0  0
  3  9  1  6  0  0  0
  3  2  1  0  0  0  0
  3 17  1  0  0  0  0
  4 10  1  0  0  0  0
  4  3  1  0  0  0  0
  5  6  1  0  0  0  0
  5  4  1  0  0  0  0
  6 13  1  0  0  0  0
  6  1  1  0  0  0  0
 11  5  1  0  0  0  0
 12  5  1  0  0  0  0
 14  6  1  0  0  0  0
 15 16  1  0  0  0  0
 16 21  1  0  0  0  0
 17 16  2  0  0  0  0
 17 18  1  0  0  0  0
 18 19  2  0  0  0  0
 19 20  1  0  0  0  0
 19 23  1  0  0  0  0
 20 24  1  0  0  0  0
 21 25  1  0  0  0  0
 21 20  2  0  0  0  0
 22 18  1  0  0  0  0
 25 26  1  0  0  0  0
 27 25  1  0  0  0  0
 27 26  1  0  0  0  0
 28  1  1  0  0  0  0
 28 33  1  0  0  0  0
 29 28  2  0  0  0  0
 30 29  1  0  0  0  0
 30 31  2  0  0  0  0
 31 32  1  0  0  0  0
 32 33  2  0  0  0  0
 32 36  1  0  0  0  0
 34 29  1  0  0  0  0
 35 30  1  0  0  0  0
M  END
>  <minimizedAffinity>
-5.17320824

$$$$

 OpenBabel03272508413D

 36 39  0  0  1  0  0  0  0  0999 V2000
   37.4180   24.8630   32.4880 N   0  0  0  0  0  0  0  0  0  0  0  0
   37.4070   26.3140   32.3180 C   0  0  0  0  0  0  0  0  0  0  0  0
   36.1710   26.8480   31.7520 C   0  0  2  0  0  0  0  0  0  0  0  0
   35.6670   26.0330   30.6090 N   0  0  0  0  0  0  0  0  0  0  0  0
   35.5420   24.6480   31.1020 C   0  0  0  0  0  0  0  0  0  0  0  0
   36.9850   24.2260   31.2920 C   0  0  0  0  0  0  0  0  0  0  0  0
   38.2070   26.4070   31.5060 H   0  0  0  0  0  0  0  0  0  0  0  0
   37.6780   26.8200   33.2440 H   0  0  0  0  0  0  0  0  0  0  0  0
   35.2790   26.7950   32.3990 H   0  0  0  0  0  0  0  0  0  0  0  0
   36.3190   26.1070   29.8030 H   0  0  0  0  0  0  0  0  0  0  0  0
   34.9690   24.0290   30.4180 H   0  0  0  0  0  0  0  0  0  0  0  0
   35.0600   24.7530   32.1120 H   0  0  0  0  0  0  0  0  0  0  0  0
   37.5430   24.5660   30.3860 H   0  0  0  0  0  0  0  0  0  0  0  0
   37.0920   23.1180   31.3020 H   0  0  0  0  0  0  0  0  0  0  0  0
   35.4170   28.9690   33.6970 Cl  0  0  0  0  0  0  0  0  0  0  0  0
   36.1000   29.2870   32.1030 C   0  0  0  0  0  0  0  0  0  0  0  0
   36.3770   28.2130   31.2970 C   0  0  0  0  0  0  0  0  0  0  0  0
   36.9220   28.3170   30.0120 C   0  0  0  0  0  0  0  0  0  0  0  0
   37.1760   29.6230   29.5720 C   0  0  0  0  0  0  0  0  0  0  0  0
   36.8970   30.7220   30.3800 C   0  0  0  0  0  0  0  0  0  0  0  0
   36.3560   30.5410   31.6490 C   0  0  0  0  0  0  0  0  0  0  0  0
   37.2260   27.6740   29.2200 H   0  0  0  0  0  0  0  0  0  0  0  0
   37.5960   29.9130   28.6060 H   0  0  0  0  0  0  0  0  0  0  0  0
   37.0950   31.7520   30.0390 H   0  0  0  0  0  0  0  0  0  0  0  0
   36.0730   31.7690   32.4340 C   0  0  0  0  0  3  0  0  0  0  0  0
   35.7590   33.0590   31.7310 C   0  0  0  0  0  2  0  0  0  0  0  0
   34.6450   32.3490   32.3910 C   0  0  0  0  0  2  0  0  0  0  0  0
   37.8270   24.2370   33.6890 C   0  0  0  0  0  0  0  0  0  0  0  0
   38.1910   24.9640   34.8210 C   0  0  0  0  0  0  0  0  0  0  0  0
   38.5730   24.2710   35.9620 C   0  0  0  0  0  0  0  0  0  0  0  0
   38.5730   22.8890   35.9200 N   0  0  0  0  0  0  0  0  0  0  0  0
   38.2100   22.2270   34.7920 C   0  0  0  0  0  0  0  0  0  0  0  0
   37.8430   22.8770   33.6970 N   0  0  0  0  0  0  0  0  0  0  0  0
   38.1650   26.0380   34.7730 H   0  0  0  0  0  0  0  0  0  0  0  0
   38.8540   24.8300   36.8350 H   0  0  0  0  0  0  0  0  0  0  0  0
   38.2210   21.1470   34.7940 H   0  0  0  0  0  0  0  0  0  0  0  0
  1 28  1  0  0  0  0
  2  1  1  0  0  0  0
  2  8  1  0  0  0  0
  3  2  1  0  0  0  0
  3  9  1  1  0  0  0
  4  5  1  0  0  0  0
  4  3  1  0  0  0  0
  5  6  1  0  0  0  0
  5 12  1  0  0  0  0
  6 14  1  0  0  0  0
  6  1  1  0  0  0  0
  7  2  1  0  0  0  0
 10  4  1  0  0  0  0
 11  5  1  0  0  0  0
 13  6  1  0  0  0  0
 16 15  1  0  0  0  0
 17  3  1  0  0  0  0
 17 16  2  0  0  0  0
 18 17  1  0  0  0  0
 19 18  2  0  0  0  0
 19 20  1  0  0  0  0
 20 21  2  0  0  0  0
 21 16  1  0  0  0  0
 21 25  1  0  0  0  0
 22 18  1  0  0  0  0
 23 19  1  0  0  0  0
 24 20  1  0  0  0  0
 26 27  1  0  0  0  0
 26 25  1  0  0  0  0
 27 25  1  0  0  0  0
 28 33  2  0  0  0  0
 28 29  1  0  0  0  0
 29 30  2  0  0  0  0
 30 35  1  0  0  0  0
 31 30  1  0  0  0  0
 32 36  1  0  0  0  0
 32 31  2  0  0  0  0
 33 32  1  0  0  0  0
 34 29  1  0  0  0  0
M  END
>  <minimizedAffinity>
-5.07752752

$$$$
