
 OpenBabel03272504163D

 18 19  0  0  0  0  0  0  0  0999 V2000
   36.5120   30.3490   48.1640 C   0  0  0  0  0  0  0  0  0  0  0  0
   36.9990   31.1100   49.2260 C   0  0  0  0  0  0  0  0  0  0  0  0
   37.8990   32.1430   48.9450 C   0  0  0  0  0  0  0  0  0  0  0  0
   38.2430   32.3410   47.6450 N   0  0  0  0  0  0  0  0  0  0  0  0
   37.7570   31.5880   46.6290 C   0  0  0  0  0  0  0  0  0  0  0  0
   36.8870   30.5890   46.9010 N   0  0  0  0  0  0  0  0  0  0  0  0
   38.2680   32.7220   49.7580 H   0  0  0  0  0  0  0  0  0  0  0  0
   38.0520   31.7730   45.6080 H   0  0  0  0  0  0  0  0  0  0  0  0
   36.5270   30.7740   50.6010 C   0  0  0  0  0  0  0  0  0  0  0  0
   37.5580   30.2070   51.5750 C   0  0  0  0  0  0  0  0  0  0  0  0
   36.4750   29.3130   51.0010 C   0  0  0  0  0  0  0  0  0  0  0  0
   35.6140   29.2960   48.3080 O   0  0  0  0  0  0  0  0  0  0  0  0
   33.9990   28.4450   46.3240 O   0  0  0  0  0  0  0  0  0  0  0  0
   34.0660   29.3130   47.5600 P   0  0  0  0  0  0  0  0  0  0  0  0
   32.9770   28.7210   48.7370 O   0  0  0  0  0  0  0  0  0  0  0  0
   33.1010   27.7220   48.7440 H   0  0  0  0  0  0  0  0  0  0  0  0
   33.6650   30.8840   47.0940 O   0  0  0  0  0  0  0  0  0  0  0  0
   32.7550   30.8580   46.7030 H   0  0  0  0  0  0  0  0  0  0  0  0
  1 12  1  0  0  0  0
  1  2  1  0  0  0  0
  2  9  1  0  0  0  0
  3  2  2  0  0  0  0
  3  7  1  0  0  0  0
  4  3  1  0  0  0  0
  5  6  1  0  0  0  0
  5  4  2  0  0  0  0
  6  1  2  0  0  0  0
  8  5  1  0  0  0  0
  9 11  1  0  0  0  0
  9 10  1  0  0  0  0
 11 10  1  0  0  0  0
 13 14  2  0  0  0  0
 14 12  1  0  0  0  0
 14 15  1  0  0  0  0
 15 16  1  0  0  0  0
 17 14  1  0  0  0  0
 18 17  1  0  0  0  0
M  END
>  <minimizedAffinity>
-4.78464413

>  <minimizedRMSD>
2.6149776

$$$$
