
 OpenBabel03272508543D

 32 35  0  0  1  0  0  0  0  0999 V2000
   38.4390   31.1180   48.1940 C   0  0  2  0  0  0  0  0  0  0  0  0
   38.7020   32.5640   48.1170 C   0  0  0  0  0  0  0  0  0  0  0  0
   38.0530   31.7590   46.9610 C   0  0  1  0  0  0  0  0  0  0  0  0
   39.3490   30.4880   48.2540 H   0  0  0  0  0  0  0  0  0  0  0  0
   38.0350   33.2260   48.7110 H   0  0  0  0  0  0  0  0  0  0  0  0
   39.7260   32.9130   47.9820 H   0  0  0  0  0  0  0  0  0  0  0  0
   36.9950   32.0610   46.7730 H   0  0  0  0  0  0  0  0  0  0  0  0
   35.1030   30.2130   49.5380 C   0  0  0  0  0  0  0  0  0  0  0  0
   35.4400   29.5370   50.7490 C   0  0  0  0  0  0  0  0  0  0  0  0
   36.8420   29.4160   51.0800 C   0  0  0  0  0  0  0  0  0  0  0  0
   37.7670   29.9430   50.2350 N   0  0  0  0  0  0  0  0  0  0  0  0
   37.3670   30.5750   49.0960 C   0  0  0  0  0  0  0  0  0  0  0  0
   36.0480   30.7260   48.7200 N   0  0  0  0  0  0  0  0  0  0  0  0
   34.0460   30.2780   49.3330 H   0  0  0  0  0  0  0  0  0  0  0  0
   34.7080   29.1290   51.4020 H   0  0  0  0  0  0  0  0  0  0  0  0
   37.1480   28.9230   51.9690 H   0  0  0  0  0  0  0  0  0  0  0  0
   38.3470   31.9030   44.5110 C   0  0  0  0  0  0  0  0  0  0  0  0
   37.2330   32.4640   44.4150 O   0  0  0  0  0  0  0  0  0  0  0  0
   38.9270   31.6210   45.8080 N   0  0  0  0  0  0  0  0  0  0  0  0
   39.9020   31.3350   45.9540 H   0  0  0  0  0  0  0  0  0  0  0  0
   39.1350   31.4950   43.3140 C   0  0  0  0  0  0  0  0  0  0  0  0
   40.1090   30.5440   43.4550 C   0  0  0  0  0  0  0  0  0  0  0  0
   40.8180   30.2050   42.3120 C   0  0  0  0  0  0  0  0  0  0  0  0
   40.5040   30.8320   41.1290 C   0  0  0  0  0  0  0  0  0  0  0  0
   39.5150   31.7930   40.9950 C   0  0  0  0  0  0  0  0  0  0  0  0
   38.8620   32.0820   42.1280 N   0  0  0  0  0  0  0  0  0  0  0  0
   40.3510   30.0550   44.3890 H   0  0  0  0  0  0  0  0  0  0  0  0
   41.6020   29.4590   42.3570 H   0  0  0  0  0  0  0  0  0  0  0  0
   41.0900   30.5320   40.2510 H   0  0  0  0  0  0  0  0  0  0  0  0
   39.2130   32.4390   39.7000 C   0  0  0  0  0  0  0  0  0  0  0  0
   38.3090   33.6130   39.6480 C   0  0  0  0  0  0  0  0  0  0  0  0
   37.8170   32.2970   39.1410 C   0  0  0  0  0  0  0  0  0  0  0  0
  1  4  1  6  0  0  0
  1 12  1  0  0  0  0
  2  1  1  0  0  0  0
  2  5  1  0  0  0  0
  3  7  1  6  0  0  0
  3  2  1  0  0  0  0
  3  1  1  0  0  0  0
  6  2  1  0  0  0  0
  8  9  1  0  0  0  0
  9 10  2  0  0  0  0
  9 15  1  0  0  0  0
 10 16  1  0  0  0  0
 11 10  1  0  0  0  0
 12 11  2  0  0  0  0
 13 12  1  0  0  0  0
 13  8  2  0  0  0  0
 14  8  1  0  0  0  0
 17 19  1  0  0  0  0
 18 17  2  0  0  0  0
 19 20  1  0  0  0  0
 19  3  1  0  0  0  0
 21 22  1  0  0  0  0
 21 17  1  0  0  0  0
 22 27  1  0  0  0  0
 23 28  1  0  0  0  0
 23 22  2  0  0  0  0
 24 23  1  0  0  0  0
 25 24  2  0  0  0  0
 25 26  1  0  0  0  0
 26 21  2  0  0  0  0
 29 24  1  0  0  0  0
 30 25  1  0  0  0  0
 31 30  1  0  0  0  0
 32 31  1  0  0  0  0
 32 30  1  0  0  0  0
M  END
>  <minimizedAffinity>
-5.02417946

>  <minimizedRMSD>
0.131870732

$$$$
