
 OpenBabel03272506303D

 28 30  0  0  1  0  0  0  0  0999 V2000
   38.4430   32.2320   45.9840 C   0  0  1  0  0  0  0  0  0  0  0  0
   39.6050   33.0500   45.6360 C   0  0  0  0  0  0  0  0  0  0  0  0
   40.8190   32.3250   45.1270 C   0  0  0  0  0  0  0  0  0  0  0  0
   40.5680   31.1240   44.3070 C   0  0  0  0  0  0  0  0  0  0  0  0
   39.4420   30.2740   44.6930 C   0  0  0  0  0  0  0  0  0  0  0  0
   38.2120   31.0690   45.0630 C   0  0  2  0  0  0  0  0  0  0  0  0
   37.5110   32.8740   45.8540 H   0  0  0  0  0  0  0  0  0  0  0  0
   39.9980   33.7380   46.3960 H   0  0  0  0  0  0  0  0  0  0  0  0
   39.2950   33.7930   44.8270 H   0  0  0  0  0  0  0  0  0  0  0  0
   41.4760   32.0350   45.9850 H   0  0  0  0  0  0  0  0  0  0  0  0
   41.4210   33.0470   44.5360 H   0  0  0  0  0  0  0  0  0  0  0  0
   40.4900   31.4020   43.2330 H   0  0  0  0  0  0  0  0  0  0  0  0
   41.5080   30.4970   44.3370 H   0  0  0  0  0  0  0  0  0  0  0  0
   39.1400   29.5930   43.8800 H   0  0  0  0  0  0  0  0  0  0  0  0
   39.7650   29.5910   45.5330 H   0  0  0  0  0  0  0  0  0  0  0  0
   37.6230   30.3200   45.6220 H   0  0  0  0  0  0  0  0  0  0  0  0
   38.7330   32.7020   48.4810 C   0  0  0  0  0  0  0  0  0  0  0  0
   38.3490   31.8450   47.4140 C   0  0  0  0  0  0  0  0  0  0  0  0
   37.8790   30.5980   47.7690 C   0  0  0  0  0  0  0  0  0  0  0  0
   37.8020   30.2420   49.0770 N   0  0  0  0  0  0  0  0  0  0  0  0
   38.1820   31.1000   50.0610 C   0  0  0  0  0  0  0  0  0  0  0  0
   38.6490   32.3350   49.7510 N   0  0  0  0  0  0  0  0  0  0  0  0
   39.1070   33.6850   48.2780 H   0  0  0  0  0  0  0  0  0  0  0  0
   37.5170   29.7890   47.1720 H   0  0  0  0  0  0  0  0  0  0  0  0
   38.1320   30.8410   51.1130 H   0  0  0  0  0  0  0  0  0  0  0  0
   37.4680   31.3380   43.8080 C   0  0  0  0  0  0  0  0  0  0  0  0
   36.0400   31.0990   43.5620 C   0  0  0  0  0  0  0  0  0  0  0  0
   37.1340   30.3110   42.8110 C   0  0  0  0  0  0  0  0  0  0  0  0
  1  7  1  6  0  0  0
  1 18  1  0  0  0  0
  2  1  1  0  0  0  0
  2  8  1  0  0  0  0
  3  2  1  0  0  0  0
  3 10  1  0  0  0  0
  4 13  1  0  0  0  0
  4  5  1  0  0  0  0
  4  3  1  0  0  0  0
  5  6  1  0  0  0  0
  5 15  1  0  0  0  0
  6 16  1  1  0  0  0
  6  1  1  0  0  0  0
  9  2  1  0  0  0  0
 11  3  1  0  0  0  0
 12  4  1  0  0  0  0
 14  5  1  0  0  0  0
 17 22  1  0  0  0  0
 18 19  1  0  0  0  0
 18 17  2  0  0  0  0
 19 20  2  0  0  0  0
 20 21  1  0  0  0  0
 21 25  1  0  0  0  0
 22 21  2  0  0  0  0
 23 17  1  0  0  0  0
 24 19  1  0  0  0  0
 26  6  1  0  0  0  0
 27 26  1  0  0  0  0
 28 27  1  0  0  0  0
 28 26  1  0  0  0  0
M  END
>  <minimizedAffinity>
-4.89862585

>  <minimizedRMSD>
6.12744427

$$$$
