
 OpenBabel03262520173D

 12 13  0  0  0  0  0  0  0  0999 V2000
   37.3270   30.1720   51.4400 C   0  0  0  0  0  0  0  0  0  0  0  0
   38.0850   30.6930   50.3730 C   0  0  0  0  0  0  0  0  0  0  0  0
   37.6700   30.4000   49.0610 C   0  0  0  0  0  0  0  0  0  0  0  0
   36.5530   29.6270   48.9150 N   0  0  0  0  0  0  0  0  0  0  0  0
   35.8540   29.1480   49.9650 C   0  0  0  0  0  0  0  0  0  0  0  0
   36.2420   29.4210   51.2350 N   0  0  0  0  0  0  0  0  0  0  0  0
   37.6370   30.3910   52.4560 H   0  0  0  0  0  0  0  0  0  0  0  0
   38.9730   31.3080   50.5710 H   0  0  0  0  0  0  0  0  0  0  0  0
   34.9900   28.5490   49.6430 H   0  0  0  0  0  0  0  0  0  0  0  0
   38.4170   30.9120   47.9110 C   0  0  0  0  0  3  0  0  0  0  0  0
   37.7860   31.5160   46.7390 C   0  0  0  0  0  2  0  0  0  0  0  0
   38.3810   32.4430   47.7970 C   0  0  0  0  0  2  0  0  0  0  0  0
  1  7  1  0  0  0  0
  2  8  1  0  0  0  0
  2  1  2  0  0  0  0
  3  2  1  0  0  0  0
  4  3  2  0  0  0  0
  4  5  1  0  0  0  0
  5  6  2  0  0  0  0
  6  1  1  0  0  0  0
  9  5  1  0  0  0  0
 10  3  1  0  0  0  0
 11 12  1  0  0  0  0
 11 10  1  0  0  0  0
 12 10  1  0  0  0  0
M  END
>  <minimizedAffinity>
-3.90111947

>  <minimizedRMSD>
0.488503158

$$$$
