
 OpenBabel03272506073D

 24 26  0  0  0  0  0  0  0  0999 V2000
   37.0140   22.9960   31.1040 C   0  0  0  0  0  0  0  0  0  0  0  0
   37.9140   23.1970   31.7380 H   0  0  0  0  0  0  0  0  0  0  0  0
   37.3130   22.8150   30.0550 H   0  0  0  0  0  0  0  0  0  0  0  0
   35.5690   20.4950   33.4500 C   0  0  0  0  0  0  0  0  0  0  0  0
   35.3880   19.3730   32.6300 C   0  0  0  0  0  0  0  0  0  0  0  0
   35.7640   19.4930   31.2870 C   0  0  0  0  0  0  0  0  0  0  0  0
   36.2760   20.6700   30.8520 N   0  0  0  0  0  0  0  0  0  0  0  0
   36.4300   21.7220   31.6880 C   0  0  0  0  0  0  0  0  0  0  0  0
   36.0850   21.6530   32.9770 N   0  0  0  0  0  0  0  0  0  0  0  0
   35.2850   20.4280   34.4990 H   0  0  0  0  0  0  0  0  0  0  0  0
   34.9760   18.4610   33.0250 H   0  0  0  0  0  0  0  0  0  0  0  0
   35.6300   18.6390   30.6430 H   0  0  0  0  0  0  0  0  0  0  0  0
   35.9920   24.0810   31.1360 C   0  0  0  0  0  0  0  0  0  0  0  0
   35.0410   23.6650   31.5190 H   0  0  0  0  0  0  0  0  0  0  0  0
   35.8000   24.4580   30.1130 H   0  0  0  0  0  0  0  0  0  0  0  0
   36.4410   25.2250   32.0040 C   0  0  0  0  0  0  0  0  0  0  0  0
   36.0680   26.5690   31.6250 C   0  0  0  0  0  0  0  0  0  0  0  0
   36.8150   27.5180   32.9160 S   0  0  0  0  0  0  0  0  0  0  0  0
   37.5270   26.0180   33.7930 C   0  0  0  0  0  0  0  0  0  0  0  0
   37.1580   25.1210   33.0930 N   0  0  0  0  0  0  0  0  0  0  0  0
   35.4850   26.8460   30.7660 H   0  0  0  0  0  0  0  0  0  0  0  0
   38.3320   26.0890   35.0450 C   0  0  0  0  0  3  0  0  0  0  0  0
   38.5610   27.3930   35.7090 C   0  0  0  0  0  2  0  0  0  0  0  0
   39.6810   26.8250   34.9300 C   0  0  0  0  0  2  0  0  0  0  0  0
  1 13  1  0  0  0  0
  1  8  1  0  0  0  0
  1  2  1  0  0  0  0
  3  1  1  0  0  0  0
  4 10  1  0  0  0  0
  5 11  1  0  0  0  0
  5  4  2  0  0  0  0
  6  5  1  0  0  0  0
  7  6  2  0  0  0  0
  7  8  1  0  0  0  0
  8  9  2  0  0  0  0
  9  4  1  0  0  0  0
 12  6  1  0  0  0  0
 13 14  1  0  0  0  0
 13 16  1  0  0  0  0
 15 13  1  0  0  0  0
 16 20  1  0  0  0  0
 17 16  2  0  0  0  0
 17 18  1  0  0  0  0
 18 19  1  0  0  0  0
 19 22  1  0  0  0  0
 20 19  2  0  0  0  0
 21 17  1  0  0  0  0
 22 23  1  0  0  0  0
 24 22  1  0  0  0  0
 24 23  1  0  0  0  0
M  END
>  <minimizedAffinity>
-4.40743113

$$$$

 OpenBabel03272506073D

 24 26  0  0  0  0  0  0  0  0999 V2000
   38.6830   24.7810   34.6400 C   0  0  0  0  0  0  0  0  0  0  0  0
   37.6480   25.2040   34.5870 H   0  0  0  0  0  0  0  0  0  0  0  0
   39.4340   25.5810   34.5040 H   0  0  0  0  0  0  0  0  0  0  0  0
   39.7600   22.8590   37.6380 C   0  0  0  0  0  0  0  0  0  0  0  0
   38.8690   23.3050   38.6240 C   0  0  0  0  0  0  0  0  0  0  0  0
   37.9160   24.2560   38.2450 C   0  0  0  0  0  0  0  0  0  0  0  0
   37.9000   24.6940   36.9630 N   0  0  0  0  0  0  0  0  0  0  0  0
   38.7840   24.2290   36.0500 C   0  0  0  0  0  0  0  0  0  0  0  0
   39.7110   23.3210   36.3670 N   0  0  0  0  0  0  0  0  0  0  0  0
   40.5110   22.1190   37.9070 H   0  0  0  0  0  0  0  0  0  0  0  0
   38.9240   22.9250   39.6300 H   0  0  0  0  0  0  0  0  0  0  0  0
   37.2240   24.6100   38.9930 H   0  0  0  0  0  0  0  0  0  0  0  0
   38.9480   23.6960   33.6520 C   0  0  0  0  0  0  0  0  0  0  0  0
   39.3240   22.8060   34.1920 H   0  0  0  0  0  0  0  0  0  0  0  0
   39.7350   24.0090   32.9400 H   0  0  0  0  0  0  0  0  0  0  0  0
   37.7020   23.3450   32.8840 C   0  0  0  0  0  0  0  0  0  0  0  0
   37.2260   24.2680   31.8790 C   0  0  0  0  0  0  0  0  0  0  0  0
   35.7860   23.4310   31.2880 S   0  0  0  0  0  0  0  0  0  0  0  0
   35.9950   21.9670   32.4450 C   0  0  0  0  0  0  0  0  0  0  0  0
   36.9880   22.2610   33.0430 N   0  0  0  0  0  0  0  0  0  0  0  0
   37.6810   25.2040   31.6120 H   0  0  0  0  0  0  0  0  0  0  0  0
   35.0680   20.8010   32.4880 C   0  0  0  0  0  3  0  0  0  0  0  0
   35.5230   19.5090   33.0510 C   0  0  0  0  0  2  0  0  0  0  0  0
   35.4460   19.6150   31.5790 C   0  0  0  0  0  2  0  0  0  0  0  0
  1  8  1  0  0  0  0
  2  1  1  0  0  0  0
  3  1  1  0  0  0  0
  4 10  1  0  0  0  0
  4  5  1  0  0  0  0
  5 11  1  0  0  0  0
  6  5  2  0  0  0  0
  6 12  1  0  0  0  0
  7  6  1  0  0  0  0
  8  9  1  0  0  0  0
  8  7  2  0  0  0  0
  9  4  2  0  0  0  0
 13 14  1  0  0  0  0
 13  1  1  0  0  0  0
 15 13  1  0  0  0  0
 16 20  1  0  0  0  0
 16 13  1  0  0  0  0
 17 16  2  0  0  0  0
 18 17  1  0  0  0  0
 18 19  1  0  0  0  0
 19 22  1  0  0  0  0
 19 20  2  0  0  0  0
 21 17  1  0  0  0  0
 22 23  1  0  0  0  0
 24 22  1  0  0  0  0
 24 23  1  0  0  0  0
M  END
>  <minimizedAffinity>
-4.38432169

$$$$

 OpenBabel03272506073D

 24 26  0  0  0  0  0  0  0  0999 V2000
   37.8940   24.7680   36.3040 C   0  0  0  0  0  0  0  0  0  0  0  0
   37.3060   24.1960   35.5420 H   0  0  0  0  0  0  0  0  0  0  0  0
   37.3520   24.7970   37.2670 H   0  0  0  0  0  0  0  0  0  0  0  0
   40.4720   22.4090   37.5840 C   0  0  0  0  0  0  0  0  0  0  0  0
   41.5130   22.5610   36.6580 C   0  0  0  0  0  0  0  0  0  0  0  0
   41.3140   23.4680   35.6120 C   0  0  0  0  0  0  0  0  0  0  0  0
   40.1420   24.1460   35.5450 N   0  0  0  0  0  0  0  0  0  0  0  0
   39.1690   23.9610   36.4660 C   0  0  0  0  0  0  0  0  0  0  0  0
   39.3150   23.1050   37.4820 N   0  0  0  0  0  0  0  0  0  0  0  0
   40.6010   21.7100   38.4070 H   0  0  0  0  0  0  0  0  0  0  0  0
   42.4250   21.9980   36.7560 H   0  0  0  0  0  0  0  0  0  0  0  0
   42.1060   23.5960   34.8910 H   0  0  0  0  0  0  0  0  0  0  0  0
   38.2270   26.1630   35.8940 C   0  0  0  0  0  0  0  0  0  0  0  0
   39.3220   26.2400   35.7500 H   0  0  0  0  0  0  0  0  0  0  0  0
   37.9470   26.8750   36.6930 H   0  0  0  0  0  0  0  0  0  0  0  0
   37.5120   26.5420   34.6250 C   0  0  0  0  0  0  0  0  0  0  0  0
   36.9860   27.8810   34.5020 C   0  0  0  0  0  0  0  0  0  0  0  0
   36.2610   27.8270   32.8910 S   0  0  0  0  0  0  0  0  0  0  0  0
   36.7440   26.0390   32.5850 C   0  0  0  0  0  0  0  0  0  0  0  0
   37.3120   25.7560   33.5980 N   0  0  0  0  0  0  0  0  0  0  0  0
   37.0550   28.6600   35.2400 H   0  0  0  0  0  0  0  0  0  0  0  0
   36.4270   25.2930   31.3340 C   0  0  0  0  0  3  0  0  0  0  0  0
   35.0560   25.3250   30.7750 C   0  0  0  0  0  2  0  0  0  0  0  0
   35.4640   24.1000   31.4950 C   0  0  0  0  0  2  0  0  0  0  0  0
  1  8  1  0  0  0  0
  1  3  1  0  0  0  0
  2  1  1  0  0  0  0
  4 10  1  0  0  0  0
  5 11  1  0  0  0  0
  5  4  2  0  0  0  0
  6  5  1  0  0  0  0
  7  6  2  0  0  0  0
  7  8  1  0  0  0  0
  8  9  2  0  0  0  0
  9  4  1  0  0  0  0
 12  6  1  0  0  0  0
 13  1  1  0  0  0  0
 13 15  1  0  0  0  0
 14 13  1  0  0  0  0
 16 13  1  0  0  0  0
 17 16  2  0  0  0  0
 17 21  1  0  0  0  0
 18 17  1  0  0  0  0
 19 18  1  0  0  0  0
 19 20  2  0  0  0  0
 20 16  1  0  0  0  0
 22 24  1  0  0  0  0
 22 19  1  0  0  0  0
 23 22  1  0  0  0  0
 23 24  1  0  0  0  0
M  END
>  <minimizedAffinity>
-4.37790823

$$$$

 OpenBabel03272506073D

 24 26  0  0  0  0  0  0  0  0999 V2000
   37.5150   21.8330   34.7010 C   0  0  0  0  0  0  0  0  0  0  0  0
   37.5790   20.7200   34.8030 H   0  0  0  0  0  0  0  0  0  0  0  0
   36.4610   22.1510   34.6060 H   0  0  0  0  0  0  0  0  0  0  0  0
   37.8540   23.4060   38.0560 C   0  0  0  0  0  0  0  0  0  0  0  0
   39.2220   23.2610   38.3260 C   0  0  0  0  0  0  0  0  0  0  0  0
   40.0040   22.6270   37.3540 C   0  0  0  0  0  0  0  0  0  0  0  0
   39.4100   22.1900   36.2160 N   0  0  0  0  0  0  0  0  0  0  0  0
   38.0840   22.3560   36.0070 C   0  0  0  0  0  0  0  0  0  0  0  0
   37.2990   22.9550   36.9070 N   0  0  0  0  0  0  0  0  0  0  0  0
   37.2240   23.8960   38.7960 H   0  0  0  0  0  0  0  0  0  0  0  0
   39.6450   23.6260   39.2460 H   0  0  0  0  0  0  0  0  0  0  0  0
   41.0580   22.5070   37.5470 H   0  0  0  0  0  0  0  0  0  0  0  0
   38.2920   22.3840   33.5540 C   0  0  0  0  0  0  0  0  0  0  0  0
   38.2440   21.6660   32.7130 H   0  0  0  0  0  0  0  0  0  0  0  0
   39.3570   22.4970   33.8320 H   0  0  0  0  0  0  0  0  0  0  0  0
   37.7510   23.7210   33.1230 C   0  0  0  0  0  0  0  0  0  0  0  0
   36.8420   23.7690   32.0010 C   0  0  0  0  0  0  0  0  0  0  0  0
   36.5100   25.5020   31.8930 S   0  0  0  0  0  0  0  0  0  0  0  0
   37.6170   25.9430   33.3450 C   0  0  0  0  0  0  0  0  0  0  0  0
   38.0340   24.8720   33.6750 N   0  0  0  0  0  0  0  0  0  0  0  0
   36.4980   22.9280   31.4270 H   0  0  0  0  0  0  0  0  0  0  0  0
   37.8220   27.3320   33.8440 C   0  0  0  0  0  3  0  0  0  0  0  0
   37.9070   27.5950   35.2980 C   0  0  0  0  0  2  0  0  0  0  0  0
   36.6400   27.9430   34.6210 C   0  0  0  0  0  2  0  0  0  0  0  0
  1  2  1  0  0  0  0
  1  8  1  0  0  0  0
  3  1  1  0  0  0  0
  4  5  1  0  0  0  0
  4 10  1  0  0  0  0
  5 11  1  0  0  0  0
  6 12  1  0  0  0  0
  6  5  2  0  0  0  0
  7  6  1  0  0  0  0
  8  7  2  0  0  0  0
  8  9  1  0  0  0  0
  9  4  2  0  0  0  0
 13 15  1  0  0  0  0
 13  1  1  0  0  0  0
 14 13  1  0  0  0  0
 16 13  1  0  0  0  0
 16 20  1  0  0  0  0
 17 16  2  0  0  0  0
 18 17  1  0  0  0  0
 18 19  1  0  0  0  0
 19 20  2  0  0  0  0
 19 22  1  0  0  0  0
 21 17  1  0  0  0  0
 22 24  1  0  0  0  0
 22 23  1  0  0  0  0
 24 23  1  0  0  0  0
M  END
>  <minimizedAffinity>
-4.32073832

$$$$

 OpenBabel03272506073D

 24 26  0  0  0  0  0  0  0  0999 V2000
   39.2040   26.6380   35.0120 C   0  0  0  0  0  0  0  0  0  0  0  0
   40.1510   27.0610   35.4320 H   0  0  0  0  0  0  0  0  0  0  0  0
   39.3060   26.4690   33.9240 H   0  0  0  0  0  0  0  0  0  0  0  0
   39.7030   23.1170   36.1090 C   0  0  0  0  0  0  0  0  0  0  0  0
   38.6810   22.9420   37.0510 C   0  0  0  0  0  0  0  0  0  0  0  0
   37.8390   24.0320   37.2950 C   0  0  0  0  0  0  0  0  0  0  0  0
   38.0490   25.1870   36.6180 N   0  0  0  0  0  0  0  0  0  0  0  0
   39.0520   25.3020   35.7180 C   0  0  0  0  0  0  0  0  0  0  0  0
   39.8800   24.2880   35.4530 N   0  0  0  0  0  0  0  0  0  0  0  0
   40.3710   22.2840   35.9010 H   0  0  0  0  0  0  0  0  0  0  0  0
   38.5560   22.0020   37.5620 H   0  0  0  0  0  0  0  0  0  0  0  0
   37.0470   23.9130   38.0180 H   0  0  0  0  0  0  0  0  0  0  0  0
   37.9990   27.4800   35.2600 C   0  0  0  0  0  0  0  0  0  0  0  0
   38.3270   28.5060   35.5160 H   0  0  0  0  0  0  0  0  0  0  0  0
   37.4290   27.0900   36.1240 H   0  0  0  0  0  0  0  0  0  0  0  0
   37.1000   27.5130   34.0520 C   0  0  0  0  0  0  0  0  0  0  0  0
   36.2290   28.6510   33.8700 C   0  0  0  0  0  0  0  0  0  0  0  0
   35.4050   28.2240   32.3650 S   0  0  0  0  0  0  0  0  0  0  0  0
   36.3170   26.5940   32.1690 C   0  0  0  0  0  0  0  0  0  0  0  0
   37.0260   26.5870   33.1320 N   0  0  0  0  0  0  0  0  0  0  0  0
   36.1540   29.5020   34.5210 H   0  0  0  0  0  0  0  0  0  0  0  0
   36.1000   25.6500   31.0370 C   0  0  0  0  0  3  0  0  0  0  0  0
   34.7250   25.2840   30.6250 C   0  0  0  0  0  2  0  0  0  0  0  0
   35.4830   24.2890   31.4120 C   0  0  0  0  0  2  0  0  0  0  0  0
  1 13  1  0  0  0  0
  1  2  1  0  0  0  0
  1  8  1  0  0  0  0
  3  1  1  0  0  0  0
  4  5  1  0  0  0  0
  5  6  2  0  0  0  0
  5 11  1  0  0  0  0
  6 12  1  0  0  0  0
  7  6  1  0  0  0  0
  8  7  2  0  0  0  0
  9  8  1  0  0  0  0
  9  4  2  0  0  0  0
 10  4  1  0  0  0  0
 13 14  1  0  0  0  0
 13 15  1  0  0  0  0
 16 13  1  0  0  0  0
 17 16  2  0  0  0  0
 17 21  1  0  0  0  0
 18 17  1  0  0  0  0
 19 18  1  0  0  0  0
 19 20  2  0  0  0  0
 20 16  1  0  0  0  0
 22 24  1  0  0  0  0
 22 19  1  0  0  0  0
 23 22  1  0  0  0  0
 23 24  1  0  0  0  0
M  END
>  <minimizedAffinity>
-4.29606295

$$$$

 OpenBabel03272506073D

 24 26  0  0  0  0  0  0  0  0999 V2000
   38.1780   25.4140   34.9040 C   0  0  0  0  0  0  0  0  0  0  0  0
   39.0700   25.2650   34.2460 H   0  0  0  0  0  0  0  0  0  0  0  0
   37.2700   25.0090   34.4220 H   0  0  0  0  0  0  0  0  0  0  0  0
   38.1300   24.0240   38.3560 C   0  0  0  0  0  0  0  0  0  0  0  0
   39.1600   23.0740   38.3180 C   0  0  0  0  0  0  0  0  0  0  0  0
   39.8530   22.9270   37.1120 C   0  0  0  0  0  0  0  0  0  0  0  0
   39.5000   23.6970   36.0540 N   0  0  0  0  0  0  0  0  0  0  0  0
   38.4960   24.6000   36.1450 C   0  0  0  0  0  0  0  0  0  0  0  0
   37.8080   24.7740   37.2770 N   0  0  0  0  0  0  0  0  0  0  0  0
   37.5760   24.1580   39.2830 H   0  0  0  0  0  0  0  0  0  0  0  0
   39.4020   22.4870   39.1880 H   0  0  0  0  0  0  0  0  0  0  0  0
   40.6490   22.2000   37.0670 H   0  0  0  0  0  0  0  0  0  0  0  0
   37.9320   26.8360   35.2830 C   0  0  0  0  0  0  0  0  0  0  0  0
   38.9030   27.3640   35.3360 H   0  0  0  0  0  0  0  0  0  0  0  0
   37.4690   26.8910   36.2870 H   0  0  0  0  0  0  0  0  0  0  0  0
   37.0300   27.5150   34.2870 C   0  0  0  0  0  0  0  0  0  0  0  0
   36.9990   27.0170   32.9310 C   0  0  0  0  0  0  0  0  0  0  0  0
   35.8340   28.1150   32.1810 S   0  0  0  0  0  0  0  0  0  0  0  0
   35.5350   29.0920   33.7560 C   0  0  0  0  0  0  0  0  0  0  0  0
   36.2550   28.5390   34.5340 N   0  0  0  0  0  0  0  0  0  0  0  0
   37.5660   26.1890   32.5470 H   0  0  0  0  0  0  0  0  0  0  0  0
   34.6000   30.2480   33.8540 C   0  0  0  0  0  3  0  0  0  0  0  0
   33.9490   30.5720   35.1450 C   0  0  0  0  0  2  0  0  0  0  0  0
   33.1240   29.8920   34.1230 C   0  0  0  0  0  2  0  0  0  0  0  0
  1 13  1  0  0  0  0
  1  8  1  0  0  0  0
  2  1  1  0  0  0  0
  3  1  1  0  0  0  0
  4 10  1  0  0  0  0
  5  4  1  0  0  0  0
  5 11  1  0  0  0  0
  6  5  2  0  0  0  0
  7  8  2  0  0  0  0
  7  6  1  0  0  0  0
  8  9  1  0  0  0  0
  9  4  2  0  0  0  0
 12  6  1  0  0  0  0
 13 14  1  0  0  0  0
 13 15  1  0  0  0  0
 16 20  1  0  0  0  0
 16 13  1  0  0  0  0
 17 16  2  0  0  0  0
 18 17  1  0  0  0  0
 18 19  1  0  0  0  0
 19 22  1  0  0  0  0
 19 20  2  0  0  0  0
 21 17  1  0  0  0  0
 22 24  1  0  0  0  0
 22 23  1  0  0  0  0
 24 23  1  0  0  0  0
M  END
>  <minimizedAffinity>
-4.13132477

$$$$

 OpenBabel03272506073D

 24 26  0  0  0  0  0  0  0  0999 V2000
   35.6700   23.1540   31.4560 C   0  0  0  0  0  0  0  0  0  0  0  0
   35.1670   23.1670   30.4570 H   0  0  0  0  0  0  0  0  0  0  0  0
   35.0740   23.7200   32.1960 H   0  0  0  0  0  0  0  0  0  0  0  0
   35.5050   19.9820   33.3950 C   0  0  0  0  0  0  0  0  0  0  0  0
   35.7380   19.0100   32.4130 C   0  0  0  0  0  0  0  0  0  0  0  0
   35.9480   19.4570   31.1040 C   0  0  0  0  0  0  0  0  0  0  0  0
   35.9150   20.7890   30.8530 N   0  0  0  0  0  0  0  0  0  0  0  0
   35.6850   21.6850   31.8400 C   0  0  0  0  0  0  0  0  0  0  0  0
   35.4810   21.3030   33.1040 N   0  0  0  0  0  0  0  0  0  0  0  0
   35.3400   19.6600   34.4220 H   0  0  0  0  0  0  0  0  0  0  0  0
   35.7540   17.9630   32.6650 H   0  0  0  0  0  0  0  0  0  0  0  0
   36.1280   18.7210   30.3370 H   0  0  0  0  0  0  0  0  0  0  0  0
   37.0620   23.6880   31.4450 C   0  0  0  0  0  0  0  0  0  0  0  0
   37.2120   24.2710   30.5160 H   0  0  0  0  0  0  0  0  0  0  0  0
   37.7920   22.8560   31.4360 H   0  0  0  0  0  0  0  0  0  0  0  0
   37.3200   24.5570   32.6460 C   0  0  0  0  0  0  0  0  0  0  0  0
   36.8870   25.9350   32.6090 C   0  0  0  0  0  0  0  0  0  0  0  0
   37.4080   26.5100   34.1970 S   0  0  0  0  0  0  0  0  0  0  0  0
   38.1340   24.8560   34.7090 C   0  0  0  0  0  0  0  0  0  0  0  0
   37.9170   24.1790   33.7470 N   0  0  0  0  0  0  0  0  0  0  0  0
   36.3830   26.4190   31.7920 H   0  0  0  0  0  0  0  0  0  0  0  0
   38.7870   24.6040   36.0250 C   0  0  0  0  0  3  0  0  0  0  0  0
   38.7620   23.2490   36.6210 C   0  0  0  0  0  2  0  0  0  0  0  0
   37.8350   24.2520   37.1850 C   0  0  0  0  0  2  0  0  0  0  0  0
  1  8  1  0  0  0  0
  1  3  1  0  0  0  0
  2  1  1  0  0  0  0
  4 10  1  0  0  0  0
  5 11  1  0  0  0  0
  5  4  2  0  0  0  0
  6  5  1  0  0  0  0
  7  6  2  0  0  0  0
  7  8  1  0  0  0  0
  8  9  2  0  0  0  0
  9  4  1  0  0  0  0
 12  6  1  0  0  0  0
 13  1  1  0  0  0  0
 13 16  1  0  0  0  0
 14 13  1  0  0  0  0
 15 13  1  0  0  0  0
 16 20  1  0  0  0  0
 17 16  2  0  0  0  0
 17 18  1  0  0  0  0
 18 19  1  0  0  0  0
 19 22  1  0  0  0  0
 20 19  2  0  0  0  0
 21 17  1  0  0  0  0
 22 23  1  0  0  0  0
 22 24  1  0  0  0  0
 23 24  1  0  0  0  0
M  END
>  <minimizedAffinity>
-4.10041714

$$$$

 OpenBabel03272506073D

 24 26  0  0  0  0  0  0  0  0999 V2000
   38.4150   24.3920   35.5670 C   0  0  0  0  0  0  0  0  0  0  0  0
   37.5790   23.6560   35.6800 H   0  0  0  0  0  0  0  0  0  0  0  0
   38.2390   25.2760   36.2070 H   0  0  0  0  0  0  0  0  0  0  0  0
   40.6740   22.1860   37.5370 C   0  0  0  0  0  0  0  0  0  0  0  0
   41.9020   22.3420   36.8810 C   0  0  0  0  0  0  0  0  0  0  0  0
   41.9360   23.1990   35.7760 C   0  0  0  0  0  0  0  0  0  0  0  0
   40.7960   23.8280   35.3990 N   0  0  0  0  0  0  0  0  0  0  0  0
   39.6350   23.6410   36.0680 C   0  0  0  0  0  0  0  0  0  0  0  0
   39.5570   22.8320   37.1290 N   0  0  0  0  0  0  0  0  0  0  0  0
   40.6210   21.5250   38.4000 H   0  0  0  0  0  0  0  0  0  0  0  0
   42.7800   21.8180   37.2210 H   0  0  0  0  0  0  0  0  0  0  0  0
   42.8740   23.3290   35.2600 H   0  0  0  0  0  0  0  0  0  0  0  0
   38.6410   24.8460   34.1650 C   0  0  0  0  0  0  0  0  0  0  0  0
   39.6790   24.5970   33.8730 H   0  0  0  0  0  0  0  0  0  0  0  0
   38.5310   25.9450   34.0950 H   0  0  0  0  0  0  0  0  0  0  0  0
   37.6690   24.1930   33.2190 C   0  0  0  0  0  0  0  0  0  0  0  0
   36.9080   25.0320   32.3220 C   0  0  0  0  0  0  0  0  0  0  0  0
   35.9420   23.8330   31.4540 S   0  0  0  0  0  0  0  0  0  0  0  0
   36.6660   22.3740   32.3890 C   0  0  0  0  0  0  0  0  0  0  0  0
   37.4360   22.9090   33.1310 N   0  0  0  0  0  0  0  0  0  0  0  0
   36.9660   26.1030   32.2540 H   0  0  0  0  0  0  0  0  0  0  0  0
   36.2750   20.9560   32.1500 C   0  0  0  0  0  3  0  0  0  0  0  0
   34.8470   20.5920   31.9990 C   0  0  0  0  0  2  0  0  0  0  0  0
   35.4920   20.2780   33.2920 C   0  0  0  0  0  2  0  0  0  0  0  0
  1  2  1  0  0  0  0
  1  8  1  0  0  0  0
  1  3  1  0  0  0  0
  4 10  1  0  0  0  0
  5 11  1  0  0  0  0
  5  4  2  0  0  0  0
  6  5  1  0  0  0  0
  7  6  2  0  0  0  0
  7  8  1  0  0  0  0
  8  9  2  0  0  0  0
  9  4  1  0  0  0  0
 12  6  1  0  0  0  0
 13  1  1  0  0  0  0
 14 13  1  0  0  0  0
 15 13  1  0  0  0  0
 16 13  1  0  0  0  0
 17 16  2  0  0  0  0
 18 17  1  0  0  0  0
 18 19  1  0  0  0  0
 19 20  2  0  0  0  0
 20 16  1  0  0  0  0
 21 17  1  0  0  0  0
 22 19  1  0  0  0  0
 22 24  1  0  0  0  0
 23 22  1  0  0  0  0
 23 24  1  0  0  0  0
M  END
>  <minimizedAffinity>
-4.06782484

$$$$

 OpenBabel03272506073D

 24 26  0  0  0  0  0  0  0  0999 V2000
   34.5270   29.3390   33.6830 C   0  0  0  0  0  0  0  0  0  0  0  0
   34.2050   28.3790   34.1590 H   0  0  0  0  0  0  0  0  0  0  0  0
   33.7830   29.6670   32.9340 H   0  0  0  0  0  0  0  0  0  0  0  0
   33.5380   31.4640   36.5730 C   0  0  0  0  0  0  0  0  0  0  0  0
   34.7290   32.1340   36.8820 C   0  0  0  0  0  0  0  0  0  0  0  0
   35.8500   31.8470   36.0960 C   0  0  0  0  0  0  0  0  0  0  0  0
   35.7320   30.9480   35.0890 N   0  0  0  0  0  0  0  0  0  0  0  0
   34.5560   30.3280   34.8330 C   0  0  0  0  0  0  0  0  0  0  0  0
   33.4610   30.5720   35.5570 N   0  0  0  0  0  0  0  0  0  0  0  0
   32.6510   31.6700   37.1690 H   0  0  0  0  0  0  0  0  0  0  0  0
   34.7700   32.8400   37.6940 H   0  0  0  0  0  0  0  0  0  0  0  0
   36.7750   32.3540   36.3220 H   0  0  0  0  0  0  0  0  0  0  0  0
   35.8690   29.2760   33.0350 C   0  0  0  0  0  0  0  0  0  0  0  0
   36.4920   30.1030   33.4260 H   0  0  0  0  0  0  0  0  0  0  0  0
   35.7740   29.4190   31.9420 H   0  0  0  0  0  0  0  0  0  0  0  0
   36.5400   27.9550   33.3020 C   0  0  0  0  0  0  0  0  0  0  0  0
   36.4980   26.9400   32.2750 C   0  0  0  0  0  0  0  0  0  0  0  0
   37.3900   25.6230   33.0480 S   0  0  0  0  0  0  0  0  0  0  0  0
   37.7030   26.5820   34.6310 C   0  0  0  0  0  0  0  0  0  0  0  0
   37.1680   27.6260   34.4010 N   0  0  0  0  0  0  0  0  0  0  0  0
   36.0290   27.0300   31.3130 H   0  0  0  0  0  0  0  0  0  0  0  0
   38.4520   26.0390   35.7990 C   0  0  0  0  0  3  0  0  0  0  0  0
   39.0370   24.6800   35.7420 C   0  0  0  0  0  2  0  0  0  0  0  0
   37.7910   24.8470   36.5200 C   0  0  0  0  0  2  0  0  0  0  0  0
  1  2  1  0  0  0  0
  1  8  1  0  0  0  0
  3  1  1  0  0  0  0
  4  5  1  0  0  0  0
  4 10  1  0  0  0  0
  5 11  1  0  0  0  0
  6 12  1  0  0  0  0
  6  5  2  0  0  0  0
  7  6  1  0  0  0  0
  8  7  2  0  0  0  0
  8  9  1  0  0  0  0
  9  4  2  0  0  0  0
 13 16  1  0  0  0  0
 13 14  1  0  0  0  0
 13  1  1  0  0  0  0
 15 13  1  0  0  0  0
 16 20  1  0  0  0  0
 17 18  1  0  0  0  0
 17 16  2  0  0  0  0
 18 19  1  0  0  0  0
 19 22  1  0  0  0  0
 20 19  2  0  0  0  0
 21 17  1  0  0  0  0
 22 24  1  0  0  0  0
 23 22  1  0  0  0  0
 23 24  1  0  0  0  0
M  END
>  <minimizedAffinity>
-4.06399155

$$$$
