
 OpenBabel03262521333D

 19 21  0  0  1  0  0  0  0  0999 V2000
   38.0240   30.4830   47.6640 C   0  0  1  0  0  0  0  0  0  0  0  0
   37.3430   31.0410   46.5210 C   0  0  0  0  0  0  0  0  0  0  0  0
   38.1330   32.0040   47.4190 C   0  0  2  0  0  0  0  0  0  0  0  0
   38.9690   29.9140   47.4950 H   0  0  0  0  0  0  0  0  0  0  0  0
   36.2380   31.1970   46.6200 H   0  0  0  0  0  0  0  0  0  0  0  0
   37.6470   30.8650   45.4940 H   0  0  0  0  0  0  0  0  0  0  0  0
   37.5820   32.6790   48.0960 H   0  0  0  0  0  0  0  0  0  0  0  0
   37.3480   30.1550   51.3270 C   0  0  0  0  0  0  0  0  0  0  0  0
   38.0160   30.5060   50.1410 C   0  0  0  0  0  0  0  0  0  0  0  0
   37.3770   30.1640   48.9510 C   0  0  0  0  0  0  0  0  0  0  0  0
   36.1620   29.5200   49.0060 N   0  0  0  0  0  0  0  0  0  0  0  0
   35.5680   29.2080   50.1810 C   0  0  0  0  0  0  0  0  0  0  0  0
   36.1580   29.5250   51.3550 N   0  0  0  0  0  0  0  0  0  0  0  0
   37.8160   30.4070   52.2740 H   0  0  0  0  0  0  0  0  0  0  0  0
   38.9610   31.0070   50.1910 H   0  0  0  0  0  0  0  0  0  0  0  0
   34.6290   28.7090   49.9820 H   0  0  0  0  0  0  0  0  0  0  0  0
   39.3820   32.5240   46.7740 C   0  0  0  0  0  0  0  0  0  0  0  0
   40.1790   31.6080   45.8620 C   0  0  0  0  0  0  0  0  0  0  0  0
   39.4660   32.8380   45.3430 C   0  0  0  0  0  0  0  0  0  0  0  0
  1  4  1  6  0  0  0
  1 10  1  0  0  0  0
  2  5  1  0  0  0  0
  2  3  1  0  0  0  0
  2  1  1  0  0  0  0
  3  1  1  0  0  0  0
  3  7  1  1  0  0  0
  6  2  1  0  0  0  0
  8 13  1  0  0  0  0
  8 14  1  0  0  0  0
  9 15  1  0  0  0  0
  9  8  2  0  0  0  0
 10 11  2  0  0  0  0
 10  9  1  0  0  0  0
 11 12  1  0  0  0  0
 12 13  2  0  0  0  0
 16 12  1  0  0  0  0
 17  3  1  0  0  0  0
 18 17  1  0  0  0  0
 19 18  1  0  0  0  0
 19 17  1  0  0  0  0
M  END
>  <minimizedAffinity>
-4.80591011

>  <minimizedRMSD>
0.797860444

$$$$
