
 OpenBabel03272508373D

 38 41  0  0  1  0  0  0  0  0999 V2000
   39.8690   32.6370   45.3620 C   0  0  0  0  0  0  0  0  0  0  0  0
   40.6710   32.8790   46.0990 H   0  0  0  0  0  0  0  0  0  0  0  0
   39.4150   33.5680   45.1200 H   0  0  0  0  0  0  0  0  0  0  0  0
   37.7940   30.9330   47.7460 C   0  0  0  0  0  0  0  0  0  0  0  0
   37.0490   30.8130   46.6150 C   0  0  0  0  0  0  0  0  0  0  0  0
   37.7230   31.4320   45.5850 C   0  0  0  0  0  0  0  0  0  0  0  0
   38.8550   31.9040   46.1280 N   0  0  0  0  0  0  0  0  0  0  0  0
   38.8900   31.5990   47.4310 N   0  0  0  0  0  0  0  0  0  0  0  0
   36.0730   30.2980   46.5680 H   0  0  0  0  0  0  0  0  0  0  0  0
   37.2190   31.3990   44.6450 H   0  0  0  0  0  0  0  0  0  0  0  0
   37.4630   30.2160   51.4360 C   0  0  0  0  0  0  0  0  0  0  0  0
   37.9760   30.7270   50.2620 C   0  0  0  0  0  0  0  0  0  0  0  0
   37.3770   30.4390   49.0470 C   0  0  0  0  0  0  0  0  0  0  0  0
   36.2800   29.6350   49.1360 N   0  0  0  0  0  0  0  0  0  0  0  0
   35.7900   29.1430   50.2860 C   0  0  0  0  0  0  0  0  0  0  0  0
   36.3910   29.4400   51.4360 N   0  0  0  0  0  0  0  0  0  0  0  0
   37.9340   30.4440   52.3830 H   0  0  0  0  0  0  0  0  0  0  0  0
   38.8510   31.3640   50.2230 H   0  0  0  0  0  0  0  0  0  0  0  0
   34.9080   28.5240   50.1330 H   0  0  0  0  0  0  0  0  0  0  0  0
   40.4450   31.7390   44.3330 C   0  0  0  0  0  0  0  0  0  0  0  0
   41.5450   31.7110   44.4080 H   0  0  0  0  0  0  0  0  0  0  0  0
   40.1010   30.7010   44.6640 H   0  0  0  0  0  0  0  0  0  0  0  0
   40.0480   31.8760   43.0090 N   0  0  0  0  0  0  0  0  0  0  0  0
   39.3630   33.0870   42.6860 C   0  0  0  0  0  0  0  0  0  0  0  0
   37.9620   32.9650   42.2300 C   0  0  0  0  0  0  0  0  0  0  0  0
   37.8180   31.9060   41.3020 O   0  0  0  0  0  0  0  0  0  0  0  0
   38.1740   30.7340   41.9660 C   0  0  0  0  0  0  0  0  0  0  0  0
   39.6470   30.8100   42.2270 C   0  0  2  0  0  0  0  0  0  0  0  0
   39.6190   33.9720   43.2280 H   0  0  0  0  0  0  0  0  0  0  0  0
   39.9250   33.3100   41.7060 H   0  0  0  0  0  0  0  0  0  0  0  0
   37.1140   33.0680   42.8230 H   0  0  0  0  0  0  0  0  0  0  0  0
   37.8350   33.8670   41.4960 H   0  0  0  0  0  0  0  0  0  0  0  0
   37.5420   30.4300   42.7830 H   0  0  0  0  0  0  0  0  0  0  0  0
   38.0530   29.9330   41.1750 H   0  0  0  0  0  0  0  0  0  0  0  0
   39.9980   31.1910   41.1470 H   0  0  0  0  0  0  0  0  0  0  0  0
   40.2670   29.4750   42.2560 C   0  0  0  0  0  0  0  0  0  0  0  0
   40.7660   28.9090   40.8780 C   0  0  0  0  0  0  0  0  0  0  0  0
   41.6510   29.0810   42.0520 C   0  0  0  0  0  0  0  0  0  0  0  0
  1  2  1  0  0  0  0
  1  7  1  0  0  0  0
  3  1  1  0  0  0  0
  4 13  1  0  0  0  0
  5  4  1  0  0  0  0
  6  7  1  0  0  0  0
  6  5  2  0  0  0  0
  7  8  1  0  0  0  0
  8  4  2  0  0  0  0
  9  5  1  0  0  0  0
 10  6  1  0  0  0  0
 11 16  1  0  0  0  0
 11 17  1  0  0  0  0
 12 11  2  0  0  0  0
 13 14  2  0  0  0  0
 13 12  1  0  0  0  0
 14 15  1  0  0  0  0
 15 16  2  0  0  0  0
 18 12  1  0  0  0  0
 19 15  1  0  0  0  0
 20 21  1  0  0  0  0
 20 22  1  0  0  0  0
 20  1  1  0  0  0  0
 23 20  1  0  0  0  0
 24 23  1  0  0  0  0
 24 29  1  0  0  0  0
 25 24  1  0  0  0  0
 25 31  1  0  0  0  0
 26 27  1  0  0  0  0
 26 25  1  0  0  0  0
 27 28  1  0  0  0  0
 27 33  1  0  0  0  0
 28 35  1  6  0  0  0
 28 36  1  0  0  0  0
 28 23  1  0  0  0  0
 30 24  1  0  0  0  0
 32 25  1  0  0  0  0
 34 27  1  0  0  0  0
 37 38  1  0  0  0  0
 37 36  1  0  0  0  0
 38 36  1  0  0  0  0
M  END
>  <minimizedAffinity>
-5.48803377

>  <minimizedRMSD>
0.810239792

$$$$
