
 OpenBabel03262520173D

 12 13  0  0  0  0  0  0  0  0999 V2000
   37.1520   29.8940   51.5720 C   0  0  0  0  0  0  0  0  0  0  0  0
   37.6880   30.7360   50.5780 C   0  0  0  0  0  0  0  0  0  0  0  0
   36.9250   30.9600   49.4180 C   0  0  0  0  0  0  0  0  0  0  0  0
   35.7100   30.3400   49.3380 N   0  0  0  0  0  0  0  0  0  0  0  0
   35.2330   29.5390   50.3130 C   0  0  0  0  0  0  0  0  0  0  0  0
   35.9570   29.3140   51.4370 N   0  0  0  0  0  0  0  0  0  0  0  0
   37.7310   29.7140   52.4710 H   0  0  0  0  0  0  0  0  0  0  0  0
   38.6740   31.2000   50.7160 H   0  0  0  0  0  0  0  0  0  0  0  0
   34.2420   29.1340   50.0630 H   0  0  0  0  0  0  0  0  0  0  0  0
   37.4280   31.8250   48.3500 C   0  0  0  0  0  3  0  0  0  0  0  0
   38.8150   32.2750   48.2560 C   0  0  0  0  0  2  0  0  0  0  0  0
   38.3740   31.1040   47.3800 C   0  0  0  0  0  2  0  0  0  0  0  0
  1  7  1  0  0  0  0
  2  8  1  0  0  0  0
  2  1  2  0  0  0  0
  3  2  1  0  0  0  0
  4  3  2  0  0  0  0
  4  5  1  0  0  0  0
  5  6  2  0  0  0  0
  6  1  1  0  0  0  0
  9  5  1  0  0  0  0
 10  3  1  0  0  0  0
 11 10  1  0  0  0  0
 12 11  1  0  0  0  0
 12 10  1  0  0  0  0
M  END
>  <minimizedAffinity>
-3.76565671

>  <minimizedRMSD>
1.23253405

$$$$
