
 OpenBabel03272501003D

 22 24  0  0  0  0  0  0  0  0999 V2000
   38.8140   30.4360   48.7960 F   0  0  0  0  0  0  0  0  0  0  0  0
   37.6280   30.2890   48.1570 C   0  0  0  0  0  0  0  0  0  0  0  0
   37.4020   30.7020   46.8420 C   0  0  0  0  0  0  0  0  0  0  0  0
   36.1650   30.5160   46.2680 C   0  0  0  0  0  0  0  0  0  0  0  0
   35.1240   29.9240   46.9640 C   0  0  0  0  0  0  0  0  0  0  0  0
   35.3600   29.5140   48.2780 C   0  0  0  0  0  0  0  0  0  0  0  0
   36.5910   29.6940   48.8630 C   0  0  0  0  0  0  0  0  0  0  0  0
   36.0050   30.8410   45.2490 H   0  0  0  0  0  0  0  0  0  0  0  0
   34.1710   29.8120   46.4370 H   0  0  0  0  0  0  0  0  0  0  0  0
   34.5140   29.0540   48.7860 H   0  0  0  0  0  0  0  0  0  0  0  0
   39.2360   33.1100   44.7920 C   0  0  0  0  0  0  0  0  0  0  0  0
   40.5360   32.5860   44.7180 C   0  0  0  0  0  0  0  0  0  0  0  0
   40.7670   31.3940   45.3850 C   0  0  0  0  0  0  0  0  0  0  0  0
   39.7500   30.8060   46.0600 N   0  0  0  0  0  0  0  0  0  0  0  0
   38.5130   31.3290   46.1150 C   0  0  0  0  0  0  0  0  0  0  0  0
   38.2540   32.4910   45.4750 N   0  0  0  0  0  0  0  0  0  0  0  0
   39.0870   34.0390   44.2640 H   0  0  0  0  0  0  0  0  0  0  0  0
   41.3450   33.0500   44.1840 H   0  0  0  0  0  0  0  0  0  0  0  0
   41.7360   30.9000   45.3930 H   0  0  0  0  0  0  0  0  0  0  0  0
   36.8020   29.2500   50.2500 C   0  0  0  0  0  0  0  0  0  0  0  0
   37.0190   30.3900   51.2420 C   0  0  0  0  0  0  0  0  0  0  0  0
   35.8260   29.4320   51.3240 C   0  0  0  0  0  0  0  0  0  0  0  0
  2  1  1  0  0  0  0
  2  7  1  0  0  0  0
  3  2  2  0  0  0  0
  4  3  1  0  0  0  0
  4  5  2  0  0  0  0
  5  6  1  0  0  0  0
  6 10  1  0  0  0  0
  6  7  2  0  0  0  0
  7 20  1  0  0  0  0
  8  4  1  0  0  0  0
  9  5  1  0  0  0  0
 11 16  1  0  0  0  0
 12 11  2  0  0  0  0
 12 13  1  0  0  0  0
 13 19  1  0  0  0  0
 13 14  2  0  0  0  0
 14 15  1  0  0  0  0
 15  3  1  0  0  0  0
 16 15  2  0  0  0  0
 17 11  1  0  0  0  0
 18 12  1  0  0  0  0
 20 21  1  0  0  0  0
 20 22  1  0  0  0  0
 21 22  1  0  0  0  0
M  END
>  <minimizedAffinity>
-5.75927544

>  <minimizedRMSD>
2.93184352

$$$$
