
 OpenBabel03272507363D

 13 14  0  0  0  0  0  0  0  0999 V2000
   36.8960   29.9650   51.0900 C   0  0  0  0  0  0  0  0  0  0  0  0
   37.0710   30.8900   50.0470 C   0  0  0  0  0  0  0  0  0  0  0  0
   36.0080   31.0320   49.1680 C   0  0  0  0  0  0  0  0  0  0  0  0
   34.8800   30.2960   49.3450 N   0  0  0  0  0  0  0  0  0  0  0  0
   34.7430   29.4120   50.3620 C   0  0  0  0  0  0  0  0  0  0  0  0
   35.7520   29.2600   51.2190 N   0  0  0  0  0  0  0  0  0  0  0  0
   36.0100   31.6960   48.3360 H   0  0  0  0  0  0  0  0  0  0  0  0
   33.8520   28.8200   50.5160 H   0  0  0  0  0  0  0  0  0  0  0  0
   38.2970   31.6860   49.8580 C   0  0  0  0  0  0  0  0  0  0  0  0
   38.3680   33.0310   49.2870 C   0  0  0  0  0  0  0  0  0  0  0  0
   38.6740   31.9060   48.3920 C   0  0  0  0  0  0  0  0  0  0  0  0
   37.9990   29.8850   51.9180 O   0  0  0  0  0  0  0  0  0  0  0  0
   37.8480   29.4380   52.8200 H   0  0  0  0  0  0  0  0  0  0  0  0
  1  6  1  0  0  0  0
  1 12  1  0  0  0  0
  2  1  2  0  0  0  0
  3  4  2  0  0  0  0
  3  2  1  0  0  0  0
  4  5  1  0  0  0  0
  5  8  1  0  0  0  0
  5  6  2  0  0  0  0
  7  3  1  0  0  0  0
  9  2  1  0  0  0  0
 10  9  1  0  0  0  0
 11 10  1  0  0  0  0
 11  9  1  0  0  0  0
 12 13  1  0  0  0  0
M  END
>  <minimizedAffinity>
-4.72076559

>  <minimizedRMSD>
1.55110848

$$$$
