
 OpenBabel03272501393D

 39 43  0  0  1  0  0  0  0  0999 V2000
   39.0060   32.0210   47.4190 C   0  0  1  0  0  0  0  0  0  0  0  0
   39.9690   31.7950   48.0340 H   0  0  0  0  0  0  0  0  0  0  0  0
   37.5900   30.8010   50.6050 C   0  0  0  0  0  0  0  0  0  0  0  0
   38.3480   31.4420   49.6540 C   0  0  0  0  0  0  0  0  0  0  0  0
   38.0570   31.3790   48.2840 C   0  0  0  0  0  0  0  0  0  0  0  0
   37.0150   30.6800   47.9330 N   0  0  0  0  0  0  0  0  0  0  0  0
   36.2610   30.0440   48.8880 C   0  0  0  0  0  0  0  0  0  0  0  0
   36.5400   30.1020   50.1850 N   0  0  0  0  0  0  0  0  0  0  0  0
   37.8190   30.8510   51.6620 H   0  0  0  0  0  0  0  0  0  0  0  0
   39.2010   32.0090   50.0380 H   0  0  0  0  0  0  0  0  0  0  0  0
   35.0770   29.2780   48.5110 C   0  0  0  0  0  0  0  0  0  0  0  0
   34.5360   28.1240   49.0290 C   0  0  0  0  0  0  0  0  0  0  0  0
   33.4080   27.6050   48.5170 C   0  0  0  0  0  0  0  0  0  0  0  0
   32.8450   28.3130   47.4470 C   0  0  0  0  0  0  0  0  0  0  0  0
   33.9820   29.7270   47.2100 S   0  0  0  0  0  0  0  0  0  0  0  0
   35.0750   27.6770   49.8590 H   0  0  0  0  0  0  0  0  0  0  0  0
   32.9050   26.7230   48.8390 H   0  0  0  0  0  0  0  0  0  0  0  0
   31.6510   28.1340   46.5900 C   0  0  0  0  0  0  0  0  0  0  0  0
   30.2970   28.5440   47.1300 C   0  0  0  0  0  0  0  0  0  0  0  0
   30.9980   29.3700   46.1280 C   0  0  0  0  0  0  0  0  0  0  0  0
   39.2280   31.3820   46.0650 C   0  0  2  0  0  0  0  0  0  0  0  0
   40.7400   31.1950   45.9150 C   0  0  0  0  0  0  0  0  0  0  0  0
   39.9410   32.0900   45.0310 C   0  0  1  0  0  0  0  0  0  0  0  0
   38.5960   30.4930   45.9080 H   0  0  0  0  0  0  0  0  0  0  0  0
   41.4820   31.7110   46.5170 H   0  0  0  0  0  0  0  0  0  0  0  0
   41.0390   30.1990   45.5500 H   0  0  0  0  0  0  0  0  0  0  0  0
   39.9300   33.1930   45.1510 H   0  0  0  0  0  0  0  0  0  0  0  0
   39.9910   31.7070   43.6140 C   0  0  0  0  0  0  0  0  0  0  0  0
   39.3620   32.5240   42.7110 C   0  0  0  0  0  0  0  0  0  0  0  0
   39.4450   32.1610   41.3910 C   0  0  0  0  0  0  0  0  0  0  0  0
   40.1180   31.0360   40.9520 C   0  0  0  0  0  0  0  0  0  0  0  0
   40.7370   30.2400   41.8890 C   0  0  0  0  0  0  0  0  0  0  0  0
   40.6650   30.5820   43.1890 N   0  0  0  0  0  0  0  0  0  0  0  0
   38.8210   33.4160   42.9980 H   0  0  0  0  0  0  0  0  0  0  0  0
   38.9780   32.7460   40.5950 H   0  0  0  0  0  0  0  0  0  0  0  0
   40.2140   30.7060   39.9320 H   0  0  0  0  0  0  0  0  0  0  0  0
   41.3050   29.3290   41.7210 H   0  0  0  0  0  0  0  0  0  0  0  0
   39.1800   33.3150   47.4260 O   0  0  0  0  0  0  0  0  0  0  0  0
   38.4950   33.8770   46.9850 H   0  0  0  0  0  0  0  0  0  0  0  0
  1 38  1  0  0  0  0
  1  2  1  1  0  0  0
  1  5  1  0  0  0  0
  3  9  1  0  0  0  0
  4 10  1  0  0  0  0
  4  3  2  0  0  0  0
  5  4  1  0  0  0  0
  6  5  2  0  0  0  0
  6  7  1  0  0  0  0
  7  8  2  0  0  0  0
  8  3  1  0  0  0  0
 11  7  1  0  0  0  0
 11 12  2  0  0  0  0
 12 16  1  0  0  0  0
 13 17  1  0  0  0  0
 13 12  1  0  0  0  0
 14 13  2  0  0  0  0
 15 14  1  0  0  0  0
 15 11  1  0  0  0  0
 18 19  1  0  0  0  0
 18 14  1  0  0  0  0
 20 18  1  0  0  0  0
 20 19  1  0  0  0  0
 21 24  1  6  0  0  0
 21  1  1  0  0  0  0
 22 21  1  0  0  0  0
 22 25  1  0  0  0  0
 23 27  1  1  0  0  0
 23 22  1  0  0  0  0
 23 21  1  0  0  0  0
 26 22  1  0  0  0  0
 28 23  1  0  0  0  0
 29 34  1  0  0  0  0
 29 28  2  0  0  0  0
 30 29  1  0  0  0  0
 31 30  2  0  0  0  0
 31 32  1  0  0  0  0
 32 33  2  0  0  0  0
 33 28  1  0  0  0  0
 35 30  1  0  0  0  0
 36 31  1  0  0  0  0
 37 32  1  0  0  0  0
 39 38  1  0  0  0  0
M  END
>  <minimizedAffinity>
-6.49069881

>  <minimizedRMSD>
0.631304204

$$$$
