
 OpenBabel03272509473D

 19 20  0  0  0  0  0  0  0  0999 V2000
   34.7400   28.3200   49.7630 O   0  0  0  0  0  0  0  0  0  0  0  0
   37.3390   30.2260   51.4100 C   0  0  0  0  0  0  0  0  0  0  0  0
   38.0540   30.6600   50.2980 C   0  0  0  0  0  0  0  0  0  0  0  0
   37.6160   30.2820   49.0310 C   0  0  0  0  0  0  0  0  0  0  0  0
   36.4900   29.4950   48.9860 N   0  0  0  0  0  0  0  0  0  0  0  0
   35.8250   29.0940   50.0700 C   0  0  0  0  0  0  0  0  0  0  0  0
   36.2530   29.4630   51.2980 N   0  0  0  0  0  0  0  0  0  0  0  0
   37.6250   30.4840   52.4310 H   0  0  0  0  0  0  0  0  0  0  0  0
   38.9320   31.2820   50.4450 H   0  0  0  0  0  0  0  0  0  0  0  0
   38.1460   30.6010   48.1500 H   0  0  0  0  0  0  0  0  0  0  0  0
   34.2140   28.3960   48.4420 C   0  0  0  0  0  0  0  0  0  0  0  0
   33.3250   29.0490   48.4090 H   0  0  0  0  0  0  0  0  0  0  0  0
   34.9540   28.8500   47.7510 H   0  0  0  0  0  0  0  0  0  0  0  0
   33.8840   27.0110   47.9490 C   0  0  0  0  0  0  0  0  0  0  0  0
   34.7930   26.4550   47.7200 H   0  0  0  0  0  0  0  0  0  0  0  0
   33.2160   26.5100   48.6660 H   0  0  0  0  0  0  0  0  0  0  0  0
   33.1220   27.1980   46.6360 C   0  0  0  0  0  3  0  0  0  0  0  0
   33.8880   27.3450   45.3780 C   0  0  0  0  0  2  0  0  0  0  0  0
   33.1900   26.0490   45.6410 C   0  0  0  0  0  2  0  0  0  0  0  0
  1  6  1  0  0  0  0
  2  8  1  0  0  0  0
  3  9  1  0  0  0  0
  3  2  2  0  0  0  0
  4  3  1  0  0  0  0
  5  4  2  0  0  0  0
  5  6  1  0  0  0  0
  6  7  2  0  0  0  0
  7  2  1  0  0  0  0
 10  4  1  0  0  0  0
 11  1  1  0  0  0  0
 12 11  1  0  0  0  0
 13 11  1  0  0  0  0
 14 11  1  0  0  0  0
 14 16  1  0  0  0  0
 15 14  1  0  0  0  0
 17 14  1  0  0  0  0
 18 19  1  0  0  0  0
 18 17  1  0  0  0  0
 19 17  1  0  0  0  0
M  END
>  <minimizedAffinity>
-3.54098654

>  <minimizedRMSD>
0.102058172

$$$$
