
 OpenBabel03272509473D

 19 20  0  0  0  0  0  0  0  0999 V2000
   35.0690   28.1950   49.5490 O   0  0  0  0  0  0  0  0  0  0  0  0
   37.3750   30.2820   51.3990 C   0  0  0  0  0  0  0  0  0  0  0  0
   38.1110   30.8130   50.3450 C   0  0  0  0  0  0  0  0  0  0  0  0
   37.7870   30.4340   49.0450 C   0  0  0  0  0  0  0  0  0  0  0  0
   36.7450   29.5490   48.9110 N   0  0  0  0  0  0  0  0  0  0  0  0
   36.0560   29.0560   49.9410 C   0  0  0  0  0  0  0  0  0  0  0  0
   36.3740   29.4270   51.2020 N   0  0  0  0  0  0  0  0  0  0  0  0
   37.5740   30.5350   52.4430 H   0  0  0  0  0  0  0  0  0  0  0  0
   38.9170   31.5080   50.5610 H   0  0  0  0  0  0  0  0  0  0  0  0
   38.3370   30.8260   48.2060 H   0  0  0  0  0  0  0  0  0  0  0  0
   33.8070   28.7440   49.1820 C   0  0  0  0  0  0  0  0  0  0  0  0
   33.3160   29.2180   50.0490 H   0  0  0  0  0  0  0  0  0  0  0  0
   33.9340   29.5450   48.4250 H   0  0  0  0  0  0  0  0  0  0  0  0
   32.9390   27.6630   48.5930 C   0  0  0  0  0  0  0  0  0  0  0  0
   32.5990   26.9750   49.3670 H   0  0  0  0  0  0  0  0  0  0  0  0
   32.1280   28.1170   48.0040 H   0  0  0  0  0  0  0  0  0  0  0  0
   33.8350   26.8690   47.6410 C   0  0  0  0  0  3  0  0  0  0  0  0
   33.5580   25.4310   47.4310 C   0  0  0  0  0  2  0  0  0  0  0  0
   33.1980   26.3930   46.3450 C   0  0  0  0  0  2  0  0  0  0  0  0
  1  6  1  0  0  0  0
  2  8  1  0  0  0  0
  3  9  1  0  0  0  0
  3  2  2  0  0  0  0
  4  3  1  0  0  0  0
  5  4  2  0  0  0  0
  5  6  1  0  0  0  0
  6  7  2  0  0  0  0
  7  2  1  0  0  0  0
 10  4  1  0  0  0  0
 11  1  1  0  0  0  0
 11 12  1  0  0  0  0
 13 11  1  0  0  0  0
 14 11  1  0  0  0  0
 14 15  1  0  0  0  0
 16 14  1  0  0  0  0
 17 14  1  0  0  0  0
 18 17  1  0  0  0  0
 19 18  1  0  0  0  0
 19 17  1  0  0  0  0
M  END
>  <minimizedAffinity>
-3.79448748

>  <minimizedRMSD>
1.03428221

$$$$
