
 OpenBabel03272509053D

 27 29  0  0  0  0  0  0  0  0999 V2000
   33.1870   27.6020   48.0150 C   0  0  0  0  0  0  0  0  0  0  0  0
   32.5030   28.2930   47.4550 H   0  0  0  0  0  0  0  0  0  0  0  0
   32.6700   27.1910   48.8970 H   0  0  0  0  0  0  0  0  0  0  0  0
   33.6310   26.5380   47.0570 C   0  0  0  0  0  0  0  0  0  0  0  0
   33.8610   25.2240   47.3690 C   0  0  0  0  0  0  0  0  0  0  0  0
   34.2670   24.3370   46.4000 C   0  0  0  0  0  0  0  0  0  0  0  0
   34.4580   24.7340   45.0850 C   0  0  0  0  0  0  0  0  0  0  0  0
   34.2310   26.0430   44.7640 C   0  0  0  0  0  0  0  0  0  0  0  0
   33.8240   26.9400   45.7240 C   0  0  0  0  0  0  0  0  0  0  0  0
   33.6860   25.0080   48.4150 H   0  0  0  0  0  0  0  0  0  0  0  0
   34.4190   23.3190   46.7660 H   0  0  0  0  0  0  0  0  0  0  0  0
   34.7760   23.9380   44.4330 H   0  0  0  0  0  0  0  0  0  0  0  0
   34.3890   26.3260   43.7250 H   0  0  0  0  0  0  0  0  0  0  0  0
   33.6720   27.9630   45.3550 H   0  0  0  0  0  0  0  0  0  0  0  0
   34.9420   28.3210   49.6220 C   0  0  0  0  0  3  0  0  0  0  0  0
   34.3010   28.4270   48.4920 C   0  0  0  0  0  3  0  0  0  0  0  0
   37.5510   30.2630   51.3200 C   0  0  0  0  0  0  0  0  0  0  0  0
   38.0420   31.0370   50.2320 C   0  0  0  0  0  0  0  0  0  0  0  0
   37.4690   30.8750   48.9540 C   0  0  0  0  0  0  0  0  0  0  0  0
   36.4640   29.9650   48.8570 N   0  0  0  0  0  0  0  0  0  0  0  0
   36.0280   29.2570   49.8950 C   0  0  0  0  0  0  0  0  0  0  0  0
   36.5670   29.4050   51.1100 N   0  0  0  0  0  0  0  0  0  0  0  0
   38.0310   30.4340   52.2740 H   0  0  0  0  0  0  0  0  0  0  0  0
   38.8310   31.7260   50.3930 H   0  0  0  0  0  0  0  0  0  0  0  0
   37.9520   31.6610   47.8000 C   0  0  0  0  0  3  0  0  0  0  0  0
   38.9470   31.0110   46.8470 C   0  0  0  0  0  2  0  0  0  0  0  0
   37.5530   31.3360   46.4310 C   0  0  0  0  0  2  0  0  0  0  0  0
  1 16  1  0  0  0  0
  1  3  1  0  0  0  0
  2  1  1  0  0  0  0
  4  5  1  0  0  0  0
  4  1  1  0  0  0  0
  5 10  1  0  0  0  0
  6 11  1  0  0  0  0
  6  5  2  0  0  0  0
  7  6  1  0  0  0  0
  8  7  2  0  0  0  0
  8  9  1  0  0  0  0
  9  4  2  0  0  0  0
 12  7  1  0  0  0  0
 13  8  1  0  0  0  0
 14  9  1  0  0  0  0
 15 21  1  0  0  0  0
 16 15  2  0  0  0  0
 17 23  1  0  0  0  0
 18 24  1  0  0  0  0
 18 17  2  0  0  0  0
 19 18  1  0  0  0  0
 20 19  2  0  0  0  0
 20 21  1  0  0  0  0
 21 22  2  0  0  0  0
 22 17  1  0  0  0  0
 25 19  1  0  0  0  0
 26 25  1  0  0  0  0
 27 26  1  0  0  0  0
 27 25  1  0  0  0  0
M  END
>  <minimizedAffinity>
-5.2443738

>  <minimizedRMSD>
0.650162101

$$$$
