
 OpenBabel03272504493D

 21 23  0  0  0  0  0  0  0  0999 V2000
   37.2440   25.7490   33.0530 C   0  0  0  0  0  0  0  0  0  0  0  0
   36.9250   27.0830   33.3730 C   0  0  0  0  0  0  0  0  0  0  0  0
   37.2060   27.5210   34.6690 C   0  0  0  0  0  0  0  0  0  0  0  0
   37.7690   26.6340   35.5460 N   0  0  0  0  0  0  0  0  0  0  0  0
   38.0610   25.3590   35.2010 C   0  0  0  0  0  0  0  0  0  0  0  0
   37.7920   24.9390   33.9580 N   0  0  0  0  0  0  0  0  0  0  0  0
   37.0320   25.3940   32.0510 H   0  0  0  0  0  0  0  0  0  0  0  0
   36.9800   28.5390   34.9650 H   0  0  0  0  0  0  0  0  0  0  0  0
   38.6590   24.4660   36.1780 C   0  0  0  0  0  0  0  0  0  0  0  0
   38.0580   24.3130   37.4070 C   0  0  0  0  0  0  0  0  0  0  0  0
   38.5910   23.4730   38.3730 C   0  0  0  0  0  0  0  0  0  0  0  0
   39.7520   22.8110   38.0120 C   0  0  0  0  0  0  0  0  0  0  0  0
   40.3750   22.9490   36.7780 C   0  0  0  0  0  0  0  0  0  0  0  0
   39.7810   23.7990   35.8870 N   0  0  0  0  0  0  0  0  0  0  0  0
   37.1450   24.8300   37.6990 H   0  0  0  0  0  0  0  0  0  0  0  0
   38.1430   23.3320   39.3480 H   0  0  0  0  0  0  0  0  0  0  0  0
   40.2420   22.1270   38.7120 H   0  0  0  0  0  0  0  0  0  0  0  0
   41.2820   22.4030   36.5550 H   0  0  0  0  0  0  0  0  0  0  0  0
   36.3170   27.9790   32.3660 C   0  0  0  0  0  3  0  0  0  0  0  0
   36.2660   27.6220   30.9480 C   0  0  0  0  0  2  0  0  0  0  0  0
   37.2760   28.6260   31.3770 C   0  0  0  0  0  2  0  0  0  0  0  0
  1  2  2  0  0  0  0
  1  6  1  0  0  0  0
  2  3  1  0  0  0  0
  3  8  1  0  0  0  0
  3  4  2  0  0  0  0
  5  4  1  0  0  0  0
  5  9  1  0  0  0  0
  6  5  2  0  0  0  0
  7  1  1  0  0  0  0
  9 10  1  0  0  0  0
 10 15  1  0  0  0  0
 10 11  2  0  0  0  0
 11 16  1  0  0  0  0
 12 11  1  0  0  0  0
 12 17  1  0  0  0  0
 13 12  2  0  0  0  0
 14  9  2  0  0  0  0
 14 13  1  0  0  0  0
 18 13  1  0  0  0  0
 19  2  1  0  0  0  0
 20 21  1  0  0  0  0
 20 19  1  0  0  0  0
 21 19  1  0  0  0  0
M  END
>  <minimizedAffinity>
-4.52517414

$$$$

 OpenBabel03272504493D

 21 23  0  0  0  0  0  0  0  0999 V2000
   38.6900   26.2850   32.7800 C   0  0  0  0  0  0  0  0  0  0  0  0
   37.7290   27.3110   32.8680 C   0  0  0  0  0  0  0  0  0  0  0  0
   37.0460   27.4540   34.0770 C   0  0  0  0  0  0  0  0  0  0  0  0
   37.3490   26.5950   35.0990 N   0  0  0  0  0  0  0  0  0  0  0  0
   38.2800   25.6210   34.9770 C   0  0  0  0  0  0  0  0  0  0  0  0
   38.9340   25.4840   33.8160 N   0  0  0  0  0  0  0  0  0  0  0  0
   39.2280   26.1600   31.8470 H   0  0  0  0  0  0  0  0  0  0  0  0
   36.2970   28.2290   34.1960 H   0  0  0  0  0  0  0  0  0  0  0  0
   38.5550   24.7420   36.0990 C   0  0  0  0  0  0  0  0  0  0  0  0
   39.5660   23.8130   35.9940 C   0  0  0  0  0  0  0  0  0  0  0  0
   39.8680   22.9500   37.0380 C   0  0  0  0  0  0  0  0  0  0  0  0
   39.0890   23.0950   38.1720 C   0  0  0  0  0  0  0  0  0  0  0  0
   38.0640   24.0240   38.3010 C   0  0  0  0  0  0  0  0  0  0  0  0
   37.8370   24.8330   37.2230 N   0  0  0  0  0  0  0  0  0  0  0  0
   40.1830   23.6930   35.1040 H   0  0  0  0  0  0  0  0  0  0  0  0
   40.6550   22.2100   36.9850 H   0  0  0  0  0  0  0  0  0  0  0  0
   39.2560   22.4560   39.0460 H   0  0  0  0  0  0  0  0  0  0  0  0
   37.4900   24.0880   39.2160 H   0  0  0  0  0  0  0  0  0  0  0  0
   37.4610   28.1980   31.7150 C   0  0  0  0  0  3  0  0  0  0  0  0
   36.2190   28.9640   31.6060 C   0  0  0  0  0  2  0  0  0  0  0  0
   36.3620   27.7460   30.7640 C   0  0  0  0  0  2  0  0  0  0  0  0
  1  2  2  0  0  0  0
  1  6  1  0  0  0  0
  2  3  1  0  0  0  0
  3  8  1  0  0  0  0
  3  4  2  0  0  0  0
  5  4  1  0  0  0  0
  5  9  1  0  0  0  0
  6  5  2  0  0  0  0
  7  1  1  0  0  0  0
  9 14  1  0  0  0  0
 10  9  2  0  0  0  0
 10 11  1  0  0  0  0
 11 12  2  0  0  0  0
 12 13  1  0  0  0  0
 12 17  1  0  0  0  0
 13 18  1  0  0  0  0
 14 13  2  0  0  0  0
 15 10  1  0  0  0  0
 16 11  1  0  0  0  0
 19  2  1  0  0  0  0
 20 19  1  0  0  0  0
 21 20  1  0  0  0  0
 21 19  1  0  0  0  0
M  END
>  <minimizedAffinity>
-4.2862525

$$$$

 OpenBabel03272504493D

 21 23  0  0  0  0  0  0  0  0999 V2000
   36.5270   21.1100   33.5580 C   0  0  0  0  0  0  0  0  0  0  0  0
   36.9990   21.7550   32.3990 C   0  0  0  0  0  0  0  0  0  0  0  0
   37.9380   22.7750   32.5640 C   0  0  0  0  0  0  0  0  0  0  0  0
   38.3430   23.0850   33.8340 N   0  0  0  0  0  0  0  0  0  0  0  0
   37.8660   22.4420   34.9250 C   0  0  0  0  0  0  0  0  0  0  0  0
   36.9650   21.4640   34.7660 N   0  0  0  0  0  0  0  0  0  0  0  0
   35.7970   20.3160   33.4460 H   0  0  0  0  0  0  0  0  0  0  0  0
   38.3330   23.3020   31.7030 H   0  0  0  0  0  0  0  0  0  0  0  0
   38.3350   22.8180   36.2460 C   0  0  0  0  0  0  0  0  0  0  0  0
   37.5180   23.5690   37.0630 C   0  0  0  0  0  0  0  0  0  0  0  0
   37.9210   23.9530   38.3330 C   0  0  0  0  0  0  0  0  0  0  0  0
   39.1830   23.5300   38.7100 C   0  0  0  0  0  0  0  0  0  0  0  0
   40.0240   22.7720   37.9050 C   0  0  0  0  0  0  0  0  0  0  0  0
   39.5460   22.4390   36.6680 N   0  0  0  0  0  0  0  0  0  0  0  0
   36.5240   23.9060   36.7730 H   0  0  0  0  0  0  0  0  0  0  0  0
   37.3030   24.5430   38.9970 H   0  0  0  0  0  0  0  0  0  0  0  0
   39.5830   23.7870   39.6960 H   0  0  0  0  0  0  0  0  0  0  0  0
   41.0020   22.4720   38.2580 H   0  0  0  0  0  0  0  0  0  0  0  0
   36.5110   21.3590   31.0600 C   0  0  0  0  0  3  0  0  0  0  0  0
   35.9690   20.0250   30.8000 C   0  0  0  0  0  2  0  0  0  0  0  0
   37.3460   20.3220   30.3220 C   0  0  0  0  0  2  0  0  0  0  0  0
  1  6  1  0  0  0  0
  2  3  1  0  0  0  0
  2  1  2  0  0  0  0
  3  4  2  0  0  0  0
  4  5  1  0  0  0  0
  5  9  1  0  0  0  0
  6  5  2  0  0  0  0
  7  1  1  0  0  0  0
  8  3  1  0  0  0  0
  9 14  2  0  0  0  0
  9 10  1  0  0  0  0
 10 11  2  0  0  0  0
 11 12  1  0  0  0  0
 11 16  1  0  0  0  0
 12 17  1  0  0  0  0
 13 18  1  0  0  0  0
 13 12  2  0  0  0  0
 14 13  1  0  0  0  0
 15 10  1  0  0  0  0
 19  2  1  0  0  0  0
 20 19  1  0  0  0  0
 21 20  1  0  0  0  0
 21 19  1  0  0  0  0
M  END
>  <minimizedAffinity>
-4.27063465

$$$$

 OpenBabel03272504493D

 21 23  0  0  0  0  0  0  0  0999 V2000
   37.3290   25.2690   32.6950 C   0  0  0  0  0  0  0  0  0  0  0  0
   36.5060   26.1770   32.0010 C   0  0  0  0  0  0  0  0  0  0  0  0
   35.5240   25.6460   31.1620 C   0  0  0  0  0  0  0  0  0  0  0  0
   35.4190   24.2850   31.0640 N   0  0  0  0  0  0  0  0  0  0  0  0
   36.2290   23.4440   31.7470 C   0  0  0  0  0  0  0  0  0  0  0  0
   37.1710   23.9530   32.5520 N   0  0  0  0  0  0  0  0  0  0  0  0
   38.0960   25.6640   33.3500 H   0  0  0  0  0  0  0  0  0  0  0  0
   34.8640   26.3030   30.6060 H   0  0  0  0  0  0  0  0  0  0  0  0
   36.0670   22.0090   31.6010 C   0  0  0  0  0  0  0  0  0  0  0  0
   35.0220   21.3800   32.2390 C   0  0  0  0  0  0  0  0  0  0  0  0
   34.8260   20.0110   32.1300 C   0  0  0  0  0  0  0  0  0  0  0  0
   35.7450   19.3400   31.3420 C   0  0  0  0  0  0  0  0  0  0  0  0
   36.8060   19.9520   30.6880 C   0  0  0  0  0  0  0  0  0  0  0  0
   36.9230   21.3050   30.8520 N   0  0  0  0  0  0  0  0  0  0  0  0
   34.2960   21.9020   32.8600 H   0  0  0  0  0  0  0  0  0  0  0  0
   34.0150   19.4880   32.6200 H   0  0  0  0  0  0  0  0  0  0  0  0
   35.6670   18.2570   31.1990 H   0  0  0  0  0  0  0  0  0  0  0  0
   37.4910   19.3710   30.0860 H   0  0  0  0  0  0  0  0  0  0  0  0
   36.6840   27.6360   32.1630 C   0  0  0  0  0  3  0  0  0  0  0  0
   36.1710   28.5880   31.1770 C   0  0  0  0  0  2  0  0  0  0  0  0
   37.6310   28.3080   31.1790 C   0  0  0  0  0  2  0  0  0  0  0  0
  1  7  1  0  0  0  0
  2 19  1  0  0  0  0
  2  1  2  0  0  0  0
  3  2  1  0  0  0  0
  4  3  2  0  0  0  0
  4  5  1  0  0  0  0
  5  6  2  0  0  0  0
  6  1  1  0  0  0  0
  8  3  1  0  0  0  0
  9  5  1  0  0  0  0
  9 10  1  0  0  0  0
 10 15  1  0  0  0  0
 11 10  2  0  0  0  0
 11 16  1  0  0  0  0
 12 11  1  0  0  0  0
 13 14  1  0  0  0  0
 13 12  2  0  0  0  0
 14  9  2  0  0  0  0
 17 12  1  0  0  0  0
 18 13  1  0  0  0  0
 20 21  1  0  0  0  0
 20 19  1  0  0  0  0
 21 19  1  0  0  0  0
M  END
>  <minimizedAffinity>
-4.27051067

$$$$

 OpenBabel03272504493D

 21 23  0  0  0  0  0  0  0  0999 V2000
   38.1770   25.2380   36.4220 C   0  0  0  0  0  0  0  0  0  0  0  0
   38.4650   24.0150   35.7870 C   0  0  0  0  0  0  0  0  0  0  0  0
   38.2600   23.9400   34.4080 C   0  0  0  0  0  0  0  0  0  0  0  0
   37.7960   25.0530   33.7590 N   0  0  0  0  0  0  0  0  0  0  0  0
   37.5320   26.2110   34.4050 C   0  0  0  0  0  0  0  0  0  0  0  0
   37.7270   26.2830   35.7280 N   0  0  0  0  0  0  0  0  0  0  0  0
   38.3300   25.3120   37.4930 H   0  0  0  0  0  0  0  0  0  0  0  0
   38.4670   23.0210   33.8710 H   0  0  0  0  0  0  0  0  0  0  0  0
   37.0410   27.3570   33.6600 C   0  0  0  0  0  0  0  0  0  0  0  0
   36.2660   28.2970   34.3020 C   0  0  0  0  0  0  0  0  0  0  0  0
   35.7750   29.4080   33.6330 C   0  0  0  0  0  0  0  0  0  0  0  0
   36.1180   29.4980   32.2960 C   0  0  0  0  0  0  0  0  0  0  0  0
   36.8980   28.5630   31.6270 C   0  0  0  0  0  0  0  0  0  0  0  0
   37.3390   27.4990   32.3640 N   0  0  0  0  0  0  0  0  0  0  0  0
   35.9920   28.2330   35.3540 H   0  0  0  0  0  0  0  0  0  0  0  0
   35.1630   30.1630   34.1100 H   0  0  0  0  0  0  0  0  0  0  0  0
   35.7730   30.3420   31.6890 H   0  0  0  0  0  0  0  0  0  0  0  0
   37.1320   28.6900   30.5780 H   0  0  0  0  0  0  0  0  0  0  0  0
   38.9630   22.8580   36.5610 C   0  0  0  0  0  3  0  0  0  0  0  0
   39.4960   23.0090   37.9160 C   0  0  0  0  0  2  0  0  0  0  0  0
   40.4650   22.8120   36.8050 C   0  0  0  0  0  2  0  0  0  0  0  0
  1  7  1  0  0  0  0
  2  1  1  0  0  0  0
  2 19  1  0  0  0  0
  3  2  2  0  0  0  0
  4  5  2  0  0  0  0
  4  3  1  0  0  0  0
  5  6  1  0  0  0  0
  6  1  2  0  0  0  0
  8  3  1  0  0  0  0
  9 10  1  0  0  0  0
  9  5  1  0  0  0  0
 10 15  1  0  0  0  0
 11 16  1  0  0  0  0
 11 10  2  0  0  0  0
 12 11  1  0  0  0  0
 13 12  2  0  0  0  0
 13 14  1  0  0  0  0
 14  9  2  0  0  0  0
 17 12  1  0  0  0  0
 18 13  1  0  0  0  0
 19 21  1  0  0  0  0
 19 20  1  0  0  0  0
 21 20  1  0  0  0  0
M  END
>  <minimizedAffinity>
-4.25831318

$$$$

 OpenBabel03272504493D

 21 23  0  0  0  0  0  0  0  0999 V2000
   39.4510   23.8360   34.2720 C   0  0  0  0  0  0  0  0  0  0  0  0
   39.3620   23.5430   35.6460 C   0  0  0  0  0  0  0  0  0  0  0  0
   38.4990   24.3230   36.4180 C   0  0  0  0  0  0  0  0  0  0  0  0
   37.7930   25.3180   35.7980 N   0  0  0  0  0  0  0  0  0  0  0  0
   37.9050   25.5690   34.4730 C   0  0  0  0  0  0  0  0  0  0  0  0
   38.7340   24.8220   33.7330 N   0  0  0  0  0  0  0  0  0  0  0  0
   40.1170   23.2400   33.6580 H   0  0  0  0  0  0  0  0  0  0  0  0
   38.3940   24.1370   37.4810 H   0  0  0  0  0  0  0  0  0  0  0  0
   37.1290   26.6410   33.8740 C   0  0  0  0  0  0  0  0  0  0  0  0
   36.8030   27.7420   34.6340 C   0  0  0  0  0  0  0  0  0  0  0  0
   36.0630   28.7910   34.1070 C   0  0  0  0  0  0  0  0  0  0  0  0
   35.6880   28.6480   32.7830 C   0  0  0  0  0  0  0  0  0  0  0  0
   36.0050   27.5470   31.9970 C   0  0  0  0  0  0  0  0  0  0  0  0
   36.7370   26.5610   32.5980 N   0  0  0  0  0  0  0  0  0  0  0  0
   37.0950   27.8620   35.6760 H   0  0  0  0  0  0  0  0  0  0  0  0
   35.7900   29.6680   34.6790 H   0  0  0  0  0  0  0  0  0  0  0  0
   35.1020   29.4270   32.2850 H   0  0  0  0  0  0  0  0  0  0  0  0
   35.6820   27.4940   30.9660 H   0  0  0  0  0  0  0  0  0  0  0  0
   40.1600   22.4480   36.2400 C   0  0  0  0  0  3  0  0  0  0  0  0
   40.4980   22.4260   37.6630 C   0  0  0  0  0  2  0  0  0  0  0  0
   41.5630   22.8160   36.7010 C   0  0  0  0  0  2  0  0  0  0  0  0
  1  2  1  0  0  0  0
  2 19  1  0  0  0  0
  2  3  2  0  0  0  0
  3  8  1  0  0  0  0
  4  3  1  0  0  0  0
  5  4  2  0  0  0  0
  6  1  2  0  0  0  0
  6  5  1  0  0  0  0
  7  1  1  0  0  0  0
  9  5  1  0  0  0  0
  9 10  1  0  0  0  0
 10 15  1  0  0  0  0
 11 10  2  0  0  0  0
 11 16  1  0  0  0  0
 12 11  1  0  0  0  0
 13 14  1  0  0  0  0
 13 12  2  0  0  0  0
 14  9  2  0  0  0  0
 17 12  1  0  0  0  0
 18 13  1  0  0  0  0
 19 21  1  0  0  0  0
 19 20  1  0  0  0  0
 21 20  1  0  0  0  0
M  END
>  <minimizedAffinity>
-4.25496531

$$$$

 OpenBabel03272504493D

 21 23  0  0  0  0  0  0  0  0999 V2000
   38.2940   23.8650   34.6020 C   0  0  0  0  0  0  0  0  0  0  0  0
   38.3400   24.0670   35.9950 C   0  0  0  0  0  0  0  0  0  0  0  0
   38.0450   25.3460   36.4710 C   0  0  0  0  0  0  0  0  0  0  0  0
   37.7290   26.3200   35.5630 N   0  0  0  0  0  0  0  0  0  0  0  0
   37.6940   26.0860   34.2310 C   0  0  0  0  0  0  0  0  0  0  0  0
   37.9780   24.8600   33.7740 N   0  0  0  0  0  0  0  0  0  0  0  0
   38.5210   22.8770   34.2170 H   0  0  0  0  0  0  0  0  0  0  0  0
   38.0660   25.5540   37.5350 H   0  0  0  0  0  0  0  0  0  0  0  0
   37.3510   27.1620   33.3180 C   0  0  0  0  0  0  0  0  0  0  0  0
   36.4170   28.0990   33.7010 C   0  0  0  0  0  0  0  0  0  0  0  0
   36.0560   29.1450   32.8650 C   0  0  0  0  0  0  0  0  0  0  0  0
   36.6970   29.1750   31.6390 C   0  0  0  0  0  0  0  0  0  0  0  0
   37.6420   28.2420   31.2310 C   0  0  0  0  0  0  0  0  0  0  0  0
   37.9370   27.2450   32.1190 N   0  0  0  0  0  0  0  0  0  0  0  0
   35.9090   28.0820   34.6640 H   0  0  0  0  0  0  0  0  0  0  0  0
   35.3250   29.8950   33.1370 H   0  0  0  0  0  0  0  0  0  0  0  0
   36.4740   29.9650   30.9150 H   0  0  0  0  0  0  0  0  0  0  0  0
   38.1090   28.3200   30.2580 H   0  0  0  0  0  0  0  0  0  0  0  0
   38.6910   22.9600   36.9110 C   0  0  0  0  0  3  0  0  0  0  0  0
   39.1410   23.2070   38.2810 C   0  0  0  0  0  2  0  0  0  0  0  0
   40.1640   22.8290   37.2700 C   0  0  0  0  0  2  0  0  0  0  0  0
  1  2  1  0  0  0  0
  2  3  2  0  0  0  0
  2 19  1  0  0  0  0
  3  8  1  0  0  0  0
  4  3  1  0  0  0  0
  5  4  2  0  0  0  0
  6  5  1  0  0  0  0
  6  1  2  0  0  0  0
  7  1  1  0  0  0  0
  9 10  1  0  0  0  0
  9  5  1  0  0  0  0
 10 15  1  0  0  0  0
 11 16  1  0  0  0  0
 11 10  2  0  0  0  0
 12 11  1  0  0  0  0
 13 12  2  0  0  0  0
 13 14  1  0  0  0  0
 14  9  2  0  0  0  0
 17 12  1  0  0  0  0
 18 13  1  0  0  0  0
 19 21  1  0  0  0  0
 19 20  1  0  0  0  0
 21 20  1  0  0  0  0
M  END
>  <minimizedAffinity>
-4.24385977

$$$$

 OpenBabel03272504493D

 21 23  0  0  0  0  0  0  0  0999 V2000
   37.9920   25.3620   36.4130 C   0  0  0  0  0  0  0  0  0  0  0  0
   38.2440   24.0310   36.0300 C   0  0  0  0  0  0  0  0  0  0  0  0
   38.2210   23.7360   34.6650 C   0  0  0  0  0  0  0  0  0  0  0  0
   37.9580   24.7520   33.7860 N   0  0  0  0  0  0  0  0  0  0  0  0
   37.7220   26.0200   34.1930 C   0  0  0  0  0  0  0  0  0  0  0  0
   37.7430   26.3030   35.5020 N   0  0  0  0  0  0  0  0  0  0  0  0
   38.0060   25.6070   37.4690 H   0  0  0  0  0  0  0  0  0  0  0  0
   38.4090   22.7260   34.3190 H   0  0  0  0  0  0  0  0  0  0  0  0
   37.4490   27.0540   33.2110 C   0  0  0  0  0  0  0  0  0  0  0  0
   38.2090   27.1100   32.0630 C   0  0  0  0  0  0  0  0  0  0  0  0
   37.9870   28.0780   31.0960 C   0  0  0  0  0  0  0  0  0  0  0  0
   36.9610   28.9670   31.3670 C   0  0  0  0  0  0  0  0  0  0  0  0
   36.1810   28.9300   32.5160 C   0  0  0  0  0  0  0  0  0  0  0  0
   36.4700   27.9420   33.4160 N   0  0  0  0  0  0  0  0  0  0  0  0
   39.0170   26.4150   31.8430 H   0  0  0  0  0  0  0  0  0  0  0  0
   38.5670   28.1490   30.1850 H   0  0  0  0  0  0  0  0  0  0  0  0
   36.7150   29.7640   30.6580 H   0  0  0  0  0  0  0  0  0  0  0  0
   35.3930   29.6530   32.6700 H   0  0  0  0  0  0  0  0  0  0  0  0
   38.5200   22.9900   37.0440 C   0  0  0  0  0  3  0  0  0  0  0  0
   38.9060   23.3320   38.4130 C   0  0  0  0  0  2  0  0  0  0  0  0
   39.9690   22.8560   37.4890 C   0  0  0  0  0  2  0  0  0  0  0  0
  1  7  1  0  0  0  0
  2  1  1  0  0  0  0
  2 19  1  0  0  0  0
  3  2  2  0  0  0  0
  4  5  2  0  0  0  0
  4  3  1  0  0  0  0
  5  6  1  0  0  0  0
  6  1  2  0  0  0  0
  8  3  1  0  0  0  0
  9 14  1  0  0  0  0
  9  5  1  0  0  0  0
 10  9  2  0  0  0  0
 11 12  2  0  0  0  0
 11 10  1  0  0  0  0
 12 13  1  0  0  0  0
 13 18  1  0  0  0  0
 13 14  2  0  0  0  0
 15 10  1  0  0  0  0
 16 11  1  0  0  0  0
 17 12  1  0  0  0  0
 19 21  1  0  0  0  0
 19 20  1  0  0  0  0
 21 20  1  0  0  0  0
M  END
>  <minimizedAffinity>
-4.24024057

$$$$

 OpenBabel03272504493D

 21 23  0  0  0  0  0  0  0  0999 V2000
   38.4810   24.4640   34.1730 C   0  0  0  0  0  0  0  0  0  0  0  0
   38.0050   25.6790   33.6450 C   0  0  0  0  0  0  0  0  0  0  0  0
   37.0630   25.6110   32.6170 C   0  0  0  0  0  0  0  0  0  0  0  0
   36.6590   24.3760   32.1870 N   0  0  0  0  0  0  0  0  0  0  0  0
   37.1390   23.2300   32.7200 C   0  0  0  0  0  0  0  0  0  0  0  0
   38.0440   23.2950   33.7060 N   0  0  0  0  0  0  0  0  0  0  0  0
   39.2130   24.5000   34.9720 H   0  0  0  0  0  0  0  0  0  0  0  0
   36.6650   26.5180   32.1760 H   0  0  0  0  0  0  0  0  0  0  0  0
   36.6710   21.9500   32.2200 C   0  0  0  0  0  0  0  0  0  0  0  0
   35.3500   21.6020   32.3910 C   0  0  0  0  0  0  0  0  0  0  0  0
   34.8550   20.3910   31.9310 C   0  0  0  0  0  0  0  0  0  0  0  0
   35.7750   19.5740   31.2970 C   0  0  0  0  0  0  0  0  0  0  0  0
   37.1120   19.9030   31.1120 C   0  0  0  0  0  0  0  0  0  0  0  0
   37.5130   21.1170   31.5980 N   0  0  0  0  0  0  0  0  0  0  0  0
   34.6200   22.2390   32.8880 H   0  0  0  0  0  0  0  0  0  0  0  0
   33.8220   20.0890   32.0510 H   0  0  0  0  0  0  0  0  0  0  0  0
   35.4720   18.5990   30.9020 H   0  0  0  0  0  0  0  0  0  0  0  0
   37.7820   19.2210   30.6080 H   0  0  0  0  0  0  0  0  0  0  0  0
   38.4930   26.9740   34.1660 C   0  0  0  0  0  3  0  0  0  0  0  0
   39.2430   27.0670   35.4190 C   0  0  0  0  0  2  0  0  0  0  0  0
   37.8160   27.4850   35.4300 C   0  0  0  0  0  2  0  0  0  0  0  0
  1  7  1  0  0  0  0
  2 19  1  0  0  0  0
  2  1  2  0  0  0  0
  3  2  1  0  0  0  0
  4  3  2  0  0  0  0
  4  5  1  0  0  0  0
  5  6  2  0  0  0  0
  6  1  1  0  0  0  0
  8  3  1  0  0  0  0
  9 10  1  0  0  0  0
  9  5  1  0  0  0  0
 10 15  1  0  0  0  0
 11 16  1  0  0  0  0
 11 10  2  0  0  0  0
 12 11  1  0  0  0  0
 13 12  2  0  0  0  0
 13 14  1  0  0  0  0
 14  9  2  0  0  0  0
 17 12  1  0  0  0  0
 18 13  1  0  0  0  0
 19 20  1  0  0  0  0
 19 21  1  0  0  0  0
 20 21  1  0  0  0  0
M  END
>  <minimizedAffinity>
-4.19380999

$$$$
