
 OpenBabel03272506563D

 14 15  0  0  0  0  0  0  0  0999 V2000
   39.0760   23.2410   37.6200 C   0  0  0  0  0  0  0  0  0  0  0  0
   40.2220   22.5920   37.1390 C   0  0  0  0  0  0  0  0  0  0  0  0
   40.7760   23.0910   35.9340 C   0  0  0  0  0  0  0  0  0  0  0  0
   40.1800   24.1500   35.3220 N   0  0  0  0  0  0  0  0  0  0  0  0
   39.0840   24.7240   35.8360 C   0  0  0  0  0  0  0  0  0  0  0  0
   38.5050   24.3000   36.9780 N   0  0  0  0  0  0  0  0  0  0  0  0
   38.6890   22.8240   38.5420 H   0  0  0  0  0  0  0  0  0  0  0  0
   41.6510   22.6310   35.5250 H   0  0  0  0  0  0  0  0  0  0  0  0
   40.7930   21.4940   37.8270 N   0  0  0  0  0  0  0  0  0  0  0  0
   41.7990   21.3280   38.0090 H   0  0  0  0  0  0  0  0  0  0  0  0
   40.1130   20.7760   38.1890 H   0  0  0  0  0  0  0  0  0  0  0  0
   38.4400   25.8810   35.1580 C   0  0  0  0  0  3  0  0  0  0  0  0
   39.3740   27.0870   34.9410 C   0  0  0  0  0  2  0  0  0  0  0  0
   38.1800   27.1340   35.9050 C   0  0  0  0  0  2  0  0  0  0  0  0
  1  7  1  0  0  0  0
  2  1  1  0  0  0  0
  2  9  1  0  0  0  0
  3  2  2  0  0  0  0
  4  5  2  0  0  0  0
  4  3  1  0  0  0  0
  5  6  1  0  0  0  0
  6  1  2  0  0  0  0
  8  3  1  0  0  0  0
  9 10  1  0  0  0  0
  9 11  1  0  0  0  0
 12  5  1  0  0  0  0
 12 14  1  0  0  0  0
 13 12  1  0  0  0  0
 13 14  1  0  0  0  0
M  END
>  <minimizedAffinity>
-3.86535168

$$$$

 OpenBabel03272506563D

 14 15  0  0  0  0  0  0  0  0999 V2000
   40.8920   23.3040   36.0660 C   0  0  0  0  0  0  0  0  0  0  0  0
   40.1640   22.6820   37.0910 C   0  0  0  0  0  0  0  0  0  0  0  0
   38.8790   23.2110   37.3680 C   0  0  0  0  0  0  0  0  0  0  0  0
   38.4300   24.2710   36.6420 N   0  0  0  0  0  0  0  0  0  0  0  0
   39.1790   24.8190   35.6750 C   0  0  0  0  0  0  0  0  0  0  0  0
   40.4090   24.3650   35.3590 N   0  0  0  0  0  0  0  0  0  0  0  0
   41.8670   22.8640   35.8920 H   0  0  0  0  0  0  0  0  0  0  0  0
   38.2830   22.7730   38.1410 H   0  0  0  0  0  0  0  0  0  0  0  0
   40.6910   21.5810   37.8090 N   0  0  0  0  0  0  0  0  0  0  0  0
   40.1910   20.7130   38.0720 H   0  0  0  0  0  0  0  0  0  0  0  0
   41.6990   21.6640   38.1000 H   0  0  0  0  0  0  0  0  0  0  0  0
   38.6790   25.9770   34.8880 C   0  0  0  0  0  3  0  0  0  0  0  0
   38.6730   27.3110   35.6590 C   0  0  0  0  0  2  0  0  0  0  0  0
   37.3800   26.6050   35.2260 C   0  0  0  0  0  2  0  0  0  0  0  0
  1  2  1  0  0  0  0
  2  3  2  0  0  0  0
  2  9  1  0  0  0  0
  3  8  1  0  0  0  0
  4  3  1  0  0  0  0
  5  4  2  0  0  0  0
  6  5  1  0  0  0  0
  6  1  2  0  0  0  0
  7  1  1  0  0  0  0
  9 10  1  0  0  0  0
  9 11  1  0  0  0  0
 12 14  1  0  0  0  0
 12 13  1  0  0  0  0
 12  5  1  0  0  0  0
 14 13  1  0  0  0  0
M  END
>  <minimizedAffinity>
-3.7835207

$$$$

 OpenBabel03272506563D

 14 15  0  0  0  0  0  0  0  0999 V2000
   38.0310   24.4690   37.4290 C   0  0  0  0  0  0  0  0  0  0  0  0
   38.7880   23.3460   37.7910 C   0  0  0  0  0  0  0  0  0  0  0  0
   39.8530   22.9910   36.9250 C   0  0  0  0  0  0  0  0  0  0  0  0
   40.0780   23.7430   35.8130 N   0  0  0  0  0  0  0  0  0  0  0  0
   39.3140   24.8060   35.5260 C   0  0  0  0  0  0  0  0  0  0  0  0
   38.2860   25.1990   36.3050 N   0  0  0  0  0  0  0  0  0  0  0  0
   37.2300   24.7000   38.1210 H   0  0  0  0  0  0  0  0  0  0  0  0
   40.4600   22.1430   37.1560 H   0  0  0  0  0  0  0  0  0  0  0  0
   38.5000   22.6060   38.9640 N   0  0  0  0  0  0  0  0  0  0  0  0
   39.1810   22.2440   39.6540 H   0  0  0  0  0  0  0  0  0  0  0  0
   37.4810   22.4120   39.1430 H   0  0  0  0  0  0  0  0  0  0  0  0
   39.5690   25.6210   34.3080 C   0  0  0  0  0  3  0  0  0  0  0  0
   40.6030   26.7460   34.5050 C   0  0  0  0  0  2  0  0  0  0  0  0
   39.1170   27.0310   34.2440 C   0  0  0  0  0  2  0  0  0  0  0  0
  1  2  1  0  0  0  0
  1  7  1  0  0  0  0
  2  9  1  0  0  0  0
  3  8  1  0  0  0  0
  3  2  2  0  0  0  0
  4  3  1  0  0  0  0
  5  4  2  0  0  0  0
  5  6  1  0  0  0  0
  6  1  2  0  0  0  0
  9 11  1  0  0  0  0
  9 10  1  0  0  0  0
 12 13  1  0  0  0  0
 12  5  1  0  0  0  0
 14 12  1  0  0  0  0
 14 13  1  0  0  0  0
M  END
>  <minimizedAffinity>
-3.5763495

$$$$

 OpenBabel03272506563D

 14 15  0  0  0  0  0  0  0  0999 V2000
   36.6730   25.5010   32.3250 C   0  0  0  0  0  0  0  0  0  0  0  0
   36.0780   26.4720   31.5070 C   0  0  0  0  0  0  0  0  0  0  0  0
   36.0500   27.7970   32.0090 C   0  0  0  0  0  0  0  0  0  0  0  0
   36.5910   28.0500   33.2320 N   0  0  0  0  0  0  0  0  0  0  0  0
   37.1450   27.0740   33.9640 C   0  0  0  0  0  0  0  0  0  0  0  0
   37.2050   25.7930   33.5470 N   0  0  0  0  0  0  0  0  0  0  0  0
   36.6700   24.5050   31.8990 H   0  0  0  0  0  0  0  0  0  0  0  0
   35.6070   28.5740   31.4240 H   0  0  0  0  0  0  0  0  0  0  0  0
   35.5330   26.1400   30.2420 N   0  0  0  0  0  0  0  0  0  0  0  0
   35.6410   26.6700   29.3590 H   0  0  0  0  0  0  0  0  0  0  0  0
   34.9610   25.2570   30.2080 H   0  0  0  0  0  0  0  0  0  0  0  0
   37.7330   27.3630   35.2990 C   0  0  0  0  0  3  0  0  0  0  0  0
   39.2580   27.1590   35.3760 C   0  0  0  0  0  2  0  0  0  0  0  0
   38.2700   26.2610   36.1330 C   0  0  0  0  0  2  0  0  0  0  0  0
  1  6  1  0  0  0  0
  2  3  1  0  0  0  0
  2  1  2  0  0  0  0
  3  4  2  0  0  0  0
  4  5  1  0  0  0  0
  5 12  1  0  0  0  0
  6  5  2  0  0  0  0
  7  1  1  0  0  0  0
  8  3  1  0  0  0  0
  9  2  1  0  0  0  0
 10  9  1  0  0  0  0
 11  9  1  0  0  0  0
 12 13  1  0  0  0  0
 12 14  1  0  0  0  0
 13 14  1  0  0  0  0
M  END
>  <minimizedAffinity>
-3.57552147

$$$$

 OpenBabel03272506563D

 14 15  0  0  0  0  0  0  0  0999 V2000
   36.0270   27.6980   32.0390 C   0  0  0  0  0  0  0  0  0  0  0  0
   36.0330   26.3940   31.5230 C   0  0  0  0  0  0  0  0  0  0  0  0
   36.6360   25.3950   32.3280 C   0  0  0  0  0  0  0  0  0  0  0  0
   37.1630   25.7470   33.5320 N   0  0  0  0  0  0  0  0  0  0  0  0
   37.1230   27.0150   33.9660 C   0  0  0  0  0  0  0  0  0  0  0  0
   36.5660   28.0130   33.2510 N   0  0  0  0  0  0  0  0  0  0  0  0
   35.5570   28.4250   31.3880 H   0  0  0  0  0  0  0  0  0  0  0  0
   36.6670   24.3850   31.9800 H   0  0  0  0  0  0  0  0  0  0  0  0
   35.4660   26.0950   30.2600 N   0  0  0  0  0  0  0  0  0  0  0  0
   34.8650   25.2860   30.0240 H   0  0  0  0  0  0  0  0  0  0  0  0
   35.6840   26.7760   29.4880 H   0  0  0  0  0  0  0  0  0  0  0  0
   37.7030   27.3880   35.2830 C   0  0  0  0  0  3  0  0  0  0  0  0
   39.2280   27.1890   35.3820 C   0  0  0  0  0  2  0  0  0  0  0  0
   38.2340   26.3420   36.1890 C   0  0  0  0  0  2  0  0  0  0  0  0
  1  6  1  0  0  0  0
  2  1  2  0  0  0  0
  2  3  1  0  0  0  0
  3  4  2  0  0  0  0
  4  5  1  0  0  0  0
  5 12  1  0  0  0  0
  6  5  2  0  0  0  0
  7  1  1  0  0  0  0
  8  3  1  0  0  0  0
  9  2  1  0  0  0  0
 10  9  1  0  0  0  0
 11  9  1  0  0  0  0
 12 13  1  0  0  0  0
 12 14  1  0  0  0  0
 13 14  1  0  0  0  0
M  END
>  <minimizedAffinity>
-3.55672884

$$$$

 OpenBabel03272506563D

 14 15  0  0  0  0  0  0  0  0999 V2000
   36.4340   28.4960   31.9300 C   0  0  0  0  0  0  0  0  0  0  0  0
   36.7350   27.5240   30.9660 C   0  0  0  0  0  0  0  0  0  0  0  0
   37.2140   26.2790   31.4460 C   0  0  0  0  0  0  0  0  0  0  0  0
   37.3530   26.0980   32.7870 N   0  0  0  0  0  0  0  0  0  0  0  0
   37.0470   27.0710   33.6560 C   0  0  0  0  0  0  0  0  0  0  0  0
   36.5870   28.2780   33.2680 N   0  0  0  0  0  0  0  0  0  0  0  0
   36.0720   29.4290   31.5160 H   0  0  0  0  0  0  0  0  0  0  0  0
   37.4580   25.5050   30.7500 H   0  0  0  0  0  0  0  0  0  0  0  0
   36.5670   27.7780   29.5820 N   0  0  0  0  0  0  0  0  0  0  0  0
   36.1520   27.1420   28.8790 H   0  0  0  0  0  0  0  0  0  0  0  0
   36.9010   28.7180   29.2460 H   0  0  0  0  0  0  0  0  0  0  0  0
   37.2040   26.8630   35.1200 C   0  0  0  0  0  3  0  0  0  0  0  0
   38.5620   27.3250   35.6830 C   0  0  0  0  0  2  0  0  0  0  0  0
   38.1540   25.8460   35.6320 C   0  0  0  0  0  2  0  0  0  0  0  0
  1  6  1  0  0  0  0
  2  3  1  0  0  0  0
  2  1  2  0  0  0  0
  3  4  2  0  0  0  0
  4  5  1  0  0  0  0
  5 12  1  0  0  0  0
  6  5  2  0  0  0  0
  7  1  1  0  0  0  0
  8  3  1  0  0  0  0
  9  2  1  0  0  0  0
 10  9  1  0  0  0  0
 11  9  1  0  0  0  0
 12 14  1  0  0  0  0
 12 13  1  0  0  0  0
 14 13  1  0  0  0  0
M  END
>  <minimizedAffinity>
-3.44686818

$$$$

 OpenBabel03272506563D

 14 15  0  0  0  0  0  0  0  0999 V2000
   40.3090   25.2060   34.8240 C   0  0  0  0  0  0  0  0  0  0  0  0
   40.0930   26.5750   34.6140 C   0  0  0  0  0  0  0  0  0  0  0  0
   39.0300   27.1700   35.3370 C   0  0  0  0  0  0  0  0  0  0  0  0
   38.2910   26.3970   36.1800 N   0  0  0  0  0  0  0  0  0  0  0  0
   38.5510   25.0920   36.3340 C   0  0  0  0  0  0  0  0  0  0  0  0
   39.5470   24.4630   35.6770 N   0  0  0  0  0  0  0  0  0  0  0  0
   41.1310   24.7970   34.2490 H   0  0  0  0  0  0  0  0  0  0  0  0
   38.8240   28.2110   35.2120 H   0  0  0  0  0  0  0  0  0  0  0  0
   40.9010   27.3220   33.7210 N   0  0  0  0  0  0  0  0  0  0  0  0
   41.2960   28.2660   33.8810 H   0  0  0  0  0  0  0  0  0  0  0  0
   41.1160   26.8580   32.8010 H   0  0  0  0  0  0  0  0  0  0  0  0
   37.7380   24.2570   37.2570 C   0  0  0  0  0  3  0  0  0  0  0  0
   37.9430   24.5800   38.7500 C   0  0  0  0  0  2  0  0  0  0  0  0
   38.3920   23.2510   38.1270 C   0  0  0  0  0  2  0  0  0  0  0  0
  1  6  1  0  0  0  0
  2  1  2  0  0  0  0
  2  3  1  0  0  0  0
  3  4  2  0  0  0  0
  4  5  1  0  0  0  0
  5 12  1  0  0  0  0
  6  5  2  0  0  0  0
  7  1  1  0  0  0  0
  8  3  1  0  0  0  0
  9 10  1  0  0  0  0
  9  2  1  0  0  0  0
 11  9  1  0  0  0  0
 12 14  1  0  0  0  0
 12 13  1  0  0  0  0
 14 13  1  0  0  0  0
M  END
>  <minimizedAffinity>
-3.39048886

$$$$

 OpenBabel03272506563D

 14 15  0  0  0  0  0  0  0  0999 V2000
   38.5010   27.5610   31.0600 C   0  0  0  0  0  0  0  0  0  0  0  0
   37.1390   27.6470   30.7370 C   0  0  0  0  0  0  0  0  0  0  0  0
   36.2210   27.2720   31.7500 C   0  0  0  0  0  0  0  0  0  0  0  0
   36.6990   26.8580   32.9550 N   0  0  0  0  0  0  0  0  0  0  0  0
   38.0160   26.8000   33.1980 C   0  0  0  0  0  0  0  0  0  0  0  0
   38.9440   27.1410   32.2800 N   0  0  0  0  0  0  0  0  0  0  0  0
   39.1630   27.8570   30.2560 H   0  0  0  0  0  0  0  0  0  0  0  0
   35.1710   27.3190   31.5540 H   0  0  0  0  0  0  0  0  0  0  0  0
   36.7080   28.0860   29.4620 N   0  0  0  0  0  0  0  0  0  0  0  0
   35.9360   28.7460   29.2590 H   0  0  0  0  0  0  0  0  0  0  0  0
   37.2370   27.6950   28.6400 H   0  0  0  0  0  0  0  0  0  0  0  0
   38.5280   26.3460   34.5180 C   0  0  0  0  0  3  0  0  0  0  0  0
   38.4700   27.4200   35.6220 C   0  0  0  0  0  2  0  0  0  0  0  0
   39.7960   26.8930   35.0560 C   0  0  0  0  0  2  0  0  0  0  0  0
  1  6  1  0  0  0  0
  2  1  2  0  0  0  0
  2  3  1  0  0  0  0
  3  4  2  0  0  0  0
  4  5  1  0  0  0  0
  5 12  1  0  0  0  0
  6  5  2  0  0  0  0
  7  1  1  0  0  0  0
  8  3  1  0  0  0  0
  9  2  1  0  0  0  0
 10  9  1  0  0  0  0
 11  9  1  0  0  0  0
 12 14  1  0  0  0  0
 12 13  1  0  0  0  0
 14 13  1  0  0  0  0
M  END
>  <minimizedAffinity>
-3.3386569

$$$$

 OpenBabel03272506563D

 14 15  0  0  0  0  0  0  0  0999 V2000
   36.2610   27.2830   31.7830 C   0  0  0  0  0  0  0  0  0  0  0  0
   37.1420   27.7080   30.7780 C   0  0  0  0  0  0  0  0  0  0  0  0
   38.5240   27.6770   31.0900 C   0  0  0  0  0  0  0  0  0  0  0  0
   38.9150   27.2460   32.3200 N   0  0  0  0  0  0  0  0  0  0  0  0
   38.0190   26.8530   33.2360 C   0  0  0  0  0  0  0  0  0  0  0  0
   36.6900   26.8570   33.0060 N   0  0  0  0  0  0  0  0  0  0  0  0
   35.2170   27.3240   31.4990 H   0  0  0  0  0  0  0  0  0  0  0  0
   39.2370   27.9920   30.3570 H   0  0  0  0  0  0  0  0  0  0  0  0
   36.6680   28.1460   29.5170 N   0  0  0  0  0  0  0  0  0  0  0  0
   37.0570   27.9040   28.5880 H   0  0  0  0  0  0  0  0  0  0  0  0
   35.8300   28.7830   29.5390 H   0  0  0  0  0  0  0  0  0  0  0  0
   38.4570   26.3840   34.5770 C   0  0  0  0  0  3  0  0  0  0  0  0
   38.4420   27.4760   35.6650 C   0  0  0  0  0  2  0  0  0  0  0  0
   39.7440   26.8480   35.1470 C   0  0  0  0  0  2  0  0  0  0  0  0
  1  6  1  0  0  0  0
  2  3  1  0  0  0  0
  2  1  2  0  0  0  0
  3  4  2  0  0  0  0
  4  5  1  0  0  0  0
  5 12  1  0  0  0  0
  6  5  2  0  0  0  0
  7  1  1  0  0  0  0
  8  3  1  0  0  0  0
  9 11  1  0  0  0  0
  9  2  1  0  0  0  0
 10  9  1  0  0  0  0
 12 14  1  0  0  0  0
 12 13  1  0  0  0  0
 14 13  1  0  0  0  0
M  END
>  <minimizedAffinity>
-3.33791494

$$$$
