
 OpenBabel03272506563D

 14 15  0  0  0  0  0  0  0  0999 V2000
   38.5460   33.3150   48.7200 C   0  0  0  0  0  0  0  0  0  0  0  0
   39.0180   32.7210   47.5400 C   0  0  0  0  0  0  0  0  0  0  0  0
   38.6300   31.3790   47.3050 C   0  0  0  0  0  0  0  0  0  0  0  0
   37.8380   30.7510   48.2160 N   0  0  0  0  0  0  0  0  0  0  0  0
   37.4210   31.3780   49.3250 C   0  0  0  0  0  0  0  0  0  0  0  0
   37.7530   32.6540   49.6110 N   0  0  0  0  0  0  0  0  0  0  0  0
   38.8700   34.3400   48.8560 H   0  0  0  0  0  0  0  0  0  0  0  0
   38.9640   30.8810   46.4200 H   0  0  0  0  0  0  0  0  0  0  0  0
   39.8410   33.4320   46.6330 N   0  0  0  0  0  0  0  0  0  0  0  0
   39.7630   33.4450   45.6000 H   0  0  0  0  0  0  0  0  0  0  0  0
   40.6100   34.0060   47.0660 H   0  0  0  0  0  0  0  0  0  0  0  0
   36.5560   30.6830   50.3140 C   0  0  0  0  0  0  0  0  0  0  0  0
   37.3300   29.9500   51.4270 C   0  0  0  0  0  0  0  0  0  0  0  0
   36.5170   29.2020   50.3610 C   0  0  0  0  0  0  0  0  0  0  0  0
  1  7  1  0  0  0  0
  1  6  1  0  0  0  0
  2  1  2  0  0  0  0
  3  2  1  0  0  0  0
  3  4  2  0  0  0  0
  4  5  1  0  0  0  0
  5  6  2  0  0  0  0
  5 12  1  0  0  0  0
  8  3  1  0  0  0  0
  9 11  1  0  0  0  0
  9  2  1  0  0  0  0
 10  9  1  0  0  0  0
 12 14  1  0  0  0  0
 12 13  1  0  0  0  0
 14 13  1  0  0  0  0
M  END
>  <minimizedAffinity>
-4.44932795

>  <minimizedRMSD>
4.04259253

$$$$
