
 OpenBabel03272510273D

 39 43  0  0  1  0  0  0  0  0999 V2000
   36.3670   30.3070   46.1710 C   0  0  0  0  0  0  0  0  0  0  0  0
   37.2880   30.9030   47.0310 C   0  0  0  0  0  0  0  0  0  0  0  0
   38.2350   31.8070   46.5560 C   0  0  0  0  0  0  0  0  0  0  0  0
   38.2090   32.0800   45.1920 C   0  0  0  0  0  0  0  0  0  0  0  0
   39.0210   32.9240   44.4910 N   0  0  0  0  0  0  0  0  0  0  0  0
   38.6200   32.8630   43.2110 C   0  0  0  0  0  0  0  0  0  0  0  0
   37.6080   32.0250   43.1020 N   0  0  0  0  0  0  0  0  0  0  0  0
   37.3150   31.5130   44.3090 C   0  0  0  0  0  0  0  0  0  0  0  0
   36.3760   30.6070   44.8190 C   0  0  0  0  0  0  0  0  0  0  0  0
   35.6230   29.6070   46.4940 H   0  0  0  0  0  0  0  0  0  0  0  0
   38.9380   32.2590   47.2250 H   0  0  0  0  0  0  0  0  0  0  0  0
   39.7870   33.4900   44.8800 H   0  0  0  0  0  0  0  0  0  0  0  0
   35.6720   30.1580   44.1310 H   0  0  0  0  0  0  0  0  0  0  0  0
   37.8450   30.6660   50.7390 C   0  0  0  0  0  0  0  0  0  0  0  0
   38.0070   31.0980   49.4320 C   0  0  0  0  0  0  0  0  0  0  0  0
   37.2180   30.5420   48.4310 C   0  0  0  0  0  0  0  0  0  0  0  0
   36.3180   29.5860   48.8060 N   0  0  0  0  0  0  0  0  0  0  0  0
   36.1680   29.1730   50.0780 C   0  0  0  0  0  0  0  0  0  0  0  0
   36.9150   29.7020   51.0210 N   0  0  0  0  0  0  0  0  0  0  0  0
   38.4520   31.0920   51.5280 H   0  0  0  0  0  0  0  0  0  0  0  0
   38.7260   31.8590   49.1440 H   0  0  0  0  0  0  0  0  0  0  0  0
   35.4300   28.4020   50.3240 H   0  0  0  0  0  0  0  0  0  0  0  0
   39.2350   33.6070   42.2030 O   0  0  0  0  0  0  0  0  0  0  0  0
   38.6020   32.3320   40.4010 N   0  0  0  0  0  0  0  0  0  0  0  0
   38.5370   33.6530   40.9680 C   0  0  1  0  0  0  0  0  0  0  0  0
   37.1540   34.0660   41.1620 C   0  0  0  0  0  0  0  0  0  0  0  0
   36.5250   34.1240   39.9070 O   0  0  0  0  0  0  0  0  0  0  0  0
   36.5900   32.9800   39.1660 C   0  0  0  0  0  0  0  0  0  0  0  0
   37.9890   32.4030   39.1070 C   0  0  1  0  0  0  0  0  0  0  0  0
   38.4330   31.5290   40.9530 H   0  0  0  0  0  0  0  0  0  0  0  0
   39.0580   34.3440   40.2890 H   0  0  0  0  0  0  0  0  0  0  0  0
   36.4460   33.5660   41.7680 H   0  0  0  0  0  0  0  0  0  0  0  0
   37.1620   35.1470   41.4980 H   0  0  0  0  0  0  0  0  0  0  0  0
   36.3330   33.2440   38.1240 H   0  0  0  0  0  0  0  0  0  0  0  0
   35.8910   32.2240   39.6050 H   0  0  0  0  0  0  0  0  0  0  0  0
   37.9110   31.3790   38.7070 H   0  0  0  0  0  0  0  0  0  0  0  0
   38.8110   33.2180   38.1370 C   0  0  0  0  0  3  0  0  0  0  0  0
   40.1870   32.7530   37.7870 C   0  0  0  0  0  2  0  0  0  0  0  0
   39.1030   32.6000   36.7820 C   0  0  0  0  0  2  0  0  0  0  0  0
  1 10  1  0  0  0  0
  1  2  1  0  0  0  0
  2 16  1  0  0  0  0
  3  2  2  0  0  0  0
  3 11  1  0  0  0  0
  4  3  1  0  0  0  0
  5 12  1  0  0  0  0
  5  4  1  0  0  0  0
  6  5  1  0  0  0  0
  7  6  2  0  0  0  0
  7  8  1  0  0  0  0
  8  9  1  0  0  0  0
  8  4  2  0  0  0  0
  9  1  2  0  0  0  0
 13  9  1  0  0  0  0
 14 19  1  0  0  0  0
 14 20  1  0  0  0  0
 15 14  2  0  0  0  0
 16 17  2  0  0  0  0
 16 15  1  0  0  0  0
 17 18  1  0  0  0  0
 18 22  1  0  0  0  0
 18 19  2  0  0  0  0
 21 15  1  0  0  0  0
 23  6  1  0  0  0  0
 24 30  1  0  0  0  0
 24 25  1  0  0  0  0
 25 31  1  6  0  0  0
 25 26  1  0  0  0  0
 25 23  1  0  0  0  0
 26 33  1  0  0  0  0
 26 32  1  0  0  0  0
 27 26  1  0  0  0  0
 28 35  1  0  0  0  0
 28 27  1  0  0  0  0
 29 36  1  6  0  0  0
 29 28  1  0  0  0  0
 29 24  1  0  0  0  0
 34 28  1  0  0  0  0
 37 29  1  0  0  0  0
 38 37  1  0  0  0  0
 39 38  1  0  0  0  0
 39 37  1  0  0  0  0
M  END
>  <minimizedAffinity>
-5.09201241

>  <minimizedRMSD>
1.32915628

$$$$
