
 OpenBabel03272509003D

 22 24  0  0  0  0  0  0  0  0999 V2000
   38.6880   31.6460   49.0140 Cl  0  0  0  0  0  0  0  0  0  0  0  0
   37.3500   30.9140   48.1670 C   0  0  0  0  0  0  0  0  0  0  0  0
   37.3450   30.9030   46.7950 C   0  0  0  0  0  0  0  0  0  0  0  0
   36.3120   30.3410   46.1000 C   0  0  0  0  0  0  0  0  0  0  0  0
   35.2400   29.7660   46.7750 C   0  0  0  0  0  0  0  0  0  0  0  0
   35.2250   29.7680   48.1680 C   0  0  0  0  0  0  0  0  0  0  0  0
   33.9090   29.0880   49.0920 Cl  0  0  0  0  0  0  0  0  0  0  0  0
   36.2970   30.3500   48.8430 C   0  0  0  0  0  0  0  0  0  0  0  0
   36.2360   30.2920   45.0300 H   0  0  0  0  0  0  0  0  0  0  0  0
   34.4110   29.3160   46.2620 H   0  0  0  0  0  0  0  0  0  0  0  0
   39.3680   33.1550   44.7310 C   0  0  0  0  0  0  0  0  0  0  0  0
   40.6310   32.5370   44.7270 C   0  0  0  0  0  0  0  0  0  0  0  0
   40.7520   31.3400   45.4490 C   0  0  0  0  0  0  0  0  0  0  0  0
   39.6650   30.8570   46.0970 N   0  0  0  0  0  0  0  0  0  0  0  0
   38.4530   31.4950   46.0720 C   0  0  0  0  0  0  0  0  0  0  0  0
   38.3070   32.6500   45.3850 N   0  0  0  0  0  0  0  0  0  0  0  0
   39.3310   34.0710   44.1620 H   0  0  0  0  0  0  0  0  0  0  0  0
   41.4810   32.9360   44.2070 H   0  0  0  0  0  0  0  0  0  0  0  0
   41.6690   30.7880   45.5110 H   0  0  0  0  0  0  0  0  0  0  0  0
   36.4160   30.4340   50.3230 C   0  0  0  0  0  0  0  0  0  0  0  0
   37.2810   29.2870   50.8640 C   0  0  0  0  0  0  0  0  0  0  0  0
   35.8480   29.4920   51.2690 C   0  0  0  0  0  0  0  0  0  0  0  0
  2  8  1  0  0  0  0
  2  1  1  0  0  0  0
  3  2  2  0  0  0  0
  4  5  2  0  0  0  0
  4  3  1  0  0  0  0
  5  6  1  0  0  0  0
  6  8  2  0  0  0  0
  6  7  1  0  0  0  0
  8 20  1  0  0  0  0
  9  4  1  0  0  0  0
 10  5  1  0  0  0  0
 11 16  1  0  0  0  0
 12 11  2  0  0  0  0
 12 13  1  0  0  0  0
 13 19  1  0  0  0  0
 13 14  2  0  0  0  0
 15 14  1  0  0  0  0
 15  3  1  0  0  0  0
 16 15  2  0  0  0  0
 17 11  1  0  0  0  0
 18 12  1  0  0  0  0
 20 21  1  0  0  0  0
 20 22  1  0  0  0  0
 21 22  1  0  0  0  0
M  END
>  <minimizedAffinity>
-6.02829361

>  <minimizedRMSD>
3.12646365

$$$$
