
 OpenBabel03272504063D

 22 24  0  0  0  0  0  0  0  0999 V2000
   35.5790   28.6840   33.8680 Cl  0  0  0  0  0  0  0  0  0  0  0  0
   36.6620   28.5250   32.5100 C   0  0  0  0  0  0  0  0  0  0  0  0
   37.6490   27.5920   32.7000 C   0  0  0  0  0  0  0  0  0  0  0  0
   38.5810   27.3780   31.6690 C   0  0  0  0  0  0  0  0  0  0  0  0
   38.5200   28.0740   30.5030 C   0  0  0  0  0  0  0  0  0  0  0  0
   37.5230   29.0070   30.3310 C   0  0  0  0  0  0  0  0  0  0  0  0
   37.4140   29.9180   28.8470 Cl  0  0  0  0  0  0  0  0  0  0  0  0
   36.6190   29.2150   31.3260 C   0  0  0  0  0  0  0  0  0  0  0  0
   39.3920   26.6640   31.7280 H   0  0  0  0  0  0  0  0  0  0  0  0
   39.2200   27.9350   29.6890 H   0  0  0  0  0  0  0  0  0  0  0  0
   35.8100   29.9340   31.2570 H   0  0  0  0  0  0  0  0  0  0  0  0
   37.8520   25.3300   33.6910 C   0  0  0  0  0  0  0  0  0  0  0  0
   37.9080   26.7290   33.8680 C   0  0  0  0  0  0  0  0  0  0  0  0
   38.2060   27.2160   35.1460 C   0  0  0  0  0  0  0  0  0  0  0  0
   38.4260   26.3210   36.1470 N   0  0  0  0  0  0  0  0  0  0  0  0
   38.3630   24.9870   35.9340 C   0  0  0  0  0  0  0  0  0  0  0  0
   38.0750   24.4950   34.7040 N   0  0  0  0  0  0  0  0  0  0  0  0
   37.6230   24.9380   32.7100 H   0  0  0  0  0  0  0  0  0  0  0  0
   38.2440   28.2870   35.2660 H   0  0  0  0  0  0  0  0  0  0  0  0
   38.6190   24.0720   37.0880 C   0  0  0  0  0  3  0  0  0  0  0  0
   37.3590   23.2660   37.5250 C   0  0  0  0  0  2  0  0  0  0  0  0
   38.0030   24.3080   38.3960 C   0  0  0  0  0  2  0  0  0  0  0  0
  2  3  1  0  0  0  0
  2  1  1  0  0  0  0
  3 13  1  0  0  0  0
  4  9  1  0  0  0  0
  4  3  2  0  0  0  0
  5  4  1  0  0  0  0
  6  5  2  0  0  0  0
  6  8  1  0  0  0  0
  7  6  1  0  0  0  0
  8  2  2  0  0  0  0
 10  5  1  0  0  0  0
 11  8  1  0  0  0  0
 12 13  2  0  0  0  0
 12 17  1  0  0  0  0
 13 14  1  0  0  0  0
 14 19  1  0  0  0  0
 14 15  2  0  0  0  0
 16 15  1  0  0  0  0
 16 20  1  0  0  0  0
 17 16  2  0  0  0  0
 18 12  1  0  0  0  0
 20 21  1  0  0  0  0
 20 22  1  0  0  0  0
 21 22  1  0  0  0  0
M  END
>  <minimizedAffinity>
-4.76087856

$$$$

 OpenBabel03272504063D

 22 24  0  0  0  0  0  0  0  0999 V2000
   32.5930   29.3550   35.2720 Cl  0  0  0  0  0  0  0  0  0  0  0  0
   33.7220   30.6280   35.6550 C   0  0  0  0  0  0  0  0  0  0  0  0
   34.9090   30.5330   34.9740 C   0  0  0  0  0  0  0  0  0  0  0  0
   35.8980   31.5070   35.2030 C   0  0  0  0  0  0  0  0  0  0  0  0
   35.6970   32.5280   36.0780 C   0  0  0  0  0  0  0  0  0  0  0  0
   34.4990   32.6060   36.7530 C   0  0  0  0  0  0  0  0  0  0  0  0
   34.2070   33.9030   37.8820 Cl  0  0  0  0  0  0  0  0  0  0  0  0
   33.5410   31.6660   36.5320 C   0  0  0  0  0  0  0  0  0  0  0  0
   36.8630   31.5140   34.7130 H   0  0  0  0  0  0  0  0  0  0  0  0
   36.4340   33.2940   36.2790 H   0  0  0  0  0  0  0  0  0  0  0  0
   32.5770   31.6680   37.0290 H   0  0  0  0  0  0  0  0  0  0  0  0
   36.1970   28.4880   34.4250 C   0  0  0  0  0  0  0  0  0  0  0  0
   35.3440   29.5240   33.9890 C   0  0  0  0  0  0  0  0  0  0  0  0
   34.9610   29.5340   32.6420 C   0  0  0  0  0  0  0  0  0  0  0  0
   35.4270   28.5490   31.8280 N   0  0  0  0  0  0  0  0  0  0  0  0
   36.2440   27.5740   32.2870 C   0  0  0  0  0  0  0  0  0  0  0  0
   36.6270   27.5470   33.5870 N   0  0  0  0  0  0  0  0  0  0  0  0
   36.5030   28.4670   35.4620 H   0  0  0  0  0  0  0  0  0  0  0  0
   34.3090   30.3320   32.3240 H   0  0  0  0  0  0  0  0  0  0  0  0
   36.7110   26.5290   31.3260 C   0  0  0  0  0  3  0  0  0  0  0  0
   35.6690   25.3950   31.0940 C   0  0  0  0  0  2  0  0  0  0  0  0
   36.9920   25.1610   31.7690 C   0  0  0  0  0  2  0  0  0  0  0  0
  1  2  1  0  0  0  0
  2  8  1  0  0  0  0
  3  4  1  0  0  0  0
  3  2  2  0  0  0  0
  4  5  2  0  0  0  0
  5 10  1  0  0  0  0
  5  6  1  0  0  0  0
  6  7  1  0  0  0  0
  8  6  2  0  0  0  0
  8 11  1  0  0  0  0
  9  4  1  0  0  0  0
 12 18  1  0  0  0  0
 13 12  1  0  0  0  0
 13  3  1  0  0  0  0
 14 13  2  0  0  0  0
 15 16  2  0  0  0  0
 15 14  1  0  0  0  0
 16 17  1  0  0  0  0
 17 12  2  0  0  0  0
 19 14  1  0  0  0  0
 20 22  1  0  0  0  0
 20 16  1  0  0  0  0
 21 20  1  0  0  0  0
 21 22  1  0  0  0  0
M  END
>  <minimizedAffinity>
-4.68165779

$$$$

 OpenBabel03272504063D

 22 24  0  0  0  0  0  0  0  0999 V2000
   39.2660   26.5570   31.6080 Cl  0  0  0  0  0  0  0  0  0  0  0  0
   37.9630   27.6520   31.9880 C   0  0  0  0  0  0  0  0  0  0  0  0
   37.3890   27.4200   33.2120 C   0  0  0  0  0  0  0  0  0  0  0  0
   36.3270   28.2440   33.6260 C   0  0  0  0  0  0  0  0  0  0  0  0
   35.8660   29.2530   32.8410 C   0  0  0  0  0  0  0  0  0  0  0  0
   36.4540   29.4710   31.6150 C   0  0  0  0  0  0  0  0  0  0  0  0
   35.8880   30.7570   30.5820 Cl  0  0  0  0  0  0  0  0  0  0  0  0
   37.4820   28.6760   31.2130 C   0  0  0  0  0  0  0  0  0  0  0  0
   35.8140   28.1360   34.5730 H   0  0  0  0  0  0  0  0  0  0  0  0
   35.0520   29.9060   33.1270 H   0  0  0  0  0  0  0  0  0  0  0  0
   37.9900   28.7920   30.2620 H   0  0  0  0  0  0  0  0  0  0  0  0
   37.9480   26.8130   35.5490 C   0  0  0  0  0  0  0  0  0  0  0  0
   37.7200   26.3950   34.2210 C   0  0  0  0  0  0  0  0  0  0  0  0
   37.8210   25.0270   33.9380 C   0  0  0  0  0  0  0  0  0  0  0  0
   38.1320   24.1760   34.9520 N   0  0  0  0  0  0  0  0  0  0  0  0
   38.3430   24.6180   36.2120 C   0  0  0  0  0  0  0  0  0  0  0  0
   38.2500   25.9390   36.5060 N   0  0  0  0  0  0  0  0  0  0  0  0
   37.8740   27.8650   35.7830 H   0  0  0  0  0  0  0  0  0  0  0  0
   37.6440   24.7230   32.9180 H   0  0  0  0  0  0  0  0  0  0  0  0
   38.6810   23.6170   37.2690 C   0  0  0  0  0  3  0  0  0  0  0  0
   37.4350   23.1020   38.0500 C   0  0  0  0  0  2  0  0  0  0  0  0
   38.5150   23.9280   38.6910 C   0  0  0  0  0  2  0  0  0  0  0  0
  1  2  1  0  0  0  0
  2  3  1  0  0  0  0
  3  4  2  0  0  0  0
  3 13  1  0  0  0  0
  4  9  1  0  0  0  0
  5 10  1  0  0  0  0
  5  4  1  0  0  0  0
  6  5  2  0  0  0  0
  7  6  1  0  0  0  0
  8  6  1  0  0  0  0
  8  2  2  0  0  0  0
 11  8  1  0  0  0  0
 12 18  1  0  0  0  0
 12 17  1  0  0  0  0
 13 12  2  0  0  0  0
 14 13  1  0  0  0  0
 14 15  2  0  0  0  0
 15 16  1  0  0  0  0
 16 17  2  0  0  0  0
 16 20  1  0  0  0  0
 19 14  1  0  0  0  0
 20 21  1  0  0  0  0
 20 22  1  0  0  0  0
 21 22  1  0  0  0  0
M  END
>  <minimizedAffinity>
-4.64819431

$$$$

 OpenBabel03272504063D

 22 24  0  0  0  0  0  0  0  0999 V2000
   37.9110   24.0550   37.6220 Cl  0  0  0  0  0  0  0  0  0  0  0  0
   39.3770   23.3570   36.9860 C   0  0  0  0  0  0  0  0  0  0  0  0
   39.7330   23.8510   35.7570 C   0  0  0  0  0  0  0  0  0  0  0  0
   40.9010   23.3600   35.1460 C   0  0  0  0  0  0  0  0  0  0  0  0
   41.6710   22.4150   35.7470 C   0  0  0  0  0  0  0  0  0  0  0  0
   41.2970   21.9300   36.9800 C   0  0  0  0  0  0  0  0  0  0  0  0
   42.2630   20.7180   37.7800 Cl  0  0  0  0  0  0  0  0  0  0  0  0
   40.1690   22.4040   37.5740 C   0  0  0  0  0  0  0  0  0  0  0  0
   41.2600   23.6900   34.1800 H   0  0  0  0  0  0  0  0  0  0  0  0
   42.5750   22.0150   35.3060 H   0  0  0  0  0  0  0  0  0  0  0  0
   39.8170   22.0670   38.5420 H   0  0  0  0  0  0  0  0  0  0  0  0
   39.4620   26.2130   35.0570 C   0  0  0  0  0  0  0  0  0  0  0  0
   39.0580   24.8670   34.9260 C   0  0  0  0  0  0  0  0  0  0  0  0
   38.0390   24.5740   34.0130 C   0  0  0  0  0  0  0  0  0  0  0  0
   37.4910   25.5960   33.3020 N   0  0  0  0  0  0  0  0  0  0  0  0
   37.9070   26.8740   33.4580 C   0  0  0  0  0  0  0  0  0  0  0  0
   38.8930   27.1770   34.3370 N   0  0  0  0  0  0  0  0  0  0  0  0
   40.2470   26.4550   35.7580 H   0  0  0  0  0  0  0  0  0  0  0  0
   37.7410   23.5410   33.9240 H   0  0  0  0  0  0  0  0  0  0  0  0
   37.2540   27.9380   32.6370 C   0  0  0  0  0  3  0  0  0  0  0  0
   36.0780   28.6480   33.3720 C   0  0  0  0  0  2  0  0  0  0  0  0
   35.8780   27.7890   32.1540 C   0  0  0  0  0  2  0  0  0  0  0  0
  2  8  1  0  0  0  0
  2  1  1  0  0  0  0
  3  2  2  0  0  0  0
  4  5  2  0  0  0  0
  4  3  1  0  0  0  0
  5  6  1  0  0  0  0
  6  8  2  0  0  0  0
  6  7  1  0  0  0  0
  8 11  1  0  0  0  0
  9  4  1  0  0  0  0
 10  5  1  0  0  0  0
 12 18  1  0  0  0  0
 13 12  1  0  0  0  0
 13  3  1  0  0  0  0
 14 13  2  0  0  0  0
 15 16  2  0  0  0  0
 15 14  1  0  0  0  0
 16 17  1  0  0  0  0
 17 12  2  0  0  0  0
 19 14  1  0  0  0  0
 20 21  1  0  0  0  0
 20 16  1  0  0  0  0
 22 20  1  0  0  0  0
 22 21  1  0  0  0  0
M  END
>  <minimizedAffinity>
-4.60347176

$$$$

 OpenBabel03272504063D

 22 24  0  0  0  0  0  0  0  0999 V2000
   38.1220   24.0660   32.9240 Cl  0  0  0  0  0  0  0  0  0  0  0  0
   37.9270   25.5260   33.8560 C   0  0  0  0  0  0  0  0  0  0  0  0
   38.7590   25.5990   34.9440 C   0  0  0  0  0  0  0  0  0  0  0  0
   38.6890   26.7360   35.7710 C   0  0  0  0  0  0  0  0  0  0  0  0
   37.8210   27.7490   35.5110 C   0  0  0  0  0  0  0  0  0  0  0  0
   36.9940   27.6580   34.4140 C   0  0  0  0  0  0  0  0  0  0  0  0
   35.8690   28.9400   34.0500 Cl  0  0  0  0  0  0  0  0  0  0  0  0
   37.0600   26.5600   33.6130 C   0  0  0  0  0  0  0  0  0  0  0  0
   39.3050   26.8810   36.6490 H   0  0  0  0  0  0  0  0  0  0  0  0
   37.7410   28.6370   36.1240 H   0  0  0  0  0  0  0  0  0  0  0  0
   36.4380   26.4240   32.7350 H   0  0  0  0  0  0  0  0  0  0  0  0
   41.0930   24.7680   34.9520 C   0  0  0  0  0  0  0  0  0  0  0  0
   39.7680   24.6320   35.4170 C   0  0  0  0  0  0  0  0  0  0  0  0
   39.4880   23.5840   36.3020 C   0  0  0  0  0  0  0  0  0  0  0  0
   40.5020   22.7550   36.6660 N   0  0  0  0  0  0  0  0  0  0  0  0
   41.7600   22.9200   36.1970 C   0  0  0  0  0  0  0  0  0  0  0  0
   42.0510   23.9290   35.3390 N   0  0  0  0  0  0  0  0  0  0  0  0
   41.3250   25.5720   34.2680 H   0  0  0  0  0  0  0  0  0  0  0  0
   38.4710   23.4930   36.6480 H   0  0  0  0  0  0  0  0  0  0  0  0
   42.8180   21.9650   36.6470 C   0  0  0  0  0  3  0  0  0  0  0  0
   42.8600   20.6530   35.8080 C   0  0  0  0  0  2  0  0  0  0  0  0
   42.4700   20.6800   37.2600 C   0  0  0  0  0  2  0  0  0  0  0  0
  1  2  1  0  0  0  0
  2  3  1  0  0  0  0
  3 13  1  0  0  0  0
  3  4  2  0  0  0  0
  4  9  1  0  0  0  0
  5  4  1  0  0  0  0
  5 10  1  0  0  0  0
  6  5  2  0  0  0  0
  7  6  1  0  0  0  0
  8  2  2  0  0  0  0
  8  6  1  0  0  0  0
 11  8  1  0  0  0  0
 12 17  2  0  0  0  0
 12 13  1  0  0  0  0
 13 14  2  0  0  0  0
 14 19  1  0  0  0  0
 14 15  1  0  0  0  0
 16 20  1  0  0  0  0
 16 15  2  0  0  0  0
 17 16  1  0  0  0  0
 18 12  1  0  0  0  0
 20 22  1  0  0  0  0
 21 20  1  0  0  0  0
 21 22  1  0  0  0  0
M  END
>  <minimizedAffinity>
-4.53886747

$$$$

 OpenBabel03272504063D

 22 24  0  0  0  0  0  0  0  0999 V2000
   35.2770   30.3880   31.6070 Cl  0  0  0  0  0  0  0  0  0  0  0  0
   36.1650   29.0700   32.3260 C   0  0  0  0  0  0  0  0  0  0  0  0
   36.0250   28.9920   33.6880 C   0  0  0  0  0  0  0  0  0  0  0  0
   36.6980   27.9660   34.3770 C   0  0  0  0  0  0  0  0  0  0  0  0
   37.4740   27.0630   33.7210 C   0  0  0  0  0  0  0  0  0  0  0  0
   37.6030   27.1580   32.3540 C   0  0  0  0  0  0  0  0  0  0  0  0
   38.5900   26.0160   31.4800 Cl  0  0  0  0  0  0  0  0  0  0  0  0
   36.9530   28.1490   31.6850 C   0  0  0  0  0  0  0  0  0  0  0  0
   36.6470   27.8260   35.4490 H   0  0  0  0  0  0  0  0  0  0  0  0
   38.0050   26.2620   34.2180 H   0  0  0  0  0  0  0  0  0  0  0  0
   37.0100   28.2810   30.6110 H   0  0  0  0  0  0  0  0  0  0  0  0
   35.9370   30.8160   35.3630 C   0  0  0  0  0  0  0  0  0  0  0  0
   35.2450   29.8510   34.6000 C   0  0  0  0  0  0  0  0  0  0  0  0
   33.8570   29.7660   34.7530 C   0  0  0  0  0  0  0  0  0  0  0  0
   33.2470   30.6130   35.6250 N   0  0  0  0  0  0  0  0  0  0  0  0
   33.9470   31.5240   36.3390 C   0  0  0  0  0  0  0  0  0  0  0  0
   35.2930   31.6220   36.2050 N   0  0  0  0  0  0  0  0  0  0  0  0
   37.0090   30.8940   35.2560 H   0  0  0  0  0  0  0  0  0  0  0  0
   33.3430   29.0240   34.1630 H   0  0  0  0  0  0  0  0  0  0  0  0
   33.2010   32.4180   37.2760 C   0  0  0  0  0  3  0  0  0  0  0  0
   32.6980   33.7310   36.6050 C   0  0  0  0  0  2  0  0  0  0  0  0
   33.7450   33.7160   37.6840 C   0  0  0  0  0  2  0  0  0  0  0  0
  1  2  1  0  0  0  0
  2  3  1  0  0  0  0
  3  4  2  0  0  0  0
  3 13  1  0  0  0  0
  4  9  1  0  0  0  0
  5 10  1  0  0  0  0
  5  4  1  0  0  0  0
  6  5  2  0  0  0  0
  7  6  1  0  0  0  0
  8  2  2  0  0  0  0
  8  6  1  0  0  0  0
 11  8  1  0  0  0  0
 12 17  1  0  0  0  0
 13 14  1  0  0  0  0
 13 12  2  0  0  0  0
 14 15  2  0  0  0  0
 15 16  1  0  0  0  0
 16 20  1  0  0  0  0
 17 16  2  0  0  0  0
 18 12  1  0  0  0  0
 19 14  1  0  0  0  0
 20 22  1  0  0  0  0
 21 20  1  0  0  0  0
 21 22  1  0  0  0  0
M  END
>  <minimizedAffinity>
-4.53043747

$$$$

 OpenBabel03272504063D

 22 24  0  0  0  0  0  0  0  0999 V2000
   32.7660   29.5120   33.8780 Cl  0  0  0  0  0  0  0  0  0  0  0  0
   33.7010   30.5600   34.9120 C   0  0  0  0  0  0  0  0  0  0  0  0
   35.0560   30.4160   34.7600 C   0  0  0  0  0  0  0  0  0  0  0  0
   35.9110   31.2120   35.5430 C   0  0  0  0  0  0  0  0  0  0  0  0
   35.4200   32.1110   36.4370 C   0  0  0  0  0  0  0  0  0  0  0  0
   34.0570   32.2420   36.5760 C   0  0  0  0  0  0  0  0  0  0  0  0
   33.3920   33.3860   37.7130 Cl  0  0  0  0  0  0  0  0  0  0  0  0
   33.2280   31.4730   35.8190 C   0  0  0  0  0  0  0  0  0  0  0  0
   36.9910   31.1680   35.4930 H   0  0  0  0  0  0  0  0  0  0  0  0
   36.0470   32.7400   37.0550 H   0  0  0  0  0  0  0  0  0  0  0  0
   32.1470   31.5250   35.8770 H   0  0  0  0  0  0  0  0  0  0  0  0
   36.0190   29.9250   32.5300 C   0  0  0  0  0  0  0  0  0  0  0  0
   35.8070   29.5150   33.8640 C   0  0  0  0  0  0  0  0  0  0  0  0
   36.3210   28.2750   34.2580 C   0  0  0  0  0  0  0  0  0  0  0  0
   36.9970   27.5310   33.3410 N   0  0  0  0  0  0  0  0  0  0  0  0
   37.1790   27.9610   32.0710 C   0  0  0  0  0  0  0  0  0  0  0  0
   36.6880   29.1600   31.6700 N   0  0  0  0  0  0  0  0  0  0  0  0
   35.6280   30.8800   32.2100 H   0  0  0  0  0  0  0  0  0  0  0  0
   36.1500   27.9750   35.2800 H   0  0  0  0  0  0  0  0  0  0  0  0
   37.9330   27.0830   31.1250 C   0  0  0  0  0  3  0  0  0  0  0  0
   39.4630   27.3710   31.1070 C   0  0  0  0  0  2  0  0  0  0  0  0
   38.5700   27.6310   29.9250 C   0  0  0  0  0  2  0  0  0  0  0  0
  1  2  1  0  0  0  0
  2  8  1  0  0  0  0
  3  2  2  0  0  0  0
  3  4  1  0  0  0  0
  4  5  2  0  0  0  0
  5  6  1  0  0  0  0
  5 10  1  0  0  0  0
  6  7  1  0  0  0  0
  8 11  1  0  0  0  0
  8  6  2  0  0  0  0
  9  4  1  0  0  0  0
 12 13  1  0  0  0  0
 13 14  2  0  0  0  0
 13  3  1  0  0  0  0
 14 19  1  0  0  0  0
 15 14  1  0  0  0  0
 16 15  2  0  0  0  0
 17 16  1  0  0  0  0
 17 12  2  0  0  0  0
 18 12  1  0  0  0  0
 20 16  1  0  0  0  0
 21 20  1  0  0  0  0
 22 21  1  0  0  0  0
 22 20  1  0  0  0  0
M  END
>  <minimizedAffinity>
-4.50711107

$$$$

 OpenBabel03272504063D

 22 24  0  0  0  0  0  0  0  0999 V2000
   41.1620   25.7760   34.0960 Cl  0  0  0  0  0  0  0  0  0  0  0  0
   40.4370   24.6860   35.2480 C   0  0  0  0  0  0  0  0  0  0  0  0
   39.1220   24.9680   35.5210 C   0  0  0  0  0  0  0  0  0  0  0  0
   38.4340   24.1520   36.4370 C   0  0  0  0  0  0  0  0  0  0  0  0
   39.0440   23.1030   37.0490 C   0  0  0  0  0  0  0  0  0  0  0  0
   40.3640   22.8360   36.7630 C   0  0  0  0  0  0  0  0  0  0  0  0
   41.1780   21.4970   37.5290 Cl  0  0  0  0  0  0  0  0  0  0  0  0
   41.0320   23.6220   35.8770 C   0  0  0  0  0  0  0  0  0  0  0  0
   37.3980   24.2980   36.7130 H   0  0  0  0  0  0  0  0  0  0  0  0
   38.5460   22.4550   37.7580 H   0  0  0  0  0  0  0  0  0  0  0  0
   42.0710   23.4680   35.6060 H   0  0  0  0  0  0  0  0  0  0  0  0
   38.1500   27.2380   35.7240 C   0  0  0  0  0  0  0  0  0  0  0  0
   38.2650   26.0420   34.9830 C   0  0  0  0  0  0  0  0  0  0  0  0
   37.5580   25.9460   33.7790 C   0  0  0  0  0  0  0  0  0  0  0  0
   36.7990   27.0030   33.3860 N   0  0  0  0  0  0  0  0  0  0  0  0
   36.7150   28.1320   34.1260 C   0  0  0  0  0  0  0  0  0  0  0  0
   37.3920   28.2450   35.2950 N   0  0  0  0  0  0  0  0  0  0  0  0
   38.6900   27.3280   36.6550 H   0  0  0  0  0  0  0  0  0  0  0  0
   37.6560   25.0250   33.2250 H   0  0  0  0  0  0  0  0  0  0  0  0
   35.8580   29.2490   33.6230 C   0  0  0  0  0  3  0  0  0  0  0  0
   34.4900   29.3560   34.3590 C   0  0  0  0  0  2  0  0  0  0  0  0
   34.6080   28.9850   32.9070 C   0  0  0  0  0  2  0  0  0  0  0  0
  1  2  1  0  0  0  0
  2  3  2  0  0  0  0
  2  8  1  0  0  0  0
  3  4  1  0  0  0  0
  4  9  1  0  0  0  0
  4  5  2  0  0  0  0
  5 10  1  0  0  0  0
  6  5  1  0  0  0  0
  6  7  1  0  0  0  0
  8  6  2  0  0  0  0
 11  8  1  0  0  0  0
 12 18  1  0  0  0  0
 13  3  1  0  0  0  0
 13 12  2  0  0  0  0
 14 13  1  0  0  0  0
 15 14  2  0  0  0  0
 15 16  1  0  0  0  0
 16 17  2  0  0  0  0
 17 12  1  0  0  0  0
 19 14  1  0  0  0  0
 20 16  1  0  0  0  0
 20 21  1  0  0  0  0
 22 20  1  0  0  0  0
 22 21  1  0  0  0  0
M  END
>  <minimizedAffinity>
-4.45755005

$$$$

 OpenBabel03272504063D

 22 24  0  0  0  0  0  0  0  0999 V2000
   39.0680   23.6570   30.5070 Cl  0  0  0  0  0  0  0  0  0  0  0  0
   37.7010   22.6390   30.8750 C   0  0  0  0  0  0  0  0  0  0  0  0
   36.6490   23.3140   31.4390 C   0  0  0  0  0  0  0  0  0  0  0  0
   35.4890   22.5930   31.7780 C   0  0  0  0  0  0  0  0  0  0  0  0
   35.3980   21.2540   31.5580 C   0  0  0  0  0  0  0  0  0  0  0  0
   36.4650   20.5940   30.9910 C   0  0  0  0  0  0  0  0  0  0  0  0
   36.3820   18.8770   30.6940 Cl  0  0  0  0  0  0  0  0  0  0  0  0
   37.5870   21.2890   30.6620 C   0  0  0  0  0  0  0  0  0  0  0  0
   34.6110   23.0390   32.2250 H   0  0  0  0  0  0  0  0  0  0  0  0
   34.5230   20.6680   31.8050 H   0  0  0  0  0  0  0  0  0  0  0  0
   38.4620   20.8320   30.2130 H   0  0  0  0  0  0  0  0  0  0  0  0
   37.2250   25.2390   32.8890 C   0  0  0  0  0  0  0  0  0  0  0  0
   36.5240   24.7470   31.7660 C   0  0  0  0  0  0  0  0  0  0  0  0
   35.7510   25.6510   31.0290 C   0  0  0  0  0  0  0  0  0  0  0  0
   35.7130   26.9500   31.4290 N   0  0  0  0  0  0  0  0  0  0  0  0
   36.4000   27.3810   32.5110 C   0  0  0  0  0  0  0  0  0  0  0  0
   37.1550   26.5210   33.2390 N   0  0  0  0  0  0  0  0  0  0  0  0
   37.8260   24.5530   33.4690 H   0  0  0  0  0  0  0  0  0  0  0  0
   35.2210   25.2600   30.1740 H   0  0  0  0  0  0  0  0  0  0  0  0
   36.3050   28.8260   32.8840 C   0  0  0  0  0  3  0  0  0  0  0  0
   35.3460   29.0910   34.0820 C   0  0  0  0  0  2  0  0  0  0  0  0
   35.0650   29.5810   32.6880 C   0  0  0  0  0  2  0  0  0  0  0  0
  1  2  1  0  0  0  0
  2  3  1  0  0  0  0
  3 13  1  0  0  0  0
  3  4  2  0  0  0  0
  4  9  1  0  0  0  0
  5  4  1  0  0  0  0
  5 10  1  0  0  0  0
  6  5  2  0  0  0  0
  7  6  1  0  0  0  0
  8  2  2  0  0  0  0
  8  6  1  0  0  0  0
 11  8  1  0  0  0  0
 12 17  1  0  0  0  0
 12 18  1  0  0  0  0
 13 12  2  0  0  0  0
 14 15  2  0  0  0  0
 14 13  1  0  0  0  0
 15 16  1  0  0  0  0
 16 20  1  0  0  0  0
 16 17  2  0  0  0  0
 19 14  1  0  0  0  0
 20 21  1  0  0  0  0
 22 20  1  0  0  0  0
 22 21  1  0  0  0  0
M  END
>  <minimizedAffinity>
-4.44749928

$$$$
