
 OpenBabel03272510093D

 21 23  0  0  0  0  0  0  0  0999 V2000
   37.3160   31.1760   48.5900 C   0  0  0  0  0  0  0  0  0  0  0  0
   38.1440   32.1890   49.0200 C   0  0  0  0  0  0  0  0  0  0  0  0
   39.0360   32.8860   48.2380 C   0  0  0  0  0  0  0  0  0  0  0  0
   39.1260   32.5600   46.9030 C   0  0  0  0  0  0  0  0  0  0  0  0
   38.3000   31.5490   46.4710 C   0  0  0  0  0  0  0  0  0  0  0  0
   37.4360   30.8860   47.2680 N   0  0  0  0  0  0  0  0  0  0  0  0
   38.0920   32.4660   50.0730 H   0  0  0  0  0  0  0  0  0  0  0  0
   39.6410   33.6660   48.6800 H   0  0  0  0  0  0  0  0  0  0  0  0
   38.3410   31.2570   45.4090 H   0  0  0  0  0  0  0  0  0  0  0  0
   36.7340   29.9620   50.7080 C   0  0  0  0  0  0  0  0  0  0  0  0
   36.3890   30.4680   49.4570 C   0  0  0  0  0  0  0  0  0  0  0  0
   35.0810   30.2980   48.9850 C   0  0  0  0  0  0  0  0  0  0  0  0
   34.2120   29.6280   49.8110 N   0  0  0  0  0  0  0  0  0  0  0  0
   34.5670   29.1500   51.0100 C   0  0  0  0  0  0  0  0  0  0  0  0
   35.8210   29.3110   51.4640 N   0  0  0  0  0  0  0  0  0  0  0  0
   37.7500   30.1010   51.0580 H   0  0  0  0  0  0  0  0  0  0  0  0
   34.7130   30.6530   48.0290 H   0  0  0  0  0  0  0  0  0  0  0  0
   33.7560   28.6500   51.5250 H   0  0  0  0  0  0  0  0  0  0  0  0
   40.0660   33.2720   46.0100 C   0  0  0  0  0  0  0  0  0  0  0  0
   41.0040   32.4640   45.1380 C   0  0  0  0  0  0  0  0  0  0  0  0
   39.8840   33.2570   44.5560 C   0  0  0  0  0  0  0  0  0  0  0  0
  1  2  1  0  0  0  0
  1 11  1  0  0  0  0
  2  7  1  0  0  0  0
  3  8  1  0  0  0  0
  3  2  2  0  0  0  0
  4  3  1  0  0  0  0
  5  4  2  0  0  0  0
  5  6  1  0  0  0  0
  6  1  2  0  0  0  0
  9  5  1  0  0  0  0
 10 16  1  0  0  0  0
 10 15  1  0  0  0  0
 11 10  2  0  0  0  0
 12 11  1  0  0  0  0
 12 13  2  0  0  0  0
 13 14  1  0  0  0  0
 14 15  2  0  0  0  0
 14 18  1  0  0  0  0
 17 12  1  0  0  0  0
 19  4  1  0  0  0  0
 20 19  1  0  0  0  0
 21 20  1  0  0  0  0
 21 19  1  0  0  0  0
M  END
>  <minimizedAffinity>
-5.32230139

>  <minimizedRMSD>
1.4538976

$$$$
