
 OpenBabel03272505133D

 33 36  0  0  0  0  0  0  0  0999 V2000
   36.4100   30.8970   45.7220 Cl  0  0  0  0  0  0  0  0  0  0  0  0
   36.6980   30.7840   47.4370 C   0  0  0  0  0  0  0  0  0  0  0  0
   37.9560   31.1170   47.8950 C   0  0  0  0  0  0  0  0  0  0  0  0
   38.1930   31.0310   49.2550 C   0  0  0  0  0  0  0  0  0  0  0  0
   37.2060   30.6280   50.0970 C   0  0  0  0  0  0  0  0  0  0  0  0
   35.9490   30.3040   49.5720 C   0  0  0  0  0  0  0  0  0  0  0  0
   35.6380   30.3640   48.2430 C   0  0  0  0  0  0  0  0  0  0  0  0
   39.1790   31.2900   49.6210 H   0  0  0  0  0  0  0  0  0  0  0  0
   37.4170   30.5700   51.1490 H   0  0  0  0  0  0  0  0  0  0  0  0
   35.1710   29.9830   50.2620 H   0  0  0  0  0  0  0  0  0  0  0  0
   40.2190   33.3210   46.0770 C   0  0  0  0  0  0  0  0  0  0  0  0
   40.9220   32.4610   45.2110 C   0  0  0  0  0  0  0  0  0  0  0  0
   40.5980   31.1010   45.2680 C   0  0  0  0  0  0  0  0  0  0  0  0
   39.6350   30.6890   46.1430 N   0  0  0  0  0  0  0  0  0  0  0  0
   39.0010   31.5510   46.9410 C   0  0  0  0  0  0  0  0  0  0  0  0
   39.2890   32.8510   46.9090 N   0  0  0  0  0  0  0  0  0  0  0  0
   40.5070   34.3600   45.9940 H   0  0  0  0  0  0  0  0  0  0  0  0
   41.6800   32.7060   44.5060 H   0  0  0  0  0  0  0  0  0  0  0  0
   41.0520   30.3340   44.6660 H   0  0  0  0  0  0  0  0  0  0  0  0
   34.0690   29.9630   47.5630 S   0  0  0  0  0  0  0  0  0  0  0  0
   33.8320   29.2410   44.5140 Cl  0  0  0  0  0  0  0  0  0  0  0  0
   33.8450   27.9840   45.7450 C   0  0  0  0  0  0  0  0  0  0  0  0
   33.9480   28.2300   47.1130 C   0  0  0  0  0  0  0  0  0  0  0  0
   33.9480   27.1780   47.9950 C   0  0  0  0  0  0  0  0  0  0  0  0
   33.8500   25.8960   47.5460 C   0  0  0  0  0  0  0  0  0  0  0  0
   33.7470   25.6010   46.2010 C   0  0  0  0  0  0  0  0  0  0  0  0
   33.7470   26.6560   45.3350 C   0  0  0  0  0  0  0  0  0  0  0  0
   34.0320   27.4760   49.0320 H   0  0  0  0  0  0  0  0  0  0  0  0
   33.8570   25.1110   48.2900 H   0  0  0  0  0  0  0  0  0  0  0  0
   33.6720   24.5780   45.9030 H   0  0  0  0  0  0  0  0  0  0  0  0
   33.6370   26.3800   43.8790 C   0  0  0  0  0  3  0  0  0  0  0  0
   34.8840   26.0430   43.1510 C   0  0  0  0  0  2  0  0  0  0  0  0
   33.8000   24.9620   43.3770 C   0  0  0  0  0  2  0  0  0  0  0  0
  1  2  1  0  0  0  0
  2  3  2  0  0  0  0
  2  7  1  0  0  0  0
  3  4  1  0  0  0  0
  4  8  1  0  0  0  0
  4  5  2  0  0  0  0
  5  9  1  0  0  0  0
  6  5  1  0  0  0  0
  6 10  1  0  0  0  0
  7  6  2  0  0  0  0
 11 16  1  0  0  0  0
 12 13  1  0  0  0  0
 12 11  2  0  0  0  0
 13 14  2  0  0  0  0
 14 15  1  0  0  0  0
 15  3  1  0  0  0  0
 16 15  2  0  0  0  0
 17 11  1  0  0  0  0
 18 12  1  0  0  0  0
 19 13  1  0  0  0  0
 20  7  1  0  0  0  0
 21 22  1  0  0  0  0
 22 23  1  0  0  0  0
 23 20  1  0  0  0  0
 23 24  2  0  0  0  0
 24 28  1  0  0  0  0
 25 24  1  0  0  0  0
 25 29  1  0  0  0  0
 26 25  2  0  0  0  0
 27 22  2  0  0  0  0
 27 26  1  0  0  0  0
 30 26  1  0  0  0  0
 31 27  1  0  0  0  0
 32 33  1  0  0  0  0
 32 31  1  0  0  0  0
 33 31  1  0  0  0  0
M  END
>  <minimizedAffinity>
-5.67725992

>  <minimizedRMSD>
0.562999606

$$$$
