
 OpenBabel03272509273D

 35 37  0  0  1  0  0  0  0  0999 V2000
   38.3390   25.0850   33.9610 C   0  0  2  0  0  0  0  0  0  0  0  0
   39.8170   25.2570   33.8490 C   0  0  0  0  0  0  0  0  0  0  0  0
   40.2890   26.2080   34.9050 C   0  0  0  0  0  0  0  0  0  0  0  0
   39.2650   27.1840   35.3440 C   0  0  0  0  0  0  0  0  0  0  0  0
   37.9730   26.6280   35.8300 C   0  0  0  0  0  0  0  0  0  0  0  0
   37.8780   25.1720   35.3800 C   0  0  2  0  0  0  0  0  0  0  0  0
   37.8040   25.9260   33.4240 H   0  0  0  0  0  0  0  0  0  0  0  0
   40.1730   25.4570   32.8320 H   0  0  0  0  0  0  0  0  0  0  0  0
   40.2700   24.2550   34.1130 H   0  0  0  0  0  0  0  0  0  0  0  0
   41.0560   26.8550   34.3330 H   0  0  0  0  0  0  0  0  0  0  0  0
   40.9370   25.7690   35.6820 H   0  0  0  0  0  0  0  0  0  0  0  0
   39.7050   27.7570   36.2130 H   0  0  0  0  0  0  0  0  0  0  0  0
   39.1370   27.9660   34.5580 H   0  0  0  0  0  0  0  0  0  0  0  0
   37.7950   26.7450   36.9010 H   0  0  0  0  0  0  0  0  0  0  0  0
   37.1620   27.1860   35.3140 H   0  0  0  0  0  0  0  0  0  0  0  0
   36.7810   24.9650   35.3610 H   0  0  0  0  0  0  0  0  0  0  0  0
   38.5060   24.2610   36.3700 C   0  0  0  0  0  3  0  0  0  0  0  0
   37.4640   23.2820   37.0010 C   0  0  0  0  0  2  0  0  0  0  0  0
   38.1520   24.2650   37.8140 C   0  0  0  0  0  2  0  0  0  0  0  0
   37.8420   23.5170   33.2480 S   0  0  0  0  0  0  0  0  0  0  0  0
   37.1260   23.6540   31.5970 C   0  0  0  0  0  0  0  0  0  0  0  0
   36.9440   24.7570   31.3780 H   0  0  0  0  0  0  0  0  0  0  0  0
   37.7940   23.3410   30.8090 H   0  0  0  0  0  0  0  0  0  0  0  0
   35.7470   23.0480   31.6070 C   0  0  0  0  0  0  0  0  0  0  0  0
   35.2870   23.2690   32.6170 H   0  0  0  0  0  0  0  0  0  0  0  0
   35.0840   23.4070   30.7890 H   0  0  0  0  0  0  0  0  0  0  0  0
   34.9070   19.4340   32.0940 C   0  0  0  0  0  0  0  0  0  0  0  0
   34.8690   20.8250   32.2010 C   0  0  0  0  0  0  0  0  0  0  0  0
   35.7670   21.5940   31.5240 C   0  0  0  0  0  0  0  0  0  0  0  0
   36.7000   20.9620   30.7430 N   0  0  0  0  0  0  0  0  0  0  0  0
   36.7190   19.6280   30.6550 C   0  0  0  0  0  0  0  0  0  0  0  0
   35.8510   18.8430   31.3070 N   0  0  0  0  0  0  0  0  0  0  0  0
   34.2430   18.7570   32.5890 H   0  0  0  0  0  0  0  0  0  0  0  0
   34.0670   21.1390   32.8470 H   0  0  0  0  0  0  0  0  0  0  0  0
   37.5070   19.2300   30.0040 H   0  0  0  0  0  0  0  0  0  0  0  0
  1  7  1  6  0  0  0
  1  6  1  0  0  0  0
  2  1  1  0  0  0  0
  2  9  1  0  0  0  0
  2  3  1  0  0  0  0
  3  4  1  0  0  0  0
  3 11  1  0  0  0  0
  4  5  1  0  0  0  0
  4 12  1  0  0  0  0
  5 14  1  0  0  0  0
  6 16  1  6  0  0  0
  6  5  1  0  0  0  0
  6 17  1  0  0  0  0
  8  2  1  0  0  0  0
 10  3  1  0  0  0  0
 13  4  1  0  0  0  0
 15  5  1  0  0  0  0
 17 18  1  0  0  0  0
 17 19  1  0  0  0  0
 18 19  1  0  0  0  0
 20  1  1  0  0  0  0
 21 24  1  0  0  0  0
 21 20  1  0  0  0  0
 22 21  1  0  0  0  0
 23 21  1  0  0  0  0
 24 25  1  0  0  0  0
 26 24  1  0  0  0  0
 27 28  1  0  0  0  0
 27 33  1  0  0  0  0
 28 34  1  0  0  0  0
 29 24  1  0  0  0  0
 29 28  2  0  0  0  0
 30 29  1  0  0  0  0
 31 30  2  0  0  0  0
 31 32  1  0  0  0  0
 32 27  2  0  0  0  0
 35 31  1  0  0  0  0
M  END
>  <minimizedAffinity>
-4.69091463

$$$$

 OpenBabel03272509273D

 35 37  0  0  1  0  0  0  0  0999 V2000
   37.7640   27.6050   32.4550 C   0  0  2  0  0  0  0  0  0  0  0  0
   36.8160   28.3020   33.3720 C   0  0  0  0  0  0  0  0  0  0  0  0
   35.6320   28.7840   32.5920 C   0  0  0  0  0  0  0  0  0  0  0  0
   35.9140   29.0490   31.1630 C   0  0  0  0  0  0  0  0  0  0  0  0
   36.5040   27.9310   30.3770 C   0  0  0  0  0  0  0  0  0  0  0  0
   37.0460   26.8910   31.3560 C   0  0  2  0  0  0  0  0  0  0  0  0
   38.4300   28.3570   31.9330 H   0  0  0  0  0  0  0  0  0  0  0  0
   37.2860   29.0410   34.0320 H   0  0  0  0  0  0  0  0  0  0  0  0
   36.4190   27.5100   34.0750 H   0  0  0  0  0  0  0  0  0  0  0  0
   35.4530   29.8360   33.0350 H   0  0  0  0  0  0  0  0  0  0  0  0
   34.6730   28.2980   32.8390 H   0  0  0  0  0  0  0  0  0  0  0  0
   34.9260   29.2890   30.6700 H   0  0  0  0  0  0  0  0  0  0  0  0
   36.4880   30.0020   31.0680 H   0  0  0  0  0  0  0  0  0  0  0  0
   35.8410   27.4920   29.6290 H   0  0  0  0  0  0  0  0  0  0  0  0
   37.3740   28.3440   29.8220 H   0  0  0  0  0  0  0  0  0  0  0  0
   37.8310   26.3530   30.7730 H   0  0  0  0  0  0  0  0  0  0  0  0
   35.9960   25.9120   31.7360 C   0  0  0  0  0  3  0  0  0  0  0  0
   36.1950   24.5390   31.0170 C   0  0  0  0  0  2  0  0  0  0  0  0
   35.0220   25.3500   30.7640 C   0  0  0  0  0  2  0  0  0  0  0  0
   38.7820   26.4510   33.3760 S   0  0  0  0  0  0  0  0  0  0  0  0
   38.7060   26.6710   35.1660 C   0  0  0  0  0  0  0  0  0  0  0  0
   39.7200   26.3900   35.6020 H   0  0  0  0  0  0  0  0  0  0  0  0
   38.5680   27.6970   35.4700 H   0  0  0  0  0  0  0  0  0  0  0  0
   37.7610   25.6510   35.7470 C   0  0  0  0  0  0  0  0  0  0  0  0
   37.0950   26.1890   36.4870 H   0  0  0  0  0  0  0  0  0  0  0  0
   37.1490   25.1120   34.9910 H   0  0  0  0  0  0  0  0  0  0  0  0
   38.7130   23.3450   38.5370 C   0  0  0  0  0  0  0  0  0  0  0  0
   38.0460   24.3300   37.8050 C   0  0  0  0  0  0  0  0  0  0  0  0
   38.4420   24.6360   36.5390 C   0  0  0  0  0  0  0  0  0  0  0  0
   39.5070   23.9500   36.0110 N   0  0  0  0  0  0  0  0  0  0  0  0
   40.1310   23.0110   36.7290 C   0  0  0  0  0  0  0  0  0  0  0  0
   39.7670   22.6860   37.9770 N   0  0  0  0  0  0  0  0  0  0  0  0
   38.4690   23.0430   39.5340 H   0  0  0  0  0  0  0  0  0  0  0  0
   37.2350   24.7500   38.3770 H   0  0  0  0  0  0  0  0  0  0  0  0
   40.9680   22.5280   36.2090 H   0  0  0  0  0  0  0  0  0  0  0  0
  1  7  1  6  0  0  0
  1  2  1  0  0  0  0
  1 20  1  0  0  0  0
  2  8  1  0  0  0  0
  2  9  1  0  0  0  0
  3 11  1  0  0  0  0
  3 10  1  0  0  0  0
  3  2  1  0  0  0  0
  4  3  1  0  0  0  0
  5  4  1  0  0  0  0
  5  6  1  0  0  0  0
  6 16  1  6  0  0  0
  6 17  1  0  0  0  0
  6  1  1  0  0  0  0
 12  4  1  0  0  0  0
 13  4  1  0  0  0  0
 14  5  1  0  0  0  0
 15  5  1  0  0  0  0
 18 17  1  0  0  0  0
 19 18  1  0  0  0  0
 19 17  1  0  0  0  0
 20 21  1  0  0  0  0
 21 23  1  0  0  0  0
 21 22  1  0  0  0  0
 21 24  1  0  0  0  0
 24 25  1  0  0  0  0
 24 29  1  0  0  0  0
 26 24  1  0  0  0  0
 27 33  1  0  0  0  0
 28 34  1  0  0  0  0
 28 27  2  0  0  0  0
 29 28  1  0  0  0  0
 30 29  2  0  0  0  0
 30 31  1  0  0  0  0
 31 32  2  0  0  0  0
 32 27  1  0  0  0  0
 35 31  1  0  0  0  0
M  END
>  <minimizedAffinity>
-4.59428263

$$$$

 OpenBabel03272509273D

 35 37  0  0  1  0  0  0  0  0999 V2000
   37.6340   25.2820   33.8020 C   0  0  2  0  0  0  0  0  0  0  0  0
   37.0300   26.4000   33.0200 C   0  0  0  0  0  0  0  0  0  0  0  0
   37.2860   27.6960   33.7250 C   0  0  0  0  0  0  0  0  0  0  0  0
   37.4570   27.5660   35.1900 C   0  0  0  0  0  0  0  0  0  0  0  0
   38.5050   26.6200   35.6620 C   0  0  0  0  0  0  0  0  0  0  0  0
   38.8850   25.7080   34.4980 C   0  0  2  0  0  0  0  0  0  0  0  0
   36.9320   24.9570   34.6290 H   0  0  0  0  0  0  0  0  0  0  0  0
   35.9950   26.2240   32.7060 H   0  0  0  0  0  0  0  0  0  0  0  0
   37.6110   26.4570   32.0520 H   0  0  0  0  0  0  0  0  0  0  0  0
   36.2740   28.2440   33.6160 H   0  0  0  0  0  0  0  0  0  0  0  0
   37.9520   28.3990   33.1970 H   0  0  0  0  0  0  0  0  0  0  0  0
   37.7570   28.5840   35.5800 H   0  0  0  0  0  0  0  0  0  0  0  0
   36.4630   27.3910   35.6670 H   0  0  0  0  0  0  0  0  0  0  0  0
   39.3750   27.0900   36.1250 H   0  0  0  0  0  0  0  0  0  0  0  0
   38.0410   25.9810   36.4430 H   0  0  0  0  0  0  0  0  0  0  0  0
   39.2900   24.7920   34.9920 H   0  0  0  0  0  0  0  0  0  0  0  0
   39.9660   26.3080   33.6760 C   0  0  0  0  0  3  0  0  0  0  0  0
   41.3040   25.5100   33.8020 C   0  0  0  0  0  2  0  0  0  0  0  0
   41.2080   26.8800   34.2610 C   0  0  0  0  0  2  0  0  0  0  0  0
   37.9710   23.8870   32.7280 S   0  0  0  0  0  0  0  0  0  0  0  0
   38.7820   22.5030   33.5530 C   0  0  0  0  0  0  0  0  0  0  0  0
   38.8310   21.6310   32.8210 H   0  0  0  0  0  0  0  0  0  0  0  0
   39.8170   22.6920   33.7990 H   0  0  0  0  0  0  0  0  0  0  0  0
   37.8950   22.0030   34.6630 C   0  0  0  0  0  0  0  0  0  0  0  0
   36.8810   22.4860   34.5310 H   0  0  0  0  0  0  0  0  0  0  0  0
   37.7970   20.8960   34.7060 H   0  0  0  0  0  0  0  0  0  0  0  0
   40.0290   22.7450   37.6470 C   0  0  0  0  0  0  0  0  0  0  0  0
   39.6330   22.3100   36.3800 C   0  0  0  0  0  0  0  0  0  0  0  0
   38.3380   22.4380   35.9810 C   0  0  0  0  0  0  0  0  0  0  0  0
   37.4440   23.0030   36.8550 N   0  0  0  0  0  0  0  0  0  0  0  0
   37.8450   23.4120   38.0630 C   0  0  0  0  0  0  0  0  0  0  0  0
   39.1110   23.3010   38.4860 N   0  0  0  0  0  0  0  0  0  0  0  0
   41.0220   22.6820   38.0390 H   0  0  0  0  0  0  0  0  0  0  0  0
   40.4690   21.9050   35.8350 H   0  0  0  0  0  0  0  0  0  0  0  0
   37.0480   23.8470   38.6790 H   0  0  0  0  0  0  0  0  0  0  0  0
  1  6  1  0  0  0  0
  1  7  1  1  0  0  0
  2  3  1  0  0  0  0
  2  1  1  0  0  0  0
  3  4  1  0  0  0  0
  4 12  1  0  0  0  0
  4  5  1  0  0  0  0
  4 13  1  0  0  0  0
  5 14  1  0  0  0  0
  5 15  1  0  0  0  0
  6 16  1  1  0  0  0
  6  5  1  0  0  0  0
  8  2  1  0  0  0  0
  9  2  1  0  0  0  0
 10  3  1  0  0  0  0
 11  3  1  0  0  0  0
 17 18  1  0  0  0  0
 17 19  1  0  0  0  0
 17  6  1  0  0  0  0
 18 19  1  0  0  0  0
 20 21  1  0  0  0  0
 20  1  1  0  0  0  0
 21 23  1  0  0  0  0
 21 24  1  0  0  0  0
 22 21  1  0  0  0  0
 24 26  1  0  0  0  0
 24 29  1  0  0  0  0
 25 24  1  0  0  0  0
 27 33  1  0  0  0  0
 27 32  1  0  0  0  0
 28 27  2  0  0  0  0
 29 28  1  0  0  0  0
 29 30  2  0  0  0  0
 30 31  1  0  0  0  0
 31 32  2  0  0  0  0
 31 35  1  0  0  0  0
 34 28  1  0  0  0  0
M  END
>  <minimizedAffinity>
-4.49278879

$$$$

 OpenBabel03272509273D

 35 37  0  0  1  0  0  0  0  0999 V2000
   37.5400   21.0600   32.2420 C   0  0  2  0  0  0  0  0  0  0  0  0
   37.4030   20.2230   31.0140 C   0  0  0  0  0  0  0  0  0  0  0  0
   35.9510   20.0490   30.6910 C   0  0  0  0  0  0  0  0  0  0  0  0
   35.0530   20.1410   31.8640 C   0  0  0  0  0  0  0  0  0  0  0  0
   35.1510   21.3750   32.6890 C   0  0  0  0  0  0  0  0  0  0  0  0
   36.4570   22.0840   32.3370 C   0  0  2  0  0  0  0  0  0  0  0  0
   37.4240   20.4190   33.1690 H   0  0  0  0  0  0  0  0  0  0  0  0
   38.0040   19.3070   31.0220 H   0  0  0  0  0  0  0  0  0  0  0  0
   37.8360   20.8350   30.1670 H   0  0  0  0  0  0  0  0  0  0  0  0
   35.8950   18.9350   30.3900 H   0  0  0  0  0  0  0  0  0  0  0  0
   35.6150   20.5260   29.7550 H   0  0  0  0  0  0  0  0  0  0  0  0
   33.9930   20.1100   31.4730 H   0  0  0  0  0  0  0  0  0  0  0  0
   35.1320   19.2040   32.4670 H   0  0  0  0  0  0  0  0  0  0  0  0
   34.2870   22.0400   32.6290 H   0  0  0  0  0  0  0  0  0  0  0  0
   35.2270   21.0550   33.7510 H   0  0  0  0  0  0  0  0  0  0  0  0
   36.6880   22.6940   33.2440 H   0  0  0  0  0  0  0  0  0  0  0  0
   36.2750   23.0090   31.1900 C   0  0  0  0  0  3  0  0  0  0  0  0
   36.6550   24.4780   31.5620 C   0  0  0  0  0  2  0  0  0  0  0  0
   35.2970   24.1290   31.1990 C   0  0  0  0  0  2  0  0  0  0  0  0
   39.1460   21.8570   32.2720 S   0  0  0  0  0  0  0  0  0  0  0  0
   39.7360   22.2620   33.9280 C   0  0  0  0  0  0  0  0  0  0  0  0
   39.4580   21.4040   34.6250 H   0  0  0  0  0  0  0  0  0  0  0  0
   40.8120   22.3180   34.0030 H   0  0  0  0  0  0  0  0  0  0  0  0
   38.9510   23.4340   34.4570 C   0  0  0  0  0  0  0  0  0  0  0  0
   39.5160   24.3740   34.1800 H   0  0  0  0  0  0  0  0  0  0  0  0
   37.9020   23.4850   34.0900 H   0  0  0  0  0  0  0  0  0  0  0  0
   37.8520   24.1110   37.9710 C   0  0  0  0  0  0  0  0  0  0  0  0
   37.8900   24.1100   36.5750 C   0  0  0  0  0  0  0  0  0  0  0  0
   38.8880   23.4620   35.9130 C   0  0  0  0  0  0  0  0  0  0  0  0
   39.8450   22.8180   36.6550 N   0  0  0  0  0  0  0  0  0  0  0  0
   39.7890   22.8330   37.9910 C   0  0  0  0  0  0  0  0  0  0  0  0
   38.8220   23.4600   38.6730 N   0  0  0  0  0  0  0  0  0  0  0  0
   37.1070   24.5930   38.5680 H   0  0  0  0  0  0  0  0  0  0  0  0
   37.0560   24.6560   36.1670 H   0  0  0  0  0  0  0  0  0  0  0  0
   40.6050   22.2870   38.4820 H   0  0  0  0  0  0  0  0  0  0  0  0
  1 20  1  0  0  0  0
  1  6  1  0  0  0  0
  1  7  1  1  0  0  0
  2  8  1  0  0  0  0
  2  1  1  0  0  0  0
  3  2  1  0  0  0  0
  3  4  1  0  0  0  0
  4 13  1  0  0  0  0
  4  5  1  0  0  0  0
  5 15  1  0  0  0  0
  6  5  1  0  0  0  0
  6 16  1  1  0  0  0
  9  2  1  0  0  0  0
 10  3  1  0  0  0  0
 11  3  1  0  0  0  0
 12  4  1  0  0  0  0
 14  5  1  0  0  0  0
 17 19  1  0  0  0  0
 17 18  1  0  0  0  0
 17  6  1  0  0  0  0
 19 18  1  0  0  0  0
 20 21  1  0  0  0  0
 21 23  1  0  0  0  0
 21 24  1  0  0  0  0
 21 22  1  0  0  0  0
 24 29  1  0  0  0  0
 25 24  1  0  0  0  0
 26 24  1  0  0  0  0
 27 33  1  0  0  0  0
 27 32  1  0  0  0  0
 28 27  2  0  0  0  0
 29 28  1  0  0  0  0
 29 30  2  0  0  0  0
 30 31  1  0  0  0  0
 31 35  1  0  0  0  0
 31 32  2  0  0  0  0
 34 28  1  0  0  0  0
M  END
>  <minimizedAffinity>
-4.49123192

$$$$

 OpenBabel03272509273D

 35 37  0  0  1  0  0  0  0  0999 V2000
   40.4900   23.8180   35.7540 C   0  0  2  0  0  0  0  0  0  0  0  0
   41.3010   22.8080   36.4960 C   0  0  0  0  0  0  0  0  0  0  0  0
   40.4990   22.2700   37.6410 C   0  0  0  0  0  0  0  0  0  0  0  0
   39.4730   23.2060   38.1550 C   0  0  0  0  0  0  0  0  0  0  0  0
   38.4910   23.7330   37.1690 C   0  0  0  0  0  0  0  0  0  0  0  0
   39.0360   23.4770   35.7660 C   0  0  2  0  0  0  0  0  0  0  0  0
   40.5610   24.8280   36.2620 H   0  0  0  0  0  0  0  0  0  0  0  0
   42.3190   23.1340   36.7370 H   0  0  0  0  0  0  0  0  0  0  0  0
   41.4450   21.9390   35.7870 H   0  0  0  0  0  0  0  0  0  0  0  0
   41.2790   22.2250   38.4920 H   0  0  0  0  0  0  0  0  0  0  0  0
   40.2220   21.2050   37.5650 H   0  0  0  0  0  0  0  0  0  0  0  0
   38.8690   22.6420   38.9270 H   0  0  0  0  0  0  0  0  0  0  0  0
   39.9680   24.0090   38.7520 H   0  0  0  0  0  0  0  0  0  0  0  0
   37.4700   23.3650   37.2930 H   0  0  0  0  0  0  0  0  0  0  0  0
   38.4460   24.8340   37.3080 H   0  0  0  0  0  0  0  0  0  0  0  0
   38.5330   24.2480   35.1340 H   0  0  0  0  0  0  0  0  0  0  0  0
   38.6340   22.1360   35.2700 C   0  0  0  0  0  3  0  0  0  0  0  0
   37.6850   22.2350   34.0320 C   0  0  0  0  0  2  0  0  0  0  0  0
   37.2280   21.6560   35.2780 C   0  0  0  0  0  2  0  0  0  0  0  0
   41.0760   23.9620   34.0650 S   0  0  0  0  0  0  0  0  0  0  0  0
   41.5720   25.6330   33.5990 C   0  0  0  0  0  0  0  0  0  0  0  0
   42.7040   25.7080   33.6960 H   0  0  0  0  0  0  0  0  0  0  0  0
   41.3850   25.8660   32.5610 H   0  0  0  0  0  0  0  0  0  0  0  0
   41.0500   26.6050   34.6240 C   0  0  0  0  0  0  0  0  0  0  0  0
   41.0600   26.0810   35.6260 H   0  0  0  0  0  0  0  0  0  0  0  0
   41.6160   27.5610   34.6780 H   0  0  0  0  0  0  0  0  0  0  0  0
   37.4810   27.5700   35.2120 C   0  0  0  0  0  0  0  0  0  0  0  0
   38.8140   27.2270   35.4490 C   0  0  0  0  0  0  0  0  0  0  0  0
   39.6520   26.9560   34.4100 C   0  0  0  0  0  0  0  0  0  0  0  0
   39.1480   27.0310   33.1360 N   0  0  0  0  0  0  0  0  0  0  0  0
   37.8690   27.3610   32.9330 C   0  0  0  0  0  0  0  0  0  0  0  0
   37.0190   27.6330   33.9320 N   0  0  0  0  0  0  0  0  0  0  0  0
   36.7580   27.7970   35.9670 H   0  0  0  0  0  0  0  0  0  0  0  0
   39.0290   27.2280   36.5040 H   0  0  0  0  0  0  0  0  0  0  0  0
   37.5730   27.3900   31.8770 H   0  0  0  0  0  0  0  0  0  0  0  0
  1  6  1  0  0  0  0
  1  7  1  1  0  0  0
  1  2  1  0  0  0  0
  2  8  1  0  0  0  0
  2  3  1  0  0  0  0
  3  4  1  0  0  0  0
  3 10  1  0  0  0  0
  4 13  1  0  0  0  0
  4 12  1  0  0  0  0
  5 14  1  0  0  0  0
  5 15  1  0  0  0  0
  5  4  1  0  0  0  0
  6 16  1  6  0  0  0
  6  5  1  0  0  0  0
  9  2  1  0  0  0  0
 11  3  1  0  0  0  0
 17 19  1  0  0  0  0
 17  6  1  0  0  0  0
 18 17  1  0  0  0  0
 18 19  1  0  0  0  0
 20  1  1  0  0  0  0
 21 22  1  0  0  0  0
 21 20  1  0  0  0  0
 21 24  1  0  0  0  0
 23 21  1  0  0  0  0
 24 26  1  0  0  0  0
 24 25  1  0  0  0  0
 27 28  1  0  0  0  0
 27 33  1  0  0  0  0
 28 34  1  0  0  0  0
 29 24  1  0  0  0  0
 29 28  2  0  0  0  0
 30 29  1  0  0  0  0
 31 30  2  0  0  0  0
 31 32  1  0  0  0  0
 32 27  2  0  0  0  0
 35 31  1  0  0  0  0
M  END
>  <minimizedAffinity>
-4.43511152

$$$$

 OpenBabel03272509273D

 35 37  0  0  1  0  0  0  0  0999 V2000
   40.3330   24.9700   33.0760 C   0  0  2  0  0  0  0  0  0  0  0  0
   41.4070   24.3500   33.9060 C   0  0  0  0  0  0  0  0  0  0  0  0
   42.1160   25.4180   34.6800 C   0  0  0  0  0  0  0  0  0  0  0  0
   42.0820   26.7540   34.0420 C   0  0  0  0  0  0  0  0  0  0  0  0
   40.7400   27.3030   33.7060 C   0  0  0  0  0  0  0  0  0  0  0  0
   39.7300   26.1590   33.7490 C   0  0  2  0  0  0  0  0  0  0  0  0
   40.7660   25.3670   32.1070 H   0  0  0  0  0  0  0  0  0  0  0  0
   42.0490   23.6470   33.3640 H   0  0  0  0  0  0  0  0  0  0  0  0
   40.8790   23.7110   34.6760 H   0  0  0  0  0  0  0  0  0  0  0  0
   43.2230   25.0990   34.5880 H   0  0  0  0  0  0  0  0  0  0  0  0
   41.9860   25.3750   35.7740 H   0  0  0  0  0  0  0  0  0  0  0  0
   42.5430   27.4810   34.7740 H   0  0  0  0  0  0  0  0  0  0  0  0
   42.7910   26.7720   33.1800 H   0  0  0  0  0  0  0  0  0  0  0  0
   40.4280   28.1570   34.3110 H   0  0  0  0  0  0  0  0  0  0  0  0
   40.7870   27.6620   32.6560 H   0  0  0  0  0  0  0  0  0  0  0  0
   38.9020   26.5030   33.0830 H   0  0  0  0  0  0  0  0  0  0  0  0
   39.1810   25.9770   35.1160 C   0  0  0  0  0  3  0  0  0  0  0  0
   37.6560   26.3110   35.1800 C   0  0  0  0  0  2  0  0  0  0  0  0
   38.6230   27.0940   35.9220 C   0  0  0  0  0  2  0  0  0  0  0  0
   39.0620   23.7610   32.7040 S   0  0  0  0  0  0  0  0  0  0  0  0
   39.2010   22.2320   33.6530 C   0  0  0  0  0  0  0  0  0  0  0  0
   39.0340   21.3570   32.9440 H   0  0  0  0  0  0  0  0  0  0  0  0
   40.1900   22.0580   34.0500 H   0  0  0  0  0  0  0  0  0  0  0  0
   38.0500   22.1470   34.6200 C   0  0  0  0  0  0  0  0  0  0  0  0
   37.2860   22.9220   34.3090 H   0  0  0  0  0  0  0  0  0  0  0  0
   37.5810   21.1400   34.6850 H   0  0  0  0  0  0  0  0  0  0  0  0
   40.0140   22.7310   37.7520 C   0  0  0  0  0  0  0  0  0  0  0  0
   39.6860   22.3490   36.4500 C   0  0  0  0  0  0  0  0  0  0  0  0
   38.4210   22.5250   35.9770 C   0  0  0  0  0  0  0  0  0  0  0  0
   37.4900   23.0850   36.8150 N   0  0  0  0  0  0  0  0  0  0  0  0
   37.8260   23.4430   38.0580 C   0  0  0  0  0  0  0  0  0  0  0  0
   39.0600   23.2830   38.5540 N   0  0  0  0  0  0  0  0  0  0  0  0
   40.9790   22.6280   38.2020 H   0  0  0  0  0  0  0  0  0  0  0  0
   40.5430   21.9390   35.9420 H   0  0  0  0  0  0  0  0  0  0  0  0
   37.0040   23.8790   38.6390 H   0  0  0  0  0  0  0  0  0  0  0  0
  1  7  1  6  0  0  0
  1  6  1  0  0  0  0
  1  2  1  0  0  0  0
  2  9  1  0  0  0  0
  2  3  1  0  0  0  0
  3 11  1  0  0  0  0
  4  3  1  0  0  0  0
  4 12  1  0  0  0  0
  5  6  1  0  0  0  0
  5  4  1  0  0  0  0
  5 14  1  0  0  0  0
  6 16  1  6  0  0  0
  6 17  1  0  0  0  0
  8  2  1  0  0  0  0
 10  3  1  0  0  0  0
 13  4  1  0  0  0  0
 15  5  1  0  0  0  0
 17 18  1  0  0  0  0
 17 19  1  0  0  0  0
 18 19  1  0  0  0  0
 20  1  1  0  0  0  0
 20 21  1  0  0  0  0
 21 23  1  0  0  0  0
 21 24  1  0  0  0  0
 22 21  1  0  0  0  0
 24 26  1  0  0  0  0
 24 29  1  0  0  0  0
 25 24  1  0  0  0  0
 27 33  1  0  0  0  0
 27 32  1  0  0  0  0
 28 27  2  0  0  0  0
 29 28  1  0  0  0  0
 29 30  2  0  0  0  0
 30 31  1  0  0  0  0
 31 32  2  0  0  0  0
 31 35  1  0  0  0  0
 34 28  1  0  0  0  0
M  END
>  <minimizedAffinity>
-4.42077923

$$$$

 OpenBabel03272509273D

 35 37  0  0  1  0  0  0  0  0999 V2000
   37.2200   26.3060   33.6300 C   0  0  2  0  0  0  0  0  0  0  0  0
   36.8740   27.5320   34.4070 C   0  0  0  0  0  0  0  0  0  0  0  0
   37.8250   27.6780   35.5550 C   0  0  0  0  0  0  0  0  0  0  0  0
   38.4020   26.4000   36.0320 C   0  0  0  0  0  0  0  0  0  0  0  0
   39.0950   25.5580   35.0200 C   0  0  0  0  0  0  0  0  0  0  0  0
   38.6910   26.0470   33.6310 C   0  0  2  0  0  0  0  0  0  0  0  0
   36.7580   25.3910   34.1120 H   0  0  0  0  0  0  0  0  0  0  0  0
   35.8100   27.6250   34.6540 H   0  0  0  0  0  0  0  0  0  0  0  0
   37.0810   28.4070   33.7220 H   0  0  0  0  0  0  0  0  0  0  0  0
   37.1280   28.0020   36.4170 H   0  0  0  0  0  0  0  0  0  0  0  0
   38.4980   28.5500   35.5030 H   0  0  0  0  0  0  0  0  0  0  0  0
   39.1800   26.6590   36.8090 H   0  0  0  0  0  0  0  0  0  0  0  0
   37.6320   25.8400   36.6150 H   0  0  0  0  0  0  0  0  0  0  0  0
   40.1780   25.4910   35.1390 H   0  0  0  0  0  0  0  0  0  0  0  0
   38.7030   24.5240   35.1310 H   0  0  0  0  0  0  0  0  0  0  0  0
   38.8490   25.1590   32.9730 H   0  0  0  0  0  0  0  0  0  0  0  0
   39.5870   27.1360   33.1630 C   0  0  0  0  0  3  0  0  0  0  0  0
   40.5850   26.6370   32.0690 C   0  0  0  0  0  2  0  0  0  0  0  0
   41.0610   27.1110   33.3530 C   0  0  0  0  0  2  0  0  0  0  0  0
   36.6220   26.4520   31.9460 S   0  0  0  0  0  0  0  0  0  0  0  0
   35.8580   24.9480   31.3040 C   0  0  0  0  0  0  0  0  0  0  0  0
   35.2980   24.4410   32.1560 H   0  0  0  0  0  0  0  0  0  0  0  0
   35.0920   25.1330   30.5650 H   0  0  0  0  0  0  0  0  0  0  0  0
   36.9390   23.9650   30.9380 C   0  0  0  0  0  0  0  0  0  0  0  0
   37.0560   23.9920   29.8130 H   0  0  0  0  0  0  0  0  0  0  0  0
   37.9150   24.1520   31.4360 H   0  0  0  0  0  0  0  0  0  0  0  0
   35.1060   20.9440   32.1730 C   0  0  0  0  0  0  0  0  0  0  0  0
   35.4350   22.2760   31.9140 C   0  0  0  0  0  0  0  0  0  0  0  0
   36.5730   22.5860   31.2330 C   0  0  0  0  0  0  0  0  0  0  0  0
   37.3770   21.5560   30.8140 N   0  0  0  0  0  0  0  0  0  0  0  0
   37.0430   20.2880   31.0740 C   0  0  0  0  0  0  0  0  0  0  0  0
   35.9320   19.9490   31.7410 N   0  0  0  0  0  0  0  0  0  0  0  0
   34.2360   20.6130   32.6990 H   0  0  0  0  0  0  0  0  0  0  0  0
   34.6850   22.9410   32.3080 H   0  0  0  0  0  0  0  0  0  0  0  0
   37.7580   19.5470   30.6950 H   0  0  0  0  0  0  0  0  0  0  0  0
  1  6  1  0  0  0  0
  1  7  1  1  0  0  0
  1  2  1  0  0  0  0
  2  8  1  0  0  0  0
  2  3  1  0  0  0  0
  3  4  1  0  0  0  0
  3 10  1  0  0  0  0
  4 13  1  0  0  0  0
  4 12  1  0  0  0  0
  5 15  1  0  0  0  0
  5 14  1  0  0  0  0
  5  4  1  0  0  0  0
  6 16  1  6  0  0  0
  6  5  1  0  0  0  0
  9  2  1  0  0  0  0
 11  3  1  0  0  0  0
 17 19  1  0  0  0  0
 17  6  1  0  0  0  0
 18 17  1  0  0  0  0
 18 19  1  0  0  0  0
 20  1  1  0  0  0  0
 21 20  1  0  0  0  0
 21 22  1  0  0  0  0
 23 21  1  0  0  0  0
 24 29  1  0  0  0  0
 24 21  1  0  0  0  0
 24 26  1  0  0  0  0
 25 24  1  0  0  0  0
 27 33  1  0  0  0  0
 28 27  1  0  0  0  0
 28 34  1  0  0  0  0
 29 28  2  0  0  0  0
 30 31  2  0  0  0  0
 30 29  1  0  0  0  0
 31 32  1  0  0  0  0
 32 27  2  0  0  0  0
 35 31  1  0  0  0  0
M  END
>  <minimizedAffinity>
-4.37538624

$$$$

 OpenBabel03272509273D

 35 37  0  0  1  0  0  0  0  0999 V2000
   34.6720   30.1930   34.4770 C   0  0  2  0  0  0  0  0  0  0  0  0
   33.3630   30.7570   34.9210 C   0  0  0  0  0  0  0  0  0  0  0  0
   33.6050   31.8650   35.9000 C   0  0  0  0  0  0  0  0  0  0  0  0
   34.8740   31.7430   36.6530 C   0  0  0  0  0  0  0  0  0  0  0  0
   36.1210   31.6150   35.8510 C   0  0  0  0  0  0  0  0  0  0  0  0
   35.7350   31.2410   34.4220 C   0  0  2  0  0  0  0  0  0  0  0  0
   35.0460   29.4320   35.2280 H   0  0  0  0  0  0  0  0  0  0  0  0
   32.6260   30.0050   35.2250 H   0  0  0  0  0  0  0  0  0  0  0  0
   32.9070   31.2460   34.0100 H   0  0  0  0  0  0  0  0  0  0  0  0
   32.7930   31.6740   36.6990 H   0  0  0  0  0  0  0  0  0  0  0  0
   33.3150   32.8720   35.5550 H   0  0  0  0  0  0  0  0  0  0  0  0
   34.9900   32.6890   37.2610 H   0  0  0  0  0  0  0  0  0  0  0  0
   34.7700   30.9490   37.4300 H   0  0  0  0  0  0  0  0  0  0  0  0
   36.7860   32.4810   35.8890 H   0  0  0  0  0  0  0  0  0  0  0  0
   36.6950   30.7610   36.2710 H   0  0  0  0  0  0  0  0  0  0  0  0
   36.6450   30.7350   34.0180 H   0  0  0  0  0  0  0  0  0  0  0  0
   35.4740   32.4500   33.6010 C   0  0  0  0  0  3  0  0  0  0  0  0
   36.5070   32.5980   32.4370 C   0  0  0  0  0  2  0  0  0  0  0  0
   36.4320   33.5830   33.4970 C   0  0  0  0  0  2  0  0  0  0  0  0
   34.4950   29.4080   32.8750 S   0  0  0  0  0  0  0  0  0  0  0  0
   36.0580   28.9040   32.1270 C   0  0  0  0  0  0  0  0  0  0  0  0
   35.9200   28.8760   30.9970 H   0  0  0  0  0  0  0  0  0  0  0  0
   36.8570   29.6170   32.2720 H   0  0  0  0  0  0  0  0  0  0  0  0
   36.3430   27.4720   32.4980 C   0  0  0  0  0  0  0  0  0  0  0  0
   35.4270   27.0700   33.0270 H   0  0  0  0  0  0  0  0  0  0  0  0
   36.6140   26.8220   31.6380 H   0  0  0  0  0  0  0  0  0  0  0  0
   39.7010   26.9510   34.0660 C   0  0  0  0  0  0  0  0  0  0  0  0
   38.6930   27.0590   33.1060 C   0  0  0  0  0  0  0  0  0  0  0  0
   37.4150   27.3440   33.4770 C   0  0  0  0  0  0  0  0  0  0  0  0
   37.1520   27.5190   34.8120 N   0  0  0  0  0  0  0  0  0  0  0  0
   38.1320   27.4110   35.7140 C   0  0  0  0  0  0  0  0  0  0  0  0
   39.4000   27.1320   35.3830 N   0  0  0  0  0  0  0  0  0  0  0  0
   40.7280   26.7310   33.8630 H   0  0  0  0  0  0  0  0  0  0  0  0
   39.0870   26.9000   32.1160 H   0  0  0  0  0  0  0  0  0  0  0  0
   37.8100   27.5690   36.7510 H   0  0  0  0  0  0  0  0  0  0  0  0
  1  2  1  0  0  0  0
  1  7  1  1  0  0  0
  2  8  1  0  0  0  0
  2  3  1  0  0  0  0
  3  4  1  0  0  0  0
  3 10  1  0  0  0  0
  4 12  1  0  0  0  0
  4 13  1  0  0  0  0
  5 14  1  0  0  0  0
  5 15  1  0  0  0  0
  5  4  1  0  0  0  0
  6 16  1  6  0  0  0
  6  1  1  0  0  0  0
  6  5  1  0  0  0  0
  9  2  1  0  0  0  0
 11  3  1  0  0  0  0
 17  6  1  0  0  0  0
 18 19  1  0  0  0  0
 18 17  1  0  0  0  0
 19 17  1  0  0  0  0
 20  1  1  0  0  0  0
 21 23  1  0  0  0  0
 21 24  1  0  0  0  0
 21 20  1  0  0  0  0
 22 21  1  0  0  0  0
 24 25  1  0  0  0  0
 24 29  1  0  0  0  0
 26 24  1  0  0  0  0
 27 32  1  0  0  0  0
 28 29  1  0  0  0  0
 28 27  2  0  0  0  0
 29 30  2  0  0  0  0
 30 31  1  0  0  0  0
 31 35  1  0  0  0  0
 32 31  2  0  0  0  0
 33 27  1  0  0  0  0
 34 28  1  0  0  0  0
M  END
>  <minimizedAffinity>
-4.35473013

$$$$

 OpenBabel03272509273D

 35 37  0  0  1  0  0  0  0  0999 V2000
   37.3740   22.0030   32.7720 C   0  0  2  0  0  0  0  0  0  0  0  0
   36.8200   21.1240   33.8430 C   0  0  0  0  0  0  0  0  0  0  0  0
   35.5160   20.5460   33.3870 C   0  0  0  0  0  0  0  0  0  0  0  0
   34.7960   21.3780   32.3960 C   0  0  0  0  0  0  0  0  0  0  0  0
   35.5430   21.7490   31.1630 C   0  0  0  0  0  0  0  0  0  0  0  0
   37.0290   21.4990   31.4090 C   0  0  2  0  0  0  0  0  0  0  0  0
   36.9100   23.0350   32.8320 H   0  0  0  0  0  0  0  0  0  0  0  0
   36.8190   21.5740   34.8420 H   0  0  0  0  0  0  0  0  0  0  0  0
   37.5310   20.2490   33.9290 H   0  0  0  0  0  0  0  0  0  0  0  0
   34.8620   20.6240   34.3360 H   0  0  0  0  0  0  0  0  0  0  0  0
   35.5110   19.4540   33.2310 H   0  0  0  0  0  0  0  0  0  0  0  0
   33.9000   20.7820   32.0510 H   0  0  0  0  0  0  0  0  0  0  0  0
   34.3380   22.2560   32.9110 H   0  0  0  0  0  0  0  0  0  0  0  0
   35.1860   21.2730   30.2470 H   0  0  0  0  0  0  0  0  0  0  0  0
   35.4130   22.8430   31.0180 H   0  0  0  0  0  0  0  0  0  0  0  0
   37.5420   22.1820   30.6890 H   0  0  0  0  0  0  0  0  0  0  0  0
   37.4020   20.1030   31.0710 C   0  0  0  0  0  3  0  0  0  0  0  0
   38.1920   20.0210   29.7250 C   0  0  0  0  0  2  0  0  0  0  0  0
   36.8930   19.3950   29.8670 C   0  0  0  0  0  2  0  0  0  0  0  0
   39.1530   22.1440   32.9450 S   0  0  0  0  0  0  0  0  0  0  0  0
   39.6980   23.6810   33.7160 C   0  0  0  0  0  0  0  0  0  0  0  0
   40.4980   23.4290   34.4870 H   0  0  0  0  0  0  0  0  0  0  0  0
   40.1980   24.3530   33.0350 H   0  0  0  0  0  0  0  0  0  0  0  0
   38.5670   24.2500   34.5320 C   0  0  0  0  0  0  0  0  0  0  0  0
   38.6520   25.3780   34.4900 H   0  0  0  0  0  0  0  0  0  0  0  0
   37.5560   23.9220   34.2050 H   0  0  0  0  0  0  0  0  0  0  0  0
   37.8710   24.0190   38.2030 C   0  0  0  0  0  0  0  0  0  0  0  0
   37.7460   24.3510   36.8520 C   0  0  0  0  0  0  0  0  0  0  0  0
   38.6740   23.9300   35.9500 C   0  0  0  0  0  0  0  0  0  0  0  0
   39.7260   23.1770   36.4070 N   0  0  0  0  0  0  0  0  0  0  0  0
   39.8270   22.8720   37.7040 C   0  0  0  0  0  0  0  0  0  0  0  0
   38.9310   23.2690   38.6180 N   0  0  0  0  0  0  0  0  0  0  0  0
   37.1900   24.3070   38.9760 H   0  0  0  0  0  0  0  0  0  0  0  0
   36.8580   24.9350   36.6810 H   0  0  0  0  0  0  0  0  0  0  0  0
   40.7060   22.2670   37.9590 H   0  0  0  0  0  0  0  0  0  0  0  0
  1  7  1  1  0  0  0
  1 20  1  0  0  0  0
  1  2  1  0  0  0  0
  2  9  1  0  0  0  0
  2  8  1  0  0  0  0
  3  2  1  0  0  0  0
  3 10  1  0  0  0  0
  4 13  1  0  0  0  0
  4  3  1  0  0  0  0
  5  6  1  0  0  0  0
  5  4  1  0  0  0  0
  6 16  1  6  0  0  0
  6  1  1  0  0  0  0
 11  3  1  0  0  0  0
 12  4  1  0  0  0  0
 14  5  1  0  0  0  0
 15  5  1  0  0  0  0
 17  6  1  0  0  0  0
 18 19  1  0  0  0  0
 18 17  1  0  0  0  0
 19 17  1  0  0  0  0
 20 21  1  0  0  0  0
 21 22  1  0  0  0  0
 21 24  1  0  0  0  0
 23 21  1  0  0  0  0
 24 29  1  0  0  0  0
 25 24  1  0  0  0  0
 26 24  1  0  0  0  0
 27 32  1  0  0  0  0
 27 33  1  0  0  0  0
 28 27  2  0  0  0  0
 29 30  2  0  0  0  0
 29 28  1  0  0  0  0
 30 31  1  0  0  0  0
 31 35  1  0  0  0  0
 31 32  2  0  0  0  0
 34 28  1  0  0  0  0
M  END
>  <minimizedAffinity>
-4.3476305

$$$$
