
 OpenBabel03272500383D

 30 32  0  0  1  0  0  0  0  0999 V2000
   38.1860   23.6500   36.6540 C   0  0  0  0  0  0  0  0  0  0  0  0
   38.0810   22.3740   36.0840 C   0  0  0  0  0  0  0  0  0  0  0  0
   37.9940   22.2880   34.6920 C   0  0  0  0  0  0  0  0  0  0  0  0
   38.0180   23.4550   33.9890 N   0  0  0  0  0  0  0  0  0  0  0  0
   38.1210   24.6730   34.5800 C   0  0  0  0  0  0  0  0  0  0  0  0
   38.2030   24.7490   35.9070 N   0  0  0  0  0  0  0  0  0  0  0  0
   38.1440   25.8100   33.7400 N   0  0  0  0  0  0  0  0  0  0  0  0
   36.8820   26.4610   33.4120 C   0  0  0  0  0  0  0  0  0  0  0  0
   36.9580   26.7220   31.9000 C   0  0  0  0  0  0  0  0  0  0  0  0
   37.9650   27.8330   31.7840 C   0  0  0  0  0  0  0  0  0  0  0  0
   39.3120   27.2560   32.0980 C   0  0  0  0  0  0  0  0  0  0  0  0
   39.3670   26.2920   33.2320 C   0  0  1  0  0  0  0  0  0  0  0  0
   38.0640   21.4660   36.6640 H   0  0  0  0  0  0  0  0  0  0  0  0
   37.9110   21.3460   34.1710 H   0  0  0  0  0  0  0  0  0  0  0  0
   36.0160   25.7810   33.5710 H   0  0  0  0  0  0  0  0  0  0  0  0
   36.7450   27.4010   33.9760 H   0  0  0  0  0  0  0  0  0  0  0  0
   37.4050   25.8300   31.4160 H   0  0  0  0  0  0  0  0  0  0  0  0
   35.9650   27.0020   31.4990 H   0  0  0  0  0  0  0  0  0  0  0  0
   37.9700   28.2400   30.7650 H   0  0  0  0  0  0  0  0  0  0  0  0
   37.7700   28.6450   32.5460 H   0  0  0  0  0  0  0  0  0  0  0  0
   39.6830   26.8210   31.1450 H   0  0  0  0  0  0  0  0  0  0  0  0
   39.9720   28.1500   32.2560 H   0  0  0  0  0  0  0  0  0  0  0  0
   39.8890   25.3660   32.8210 H   0  0  0  0  0  0  0  0  0  0  0  0
   38.2890   23.7580   38.1480 C   0  0  0  0  0  0  0  0  0  0  0  0
   39.5470   23.2920   38.5640 F   0  0  0  0  0  0  0  0  0  0  0  0
   38.0570   25.0450   38.5160 F   0  0  0  0  0  0  0  0  0  0  0  0
   37.3590   22.8840   38.6910 F   0  0  0  0  0  0  0  0  0  0  0  0
   40.3390   26.8470   34.2420 C   0  0  0  0  0  3  0  0  0  0  0  0
   41.4320   26.1160   34.8540 C   0  0  0  0  0  2  0  0  0  0  0  0
   41.7870   27.0820   33.7670 C   0  0  0  0  0  2  0  0  0  0  0  0
  1 24  1  0  0  0  0
  2  1  1  0  0  0  0
  2 13  1  0  0  0  0
  3  2  2  0  0  0  0
  4  5  2  0  0  0  0
  4  3  1  0  0  0  0
  5  6  1  0  0  0  0
  6  1  2  0  0  0  0
  7  5  1  0  0  0  0
  8 15  1  0  0  0  0
  8  7  1  0  0  0  0
  8 16  1  0  0  0  0
  9  8  1  0  0  0  0
 10  9  1  0  0  0  0
 10 11  1  0  0  0  0
 10 20  1  0  0  0  0
 11 22  1  0  0  0  0
 11 12  1  0  0  0  0
 12 23  1  6  0  0  0
 12  7  1  0  0  0  0
 12 28  1  0  0  0  0
 14  3  1  0  0  0  0
 17  9  1  0  0  0  0
 18  9  1  0  0  0  0
 19 10  1  0  0  0  0
 21 11  1  0  0  0  0
 24 26  1  0  0  0  0
 24 25  1  0  0  0  0
 24 27  1  0  0  0  0
 28 29  1  0  0  0  0
 30 28  1  0  0  0  0
 30 29  1  0  0  0  0
M  END
>  <minimizedAffinity>
-5.62351751

$$$$

 OpenBabel03272500383D

 30 32  0  0  1  0  0  0  0  0999 V2000
   38.8030   23.2800   37.2020 C   0  0  0  0  0  0  0  0  0  0  0  0
   40.0990   22.7480   37.1390 C   0  0  0  0  0  0  0  0  0  0  0  0
   40.6060   22.4160   35.8800 C   0  0  0  0  0  0  0  0  0  0  0  0
   39.8010   22.6340   34.8020 N   0  0  0  0  0  0  0  0  0  0  0  0
   38.5510   23.1520   34.9060 C   0  0  0  0  0  0  0  0  0  0  0  0
   38.0720   23.4660   36.1080 N   0  0  0  0  0  0  0  0  0  0  0  0
   37.8180   23.3400   33.7120 N   0  0  0  0  0  0  0  0  0  0  0  0
   36.9570   22.2590   33.2450 C   0  0  0  0  0  0  0  0  0  0  0  0
   37.2430   22.1550   31.7390 C   0  0  0  0  0  0  0  0  0  0  0  0
   36.5970   23.3890   31.1700 C   0  0  0  0  0  0  0  0  0  0  0  0
   37.4230   24.5650   31.5920 C   0  0  0  0  0  0  0  0  0  0  0  0
   37.9280   24.5470   32.9930 C   0  0  1  0  0  0  0  0  0  0  0  0
   40.7150   22.5850   38.0090 H   0  0  0  0  0  0  0  0  0  0  0  0
   41.5930   22.0010   35.7410 H   0  0  0  0  0  0  0  0  0  0  0  0
   37.2470   21.2820   33.6890 H   0  0  0  0  0  0  0  0  0  0  0  0
   35.8900   22.4720   33.4370 H   0  0  0  0  0  0  0  0  0  0  0  0
   38.3360   22.2640   31.5850 H   0  0  0  0  0  0  0  0  0  0  0  0
   36.8200   21.2210   31.3220 H   0  0  0  0  0  0  0  0  0  0  0  0
   36.5700   23.3350   30.0740 H   0  0  0  0  0  0  0  0  0  0  0  0
   35.5620   23.5430   31.5960 H   0  0  0  0  0  0  0  0  0  0  0  0
   38.2380   24.6470   30.8420 H   0  0  0  0  0  0  0  0  0  0  0  0
   36.7740   25.4560   31.3770 H   0  0  0  0  0  0  0  0  0  0  0  0
   39.0510   24.7290   32.9150 H   0  0  0  0  0  0  0  0  0  0  0  0
   38.2480   23.6500   38.5460 C   0  0  0  0  0  0  0  0  0  0  0  0
   37.6730   24.9300   38.4780 F   0  0  0  0  0  0  0  0  0  0  0  0
   37.3650   22.6960   38.9380 F   0  0  0  0  0  0  0  0  0  0  0  0
   39.3200   23.7590   39.4200 F   0  0  0  0  0  0  0  0  0  0  0  0
   37.3990   25.7820   33.6750 C   0  0  0  0  0  3  0  0  0  0  0  0
   38.1210   26.5930   34.6360 C   0  0  0  0  0  2  0  0  0  0  0  0
   38.0030   27.1350   33.2450 C   0  0  0  0  0  2  0  0  0  0  0  0
  1 24  1  0  0  0  0
  2  1  1  0  0  0  0
  2 13  1  0  0  0  0
  3  2  2  0  0  0  0
  4  5  2  0  0  0  0
  4  3  1  0  0  0  0
  5  6  1  0  0  0  0
  6  1  2  0  0  0  0
  7  5  1  0  0  0  0
  8 16  1  0  0  0  0
  8 15  1  0  0  0  0
  8  7  1  0  0  0  0
  9  8  1  0  0  0  0
 10 11  1  0  0  0  0
 10 20  1  0  0  0  0
 10  9  1  0  0  0  0
 11 12  1  0  0  0  0
 12 23  1  6  0  0  0
 12 28  1  0  0  0  0
 12  7  1  0  0  0  0
 14  3  1  0  0  0  0
 17  9  1  0  0  0  0
 18  9  1  0  0  0  0
 19 10  1  0  0  0  0
 21 11  1  0  0  0  0
 22 11  1  0  0  0  0
 24 26  1  0  0  0  0
 24 27  1  0  0  0  0
 25 24  1  0  0  0  0
 28 29  1  0  0  0  0
 30 28  1  0  0  0  0
 30 29  1  0  0  0  0
M  END
>  <minimizedAffinity>
-5.34584618

$$$$

 OpenBabel03272500383D

 30 32  0  0  1  0  0  0  0  0999 V2000
   37.1230   21.4330   33.3090 C   0  0  0  0  0  0  0  0  0  0  0  0
   38.3140   20.9940   32.7120 C   0  0  0  0  0  0  0  0  0  0  0  0
   39.3960   21.8780   32.6910 C   0  0  0  0  0  0  0  0  0  0  0  0
   39.2130   23.1070   33.2520 N   0  0  0  0  0  0  0  0  0  0  0  0
   38.0430   23.4940   33.8200 C   0  0  0  0  0  0  0  0  0  0  0  0
   37.0150   22.6480   33.8370 N   0  0  0  0  0  0  0  0  0  0  0  0
   37.9820   24.7920   34.3770 N   0  0  0  0  0  0  0  0  0  0  0  0
   37.5360   25.8930   33.5320 C   0  0  0  0  0  0  0  0  0  0  0  0
   38.5320   27.0290   33.8120 C   0  0  0  0  0  0  0  0  0  0  0  0
   38.1700   27.4820   35.2000 C   0  0  0  0  0  0  0  0  0  0  0  0
   38.6010   26.4090   36.1520 C   0  0  0  0  0  0  0  0  0  0  0  0
   38.3510   25.0060   35.7200 C   0  0  1  0  0  0  0  0  0  0  0  0
   38.4310   20.0160   32.2750 H   0  0  0  0  0  0  0  0  0  0  0  0
   40.3480   21.6220   32.2520 H   0  0  0  0  0  0  0  0  0  0  0  0
   37.6340   25.6480   32.4520 H   0  0  0  0  0  0  0  0  0  0  0  0
   36.5010   26.2000   33.7680 H   0  0  0  0  0  0  0  0  0  0  0  0
   39.5490   26.5900   33.8720 H   0  0  0  0  0  0  0  0  0  0  0  0
   38.4330   27.8340   33.0600 H   0  0  0  0  0  0  0  0  0  0  0  0
   38.6890   28.4170   35.4440 H   0  0  0  0  0  0  0  0  0  0  0  0
   37.0520   27.5950   35.3150 H   0  0  0  0  0  0  0  0  0  0  0  0
   39.6720   26.6090   36.3680 H   0  0  0  0  0  0  0  0  0  0  0  0
   38.0850   26.6640   37.1160 H   0  0  0  0  0  0  0  0  0  0  0  0
   39.3520   24.4710   35.8280 H   0  0  0  0  0  0  0  0  0  0  0  0
   35.9550   20.4920   33.3480 C   0  0  0  0  0  0  0  0  0  0  0  0
   34.8580   21.0810   32.6960 F   0  0  0  0  0  0  0  0  0  0  0  0
   36.3230   19.3080   32.7940 F   0  0  0  0  0  0  0  0  0  0  0  0
   35.5810   20.3530   34.6760 F   0  0  0  0  0  0  0  0  0  0  0  0
   37.4740   24.3660   36.7660 C   0  0  0  0  0  3  0  0  0  0  0  0
   37.6290   23.0240   37.2940 C   0  0  0  0  0  2  0  0  0  0  0  0
   38.0890   24.1530   38.1630 C   0  0  0  0  0  2  0  0  0  0  0  0
  1 24  1  0  0  0  0
  1  6  1  0  0  0  0
  2  1  2  0  0  0  0
  3  2  1  0  0  0  0
  3  4  2  0  0  0  0
  4  5  1  0  0  0  0
  5  6  2  0  0  0  0
  5  7  1  0  0  0  0
  7 12  1  0  0  0  0
  8 16  1  0  0  0  0
  8  9  1  0  0  0  0
  8  7  1  0  0  0  0
  9 17  1  0  0  0  0
  9 10  1  0  0  0  0
 10 20  1  0  0  0  0
 10 19  1  0  0  0  0
 10 11  1  0  0  0  0
 11 21  1  0  0  0  0
 11 22  1  0  0  0  0
 12 23  1  1  0  0  0
 12 11  1  0  0  0  0
 12 28  1  0  0  0  0
 13  2  1  0  0  0  0
 14  3  1  0  0  0  0
 15  8  1  0  0  0  0
 18  9  1  0  0  0  0
 24 27  1  0  0  0  0
 25 24  1  0  0  0  0
 26 24  1  0  0  0  0
 28 29  1  0  0  0  0
 28 30  1  0  0  0  0
 29 30  1  0  0  0  0
M  END
>  <minimizedAffinity>
-5.03756523

$$$$

 OpenBabel03272500383D

 30 32  0  0  1  0  0  0  0  0999 V2000
   37.0300   23.3900   32.3210 C   0  0  0  0  0  0  0  0  0  0  0  0
   36.9340   22.1340   31.7050 C   0  0  0  0  0  0  0  0  0  0  0  0
   37.7180   21.0970   32.2160 C   0  0  0  0  0  0  0  0  0  0  0  0
   38.5220   21.3840   33.2790 N   0  0  0  0  0  0  0  0  0  0  0  0
   38.5860   22.6150   33.8470 C   0  0  0  0  0  0  0  0  0  0  0  0
   37.8360   23.6000   33.3550 N   0  0  0  0  0  0  0  0  0  0  0  0
   39.4520   22.7840   34.9520 N   0  0  0  0  0  0  0  0  0  0  0  0
   40.8240   23.2080   34.7030 C   0  0  0  0  0  0  0  0  0  0  0  0
   41.6830   22.2930   35.5900 C   0  0  0  0  0  0  0  0  0  0  0  0
   41.4080   22.7920   36.9830 C   0  0  0  0  0  0  0  0  0  0  0  0
   40.0080   22.3930   37.3370 C   0  0  0  0  0  0  0  0  0  0  0  0
   38.9890   22.5390   36.2600 C   0  0  1  0  0  0  0  0  0  0  0  0
   36.2900   21.9340   30.8640 H   0  0  0  0  0  0  0  0  0  0  0  0
   37.7070   20.1000   31.8030 H   0  0  0  0  0  0  0  0  0  0  0  0
   41.1320   23.0080   33.6530 H   0  0  0  0  0  0  0  0  0  0  0  0
   40.9780   24.2720   34.9570 H   0  0  0  0  0  0  0  0  0  0  0  0
   41.2700   21.2650   35.5300 H   0  0  0  0  0  0  0  0  0  0  0  0
   42.7520   22.3670   35.3140 H   0  0  0  0  0  0  0  0  0  0  0  0
   42.1080   22.3400   37.6960 H   0  0  0  0  0  0  0  0  0  0  0  0
   41.4510   23.9200   37.0290 H   0  0  0  0  0  0  0  0  0  0  0  0
   40.0790   21.3540   37.7240 H   0  0  0  0  0  0  0  0  0  0  0  0
   39.7650   23.0000   38.2490 H   0  0  0  0  0  0  0  0  0  0  0  0
   38.4690   21.5270   36.1930 H   0  0  0  0  0  0  0  0  0  0  0  0
   36.1860   24.5120   31.7880 C   0  0  0  0  0  0  0  0  0  0  0  0
   34.8470   24.0940   31.7120 F   0  0  0  0  0  0  0  0  0  0  0  0
   36.3520   25.6040   32.5790 F   0  0  0  0  0  0  0  0  0  0  0  0
   36.5880   24.7470   30.4820 F   0  0  0  0  0  0  0  0  0  0  0  0
   37.9230   23.4700   36.7780 C   0  0  0  0  0  3  0  0  0  0  0  0
   38.0100   24.2680   37.9860 C   0  0  0  0  0  2  0  0  0  0  0  0
   38.2080   24.9830   36.6860 C   0  0  0  0  0  2  0  0  0  0  0  0
  1  6  1  0  0  0  0
  2  3  1  0  0  0  0
  2  1  2  0  0  0  0
  3  4  2  0  0  0  0
  4  5  1  0  0  0  0
  5  7  1  0  0  0  0
  6  5  2  0  0  0  0
  7 12  1  0  0  0  0
  8  7  1  0  0  0  0
  8 16  1  0  0  0  0
  8  9  1  0  0  0  0
  9 10  1  0  0  0  0
 10 20  1  0  0  0  0
 10 11  1  0  0  0  0
 10 19  1  0  0  0  0
 11 21  1  0  0  0  0
 11 22  1  0  0  0  0
 12 23  1  6  0  0  0
 12 28  1  0  0  0  0
 12 11  1  0  0  0  0
 13  2  1  0  0  0  0
 14  3  1  0  0  0  0
 15  8  1  0  0  0  0
 17  9  1  0  0  0  0
 18  9  1  0  0  0  0
 24  1  1  0  0  0  0
 24 26  1  0  0  0  0
 25 24  1  0  0  0  0
 27 24  1  0  0  0  0
 28 29  1  0  0  0  0
 30 28  1  0  0  0  0
 30 29  1  0  0  0  0
M  END
>  <minimizedAffinity>
-5.02426434

$$$$

 OpenBabel03272500383D

 30 32  0  0  1  0  0  0  0  0999 V2000
   35.0040   31.0570   35.1490 C   0  0  0  0  0  0  0  0  0  0  0  0
   33.6340   30.9180   34.8840 C   0  0  0  0  0  0  0  0  0  0  0  0
   33.2340   29.8640   34.0590 C   0  0  0  0  0  0  0  0  0  0  0  0
   34.2080   29.0460   33.5710 N   0  0  0  0  0  0  0  0  0  0  0  0
   35.5250   29.2140   33.8520 C   0  0  0  0  0  0  0  0  0  0  0  0
   35.9010   30.2200   34.6380 N   0  0  0  0  0  0  0  0  0  0  0  0
   36.4390   28.2910   33.2910 N   0  0  0  0  0  0  0  0  0  0  0  0
   37.0320   28.5970   31.9950 C   0  0  0  0  0  0  0  0  0  0  0  0
   36.9370   27.2840   31.2030 C   0  0  0  0  0  0  0  0  0  0  0  0
   37.9640   26.4010   31.8580 C   0  0  0  0  0  0  0  0  0  0  0  0
   37.4360   26.0220   33.2090 C   0  0  0  0  0  0  0  0  0  0  0  0
   36.7570   27.1020   33.9770 C   0  0  1  0  0  0  0  0  0  0  0  0
   32.8840   31.5820   35.2840 H   0  0  0  0  0  0  0  0  0  0  0  0
   32.2010   29.6850   33.8030 H   0  0  0  0  0  0  0  0  0  0  0  0
   36.4310   29.3470   31.4350 H   0  0  0  0  0  0  0  0  0  0  0  0
   38.0800   28.9330   32.0910 H   0  0  0  0  0  0  0  0  0  0  0  0
   35.9460   26.8280   31.4030 H   0  0  0  0  0  0  0  0  0  0  0  0
   37.1450   27.4560   30.1300 H   0  0  0  0  0  0  0  0  0  0  0  0
   38.1250   25.4950   31.2620 H   0  0  0  0  0  0  0  0  0  0  0  0
   38.9340   26.9560   32.0280 H   0  0  0  0  0  0  0  0  0  0  0  0
   36.7850   25.1380   33.0410 H   0  0  0  0  0  0  0  0  0  0  0  0
   38.3240   25.5980   33.7490 H   0  0  0  0  0  0  0  0  0  0  0  0
   35.7470   26.6710   34.2820 H   0  0  0  0  0  0  0  0  0  0  0  0
   35.4490   32.1790   36.0410 C   0  0  0  0  0  0  0  0  0  0  0  0
   35.0280   31.9240   37.3570 F   0  0  0  0  0  0  0  0  0  0  0  0
   36.7960   32.3200   35.9370 F   0  0  0  0  0  0  0  0  0  0  0  0
   34.7720   33.3210   35.6380 F   0  0  0  0  0  0  0  0  0  0  0  0
   37.5020   27.2600   35.2790 C   0  0  0  0  0  3  0  0  0  0  0  0
   38.2690   26.2250   35.9450 C   0  0  0  0  0  2  0  0  0  0  0  0
   39.0420   27.2750   35.2080 C   0  0  0  0  0  2  0  0  0  0  0  0
  1 24  1  0  0  0  0
  2  1  1  0  0  0  0
  2 13  1  0  0  0  0
  3  2  2  0  0  0  0
  4  5  2  0  0  0  0
  4  3  1  0  0  0  0
  5  6  1  0  0  0  0
  6  1  2  0  0  0  0
  7  5  1  0  0  0  0
  7 12  1  0  0  0  0
  8 16  1  0  0  0  0
  8  7  1  0  0  0  0
  9 17  1  0  0  0  0
  9 10  1  0  0  0  0
  9  8  1  0  0  0  0
 10 20  1  0  0  0  0
 10 11  1  0  0  0  0
 11 22  1  0  0  0  0
 11 12  1  0  0  0  0
 12 23  1  1  0  0  0
 12 28  1  0  0  0  0
 14  3  1  0  0  0  0
 15  8  1  0  0  0  0
 18  9  1  0  0  0  0
 19 10  1  0  0  0  0
 21 11  1  0  0  0  0
 24 25  1  0  0  0  0
 26 24  1  0  0  0  0
 27 24  1  0  0  0  0
 28 29  1  0  0  0  0
 30 28  1  0  0  0  0
 30 29  1  0  0  0  0
M  END
>  <minimizedAffinity>
-5.01293516

$$$$

 OpenBabel03272500383D

 30 32  0  0  1  0  0  0  0  0999 V2000
   39.9970   23.1010   36.8560 C   0  0  0  0  0  0  0  0  0  0  0  0
   39.0970   22.9100   37.9150 C   0  0  0  0  0  0  0  0  0  0  0  0
   37.9030   23.6350   37.8940 C   0  0  0  0  0  0  0  0  0  0  0  0
   37.7010   24.4790   36.8420 N   0  0  0  0  0  0  0  0  0  0  0  0
   38.5980   24.6350   35.8360 C   0  0  0  0  0  0  0  0  0  0  0  0
   39.7340   23.9420   35.8610 N   0  0  0  0  0  0  0  0  0  0  0  0
   38.2670   25.5340   34.7960 N   0  0  0  0  0  0  0  0  0  0  0  0
   38.6830   26.9260   34.9190 C   0  0  0  0  0  0  0  0  0  0  0  0
   37.4470   27.7420   34.5080 C   0  0  0  0  0  0  0  0  0  0  0  0
   37.3630   27.5310   33.0210 C   0  0  0  0  0  0  0  0  0  0  0  0
   36.9290   26.1150   32.7900 C   0  0  0  0  0  0  0  0  0  0  0  0
   37.5450   25.0850   33.6720 C   0  0  1  0  0  0  0  0  0  0  0  0
   39.2830   22.2360   38.7350 H   0  0  0  0  0  0  0  0  0  0  0  0
   37.1560   23.5490   38.6680 H   0  0  0  0  0  0  0  0  0  0  0  0
   38.9030   27.1980   35.9750 H   0  0  0  0  0  0  0  0  0  0  0  0
   39.5490   27.1550   34.2710 H   0  0  0  0  0  0  0  0  0  0  0  0
   36.5520   27.2610   34.9530 H   0  0  0  0  0  0  0  0  0  0  0  0
   37.5700   28.8070   34.7820 H   0  0  0  0  0  0  0  0  0  0  0  0
   36.6280   28.2150   32.5790 H   0  0  0  0  0  0  0  0  0  0  0  0
   38.3750   27.6480   32.5330 H   0  0  0  0  0  0  0  0  0  0  0  0
   35.8200   26.1260   32.8510 H   0  0  0  0  0  0  0  0  0  0  0  0
   37.1330   25.9320   31.7020 H   0  0  0  0  0  0  0  0  0  0  0  0
   36.6720   24.4980   34.1120 H   0  0  0  0  0  0  0  0  0  0  0  0
   41.2800   22.3220   36.8600 C   0  0  0  0  0  0  0  0  0  0  0  0
   41.2990   21.4600   37.9690 F   0  0  0  0  0  0  0  0  0  0  0  0
   41.4000   21.6620   35.6790 F   0  0  0  0  0  0  0  0  0  0  0  0
   42.3120   23.2260   37.0600 F   0  0  0  0  0  0  0  0  0  0  0  0
   38.2460   24.0940   32.7790 C   0  0  0  0  0  3  0  0  0  0  0  0
   38.4450   24.2370   31.3500 C   0  0  0  0  0  2  0  0  0  0  0  0
   39.6280   24.5010   32.2290 C   0  0  0  0  0  2  0  0  0  0  0  0
  1 24  1  0  0  0  0
  1  2  1  0  0  0  0
  2 13  1  0  0  0  0
  3  2  2  0  0  0  0
  3 14  1  0  0  0  0
  4  3  1  0  0  0  0
  5  6  1  0  0  0  0
  5  4  2  0  0  0  0
  6  1  2  0  0  0  0
  7  8  1  0  0  0  0
  7  5  1  0  0  0  0
  8 15  1  0  0  0  0
  9 18  1  0  0  0  0
  9  8  1  0  0  0  0
  9 17  1  0  0  0  0
 10  9  1  0  0  0  0
 11 21  1  0  0  0  0
 11 10  1  0  0  0  0
 11 12  1  0  0  0  0
 12 23  1  1  0  0  0
 12  7  1  0  0  0  0
 16  8  1  0  0  0  0
 19 10  1  0  0  0  0
 20 10  1  0  0  0  0
 22 11  1  0  0  0  0
 24 27  1  0  0  0  0
 24 25  1  0  0  0  0
 26 24  1  0  0  0  0
 28 12  1  0  0  0  0
 29 30  1  0  0  0  0
 29 28  1  0  0  0  0
 30 28  1  0  0  0  0
M  END
>  <minimizedAffinity>
-4.89093542

$$$$

 OpenBabel03272500383D

 30 32  0  0  1  0  0  0  0  0999 V2000
   36.6160   22.1430   32.6660 C   0  0  0  0  0  0  0  0  0  0  0  0
   36.5440   21.2450   33.7400 C   0  0  0  0  0  0  0  0  0  0  0  0
   37.2430   21.5680   34.9060 C   0  0  0  0  0  0  0  0  0  0  0  0
   37.9450   22.7360   34.9130 N   0  0  0  0  0  0  0  0  0  0  0  0
   37.9890   23.5790   33.8500 C   0  0  0  0  0  0  0  0  0  0  0  0
   37.3220   23.2660   32.7410 N   0  0  0  0  0  0  0  0  0  0  0  0
   38.7460   24.7660   33.9850 N   0  0  0  0  0  0  0  0  0  0  0  0
   40.1480   24.7470   33.5870 C   0  0  0  0  0  0  0  0  0  0  0  0
   40.8870   25.4700   34.7240 C   0  0  0  0  0  0  0  0  0  0  0  0
   40.4900   26.9090   34.5440 C   0  0  0  0  0  0  0  0  0  0  0  0
   39.0510   27.0340   34.9400 C   0  0  0  0  0  0  0  0  0  0  0  0
   38.1480   25.9340   34.4990 C   0  0  1  0  0  0  0  0  0  0  0  0
   35.9810   20.3260   33.7080 H   0  0  0  0  0  0  0  0  0  0  0  0
   37.2430   20.9340   35.7800 H   0  0  0  0  0  0  0  0  0  0  0  0
   40.5530   23.7120   33.5560 H   0  0  0  0  0  0  0  0  0  0  0  0
   40.3080   25.2550   32.6180 H   0  0  0  0  0  0  0  0  0  0  0  0
   40.4520   25.1340   35.6880 H   0  0  0  0  0  0  0  0  0  0  0  0
   41.9790   25.3150   34.6440 H   0  0  0  0  0  0  0  0  0  0  0  0
   41.1020   27.5570   35.1840 H   0  0  0  0  0  0  0  0  0  0  0  0
   40.5610   27.2220   33.4600 H   0  0  0  0  0  0  0  0  0  0  0  0
   39.0510   27.1730   36.0430 H   0  0  0  0  0  0  0  0  0  0  0  0
   38.7360   28.0370   34.5470 H   0  0  0  0  0  0  0  0  0  0  0  0
   37.6080   25.5860   35.4400 H   0  0  0  0  0  0  0  0  0  0  0  0
   35.8630   21.8130   31.4090 C   0  0  0  0  0  0  0  0  0  0  0  0
   36.7110   21.1280   30.5230 F   0  0  0  0  0  0  0  0  0  0  0  0
   34.7530   21.1020   31.7330 F   0  0  0  0  0  0  0  0  0  0  0  0
   35.5510   23.0140   30.7880 F   0  0  0  0  0  0  0  0  0  0  0  0
   37.0640   26.5570   33.6570 C   0  0  0  0  0  3  0  0  0  0  0  0
   37.0150   27.9430   33.2310 C   0  0  0  0  0  2  0  0  0  0  0  0
   37.4300   26.9320   32.2060 C   0  0  0  0  0  2  0  0  0  0  0  0
  1  6  2  0  0  0  0
  1  2  1  0  0  0  0
  2  3  2  0  0  0  0
  3  4  1  0  0  0  0
  3 14  1  0  0  0  0
  5  7  1  0  0  0  0
  5  4  2  0  0  0  0
  6  5  1  0  0  0  0
  7 12  1  0  0  0  0
  8  7  1  0  0  0  0
  8  9  1  0  0  0  0
  9 17  1  0  0  0  0
 10  9  1  0  0  0  0
 10 11  1  0  0  0  0
 10 19  1  0  0  0  0
 11 21  1  0  0  0  0
 12 11  1  0  0  0  0
 12 23  1  1  0  0  0
 13  2  1  0  0  0  0
 15  8  1  0  0  0  0
 16  8  1  0  0  0  0
 18  9  1  0  0  0  0
 20 10  1  0  0  0  0
 22 11  1  0  0  0  0
 24 26  1  0  0  0  0
 24  1  1  0  0  0  0
 25 24  1  0  0  0  0
 27 24  1  0  0  0  0
 28 12  1  0  0  0  0
 29 28  1  0  0  0  0
 30 29  1  0  0  0  0
 30 28  1  0  0  0  0
M  END
>  <minimizedAffinity>
-4.87279415

$$$$

 OpenBabel03272500383D

 30 32  0  0  1  0  0  0  0  0999 V2000
   38.2250   24.0880   36.7770 C   0  0  0  0  0  0  0  0  0  0  0  0
   37.8230   25.4100   36.5350 C   0  0  0  0  0  0  0  0  0  0  0  0
   37.6720   25.8100   35.2050 C   0  0  0  0  0  0  0  0  0  0  0  0
   37.9290   24.8840   34.2380 N   0  0  0  0  0  0  0  0  0  0  0  0
   38.3170   23.6140   34.5150 C   0  0  0  0  0  0  0  0  0  0  0  0
   38.4600   23.2380   35.7840 N   0  0  0  0  0  0  0  0  0  0  0  0
   38.5440   22.7440   33.4230 N   0  0  0  0  0  0  0  0  0  0  0  0
   39.8880   22.6640   32.8640 C   0  0  0  0  0  0  0  0  0  0  0  0
   39.6820   22.7160   31.3420 C   0  0  0  0  0  0  0  0  0  0  0  0
   39.0870   21.3720   31.0200 C   0  0  0  0  0  0  0  0  0  0  0  0
   37.6870   21.3590   31.5540 C   0  0  0  0  0  0  0  0  0  0  0  0
   37.4860   21.9800   32.8920 C   0  0  1  0  0  0  0  0  0  0  0  0
   37.6270   26.1220   37.3190 H   0  0  0  0  0  0  0  0  0  0  0  0
   37.3660   26.8080   34.9280 H   0  0  0  0  0  0  0  0  0  0  0  0
   40.4980   23.5560   33.1290 H   0  0  0  0  0  0  0  0  0  0  0  0
   40.4050   21.7360   33.1670 H   0  0  0  0  0  0  0  0  0  0  0  0
   38.9010   23.4740   31.1240 H   0  0  0  0  0  0  0  0  0  0  0  0
   40.6410   22.8940   30.8200 H   0  0  0  0  0  0  0  0  0  0  0  0
   39.0660   21.2130   29.9350 H   0  0  0  0  0  0  0  0  0  0  0  0
   39.6460   20.5410   31.5430 H   0  0  0  0  0  0  0  0  0  0  0  0
   37.0590   21.8240   30.7640 H   0  0  0  0  0  0  0  0  0  0  0  0
   37.3860   20.2780   31.5280 H   0  0  0  0  0  0  0  0  0  0  0  0
   36.6360   22.7280   32.7570 H   0  0  0  0  0  0  0  0  0  0  0  0
   38.3830   23.6410   38.2010 C   0  0  0  0  0  0  0  0  0  0  0  0
   37.3320   22.7710   38.5360 F   0  0  0  0  0  0  0  0  0  0  0  0
   39.6060   23.0710   38.3530 F   0  0  0  0  0  0  0  0  0  0  0  0
   38.2240   24.7590   39.0060 F   0  0  0  0  0  0  0  0  0  0  0  0
   36.9080   20.9200   33.7940 C   0  0  0  0  0  3  0  0  0  0  0  0
   35.8470   21.1210   34.7630 C   0  0  0  0  0  2  0  0  0  0  0  0
   35.4760   20.4390   33.4830 C   0  0  0  0  0  2  0  0  0  0  0  0
  1 24  1  0  0  0  0
  2  1  1  0  0  0  0
  2 13  1  0  0  0  0
  3  2  2  0  0  0  0
  4  5  2  0  0  0  0
  4  3  1  0  0  0  0
  5  6  1  0  0  0  0
  6  1  2  0  0  0  0
  7  5  1  0  0  0  0
  8 15  1  0  0  0  0
  8 16  1  0  0  0  0
  8  7  1  0  0  0  0
  9  8  1  0  0  0  0
 10  9  1  0  0  0  0
 10 20  1  0  0  0  0
 10 11  1  0  0  0  0
 11 12  1  0  0  0  0
 12 23  1  6  0  0  0
 12  7  1  0  0  0  0
 12 28  1  0  0  0  0
 14  3  1  0  0  0  0
 17  9  1  0  0  0  0
 18  9  1  0  0  0  0
 19 10  1  0  0  0  0
 21 11  1  0  0  0  0
 22 11  1  0  0  0  0
 24 26  1  0  0  0  0
 24 25  1  0  0  0  0
 24 27  1  0  0  0  0
 28 29  1  0  0  0  0
 30 28  1  0  0  0  0
 30 29  1  0  0  0  0
M  END
>  <minimizedAffinity>
-4.84893227

$$$$

 OpenBabel03272500383D

 30 32  0  0  1  0  0  0  0  0999 V2000
   36.5450   21.0490   32.5580 C   0  0  0  0  0  0  0  0  0  0  0  0
   37.0390   20.8690   31.2580 C   0  0  0  0  0  0  0  0  0  0  0  0
   38.0210   21.7540   30.8070 C   0  0  0  0  0  0  0  0  0  0  0  0
   38.4270   22.7320   31.6660 N   0  0  0  0  0  0  0  0  0  0  0  0
   37.9220   22.8720   32.9180 C   0  0  0  0  0  0  0  0  0  0  0  0
   36.9860   22.0260   33.3430 N   0  0  0  0  0  0  0  0  0  0  0  0
   38.4320   23.9210   33.7170 N   0  0  0  0  0  0  0  0  0  0  0  0
   37.7640   25.2170   33.6760 C   0  0  0  0  0  0  0  0  0  0  0  0
   38.9040   26.2410   33.5680 C   0  0  0  0  0  0  0  0  0  0  0  0
   39.5350   26.2140   34.9330 C   0  0  0  0  0  0  0  0  0  0  0  0
   40.2600   24.9100   35.0700 C   0  0  0  0  0  0  0  0  0  0  0  0
   39.5650   23.7100   34.5280 C   0  0  1  0  0  0  0  0  0  0  0  0
   36.7000   20.0870   30.5990 H   0  0  0  0  0  0  0  0  0  0  0  0
   38.4570   21.6880   29.8210 H   0  0  0  0  0  0  0  0  0  0  0  0
   37.1480   25.3330   32.7580 H   0  0  0  0  0  0  0  0  0  0  0  0
   37.1520   25.3920   34.5790 H   0  0  0  0  0  0  0  0  0  0  0  0
   39.6590   25.8460   32.8570 H   0  0  0  0  0  0  0  0  0  0  0  0
   38.5120   27.2400   33.2990 H   0  0  0  0  0  0  0  0  0  0  0  0
   40.2470   27.0410   35.0420 H   0  0  0  0  0  0  0  0  0  0  0  0
   38.7510   26.2410   35.7470 H   0  0  0  0  0  0  0  0  0  0  0  0
   41.2600   25.0720   34.6130 H   0  0  0  0  0  0  0  0  0  0  0  0
   40.4820   24.8240   36.1670 H   0  0  0  0  0  0  0  0  0  0  0  0
   40.3190   23.2070   33.8360 H   0  0  0  0  0  0  0  0  0  0  0  0
   35.4960   20.1000   33.0600 C   0  0  0  0  0  0  0  0  0  0  0  0
   35.3440   20.2630   34.4470 F   0  0  0  0  0  0  0  0  0  0  0  0
   34.3430   20.3120   32.3750 F   0  0  0  0  0  0  0  0  0  0  0  0
   35.9810   18.8130   32.8780 F   0  0  0  0  0  0  0  0  0  0  0  0
   39.4010   22.7360   35.6670 C   0  0  0  0  0  3  0  0  0  0  0  0
   39.6750   23.0150   37.0630 C   0  0  0  0  0  2  0  0  0  0  0  0
   38.2370   22.9920   36.6460 C   0  0  0  0  0  2  0  0  0  0  0  0
  1 24  1  0  0  0  0
  1  6  1  0  0  0  0
  2  1  2  0  0  0  0
  3  2  1  0  0  0  0
  3  4  2  0  0  0  0
  4  5  1  0  0  0  0
  5  6  2  0  0  0  0
  5  7  1  0  0  0  0
  7 12  1  0  0  0  0
  8  7  1  0  0  0  0
  8 16  1  0  0  0  0
  9  8  1  0  0  0  0
  9 10  1  0  0  0  0
 10 19  1  0  0  0  0
 10 11  1  0  0  0  0
 10 20  1  0  0  0  0
 11 22  1  0  0  0  0
 12 23  1  6  0  0  0
 12 11  1  0  0  0  0
 12 28  1  0  0  0  0
 13  2  1  0  0  0  0
 14  3  1  0  0  0  0
 15  8  1  0  0  0  0
 17  9  1  0  0  0  0
 18  9  1  0  0  0  0
 21 11  1  0  0  0  0
 24 25  1  0  0  0  0
 26 24  1  0  0  0  0
 27 24  1  0  0  0  0
 28 30  1  0  0  0  0
 28 29  1  0  0  0  0
 30 29  1  0  0  0  0
M  END
>  <minimizedAffinity>
-4.83313513

$$$$
