
 OpenBabel03272507583D

 26 28  0  0  0  0  0  0  0  0999 V2000
   35.1790   28.6320   50.1800 C   0  0  0  0  0  0  0  0  0  0  0  0
   36.2310   29.5580   49.9250 C   0  0  0  0  0  0  0  0  0  0  0  0
   36.0970   30.4270   48.8490 C   0  0  0  0  0  0  0  0  0  0  0  0
   34.9550   30.3470   48.0890 N   0  0  0  0  0  0  0  0  0  0  0  0
   33.9730   29.4410   48.3750 C   0  0  0  0  0  0  0  0  0  0  0  0
   34.0790   28.6000   49.3970 N   0  0  0  0  0  0  0  0  0  0  0  0
   32.8930   29.5460   47.4500 N   0  0  0  0  0  0  0  0  0  0  0  0
   35.2620   27.9410   51.0190 H   0  0  0  0  0  0  0  0  0  0  0  0
   31.8970   29.5110   47.7690 H   0  0  0  0  0  0  0  0  0  0  0  0
   33.0270   29.6630   46.4180 H   0  0  0  0  0  0  0  0  0  0  0  0
   37.1470   31.3850   48.5580 C   0  0  0  0  0  0  0  0  0  0  0  0
   37.2180   32.3970   49.5070 C   0  0  0  0  0  0  0  0  0  0  0  0
   38.1710   33.3960   49.3760 C   0  0  0  0  0  0  0  0  0  0  0  0
   39.0420   33.3700   48.2960 C   0  0  0  0  0  0  0  0  0  0  0  0
   38.9450   32.3490   47.3710 C   0  0  0  0  0  0  0  0  0  0  0  0
   38.0120   31.4070   47.5350 N   0  0  0  0  0  0  0  0  0  0  0  0
   36.6020   32.5440   50.4030 H   0  0  0  0  0  0  0  0  0  0  0  0
   38.2910   34.2180   50.0700 H   0  0  0  0  0  0  0  0  0  0  0  0
   39.8100   34.1120   48.1250 H   0  0  0  0  0  0  0  0  0  0  0  0
   39.8530   32.2680   46.1890 C   0  0  0  0  0  0  0  0  0  0  0  0
   39.2430   32.5290   44.8180 C   0  0  0  0  0  0  0  0  0  0  0  0
   40.2570   33.4780   45.4520 C   0  0  0  0  0  0  0  0  0  0  0  0
   37.4180   29.5480   50.8200 C   0  0  0  0  0  0  0  0  0  0  0  0
   38.5870   29.8340   50.1090 F   0  0  0  0  0  0  0  0  0  0  0  0
   37.2520   30.5040   51.7750 F   0  0  0  0  0  0  0  0  0  0  0  0
   37.6040   28.3380   51.4620 F   0  0  0  0  0  0  0  0  0  0  0  0
  1  8  1  0  0  0  0
  2  1  1  0  0  0  0
  2 23  1  0  0  0  0
  3  2  2  0  0  0  0
  4  5  2  0  0  0  0
  4  3  1  0  0  0  0
  5  6  1  0  0  0  0
  6  1  2  0  0  0  0
  7  9  1  0  0  0  0
  7  5  1  0  0  0  0
 10  7  1  0  0  0  0
 11  3  1  0  0  0  0
 11 12  1  0  0  0  0
 12 17  1  0  0  0  0
 13 12  2  0  0  0  0
 13 18  1  0  0  0  0
 14 13  1  0  0  0  0
 15 16  1  0  0  0  0
 15 14  2  0  0  0  0
 16 11  2  0  0  0  0
 19 14  1  0  0  0  0
 20 15  1  0  0  0  0
 21 22  1  0  0  0  0
 21 20  1  0  0  0  0
 22 20  1  0  0  0  0
 23 26  1  0  0  0  0
 23 25  1  0  0  0  0
 24 23  1  0  0  0  0
M  END
>  <minimizedAffinity>
-6.83029795

>  <minimizedRMSD>
0.439717919

$$$$
