
 OpenBabel03272504293D

 36 39  0  0  0  0  0  0  0  0999 V2000
   38.0410   25.8670   33.6560 C   0  0  0  0  0  0  0  0  0  0  0  0
   37.9820   26.9870   34.4070 C   0  0  0  0  0  0  0  0  0  0  0  0
   38.9320   27.2730   35.3050 C   0  0  0  0  0  0  0  0  0  0  0  0
   39.9720   26.4130   35.4590 N   0  0  0  0  0  0  0  0  0  0  0  0
   40.0230   25.3140   34.7150 C   0  0  0  0  0  0  0  0  0  0  0  0
   39.0740   25.0230   33.8140 N   0  0  0  0  0  0  0  0  0  0  0  0
   37.1530   27.6800   34.2910 H   0  0  0  0  0  0  0  0  0  0  0  0
   38.8750   28.1710   35.9010 H   0  0  0  0  0  0  0  0  0  0  0  0
   41.1240   23.4570   35.8870 C   0  0  0  0  0  0  0  0  0  0  0  0
   41.1820   24.4840   34.9420 C   0  0  0  0  0  0  0  0  0  0  0  0
   42.3070   24.7880   34.2000 C   0  0  0  0  0  0  0  0  0  0  0  0
   43.4530   24.0470   34.3880 C   0  0  0  0  0  0  0  0  0  0  0  0
   43.4900   23.0160   35.3000 C   0  0  0  0  0  0  0  0  0  0  0  0
   42.3390   22.7910   35.9810 C   0  0  0  0  0  0  0  0  0  0  0  0
   42.3060   25.5920   33.4770 H   0  0  0  0  0  0  0  0  0  0  0  0
   44.3400   24.2810   33.8070 H   0  0  0  0  0  0  0  0  0  0  0  0
   44.3690   22.4340   35.4570 H   0  0  0  0  0  0  0  0  0  0  0  0
   42.3740   21.9650   36.7080 H   0  0  0  0  0  0  0  0  0  0  0  0
   39.7830   23.0460   36.7850 S   0  0  0  0  0  0  0  0  0  0  0  0
   40.5410   22.2370   37.8910 O   0  0  0  0  0  0  0  0  0  0  0  0
   38.9720   22.0800   35.9610 O   0  0  0  0  0  0  0  0  0  0  0  0
   38.6570   23.3640   37.8710 C   0  0  0  0  0  0  0  0  0  0  0  0
   37.3160   22.9340   37.8010 F   0  0  0  0  0  0  0  0  0  0  0  0
   38.2070   24.7580   37.7240 F   0  0  0  0  0  0  0  0  0  0  0  0
   38.9940   23.7120   39.2160 F   0  0  0  0  0  0  0  0  0  0  0  0
   35.3730   26.1000   31.1430 C   0  0  0  0  0  0  0  0  0  0  0  0
   35.1450   24.7460   30.8220 C   0  0  0  0  0  0  0  0  0  0  0  0
   35.9100   23.7890   31.4740 C   0  0  0  0  0  0  0  0  0  0  0  0
   36.8280   24.2160   32.3780 N   0  0  0  0  0  0  0  0  0  0  0  0
   37.0280   25.5320   32.6710 C   0  0  0  0  0  0  0  0  0  0  0  0
   36.2950   26.4540   32.0470 N   0  0  0  0  0  0  0  0  0  0  0  0
   34.7850   26.8430   30.6420 H   0  0  0  0  0  0  0  0  0  0  0  0
   34.4190   24.4080   30.1050 H   0  0  0  0  0  0  0  0  0  0  0  0
   35.7870   22.3180   31.2420 C   0  0  0  0  0  3  0  0  0  0  0  0
   36.5790   21.3960   32.1620 C   0  0  0  0  0  2  0  0  0  0  0  0
   35.0820   21.5200   32.3340 C   0  0  0  0  0  2  0  0  0  0  0  0
  1  6  2  0  0  0  0
  1  2  1  0  0  0  0
  2  3  2  0  0  0  0
  3  4  1  0  0  0  0
  3  8  1  0  0  0  0
  5 10  1  0  0  0  0
  5  4  2  0  0  0  0
  6  5  1  0  0  0  0
  7  2  1  0  0  0  0
  9 14  1  0  0  0  0
  9 19  1  0  0  0  0
 10  9  2  0  0  0  0
 11 12  2  0  0  0  0
 11 10  1  0  0  0  0
 12 13  1  0  0  0  0
 13 17  1  0  0  0  0
 13 14  2  0  0  0  0
 14 18  1  0  0  0  0
 15 11  1  0  0  0  0
 16 12  1  0  0  0  0
 19 22  1  0  0  0  0
 19 20  2  0  0  0  0
 21 19  2  0  0  0  0
 22 25  1  0  0  0  0
 23 22  1  0  0  0  0
 24 22  1  0  0  0  0
 26 31  1  0  0  0  0
 27 26  2  0  0  0  0
 27 28  1  0  0  0  0
 28 29  2  0  0  0  0
 29 30  1  0  0  0  0
 30  1  1  0  0  0  0
 31 30  2  0  0  0  0
 32 26  1  0  0  0  0
 33 27  1  0  0  0  0
 34 28  1  0  0  0  0
 34 35  1  0  0  0  0
 34 36  1  0  0  0  0
 35 36  1  0  0  0  0
M  END
>  <minimizedAffinity>
-6.74895144

$$$$

 OpenBabel03272504293D

 36 39  0  0  0  0  0  0  0  0999 V2000
   36.0220   28.3880   33.0030 C   0  0  0  0  0  0  0  0  0  0  0  0
   35.8070   29.0080   31.8240 C   0  0  0  0  0  0  0  0  0  0  0  0
   35.1800   30.1880   31.7620 C   0  0  0  0  0  0  0  0  0  0  0  0
   34.7530   30.7670   32.9140 N   0  0  0  0  0  0  0  0  0  0  0  0
   34.9680   30.1510   34.0700 C   0  0  0  0  0  0  0  0  0  0  0  0
   35.5960   28.9690   34.1380 N   0  0  0  0  0  0  0  0  0  0  0  0
   36.1460   28.5520   30.8970 H   0  0  0  0  0  0  0  0  0  0  0  0
   35.0140   30.6760   30.8130 H   0  0  0  0  0  0  0  0  0  0  0  0
   33.2040   30.6290   35.7110 C   0  0  0  0  0  0  0  0  0  0  0  0
   34.4940   30.8640   35.2330 C   0  0  0  0  0  0  0  0  0  0  0  0
   35.3720   31.7720   35.7930 C   0  0  0  0  0  0  0  0  0  0  0  0
   34.9700   32.5010   36.8900 C   0  0  0  0  0  0  0  0  0  0  0  0
   33.7140   32.3380   37.4300 C   0  0  0  0  0  0  0  0  0  0  0  0
   32.9230   31.4250   36.8140 C   0  0  0  0  0  0  0  0  0  0  0  0
   36.3640   31.9210   35.3890 H   0  0  0  0  0  0  0  0  0  0  0  0
   35.6570   33.2170   37.3350 H   0  0  0  0  0  0  0  0  0  0  0  0
   33.3880   32.8950   38.2780 H   0  0  0  0  0  0  0  0  0  0  0  0
   31.9200   31.2980   37.2500 H   0  0  0  0  0  0  0  0  0  0  0  0
   32.1250   29.5290   35.0790 S   0  0  0  0  0  0  0  0  0  0  0  0
   30.8330   30.3840   35.3050 O   0  0  0  0  0  0  0  0  0  0  0  0
   32.0860   28.3510   36.0150 O   0  0  0  0  0  0  0  0  0  0  0  0
   31.3750   28.8270   33.8560 C   0  0  0  0  0  0  0  0  0  0  0  0
   30.9680   27.4770   33.8200 F   0  0  0  0  0  0  0  0  0  0  0  0
   32.3380   28.5550   32.7750 F   0  0  0  0  0  0  0  0  0  0  0  0
   30.6480   29.5890   32.8900 F   0  0  0  0  0  0  0  0  0  0  0  0
   38.1490   25.6210   34.1460 C   0  0  0  0  0  0  0  0  0  0  0  0
   37.9210   24.6410   33.1600 C   0  0  0  0  0  0  0  0  0  0  0  0
   37.0450   24.9520   32.1290 C   0  0  0  0  0  0  0  0  0  0  0  0
   36.4650   26.1790   32.1360 N   0  0  0  0  0  0  0  0  0  0  0  0
   36.7030   27.1100   33.1020 C   0  0  0  0  0  0  0  0  0  0  0  0
   37.5440   26.8150   34.0940 N   0  0  0  0  0  0  0  0  0  0  0  0
   38.8250   25.3860   34.9450 H   0  0  0  0  0  0  0  0  0  0  0  0
   38.3800   23.6690   33.1550 H   0  0  0  0  0  0  0  0  0  0  0  0
   36.7000   24.0200   31.0130 C   0  0  0  0  0  3  0  0  0  0  0  0
   37.1080   22.5600   31.1680 C   0  0  0  0  0  2  0  0  0  0  0  0
   35.6560   22.9530   31.3230 C   0  0  0  0  0  2  0  0  0  0  0  0
  1 30  1  0  0  0  0
  1  6  1  0  0  0  0
  2  1  2  0  0  0  0
  3  2  1  0  0  0  0
  3  4  2  0  0  0  0
  4  5  1  0  0  0  0
  5  6  2  0  0  0  0
  5 10  1  0  0  0  0
  7  2  1  0  0  0  0
  8  3  1  0  0  0  0
  9 14  1  0  0  0  0
 10  9  2  0  0  0  0
 10 11  1  0  0  0  0
 11 12  2  0  0  0  0
 12 16  1  0  0  0  0
 12 13  1  0  0  0  0
 13 17  1  0  0  0  0
 14 18  1  0  0  0  0
 14 13  2  0  0  0  0
 15 11  1  0  0  0  0
 19 20  2  0  0  0  0
 19  9  1  0  0  0  0
 19 21  2  0  0  0  0
 22 19  1  0  0  0  0
 23 22  1  0  0  0  0
 24 22  1  0  0  0  0
 25 22  1  0  0  0  0
 26 32  1  0  0  0  0
 27 26  2  0  0  0  0
 28 29  2  0  0  0  0
 28 27  1  0  0  0  0
 29 30  1  0  0  0  0
 30 31  2  0  0  0  0
 31 26  1  0  0  0  0
 33 27  1  0  0  0  0
 34 35  1  0  0  0  0
 34 36  1  0  0  0  0
 34 28  1  0  0  0  0
 35 36  1  0  0  0  0
M  END
>  <minimizedAffinity>
-6.3262372

$$$$

 OpenBabel03272504293D

 36 39  0  0  0  0  0  0  0  0999 V2000
   35.8580   28.4230   32.7050 C   0  0  0  0  0  0  0  0  0  0  0  0
   35.6700   29.1150   31.5620 C   0  0  0  0  0  0  0  0  0  0  0  0
   35.1250   30.3370   31.5700 C   0  0  0  0  0  0  0  0  0  0  0  0
   34.7540   30.8850   32.7560 N   0  0  0  0  0  0  0  0  0  0  0  0
   34.9430   30.1980   33.8770 C   0  0  0  0  0  0  0  0  0  0  0  0
   35.4890   28.9730   33.8750 N   0  0  0  0  0  0  0  0  0  0  0  0
   35.9640   28.6850   30.6080 H   0  0  0  0  0  0  0  0  0  0  0  0
   34.9790   30.8830   30.6500 H   0  0  0  0  0  0  0  0  0  0  0  0
   33.2710   30.6390   35.6210 C   0  0  0  0  0  0  0  0  0  0  0  0
   34.5350   30.8810   35.0810 C   0  0  0  0  0  0  0  0  0  0  0  0
   35.4480   31.7690   35.6180 C   0  0  0  0  0  0  0  0  0  0  0  0
   35.1080   32.4710   36.7540 C   0  0  0  0  0  0  0  0  0  0  0  0
   33.8820   32.2990   37.3550 C   0  0  0  0  0  0  0  0  0  0  0  0
   33.0540   31.4060   36.7580 C   0  0  0  0  0  0  0  0  0  0  0  0
   36.4180   31.9250   35.1660 H   0  0  0  0  0  0  0  0  0  0  0  0
   35.8220   33.1710   37.1810 H   0  0  0  0  0  0  0  0  0  0  0  0
   33.6050   32.8350   38.2340 H   0  0  0  0  0  0  0  0  0  0  0  0
   32.0750   31.2720   37.2440 H   0  0  0  0  0  0  0  0  0  0  0  0
   32.1540   29.5620   35.0180 S   0  0  0  0  0  0  0  0  0  0  0  0
   30.8900   30.4580   35.2450 O   0  0  0  0  0  0  0  0  0  0  0  0
   32.0910   28.3990   35.9730 O   0  0  0  0  0  0  0  0  0  0  0  0
   31.3700   28.8630   33.8150 C   0  0  0  0  0  0  0  0  0  0  0  0
   30.9580   27.5140   33.7870 F   0  0  0  0  0  0  0  0  0  0  0  0
   32.3030   28.5890   32.7080 F   0  0  0  0  0  0  0  0  0  0  0  0
   30.6200   29.6280   32.8680 F   0  0  0  0  0  0  0  0  0  0  0  0
   36.8470   25.0020   31.8100 C   0  0  0  0  0  0  0  0  0  0  0  0
   37.6420   24.6230   32.9100 C   0  0  0  0  0  0  0  0  0  0  0  0
   37.8200   25.5480   33.9300 C   0  0  0  0  0  0  0  0  0  0  0  0
   37.2160   26.7570   33.8030 N   0  0  0  0  0  0  0  0  0  0  0  0
   36.4510   27.0990   32.7290 C   0  0  0  0  0  0  0  0  0  0  0  0
   36.2780   26.2130   31.7480 N   0  0  0  0  0  0  0  0  0  0  0  0
   36.7060   24.2910   31.0200 H   0  0  0  0  0  0  0  0  0  0  0  0
   38.1210   23.6650   33.0100 H   0  0  0  0  0  0  0  0  0  0  0  0
   38.6340   25.2960   35.1580 C   0  0  0  0  0  3  0  0  0  0  0  0
   38.3970   26.2100   36.3540 C   0  0  0  0  0  2  0  0  0  0  0  0
   37.8730   24.7910   36.3790 C   0  0  0  0  0  2  0  0  0  0  0  0
  1 30  1  0  0  0  0
  1  6  1  0  0  0  0
  2  3  1  0  0  0  0
  2  1  2  0  0  0  0
  3  4  2  0  0  0  0
  4  5  1  0  0  0  0
  5 10  1  0  0  0  0
  6  5  2  0  0  0  0
  7  2  1  0  0  0  0
  8  3  1  0  0  0  0
  9 14  1  0  0  0  0
 10 11  1  0  0  0  0
 10  9  2  0  0  0  0
 11 12  2  0  0  0  0
 12 16  1  0  0  0  0
 12 13  1  0  0  0  0
 13 17  1  0  0  0  0
 14 18  1  0  0  0  0
 14 13  2  0  0  0  0
 15 11  1  0  0  0  0
 19 20  2  0  0  0  0
 19  9  1  0  0  0  0
 19 21  2  0  0  0  0
 22 19  1  0  0  0  0
 23 22  1  0  0  0  0
 24 22  1  0  0  0  0
 25 22  1  0  0  0  0
 26 27  1  0  0  0  0
 27 33  1  0  0  0  0
 27 28  2  0  0  0  0
 28 34  1  0  0  0  0
 29 28  1  0  0  0  0
 30 29  2  0  0  0  0
 31 26  2  0  0  0  0
 31 30  1  0  0  0  0
 32 26  1  0  0  0  0
 34 35  1  0  0  0  0
 34 36  1  0  0  0  0
 35 36  1  0  0  0  0
M  END
>  <minimizedAffinity>
-6.29926348

$$$$

 OpenBabel03272504293D

 36 39  0  0  0  0  0  0  0  0999 V2000
   37.5570   25.5860   32.6080 C   0  0  0  0  0  0  0  0  0  0  0  0
   36.4950   24.8470   32.2220 C   0  0  0  0  0  0  0  0  0  0  0  0
   35.6170   25.3090   31.3240 C   0  0  0  0  0  0  0  0  0  0  0  0
   35.8040   26.5470   30.7970 N   0  0  0  0  0  0  0  0  0  0  0  0
   36.8510   27.2660   31.1820 C   0  0  0  0  0  0  0  0  0  0  0  0
   37.7340   26.8090   32.0810 N   0  0  0  0  0  0  0  0  0  0  0  0
   36.3380   23.8560   32.6380 H   0  0  0  0  0  0  0  0  0  0  0  0
   34.7710   24.7110   31.0210 H   0  0  0  0  0  0  0  0  0  0  0  0
   36.4860   29.6950   31.1910 C   0  0  0  0  0  0  0  0  0  0  0  0
   36.9670   28.5560   30.5430 C   0  0  0  0  0  0  0  0  0  0  0  0
   37.5450   28.5660   29.2890 C   0  0  0  0  0  0  0  0  0  0  0  0
   37.6620   29.7630   28.6160 C   0  0  0  0  0  0  0  0  0  0  0  0
   37.2140   30.9380   29.1760 C   0  0  0  0  0  0  0  0  0  0  0  0
   36.6620   30.8300   30.4100 C   0  0  0  0  0  0  0  0  0  0  0  0
   37.9050   27.6580   28.8250 H   0  0  0  0  0  0  0  0  0  0  0  0
   38.1160   29.7770   27.6290 H   0  0  0  0  0  0  0  0  0  0  0  0
   37.2970   31.8720   28.6680 H   0  0  0  0  0  0  0  0  0  0  0  0
   36.3060   31.7730   30.8520 H   0  0  0  0  0  0  0  0  0  0  0  0
   35.8040   29.7280   32.7100 S   0  0  0  0  0  0  0  0  0  0  0  0
   34.3530   29.3340   32.2710 O   0  0  0  0  0  0  0  0  0  0  0  0
   35.7900   31.1640   33.1640 O   0  0  0  0  0  0  0  0  0  0  0  0
   35.4880   29.0740   34.1320 C   0  0  0  0  0  0  0  0  0  0  0  0
   34.2780   29.2180   34.8420 F   0  0  0  0  0  0  0  0  0  0  0  0
   36.1850   29.8270   35.1890 F   0  0  0  0  0  0  0  0  0  0  0  0
   36.2040   27.9310   34.6040 F   0  0  0  0  0  0  0  0  0  0  0  0
   40.7030   24.8050   34.3330 C   0  0  0  0  0  0  0  0  0  0  0  0
   40.2520   24.1580   35.5010 C   0  0  0  0  0  0  0  0  0  0  0  0
   38.8830   24.0060   35.6680 C   0  0  0  0  0  0  0  0  0  0  0  0
   38.0660   24.4880   34.6970 N   0  0  0  0  0  0  0  0  0  0  0  0
   38.5280   25.1100   33.5760 C   0  0  0  0  0  0  0  0  0  0  0  0
   39.8430   25.2580   33.4120 N   0  0  0  0  0  0  0  0  0  0  0  0
   41.7610   24.9260   34.2000 H   0  0  0  0  0  0  0  0  0  0  0  0
   40.8990   23.7770   36.2710 H   0  0  0  0  0  0  0  0  0  0  0  0
   38.2510   23.3440   36.8500 C   0  0  0  0  0  3  0  0  0  0  0  0
   39.0860   23.2370   38.1210 C   0  0  0  0  0  2  0  0  0  0  0  0
   37.9570   24.2410   38.0480 C   0  0  0  0  0  2  0  0  0  0  0  0
  1 30  1  0  0  0  0
  2  1  1  0  0  0  0
  2  7  1  0  0  0  0
  3  2  2  0  0  0  0
  4  5  2  0  0  0  0
  4  3  1  0  0  0  0
  5  6  1  0  0  0  0
  6  1  2  0  0  0  0
  8  3  1  0  0  0  0
  9 19  1  0  0  0  0
 10  5  1  0  0  0  0
 10  9  1  0  0  0  0
 11 10  2  0  0  0  0
 12 13  2  0  0  0  0
 12 11  1  0  0  0  0
 13 14  1  0  0  0  0
 14 18  1  0  0  0  0
 14  9  2  0  0  0  0
 15 11  1  0  0  0  0
 16 12  1  0  0  0  0
 17 13  1  0  0  0  0
 19 21  2  0  0  0  0
 19 22  1  0  0  0  0
 20 19  2  0  0  0  0
 22 25  1  0  0  0  0
 22 23  1  0  0  0  0
 22 24  1  0  0  0  0
 26 27  1  0  0  0  0
 27 28  2  0  0  0  0
 27 33  1  0  0  0  0
 28 34  1  0  0  0  0
 29 28  1  0  0  0  0
 30 29  2  0  0  0  0
 31 30  1  0  0  0  0
 31 26  2  0  0  0  0
 32 26  1  0  0  0  0
 34 36  1  0  0  0  0
 34 35  1  0  0  0  0
 36 35  1  0  0  0  0
M  END
>  <minimizedAffinity>
-6.14728308

$$$$

 OpenBabel03272504293D

 36 39  0  0  0  0  0  0  0  0999 V2000
   39.2020   24.5730   32.9110 C   0  0  0  0  0  0  0  0  0  0  0  0
   40.1200   25.4880   32.5360 C   0  0  0  0  0  0  0  0  0  0  0  0
   41.3380   25.5180   33.0880 C   0  0  0  0  0  0  0  0  0  0  0  0
   41.6490   24.6070   34.0470 N   0  0  0  0  0  0  0  0  0  0  0  0
   40.7400   23.7110   34.4110 C   0  0  0  0  0  0  0  0  0  0  0  0
   39.5180   23.6760   33.8600 N   0  0  0  0  0  0  0  0  0  0  0  0
   39.8810   26.2200   31.7690 H   0  0  0  0  0  0  0  0  0  0  0  0
   42.0660   26.2540   32.7800 H   0  0  0  0  0  0  0  0  0  0  0  0
   40.4260   22.6040   36.5810 C   0  0  0  0  0  0  0  0  0  0  0  0
   41.1810   22.7770   35.4190 C   0  0  0  0  0  0  0  0  0  0  0  0
   42.3670   22.1160   35.1630 C   0  0  0  0  0  0  0  0  0  0  0  0
   42.8540   21.2290   36.0980 C   0  0  0  0  0  0  0  0  0  0  0  0
   42.1780   20.9970   37.2750 C   0  0  0  0  0  0  0  0  0  0  0  0
   41.0240   21.6890   37.4380 C   0  0  0  0  0  0  0  0  0  0  0  0
   42.9180   22.2800   34.2470 H   0  0  0  0  0  0  0  0  0  0  0  0
   43.7860   20.7070   35.9020 H   0  0  0  0  0  0  0  0  0  0  0  0
   42.5430   20.3140   38.0080 H   0  0  0  0  0  0  0  0  0  0  0  0
   40.4880   21.4980   38.3810 H   0  0  0  0  0  0  0  0  0  0  0  0
   38.9830   23.3640   36.9170 S   0  0  0  0  0  0  0  0  0  0  0  0
   39.1090   23.3220   38.4770 O   0  0  0  0  0  0  0  0  0  0  0  0
   37.8770   22.4280   36.5040 O   0  0  0  0  0  0  0  0  0  0  0  0
   38.0770   24.6680   37.0840 C   0  0  0  0  0  0  0  0  0  0  0  0
   36.9340   24.9670   36.3140 F   0  0  0  0  0  0  0  0  0  0  0  0
   38.7660   25.8280   36.4920 F   0  0  0  0  0  0  0  0  0  0  0  0
   38.0630   25.4160   38.3020 F   0  0  0  0  0  0  0  0  0  0  0  0
   35.9240   25.4970   31.5360 C   0  0  0  0  0  0  0  0  0  0  0  0
   35.3720   24.2420   31.2110 C   0  0  0  0  0  0  0  0  0  0  0  0
   36.1350   23.1120   31.4700 C   0  0  0  0  0  0  0  0  0  0  0  0
   37.3630   23.2870   32.0210 N   0  0  0  0  0  0  0  0  0  0  0  0
   37.8740   24.5130   32.3270 C   0  0  0  0  0  0  0  0  0  0  0  0
   37.1440   25.6000   32.0790 N   0  0  0  0  0  0  0  0  0  0  0  0
   35.3390   26.3730   31.3370 H   0  0  0  0  0  0  0  0  0  0  0  0
   34.3990   24.1030   30.7740 H   0  0  0  0  0  0  0  0  0  0  0  0
   35.6890   21.7150   31.1810 C   0  0  0  0  0  3  0  0  0  0  0  0
   36.4010   20.5870   31.9190 C   0  0  0  0  0  2  0  0  0  0  0  0
   34.9970   20.9790   32.3220 C   0  0  0  0  0  2  0  0  0  0  0  0
  1  6  1  0  0  0  0
  2  1  2  0  0  0  0
  2  3  1  0  0  0  0
  3  4  2  0  0  0  0
  4  5  1  0  0  0  0
  5 10  1  0  0  0  0
  6  5  2  0  0  0  0
  7  2  1  0  0  0  0
  8  3  1  0  0  0  0
  9 19  1  0  0  0  0
  9 14  1  0  0  0  0
 10  9  2  0  0  0  0
 11 10  1  0  0  0  0
 11 12  2  0  0  0  0
 12 13  1  0  0  0  0
 13 14  2  0  0  0  0
 13 17  1  0  0  0  0
 14 18  1  0  0  0  0
 15 11  1  0  0  0  0
 16 12  1  0  0  0  0
 19 22  1  0  0  0  0
 19 20  2  0  0  0  0
 21 19  2  0  0  0  0
 22 25  1  0  0  0  0
 23 22  1  0  0  0  0
 24 22  1  0  0  0  0
 26 31  1  0  0  0  0
 27 28  1  0  0  0  0
 27 26  2  0  0  0  0
 28 29  2  0  0  0  0
 29 30  1  0  0  0  0
 30  1  1  0  0  0  0
 31 30  2  0  0  0  0
 32 26  1  0  0  0  0
 33 27  1  0  0  0  0
 34 28  1  0  0  0  0
 34 35  1  0  0  0  0
 34 36  1  0  0  0  0
 35 36  1  0  0  0  0
M  END
>  <minimizedAffinity>
-6.11725235

$$$$

 OpenBabel03272504293D

 36 39  0  0  0  0  0  0  0  0999 V2000
   35.6500   29.7790   33.3040 C   0  0  0  0  0  0  0  0  0  0  0  0
   36.2070   30.4810   32.2950 C   0  0  0  0  0  0  0  0  0  0  0  0
   36.7060   29.8690   31.2150 C   0  0  0  0  0  0  0  0  0  0  0  0
   36.6490   28.5140   31.1410 N   0  0  0  0  0  0  0  0  0  0  0  0
   36.0990   27.8310   32.1380 C   0  0  0  0  0  0  0  0  0  0  0  0
   35.5980   28.4390   33.2220 N   0  0  0  0  0  0  0  0  0  0  0  0
   36.2570   31.5650   32.3460 H   0  0  0  0  0  0  0  0  0  0  0  0
   37.1490   30.4400   30.4130 H   0  0  0  0  0  0  0  0  0  0  0  0
   36.9090   25.5820   32.7050 C   0  0  0  0  0  0  0  0  0  0  0  0
   36.0700   26.4000   31.9460 C   0  0  0  0  0  0  0  0  0  0  0  0
   35.2000   25.9310   30.9810 C   0  0  0  0  0  0  0  0  0  0  0  0
   35.1430   24.5770   30.7340 C   0  0  0  0  0  0  0  0  0  0  0  0
   35.9350   23.6940   31.4320 C   0  0  0  0  0  0  0  0  0  0  0  0
   36.7550   24.2460   32.3600 C   0  0  0  0  0  0  0  0  0  0  0  0
   34.5670   26.6020   30.4170 H   0  0  0  0  0  0  0  0  0  0  0  0
   34.4610   24.2020   29.9750 H   0  0  0  0  0  0  0  0  0  0  0  0
   35.9030   22.6430   31.2520 H   0  0  0  0  0  0  0  0  0  0  0  0
   37.3860   23.5350   32.9160 H   0  0  0  0  0  0  0  0  0  0  0  0
   37.9530   26.1060   33.8920 S   0  0  0  0  0  0  0  0  0  0  0  0
   39.1180   26.5360   32.9380 O   0  0  0  0  0  0  0  0  0  0  0  0
   38.3960   24.8930   34.6670 O   0  0  0  0  0  0  0  0  0  0  0  0
   38.4790   27.1990   34.9310 C   0  0  0  0  0  0  0  0  0  0  0  0
   39.8260   27.5820   35.0960 F   0  0  0  0  0  0  0  0  0  0  0  0
   38.4860   26.6280   36.2890 F   0  0  0  0  0  0  0  0  0  0  0  0
   37.6110   28.2040   35.4600 F   0  0  0  0  0  0  0  0  0  0  0  0
   35.2390   31.8290   36.3230 C   0  0  0  0  0  0  0  0  0  0  0  0
   33.9100   31.5470   36.6980 C   0  0  0  0  0  0  0  0  0  0  0  0
   33.1890   30.6620   35.9080 C   0  0  0  0  0  0  0  0  0  0  0  0
   33.8090   30.1250   34.8260 N   0  0  0  0  0  0  0  0  0  0  0  0
   35.0960   30.4150   34.4860 C   0  0  0  0  0  0  0  0  0  0  0  0
   35.7920   31.2640   35.2420 N   0  0  0  0  0  0  0  0  0  0  0  0
   35.8000   32.5120   36.9300 H   0  0  0  0  0  0  0  0  0  0  0  0
   33.4180   31.9720   37.5540 H   0  0  0  0  0  0  0  0  0  0  0  0
   31.7730   30.2640   36.1730 C   0  0  0  0  0  3  0  0  0  0  0  0
   31.2840   28.9610   35.5520 C   0  0  0  0  0  2  0  0  0  0  0  0
   31.5720   29.0220   37.0350 C   0  0  0  0  0  2  0  0  0  0  0  0
  1 30  1  0  0  0  0
  2  7  1  0  0  0  0
  2  1  2  0  0  0  0
  3  2  1  0  0  0  0
  4  3  2  0  0  0  0
  4  5  1  0  0  0  0
  5  6  2  0  0  0  0
  6  1  1  0  0  0  0
  8  3  1  0  0  0  0
  9 19  1  0  0  0  0
 10  5  1  0  0  0  0
 10  9  2  0  0  0  0
 11 10  1  0  0  0  0
 12 11  2  0  0  0  0
 12 13  1  0  0  0  0
 13 14  2  0  0  0  0
 14  9  1  0  0  0  0
 14 18  1  0  0  0  0
 15 11  1  0  0  0  0
 16 12  1  0  0  0  0
 17 13  1  0  0  0  0
 19 21  2  0  0  0  0
 19 22  1  0  0  0  0
 20 19  2  0  0  0  0
 22 23  1  0  0  0  0
 22 25  1  0  0  0  0
 22 24  1  0  0  0  0
 26 27  1  0  0  0  0
 26 32  1  0  0  0  0
 27 33  1  0  0  0  0
 28 34  1  0  0  0  0
 28 27  2  0  0  0  0
 29 28  1  0  0  0  0
 30 29  2  0  0  0  0
 30 31  1  0  0  0  0
 31 26  2  0  0  0  0
 34 36  1  0  0  0  0
 35 34  1  0  0  0  0
 35 36  1  0  0  0  0
M  END
>  <minimizedAffinity>
-6.08529329

$$$$

 OpenBabel03272504293D

 36 39  0  0  0  0  0  0  0  0999 V2000
   35.5830   29.1090   32.1010 C   0  0  0  0  0  0  0  0  0  0  0  0
   35.4290   30.0960   31.1940 C   0  0  0  0  0  0  0  0  0  0  0  0
   34.4010   30.9490   31.2630 C   0  0  0  0  0  0  0  0  0  0  0  0
   33.4980   30.8120   32.2680 N   0  0  0  0  0  0  0  0  0  0  0  0
   33.6570   29.8390   33.1570 C   0  0  0  0  0  0  0  0  0  0  0  0
   34.6850   28.9810   33.0930 N   0  0  0  0  0  0  0  0  0  0  0  0
   36.1460   30.2130   30.3860 H   0  0  0  0  0  0  0  0  0  0  0  0
   34.2870   31.7360   30.5320 H   0  0  0  0  0  0  0  0  0  0  0  0
   32.8170   30.5720   35.3450 C   0  0  0  0  0  0  0  0  0  0  0  0
   32.6550   29.7980   34.1950 C   0  0  0  0  0  0  0  0  0  0  0  0
   31.5830   28.9540   33.9770 C   0  0  0  0  0  0  0  0  0  0  0  0
   30.6050   28.8520   34.9420 C   0  0  0  0  0  0  0  0  0  0  0  0
   30.6820   29.5760   36.1100 C   0  0  0  0  0  0  0  0  0  0  0  0
   31.7680   30.3790   36.2340 C   0  0  0  0  0  0  0  0  0  0  0  0
   31.4980   28.3730   33.0690 H   0  0  0  0  0  0  0  0  0  0  0  0
   29.7600   28.1890   34.7760 H   0  0  0  0  0  0  0  0  0  0  0  0
   29.9330   29.5090   36.8660 H   0  0  0  0  0  0  0  0  0  0  0  0
   31.8240   30.9560   37.1700 H   0  0  0  0  0  0  0  0  0  0  0  0
   34.0800   31.6180   35.6350 S   0  0  0  0  0  0  0  0  0  0  0  0
   33.9710   31.6130   37.1970 O   0  0  0  0  0  0  0  0  0  0  0  0
   33.6630   32.9750   35.1330 O   0  0  0  0  0  0  0  0  0  0  0  0
   35.6340   31.9460   35.8030 C   0  0  0  0  0  0  0  0  0  0  0  0
   36.1650   33.1980   36.1770 F   0  0  0  0  0  0  0  0  0  0  0  0
   36.2560   32.0910   34.4760 F   0  0  0  0  0  0  0  0  0  0  0  0
   36.5940   30.9130   36.0370 F   0  0  0  0  0  0  0  0  0  0  0  0
   38.0820   26.6790   30.9440 C   0  0  0  0  0  0  0  0  0  0  0  0
   38.8160   26.4210   32.1200 C   0  0  0  0  0  0  0  0  0  0  0  0
   38.4360   27.0850   33.2780 C   0  0  0  0  0  0  0  0  0  0  0  0
   37.3840   27.9400   33.2050 N   0  0  0  0  0  0  0  0  0  0  0  0
   36.6900   28.1710   32.0550 C   0  0  0  0  0  0  0  0  0  0  0  0
   37.0520   27.5350   30.9410 N   0  0  0  0  0  0  0  0  0  0  0  0
   38.3720   26.1690   30.0470 H   0  0  0  0  0  0  0  0  0  0  0  0
   39.6500   25.7450   32.1780 H   0  0  0  0  0  0  0  0  0  0  0  0
   39.1130   26.9190   34.6000 C   0  0  0  0  0  3  0  0  0  0  0  0
   38.3680   27.4110   35.8350 C   0  0  0  0  0  2  0  0  0  0  0  0
   38.4740   25.9270   35.5650 C   0  0  0  0  0  2  0  0  0  0  0  0
  1  6  1  0  0  0  0
  2  3  1  0  0  0  0
  2  1  2  0  0  0  0
  3  4  2  0  0  0  0
  4  5  1  0  0  0  0
  5 10  1  0  0  0  0
  6  5  2  0  0  0  0
  7  2  1  0  0  0  0
  8  3  1  0  0  0  0
  9 19  1  0  0  0  0
  9 14  1  0  0  0  0
 10  9  2  0  0  0  0
 11 10  1  0  0  0  0
 11 12  2  0  0  0  0
 12 13  1  0  0  0  0
 13 14  2  0  0  0  0
 13 17  1  0  0  0  0
 14 18  1  0  0  0  0
 15 11  1  0  0  0  0
 16 12  1  0  0  0  0
 19 22  1  0  0  0  0
 19 20  2  0  0  0  0
 21 19  2  0  0  0  0
 22 25  1  0  0  0  0
 22 23  1  0  0  0  0
 24 22  1  0  0  0  0
 26 27  1  0  0  0  0
 27 33  1  0  0  0  0
 27 28  2  0  0  0  0
 28 34  1  0  0  0  0
 29 28  1  0  0  0  0
 30  1  1  0  0  0  0
 30 29  2  0  0  0  0
 31 26  2  0  0  0  0
 31 30  1  0  0  0  0
 32 26  1  0  0  0  0
 34 36  1  0  0  0  0
 34 35  1  0  0  0  0
 36 35  1  0  0  0  0
M  END
>  <minimizedAffinity>
-6.01580763

$$$$

 OpenBabel03272504293D

 36 39  0  0  0  0  0  0  0  0999 V2000
   36.0410   28.4400   32.4970 C   0  0  0  0  0  0  0  0  0  0  0  0
   36.8860   28.9960   31.6040 C   0  0  0  0  0  0  0  0  0  0  0  0
   37.7910   28.2600   30.9490 C   0  0  0  0  0  0  0  0  0  0  0  0
   37.8560   26.9250   31.1960 N   0  0  0  0  0  0  0  0  0  0  0  0
   37.0200   26.3850   32.0750 C   0  0  0  0  0  0  0  0  0  0  0  0
   36.1120   27.1190   32.7330 N   0  0  0  0  0  0  0  0  0  0  0  0
   36.8410   30.0630   31.4000 H   0  0  0  0  0  0  0  0  0  0  0  0
   38.4620   28.7150   30.2370 H   0  0  0  0  0  0  0  0  0  0  0  0
   37.8740   24.4550   33.3320 C   0  0  0  0  0  0  0  0  0  0  0  0
   37.1590   24.9580   32.2430 C   0  0  0  0  0  0  0  0  0  0  0  0
   36.5740   24.1690   31.2730 C   0  0  0  0  0  0  0  0  0  0  0  0
   36.6920   22.7990   31.3640 C   0  0  0  0  0  0  0  0  0  0  0  0
   37.3800   22.2140   32.4020 C   0  0  0  0  0  0  0  0  0  0  0  0
   37.9190   23.0680   33.3070 C   0  0  0  0  0  0  0  0  0  0  0  0
   36.0280   24.6020   30.4460 H   0  0  0  0  0  0  0  0  0  0  0  0
   36.2330   22.1730   30.6030 H   0  0  0  0  0  0  0  0  0  0  0  0
   37.4800   21.1550   32.4860 H   0  0  0  0  0  0  0  0  0  0  0  0
   38.4680   22.5930   34.1350 H   0  0  0  0  0  0  0  0  0  0  0  0
   38.5740   25.3710   34.5340 S   0  0  0  0  0  0  0  0  0  0  0  0
   39.8780   24.5180   34.6820 O   0  0  0  0  0  0  0  0  0  0  0  0
   37.7430   25.1900   35.7770 O   0  0  0  0  0  0  0  0  0  0  0  0
   39.4110   26.6320   35.0450 C   0  0  0  0  0  0  0  0  0  0  0  0
   38.8920   27.6950   35.8130 F   0  0  0  0  0  0  0  0  0  0  0  0
   39.6350   27.5640   33.9260 F   0  0  0  0  0  0  0  0  0  0  0  0
   40.8340   26.5830   35.1670 F   0  0  0  0  0  0  0  0  0  0  0  0
   32.8620   29.8980   33.6180 C   0  0  0  0  0  0  0  0  0  0  0  0
   33.2730   30.7320   34.6770 C   0  0  0  0  0  0  0  0  0  0  0  0
   34.6270   30.7740   34.9800 C   0  0  0  0  0  0  0  0  0  0  0  0
   35.4680   30.0110   34.2380 N   0  0  0  0  0  0  0  0  0  0  0  0
   35.0460   29.2120   33.2180 C   0  0  0  0  0  0  0  0  0  0  0  0
   33.7460   29.1690   32.9230 N   0  0  0  0  0  0  0  0  0  0  0  0
   31.8170   29.8610   33.3790 H   0  0  0  0  0  0  0  0  0  0  0  0
   32.6060   31.3360   35.2650 H   0  0  0  0  0  0  0  0  0  0  0  0
   35.2150   31.6070   36.0720 C   0  0  0  0  0  3  0  0  0  0  0  0
   36.4560   32.4260   35.7360 C   0  0  0  0  0  2  0  0  0  0  0  0
   35.1210   33.1180   35.8930 C   0  0  0  0  0  2  0  0  0  0  0  0
  1  6  1  0  0  0  0
  1 30  1  0  0  0  0
  2  1  2  0  0  0  0
  3  4  2  0  0  0  0
  3  2  1  0  0  0  0
  4  5  1  0  0  0  0
  5 10  1  0  0  0  0
  5  6  2  0  0  0  0
  7  2  1  0  0  0  0
  8  3  1  0  0  0  0
  9 19  1  0  0  0  0
 10  9  2  0  0  0  0
 11 12  2  0  0  0  0
 11 10  1  0  0  0  0
 12 13  1  0  0  0  0
 13 17  1  0  0  0  0
 13 14  2  0  0  0  0
 14  9  1  0  0  0  0
 14 18  1  0  0  0  0
 15 11  1  0  0  0  0
 16 12  1  0  0  0  0
 19 20  2  0  0  0  0
 19 22  1  0  0  0  0
 19 21  2  0  0  0  0
 22 25  1  0  0  0  0
 22 23  1  0  0  0  0
 24 22  1  0  0  0  0
 26 27  1  0  0  0  0
 27 28  2  0  0  0  0
 27 33  1  0  0  0  0
 28 34  1  0  0  0  0
 29 28  1  0  0  0  0
 30 29  2  0  0  0  0
 31 30  1  0  0  0  0
 31 26  2  0  0  0  0
 32 26  1  0  0  0  0
 35 36  1  0  0  0  0
 35 34  1  0  0  0  0
 36 34  1  0  0  0  0
M  END
>  <minimizedAffinity>
-5.98083544

$$$$

 OpenBabel03272504293D

 36 39  0  0  0  0  0  0  0  0999 V2000
   37.4850   25.6930   31.1090 C   0  0  0  0  0  0  0  0  0  0  0  0
   38.5820   25.3980   30.3820 C   0  0  0  0  0  0  0  0  0  0  0  0
   39.0000   24.1350   30.2350 C   0  0  0  0  0  0  0  0  0  0  0  0
   38.3010   23.1370   30.8340 N   0  0  0  0  0  0  0  0  0  0  0  0
   37.2220   23.4360   31.5480 C   0  0  0  0  0  0  0  0  0  0  0  0
   36.7990   24.6990   31.6980 N   0  0  0  0  0  0  0  0  0  0  0  0
   39.1480   26.1900   29.8990 H   0  0  0  0  0  0  0  0  0  0  0  0
   39.8800   23.9090   29.6510 H   0  0  0  0  0  0  0  0  0  0  0  0
   36.8890   21.8570   33.3990 C   0  0  0  0  0  0  0  0  0  0  0  0
   36.5420   22.2990   32.1210 C   0  0  0  0  0  0  0  0  0  0  0  0
   35.5810   21.6990   31.3300 C   0  0  0  0  0  0  0  0  0  0  0  0
   34.9140   20.5940   31.8120 C   0  0  0  0  0  0  0  0  0  0  0  0
   35.1910   20.0860   33.0610 C   0  0  0  0  0  0  0  0  0  0  0  0
   36.1470   20.7410   33.7640 C   0  0  0  0  0  0  0  0  0  0  0  0
   35.3440   22.0760   30.3450 H   0  0  0  0  0  0  0  0  0  0  0  0
   34.1570   20.1180   31.1940 H   0  0  0  0  0  0  0  0  0  0  0  0
   34.6830   19.2310   33.4470 H   0  0  0  0  0  0  0  0  0  0  0  0
   36.3640   20.3300   34.7630 H   0  0  0  0  0  0  0  0  0  0  0  0
   38.0240   22.5650   34.3910 S   0  0  0  0  0  0  0  0  0  0  0  0
   39.2530   21.7360   33.8890 O   0  0  0  0  0  0  0  0  0  0  0  0
   37.7100   22.1430   35.8030 O   0  0  0  0  0  0  0  0  0  0  0  0
   39.0410   23.7380   34.7640 C   0  0  0  0  0  0  0  0  0  0  0  0
   40.0430   23.6620   35.7540 F   0  0  0  0  0  0  0  0  0  0  0  0
   38.3450   24.7610   35.5630 F   0  0  0  0  0  0  0  0  0  0  0  0
   39.3350   24.7910   33.8430 F   0  0  0  0  0  0  0  0  0  0  0  0
   36.4460   29.1590   30.4770 C   0  0  0  0  0  0  0  0  0  0  0  0
   36.0730   29.5980   31.7630 C   0  0  0  0  0  0  0  0  0  0  0  0
   36.1860   28.6980   32.8130 C   0  0  0  0  0  0  0  0  0  0  0  0
   36.6490   27.4520   32.5360 N   0  0  0  0  0  0  0  0  0  0  0  0
   37.0040   27.0520   31.2820 C   0  0  0  0  0  0  0  0  0  0  0  0
   36.8970   27.9140   30.2710 N   0  0  0  0  0  0  0  0  0  0  0  0
   36.3600   29.8500   29.6620 H   0  0  0  0  0  0  0  0  0  0  0  0
   35.7050   30.5850   31.9830 H   0  0  0  0  0  0  0  0  0  0  0  0
   35.8310   29.0140   34.2300 C   0  0  0  0  0  3  0  0  0  0  0  0
   35.5050   30.4650   34.5630 C   0  0  0  0  0  2  0  0  0  0  0  0
   34.3910   29.4450   34.4830 C   0  0  0  0  0  2  0  0  0  0  0  0
  1 30  1  0  0  0  0
  1  6  1  0  0  0  0
  2  1  2  0  0  0  0
  3  2  1  0  0  0  0
  3  4  2  0  0  0  0
  4  5  1  0  0  0  0
  5  6  2  0  0  0  0
  5 10  1  0  0  0  0
  7  2  1  0  0  0  0
  8  3  1  0  0  0  0
  9 14  1  0  0  0  0
  9 19  1  0  0  0  0
 10  9  2  0  0  0  0
 11 12  2  0  0  0  0
 11 10  1  0  0  0  0
 12 13  1  0  0  0  0
 13 17  1  0  0  0  0
 13 14  2  0  0  0  0
 14 18  1  0  0  0  0
 15 11  1  0  0  0  0
 16 12  1  0  0  0  0
 19 22  1  0  0  0  0
 19 21  2  0  0  0  0
 20 19  2  0  0  0  0
 22 24  1  0  0  0  0
 22 23  1  0  0  0  0
 25 22  1  0  0  0  0
 26 27  1  0  0  0  0
 27 33  1  0  0  0  0
 27 28  2  0  0  0  0
 28 34  1  0  0  0  0
 29 28  1  0  0  0  0
 30 29  2  0  0  0  0
 31 26  2  0  0  0  0
 31 30  1  0  0  0  0
 32 26  1  0  0  0  0
 34 36  1  0  0  0  0
 34 35  1  0  0  0  0
 36 35  1  0  0  0  0
M  END
>  <minimizedAffinity>
-5.96385241

$$$$
