
 OpenBabel03272509473D

 19 20  0  0  0  0  0  0  0  0999 V2000
   34.8550   28.2950   49.6450 O   0  0  0  0  0  0  0  0  0  0  0  0
   37.3400   30.2380   51.4180 C   0  0  0  0  0  0  0  0  0  0  0  0
   38.0780   30.7180   50.3400 C   0  0  0  0  0  0  0  0  0  0  0  0
   37.6930   30.3560   49.0530 C   0  0  0  0  0  0  0  0  0  0  0  0
   36.5940   29.5370   48.9530 N   0  0  0  0  0  0  0  0  0  0  0  0
   35.9060   29.0930   50.0050 C   0  0  0  0  0  0  0  0  0  0  0  0
   36.2820   29.4470   51.2540 N   0  0  0  0  0  0  0  0  0  0  0  0
   37.5850   30.4810   52.4540 H   0  0  0  0  0  0  0  0  0  0  0  0
   38.9320   31.3610   50.5300 H   0  0  0  0  0  0  0  0  0  0  0  0
   38.2420   30.7100   48.1960 H   0  0  0  0  0  0  0  0  0  0  0  0
   34.4260   28.3210   48.2880 C   0  0  0  0  0  0  0  0  0  0  0  0
   33.9800   29.2990   48.0340 H   0  0  0  0  0  0  0  0  0  0  0  0
   35.2880   28.1910   47.6020 H   0  0  0  0  0  0  0  0  0  0  0  0
   33.4470   27.2020   48.0460 C   0  0  0  0  0  0  0  0  0  0  0  0
   33.3120   27.0300   46.9790 H   0  0  0  0  0  0  0  0  0  0  0  0
   33.7530   26.3110   48.6140 H   0  0  0  0  0  0  0  0  0  0  0  0
   32.1050   27.6850   48.6010 C   0  0  0  0  0  3  0  0  0  0  0  0
   30.9870   27.9230   47.6610 C   0  0  0  0  0  2  0  0  0  0  0  0
   30.9450   26.7040   48.5260 C   0  0  0  0  0  2  0  0  0  0  0  0
  1  6  1  0  0  0  0
  2  8  1  0  0  0  0
  3  9  1  0  0  0  0
  3  2  2  0  0  0  0
  4  3  1  0  0  0  0
  5  4  2  0  0  0  0
  5  6  1  0  0  0  0
  6  7  2  0  0  0  0
  7  2  1  0  0  0  0
 10  4  1  0  0  0  0
 11  1  1  0  0  0  0
 12 11  1  0  0  0  0
 13 11  1  0  0  0  0
 14 11  1  0  0  0  0
 14 17  1  0  0  0  0
 14 16  1  0  0  0  0
 15 14  1  0  0  0  0
 18 19  1  0  0  0  0
 18 17  1  0  0  0  0
 19 17  1  0  0  0  0
M  END
>  <minimizedAffinity>
-3.89691186

>  <minimizedRMSD>
1.2377677

$$$$
