
 OpenBabel03262520383D

 12 13  0  0  0  0  0  0  0  0999 V2000
   38.7650   24.7830   36.1930 C   0  0  0  0  0  0  0  0  0  0  0  0
   38.0440   24.6230   37.4020 C   0  0  0  0  0  0  0  0  0  0  0  0
   38.4280   23.5760   38.2380 C   0  0  0  0  0  0  0  0  0  0  0  0
   39.4560   22.7740   37.8570 N   0  0  0  0  0  0  0  0  0  0  0  0
   40.1280   22.9550   36.6890 C   0  0  0  0  0  0  0  0  0  0  0  0
   39.7700   23.9670   35.8650 N   0  0  0  0  0  0  0  0  0  0  0  0
   37.2350   25.2690   37.6820 H   0  0  0  0  0  0  0  0  0  0  0  0
   37.9170   23.3930   39.1860 H   0  0  0  0  0  0  0  0  0  0  0  0
   40.9410   22.2880   36.4330 H   0  0  0  0  0  0  0  0  0  0  0  0
   38.3630   25.9070   35.2850 C   0  0  0  0  0  3  0  0  0  0  0  0
   38.1230   27.2570   35.8380 C   0  0  0  0  0  2  0  0  0  0  0  0
   39.4050   26.9770   35.1220 C   0  0  0  0  0  2  0  0  0  0  0  0
  1  2  1  0  0  0  0
  2  7  1  0  0  0  0
  2  3  2  0  0  0  0
  3  8  1  0  0  0  0
  4  3  1  0  0  0  0
  5  4  2  0  0  0  0
  6  1  2  0  0  0  0
  6  5  1  0  0  0  0
  9  5  1  0  0  0  0
 10 11  1  0  0  0  0
 10  1  1  0  0  0  0
 12 10  1  0  0  0  0
 12 11  1  0  0  0  0
M  END
>  <minimizedAffinity>
-3.38132501

$$$$

 OpenBabel03262520383D

 12 13  0  0  0  0  0  0  0  0999 V2000
   38.5970   24.8830   36.2930 C   0  0  0  0  0  0  0  0  0  0  0  0
   39.5070   23.8460   35.9690 C   0  0  0  0  0  0  0  0  0  0  0  0
   39.7220   22.8630   36.9330 C   0  0  0  0  0  0  0  0  0  0  0  0
   39.0600   22.9480   38.1170 N   0  0  0  0  0  0  0  0  0  0  0  0
   38.1920   23.9560   38.3970 C   0  0  0  0  0  0  0  0  0  0  0  0
   37.9700   24.9200   37.4730 N   0  0  0  0  0  0  0  0  0  0  0  0
   40.0190   23.8010   35.0280 H   0  0  0  0  0  0  0  0  0  0  0  0
   40.4100   22.0350   36.7530 H   0  0  0  0  0  0  0  0  0  0  0  0
   37.6890   23.9770   39.3540 H   0  0  0  0  0  0  0  0  0  0  0  0
   38.3550   25.9460   35.2640 C   0  0  0  0  0  3  0  0  0  0  0  0
   38.0440   27.3280   35.6860 C   0  0  0  0  0  2  0  0  0  0  0  0
   39.4210   27.0050   35.2030 C   0  0  0  0  0  2  0  0  0  0  0  0
  1  6  1  0  0  0  0
  2  1  2  0  0  0  0
  2  3  1  0  0  0  0
  3  4  2  0  0  0  0
  4  5  1  0  0  0  0
  5  9  1  0  0  0  0
  6  5  2  0  0  0  0
  7  2  1  0  0  0  0
  8  3  1  0  0  0  0
 10 11  1  0  0  0  0
 10  1  1  0  0  0  0
 12 10  1  0  0  0  0
 12 11  1  0  0  0  0
M  END
>  <minimizedAffinity>
-3.36001635

$$$$

 OpenBabel03262520383D

 12 13  0  0  0  0  0  0  0  0999 V2000
   38.5240   25.1630   36.2990 C   0  0  0  0  0  0  0  0  0  0  0  0
   39.5610   24.6700   35.4690 C   0  0  0  0  0  0  0  0  0  0  0  0
   40.2150   25.5910   34.6520 C   0  0  0  0  0  0  0  0  0  0  0  0
   39.8310   26.8940   34.6920 N   0  0  0  0  0  0  0  0  0  0  0  0
   38.8310   27.3350   35.5010 C   0  0  0  0  0  0  0  0  0  0  0  0
   38.1840   26.4560   36.3010 N   0  0  0  0  0  0  0  0  0  0  0  0
   39.8460   23.6370   35.4540 H   0  0  0  0  0  0  0  0  0  0  0  0
   41.0230   25.2820   33.9870 H   0  0  0  0  0  0  0  0  0  0  0  0
   38.5640   28.3840   35.4950 H   0  0  0  0  0  0  0  0  0  0  0  0
   37.8120   24.1840   37.1830 C   0  0  0  0  0  3  0  0  0  0  0  0
   38.5860   23.2450   38.0230 C   0  0  0  0  0  2  0  0  0  0  0  0
   37.9660   24.4490   38.6550 C   0  0  0  0  0  2  0  0  0  0  0  0
  1  6  1  0  0  0  0
  1 10  1  0  0  0  0
  2  1  2  0  0  0  0
  3  4  2  0  0  0  0
  3  2  1  0  0  0  0
  4  5  1  0  0  0  0
  5  6  2  0  0  0  0
  7  2  1  0  0  0  0
  8  3  1  0  0  0  0
  9  5  1  0  0  0  0
 10 11  1  0  0  0  0
 10 12  1  0  0  0  0
 11 12  1  0  0  0  0
M  END
>  <minimizedAffinity>
-3.24575758

$$$$

 OpenBabel03262520383D

 12 13  0  0  0  0  0  0  0  0999 V2000
   39.9210   22.4300   37.1740 C   0  0  0  0  0  0  0  0  0  0  0  0
   39.3530   23.1870   38.2290 C   0  0  0  0  0  0  0  0  0  0  0  0
   38.0320   23.6020   38.0750 C   0  0  0  0  0  0  0  0  0  0  0  0
   37.3660   23.2680   36.9390 N   0  0  0  0  0  0  0  0  0  0  0  0
   37.9400   22.5400   35.9440 C   0  0  0  0  0  0  0  0  0  0  0  0
   39.2220   22.1270   36.0760 N   0  0  0  0  0  0  0  0  0  0  0  0
   39.8990   23.4390   39.1170 H   0  0  0  0  0  0  0  0  0  0  0  0
   37.5300   24.1890   38.8470 H   0  0  0  0  0  0  0  0  0  0  0  0
   37.3650   22.2990   35.0600 H   0  0  0  0  0  0  0  0  0  0  0  0
   41.3410   21.9750   37.3270 C   0  0  0  0  0  3  0  0  0  0  0  0
   42.0660   21.4070   36.1710 C   0  0  0  0  0  2  0  0  0  0  0  0
   42.3450   22.8140   36.5880 C   0  0  0  0  0  2  0  0  0  0  0  0
  1 10  1  0  0  0  0
  1  2  1  0  0  0  0
  2  7  1  0  0  0  0
  3  2  2  0  0  0  0
  3  8  1  0  0  0  0
  4  3  1  0  0  0  0
  5  6  1  0  0  0  0
  5  4  2  0  0  0  0
  6  1  2  0  0  0  0
  9  5  1  0  0  0  0
 11 12  1  0  0  0  0
 11 10  1  0  0  0  0
 12 10  1  0  0  0  0
M  END
>  <minimizedAffinity>
-3.23203301

$$$$

 OpenBabel03262520383D

 12 13  0  0  0  0  0  0  0  0999 V2000
   38.1240   24.8670   35.2720 C   0  0  0  0  0  0  0  0  0  0  0  0
   37.8170   24.5590   36.6210 C   0  0  0  0  0  0  0  0  0  0  0  0
   37.6670   23.2130   36.9480 C   0  0  0  0  0  0  0  0  0  0  0  0
   37.8170   22.2780   35.9730 N   0  0  0  0  0  0  0  0  0  0  0  0
   38.1110   22.6070   34.6870 C   0  0  0  0  0  0  0  0  0  0  0  0
   38.2620   23.9090   34.3500 N   0  0  0  0  0  0  0  0  0  0  0  0
   37.7030   25.3140   37.3740 H   0  0  0  0  0  0  0  0  0  0  0  0
   37.4310   22.9020   37.9680 H   0  0  0  0  0  0  0  0  0  0  0  0
   38.2210   21.8240   33.9480 H   0  0  0  0  0  0  0  0  0  0  0  0
   38.2900   26.3110   34.9060 C   0  0  0  0  0  3  0  0  0  0  0  0
   38.6100   27.3080   35.9500 C   0  0  0  0  0  2  0  0  0  0  0  0
   39.6940   26.8290   35.0400 C   0  0  0  0  0  2  0  0  0  0  0  0
  1  2  1  0  0  0  0
  2  3  2  0  0  0  0
  2  7  1  0  0  0  0
  3  8  1  0  0  0  0
  4  3  1  0  0  0  0
  5  4  2  0  0  0  0
  6  5  1  0  0  0  0
  6  1  2  0  0  0  0
  9  5  1  0  0  0  0
 10 12  1  0  0  0  0
 10  1  1  0  0  0  0
 10 11  1  0  0  0  0
 12 11  1  0  0  0  0
M  END
>  <minimizedAffinity>
-3.21908689

$$$$

 OpenBabel03262520383D

 12 13  0  0  0  0  0  0  0  0999 V2000
   37.0970   27.1140   33.9500 C   0  0  0  0  0  0  0  0  0  0  0  0
   36.4770   28.1960   33.2780 C   0  0  0  0  0  0  0  0  0  0  0  0
   35.9070   27.9290   32.0340 C   0  0  0  0  0  0  0  0  0  0  0  0
   35.9760   26.6670   31.5350 N   0  0  0  0  0  0  0  0  0  0  0  0
   36.5800   25.6510   32.2070 C   0  0  0  0  0  0  0  0  0  0  0  0
   37.1380   25.8890   33.4160 N   0  0  0  0  0  0  0  0  0  0  0  0
   36.4350   29.1840   33.6910 H   0  0  0  0  0  0  0  0  0  0  0  0
   35.4120   28.7150   31.4590 H   0  0  0  0  0  0  0  0  0  0  0  0
   36.6070   24.6630   31.7660 H   0  0  0  0  0  0  0  0  0  0  0  0
   37.7130   27.3860   35.2890 C   0  0  0  0  0  3  0  0  0  0  0  0
   38.2530   26.2710   36.0970 C   0  0  0  0  0  2  0  0  0  0  0  0
   39.1970   27.1560   35.3490 C   0  0  0  0  0  2  0  0  0  0  0  0
  1 10  1  0  0  0  0
  2  7  1  0  0  0  0
  2  1  2  0  0  0  0
  3  2  1  0  0  0  0
  4  3  2  0  0  0  0
  4  5  1  0  0  0  0
  5  6  2  0  0  0  0
  6  1  1  0  0  0  0
  8  3  1  0  0  0  0
  9  5  1  0  0  0  0
 10 12  1  0  0  0  0
 10 11  1  0  0  0  0
 12 11  1  0  0  0  0
M  END
>  <minimizedAffinity>
-3.14822936

$$$$

 OpenBabel03262520383D

 12 13  0  0  0  0  0  0  0  0999 V2000
   38.2380   25.2550   35.8320 C   0  0  0  0  0  0  0  0  0  0  0  0
   38.2620   26.5870   36.3130 C   0  0  0  0  0  0  0  0  0  0  0  0
   37.9340   27.5960   35.4090 C   0  0  0  0  0  0  0  0  0  0  0  0
   37.6160   27.2570   34.1330 N   0  0  0  0  0  0  0  0  0  0  0  0
   37.6020   25.9670   33.7020 C   0  0  0  0  0  0  0  0  0  0  0  0
   37.9170   24.9740   34.5660 N   0  0  0  0  0  0  0  0  0  0  0  0
   38.5170   26.8310   37.3260 H   0  0  0  0  0  0  0  0  0  0  0  0
   37.9320   28.6460   35.7100 H   0  0  0  0  0  0  0  0  0  0  0  0
   37.3400   25.7500   32.6750 H   0  0  0  0  0  0  0  0  0  0  0  0
   38.5870   24.1600   36.7950 C   0  0  0  0  0  3  0  0  0  0  0  0
   38.0570   24.1890   38.1740 C   0  0  0  0  0  2  0  0  0  0  0  0
   37.4330   23.2730   37.1720 C   0  0  0  0  0  2  0  0  0  0  0  0
  1  2  1  0  0  0  0
  1 10  1  0  0  0  0
  2  7  1  0  0  0  0
  3  8  1  0  0  0  0
  3  2  2  0  0  0  0
  4  3  1  0  0  0  0
  5  4  2  0  0  0  0
  5  6  1  0  0  0  0
  6  1  2  0  0  0  0
  9  5  1  0  0  0  0
 10 12  1  0  0  0  0
 10 11  1  0  0  0  0
 12 11  1  0  0  0  0
M  END
>  <minimizedAffinity>
-3.06999564

$$$$

 OpenBabel03262520383D

 12 13  0  0  0  0  0  0  0  0999 V2000
   39.4280   22.6760   36.6180 C   0  0  0  0  0  0  0  0  0  0  0  0
   40.4250   22.3190   37.5600 C   0  0  0  0  0  0  0  0  0  0  0  0
   41.6230   21.8140   37.0570 C   0  0  0  0  0  0  0  0  0  0  0  0
   41.7710   21.6890   35.7120 N   0  0  0  0  0  0  0  0  0  0  0  0
   40.7940   22.0410   34.8350 C   0  0  0  0  0  0  0  0  0  0  0  0
   39.6240   22.5350   35.3040 N   0  0  0  0  0  0  0  0  0  0  0  0
   40.2860   22.4260   38.6170 H   0  0  0  0  0  0  0  0  0  0  0  0
   42.4360   21.5170   37.7240 H   0  0  0  0  0  0  0  0  0  0  0  0
   40.9620   21.9230   33.7730 H   0  0  0  0  0  0  0  0  0  0  0  0
   38.1350   23.2220   37.1450 C   0  0  0  0  0  3  0  0  0  0  0  0
   38.1190   24.0130   38.3940 C   0  0  0  0  0  2  0  0  0  0  0  0
   38.0210   24.7200   37.0820 C   0  0  0  0  0  2  0  0  0  0  0  0
  1 10  1  0  0  0  0
  1  2  1  0  0  0  0
  2  7  1  0  0  0  0
  3  2  2  0  0  0  0
  3  8  1  0  0  0  0
  4  3  1  0  0  0  0
  5  6  1  0  0  0  0
  5  4  2  0  0  0  0
  6  1  2  0  0  0  0
  9  5  1  0  0  0  0
 10 11  1  0  0  0  0
 12 10  1  0  0  0  0
 12 11  1  0  0  0  0
M  END
>  <minimizedAffinity>
-3.03290415

$$$$

 OpenBabel03262520383D

 12 13  0  0  0  0  0  0  0  0999 V2000
   35.9930   23.7410   31.5410 C   0  0  0  0  0  0  0  0  0  0  0  0
   35.1840   24.7450   30.9510 C   0  0  0  0  0  0  0  0  0  0  0  0
   35.4730   26.0680   31.2780 C   0  0  0  0  0  0  0  0  0  0  0  0
   36.4970   26.3260   32.1330 N   0  0  0  0  0  0  0  0  0  0  0  0
   37.2540   25.3390   32.6830 C   0  0  0  0  0  0  0  0  0  0  0  0
   36.9890   24.0480   32.3770 N   0  0  0  0  0  0  0  0  0  0  0  0
   34.3810   24.5170   30.2780 H   0  0  0  0  0  0  0  0  0  0  0  0
   34.8920   26.8930   30.8610 H   0  0  0  0  0  0  0  0  0  0  0  0
   38.0590   25.5980   33.3570 H   0  0  0  0  0  0  0  0  0  0  0  0
   35.6940   22.3130   31.1970 C   0  0  0  0  0  3  0  0  0  0  0  0
   36.4840   21.2230   31.8070 C   0  0  0  0  0  2  0  0  0  0  0  0
   35.1130   21.5100   32.3270 C   0  0  0  0  0  2  0  0  0  0  0  0
  1  6  1  0  0  0  0
  2  3  1  0  0  0  0
  2  1  2  0  0  0  0
  3  4  2  0  0  0  0
  4  5  1  0  0  0  0
  5  9  1  0  0  0  0
  6  5  2  0  0  0  0
  7  2  1  0  0  0  0
  8  3  1  0  0  0  0
 10  1  1  0  0  0  0
 10 11  1  0  0  0  0
 10 12  1  0  0  0  0
 11 12  1  0  0  0  0
M  END
>  <minimizedAffinity>
-3.01006389

$$$$
