
 OpenBabel03272505123D

 33 36  0  0  0  0  0  0  0  0999 V2000
   36.4130   30.8990   45.6990 Cl  0  0  0  0  0  0  0  0  0  0  0  0
   36.6940   30.7770   47.4150 C   0  0  0  0  0  0  0  0  0  0  0  0
   37.9500   31.1060   47.8790 C   0  0  0  0  0  0  0  0  0  0  0  0
   38.1810   31.0120   49.2400 C   0  0  0  0  0  0  0  0  0  0  0  0
   37.1900   30.6050   50.0760 C   0  0  0  0  0  0  0  0  0  0  0  0
   35.9350   30.2830   49.5430 C   0  0  0  0  0  0  0  0  0  0  0  0
   35.6300   30.3520   48.2140 C   0  0  0  0  0  0  0  0  0  0  0  0
   39.1650   31.2690   49.6120 H   0  0  0  0  0  0  0  0  0  0  0  0
   37.3960   30.5410   51.1280 H   0  0  0  0  0  0  0  0  0  0  0  0
   35.1540   29.9590   50.2270 H   0  0  0  0  0  0  0  0  0  0  0  0
   40.2120   33.3220   46.0760 C   0  0  0  0  0  0  0  0  0  0  0  0
   40.9270   32.4660   45.2160 C   0  0  0  0  0  0  0  0  0  0  0  0
   40.6100   31.1040   45.2720 C   0  0  0  0  0  0  0  0  0  0  0  0
   39.6440   30.6860   46.1410 N   0  0  0  0  0  0  0  0  0  0  0  0
   38.9980   31.5450   46.9330 C   0  0  0  0  0  0  0  0  0  0  0  0
   39.2790   32.8480   46.9020 N   0  0  0  0  0  0  0  0  0  0  0  0
   40.4940   34.3630   45.9940 H   0  0  0  0  0  0  0  0  0  0  0  0
   41.6880   32.7150   44.5160 H   0  0  0  0  0  0  0  0  0  0  0  0
   41.0740   30.3390   44.6740 H   0  0  0  0  0  0  0  0  0  0  0  0
   34.0650   29.9540   47.5240 S   0  0  0  0  0  0  0  0  0  0  0  0
   33.7900   29.1800   44.4910 Cl  0  0  0  0  0  0  0  0  0  0  0  0
   33.8090   27.9450   45.7430 C   0  0  0  0  0  0  0  0  0  0  0  0
   33.9280   28.2150   47.1060 C   0  0  0  0  0  0  0  0  0  0  0  0
   33.9320   27.1790   48.0060 C   0  0  0  0  0  0  0  0  0  0  0  0
   33.8220   25.8890   47.5810 C   0  0  0  0  0  0  0  0  0  0  0  0
   33.7030   25.5720   46.2430 C   0  0  0  0  0  0  0  0  0  0  0  0
   33.7000   26.6110   45.3590 C   0  0  0  0  0  0  0  0  0  0  0  0
   34.0290   27.4940   49.0370 H   0  0  0  0  0  0  0  0  0  0  0  0
   33.8320   25.1170   48.3400 H   0  0  0  0  0  0  0  0  0  0  0  0
   33.6190   24.5440   45.9640 H   0  0  0  0  0  0  0  0  0  0  0  0
   33.5720   26.3100   43.9090 C   0  0  0  0  0  3  0  0  0  0  0  0
   34.7720   25.7880   43.2130 C   0  0  0  0  0  2  0  0  0  0  0  0
   33.5510   24.8680   43.4490 C   0  0  0  0  0  2  0  0  0  0  0  0
  1  2  1  0  0  0  0
  2  3  2  0  0  0  0
  2  7  1  0  0  0  0
  3  4  1  0  0  0  0
  4  8  1  0  0  0  0
  4  5  2  0  0  0  0
  5  9  1  0  0  0  0
  6  5  1  0  0  0  0
  6 10  1  0  0  0  0
  7  6  2  0  0  0  0
 11 16  1  0  0  0  0
 12 13  1  0  0  0  0
 12 11  2  0  0  0  0
 13 14  2  0  0  0  0
 14 15  1  0  0  0  0
 15  3  1  0  0  0  0
 16 15  2  0  0  0  0
 17 11  1  0  0  0  0
 18 12  1  0  0  0  0
 19 13  1  0  0  0  0
 20  7  1  0  0  0  0
 21 22  1  0  0  0  0
 22 23  1  0  0  0  0
 23 20  1  0  0  0  0
 23 24  2  0  0  0  0
 24 28  1  0  0  0  0
 25 24  1  0  0  0  0
 25 29  1  0  0  0  0
 26 25  2  0  0  0  0
 27 22  2  0  0  0  0
 27 26  1  0  0  0  0
 30 26  1  0  0  0  0
 31 27  1  0  0  0  0
 32 33  1  0  0  0  0
 32 31  1  0  0  0  0
 33 31  1  0  0  0  0
M  END
>  <minimizedAffinity>
-5.64540386

>  <minimizedRMSD>
0.118507564

$$$$
