
 OpenBabel03272510203D

 30 33  0  0  0  0  0  0  0  0999 V2000
   37.3650   29.2210   50.8820 Br  0  0  0  0  0  0  0  0  0  0  0  0
   35.9780   29.2800   49.5780 C   0  0  0  0  0  0  0  0  0  0  0  0
   35.9740   30.2510   48.5810 C   0  0  0  0  0  0  0  0  0  0  0  0
   34.9410   30.2280   47.6770 C   0  0  0  0  0  0  0  0  0  0  0  0
   33.9200   29.3070   47.7060 C   0  0  0  0  0  0  0  0  0  0  0  0
   33.9500   28.3610   48.7020 C   0  0  0  0  0  0  0  0  0  0  0  0
   34.9680   28.3600   49.6160 C   0  0  0  0  0  0  0  0  0  0  0  0
   34.9470   30.9870   46.9050 H   0  0  0  0  0  0  0  0  0  0  0  0
   33.1660   27.6160   48.7620 H   0  0  0  0  0  0  0  0  0  0  0  0
   34.9640   27.6020   50.3880 H   0  0  0  0  0  0  0  0  0  0  0  0
   37.9900   33.1680   49.4580 C   0  0  0  0  0  0  0  0  0  0  0  0
   39.0100   33.1740   48.4610 C   0  0  0  0  0  0  0  0  0  0  0  0
   38.9800   32.1710   47.5090 C   0  0  0  0  0  0  0  0  0  0  0  0
   37.9910   31.2190   47.5470 N   0  0  0  0  0  0  0  0  0  0  0  0
   37.0390   31.2490   48.5120 C   0  0  0  0  0  0  0  0  0  0  0  0
   37.0440   32.2220   49.4600 N   0  0  0  0  0  0  0  0  0  0  0  0
   37.9460   33.9140   50.2320 H   0  0  0  0  0  0  0  0  0  0  0  0
   39.7470   33.9420   48.4900 H   0  0  0  0  0  0  0  0  0  0  0  0
   39.7180   32.1310   46.7460 H   0  0  0  0  0  0  0  0  0  0  0  0
   32.8240   29.2850   46.7460 C   0  0  0  0  0  0  0  0  0  0  0  0
   31.9650   28.2300   46.5570 C   0  0  0  0  0  0  0  0  0  0  0  0
   30.9340   28.2550   45.6300 C   0  0  0  0  0  0  0  0  0  0  0  0
   30.7610   29.3460   44.8830 N   0  0  0  0  0  0  0  0  0  0  0  0
   31.5990   30.3990   45.0550 C   0  0  0  0  0  0  0  0  0  0  0  0
   32.5790   30.3450   45.9520 N   0  0  0  0  0  0  0  0  0  0  0  0
   32.1080   27.3390   47.1680 H   0  0  0  0  0  0  0  0  0  0  0  0
   30.3150   27.3600   45.5670 H   0  0  0  0  0  0  0  0  0  0  0  0
   31.4340   31.6370   44.2350 C   0  0  0  0  0  3  0  0  0  0  0  0
   31.5940   32.9690   44.8740 C   0  0  0  0  0  2  0  0  0  0  0  0
   30.2450   32.5250   44.4370 C   0  0  0  0  0  2  0  0  0  0  0  0
  2  7  1  0  0  0  0
  2  1  1  0  0  0  0
  3  2  2  0  0  0  0
  4  5  2  0  0  0  0
  4  3  1  0  0  0  0
  5  6  1  0  0  0  0
  6  9  1  0  0  0  0
  6  7  2  0  0  0  0
  7 10  1  0  0  0  0
  8  4  1  0  0  0  0
 11 16  1  0  0  0  0
 11 17  1  0  0  0  0
 12 18  1  0  0  0  0
 12 11  2  0  0  0  0
 13 14  2  0  0  0  0
 13 12  1  0  0  0  0
 14 15  1  0  0  0  0
 15  3  1  0  0  0  0
 15 16  2  0  0  0  0
 19 13  1  0  0  0  0
 20  5  1  0  0  0  0
 21 20  1  0  0  0  0
 21 26  1  0  0  0  0
 22 21  2  0  0  0  0
 23 24  2  0  0  0  0
 23 22  1  0  0  0  0
 24 25  1  0  0  0  0
 25 20  2  0  0  0  0
 27 22  1  0  0  0  0
 28 30  1  0  0  0  0
 28 29  1  0  0  0  0
 28 24  1  0  0  0  0
 30 29  1  0  0  0  0
M  END
>  <minimizedAffinity>
-6.07847261

>  <minimizedRMSD>
0.273151726

$$$$
