
 OpenBabel03272509013D

 25 27  0  0  0  0  0  0  0  0999 V2000
   38.9590   32.3040   47.9920 Cl  0  0  0  0  0  0  0  0  0  0  0  0
   37.5040   31.4190   47.6750 C   0  0  0  0  0  0  0  0  0  0  0  0
   37.2170   31.0170   46.3880 C   0  0  0  0  0  0  0  0  0  0  0  0
   36.0720   30.3130   46.0940 C   0  0  0  0  0  0  0  0  0  0  0  0
   35.1740   29.9850   47.0740 C   0  0  0  0  0  0  0  0  0  0  0  0
   35.4290   30.3730   48.3820 C   0  0  0  0  0  0  0  0  0  0  0  0
   34.3620   30.0260   49.7300 Cl  0  0  0  0  0  0  0  0  0  0  0  0
   36.5860   31.0780   48.6370 C   0  0  0  0  0  0  0  0  0  0  0  0
   35.8390   29.9900   45.0700 H   0  0  0  0  0  0  0  0  0  0  0  0
   34.2640   29.4430   46.9360 H   0  0  0  0  0  0  0  0  0  0  0  0
   38.8640   32.7840   43.6290 C   0  0  0  0  0  0  0  0  0  0  0  0
   39.9080   31.9420   43.2870 C   0  0  0  0  0  0  0  0  0  0  0  0
   40.0440   30.7340   44.0300 C   0  0  0  0  0  0  0  0  0  0  0  0
   39.1390   30.5050   45.0140 N   0  0  0  0  0  0  0  0  0  0  0  0
   38.1360   31.3460   45.3210 C   0  0  0  0  0  0  0  0  0  0  0  0
   38.0180   32.4850   44.6110 N   0  0  0  0  0  0  0  0  0  0  0  0
   38.8130   33.7000   43.0200 H   0  0  0  0  0  0  0  0  0  0  0  0
   40.6240   32.1490   42.4890 H   0  0  0  0  0  0  0  0  0  0  0  0
   40.8340   30.0650   43.7950 H   0  0  0  0  0  0  0  0  0  0  0  0
   36.8760   31.5100   50.0410 C   0  0  0  0  0  0  0  0  0  0  0  0
   35.9370   31.6740   50.5870 H   0  0  0  0  0  0  0  0  0  0  0  0
   37.3770   32.5210   49.9870 H   0  0  0  0  0  0  0  0  0  0  0  0
   37.8430   30.6100   50.7330 C   0  0  0  0  0  0  0  0  0  0  0  0
   37.2440   29.9400   51.9940 C   0  0  0  0  0  0  0  0  0  0  0  0
   37.7400   29.1520   50.7880 C   0  0  0  0  0  0  0  0  0  0  0  0
  2  1  1  0  0  0  0
  2  8  1  0  0  0  0
  3  2  2  0  0  0  0
  4  3  1  0  0  0  0
  4  5  2  0  0  0  0
  5  6  1  0  0  0  0
  6  8  2  0  0  0  0
  6  7  1  0  0  0  0
  8 20  1  0  0  0  0
  9  4  1  0  0  0  0
 10  5  1  0  0  0  0
 11 16  1  0  0  0  0
 12 11  2  0  0  0  0
 12 13  1  0  0  0  0
 13 14  2  0  0  0  0
 14 15  1  0  0  0  0
 15  3  1  0  0  0  0
 16 15  2  0  0  0  0
 17 11  1  0  0  0  0
 18 12  1  0  0  0  0
 19 13  1  0  0  0  0
 20 21  1  0  0  0  0
 20 23  1  0  0  0  0
 22 20  1  0  0  0  0
 23 25  1  0  0  0  0
 23 24  1  0  0  0  0
 25 24  1  0  0  0  0
M  END
>  <minimizedAffinity>
-6.18916464

>  <minimizedRMSD>
2.02512693

$$$$
