
 OpenBabel03272504463D

 24 26  0  0  0  0  0  0  0  0999 V2000
   36.1180   27.7250   31.9910 C   0  0  0  0  0  0  0  0  0  0  0  0
   36.1350   26.3960   31.5500 C   0  0  0  0  0  0  0  0  0  0  0  0
   36.6320   25.3450   32.2880 C   0  0  0  0  0  0  0  0  0  0  0  0
   37.1160   25.6930   33.4940 N   0  0  0  0  0  0  0  0  0  0  0  0
   37.1100   26.9660   33.9350 C   0  0  0  0  0  0  0  0  0  0  0  0
   36.6280   27.9550   33.2120 N   0  0  0  0  0  0  0  0  0  0  0  0
   35.7030   28.4970   31.3370 H   0  0  0  0  0  0  0  0  0  0  0  0
   39.2290   24.5070   31.1610 Cl  0  0  0  0  0  0  0  0  0  0  0  0
   37.8090   23.4910   31.2720 C   0  0  0  0  0  0  0  0  0  0  0  0
   36.6400   23.9690   31.8130 C   0  0  0  0  0  0  0  0  0  0  0  0
   35.5710   23.1130   31.8640 C   0  0  0  0  0  0  0  0  0  0  0  0
   35.6280   21.8090   31.4000 C   0  0  0  0  0  0  0  0  0  0  0  0
   36.8530   21.3760   30.8550 C   0  0  0  0  0  0  0  0  0  0  0  0
   36.8700   19.7290   30.2850 Cl  0  0  0  0  0  0  0  0  0  0  0  0
   37.9470   22.2010   30.7840 C   0  0  0  0  0  0  0  0  0  0  0  0
   34.6500   23.4940   32.2930 H   0  0  0  0  0  0  0  0  0  0  0  0
   34.7770   21.1710   31.4550 H   0  0  0  0  0  0  0  0  0  0  0  0
   38.8620   21.8420   30.3660 H   0  0  0  0  0  0  0  0  0  0  0  0
   35.5930   26.1410   30.2490 N   0  0  0  0  0  0  0  0  0  0  0  0
   36.2540   26.1830   29.4400 H   0  0  0  0  0  0  0  0  0  0  0  0
   34.5910   25.9160   30.0540 H   0  0  0  0  0  0  0  0  0  0  0  0
   37.6780   27.2150   35.2940 C   0  0  0  0  0  3  0  0  0  0  0  0
   39.2110   27.1450   35.3030 C   0  0  0  0  0  2  0  0  0  0  0  0
   38.3440   26.1650   36.0690 C   0  0  0  0  0  2  0  0  0  0  0  0
  1  6  1  0  0  0  0
  2  1  2  0  0  0  0
  2  3  1  0  0  0  0
  3  4  2  0  0  0  0
  4  5  1  0  0  0  0
  5 22  1  0  0  0  0
  6  5  2  0  0  0  0
  7  1  1  0  0  0  0
  8  9  1  0  0  0  0
  9 10  1  0  0  0  0
 10 11  2  0  0  0  0
 10  3  1  0  0  0  0
 11 16  1  0  0  0  0
 12 17  1  0  0  0  0
 12 11  1  0  0  0  0
 13 12  2  0  0  0  0
 14 13  1  0  0  0  0
 15 13  1  0  0  0  0
 15  9  2  0  0  0  0
 18 15  1  0  0  0  0
 19  2  1  0  0  0  0
 20 19  1  0  0  0  0
 21 19  1  0  0  0  0
 22 23  1  0  0  0  0
 22 24  1  0  0  0  0
 23 24  1  0  0  0  0
M  END
>  <minimizedAffinity>
-5.23732424

$$$$

 OpenBabel03272504463D

 24 26  0  0  0  0  0  0  0  0999 V2000
   36.9760   27.9140   34.0340 C   0  0  0  0  0  0  0  0  0  0  0  0
   37.6710   26.9800   34.8120 C   0  0  0  0  0  0  0  0  0  0  0  0
   37.9060   25.6780   34.4280 C   0  0  0  0  0  0  0  0  0  0  0  0
   37.4050   25.3570   33.2210 N   0  0  0  0  0  0  0  0  0  0  0  0
   36.7330   26.2410   32.4590 C   0  0  0  0  0  0  0  0  0  0  0  0
   36.5210   27.4810   32.8470 N   0  0  0  0  0  0  0  0  0  0  0  0
   36.8360   28.9280   34.4190 H   0  0  0  0  0  0  0  0  0  0  0  0
   40.7650   25.4650   33.7260 Cl  0  0  0  0  0  0  0  0  0  0  0  0
   39.9720   24.5560   34.9940 C   0  0  0  0  0  0  0  0  0  0  0  0
   38.6330   24.7220   35.2490 C   0  0  0  0  0  0  0  0  0  0  0  0
   38.0850   23.9740   36.2570 C   0  0  0  0  0  0  0  0  0  0  0  0
   38.8190   23.0750   37.0140 C   0  0  0  0  0  0  0  0  0  0  0  0
   40.1880   22.9480   36.7060 C   0  0  0  0  0  0  0  0  0  0  0  0
   41.0660   21.8040   37.6850 Cl  0  0  0  0  0  0  0  0  0  0  0  0
   40.7770   23.6770   35.7030 C   0  0  0  0  0  0  0  0  0  0  0  0
   37.0260   24.1070   36.4560 H   0  0  0  0  0  0  0  0  0  0  0  0
   38.3610   22.5090   37.7910 H   0  0  0  0  0  0  0  0  0  0  0  0
   41.8170   23.5580   35.4940 H   0  0  0  0  0  0  0  0  0  0  0  0
   38.1610   27.4320   36.0790 N   0  0  0  0  0  0  0  0  0  0  0  0
   37.5300   27.3150   36.9050 H   0  0  0  0  0  0  0  0  0  0  0  0
   39.0990   27.8670   36.2360 H   0  0  0  0  0  0  0  0  0  0  0  0
   36.2290   25.7530   31.1390 C   0  0  0  0  0  3  0  0  0  0  0  0
   34.7480   25.3570   31.1950 C   0  0  0  0  0  2  0  0  0  0  0  0
   35.8510   24.3560   30.9130 C   0  0  0  0  0  2  0  0  0  0  0  0
  1  7  1  0  0  0  0
  1  2  1  0  0  0  0
  2 19  1  0  0  0  0
  3  2  2  0  0  0  0
  3 10  1  0  0  0  0
  4  3  1  0  0  0  0
  5  6  1  0  0  0  0
  5  4  2  0  0  0  0
  6  1  2  0  0  0  0
  8  9  1  0  0  0  0
  9 10  2  0  0  0  0
  9 15  1  0  0  0  0
 10 11  1  0  0  0  0
 11 16  1  0  0  0  0
 11 12  2  0  0  0  0
 12 17  1  0  0  0  0
 13 12  1  0  0  0  0
 13 14  1  0  0  0  0
 15 13  2  0  0  0  0
 18 15  1  0  0  0  0
 19 21  1  0  0  0  0
 19 20  1  0  0  0  0
 22 23  1  0  0  0  0
 22  5  1  0  0  0  0
 24 22  1  0  0  0  0
 24 23  1  0  0  0  0
M  END
>  <minimizedAffinity>
-5.13965988

$$$$

 OpenBabel03272504463D

 24 26  0  0  0  0  0  0  0  0999 V2000
   43.0230   25.1240   34.9460 C   0  0  0  0  0  0  0  0  0  0  0  0
   41.8770   25.9010   34.7390 C   0  0  0  0  0  0  0  0  0  0  0  0
   40.5920   25.4470   34.9340 C   0  0  0  0  0  0  0  0  0  0  0  0
   40.5110   24.1690   35.3460 N   0  0  0  0  0  0  0  0  0  0  0  0
   41.6020   23.4050   35.5510 C   0  0  0  0  0  0  0  0  0  0  0  0
   42.8220   23.8610   35.3580 N   0  0  0  0  0  0  0  0  0  0  0  0
   44.0070   25.5670   34.7660 H   0  0  0  0  0  0  0  0  0  0  0  0
   39.5180   25.2510   32.1910 Cl  0  0  0  0  0  0  0  0  0  0  0  0
   38.8430   26.2420   33.4650 C   0  0  0  0  0  0  0  0  0  0  0  0
   39.4120   26.2710   34.7150 C   0  0  0  0  0  0  0  0  0  0  0  0
   38.8250   27.0720   35.6580 C   0  0  0  0  0  0  0  0  0  0  0  0
   37.7000   27.8390   35.4020 C   0  0  0  0  0  0  0  0  0  0  0  0
   37.1610   27.7690   34.1010 C   0  0  0  0  0  0  0  0  0  0  0  0
   35.7480   28.7520   33.8310 Cl  0  0  0  0  0  0  0  0  0  0  0  0
   37.7180   26.9800   33.1260 C   0  0  0  0  0  0  0  0  0  0  0  0
   39.2780   27.0910   36.6440 H   0  0  0  0  0  0  0  0  0  0  0  0
   37.2700   28.4510   36.1590 H   0  0  0  0  0  0  0  0  0  0  0  0
   37.2860   26.9490   32.1510 H   0  0  0  0  0  0  0  0  0  0  0  0
   42.0820   27.2480   34.3000 N   0  0  0  0  0  0  0  0  0  0  0  0
   42.1100   27.4160   33.2680 H   0  0  0  0  0  0  0  0  0  0  0  0
   42.2040   28.0700   34.9340 H   0  0  0  0  0  0  0  0  0  0  0  0
   41.3700   22.0020   36.0090 C   0  0  0  0  0  3  0  0  0  0  0  0
   40.9620   21.9350   37.4870 C   0  0  0  0  0  2  0  0  0  0  0  0
   42.2550   21.3350   36.9680 C   0  0  0  0  0  2  0  0  0  0  0  0
  1  6  1  0  0  0  0
  2  3  1  0  0  0  0
  2  1  2  0  0  0  0
  3  4  2  0  0  0  0
  4  5  1  0  0  0  0
  5 22  1  0  0  0  0
  6  5  2  0  0  0  0
  7  1  1  0  0  0  0
  8  9  1  0  0  0  0
  9 10  1  0  0  0  0
 10  3  1  0  0  0  0
 10 11  2  0  0  0  0
 11 16  1  0  0  0  0
 12 11  1  0  0  0  0
 12 17  1  0  0  0  0
 13 12  2  0  0  0  0
 14 13  1  0  0  0  0
 15  9  2  0  0  0  0
 15 13  1  0  0  0  0
 18 15  1  0  0  0  0
 19  2  1  0  0  0  0
 19 21  1  0  0  0  0
 20 19  1  0  0  0  0
 22 24  1  0  0  0  0
 22 23  1  0  0  0  0
 24 23  1  0  0  0  0
M  END
>  <minimizedAffinity>
-4.99197435

$$$$

 OpenBabel03272504463D

 24 26  0  0  0  0  0  0  0  0999 V2000
   36.3600   30.1860   30.3740 C   0  0  0  0  0  0  0  0  0  0  0  0
   36.4230   28.7900   30.4500 C   0  0  0  0  0  0  0  0  0  0  0  0
   35.9320   28.0520   31.5040 C   0  0  0  0  0  0  0  0  0  0  0  0
   35.3730   28.7870   32.4830 N   0  0  0  0  0  0  0  0  0  0  0  0
   35.3040   30.1310   32.4280 C   0  0  0  0  0  0  0  0  0  0  0  0
   35.7810   30.8150   31.4090 N   0  0  0  0  0  0  0  0  0  0  0  0
   36.7770   30.6910   29.4970 H   0  0  0  0  0  0  0  0  0  0  0  0
   38.2560   27.0580   33.0290 Cl  0  0  0  0  0  0  0  0  0  0  0  0
   37.0550   26.0470   32.2560 C   0  0  0  0  0  0  0  0  0  0  0  0
   36.0040   26.6000   31.5660 C   0  0  0  0  0  0  0  0  0  0  0  0
   35.1070   25.7420   30.9870 C   0  0  0  0  0  0  0  0  0  0  0  0
   35.2180   24.3630   31.0750 C   0  0  0  0  0  0  0  0  0  0  0  0
   36.3170   23.8540   31.7960 C   0  0  0  0  0  0  0  0  0  0  0  0
   36.4110   22.1160   31.8740 Cl  0  0  0  0  0  0  0  0  0  0  0  0
   37.2400   24.6780   32.3900 C   0  0  0  0  0  0  0  0  0  0  0  0
   34.2780   26.1820   30.4430 H   0  0  0  0  0  0  0  0  0  0  0  0
   34.5020   23.7250   30.6130 H   0  0  0  0  0  0  0  0  0  0  0  0
   38.0610   24.2620   32.9290 H   0  0  0  0  0  0  0  0  0  0  0  0
   37.0390   28.1100   29.3500 N   0  0  0  0  0  0  0  0  0  0  0  0
   38.0680   27.9360   29.4120 H   0  0  0  0  0  0  0  0  0  0  0  0
   36.5350   27.7770   28.4970 H   0  0  0  0  0  0  0  0  0  0  0  0
   34.6580   30.8250   33.5830 C   0  0  0  0  0  3  0  0  0  0  0  0
   35.6030   30.9520   34.7840 C   0  0  0  0  0  2  0  0  0  0  0  0
   34.3300   30.1300   34.8300 C   0  0  0  0  0  2  0  0  0  0  0  0
  1  2  2  0  0  0  0
  1  6  1  0  0  0  0
  2  3  1  0  0  0  0
  3 10  1  0  0  0  0
  3  4  2  0  0  0  0
  5  4  1  0  0  0  0
  5 22  1  0  0  0  0
  6  5  2  0  0  0  0
  7  1  1  0  0  0  0
  9 15  1  0  0  0  0
  9  8  1  0  0  0  0
 10  9  2  0  0  0  0
 11 12  2  0  0  0  0
 11 10  1  0  0  0  0
 12 13  1  0  0  0  0
 13 14  1  0  0  0  0
 13 15  2  0  0  0  0
 15 18  1  0  0  0  0
 16 11  1  0  0  0  0
 17 12  1  0  0  0  0
 19 20  1  0  0  0  0
 19  2  1  0  0  0  0
 21 19  1  0  0  0  0
 22 23  1  0  0  0  0
 22 24  1  0  0  0  0
 23 24  1  0  0  0  0
M  END
>  <minimizedAffinity>
-4.94212866

$$$$

 OpenBabel03272504463D

 24 26  0  0  0  0  0  0  0  0999 V2000
   39.6610   22.5440   37.4440 C   0  0  0  0  0  0  0  0  0  0  0  0
   38.9140   23.5900   36.8910 C   0  0  0  0  0  0  0  0  0  0  0  0
   39.3970   24.4680   35.9450 C   0  0  0  0  0  0  0  0  0  0  0  0
   40.6730   24.2440   35.5820 N   0  0  0  0  0  0  0  0  0  0  0  0
   41.4080   23.2430   36.1030 C   0  0  0  0  0  0  0  0  0  0  0  0
   40.9240   22.4160   37.0060 N   0  0  0  0  0  0  0  0  0  0  0  0
   39.1960   21.8940   38.1910 H   0  0  0  0  0  0  0  0  0  0  0  0
   38.0410   23.7350   33.4280 Cl  0  0  0  0  0  0  0  0  0  0  0  0
   37.9360   25.2990   34.2060 C   0  0  0  0  0  0  0  0  0  0  0  0
   38.6040   25.5490   35.3800 C   0  0  0  0  0  0  0  0  0  0  0  0
   38.4730   26.7980   35.9270 C   0  0  0  0  0  0  0  0  0  0  0  0
   37.7040   27.7970   35.3510 C   0  0  0  0  0  0  0  0  0  0  0  0
   37.0420   27.4810   34.1480 C   0  0  0  0  0  0  0  0  0  0  0  0
   36.0900   28.7700   33.4640 Cl  0  0  0  0  0  0  0  0  0  0  0  0
   37.1470   26.2420   33.5650 C   0  0  0  0  0  0  0  0  0  0  0  0
   39.0020   26.9920   36.8550 H   0  0  0  0  0  0  0  0  0  0  0  0
   37.6240   28.7570   35.8040 H   0  0  0  0  0  0  0  0  0  0  0  0
   36.6340   26.0350   32.6530 H   0  0  0  0  0  0  0  0  0  0  0  0
   37.5650   23.7340   37.3510 N   0  0  0  0  0  0  0  0  0  0  0  0
   37.4060   24.3560   38.1770 H   0  0  0  0  0  0  0  0  0  0  0  0
   36.7350   23.2660   36.9220 H   0  0  0  0  0  0  0  0  0  0  0  0
   42.8130   23.1070   35.6120 C   0  0  0  0  0  3  0  0  0  0  0  0
   43.8250   23.7590   36.5620 C   0  0  0  0  0  2  0  0  0  0  0  0
   43.5950   24.2550   35.1480 C   0  0  0  0  0  2  0  0  0  0  0  0
  1  7  1  0  0  0  0
  2 19  1  0  0  0  0
  2  1  2  0  0  0  0
  3  2  1  0  0  0  0
  4  3  2  0  0  0  0
  4  5  1  0  0  0  0
  5  6  2  0  0  0  0
  6  1  1  0  0  0  0
  8  9  1  0  0  0  0
  9 10  1  0  0  0  0
 10 11  2  0  0  0  0
 10  3  1  0  0  0  0
 11 16  1  0  0  0  0
 12 17  1  0  0  0  0
 12 11  1  0  0  0  0
 13 12  2  0  0  0  0
 14 13  1  0  0  0  0
 15 13  1  0  0  0  0
 15  9  2  0  0  0  0
 18 15  1  0  0  0  0
 19 20  1  0  0  0  0
 21 19  1  0  0  0  0
 22  5  1  0  0  0  0
 22 23  1  0  0  0  0
 24 22  1  0  0  0  0
 24 23  1  0  0  0  0
M  END
>  <minimizedAffinity>
-4.9255538

$$$$

 OpenBabel03272504463D

 24 26  0  0  0  0  0  0  0  0999 V2000
   37.1110   27.6550   34.3860 C   0  0  0  0  0  0  0  0  0  0  0  0
   38.2390   26.9920   34.8810 C   0  0  0  0  0  0  0  0  0  0  0  0
   38.8470   25.9270   34.2530 C   0  0  0  0  0  0  0  0  0  0  0  0
   38.2630   25.5580   33.0990 N   0  0  0  0  0  0  0  0  0  0  0  0
   37.1760   26.1830   32.6060 C   0  0  0  0  0  0  0  0  0  0  0  0
   36.6130   27.1990   33.2250 N   0  0  0  0  0  0  0  0  0  0  0  0
   36.6930   28.4920   34.9530 H   0  0  0  0  0  0  0  0  0  0  0  0
   38.2030   23.4950   35.7980 Cl  0  0  0  0  0  0  0  0  0  0  0  0
   39.8180   24.1080   35.5160 C   0  0  0  0  0  0  0  0  0  0  0  0
   40.0220   25.2510   34.7830 C   0  0  0  0  0  0  0  0  0  0  0  0
   41.3150   25.6670   34.6080 C   0  0  0  0  0  0  0  0  0  0  0  0
   42.4030   24.9880   35.1320 C   0  0  0  0  0  0  0  0  0  0  0  0
   42.1320   23.8220   35.8750 C   0  0  0  0  0  0  0  0  0  0  0  0
   43.5330   23.0060   36.5130 Cl  0  0  0  0  0  0  0  0  0  0  0  0
   40.8510   23.3710   36.0760 C   0  0  0  0  0  0  0  0  0  0  0  0
   41.4720   26.5710   34.0270 H   0  0  0  0  0  0  0  0  0  0  0  0
   43.3960   25.3390   34.9760 H   0  0  0  0  0  0  0  0  0  0  0  0
   40.6790   22.4840   36.6440 H   0  0  0  0  0  0  0  0  0  0  0  0
   38.7780   27.4710   36.1190 N   0  0  0  0  0  0  0  0  0  0  0  0
   38.4140   27.0370   36.9980 H   0  0  0  0  0  0  0  0  0  0  0  0
   39.5050   28.2170   36.2040 H   0  0  0  0  0  0  0  0  0  0  0  0
   36.6270   25.6710   31.3140 C   0  0  0  0  0  3  0  0  0  0  0  0
   35.5920   24.5580   31.5250 C   0  0  0  0  0  2  0  0  0  0  0  0
   36.9140   24.3210   30.8210 C   0  0  0  0  0  2  0  0  0  0  0  0
  1  2  1  0  0  0  0
  1  7  1  0  0  0  0
  2 19  1  0  0  0  0
  3 10  1  0  0  0  0
  3  2  2  0  0  0  0
  4  3  1  0  0  0  0
  5  4  2  0  0  0  0
  5  6  1  0  0  0  0
  6  1  2  0  0  0  0
  9  8  1  0  0  0  0
  9 15  1  0  0  0  0
 10  9  2  0  0  0  0
 11 10  1  0  0  0  0
 11 12  2  0  0  0  0
 12 13  1  0  0  0  0
 13 15  2  0  0  0  0
 13 14  1  0  0  0  0
 15 18  1  0  0  0  0
 16 11  1  0  0  0  0
 17 12  1  0  0  0  0
 19 21  1  0  0  0  0
 19 20  1  0  0  0  0
 22 23  1  0  0  0  0
 22  5  1  0  0  0  0
 24 22  1  0  0  0  0
 24 23  1  0  0  0  0
M  END
>  <minimizedAffinity>
-4.88589096

$$$$

 OpenBabel03272504463D

 24 26  0  0  0  0  0  0  0  0999 V2000
   35.4800   28.6000   32.0480 C   0  0  0  0  0  0  0  0  0  0  0  0
   35.0750   29.6140   32.9240 C   0  0  0  0  0  0  0  0  0  0  0  0
   35.5590   29.7670   34.2040 C   0  0  0  0  0  0  0  0  0  0  0  0
   36.4730   28.8480   34.5650 N   0  0  0  0  0  0  0  0  0  0  0  0
   36.8750   27.8650   33.7370 C   0  0  0  0  0  0  0  0  0  0  0  0
   36.3980   27.7390   32.5160 N   0  0  0  0  0  0  0  0  0  0  0  0
   35.0410   28.5540   31.0470 H   0  0  0  0  0  0  0  0  0  0  0  0
   32.9030   29.2850   35.3980 Cl  0  0  0  0  0  0  0  0  0  0  0  0
   33.9010   30.6900   35.7030 C   0  0  0  0  0  0  0  0  0  0  0  0
   35.1270   30.8290   35.1000 C   0  0  0  0  0  0  0  0  0  0  0  0
   35.8480   31.9580   35.3890 C   0  0  0  0  0  0  0  0  0  0  0  0
   35.3940   32.9430   36.2510 C   0  0  0  0  0  0  0  0  0  0  0  0
   34.1290   32.7440   36.8390 C   0  0  0  0  0  0  0  0  0  0  0  0
   33.6030   34.0120   37.9140 Cl  0  0  0  0  0  0  0  0  0  0  0  0
   33.3730   31.6290   36.5770 C   0  0  0  0  0  0  0  0  0  0  0  0
   36.8170   32.0640   34.9110 H   0  0  0  0  0  0  0  0  0  0  0  0
   35.9810   33.8080   36.4530 H   0  0  0  0  0  0  0  0  0  0  0  0
   32.4180   31.5080   37.0380 H   0  0  0  0  0  0  0  0  0  0  0  0
   34.0970   30.5380   32.4330 N   0  0  0  0  0  0  0  0  0  0  0  0
   33.0920   30.3020   32.5980 H   0  0  0  0  0  0  0  0  0  0  0  0
   34.3160   31.4260   31.9270 H   0  0  0  0  0  0  0  0  0  0  0  0
   37.8960   26.9100   34.2640 C   0  0  0  0  0  3  0  0  0  0  0  0
   37.3440   26.0420   35.4030 C   0  0  0  0  0  2  0  0  0  0  0  0
   38.4700   27.0380   35.6060 C   0  0  0  0  0  2  0  0  0  0  0  0
  1  6  2  0  0  0  0
  1  2  1  0  0  0  0
  2  3  2  0  0  0  0
  3  4  1  0  0  0  0
  3 10  1  0  0  0  0
  5 22  1  0  0  0  0
  5  4  2  0  0  0  0
  6  5  1  0  0  0  0
  7  1  1  0  0  0  0
  8  9  1  0  0  0  0
  9 15  1  0  0  0  0
 10 11  1  0  0  0  0
 10  9  2  0  0  0  0
 11 12  2  0  0  0  0
 12 17  1  0  0  0  0
 12 13  1  0  0  0  0
 13 14  1  0  0  0  0
 15 13  2  0  0  0  0
 15 18  1  0  0  0  0
 16 11  1  0  0  0  0
 19 20  1  0  0  0  0
 19  2  1  0  0  0  0
 21 19  1  0  0  0  0
 22 23  1  0  0  0  0
 22 24  1  0  0  0  0
 23 24  1  0  0  0  0
M  END
>  <minimizedAffinity>
-4.8305192

$$$$

 OpenBabel03272504463D

 24 26  0  0  0  0  0  0  0  0999 V2000
   36.7500   28.7440   31.9750 C   0  0  0  0  0  0  0  0  0  0  0  0
   35.6890   29.3990   32.6110 C   0  0  0  0  0  0  0  0  0  0  0  0
   35.3130   29.1730   33.9160 C   0  0  0  0  0  0  0  0  0  0  0  0
   36.0560   28.2510   34.5560 N   0  0  0  0  0  0  0  0  0  0  0  0
   37.0800   27.6090   33.9610 C   0  0  0  0  0  0  0  0  0  0  0  0
   37.4210   27.8430   32.7110 N   0  0  0  0  0  0  0  0  0  0  0  0
   36.9780   28.9860   30.9330 H   0  0  0  0  0  0  0  0  0  0  0  0
   36.1810   31.3740   35.6830 Cl  0  0  0  0  0  0  0  0  0  0  0  0
   34.5170   30.9070   35.4030 C   0  0  0  0  0  0  0  0  0  0  0  0
   34.2080   29.8670   34.5610 C   0  0  0  0  0  0  0  0  0  0  0  0
   32.8830   29.5610   34.3940 C   0  0  0  0  0  0  0  0  0  0  0  0
   31.8640   30.2530   35.0310 C   0  0  0  0  0  0  0  0  0  0  0  0
   32.2430   31.3100   35.8810 C   0  0  0  0  0  0  0  0  0  0  0  0
   30.9250   32.1460   36.6580 Cl  0  0  0  0  0  0  0  0  0  0  0  0
   33.5590   31.6480   36.0780 C   0  0  0  0  0  0  0  0  0  0  0  0
   32.6430   28.7390   33.7290 H   0  0  0  0  0  0  0  0  0  0  0  0
   30.8440   29.9880   34.8780 H   0  0  0  0  0  0  0  0  0  0  0  0
   33.8130   32.4550   36.7290 H   0  0  0  0  0  0  0  0  0  0  0  0
   34.9670   30.3630   31.8340 N   0  0  0  0  0  0  0  0  0  0  0  0
   34.1390   30.0190   31.2970 H   0  0  0  0  0  0  0  0  0  0  0  0
   35.2090   31.3770   31.7680 H   0  0  0  0  0  0  0  0  0  0  0  0
   37.8230   26.6080   34.7850 C   0  0  0  0  0  3  0  0  0  0  0  0
   38.7580   27.2750   35.8020 C   0  0  0  0  0  2  0  0  0  0  0  0
   39.2700   26.4130   34.6650 C   0  0  0  0  0  2  0  0  0  0  0  0
  1  2  2  0  0  0  0
  1  6  1  0  0  0  0
  2  3  1  0  0  0  0
  3  4  2  0  0  0  0
  3 10  1  0  0  0  0
  5  4  1  0  0  0  0
  5 22  1  0  0  0  0
  6  5  2  0  0  0  0
  7  1  1  0  0  0  0
  9  8  1  0  0  0  0
  9 15  1  0  0  0  0
 10  9  2  0  0  0  0
 11 10  1  0  0  0  0
 11 12  2  0  0  0  0
 12 13  1  0  0  0  0
 13 15  2  0  0  0  0
 13 14  1  0  0  0  0
 15 18  1  0  0  0  0
 16 11  1  0  0  0  0
 17 12  1  0  0  0  0
 19  2  1  0  0  0  0
 20 19  1  0  0  0  0
 21 19  1  0  0  0  0
 22 23  1  0  0  0  0
 24 22  1  0  0  0  0
 24 23  1  0  0  0  0
M  END
>  <minimizedAffinity>
-4.78939676

$$$$

 OpenBabel03272504463D

 24 26  0  0  0  0  0  0  0  0999 V2000
   38.6450   23.9570   30.6480 C   0  0  0  0  0  0  0  0  0  0  0  0
   38.2860   25.1410   31.3010 C   0  0  0  0  0  0  0  0  0  0  0  0
   37.0760   25.3400   31.9280 C   0  0  0  0  0  0  0  0  0  0  0  0
   36.2390   24.2890   31.8660 N   0  0  0  0  0  0  0  0  0  0  0  0
   36.5660   23.1410   31.2410 C   0  0  0  0  0  0  0  0  0  0  0  0
   37.7300   22.9740   30.6490 N   0  0  0  0  0  0  0  0  0  0  0  0
   39.6290   23.8860   30.1760 H   0  0  0  0  0  0  0  0  0  0  0  0
   37.8920   25.4030   34.7650 Cl  0  0  0  0  0  0  0  0  0  0  0  0
   37.0620   26.6980   33.9300 C   0  0  0  0  0  0  0  0  0  0  0  0
   36.7210   26.5790   32.6050 C   0  0  0  0  0  0  0  0  0  0  0  0
   36.0720   27.6360   32.0220 C   0  0  0  0  0  0  0  0  0  0  0  0
   35.7560   28.7970   32.7090 C   0  0  0  0  0  0  0  0  0  0  0  0
   36.1320   28.8610   34.0650 C   0  0  0  0  0  0  0  0  0  0  0  0
   35.7100   30.3420   34.8830 Cl  0  0  0  0  0  0  0  0  0  0  0  0
   36.7820   27.8250   34.6880 C   0  0  0  0  0  0  0  0  0  0  0  0
   35.8040   27.5380   30.9750 H   0  0  0  0  0  0  0  0  0  0  0  0
   35.2510   29.6000   32.2240 H   0  0  0  0  0  0  0  0  0  0  0  0
   37.0520   27.9040   35.7170 H   0  0  0  0  0  0  0  0  0  0  0  0
   39.2550   26.1950   31.3060 N   0  0  0  0  0  0  0  0  0  0  0  0
   39.2190   26.8820   30.5190 H   0  0  0  0  0  0  0  0  0  0  0  0
   39.9910   26.3250   32.0370 H   0  0  0  0  0  0  0  0  0  0  0  0
   35.5430   22.0520   31.2460 C   0  0  0  0  0  3  0  0  0  0  0  0
   35.5970   21.2130   32.5290 C   0  0  0  0  0  2  0  0  0  0  0  0
   35.9070   20.6350   31.1620 C   0  0  0  0  0  2  0  0  0  0  0  0
  1  6  2  0  0  0  0
  1  2  1  0  0  0  0
  2 19  1  0  0  0  0
  2  3  2  0  0  0  0
  3 10  1  0  0  0  0
  4  3  1  0  0  0  0
  5 22  1  0  0  0  0
  5  4  2  0  0  0  0
  6  5  1  0  0  0  0
  7  1  1  0  0  0  0
  9 15  1  0  0  0  0
  9  8  1  0  0  0  0
 10  9  2  0  0  0  0
 11 10  1  0  0  0  0
 11 12  2  0  0  0  0
 12 13  1  0  0  0  0
 13 15  2  0  0  0  0
 13 14  1  0  0  0  0
 15 18  1  0  0  0  0
 16 11  1  0  0  0  0
 17 12  1  0  0  0  0
 19 21  1  0  0  0  0
 20 19  1  0  0  0  0
 22 23  1  0  0  0  0
 24 22  1  0  0  0  0
 24 23  1  0  0  0  0
M  END
>  <minimizedAffinity>
-4.70356131

$$$$
