
 OpenBabel03272506533D

 38 41  0  0  1  0  0  0  0  0999 V2000
   34.6410   30.3040   48.5240 C   0  0  1  0  0  0  0  0  0  0  0  0
   33.6780   30.4990   47.4690 C   0  0  0  0  0  0  0  0  0  0  0  0
   33.5030   29.3480   46.4980 C   0  0  0  0  0  0  0  0  0  0  0  0
   33.4870   28.0170   47.0580 C   0  0  2  0  0  0  0  0  0  0  0  0
   34.4730   27.7630   48.2190 C   0  0  0  0  0  0  0  0  0  0  0  0
   34.5010   28.9350   49.1550 C   0  0  0  0  0  0  0  0  0  0  0  0
   34.3620   30.9810   49.3980 H   0  0  0  0  0  0  0  0  0  0  0  0
   32.6540   30.6010   47.9360 H   0  0  0  0  0  0  0  0  0  0  0  0
   33.7960   31.3930   46.8550 H   0  0  0  0  0  0  0  0  0  0  0  0
   34.4760   29.4250   45.9040 H   0  0  0  0  0  0  0  0  0  0  0  0
   32.6280   29.5750   45.8930 H   0  0  0  0  0  0  0  0  0  0  0  0
   32.5450   27.7300   47.5670 H   0  0  0  0  0  0  0  0  0  0  0  0
   34.0670   26.9630   48.8570 H   0  0  0  0  0  0  0  0  0  0  0  0
   35.4670   27.4770   47.8590 H   0  0  0  0  0  0  0  0  0  0  0  0
   33.5940   28.9250   49.8290 H   0  0  0  0  0  0  0  0  0  0  0  0
   35.3720   28.8020   49.8280 H   0  0  0  0  0  0  0  0  0  0  0  0
   33.9140   27.0410   46.0100 C   0  0  0  0  0  0  0  0  0  0  0  0
   34.4480   27.5860   44.8200 C   0  0  0  0  0  0  0  0  0  0  0  0
   34.8240   26.7770   43.7690 C   0  0  0  0  0  0  0  0  0  0  0  0
   34.6670   25.4470   43.9080 C   0  0  0  0  0  0  0  0  0  0  0  0
   34.1500   24.8970   45.0470 C   0  0  0  0  0  0  0  0  0  0  0  0
   33.7670   25.6980   46.1100 C   0  0  0  0  0  0  0  0  0  0  0  0
   34.6280   28.6110   44.5120 H   0  0  0  0  0  0  0  0  0  0  0  0
   35.2390   27.0810   42.8230 H   0  0  0  0  0  0  0  0  0  0  0  0
   34.9440   24.7230   43.1190 H   0  0  0  0  0  0  0  0  0  0  0  0
   34.0330   23.8140   45.1290 H   0  0  0  0  0  0  0  0  0  0  0  0
   33.2210   25.0400   47.2820 C   0  0  0  0  0  0  0  0  0  0  0  0
   31.8720   25.1510   47.8180 C   0  0  0  0  0  0  0  0  0  0  0  0
   32.0770   24.0370   46.8990 C   0  0  0  0  0  0  0  0  0  0  0  0
   36.6080   30.5920   47.0100 C   0  0  0  0  0  0  0  0  0  0  0  0
   36.0430   30.6700   48.2780 C   0  0  0  0  0  0  0  0  0  0  0  0
   36.8620   31.1120   49.3180 C   0  0  0  0  0  0  0  0  0  0  0  0
   38.1600   31.4420   49.0390 N   0  0  0  0  0  0  0  0  0  0  0  0
   38.6700   31.3520   47.7930 C   0  0  0  0  0  0  0  0  0  0  0  0
   37.8810   30.9210   46.7680 N   0  0  0  0  0  0  0  0  0  0  0  0
   36.1430   30.2990   46.1110 H   0  0  0  0  0  0  0  0  0  0  0  0
   36.4880   31.1990   50.3370 H   0  0  0  0  0  0  0  0  0  0  0  0
   39.7070   31.6390   47.6930 H   0  0  0  0  0  0  0  0  0  0  0  0
  1  6  1  0  0  0  0
  1  7  1  1  0  0  0
  2  8  1  0  0  0  0
  2  1  1  0  0  0  0
  3  4  1  0  0  0  0
  3  2  1  0  0  0  0
  4 12  1  1  0  0  0
  4  5  1  0  0  0  0
  5 13  1  0  0  0  0
  5  6  1  0  0  0  0
  6 16  1  0  0  0  0
  6 15  1  0  0  0  0
  9  2  1  0  0  0  0
 10  3  1  0  0  0  0
 11  3  1  0  0  0  0
 14  5  1  0  0  0  0
 17 22  1  0  0  0  0
 17  4  1  0  0  0  0
 18 17  2  0  0  0  0
 19 20  2  0  0  0  0
 19 18  1  0  0  0  0
 20 21  1  0  0  0  0
 21 26  1  0  0  0  0
 21 22  2  0  0  0  0
 22 27  1  0  0  0  0
 23 18  1  0  0  0  0
 24 19  1  0  0  0  0
 25 20  1  0  0  0  0
 27 28  1  0  0  0  0
 29 27  1  0  0  0  0
 29 28  1  0  0  0  0
 30 31  1  0  0  0  0
 31  1  1  0  0  0  0
 31 32  2  0  0  0  0
 32 37  1  0  0  0  0
 33 32  1  0  0  0  0
 34 33  2  0  0  0  0
 35 30  2  0  0  0  0
 35 34  1  0  0  0  0
 36 30  1  0  0  0  0
 38 34  1  0  0  0  0
M  END
>  <minimizedAffinity>
-4.37213326

>  <minimizedRMSD>
1.14911938

$$$$
