
 OpenBabel03272510233D

 25 28  0  0  0  0  0  0  0  0999 V2000
   36.4880   30.4770   45.8370 C   0  0  0  0  0  0  0  0  0  0  0  0
   37.4570   31.3910   46.2050 C   0  0  0  0  0  0  0  0  0  0  0  0
   38.0220   32.1950   45.2510 C   0  0  0  0  0  0  0  0  0  0  0  0
   37.5920   32.0560   43.9290 C   0  0  0  0  0  0  0  0  0  0  0  0
   38.0220   32.7510   42.8400 N   0  0  0  0  0  0  0  0  0  0  0  0
   37.3280   32.2750   41.8000 C   0  0  0  0  0  0  0  0  0  0  0  0
   36.4830   31.3130   42.1970 N   0  0  0  0  0  0  0  0  0  0  0  0
   36.6240   31.1510   43.5270 C   0  0  0  0  0  0  0  0  0  0  0  0
   36.0680   30.3500   44.5110 C   0  0  0  0  0  0  0  0  0  0  0  0
   35.9880   29.8010   46.5310 H   0  0  0  0  0  0  0  0  0  0  0  0
   38.7820   32.9160   45.5170 H   0  0  0  0  0  0  0  0  0  0  0  0
   38.7420   33.4970   42.8280 H   0  0  0  0  0  0  0  0  0  0  0  0
   35.3110   29.6370   44.2210 H   0  0  0  0  0  0  0  0  0  0  0  0
   38.6760   32.4990   49.5830 C   0  0  0  0  0  0  0  0  0  0  0  0
   38.3590   32.5630   48.2200 C   0  0  0  0  0  0  0  0  0  0  0  0
   37.8250   31.4470   47.6080 C   0  0  0  0  0  0  0  0  0  0  0  0
   37.6290   30.3220   48.3570 N   0  0  0  0  0  0  0  0  0  0  0  0
   37.9430   30.2780   49.6790 C   0  0  0  0  0  0  0  0  0  0  0  0
   38.4630   31.3610   50.2830 N   0  0  0  0  0  0  0  0  0  0  0  0
   39.0870   33.4020   49.9980 H   0  0  0  0  0  0  0  0  0  0  0  0
   38.5190   33.4510   47.6460 H   0  0  0  0  0  0  0  0  0  0  0  0
   37.7930   29.3970   50.2830 H   0  0  0  0  0  0  0  0  0  0  0  0
   37.4690   32.7500   40.3790 C   0  0  0  0  0  3  0  0  0  0  0  0
   36.7930   34.1050   40.1610 C   0  0  0  0  0  2  0  0  0  0  0  0
   38.2960   33.9100   40.0370 C   0  0  0  0  0  2  0  0  0  0  0  0
  1  2  1  0  0  0  0
  1 10  1  0  0  0  0
  2 16  1  0  0  0  0
  3 11  1  0  0  0  0
  3  2  2  0  0  0  0
  4  3  1  0  0  0  0
  5  4  1  0  0  0  0
  6  7  2  0  0  0  0
  6  5  1  0  0  0  0
  7  8  1  0  0  0  0
  8  4  2  0  0  0  0
  8  9  1  0  0  0  0
  9  1  2  0  0  0  0
 12  5  1  0  0  0  0
 13  9  1  0  0  0  0
 14 20  1  0  0  0  0
 14 19  1  0  0  0  0
 15 14  2  0  0  0  0
 16 15  1  0  0  0  0
 16 17  2  0  0  0  0
 17 18  1  0  0  0  0
 18 19  2  0  0  0  0
 18 22  1  0  0  0  0
 21 15  1  0  0  0  0
 23  6  1  0  0  0  0
 24 23  1  0  0  0  0
 25 24  1  0  0  0  0
 25 23  1  0  0  0  0
M  END
>  <minimizedAffinity>
-4.49386454

>  <minimizedRMSD>
3.6046567

$$$$
