
 OpenBabel03272503273D

 24 26  0  0  1  0  0  0  0  0999 V2000
   38.3460   24.0220   36.1960 N   0  0  0  0  0  0  0  0  0  0  0  0
   39.3130   22.9990   35.9060 C   0  0  0  0  0  0  0  0  0  0  0  0
   39.6600   22.4680   37.2900 C   0  0  2  0  0  0  0  0  0  0  0  0
   38.9010   23.3190   38.2770 C   0  0  0  0  0  0  0  0  0  0  0  0
   37.6630   23.6180   37.4250 C   0  0  0  0  0  0  0  0  0  0  0  0
   38.9270   22.2120   35.2280 H   0  0  0  0  0  0  0  0  0  0  0  0
   40.2360   23.4930   35.5380 H   0  0  0  0  0  0  0  0  0  0  0  0
   39.2190   21.4530   37.3460 H   0  0  0  0  0  0  0  0  0  0  0  0
   39.3550   24.3200   38.4480 H   0  0  0  0  0  0  0  0  0  0  0  0
   38.6370   22.7800   39.2020 H   0  0  0  0  0  0  0  0  0  0  0  0
   37.1110   24.4960   37.8350 H   0  0  0  0  0  0  0  0  0  0  0  0
   37.0360   22.7340   37.2760 H   0  0  0  0  0  0  0  0  0  0  0  0
   38.0770   25.2050   35.4580 C   0  0  0  0  0  0  0  0  0  0  0  0
   38.2300   26.4130   36.1350 C   0  0  0  0  0  0  0  0  0  0  0  0
   37.9770   27.6120   35.4560 C   0  0  0  0  0  0  0  0  0  0  0  0
   37.5900   27.5080   34.1390 N   0  0  0  0  0  0  0  0  0  0  0  0
   37.4540   26.3090   33.5170 C   0  0  0  0  0  0  0  0  0  0  0  0
   37.6980   25.1600   34.1780 N   0  0  0  0  0  0  0  0  0  0  0  0
   38.5290   26.5430   37.1570 H   0  0  0  0  0  0  0  0  0  0  0  0
   38.0740   28.5910   35.9140 H   0  0  0  0  0  0  0  0  0  0  0  0
   37.1500   26.2740   32.4890 H   0  0  0  0  0  0  0  0  0  0  0  0
   41.1250   22.4020   37.5340 C   0  0  0  0  0  3  0  0  0  0  0  0
   42.0760   22.6080   36.4210 C   0  0  0  0  0  2  0  0  0  0  0  0
   41.9730   21.2700   37.1500 C   0  0  0  0  0  2  0  0  0  0  0  0
  1  5  1  0  0  0  0
  2  1  1  0  0  0  0
  2  3  1  0  0  0  0
  3  8  1  1  0  0  0
  3 22  1  0  0  0  0
  3  4  1  0  0  0  0
  4  9  1  0  0  0  0
  4 10  1  0  0  0  0
  5 11  1  0  0  0  0
  5  4  1  0  0  0  0
  6  2  1  0  0  0  0
  7  2  1  0  0  0  0
 12  5  1  0  0  0  0
 13 14  1  0  0  0  0
 13  1  1  0  0  0  0
 14 19  1  0  0  0  0
 15 20  1  0  0  0  0
 15 14  2  0  0  0  0
 16 15  1  0  0  0  0
 17 16  2  0  0  0  0
 17 18  1  0  0  0  0
 18 13  2  0  0  0  0
 21 17  1  0  0  0  0
 23 24  1  0  0  0  0
 23 22  1  0  0  0  0
 24 22  1  0  0  0  0
M  END
>  <minimizedAffinity>
-4.3466444

$$$$

 OpenBabel03272503273D

 24 26  0  0  1  0  0  0  0  0999 V2000
   38.0040   25.8480   34.5070 N   0  0  0  0  0  0  0  0  0  0  0  0
   38.3920   25.8580   35.8920 C   0  0  0  0  0  0  0  0  0  0  0  0
   38.6280   24.3820   36.1800 C   0  0  2  0  0  0  0  0  0  0  0  0
   38.2620   23.6350   34.9210 C   0  0  0  0  0  0  0  0  0  0  0  0
   38.6660   24.6980   33.8930 C   0  0  0  0  0  0  0  0  0  0  0  0
   39.2840   26.4840   36.0910 H   0  0  0  0  0  0  0  0  0  0  0  0
   37.5040   26.1390   36.4940 H   0  0  0  0  0  0  0  0  0  0  0  0
   39.7230   24.2680   36.3040 H   0  0  0  0  0  0  0  0  0  0  0  0
   37.1660   23.5230   34.7710 H   0  0  0  0  0  0  0  0  0  0  0  0
   38.8330   22.7020   34.7880 H   0  0  0  0  0  0  0  0  0  0  0  0
   38.1870   24.4880   32.9090 H   0  0  0  0  0  0  0  0  0  0  0  0
   39.7510   24.8300   33.8360 H   0  0  0  0  0  0  0  0  0  0  0  0
   37.1490   26.7600   33.8320 C   0  0  0  0  0  0  0  0  0  0  0  0
   36.7300   27.8750   34.5530 C   0  0  0  0  0  0  0  0  0  0  0  0
   35.8840   28.8070   33.9360 C   0  0  0  0  0  0  0  0  0  0  0  0
   35.5230   28.5480   32.6340 N   0  0  0  0  0  0  0  0  0  0  0  0
   35.9550   27.4470   31.9680 C   0  0  0  0  0  0  0  0  0  0  0  0
   36.7680   26.5540   32.5680 N   0  0  0  0  0  0  0  0  0  0  0  0
   36.9850   28.1180   35.5660 H   0  0  0  0  0  0  0  0  0  0  0  0
   35.5150   29.6990   34.4310 H   0  0  0  0  0  0  0  0  0  0  0  0
   35.6490   27.2830   30.9530 H   0  0  0  0  0  0  0  0  0  0  0  0
   37.9240   23.9100   37.4010 C   0  0  0  0  0  3  0  0  0  0  0  0
   37.9340   24.7310   38.6310 C   0  0  0  0  0  2  0  0  0  0  0  0
   38.6000   23.3580   38.5790 C   0  0  0  0  0  2  0  0  0  0  0  0
  1  2  1  0  0  0  0
  2  6  1  0  0  0  0
  2  3  1  0  0  0  0
  2  7  1  0  0  0  0
  3  8  1  1  0  0  0
  3 22  1  0  0  0  0
  4  3  1  0  0  0  0
  5  1  1  0  0  0  0
  5  4  1  0  0  0  0
  9  4  1  0  0  0  0
 10  4  1  0  0  0  0
 11  5  1  0  0  0  0
 12  5  1  0  0  0  0
 13  1  1  0  0  0  0
 13 14  1  0  0  0  0
 14 19  1  0  0  0  0
 15 20  1  0  0  0  0
 15 14  2  0  0  0  0
 16 15  1  0  0  0  0
 17 18  1  0  0  0  0
 17 16  2  0  0  0  0
 18 13  2  0  0  0  0
 21 17  1  0  0  0  0
 22 24  1  0  0  0  0
 22 23  1  0  0  0  0
 24 23  1  0  0  0  0
M  END
>  <minimizedAffinity>
-4.29749441

$$$$

 OpenBabel03272503273D

 24 26  0  0  1  0  0  0  0  0999 V2000
   38.0210   25.4330   34.0660 N   0  0  0  0  0  0  0  0  0  0  0  0
   37.8080   25.7900   35.4430 C   0  0  0  0  0  0  0  0  0  0  0  0
   38.6630   24.7730   36.1860 C   0  0  2  0  0  0  0  0  0  0  0  0
   39.2360   23.8500   35.1390 C   0  0  0  0  0  0  0  0  0  0  0  0
   39.3610   24.8510   33.9860 C   0  0  0  0  0  0  0  0  0  0  0  0
   38.0890   26.8370   35.6710 H   0  0  0  0  0  0  0  0  0  0  0  0
   36.7590   25.5410   35.7030 H   0  0  0  0  0  0  0  0  0  0  0  0
   39.5180   25.3420   36.6030 H   0  0  0  0  0  0  0  0  0  0  0  0
   38.5100   23.0970   34.7610 H   0  0  0  0  0  0  0  0  0  0  0  0
   40.2160   23.4290   35.4210 H   0  0  0  0  0  0  0  0  0  0  0  0
   39.4630   24.3140   33.0140 H   0  0  0  0  0  0  0  0  0  0  0  0
   40.1440   25.5950   34.1630 H   0  0  0  0  0  0  0  0  0  0  0  0
   37.1310   25.5980   32.9720 C   0  0  0  0  0  0  0  0  0  0  0  0
   36.7790   24.4460   32.2730 C   0  0  0  0  0  0  0  0  0  0  0  0
   35.9040   24.5500   31.1840 C   0  0  0  0  0  0  0  0  0  0  0  0
   35.4430   25.8110   30.8780 N   0  0  0  0  0  0  0  0  0  0  0  0
   35.8130   26.9080   31.5870 C   0  0  0  0  0  0  0  0  0  0  0  0
   36.6560   26.8000   32.6330 N   0  0  0  0  0  0  0  0  0  0  0  0
   37.1100   23.4460   32.4750 H   0  0  0  0  0  0  0  0  0  0  0  0
   35.5830   23.7000   30.5910 H   0  0  0  0  0  0  0  0  0  0  0  0
   35.4300   27.8720   31.3140 H   0  0  0  0  0  0  0  0  0  0  0  0
   37.9270   24.0840   37.2770 C   0  0  0  0  0  3  0  0  0  0  0  0
   37.8890   24.6670   38.6350 C   0  0  0  0  0  2  0  0  0  0  0  0
   38.5710   23.3300   38.3570 C   0  0  0  0  0  2  0  0  0  0  0  0
  1  2  1  0  0  0  0
  2  6  1  0  0  0  0
  2  7  1  0  0  0  0
  2  3  1  0  0  0  0
  3  8  1  1  0  0  0
  3 22  1  0  0  0  0
  4 10  1  0  0  0  0
  4  3  1  0  0  0  0
  5  1  1  0  0  0  0
  5 12  1  0  0  0  0
  5  4  1  0  0  0  0
  9  4  1  0  0  0  0
 11  5  1  0  0  0  0
 13  1  1  0  0  0  0
 14 19  1  0  0  0  0
 14 13  2  0  0  0  0
 15 14  1  0  0  0  0
 16 15  2  0  0  0  0
 16 17  1  0  0  0  0
 17 18  2  0  0  0  0
 18 13  1  0  0  0  0
 20 15  1  0  0  0  0
 21 17  1  0  0  0  0
 22 24  1  0  0  0  0
 22 23  1  0  0  0  0
 24 23  1  0  0  0  0
M  END
>  <minimizedAffinity>
-4.22480869

$$$$

 OpenBabel03272503273D

 24 26  0  0  1  0  0  0  0  0999 V2000
   37.1660   25.1730   32.5700 N   0  0  0  0  0  0  0  0  0  0  0  0
   37.3880   23.8610   32.0250 C   0  0  0  0  0  0  0  0  0  0  0  0
   36.1990   23.6840   31.0910 C   0  0  2  0  0  0  0  0  0  0  0  0
   35.3380   24.9120   31.2570 C   0  0  0  0  0  0  0  0  0  0  0  0
   36.4410   25.9340   31.5530 C   0  0  0  0  0  0  0  0  0  0  0  0
   38.3620   23.7630   31.5050 H   0  0  0  0  0  0  0  0  0  0  0  0
   37.2380   23.1220   32.8380 H   0  0  0  0  0  0  0  0  0  0  0  0
   36.6100   23.7280   30.0630 H   0  0  0  0  0  0  0  0  0  0  0  0
   34.7250   24.9060   32.1850 H   0  0  0  0  0  0  0  0  0  0  0  0
   34.7740   25.1740   30.3470 H   0  0  0  0  0  0  0  0  0  0  0  0
   36.0090   26.8470   32.0250 H   0  0  0  0  0  0  0  0  0  0  0  0
   37.0610   26.1430   30.6760 H   0  0  0  0  0  0  0  0  0  0  0  0
   37.5580   25.6690   33.8420 C   0  0  0  0  0  0  0  0  0  0  0  0
   37.3770   27.0310   34.0650 C   0  0  0  0  0  0  0  0  0  0  0  0
   37.7480   27.5750   35.3020 C   0  0  0  0  0  0  0  0  0  0  0  0
   38.2740   26.7030   36.2280 N   0  0  0  0  0  0  0  0  0  0  0  0
   38.4330   25.3810   35.9690 C   0  0  0  0  0  0  0  0  0  0  0  0
   38.0750   24.8650   34.7760 N   0  0  0  0  0  0  0  0  0  0  0  0
   36.9720   27.7470   33.3760 H   0  0  0  0  0  0  0  0  0  0  0  0
   37.6380   28.6250   35.5510 H   0  0  0  0  0  0  0  0  0  0  0  0
   38.8480   24.7360   36.7200 H   0  0  0  0  0  0  0  0  0  0  0  0
   35.4830   22.3990   31.3010 C   0  0  0  0  0  3  0  0  0  0  0  0
   35.7750   21.5700   32.4900 C   0  0  0  0  0  2  0  0  0  0  0  0
   36.0800   21.0790   31.0770 C   0  0  0  0  0  2  0  0  0  0  0  0
  1 13  1  0  0  0  0
  2  1  1  0  0  0  0
  2  7  1  0  0  0  0
  3  8  1  6  0  0  0
  3  4  1  0  0  0  0
  3 22  1  0  0  0  0
  3  2  1  0  0  0  0
  4  5  1  0  0  0  0
  4  9  1  0  0  0  0
  5 11  1  0  0  0  0
  5  1  1  0  0  0  0
  6  2  1  0  0  0  0
 10  4  1  0  0  0  0
 12  5  1  0  0  0  0
 13 14  2  0  0  0  0
 13 18  1  0  0  0  0
 14 15  1  0  0  0  0
 15 20  1  0  0  0  0
 15 16  2  0  0  0  0
 17 16  1  0  0  0  0
 17 21  1  0  0  0  0
 18 17  2  0  0  0  0
 19 14  1  0  0  0  0
 22 23  1  0  0  0  0
 24 22  1  0  0  0  0
 24 23  1  0  0  0  0
M  END
>  <minimizedAffinity>
-4.17774343

$$$$

 OpenBabel03272503273D

 24 26  0  0  1  0  0  0  0  0999 V2000
   37.9620   22.8570   34.3650 N   0  0  0  0  0  0  0  0  0  0  0  0
   38.5140   24.1830   34.2830 C   0  0  0  0  0  0  0  0  0  0  0  0
   38.7640   24.5290   35.7440 C   0  0  2  0  0  0  0  0  0  0  0  0
   38.2390   23.3700   36.5550 C   0  0  0  0  0  0  0  0  0  0  0  0
   38.5300   22.2390   35.5630 C   0  0  0  0  0  0  0  0  0  0  0  0
   39.4320   24.2360   33.6650 H   0  0  0  0  0  0  0  0  0  0  0  0
   37.7090   24.8690   33.9490 H   0  0  0  0  0  0  0  0  0  0  0  0
   39.8650   24.5280   35.8730 H   0  0  0  0  0  0  0  0  0  0  0  0
   37.1310   23.3590   36.6540 H   0  0  0  0  0  0  0  0  0  0  0  0
   38.7780   23.2260   37.5060 H   0  0  0  0  0  0  0  0  0  0  0  0
   37.9330   21.3330   35.8190 H   0  0  0  0  0  0  0  0  0  0  0  0
   39.6020   22.0450   35.4560 H   0  0  0  0  0  0  0  0  0  0  0  0
   37.0440   22.2360   33.4770 C   0  0  0  0  0  0  0  0  0  0  0  0
   36.8500   22.8540   32.2450 C   0  0  0  0  0  0  0  0  0  0  0  0
   35.9540   22.2850   31.3300 C   0  0  0  0  0  0  0  0  0  0  0  0
   35.3190   21.1290   31.7240 N   0  0  0  0  0  0  0  0  0  0  0  0
   35.5370   20.5590   32.9360 C   0  0  0  0  0  0  0  0  0  0  0  0
   36.4000   21.1140   33.8110 N   0  0  0  0  0  0  0  0  0  0  0  0
   37.3220   23.7520   31.8950 H   0  0  0  0  0  0  0  0  0  0  0  0
   35.7490   22.7060   30.3510 H   0  0  0  0  0  0  0  0  0  0  0  0
   35.0200   19.6580   33.2030 H   0  0  0  0  0  0  0  0  0  0  0  0
   38.2060   25.8510   36.1290 C   0  0  0  0  0  3  0  0  0  0  0  0
   37.4420   26.6520   35.1490 C   0  0  0  0  0  2  0  0  0  0  0  0
   38.7740   27.1370   35.7140 C   0  0  0  0  0  2  0  0  0  0  0  0
  1  5  1  0  0  0  0
  2  1  1  0  0  0  0
  2  3  1  0  0  0  0
  3  8  1  1  0  0  0
  3 22  1  0  0  0  0
  3  4  1  0  0  0  0
  4  9  1  0  0  0  0
  4 10  1  0  0  0  0
  5 11  1  0  0  0  0
  5  4  1  0  0  0  0
  6  2  1  0  0  0  0
  7  2  1  0  0  0  0
 12  5  1  0  0  0  0
 13 18  1  0  0  0  0
 13  1  1  0  0  0  0
 14 13  2  0  0  0  0
 15 16  2  0  0  0  0
 15 14  1  0  0  0  0
 16 17  1  0  0  0  0
 17 21  1  0  0  0  0
 17 18  2  0  0  0  0
 19 14  1  0  0  0  0
 20 15  1  0  0  0  0
 23 24  1  0  0  0  0
 23 22  1  0  0  0  0
 24 22  1  0  0  0  0
M  END
>  <minimizedAffinity>
-4.06972075

$$$$

 OpenBabel03272503273D

 24 26  0  0  1  0  0  0  0  0999 V2000
   39.5200   25.0060   34.7970 N   0  0  0  0  0  0  0  0  0  0  0  0
   38.6270   25.1460   33.6790 C   0  0  0  0  0  0  0  0  0  0  0  0
   39.0830   26.4560   33.0520 C   0  0  2  0  0  0  0  0  0  0  0  0
   40.1700   27.0020   33.9450 C   0  0  0  0  0  0  0  0  0  0  0  0
   40.7660   25.6750   34.4260 C   0  0  0  0  0  0  0  0  0  0  0  0
   38.6740   24.2920   32.9740 H   0  0  0  0  0  0  0  0  0  0  0  0
   37.6100   25.3450   34.0740 H   0  0  0  0  0  0  0  0  0  0  0  0
   39.5720   26.1820   32.0960 H   0  0  0  0  0  0  0  0  0  0  0  0
   39.7880   27.4760   34.8760 H   0  0  0  0  0  0  0  0  0  0  0  0
   40.9140   27.6090   33.4020 H   0  0  0  0  0  0  0  0  0  0  0  0
   41.3780   25.8340   35.3450 H   0  0  0  0  0  0  0  0  0  0  0  0
   41.2970   25.1440   33.6310 H   0  0  0  0  0  0  0  0  0  0  0  0
   39.2750   24.3540   36.0350 C   0  0  0  0  0  0  0  0  0  0  0  0
   38.1820   24.8020   36.7730 C   0  0  0  0  0  0  0  0  0  0  0  0
   37.8940   24.1940   38.0020 C   0  0  0  0  0  0  0  0  0  0  0  0
   38.7300   23.1750   38.3990 N   0  0  0  0  0  0  0  0  0  0  0  0
   39.7850   22.7700   37.6480 C   0  0  0  0  0  0  0  0  0  0  0  0
   40.0560   23.3590   36.4670 N   0  0  0  0  0  0  0  0  0  0  0  0
   37.5050   25.5890   36.5040 H   0  0  0  0  0  0  0  0  0  0  0  0
   37.0620   24.4870   38.6340 H   0  0  0  0  0  0  0  0  0  0  0  0
   40.4110   21.9710   37.9960 H   0  0  0  0  0  0  0  0  0  0  0  0
   37.9630   27.3990   32.8010 C   0  0  0  0  0  3  0  0  0  0  0  0
   36.9390   27.6340   33.8420 C   0  0  0  0  0  2  0  0  0  0  0  0
   36.5880   26.9840   32.5060 C   0  0  0  0  0  2  0  0  0  0  0  0
  1 13  1  0  0  0  0
  2  7  1  0  0  0  0
  2  1  1  0  0  0  0
  3  8  1  6  0  0  0
  3  2  1  0  0  0  0
  3  4  1  0  0  0  0
  4  5  1  0  0  0  0
  4  9  1  0  0  0  0
  5  1  1  0  0  0  0
  5 11  1  0  0  0  0
  6  2  1  0  0  0  0
 10  4  1  0  0  0  0
 12  5  1  0  0  0  0
 13 18  2  0  0  0  0
 13 14  1  0  0  0  0
 14 15  2  0  0  0  0
 15 16  1  0  0  0  0
 15 20  1  0  0  0  0
 17 21  1  0  0  0  0
 17 16  2  0  0  0  0
 18 17  1  0  0  0  0
 19 14  1  0  0  0  0
 22  3  1  0  0  0  0
 22 23  1  0  0  0  0
 24 22  1  0  0  0  0
 24 23  1  0  0  0  0
M  END
>  <minimizedAffinity>
-3.99042749

$$$$

 OpenBabel03272503273D

 24 26  0  0  1  0  0  0  0  0999 V2000
   40.0310   25.9920   34.8880 N   0  0  0  0  0  0  0  0  0  0  0  0
   39.2400   24.8140   35.1240 C   0  0  0  0  0  0  0  0  0  0  0  0
   38.1210   25.3390   36.0130 C   0  0  2  0  0  0  0  0  0  0  0  0
   38.4320   26.7910   36.2800 C   0  0  0  0  0  0  0  0  0  0  0  0
   39.1170   27.1320   34.9530 C   0  0  0  0  0  0  0  0  0  0  0  0
   38.8650   24.3460   34.1920 H   0  0  0  0  0  0  0  0  0  0  0  0
   39.8300   24.1270   35.7640 H   0  0  0  0  0  0  0  0  0  0  0  0
   37.2050   25.3240   35.3900 H   0  0  0  0  0  0  0  0  0  0  0  0
   39.2300   26.9450   37.0390 H   0  0  0  0  0  0  0  0  0  0  0  0
   37.5300   27.4050   36.4420 H   0  0  0  0  0  0  0  0  0  0  0  0
   39.7140   28.0680   35.0520 H   0  0  0  0  0  0  0  0  0  0  0  0
   38.4150   27.1440   34.1130 H   0  0  0  0  0  0  0  0  0  0  0  0
   41.4270   26.0710   34.6380 C   0  0  0  0  0  0  0  0  0  0  0  0
   41.8520   27.0860   33.7850 C   0  0  0  0  0  0  0  0  0  0  0  0
   43.2190   27.2120   33.5030 C   0  0  0  0  0  0  0  0  0  0  0  0
   44.0610   26.3030   34.1030 N   0  0  0  0  0  0  0  0  0  0  0  0
   43.6030   25.3280   34.9290 C   0  0  0  0  0  0  0  0  0  0  0  0
   42.2860   25.2140   35.1950 N   0  0  0  0  0  0  0  0  0  0  0  0
   41.2350   27.8160   33.2960 H   0  0  0  0  0  0  0  0  0  0  0  0
   43.6280   27.9760   32.8500 H   0  0  0  0  0  0  0  0  0  0  0  0
   44.2940   24.6400   35.3760 H   0  0  0  0  0  0  0  0  0  0  0  0
   37.9210   24.5190   37.2360 C   0  0  0  0  0  3  0  0  0  0  0  0
   38.8880   23.4570   37.5880 C   0  0  0  0  0  2  0  0  0  0  0  0
   37.4400   23.1340   37.2280 C   0  0  0  0  0  2  0  0  0  0  0  0
  1  5  1  0  0  0  0
  1  2  1  0  0  0  0
  2  7  1  0  0  0  0
  2  3  1  0  0  0  0
  3  8  1  6  0  0  0
  3  4  1  0  0  0  0
  3 22  1  0  0  0  0
  4 10  1  0  0  0  0
  4  9  1  0  0  0  0
  5 11  1  0  0  0  0
  5  4  1  0  0  0  0
  6  2  1  0  0  0  0
 12  5  1  0  0  0  0
 13  1  1  0  0  0  0
 13 18  1  0  0  0  0
 14 13  2  0  0  0  0
 15 14  1  0  0  0  0
 15 16  2  0  0  0  0
 16 17  1  0  0  0  0
 17 18  2  0  0  0  0
 17 21  1  0  0  0  0
 19 14  1  0  0  0  0
 20 15  1  0  0  0  0
 22 23  1  0  0  0  0
 24 22  1  0  0  0  0
 24 23  1  0  0  0  0
M  END
>  <minimizedAffinity>
-3.97318673

$$$$

 OpenBabel03272503273D

 24 26  0  0  1  0  0  0  0  0999 V2000
   38.7210   25.8890   35.2360 N   0  0  0  0  0  0  0  0  0  0  0  0
   38.6160   25.8690   33.8020 C   0  0  0  0  0  0  0  0  0  0  0  0
   37.7130   27.0610   33.5190 C   0  0  2  0  0  0  0  0  0  0  0  0
   37.3050   27.6180   34.8610 C   0  0  0  0  0  0  0  0  0  0  0  0
   38.5770   27.2850   35.6480 C   0  0  0  0  0  0  0  0  0  0  0  0
   39.5960   25.9410   33.2910 H   0  0  0  0  0  0  0  0  0  0  0  0
   38.0250   24.9750   33.5140 H   0  0  0  0  0  0  0  0  0  0  0  0
   38.3590   27.8270   33.0460 H   0  0  0  0  0  0  0  0  0  0  0  0
   36.5140   27.0240   35.3700 H   0  0  0  0  0  0  0  0  0  0  0  0
   37.1120   28.7030   34.8410 H   0  0  0  0  0  0  0  0  0  0  0  0
   38.3760   27.3180   36.7450 H   0  0  0  0  0  0  0  0  0  0  0  0
   39.4310   27.8950   35.3390 H   0  0  0  0  0  0  0  0  0  0  0  0
   38.9250   24.7900   36.1130 C   0  0  0  0  0  0  0  0  0  0  0  0
   38.0660   24.6920   37.2030 C   0  0  0  0  0  0  0  0  0  0  0  0
   38.2220   23.6290   38.1020 C   0  0  0  0  0  0  0  0  0  0  0  0
   39.2350   22.7370   37.8340 N   0  0  0  0  0  0  0  0  0  0  0  0
   40.0520   22.8700   36.7580 C   0  0  0  0  0  0  0  0  0  0  0  0
   39.8960   23.8970   35.8990 N   0  0  0  0  0  0  0  0  0  0  0  0
   37.2630   25.3610   37.4510 H   0  0  0  0  0  0  0  0  0  0  0  0
   37.5920   23.4840   38.9740 H   0  0  0  0  0  0  0  0  0  0  0  0
   40.8300   22.1520   36.5880 H   0  0  0  0  0  0  0  0  0  0  0  0
   36.5760   26.7270   32.6220 C   0  0  0  0  0  3  0  0  0  0  0  0
   36.4700   25.3780   32.0250 C   0  0  0  0  0  2  0  0  0  0  0  0
   36.6820   26.6210   31.1640 C   0  0  0  0  0  2  0  0  0  0  0  0
  1  5  1  0  0  0  0
  1 13  1  0  0  0  0
  2  1  1  0  0  0  0
  3  8  1  6  0  0  0
  3  2  1  0  0  0  0
  3  4  1  0  0  0  0
  4  9  1  0  0  0  0
  4  5  1  0  0  0  0
  5 11  1  0  0  0  0
  6  2  1  0  0  0  0
  7  2  1  0  0  0  0
 10  4  1  0  0  0  0
 12  5  1  0  0  0  0
 13 14  1  0  0  0  0
 14 19  1  0  0  0  0
 14 15  2  0  0  0  0
 15 20  1  0  0  0  0
 16 15  1  0  0  0  0
 17 16  2  0  0  0  0
 18 13  2  0  0  0  0
 18 17  1  0  0  0  0
 21 17  1  0  0  0  0
 22  3  1  0  0  0  0
 23 22  1  0  0  0  0
 24 23  1  0  0  0  0
 24 22  1  0  0  0  0
M  END
>  <minimizedAffinity>
-3.95004559

$$$$

 OpenBabel03272503273D

 24 26  0  0  1  0  0  0  0  0999 V2000
   36.8670   27.8370   32.4260 N   0  0  0  0  0  0  0  0  0  0  0  0
   37.1810   26.7830   33.3520 C   0  0  0  0  0  0  0  0  0  0  0  0
   36.8220   27.4040   34.6950 C   0  0  2  0  0  0  0  0  0  0  0  0
   36.4050   28.8260   34.4110 C   0  0  0  0  0  0  0  0  0  0  0  0
   35.7850   28.6170   33.0260 C   0  0  0  0  0  0  0  0  0  0  0  0
   36.6260   25.8450   33.1500 H   0  0  0  0  0  0  0  0  0  0  0  0
   38.2820   26.6570   33.3680 H   0  0  0  0  0  0  0  0  0  0  0  0
   35.9130   26.8750   35.0420 H   0  0  0  0  0  0  0  0  0  0  0  0
   37.2590   29.5130   34.2200 H   0  0  0  0  0  0  0  0  0  0  0  0
   35.6680   29.2150   35.1330 H   0  0  0  0  0  0  0  0  0  0  0  0
   35.6990   29.5890   32.4870 H   0  0  0  0  0  0  0  0  0  0  0  0
   34.8480   28.0530   33.0700 H   0  0  0  0  0  0  0  0  0  0  0  0
   37.4690   28.1020   31.1670 C   0  0  0  0  0  0  0  0  0  0  0  0
   38.7950   27.7060   31.0110 C   0  0  0  0  0  0  0  0  0  0  0  0
   39.4380   27.9420   29.7890 C   0  0  0  0  0  0  0  0  0  0  0  0
   38.6970   28.5620   28.8090 N   0  0  0  0  0  0  0  0  0  0  0  0
   37.4060   28.9330   29.0040 C   0  0  0  0  0  0  0  0  0  0  0  0
   36.7940   28.7020   30.1820 N   0  0  0  0  0  0  0  0  0  0  0  0
   39.4100   27.2200   31.7440 H   0  0  0  0  0  0  0  0  0  0  0  0
   40.4680   27.6630   29.5910 H   0  0  0  0  0  0  0  0  0  0  0  0
   36.8650   29.4140   28.2120 H   0  0  0  0  0  0  0  0  0  0  0  0
   37.9060   27.2710   35.7020 C   0  0  0  0  0  3  0  0  0  0  0  0
   39.2980   27.0210   35.2700 C   0  0  0  0  0  2  0  0  0  0  0  0
   38.5180   25.9960   36.0890 C   0  0  0  0  0  2  0  0  0  0  0  0
  1  5  1  0  0  0  0
  1  2  1  0  0  0  0
  2  7  1  0  0  0  0
  2  3  1  0  0  0  0
  3  8  1  1  0  0  0
  3 22  1  0  0  0  0
  4  3  1  0  0  0  0
  4 10  1  0  0  0  0
  5 12  1  0  0  0  0
  5  4  1  0  0  0  0
  6  2  1  0  0  0  0
  9  4  1  0  0  0  0
 11  5  1  0  0  0  0
 13  1  1  0  0  0  0
 14 13  1  0  0  0  0
 14 19  1  0  0  0  0
 15 14  2  0  0  0  0
 16 17  2  0  0  0  0
 16 15  1  0  0  0  0
 17 18  1  0  0  0  0
 18 13  2  0  0  0  0
 20 15  1  0  0  0  0
 21 17  1  0  0  0  0
 22 24  1  0  0  0  0
 23 22  1  0  0  0  0
 23 24  1  0  0  0  0
M  END
>  <minimizedAffinity>
-3.92814732

$$$$
