
 OpenBabel03272509473D

 19 20  0  0  0  0  0  0  0  0999 V2000
   34.8520   28.2960   49.6670 O   0  0  0  0  0  0  0  0  0  0  0  0
   37.3510   30.2460   51.4150 C   0  0  0  0  0  0  0  0  0  0  0  0
   38.0820   30.7200   50.3300 C   0  0  0  0  0  0  0  0  0  0  0  0
   37.6880   30.3530   49.0460 C   0  0  0  0  0  0  0  0  0  0  0  0
   36.5880   29.5350   48.9580 N   0  0  0  0  0  0  0  0  0  0  0  0
   35.9060   29.0960   50.0160 C   0  0  0  0  0  0  0  0  0  0  0  0
   36.2910   29.4540   51.2610 N   0  0  0  0  0  0  0  0  0  0  0  0
   37.6030   30.4940   52.4480 H   0  0  0  0  0  0  0  0  0  0  0  0
   38.9380   31.3640   50.5110 H   0  0  0  0  0  0  0  0  0  0  0  0
   38.2320   30.7030   48.1850 H   0  0  0  0  0  0  0  0  0  0  0  0
   34.3940   28.3410   48.3200 C   0  0  0  0  0  0  0  0  0  0  0  0
   33.8870   29.2980   48.1070 H   0  0  0  0  0  0  0  0  0  0  0  0
   35.2480   28.2820   47.6140 H   0  0  0  0  0  0  0  0  0  0  0  0
   33.4770   27.1750   48.0600 C   0  0  0  0  0  0  0  0  0  0  0  0
   33.6580   26.3730   48.7750 H   0  0  0  0  0  0  0  0  0  0  0  0
   32.4330   27.5230   48.0250 H   0  0  0  0  0  0  0  0  0  0  0  0
   33.8490   26.6420   46.6750 C   0  0  0  0  0  3  0  0  0  0  0  0
   34.1150   25.1950   46.5130 C   0  0  0  0  0  2  0  0  0  0  0  0
   32.8250   25.7460   45.9940 C   0  0  0  0  0  2  0  0  0  0  0  0
  1  6  1  0  0  0  0
  2  8  1  0  0  0  0
  3  9  1  0  0  0  0
  3  2  2  0  0  0  0
  4  3  1  0  0  0  0
  5  4  2  0  0  0  0
  5  6  1  0  0  0  0
  6  7  2  0  0  0  0
  7  2  1  0  0  0  0
 10  4  1  0  0  0  0
 11  1  1  0  0  0  0
 12 11  1  0  0  0  0
 13 11  1  0  0  0  0
 14 11  1  0  0  0  0
 14 15  1  0  0  0  0
 16 14  1  0  0  0  0
 17 14  1  0  0  0  0
 18 17  1  0  0  0  0
 19 18  1  0  0  0  0
 19 17  1  0  0  0  0
M  END
>  <minimizedAffinity>
-3.6245544

>  <minimizedRMSD>
0.680139124

$$$$
