
 OpenBabel03272507393D

 28 30  0  0  0  0  0  0  0  0999 V2000
   36.7130   32.2580   49.3790 O   0  0  0  0  0  0  0  0  0  0  0  0
   38.2220   32.2610   47.4450 C   0  0  0  0  0  0  0  0  0  0  0  0
   37.8230   32.6880   48.6840 C   0  0  0  0  0  0  0  0  0  0  0  0
   38.5610   33.6430   49.3600 C   0  0  0  0  0  0  0  0  0  0  0  0
   39.7080   34.1680   48.7780 C   0  0  0  0  0  0  0  0  0  0  0  0
   40.1030   33.7270   47.5200 C   0  0  0  0  0  0  0  0  0  0  0  0
   39.3510   32.7660   46.8550 C   0  0  0  0  0  0  0  0  0  0  0  0
   38.3070   34.0270   50.3380 H   0  0  0  0  0  0  0  0  0  0  0  0
   40.3170   34.9160   49.2680 H   0  0  0  0  0  0  0  0  0  0  0  0
   40.9830   34.1010   47.0260 H   0  0  0  0  0  0  0  0  0  0  0  0
   39.6820   32.2220   45.5030 C   0  0  0  0  0  0  0  0  0  0  0  0
   40.8600   32.7190   44.7450 C   0  0  0  0  0  0  0  0  0  0  0  0
   40.9510   31.3760   45.3570 C   0  0  0  0  0  0  0  0  0  0  0  0
   36.7550   30.4810   46.2840 N   0  0  0  0  0  0  0  0  0  0  0  0
   37.4030   31.2670   46.8090 C   0  0  0  0  0  0  0  0  0  0  0  0
   36.6740   31.1530   50.1760 C   0  0  0  0  0  0  0  0  0  0  0  0
   35.5370   30.3780   49.9380 C   0  0  0  0  0  0  0  0  0  0  0  0
   35.3190   29.2220   50.6460 C   0  0  0  0  0  0  0  0  0  0  0  0
   36.2600   28.8740   51.5810 N   0  0  0  0  0  0  0  0  0  0  0  0
   37.3520   29.6310   51.8010 C   0  0  0  0  0  0  0  0  0  0  0  0
   37.5480   30.7460   51.1090 N   0  0  0  0  0  0  0  0  0  0  0  0
   34.4700   28.5620   50.5290 H   0  0  0  0  0  0  0  0  0  0  0  0
   38.1360   29.4360   52.5080 H   0  0  0  0  0  0  0  0  0  0  0  0
   34.1010   29.6050   48.1100 C   0  0  0  0  0  0  0  0  0  0  0  0
   34.5180   28.4060   47.8500 O   0  0  0  0  0  0  0  0  0  0  0  0
   34.5430   30.6380   48.9910 N   0  0  0  0  0  0  0  0  0  0  0  0
   33.4870   29.1190   47.3640 H   0  0  0  0  0  0  0  0  0  0  0  0
   33.9040   31.3220   48.5740 H   0  0  0  0  0  0  0  0  0  0  0  0
  1 16  1  0  0  0  0
  2  3  1  0  0  0  0
  3  4  2  0  0  0  0
  3  1  1  0  0  0  0
  4  8  1  0  0  0  0
  5  9  1  0  0  0  0
  5  4  1  0  0  0  0
  6  5  2  0  0  0  0
  7  2  2  0  0  0  0
  7  6  1  0  0  0  0
 10  6  1  0  0  0  0
 11  7  1  0  0  0  0
 12 13  1  0  0  0  0
 12 11  1  0  0  0  0
 13 11  1  0  0  0  0
 14 15  3  0  0  0  0
 15  2  1  0  0  0  0
 16 21  1  0  0  0  0
 17 16  2  0  0  0  0
 17 18  1  0  0  0  0
 18 19  2  0  0  0  0
 19 20  1  0  0  0  0
 20 23  1  0  0  0  0
 21 20  2  0  0  0  0
 22 18  1  0  0  0  0
 24 26  1  0  0  0  0
 25 24  2  0  0  0  0
 26 17  1  0  0  0  0
 27 24  1  0  0  0  0
 28 26  1  0  0  0  0
M  END
>  <minimizedAffinity>
-5.35659218

>  <minimizedRMSD>
1.04698503

$$$$
