
 OpenBabel03272510213D

 30 33  0  0  0  0  0  0  0  0999 V2000
   37.3170   29.2970   50.9760 Br  0  0  0  0  0  0  0  0  0  0  0  0
   35.9440   29.3020   49.6560 C   0  0  0  0  0  0  0  0  0  0  0  0
   35.9560   30.2280   48.6160 C   0  0  0  0  0  0  0  0  0  0  0  0
   34.9320   30.1690   47.7030 C   0  0  0  0  0  0  0  0  0  0  0  0
   33.9070   29.2540   47.7630 C   0  0  0  0  0  0  0  0  0  0  0  0
   33.9210   28.3540   48.8000 C   0  0  0  0  0  0  0  0  0  0  0  0
   34.9290   28.3890   49.7250 C   0  0  0  0  0  0  0  0  0  0  0  0
   34.9500   30.8920   46.8980 H   0  0  0  0  0  0  0  0  0  0  0  0
   33.1320   27.6160   48.8850 H   0  0  0  0  0  0  0  0  0  0  0  0
   34.9130   27.6670   50.5300 H   0  0  0  0  0  0  0  0  0  0  0  0
   37.9900   33.1590   49.3980 C   0  0  0  0  0  0  0  0  0  0  0  0
   39.0080   33.1280   48.3990 C   0  0  0  0  0  0  0  0  0  0  0  0
   38.9690   32.0970   47.4780 C   0  0  0  0  0  0  0  0  0  0  0  0
   37.9750   31.1510   47.5480 N   0  0  0  0  0  0  0  0  0  0  0  0
   37.0260   31.2170   48.5130 C   0  0  0  0  0  0  0  0  0  0  0  0
   37.0390   32.2190   49.4320 N   0  0  0  0  0  0  0  0  0  0  0  0
   37.9520   33.9290   50.1480 H   0  0  0  0  0  0  0  0  0  0  0  0
   39.7490   33.8920   48.4020 H   0  0  0  0  0  0  0  0  0  0  0  0
   39.7050   32.0290   46.7150 H   0  0  0  0  0  0  0  0  0  0  0  0
   32.8210   29.1940   46.7930 C   0  0  0  0  0  0  0  0  0  0  0  0
   31.9680   28.1290   46.6320 C   0  0  0  0  0  0  0  0  0  0  0  0
   30.9460   28.1170   45.6940 C   0  0  0  0  0  0  0  0  0  0  0  0
   30.7760   29.1800   44.9070 N   0  0  0  0  0  0  0  0  0  0  0  0
   31.6090   30.2420   45.0510 C   0  0  0  0  0  0  0  0  0  0  0  0
   32.5790   30.2250   45.9600 N   0  0  0  0  0  0  0  0  0  0  0  0
   32.1080   27.2610   47.2750 H   0  0  0  0  0  0  0  0  0  0  0  0
   30.3320   27.2180   45.6550 H   0  0  0  0  0  0  0  0  0  0  0  0
   31.4470   31.4510   44.1860 C   0  0  0  0  0  3  0  0  0  0  0  0
   32.6310   32.2800   43.8530 C   0  0  0  0  0  2  0  0  0  0  0  0
   31.5940   32.8230   44.7670 C   0  0  0  0  0  2  0  0  0  0  0  0
  2  7  1  0  0  0  0
  2  1  1  0  0  0  0
  3  2  2  0  0  0  0
  4  5  2  0  0  0  0
  4  3  1  0  0  0  0
  5  6  1  0  0  0  0
  6  9  1  0  0  0  0
  6  7  2  0  0  0  0
  7 10  1  0  0  0  0
  8  4  1  0  0  0  0
 11 16  1  0  0  0  0
 11 17  1  0  0  0  0
 12 18  1  0  0  0  0
 12 11  2  0  0  0  0
 13 14  2  0  0  0  0
 13 12  1  0  0  0  0
 14 15  1  0  0  0  0
 15  3  1  0  0  0  0
 15 16  2  0  0  0  0
 19 13  1  0  0  0  0
 20  5  1  0  0  0  0
 21 20  1  0  0  0  0
 21 26  1  0  0  0  0
 22 21  2  0  0  0  0
 23 24  2  0  0  0  0
 23 22  1  0  0  0  0
 24 25  1  0  0  0  0
 25 20  2  0  0  0  0
 27 22  1  0  0  0  0
 28 30  1  0  0  0  0
 28 24  1  0  0  0  0
 29 28  1  0  0  0  0
 29 30  1  0  0  0  0
M  END
>  <minimizedAffinity>
-5.97364187

>  <minimizedRMSD>
0.240657061

$$$$
