
 OpenBabel03272506243D

 25 27  0  0  0  0  0  0  0  0999 V2000
   38.1010   30.8150   47.8070 C   0  0  0  0  0  0  0  0  0  0  0  0
   38.1720   30.1370   46.6080 C   0  0  0  0  0  0  0  0  0  0  0  0
   38.9250   30.5490   45.5210 C   0  0  0  0  0  0  0  0  0  0  0  0
   39.6770   31.7520   45.6470 C   0  0  0  0  0  0  0  0  0  0  0  0
   39.5960   32.4220   46.8580 C   0  0  0  0  0  0  0  0  0  0  0  0
   38.8400   31.9930   47.9240 C   0  0  0  0  0  0  0  0  0  0  0  0
   37.6330   29.2160   46.4290 H   0  0  0  0  0  0  0  0  0  0  0  0
   38.9670   30.0030   44.5910 H   0  0  0  0  0  0  0  0  0  0  0  0
   40.2720   32.1040   44.8280 H   0  0  0  0  0  0  0  0  0  0  0  0
   40.1680   33.3290   46.9440 H   0  0  0  0  0  0  0  0  0  0  0  0
   37.8860   29.9400   50.0780 C   0  0  0  0  0  0  0  0  0  0  0  0
   37.2660   30.2360   48.8250 C   0  0  0  0  0  0  0  0  0  0  0  0
   35.9110   29.9370   48.7040 C   0  0  0  0  0  0  0  0  0  0  0  0
   35.2560   29.3890   49.7630 N   0  0  0  0  0  0  0  0  0  0  0  0
   35.8800   29.1190   50.9460 C   0  0  0  0  0  0  0  0  0  0  0  0
   37.2090   29.4010   51.0940 N   0  0  0  0  0  0  0  0  0  0  0  0
   38.9120   30.1220   50.2890 H   0  0  0  0  0  0  0  0  0  0  0  0
   35.2260   28.6830   51.6980 H   0  0  0  0  0  0  0  0  0  0  0  0
   35.1470   30.1880   47.4750 C   0  0  0  0  0  0  0  0  0  0  0  0
   33.8690   30.7010   47.8020 F   0  0  0  0  0  0  0  0  0  0  0  0
   35.7080   30.9950   46.5550 F   0  0  0  0  0  0  0  0  0  0  0  0
   34.8260   28.9730   46.8480 F   0  0  0  0  0  0  0  0  0  0  0  0
   38.7550   32.7140   49.2210 C   0  0  0  0  0  0  0  0  0  0  0  0
   37.8620   33.8820   49.4150 C   0  0  0  0  0  0  0  0  0  0  0  0
   39.3140   34.1200   49.1930 C   0  0  0  0  0  0  0  0  0  0  0  0
  1  6  1  0  0  0  0
  1 12  1  0  0  0  0
  2  1  2  0  0  0  0
  3  4  2  0  0  0  0
  3  2  1  0  0  0  0
  4  5  1  0  0  0  0
  5 10  1  0  0  0  0
  5  6  2  0  0  0  0
  6 23  1  0  0  0  0
  7  2  1  0  0  0  0
  8  3  1  0  0  0  0
  9  4  1  0  0  0  0
 11 17  1  0  0  0  0
 11 16  1  0  0  0  0
 12 11  2  0  0  0  0
 13 12  1  0  0  0  0
 13 14  2  0  0  0  0
 14 15  1  0  0  0  0
 15 16  2  0  0  0  0
 15 18  1  0  0  0  0
 19 20  1  0  0  0  0
 19 13  1  0  0  0  0
 21 19  1  0  0  0  0
 22 19  1  0  0  0  0
 23 24  1  0  0  0  0
 25 23  1  0  0  0  0
 25 24  1  0  0  0  0
M  END
>  <minimizedAffinity>
-5.69191074

>  <minimizedRMSD>
1.01646161

$$$$
