
 OpenBabel03272507063D

 25 28  0  0  0  0  0  0  0  0999 V2000
   37.5110   26.9320   35.3570 C   0  0  0  0  0  0  0  0  0  0  0  0
   37.8190   25.6190   35.0440 C   0  0  0  0  0  0  0  0  0  0  0  0
   37.6500   25.1570   33.7660 C   0  0  0  0  0  0  0  0  0  0  0  0
   37.1700   25.9840   32.7660 C   0  0  0  0  0  0  0  0  0  0  0  0
   36.9150   25.7690   31.4460 N   0  0  0  0  0  0  0  0  0  0  0  0
   36.4610   26.9650   31.0130 C   0  0  0  0  0  0  0  0  0  0  0  0
   36.4350   27.8760   32.0120 N   0  0  0  0  0  0  0  0  0  0  0  0
   36.8780   27.2780   33.1240 C   0  0  0  0  0  0  0  0  0  0  0  0
   37.0280   27.7920   34.3840 C   0  0  0  0  0  0  0  0  0  0  0  0
   37.6460   27.2930   36.3660 H   0  0  0  0  0  0  0  0  0  0  0  0
   37.9110   24.1150   33.5820 H   0  0  0  0  0  0  0  0  0  0  0  0
   37.0570   24.8740   30.9470 H   0  0  0  0  0  0  0  0  0  0  0  0
   36.1810   27.0520   29.9560 H   0  0  0  0  0  0  0  0  0  0  0  0
   36.7730   28.8300   34.5880 H   0  0  0  0  0  0  0  0  0  0  0  0
   38.2680   23.9660   38.2960 C   0  0  0  0  0  0  0  0  0  0  0  0
   39.2990   23.0440   38.0280 C   0  0  0  0  0  0  0  0  0  0  0  0
   39.8240   23.0170   36.7040 C   0  0  0  0  0  0  0  0  0  0  0  0
   39.3140   23.8710   35.7710 N   0  0  0  0  0  0  0  0  0  0  0  0
   38.3220   24.7360   36.0920 C   0  0  0  0  0  0  0  0  0  0  0  0
   37.8160   24.7760   37.3290 N   0  0  0  0  0  0  0  0  0  0  0  0
   37.8820   23.9770   39.2880 H   0  0  0  0  0  0  0  0  0  0  0  0
   39.7070   22.3670   38.7500 H   0  0  0  0  0  0  0  0  0  0  0  0
   40.9010   22.0900   36.3250 C   0  0  0  0  0  3  0  0  0  0  0  0
   41.7760   21.4130   37.2920 C   0  0  0  0  0  2  0  0  0  0  0  0
   42.3030   22.6090   36.5380 C   0  0  0  0  0  2  0  0  0  0  0  0
  1 10  1  0  0  0  0
  2  1  1  0  0  0  0
  2 19  1  0  0  0  0
  3  2  2  0  0  0  0
  4  8  2  0  0  0  0
  4  3  1  0  0  0  0
  5  4  1  0  0  0  0
  6  5  1  0  0  0  0
  6  7  2  0  0  0  0
  7  8  1  0  0  0  0
  8  9  1  0  0  0  0
  9 14  1  0  0  0  0
  9  1  2  0  0  0  0
 11  3  1  0  0  0  0
 12  5  1  0  0  0  0
 13  6  1  0  0  0  0
 15 21  1  0  0  0  0
 16 15  1  0  0  0  0
 16 22  1  0  0  0  0
 17 16  2  0  0  0  0
 18 19  2  0  0  0  0
 18 17  1  0  0  0  0
 19 20  1  0  0  0  0
 20 15  2  0  0  0  0
 23 25  1  0  0  0  0
 23 17  1  0  0  0  0
 23 24  1  0  0  0  0
 25 24  1  0  0  0  0
M  END
>  <minimizedAffinity>
-5.25236034

$$$$

 OpenBabel03272507063D

 25 28  0  0  0  0  0  0  0  0999 V2000
   36.0510   20.9400   34.8780 C   0  0  0  0  0  0  0  0  0  0  0  0
   37.2660   21.5870   34.7310 C   0  0  0  0  0  0  0  0  0  0  0  0
   37.8680   21.6540   33.5030 C   0  0  0  0  0  0  0  0  0  0  0  0
   37.2800   21.0800   32.3890 C   0  0  0  0  0  0  0  0  0  0  0  0
   37.6700   21.0080   31.0870 N   0  0  0  0  0  0  0  0  0  0  0  0
   36.6700   20.3180   30.4960 C   0  0  0  0  0  0  0  0  0  0  0  0
   35.7110   19.9780   31.3850 N   0  0  0  0  0  0  0  0  0  0  0  0
   36.0760   20.4490   32.5840 C   0  0  0  0  0  0  0  0  0  0  0  0
   35.4310   20.3530   33.7860 C   0  0  0  0  0  0  0  0  0  0  0  0
   35.5790   20.8890   35.8480 H   0  0  0  0  0  0  0  0  0  0  0  0
   38.8220   22.1770   33.4520 H   0  0  0  0  0  0  0  0  0  0  0  0
   38.5410   21.4100   30.6990 H   0  0  0  0  0  0  0  0  0  0  0  0
   36.7520   20.1230   29.4190 H   0  0  0  0  0  0  0  0  0  0  0  0
   34.4760   19.8350   33.8590 H   0  0  0  0  0  0  0  0  0  0  0  0
   37.7350   23.3390   37.9280 C   0  0  0  0  0  0  0  0  0  0  0  0
   39.1350   23.3080   38.0890 C   0  0  0  0  0  0  0  0  0  0  0  0
   39.8960   22.6710   37.0660 C   0  0  0  0  0  0  0  0  0  0  0  0
   39.2470   22.1280   35.9960 N   0  0  0  0  0  0  0  0  0  0  0  0
   37.8970   22.1910   35.9010 C   0  0  0  0  0  0  0  0  0  0  0  0
   37.1660   22.7850   36.8490 N   0  0  0  0  0  0  0  0  0  0  0  0
   37.1760   23.8160   38.6980 H   0  0  0  0  0  0  0  0  0  0  0  0
   39.6570   23.7280   38.9230 H   0  0  0  0  0  0  0  0  0  0  0  0
   41.3620   22.5860   37.1420 C   0  0  0  0  0  3  0  0  0  0  0  0
   42.1960   21.9190   36.1320 C   0  0  0  0  0  2  0  0  0  0  0  0
   41.9130   21.2100   37.4340 C   0  0  0  0  0  2  0  0  0  0  0  0
  1 10  1  0  0  0  0
  2  1  1  0  0  0  0
  2 19  1  0  0  0  0
  3  2  2  0  0  0  0
  4  8  2  0  0  0  0
  4  3  1  0  0  0  0
  5  4  1  0  0  0  0
  6  5  1  0  0  0  0
  6  7  2  0  0  0  0
  7  8  1  0  0  0  0
  8  9  1  0  0  0  0
  9 14  1  0  0  0  0
  9  1  2  0  0  0  0
 11  3  1  0  0  0  0
 12  5  1  0  0  0  0
 13  6  1  0  0  0  0
 15 16  1  0  0  0  0
 15 21  1  0  0  0  0
 16 22  1  0  0  0  0
 17 23  1  0  0  0  0
 17 16  2  0  0  0  0
 18 17  1  0  0  0  0
 19 18  2  0  0  0  0
 19 20  1  0  0  0  0
 20 15  2  0  0  0  0
 23 25  1  0  0  0  0
 24 23  1  0  0  0  0
 24 25  1  0  0  0  0
M  END
>  <minimizedAffinity>
-5.21431208

$$$$

 OpenBabel03272507063D

 25 28  0  0  0  0  0  0  0  0999 V2000
   34.5250   31.5510   33.5600 C   0  0  0  0  0  0  0  0  0  0  0  0
   35.1650   30.6230   34.3630 C   0  0  0  0  0  0  0  0  0  0  0  0
   35.3060   30.8530   35.7050 C   0  0  0  0  0  0  0  0  0  0  0  0
   34.8180   32.0100   36.2860 C   0  0  0  0  0  0  0  0  0  0  0  0
   34.8340   32.4650   37.5680 N   0  0  0  0  0  0  0  0  0  0  0  0
   34.2000   33.6560   37.4890 C   0  0  0  0  0  0  0  0  0  0  0  0
   33.8120   33.9260   36.2230 N   0  0  0  0  0  0  0  0  0  0  0  0
   34.1910   32.9010   35.4490 C   0  0  0  0  0  0  0  0  0  0  0  0
   34.0220   32.7220   34.1040 C   0  0  0  0  0  0  0  0  0  0  0  0
   34.4160   31.3670   32.5010 H   0  0  0  0  0  0  0  0  0  0  0  0
   35.8180   30.0850   36.2840 H   0  0  0  0  0  0  0  0  0  0  0  0
   35.2490   31.9680   38.3750 H   0  0  0  0  0  0  0  0  0  0  0  0
   34.0830   34.2340   38.4140 H   0  0  0  0  0  0  0  0  0  0  0  0
   33.5130   33.4780   33.5070 H   0  0  0  0  0  0  0  0  0  0  0  0
   35.8900   27.9660   31.9290 C   0  0  0  0  0  0  0  0  0  0  0  0
   36.7100   27.0910   32.6700 C   0  0  0  0  0  0  0  0  0  0  0  0
   36.9960   27.4480   34.0190 C   0  0  0  0  0  0  0  0  0  0  0  0
   36.4720   28.6020   34.5250 N   0  0  0  0  0  0  0  0  0  0  0  0
   35.6900   29.4010   33.7600 C   0  0  0  0  0  0  0  0  0  0  0  0
   35.4100   29.0820   32.4920 N   0  0  0  0  0  0  0  0  0  0  0  0
   35.6830   27.6890   30.9220 H   0  0  0  0  0  0  0  0  0  0  0  0
   37.1280   26.1840   32.2850 H   0  0  0  0  0  0  0  0  0  0  0  0
   37.8420   26.6020   34.8740 C   0  0  0  0  0  3  0  0  0  0  0  0
   38.4170   27.0470   36.1520 C   0  0  0  0  0  2  0  0  0  0  0  0
   39.2990   26.9960   34.9290 C   0  0  0  0  0  2  0  0  0  0  0  0
  1  9  2  0  0  0  0
  1  2  1  0  0  0  0
  2  3  2  0  0  0  0
  3 11  1  0  0  0  0
  3  4  1  0  0  0  0
  4  5  1  0  0  0  0
  5 12  1  0  0  0  0
  6  5  1  0  0  0  0
  6 13  1  0  0  0  0
  7  6  2  0  0  0  0
  8  7  1  0  0  0  0
  8  4  2  0  0  0  0
  9  8  1  0  0  0  0
 10  1  1  0  0  0  0
 14  9  1  0  0  0  0
 15 20  2  0  0  0  0
 15 16  1  0  0  0  0
 16 17  2  0  0  0  0
 17 18  1  0  0  0  0
 17 23  1  0  0  0  0
 19  2  1  0  0  0  0
 19 18  2  0  0  0  0
 20 19  1  0  0  0  0
 21 15  1  0  0  0  0
 22 16  1  0  0  0  0
 23 25  1  0  0  0  0
 23 24  1  0  0  0  0
 25 24  1  0  0  0  0
M  END
>  <minimizedAffinity>
-5.07294989

$$$$

 OpenBabel03272507063D

 25 28  0  0  0  0  0  0  0  0999 V2000
   36.7450   27.5740   34.6070 C   0  0  0  0  0  0  0  0  0  0  0  0
   37.5490   26.8310   33.7600 C   0  0  0  0  0  0  0  0  0  0  0  0
   37.6690   27.1790   32.4410 C   0  0  0  0  0  0  0  0  0  0  0  0
   36.9930   28.2730   31.9280 C   0  0  0  0  0  0  0  0  0  0  0  0
   36.9450   28.8130   30.6800 N   0  0  0  0  0  0  0  0  0  0  0  0
   36.1100   29.8650   30.8220 C   0  0  0  0  0  0  0  0  0  0  0  0
   35.6630   29.9720   32.0940 N   0  0  0  0  0  0  0  0  0  0  0  0
   36.2080   28.9790   32.8060 C   0  0  0  0  0  0  0  0  0  0  0  0
   36.0520   28.6760   34.1310 C   0  0  0  0  0  0  0  0  0  0  0  0
   36.6520   27.2960   35.6470 H   0  0  0  0  0  0  0  0  0  0  0  0
   38.3160   26.5560   31.8250 H   0  0  0  0  0  0  0  0  0  0  0  0
   37.4530   28.4560   29.8520 H   0  0  0  0  0  0  0  0  0  0  0  0
   35.9030   30.4770   29.9350 H   0  0  0  0  0  0  0  0  0  0  0  0
   35.4100   29.2860   34.7640 H   0  0  0  0  0  0  0  0  0  0  0  0
   39.9620   24.0810   34.1140 C   0  0  0  0  0  0  0  0  0  0  0  0
   39.5750   23.4930   35.3340 C   0  0  0  0  0  0  0  0  0  0  0  0
   38.4660   24.0710   36.0160 C   0  0  0  0  0  0  0  0  0  0  0  0
   37.8390   25.1520   35.4670 N   0  0  0  0  0  0  0  0  0  0  0  0
   38.2610   25.6720   34.2890 C   0  0  0  0  0  0  0  0  0  0  0  0
   39.2990   25.1420   33.6340 N   0  0  0  0  0  0  0  0  0  0  0  0
   40.7920   23.6410   33.6130 H   0  0  0  0  0  0  0  0  0  0  0  0
   40.0580   22.6460   35.7770 H   0  0  0  0  0  0  0  0  0  0  0  0
   37.9850   23.5310   37.2970 C   0  0  0  0  0  3  0  0  0  0  0  0
   37.9210   24.3090   38.5410 C   0  0  0  0  0  2  0  0  0  0  0  0
   39.0490   23.3250   38.3490 C   0  0  0  0  0  2  0  0  0  0  0  0
  1 10  1  0  0  0  0
  2 19  1  0  0  0  0
  2  1  2  0  0  0  0
  3  2  1  0  0  0  0
  4  3  2  0  0  0  0
  4  8  1  0  0  0  0
  5  6  1  0  0  0  0
  5  4  1  0  0  0  0
  6  7  2  0  0  0  0
  7  8  1  0  0  0  0
  8  9  2  0  0  0  0
  9  1  1  0  0  0  0
  9 14  1  0  0  0  0
 11  3  1  0  0  0  0
 12  5  1  0  0  0  0
 13  6  1  0  0  0  0
 15 16  1  0  0  0  0
 16 22  1  0  0  0  0
 16 17  2  0  0  0  0
 17 23  1  0  0  0  0
 18 17  1  0  0  0  0
 19 18  2  0  0  0  0
 20 15  2  0  0  0  0
 20 19  1  0  0  0  0
 21 15  1  0  0  0  0
 23 25  1  0  0  0  0
 23 24  1  0  0  0  0
 25 24  1  0  0  0  0
M  END
>  <minimizedAffinity>
-5.05600929

$$$$

 OpenBabel03272507063D

 25 28  0  0  0  0  0  0  0  0999 V2000
   39.2390   24.7600   34.2730 C   0  0  0  0  0  0  0  0  0  0  0  0
   38.2790   25.6610   34.7010 C   0  0  0  0  0  0  0  0  0  0  0  0
   37.7940   25.5960   35.9810 C   0  0  0  0  0  0  0  0  0  0  0  0
   38.2490   24.6360   36.8680 C   0  0  0  0  0  0  0  0  0  0  0  0
   37.9300   24.3660   38.1630 N   0  0  0  0  0  0  0  0  0  0  0  0
   38.7130   23.3090   38.4680 C   0  0  0  0  0  0  0  0  0  0  0  0
   39.4780   22.9400   37.4150 N   0  0  0  0  0  0  0  0  0  0  0  0
   39.2000   23.7650   36.3970 C   0  0  0  0  0  0  0  0  0  0  0  0
   39.7190   23.7840   35.1310 C   0  0  0  0  0  0  0  0  0  0  0  0
   39.6190   24.8140   33.2630 H   0  0  0  0  0  0  0  0  0  0  0  0
   37.0410   26.3330   36.2580 H   0  0  0  0  0  0  0  0  0  0  0  0
   37.2400   24.8880   38.7310 H   0  0  0  0  0  0  0  0  0  0  0  0
   38.6400   22.8940   39.4800 H   0  0  0  0  0  0  0  0  0  0  0  0
   40.4730   23.0560   34.8340 H   0  0  0  0  0  0  0  0  0  0  0  0
   37.8480   27.7070   31.6790 C   0  0  0  0  0  0  0  0  0  0  0  0
   36.8230   28.5980   32.0590 C   0  0  0  0  0  0  0  0  0  0  0  0
   36.2990   28.4660   33.3760 C   0  0  0  0  0  0  0  0  0  0  0  0
   36.8020   27.5010   34.1980 N   0  0  0  0  0  0  0  0  0  0  0  0
   37.7890   26.6750   33.7720 C   0  0  0  0  0  0  0  0  0  0  0  0
   38.2940   26.7830   32.5400 N   0  0  0  0  0  0  0  0  0  0  0  0
   38.2330   27.8140   30.6920 H   0  0  0  0  0  0  0  0  0  0  0  0
   36.4180   29.3590   31.4240 H   0  0  0  0  0  0  0  0  0  0  0  0
   35.2280   29.3470   33.8670 C   0  0  0  0  0  3  0  0  0  0  0  0
   35.1050   30.7660   33.5050 C   0  0  0  0  0  2  0  0  0  0  0  0
   35.6630   30.3990   34.8590 C   0  0  0  0  0  2  0  0  0  0  0  0
  1  2  2  0  0  0  0
  1  9  1  0  0  0  0
  2  3  1  0  0  0  0
  3 11  1  0  0  0  0
  3  4  2  0  0  0  0
  4  5  1  0  0  0  0
  5  6  1  0  0  0  0
  5 12  1  0  0  0  0
  6 13  1  0  0  0  0
  7  6  2  0  0  0  0
  8  4  1  0  0  0  0
  8  7  1  0  0  0  0
  9  8  2  0  0  0  0
 10  1  1  0  0  0  0
 14  9  1  0  0  0  0
 15 16  2  0  0  0  0
 15 20  1  0  0  0  0
 16 17  1  0  0  0  0
 17 23  1  0  0  0  0
 17 18  2  0  0  0  0
 19 18  1  0  0  0  0
 19  2  1  0  0  0  0
 20 19  2  0  0  0  0
 21 15  1  0  0  0  0
 22 16  1  0  0  0  0
 23 25  1  0  0  0  0
 24 23  1  0  0  0  0
 24 25  1  0  0  0  0
M  END
>  <minimizedAffinity>
-4.98182774

$$$$

 OpenBabel03272507063D

 25 28  0  0  0  0  0  0  0  0999 V2000
   40.9440   24.9520   34.7130 C   0  0  0  0  0  0  0  0  0  0  0  0
   39.6140   24.6360   34.9300 C   0  0  0  0  0  0  0  0  0  0  0  0
   39.2800   23.5790   35.7350 C   0  0  0  0  0  0  0  0  0  0  0  0
   40.2550   22.8090   36.3430 C   0  0  0  0  0  0  0  0  0  0  0  0
   40.1820   21.7280   37.1670 N   0  0  0  0  0  0  0  0  0  0  0  0
   41.4770   21.4330   37.4160 C   0  0  0  0  0  0  0  0  0  0  0  0
   42.3100   22.2870   36.7790 N   0  0  0  0  0  0  0  0  0  0  0  0
   41.5590   23.1610   36.0980 C   0  0  0  0  0  0  0  0  0  0  0  0
   41.9500   24.2050   35.3040 C   0  0  0  0  0  0  0  0  0  0  0  0
   41.2050   25.7860   34.0780 H   0  0  0  0  0  0  0  0  0  0  0  0
   38.2170   23.3810   35.8670 H   0  0  0  0  0  0  0  0  0  0  0  0
   39.3080   21.2810   37.4930 H   0  0  0  0  0  0  0  0  0  0  0  0
   41.6890   20.5790   38.0710 H   0  0  0  0  0  0  0  0  0  0  0  0
   43.0080   24.4200   35.1590 H   0  0  0  0  0  0  0  0  0  0  0  0
   37.2440   27.3540   34.2230 C   0  0  0  0  0  0  0  0  0  0  0  0
   36.6240   26.9160   33.0360 C   0  0  0  0  0  0  0  0  0  0  0  0
   37.0490   25.6660   32.5000 C   0  0  0  0  0  0  0  0  0  0  0  0
   38.0200   24.9610   33.1490 N   0  0  0  0  0  0  0  0  0  0  0  0
   38.5770   25.4380   34.2890 C   0  0  0  0  0  0  0  0  0  0  0  0
   38.1920   26.6090   34.8060 N   0  0  0  0  0  0  0  0  0  0  0  0
   36.9200   28.2890   34.6140 H   0  0  0  0  0  0  0  0  0  0  0  0
   35.8620   27.4580   32.5160 H   0  0  0  0  0  0  0  0  0  0  0  0
   36.4640   25.1220   31.2650 C   0  0  0  0  0  3  0  0  0  0  0  0
   35.0540   25.2880   30.8850 C   0  0  0  0  0  2  0  0  0  0  0  0
   35.5080   23.9690   31.4590 C   0  0  0  0  0  2  0  0  0  0  0  0
  1  2  2  0  0  0  0
  1  9  1  0  0  0  0
  2  3  1  0  0  0  0
  3 11  1  0  0  0  0
  3  4  2  0  0  0  0
  4  5  1  0  0  0  0
  5  6  1  0  0  0  0
  5 12  1  0  0  0  0
  6 13  1  0  0  0  0
  7  6  2  0  0  0  0
  8  4  1  0  0  0  0
  8  7  1  0  0  0  0
  9  8  2  0  0  0  0
 10  1  1  0  0  0  0
 14  9  1  0  0  0  0
 15 21  1  0  0  0  0
 15 20  1  0  0  0  0
 16 15  2  0  0  0  0
 17 16  1  0  0  0  0
 17 18  2  0  0  0  0
 18 19  1  0  0  0  0
 19 20  2  0  0  0  0
 19  2  1  0  0  0  0
 22 16  1  0  0  0  0
 23 25  1  0  0  0  0
 23 17  1  0  0  0  0
 24 23  1  0  0  0  0
 24 25  1  0  0  0  0
M  END
>  <minimizedAffinity>
-4.88761234

$$$$

 OpenBabel03272507063D

 25 28  0  0  0  0  0  0  0  0999 V2000
   38.6850   23.9530   37.2240 C   0  0  0  0  0  0  0  0  0  0  0  0
   39.1290   24.4130   35.9960 C   0  0  0  0  0  0  0  0  0  0  0  0
   40.2470   23.8700   35.4190 C   0  0  0  0  0  0  0  0  0  0  0  0
   40.9530   22.8590   36.0460 C   0  0  0  0  0  0  0  0  0  0  0  0
   42.0720   22.1710   35.6900 N   0  0  0  0  0  0  0  0  0  0  0  0
   42.2610   21.3190   36.7220 C   0  0  0  0  0  0  0  0  0  0  0  0
   41.3080   21.4710   37.6690 N   0  0  0  0  0  0  0  0  0  0  0  0
   40.4750   22.4360   37.2620 C   0  0  0  0  0  0  0  0  0  0  0  0
   39.3650   22.9410   37.8830 C   0  0  0  0  0  0  0  0  0  0  0  0
   37.8030   24.3830   37.6760 H   0  0  0  0  0  0  0  0  0  0  0  0
   40.5450   24.2740   34.4530 H   0  0  0  0  0  0  0  0  0  0  0  0
   42.6110   22.3130   34.8180 H   0  0  0  0  0  0  0  0  0  0  0  0
   43.1210   20.6400   36.6720 H   0  0  0  0  0  0  0  0  0  0  0  0
   39.0500   22.5510   38.8490 H   0  0  0  0  0  0  0  0  0  0  0  0
   37.6100   27.6820   35.2790 C   0  0  0  0  0  0  0  0  0  0  0  0
   37.0060   27.4670   34.0240 C   0  0  0  0  0  0  0  0  0  0  0  0
   37.1410   26.1720   33.4470 C   0  0  0  0  0  0  0  0  0  0  0  0
   37.8370   25.2130   34.1230 N   0  0  0  0  0  0  0  0  0  0  0  0
   38.3940   25.4830   35.3280 C   0  0  0  0  0  0  0  0  0  0  0  0
   38.2780   26.6920   35.8860 N   0  0  0  0  0  0  0  0  0  0  0  0
   37.5030   28.6530   35.7010 H   0  0  0  0  0  0  0  0  0  0  0  0
   36.4590   28.2100   33.4820 H   0  0  0  0  0  0  0  0  0  0  0  0
   36.5480   25.8480   32.1400 C   0  0  0  0  0  3  0  0  0  0  0  0
   36.8270   24.6100   31.3990 C   0  0  0  0  0  2  0  0  0  0  0  0
   37.5040   25.8890   30.9710 C   0  0  0  0  0  2  0  0  0  0  0  0
  1 10  1  0  0  0  0
  1  9  1  0  0  0  0
  2  1  2  0  0  0  0
  3  2  1  0  0  0  0
  3  4  2  0  0  0  0
  4  8  1  0  0  0  0
  5  4  1  0  0  0  0
  5  6  1  0  0  0  0
  6  7  2  0  0  0  0
  8  7  1  0  0  0  0
  8  9  2  0  0  0  0
  9 14  1  0  0  0  0
 11  3  1  0  0  0  0
 12  5  1  0  0  0  0
 13  6  1  0  0  0  0
 15 21  1  0  0  0  0
 15 20  1  0  0  0  0
 16 15  2  0  0  0  0
 17 16  1  0  0  0  0
 17 18  2  0  0  0  0
 18 19  1  0  0  0  0
 19 20  2  0  0  0  0
 19  2  1  0  0  0  0
 22 16  1  0  0  0  0
 23 17  1  0  0  0  0
 24 23  1  0  0  0  0
 25 24  1  0  0  0  0
 25 23  1  0  0  0  0
M  END
>  <minimizedAffinity>
-4.82978106

$$$$

 OpenBabel03272507063D

 25 28  0  0  0  0  0  0  0  0999 V2000
   37.6700   22.8470   31.0680 C   0  0  0  0  0  0  0  0  0  0  0  0
   36.5980   23.4390   31.7140 C   0  0  0  0  0  0  0  0  0  0  0  0
   35.5330   22.6790   32.1210 C   0  0  0  0  0  0  0  0  0  0  0  0
   35.5040   21.3140   31.8970 C   0  0  0  0  0  0  0  0  0  0  0  0
   34.5810   20.3600   32.1950 N   0  0  0  0  0  0  0  0  0  0  0  0
   35.1340   19.2240   31.7150 C   0  0  0  0  0  0  0  0  0  0  0  0
   36.3380   19.4620   31.1480 N   0  0  0  0  0  0  0  0  0  0  0  0
   36.5900   20.7720   31.2530 C   0  0  0  0  0  0  0  0  0  0  0  0
   37.6780   21.4830   30.8260 C   0  0  0  0  0  0  0  0  0  0  0  0
   38.5080   23.4490   30.7490 H   0  0  0  0  0  0  0  0  0  0  0  0
   34.7210   23.2020   32.6240 H   0  0  0  0  0  0  0  0  0  0  0  0
   33.6820   20.5260   32.6790 H   0  0  0  0  0  0  0  0  0  0  0  0
   34.5690   18.2910   31.8350 H   0  0  0  0  0  0  0  0  0  0  0  0
   38.5010   20.9790   30.3210 H   0  0  0  0  0  0  0  0  0  0  0  0
   35.7990   27.0200   31.5020 C   0  0  0  0  0  0  0  0  0  0  0  0
   36.6850   27.5850   32.4420 C   0  0  0  0  0  0  0  0  0  0  0  0
   37.5550   26.6960   33.1360 C   0  0  0  0  0  0  0  0  0  0  0  0
   37.4920   25.3600   32.8670 N   0  0  0  0  0  0  0  0  0  0  0  0
   36.6160   24.8790   31.9510 C   0  0  0  0  0  0  0  0  0  0  0  0
   35.7930   25.6970   31.2890 N   0  0  0  0  0  0  0  0  0  0  0  0
   35.1540   27.6930   30.9890 H   0  0  0  0  0  0  0  0  0  0  0  0
   36.7440   28.6300   32.6640 H   0  0  0  0  0  0  0  0  0  0  0  0
   38.5150   27.1870   34.1360 C   0  0  0  0  0  3  0  0  0  0  0  0
   39.0260   26.3740   35.2490 C   0  0  0  0  0  2  0  0  0  0  0  0
   37.9510   27.3980   35.5210 C   0  0  0  0  0  2  0  0  0  0  0  0
  1  2  1  0  0  0  0
  2 19  1  0  0  0  0
  2  3  2  0  0  0  0
  3 11  1  0  0  0  0
  4  3  1  0  0  0  0
  4  5  1  0  0  0  0
  5 12  1  0  0  0  0
  6 13  1  0  0  0  0
  6  5  1  0  0  0  0
  7  8  1  0  0  0  0
  7  6  2  0  0  0  0
  8  4  2  0  0  0  0
  9  1  2  0  0  0  0
  9  8  1  0  0  0  0
 10  1  1  0  0  0  0
 14  9  1  0  0  0  0
 15 16  1  0  0  0  0
 16 22  1  0  0  0  0
 16 17  2  0  0  0  0
 17 23  1  0  0  0  0
 18 17  1  0  0  0  0
 19 18  2  0  0  0  0
 20 15  2  0  0  0  0
 20 19  1  0  0  0  0
 21 15  1  0  0  0  0
 23 24  1  0  0  0  0
 23 25  1  0  0  0  0
 24 25  1  0  0  0  0
M  END
>  <minimizedAffinity>
-4.8207078

$$$$

 OpenBabel03272507063D

 25 28  0  0  0  0  0  0  0  0999 V2000
   36.9730   27.5790   32.2900 C   0  0  0  0  0  0  0  0  0  0  0  0
   37.0690   27.4910   33.6680 C   0  0  0  0  0  0  0  0  0  0  0  0
   36.3410   28.3340   34.4650 C   0  0  0  0  0  0  0  0  0  0  0  0
   35.5010   29.2870   33.9160 C   0  0  0  0  0  0  0  0  0  0  0  0
   34.6910   30.2240   34.4810 N   0  0  0  0  0  0  0  0  0  0  0  0
   34.1360   30.8440   33.4160 C   0  0  0  0  0  0  0  0  0  0  0  0
   34.5790   30.3190   32.2520 N   0  0  0  0  0  0  0  0  0  0  0  0
   35.4390   29.3360   32.5450 C   0  0  0  0  0  0  0  0  0  0  0  0
   36.1420   28.5200   31.7020 C   0  0  0  0  0  0  0  0  0  0  0  0
   37.5480   26.9130   31.6640 H   0  0  0  0  0  0  0  0  0  0  0  0
   36.4590   28.2160   35.5420 H   0  0  0  0  0  0  0  0  0  0  0  0
   34.5700   30.3780   35.4970 H   0  0  0  0  0  0  0  0  0  0  0  0
   33.4290   31.6590   33.6120 H   0  0  0  0  0  0  0  0  0  0  0  0
   36.0380   28.6220   30.6230 H   0  0  0  0  0  0  0  0  0  0  0  0
   39.8970   25.1970   34.1690 C   0  0  0  0  0  0  0  0  0  0  0  0
   39.5990   24.6160   35.4180 C   0  0  0  0  0  0  0  0  0  0  0  0
   38.4040   25.0400   36.0670 C   0  0  0  0  0  0  0  0  0  0  0  0
   37.6140   25.9730   35.4620 N   0  0  0  0  0  0  0  0  0  0  0  0
   37.9570   26.4940   34.2580 C   0  0  0  0  0  0  0  0  0  0  0  0
   39.0730   26.1080   33.6330 N   0  0  0  0  0  0  0  0  0  0  0  0
   40.7920   24.8740   33.6920 H   0  0  0  0  0  0  0  0  0  0  0  0
   40.2100   23.8850   35.9050 H   0  0  0  0  0  0  0  0  0  0  0  0
   38.0060   24.4940   37.3740 C   0  0  0  0  0  3  0  0  0  0  0  0
   38.7070   23.3930   38.0480 C   0  0  0  0  0  2  0  0  0  0  0  0
   37.4070   23.1080   37.3370 C   0  0  0  0  0  2  0  0  0  0  0  0
  1  2  1  0  0  0  0
  2 19  1  0  0  0  0
  2  3  2  0  0  0  0
  3 11  1  0  0  0  0
  4  3  1  0  0  0  0
  4  5  1  0  0  0  0
  5 12  1  0  0  0  0
  6 13  1  0  0  0  0
  6  5  1  0  0  0  0
  7  8  1  0  0  0  0
  7  6  2  0  0  0  0
  8  4  2  0  0  0  0
  9  1  2  0  0  0  0
  9  8  1  0  0  0  0
 10  1  1  0  0  0  0
 14  9  1  0  0  0  0
 15 16  1  0  0  0  0
 16 22  1  0  0  0  0
 16 17  2  0  0  0  0
 17 23  1  0  0  0  0
 18 17  1  0  0  0  0
 19 18  2  0  0  0  0
 20 15  2  0  0  0  0
 20 19  1  0  0  0  0
 21 15  1  0  0  0  0
 23 24  1  0  0  0  0
 25 23  1  0  0  0  0
 25 24  1  0  0  0  0
M  END
>  <minimizedAffinity>
-4.78350878

$$$$
