
 OpenBabel03272509053D

 27 29  0  0  0  0  0  0  0  0999 V2000
   33.1880   27.6010   48.0130 C   0  0  0  0  0  0  0  0  0  0  0  0
   32.5030   28.2920   47.4540 H   0  0  0  0  0  0  0  0  0  0  0  0
   32.6710   27.1900   48.8950 H   0  0  0  0  0  0  0  0  0  0  0  0
   33.6320   26.5370   47.0550 C   0  0  0  0  0  0  0  0  0  0  0  0
   33.8620   25.2240   47.3670 C   0  0  0  0  0  0  0  0  0  0  0  0
   34.2690   24.3370   46.3980 C   0  0  0  0  0  0  0  0  0  0  0  0
   34.4590   24.7340   45.0820 C   0  0  0  0  0  0  0  0  0  0  0  0
   34.2320   26.0440   44.7620 C   0  0  0  0  0  0  0  0  0  0  0  0
   33.8250   26.9400   45.7220 C   0  0  0  0  0  0  0  0  0  0  0  0
   33.6880   25.0080   48.4130 H   0  0  0  0  0  0  0  0  0  0  0  0
   34.4210   23.3190   46.7630 H   0  0  0  0  0  0  0  0  0  0  0  0
   34.7780   23.9390   44.4300 H   0  0  0  0  0  0  0  0  0  0  0  0
   34.3890   26.3270   43.7230 H   0  0  0  0  0  0  0  0  0  0  0  0
   33.6730   27.9630   45.3540 H   0  0  0  0  0  0  0  0  0  0  0  0
   34.9420   28.3220   49.6210 C   0  0  0  0  0  3  0  0  0  0  0  0
   34.3020   28.4260   48.4900 C   0  0  0  0  0  3  0  0  0  0  0  0
   37.5510   30.2630   51.3200 C   0  0  0  0  0  0  0  0  0  0  0  0
   38.0420   31.0370   50.2320 C   0  0  0  0  0  0  0  0  0  0  0  0
   37.4690   30.8740   48.9540 C   0  0  0  0  0  0  0  0  0  0  0  0
   36.4640   29.9650   48.8570 N   0  0  0  0  0  0  0  0  0  0  0  0
   36.0280   29.2570   49.8940 C   0  0  0  0  0  0  0  0  0  0  0  0
   36.5660   29.4050   51.1100 N   0  0  0  0  0  0  0  0  0  0  0  0
   38.0310   30.4340   52.2730 H   0  0  0  0  0  0  0  0  0  0  0  0
   38.8310   31.7260   50.3920 H   0  0  0  0  0  0  0  0  0  0  0  0
   37.9520   31.6610   47.7990 C   0  0  0  0  0  3  0  0  0  0  0  0
   38.9470   31.0120   46.8480 C   0  0  0  0  0  2  0  0  0  0  0  0
   37.5530   31.3360   46.4310 C   0  0  0  0  0  2  0  0  0  0  0  0
  1 16  1  0  0  0  0
  1  3  1  0  0  0  0
  2  1  1  0  0  0  0
  4  5  1  0  0  0  0
  4  1  1  0  0  0  0
  5 10  1  0  0  0  0
  6 11  1  0  0  0  0
  6  5  2  0  0  0  0
  7  6  1  0  0  0  0
  8  7  2  0  0  0  0
  8  9  1  0  0  0  0
  9  4  2  0  0  0  0
 12  7  1  0  0  0  0
 13  8  1  0  0  0  0
 14  9  1  0  0  0  0
 15 21  1  0  0  0  0
 16 15  2  0  0  0  0
 17 23  1  0  0  0  0
 18 24  1  0  0  0  0
 18 17  2  0  0  0  0
 19 18  1  0  0  0  0
 20 19  2  0  0  0  0
 20 21  1  0  0  0  0
 21 22  2  0  0  0  0
 22 17  1  0  0  0  0
 25 19  1  0  0  0  0
 26 25  1  0  0  0  0
 27 26  1  0  0  0  0
 27 25  1  0  0  0  0
M  END
>  <minimizedAffinity>
-5.24771261

>  <minimizedRMSD>
0.695434332

$$$$
