
 OpenBabel03272509473D

 19 20  0  0  0  0  0  0  0  0999 V2000
   34.8530   28.2990   49.6790 O   0  0  0  0  0  0  0  0  0  0  0  0
   37.3560   30.2490   51.4200 C   0  0  0  0  0  0  0  0  0  0  0  0
   38.0850   30.7210   50.3330 C   0  0  0  0  0  0  0  0  0  0  0  0
   37.6890   30.3530   49.0500 C   0  0  0  0  0  0  0  0  0  0  0  0
   36.5880   29.5350   48.9650 N   0  0  0  0  0  0  0  0  0  0  0  0
   35.9080   29.0980   50.0250 C   0  0  0  0  0  0  0  0  0  0  0  0
   36.2950   29.4580   51.2690 N   0  0  0  0  0  0  0  0  0  0  0  0
   37.6100   30.4980   52.4520 H   0  0  0  0  0  0  0  0  0  0  0  0
   38.9420   31.3640   50.5120 H   0  0  0  0  0  0  0  0  0  0  0  0
   38.2310   30.7010   48.1880 H   0  0  0  0  0  0  0  0  0  0  0  0
   34.4100   28.3210   48.3260 C   0  0  0  0  0  0  0  0  0  0  0  0
   33.9840   29.3060   48.0670 H   0  0  0  0  0  0  0  0  0  0  0  0
   35.2610   28.1630   47.6320 H   0  0  0  0  0  0  0  0  0  0  0  0
   33.4020   27.2240   48.1070 C   0  0  0  0  0  0  0  0  0  0  0  0
   33.5390   26.4220   48.8320 H   0  0  0  0  0  0  0  0  0  0  0  0
   32.3870   27.6490   48.0880 H   0  0  0  0  0  0  0  0  0  0  0  0
   33.7010   26.6420   46.7230 C   0  0  0  0  0  3  0  0  0  0  0  0
   34.0880   25.2180   46.6160 C   0  0  0  0  0  2  0  0  0  0  0  0
   32.7130   25.6190   46.1880 C   0  0  0  0  0  2  0  0  0  0  0  0
  1  6  1  0  0  0  0
  2  8  1  0  0  0  0
  3  9  1  0  0  0  0
  3  2  2  0  0  0  0
  4  3  1  0  0  0  0
  5  4  2  0  0  0  0
  5  6  1  0  0  0  0
  6  7  2  0  0  0  0
  7  2  1  0  0  0  0
 10  4  1  0  0  0  0
 11  1  1  0  0  0  0
 12 11  1  0  0  0  0
 13 11  1  0  0  0  0
 14 11  1  0  0  0  0
 14 15  1  0  0  0  0
 16 14  1  0  0  0  0
 17 14  1  0  0  0  0
 18 17  1  0  0  0  0
 19 18  1  0  0  0  0
 19 17  1  0  0  0  0
M  END
>  <minimizedAffinity>
-3.62452674

>  <minimizedRMSD>
1.0741936

$$$$
