
 OpenBabel03272510333D

 22 24  0  0  0  0  0  0  0  0999 V2000
   36.1550   30.4830   48.5640 C   0  0  0  0  0  0  0  0  0  0  0  0
   35.3110   30.1010   47.5400 C   0  0  0  0  0  0  0  0  0  0  0  0
   34.2210   29.3000   47.7850 C   0  0  0  0  0  0  0  0  0  0  0  0
   33.9840   28.8850   49.0700 C   0  0  0  0  0  0  0  0  0  0  0  0
   34.8120   29.2510   50.1210 C   0  0  0  0  0  0  0  0  0  0  0  0
   35.9210   30.0640   49.8780 C   0  0  0  0  0  0  0  0  0  0  0  0
   35.5220   30.4460   46.5230 H   0  0  0  0  0  0  0  0  0  0  0  0
   33.6030   29.0410   46.9330 H   0  0  0  0  0  0  0  0  0  0  0  0
   33.1230   28.2570   49.2410 H   0  0  0  0  0  0  0  0  0  0  0  0
   34.6340   28.9270   51.1430 H   0  0  0  0  0  0  0  0  0  0  0  0
   38.4890   33.2790   48.6910 C   0  0  0  0  0  0  0  0  0  0  0  0
   39.4000   33.0200   47.6690 C   0  0  0  0  0  0  0  0  0  0  0  0
   39.1990   31.8360   46.9120 C   0  0  0  0  0  0  0  0  0  0  0  0
   38.1440   31.0440   47.2280 N   0  0  0  0  0  0  0  0  0  0  0  0
   37.2970   31.3400   48.2210 C   0  0  0  0  0  0  0  0  0  0  0  0
   37.4780   32.4550   48.9440 N   0  0  0  0  0  0  0  0  0  0  0  0
   38.7120   34.1880   49.2130 H   0  0  0  0  0  0  0  0  0  0  0  0
   40.2560   33.5750   47.3430 H   0  0  0  0  0  0  0  0  0  0  0  0
   39.7950   31.4700   46.0870 H   0  0  0  0  0  0  0  0  0  0  0  0
   36.8670   30.5110   50.9320 C   0  0  0  0  0  3  0  0  0  0  0  0
   37.1140   29.5920   52.1130 C   0  0  0  0  0  2  0  0  0  0  0  0
   38.1810   29.8510   51.0920 C   0  0  0  0  0  2  0  0  0  0  0  0
  1  6  1  0  0  0  0
  2  3  1  0  0  0  0
  2  1  2  0  0  0  0
  3  4  2  0  0  0  0
  4  9  1  0  0  0  0
  4  5  1  0  0  0  0
  5 10  1  0  0  0  0
  6  5  2  0  0  0  0
  6 20  1  0  0  0  0
  7  2  1  0  0  0  0
  8  3  1  0  0  0  0
 11 16  1  0  0  0  0
 11 17  1  0  0  0  0
 12 11  2  0  0  0  0
 13 14  2  0  0  0  0
 13 12  1  0  0  0  0
 14 15  1  0  0  0  0
 15  1  1  0  0  0  0
 15 16  2  0  0  0  0
 18 12  1  0  0  0  0
 19 13  1  0  0  0  0
 20 22  1  0  0  0  0
 20 21  1  0  0  0  0
 22 21  1  0  0  0  0
M  END
>  <minimizedAffinity>
-5.28508759

>  <minimizedRMSD>
0.810392797

$$$$
