
 OpenBabel03272508183D

 19 21  0  0  0  0  0  0  0  0999 V2000
   37.9820   23.7550   36.2450 C   0  0  0  0  0  0  0  0  0  0  0  0
   38.0750   24.8830   35.3940 C   0  0  0  0  0  0  0  0  0  0  0  0
   38.0470   24.5990   34.0420 C   0  0  0  0  0  0  0  0  0  0  0  0
   37.9360   23.3220   33.6160 N   0  0  0  0  0  0  0  0  0  0  0  0
   37.8480   22.2650   34.4500 C   0  0  0  0  0  0  0  0  0  0  0  0
   37.8720   22.4870   35.7750 N   0  0  0  0  0  0  0  0  0  0  0  0
   38.1160   25.4260   33.3790 H   0  0  0  0  0  0  0  0  0  0  0  0
   37.7600   21.2640   34.0730 H   0  0  0  0  0  0  0  0  0  0  0  0
   37.9430   24.0690   37.7290 C   0  0  0  0  0  0  0  0  0  0  0  0
   37.6960   23.0230   38.6920 C   0  0  0  0  0  0  0  0  0  0  0  0
   39.1330   23.4200   38.4510 C   0  0  0  0  0  0  0  0  0  0  0  0
   38.0320   25.1690   37.9730 H   0  0  0  0  0  0  0  0  0  0  0  0
   37.3530   22.0400   38.3110 H   0  0  0  0  0  0  0  0  0  0  0  0
   37.2070   23.3190   39.6600 H   0  0  0  0  0  0  0  0  0  0  0  0
   39.7650   22.7210   37.8840 H   0  0  0  0  0  0  0  0  0  0  0  0
   39.5980   23.8950   39.3110 H   0  0  0  0  0  0  0  0  0  0  0  0
   38.1930   26.2480   35.9680 C   0  0  0  0  0  3  0  0  0  0  0  0
   37.8050   27.4330   35.1650 C   0  0  0  0  0  2  0  0  0  0  0  0
   39.2490   27.1650   35.4380 C   0  0  0  0  0  2  0  0  0  0  0  0
  1  9  1  0  0  0  0
  2 17  1  0  0  0  0
  2  1  2  0  0  0  0
  3  2  1  0  0  0  0
  4  3  2  0  0  0  0
  4  5  1  0  0  0  0
  5  6  2  0  0  0  0
  6  1  1  0  0  0  0
  7  3  1  0  0  0  0
  8  5  1  0  0  0  0
  9 12  1  0  0  0  0
  9 11  1  0  0  0  0
  9 10  1  0  0  0  0
 10 14  1  0  0  0  0
 11 10  1  0  0  0  0
 11 16  1  0  0  0  0
 13 10  1  0  0  0  0
 15 11  1  0  0  0  0
 18 19  1  0  0  0  0
 18 17  1  0  0  0  0
 19 17  1  0  0  0  0
M  END
>  <minimizedAffinity>
-3.96510553

$$$$

 OpenBabel03272508183D

 19 21  0  0  0  0  0  0  0  0999 V2000
   39.2080   23.9020   36.5430 C   0  0  0  0  0  0  0  0  0  0  0  0
   39.3600   24.9270   35.5790 C   0  0  0  0  0  0  0  0  0  0  0  0
   40.5520   24.9020   34.8820 C   0  0  0  0  0  0  0  0  0  0  0  0
   41.4720   23.9470   35.1390 N   0  0  0  0  0  0  0  0  0  0  0  0
   41.3000   22.9800   36.0640 C   0  0  0  0  0  0  0  0  0  0  0  0
   40.1570   22.9600   36.7710 N   0  0  0  0  0  0  0  0  0  0  0  0
   40.6950   25.6600   34.1520 H   0  0  0  0  0  0  0  0  0  0  0  0
   42.0530   22.2360   36.2400 H   0  0  0  0  0  0  0  0  0  0  0  0
   37.8710   23.8860   37.2620 C   0  0  0  0  0  0  0  0  0  0  0  0
   37.6790   23.0660   38.4340 C   0  0  0  0  0  0  0  0  0  0  0  0
   37.9950   24.5270   38.6520 C   0  0  0  0  0  0  0  0  0  0  0  0
   37.0610   24.4840   36.7480 H   0  0  0  0  0  0  0  0  0  0  0  0
   38.4610   22.3180   38.6750 H   0  0  0  0  0  0  0  0  0  0  0  0
   36.6370   22.7000   38.6410 H   0  0  0  0  0  0  0  0  0  0  0  0
   39.0010   24.7790   39.0180 H   0  0  0  0  0  0  0  0  0  0  0  0
   37.1730   25.0830   39.0920 H   0  0  0  0  0  0  0  0  0  0  0  0
   38.2830   25.9310   35.3750 C   0  0  0  0  0  3  0  0  0  0  0  0
   38.5600   27.1810   34.6270 C   0  0  0  0  0  2  0  0  0  0  0  0
   38.3610   27.2330   36.1060 C   0  0  0  0  0  2  0  0  0  0  0  0
  1  6  1  0  0  0  0
  1  9  1  0  0  0  0
  2  1  2  0  0  0  0
  3  4  2  0  0  0  0
  3  2  1  0  0  0  0
  4  5  1  0  0  0  0
  5  8  1  0  0  0  0
  5  6  2  0  0  0  0
  7  3  1  0  0  0  0
  9 10  1  0  0  0  0
  9 11  1  0  0  0  0
 10 14  1  0  0  0  0
 10 11  1  0  0  0  0
 10 13  1  0  0  0  0
 11 15  1  0  0  0  0
 11 16  1  0  0  0  0
 12  9  1  0  0  0  0
 17  2  1  0  0  0  0
 17 19  1  0  0  0  0
 18 17  1  0  0  0  0
 18 19  1  0  0  0  0
M  END
>  <minimizedAffinity>
-3.7175014

$$$$

 OpenBabel03272508183D

 19 21  0  0  0  0  0  0  0  0999 V2000
   38.6360   24.6280   35.0220 C   0  0  0  0  0  0  0  0  0  0  0  0
   38.4970   23.6700   36.0550 C   0  0  0  0  0  0  0  0  0  0  0  0
   37.9650   22.4580   35.6600 C   0  0  0  0  0  0  0  0  0  0  0  0
   37.6220   22.2520   34.3690 N   0  0  0  0  0  0  0  0  0  0  0  0
   37.7670   23.1840   33.4050 C   0  0  0  0  0  0  0  0  0  0  0  0
   38.2790   24.3810   33.7370 N   0  0  0  0  0  0  0  0  0  0  0  0
   37.8480   21.7180   36.4130 H   0  0  0  0  0  0  0  0  0  0  0  0
   37.4840   22.9830   32.3890 H   0  0  0  0  0  0  0  0  0  0  0  0
   39.2840   25.9360   35.4400 C   0  0  0  0  0  0  0  0  0  0  0  0
   39.3450   27.0480   34.5220 C   0  0  0  0  0  0  0  0  0  0  0  0
   38.2330   27.0510   35.5440 C   0  0  0  0  0  0  0  0  0  0  0  0
   39.7680   25.9080   36.4610 H   0  0  0  0  0  0  0  0  0  0  0  0
   39.0820   26.8580   33.4610 H   0  0  0  0  0  0  0  0  0  0  0  0
   40.1970   27.7710   34.6450 H   0  0  0  0  0  0  0  0  0  0  0  0
   37.2150   26.8380   35.1870 H   0  0  0  0  0  0  0  0  0  0  0  0
   38.3260   27.8460   36.2770 H   0  0  0  0  0  0  0  0  0  0  0  0
   38.9080   23.9990   37.4450 C   0  0  0  0  0  3  0  0  0  0  0  0
   38.5190   23.1130   38.5680 C   0  0  0  0  0  2  0  0  0  0  0  0
   37.8660   24.4470   38.4180 C   0  0  0  0  0  2  0  0  0  0  0  0
  1  9  1  0  0  0  0
  1  2  1  0  0  0  0
  2 17  1  0  0  0  0
  3  2  2  0  0  0  0
  3  7  1  0  0  0  0
  4  3  1  0  0  0  0
  5  6  1  0  0  0  0
  5  4  2  0  0  0  0
  6  1  2  0  0  0  0
  8  5  1  0  0  0  0
  9 11  1  0  0  0  0
  9 12  1  0  0  0  0
 10 14  1  0  0  0  0
 10  9  1  0  0  0  0
 10 11  1  0  0  0  0
 11 16  1  0  0  0  0
 13 10  1  0  0  0  0
 15 11  1  0  0  0  0
 17 19  1  0  0  0  0
 17 18  1  0  0  0  0
 19 18  1  0  0  0  0
M  END
>  <minimizedAffinity>
-3.67330718

$$$$

 OpenBabel03272508183D

 19 21  0  0  0  0  0  0  0  0999 V2000
   37.1170   27.7200   33.4700 C   0  0  0  0  0  0  0  0  0  0  0  0
   36.2190   28.7800   33.2000 C   0  0  0  0  0  0  0  0  0  0  0  0
   36.2790   29.2840   31.9150 C   0  0  0  0  0  0  0  0  0  0  0  0
   37.1470   28.7650   31.0190 N   0  0  0  0  0  0  0  0  0  0  0  0
   37.9920   27.7530   31.3040 C   0  0  0  0  0  0  0  0  0  0  0  0
   37.9750   27.2270   32.5410 N   0  0  0  0  0  0  0  0  0  0  0  0
   35.6170   30.0810   31.6830 H   0  0  0  0  0  0  0  0  0  0  0  0
   38.6670   27.3660   30.5650 H   0  0  0  0  0  0  0  0  0  0  0  0
   37.0060   27.1190   34.8590 C   0  0  0  0  0  0  0  0  0  0  0  0
   37.8850   26.0490   35.2670 C   0  0  0  0  0  0  0  0  0  0  0  0
   38.2510   27.4510   35.6950 C   0  0  0  0  0  0  0  0  0  0  0  0
   36.1430   27.5190   35.4700 H   0  0  0  0  0  0  0  0  0  0  0  0
   38.5020   25.5610   34.4860 H   0  0  0  0  0  0  0  0  0  0  0  0
   37.4980   25.3300   36.0390 H   0  0  0  0  0  0  0  0  0  0  0  0
   39.1020   27.9300   35.1880 H   0  0  0  0  0  0  0  0  0  0  0  0
   38.1860   27.6030   36.7670 H   0  0  0  0  0  0  0  0  0  0  0  0
   35.3030   29.2760   34.2600 C   0  0  0  0  0  3  0  0  0  0  0  0
   34.4750   30.4840   34.0260 C   0  0  0  0  0  2  0  0  0  0  0  0
   35.6360   30.5530   34.9630 C   0  0  0  0  0  2  0  0  0  0  0  0
  1  9  1  0  0  0  0
  2  1  1  0  0  0  0
  2 17  1  0  0  0  0
  3  2  2  0  0  0  0
  4  5  2  0  0  0  0
  4  3  1  0  0  0  0
  5  6  1  0  0  0  0
  6  1  2  0  0  0  0
  7  3  1  0  0  0  0
  8  5  1  0  0  0  0
  9 10  1  0  0  0  0
  9 12  1  0  0  0  0
  9 11  1  0  0  0  0
 10 11  1  0  0  0  0
 10 14  1  0  0  0  0
 11 16  1  0  0  0  0
 13 10  1  0  0  0  0
 15 11  1  0  0  0  0
 17 19  1  0  0  0  0
 18 17  1  0  0  0  0
 18 19  1  0  0  0  0
M  END
>  <minimizedAffinity>
-3.56387568

$$$$

 OpenBabel03272508183D

 19 21  0  0  0  0  0  0  0  0999 V2000
   36.7960   23.5810   31.1070 C   0  0  0  0  0  0  0  0  0  0  0  0
   36.6090   22.2240   31.4620 C   0  0  0  0  0  0  0  0  0  0  0  0
   37.5560   21.3520   30.9600 C   0  0  0  0  0  0  0  0  0  0  0  0
   38.5680   21.8130   30.1940 N   0  0  0  0  0  0  0  0  0  0  0  0
   38.7230   23.1140   29.8720 C   0  0  0  0  0  0  0  0  0  0  0  0
   37.8280   24.0040   30.3340 N   0  0  0  0  0  0  0  0  0  0  0  0
   37.4410   20.3260   31.2090 H   0  0  0  0  0  0  0  0  0  0  0  0
   39.5420   23.4430   29.2610 H   0  0  0  0  0  0  0  0  0  0  0  0
   35.7970   24.5490   31.7140 C   0  0  0  0  0  0  0  0  0  0  0  0
   35.8330   25.9510   31.3680 C   0  0  0  0  0  0  0  0  0  0  0  0
   34.8370   25.0800   30.6390 C   0  0  0  0  0  0  0  0  0  0  0  0
   35.1210   24.0900   32.4940 H   0  0  0  0  0  0  0  0  0  0  0  0
   36.7140   26.3220   30.8060 H   0  0  0  0  0  0  0  0  0  0  0  0
   35.4570   26.6800   32.1350 H   0  0  0  0  0  0  0  0  0  0  0  0
   35.0500   24.8360   29.5880 H   0  0  0  0  0  0  0  0  0  0  0  0
   33.8040   25.3200   30.8750 H   0  0  0  0  0  0  0  0  0  0  0  0
   35.4580   21.8220   32.3130 C   0  0  0  0  0  3  0  0  0  0  0  0
   35.5630   20.6400   33.2010 C   0  0  0  0  0  2  0  0  0  0  0  0
   34.7130   20.5710   31.9760 C   0  0  0  0  0  2  0  0  0  0  0  0
  1  2  1  0  0  0  0
  1  9  1  0  0  0  0
  2 17  1  0  0  0  0
  3  7  1  0  0  0  0
  3  2  2  0  0  0  0
  4  3  1  0  0  0  0
  5  4  2  0  0  0  0
  5  6  1  0  0  0  0
  6  1  2  0  0  0  0
  8  5  1  0  0  0  0
  9 12  1  0  0  0  0
 10  9  1  0  0  0  0
 10 14  1  0  0  0  0
 11 16  1  0  0  0  0
 11 10  1  0  0  0  0
 11  9  1  0  0  0  0
 13 10  1  0  0  0  0
 15 11  1  0  0  0  0
 17 18  1  0  0  0  0
 19 17  1  0  0  0  0
 19 18  1  0  0  0  0
M  END
>  <minimizedAffinity>
-3.55798054

$$$$

 OpenBabel03272508183D

 19 21  0  0  0  0  0  0  0  0999 V2000
   39.0970   23.4660   36.4540 C   0  0  0  0  0  0  0  0  0  0  0  0
   40.3880   23.0870   36.0140 C   0  0  0  0  0  0  0  0  0  0  0  0
   40.5630   23.0880   34.6440 C   0  0  0  0  0  0  0  0  0  0  0  0
   39.5450   23.4360   33.8270 N   0  0  0  0  0  0  0  0  0  0  0  0
   38.3230   23.7940   34.2740 C   0  0  0  0  0  0  0  0  0  0  0  0
   38.1000   23.8080   35.6000 N   0  0  0  0  0  0  0  0  0  0  0  0
   41.5220   22.8070   34.2840 H   0  0  0  0  0  0  0  0  0  0  0  0
   37.5380   24.0650   33.5940 H   0  0  0  0  0  0  0  0  0  0  0  0
   38.9240   23.5320   37.9600 C   0  0  0  0  0  0  0  0  0  0  0  0
   37.9580   24.4310   38.5470 C   0  0  0  0  0  0  0  0  0  0  0  0
   37.5470   22.9880   38.3710 C   0  0  0  0  0  0  0  0  0  0  0  0
   39.6600   22.9000   38.5400 H   0  0  0  0  0  0  0  0  0  0  0  0
   37.4940   25.1920   37.8880 H   0  0  0  0  0  0  0  0  0  0  0  0
   38.1720   24.8110   39.5830 H   0  0  0  0  0  0  0  0  0  0  0  0
   36.8220   22.7610   37.5760 H   0  0  0  0  0  0  0  0  0  0  0  0
   37.4060   22.4640   39.3110 H   0  0  0  0  0  0  0  0  0  0  0  0
   41.4400   22.7230   36.9990 C   0  0  0  0  0  3  0  0  0  0  0  0
   42.7410   22.1820   36.5370 C   0  0  0  0  0  2  0  0  0  0  0  0
   41.7620   21.2780   37.2110 C   0  0  0  0  0  2  0  0  0  0  0  0
  1  9  1  0  0  0  0
  2  1  1  0  0  0  0
  2 17  1  0  0  0  0
  3  2  2  0  0  0  0
  4  5  2  0  0  0  0
  4  3  1  0  0  0  0
  5  6  1  0  0  0  0
  6  1  2  0  0  0  0
  7  3  1  0  0  0  0
  8  5  1  0  0  0  0
  9 11  1  0  0  0  0
  9 12  1  0  0  0  0
  9 10  1  0  0  0  0
 10 14  1  0  0  0  0
 11 10  1  0  0  0  0
 11 16  1  0  0  0  0
 13 10  1  0  0  0  0
 15 11  1  0  0  0  0
 17 19  1  0  0  0  0
 18 17  1  0  0  0  0
 18 19  1  0  0  0  0
M  END
>  <minimizedAffinity>
-3.53428698

$$$$

 OpenBabel03272508183D

 19 21  0  0  0  0  0  0  0  0999 V2000
   38.7100   24.8000   36.1800 C   0  0  0  0  0  0  0  0  0  0  0  0
   39.7920   23.9180   35.9460 C   0  0  0  0  0  0  0  0  0  0  0  0
   39.9890   22.9620   36.9230 C   0  0  0  0  0  0  0  0  0  0  0  0
   39.1790   22.9140   38.0030 N   0  0  0  0  0  0  0  0  0  0  0  0
   38.1530   23.7680   38.2010 C   0  0  0  0  0  0  0  0  0  0  0  0
   37.9190   24.7180   37.2800 N   0  0  0  0  0  0  0  0  0  0  0  0
   40.7950   22.2860   36.7750 H   0  0  0  0  0  0  0  0  0  0  0  0
   37.5300   23.6980   39.0720 H   0  0  0  0  0  0  0  0  0  0  0  0
   38.4480   25.8070   35.0750 C   0  0  0  0  0  0  0  0  0  0  0  0
   37.4370   26.8240   35.2360 C   0  0  0  0  0  0  0  0  0  0  0  0
   38.8680   27.2170   35.5170 C   0  0  0  0  0  0  0  0  0  0  0  0
   39.0380   25.6210   34.1290 H   0  0  0  0  0  0  0  0  0  0  0  0
   36.7410   26.7300   36.0940 H   0  0  0  0  0  0  0  0  0  0  0  0
   36.9410   27.2100   34.3040 H   0  0  0  0  0  0  0  0  0  0  0  0
   39.1570   27.3660   36.5680 H   0  0  0  0  0  0  0  0  0  0  0  0
   39.2630   27.9360   34.8060 H   0  0  0  0  0  0  0  0  0  0  0  0
   40.6220   24.0580   34.7210 C   0  0  0  0  0  3  0  0  0  0  0  0
   41.8780   23.2820   34.5780 C   0  0  0  0  0  2  0  0  0  0  0  0
   41.9420   24.7540   34.8190 C   0  0  0  0  0  2  0  0  0  0  0  0
  1  6  1  0  0  0  0
  2  1  2  0  0  0  0
  2  3  1  0  0  0  0
  3  4  2  0  0  0  0
  4  5  1  0  0  0  0
  5  8  1  0  0  0  0
  6  5  2  0  0  0  0
  7  3  1  0  0  0  0
  9 10  1  0  0  0  0
  9 11  1  0  0  0  0
  9  1  1  0  0  0  0
 10 11  1  0  0  0  0
 10 13  1  0  0  0  0
 11 15  1  0  0  0  0
 12  9  1  0  0  0  0
 14 10  1  0  0  0  0
 16 11  1  0  0  0  0
 17 19  1  0  0  0  0
 17  2  1  0  0  0  0
 18 17  1  0  0  0  0
 18 19  1  0  0  0  0
M  END
>  <minimizedAffinity>
-3.53048205

$$$$

 OpenBabel03272508183D

 19 21  0  0  0  0  0  0  0  0999 V2000
   36.1870   28.6590   33.1180 C   0  0  0  0  0  0  0  0  0  0  0  0
   37.0720   27.6600   33.5890 C   0  0  0  0  0  0  0  0  0  0  0  0
   37.5500   26.7980   32.6210 C   0  0  0  0  0  0  0  0  0  0  0  0
   37.1700   26.9420   31.3330 N   0  0  0  0  0  0  0  0  0  0  0  0
   36.3250   27.9050   30.9110 C   0  0  0  0  0  0  0  0  0  0  0  0
   35.8300   28.7700   31.8140 N   0  0  0  0  0  0  0  0  0  0  0  0
   38.2160   26.0370   32.9450 H   0  0  0  0  0  0  0  0  0  0  0  0
   36.0470   27.9890   29.8780 H   0  0  0  0  0  0  0  0  0  0  0  0
   35.7160   29.6490   34.1670 C   0  0  0  0  0  0  0  0  0  0  0  0
   34.7840   30.6960   33.8190 C   0  0  0  0  0  0  0  0  0  0  0  0
   34.2230   29.4510   34.4660 C   0  0  0  0  0  0  0  0  0  0  0  0
   36.2220   29.5370   35.1710 H   0  0  0  0  0  0  0  0  0  0  0  0
   34.5760   30.8660   32.7440 H   0  0  0  0  0  0  0  0  0  0  0  0
   34.8290   31.6450   34.4190 H   0  0  0  0  0  0  0  0  0  0  0  0
   33.6540   28.7600   33.8280 H   0  0  0  0  0  0  0  0  0  0  0  0
   33.8190   29.6280   35.4580 H   0  0  0  0  0  0  0  0  0  0  0  0
   37.4260   27.5910   35.0310 C   0  0  0  0  0  3  0  0  0  0  0  0
   38.8140   27.2710   35.4450 C   0  0  0  0  0  2  0  0  0  0  0  0
   37.7330   26.2580   35.6360 C   0  0  0  0  0  2  0  0  0  0  0  0
  1  2  1  0  0  0  0
  1  9  1  0  0  0  0
  2 17  1  0  0  0  0
  3  7  1  0  0  0  0
  3  2  2  0  0  0  0
  4  3  1  0  0  0  0
  5  4  2  0  0  0  0
  5  6  1  0  0  0  0
  6  1  2  0  0  0  0
  8  5  1  0  0  0  0
  9 11  1  0  0  0  0
  9 12  1  0  0  0  0
 10  9  1  0  0  0  0
 10 14  1  0  0  0  0
 10 11  1  0  0  0  0
 11 16  1  0  0  0  0
 13 10  1  0  0  0  0
 15 11  1  0  0  0  0
 17 18  1  0  0  0  0
 17 19  1  0  0  0  0
 18 19  1  0  0  0  0
M  END
>  <minimizedAffinity>
-3.50425053

$$$$

 OpenBabel03272508183D

 19 21  0  0  0  0  0  0  0  0999 V2000
   36.7080   26.7640   32.7160 C   0  0  0  0  0  0  0  0  0  0  0  0
   37.0080   27.2530   34.0110 C   0  0  0  0  0  0  0  0  0  0  0  0
   36.3650   28.4250   34.3560 C   0  0  0  0  0  0  0  0  0  0  0  0
   35.5210   29.0220   33.4870 N   0  0  0  0  0  0  0  0  0  0  0  0
   35.2520   28.5330   32.2580 C   0  0  0  0  0  0  0  0  0  0  0  0
   35.8530   27.3940   31.8720 N   0  0  0  0  0  0  0  0  0  0  0  0
   36.5710   28.8170   35.3220 H   0  0  0  0  0  0  0  0  0  0  0  0
   34.5740   29.0350   31.5950 H   0  0  0  0  0  0  0  0  0  0  0  0
   37.3590   25.4400   32.3600 C   0  0  0  0  0  0  0  0  0  0  0  0
   37.1870   24.8700   31.0450 C   0  0  0  0  0  0  0  0  0  0  0  0
   38.4590   25.6430   31.3070 C   0  0  0  0  0  0  0  0  0  0  0  0
   37.8850   24.9350   33.2230 H   0  0  0  0  0  0  0  0  0  0  0  0
   36.4260   25.3250   30.3800 H   0  0  0  0  0  0  0  0  0  0  0  0
   37.2410   23.7510   30.9570 H   0  0  0  0  0  0  0  0  0  0  0  0
   38.5540   26.6350   30.8430 H   0  0  0  0  0  0  0  0  0  0  0  0
   39.3490   25.0220   31.2960 H   0  0  0  0  0  0  0  0  0  0  0  0
   37.9530   26.5160   34.8900 C   0  0  0  0  0  3  0  0  0  0  0  0
   38.4180   27.1230   36.1610 C   0  0  0  0  0  2  0  0  0  0  0  0
   39.3600   27.0070   35.0080 C   0  0  0  0  0  2  0  0  0  0  0  0
  1  2  1  0  0  0  0
  2  3  2  0  0  0  0
  2 17  1  0  0  0  0
  3  7  1  0  0  0  0
  4  3  1  0  0  0  0
  5  4  2  0  0  0  0
  6  5  1  0  0  0  0
  6  1  2  0  0  0  0
  8  5  1  0  0  0  0
  9  1  1  0  0  0  0
  9 12  1  0  0  0  0
 10 11  1  0  0  0  0
 10  9  1  0  0  0  0
 11  9  1  0  0  0  0
 13 10  1  0  0  0  0
 14 10  1  0  0  0  0
 15 11  1  0  0  0  0
 16 11  1  0  0  0  0
 17 19  1  0  0  0  0
 17 18  1  0  0  0  0
 19 18  1  0  0  0  0
M  END
>  <minimizedAffinity>
-3.50165248

$$$$
