
 OpenBabel03272510273D

 39 43  0  0  1  0  0  0  0  0999 V2000
   36.3060   30.2330   46.0220 C   0  0  0  0  0  0  0  0  0  0  0  0
   37.2400   31.0200   46.6930 C   0  0  0  0  0  0  0  0  0  0  0  0
   37.9750   31.9930   46.0210 C   0  0  0  0  0  0  0  0  0  0  0  0
   37.7270   32.1350   44.6590 C   0  0  0  0  0  0  0  0  0  0  0  0
   38.3080   33.0100   43.7880 N   0  0  0  0  0  0  0  0  0  0  0  0
   37.7510   32.7810   42.5890 C   0  0  0  0  0  0  0  0  0  0  0  0
   36.8630   31.8110   42.6890 N   0  0  0  0  0  0  0  0  0  0  0  0
   36.8120   31.3780   43.9600 C   0  0  0  0  0  0  0  0  0  0  0  0
   36.0890   30.4070   44.6660 C   0  0  0  0  0  0  0  0  0  0  0  0
   35.7200   29.4730   46.5000 H   0  0  0  0  0  0  0  0  0  0  0  0
   38.6900   32.5920   46.5460 H   0  0  0  0  0  0  0  0  0  0  0  0
   39.0310   33.7050   44.0200 H   0  0  0  0  0  0  0  0  0  0  0  0
   35.3700   29.8080   44.1220 H   0  0  0  0  0  0  0  0  0  0  0  0
   38.3260   31.1920   50.2860 C   0  0  0  0  0  0  0  0  0  0  0  0
   38.2470   31.5200   48.9420 C   0  0  0  0  0  0  0  0  0  0  0  0
   37.4130   30.7820   48.1110 C   0  0  0  0  0  0  0  0  0  0  0  0
   36.7100   29.7600   48.6820 N   0  0  0  0  0  0  0  0  0  0  0  0
   36.7930   29.4480   49.9890 C   0  0  0  0  0  0  0  0  0  0  0  0
   37.5830   30.1490   50.7710 N   0  0  0  0  0  0  0  0  0  0  0  0
   38.9720   31.7600   50.9440 H   0  0  0  0  0  0  0  0  0  0  0  0
   38.8100   32.3360   48.4960 H   0  0  0  0  0  0  0  0  0  0  0  0
   36.2080   28.6170   50.3960 H   0  0  0  0  0  0  0  0  0  0  0  0
   38.1110   33.5040   41.4520 O   0  0  0  0  0  0  0  0  0  0  0  0
   36.6380   32.6550   39.9070 N   0  0  0  0  0  0  0  0  0  0  0  0
   37.0410   33.8570   40.5890 C   0  0  1  0  0  0  0  0  0  0  0  0
   35.9280   34.4240   41.3390 C   0  0  0  0  0  0  0  0  0  0  0  0
   34.9150   34.7810   40.4330 O   0  0  0  0  0  0  0  0  0  0  0  0
   34.4850   33.7810   39.6100 C   0  0  0  0  0  0  0  0  0  0  0  0
   35.6280   33.0290   38.9610 C   0  0  1  0  0  0  0  0  0  0  0  0
   36.5260   31.8020   40.3960 H   0  0  0  0  0  0  0  0  0  0  0  0
   37.4080   34.5720   39.8370 H   0  0  0  0  0  0  0  0  0  0  0  0
   35.4020   33.9340   42.1140 H   0  0  0  0  0  0  0  0  0  0  0  0
   36.2670   35.4200   41.7550 H   0  0  0  0  0  0  0  0  0  0  0  0
   33.9290   34.2510   38.7790 H   0  0  0  0  0  0  0  0  0  0  0  0
   33.8580   33.0690   40.2030 H   0  0  0  0  0  0  0  0  0  0  0  0
   35.2140   32.1090   38.5180 H   0  0  0  0  0  0  0  0  0  0  0  0
   36.1910   33.8710   37.8400 C   0  0  0  0  0  3  0  0  0  0  0  0
   37.2930   33.3130   37.0000 C   0  0  0  0  0  2  0  0  0  0  0  0
   35.9270   33.4040   36.4210 C   0  0  0  0  0  2  0  0  0  0  0  0
  1 10  1  0  0  0  0
  1  2  1  0  0  0  0
  2 16  1  0  0  0  0
  3 11  1  0  0  0  0
  3  2  2  0  0  0  0
  4  3  1  0  0  0  0
  5 12  1  0  0  0  0
  5  4  1  0  0  0  0
  6  7  2  0  0  0  0
  6  5  1  0  0  0  0
  7  8  1  0  0  0  0
  8  4  2  0  0  0  0
  8  9  1  0  0  0  0
  9  1  2  0  0  0  0
 13  9  1  0  0  0  0
 14 19  1  0  0  0  0
 14 20  1  0  0  0  0
 15 14  2  0  0  0  0
 16 17  2  0  0  0  0
 16 15  1  0  0  0  0
 17 18  1  0  0  0  0
 18 22  1  0  0  0  0
 18 19  2  0  0  0  0
 21 15  1  0  0  0  0
 23  6  1  0  0  0  0
 24 30  1  0  0  0  0
 24 25  1  0  0  0  0
 25 31  1  6  0  0  0
 25 26  1  0  0  0  0
 25 23  1  0  0  0  0
 26 33  1  0  0  0  0
 26 32  1  0  0  0  0
 27 26  1  0  0  0  0
 28 35  1  0  0  0  0
 28 27  1  0  0  0  0
 29 36  1  6  0  0  0
 29 28  1  0  0  0  0
 29 24  1  0  0  0  0
 34 28  1  0  0  0  0
 37 29  1  0  0  0  0
 38 37  1  0  0  0  0
 39 38  1  0  0  0  0
 39 37  1  0  0  0  0
M  END
>  <minimizedAffinity>
-4.81997347

>  <minimizedRMSD>
2.62147737

$$$$
