
 OpenBabel03272510343D

 22 24  0  0  0  0  0  0  0  0999 V2000
   36.2940   30.1440   48.0250 C   0  0  0  0  0  0  0  0  0  0  0  0
   35.1940   30.0960   47.1920 C   0  0  0  0  0  0  0  0  0  0  0  0
   34.0650   29.3970   47.5520 C   0  0  0  0  0  0  0  0  0  0  0  0
   34.0520   28.7450   48.7580 C   0  0  0  0  0  0  0  0  0  0  0  0
   35.1400   28.7740   49.6170 C   0  0  0  0  0  0  0  0  0  0  0  0
   36.2890   29.4820   49.2570 C   0  0  0  0  0  0  0  0  0  0  0  0
   35.2300   30.6240   46.2340 H   0  0  0  0  0  0  0  0  0  0  0  0
   33.2410   29.4030   46.8490 H   0  0  0  0  0  0  0  0  0  0  0  0
   33.1560   28.2020   49.0230 H   0  0  0  0  0  0  0  0  0  0  0  0
   35.1410   28.2620   50.5760 H   0  0  0  0  0  0  0  0  0  0  0  0
   38.7260   32.8480   47.7900 C   0  0  0  0  0  0  0  0  0  0  0  0
   39.6100   32.4370   46.7950 C   0  0  0  0  0  0  0  0  0  0  0  0
   39.3540   31.1810   46.1850 C   0  0  0  0  0  0  0  0  0  0  0  0
   38.2780   30.4700   46.6050 N   0  0  0  0  0  0  0  0  0  0  0  0
   37.4590   30.9120   47.5670 C   0  0  0  0  0  0  0  0  0  0  0  0
   37.6920   32.0970   48.1520 N   0  0  0  0  0  0  0  0  0  0  0  0
   38.9900   33.8030   48.1990 H   0  0  0  0  0  0  0  0  0  0  0  0
   40.4790   32.9180   46.3940 H   0  0  0  0  0  0  0  0  0  0  0  0
   39.9230   30.6990   45.4010 H   0  0  0  0  0  0  0  0  0  0  0  0
   37.5050   29.5750   50.1050 C   0  0  0  0  0  3  0  0  0  0  0  0
   37.4880   30.5250   51.2850 C   0  0  0  0  0  2  0  0  0  0  0  0
   37.5020   29.0390   51.4830 C   0  0  0  0  0  2  0  0  0  0  0  0
  1  6  1  0  0  0  0
  2  3  1  0  0  0  0
  2  1  2  0  0  0  0
  3  4  2  0  0  0  0
  4  9  1  0  0  0  0
  4  5  1  0  0  0  0
  5 10  1  0  0  0  0
  6  5  2  0  0  0  0
  6 20  1  0  0  0  0
  7  2  1  0  0  0  0
  8  3  1  0  0  0  0
 11 16  1  0  0  0  0
 11 17  1  0  0  0  0
 12 11  2  0  0  0  0
 13 14  2  0  0  0  0
 13 12  1  0  0  0  0
 14 15  1  0  0  0  0
 15  1  1  0  0  0  0
 15 16  2  0  0  0  0
 18 12  1  0  0  0  0
 19 13  1  0  0  0  0
 20 21  1  0  0  0  0
 20 22  1  0  0  0  0
 21 22  1  0  0  0  0
M  END
>  <minimizedAffinity>
-5.57589722

>  <minimizedRMSD>
1.18187892

$$$$
