
 OpenBabel03272509483D

 19 20  0  0  0  0  0  0  0  0999 V2000
   38.6710   21.7970   34.4220 O   0  0  0  0  0  0  0  0  0  0  0  0
   39.9560   22.7260   37.6760 C   0  0  0  0  0  0  0  0  0  0  0  0
   38.8130   23.2960   38.2270 C   0  0  0  0  0  0  0  0  0  0  0  0
   37.6510   23.3380   37.4620 C   0  0  0  0  0  0  0  0  0  0  0  0
   37.7330   22.8020   36.1990 N   0  0  0  0  0  0  0  0  0  0  0  0
   38.8430   22.2610   35.6970 C   0  0  0  0  0  0  0  0  0  0  0  0
   39.9700   22.2220   36.4430 N   0  0  0  0  0  0  0  0  0  0  0  0
   40.9010   22.6590   38.2180 H   0  0  0  0  0  0  0  0  0  0  0  0
   38.8560   23.6920   39.2370 H   0  0  0  0  0  0  0  0  0  0  0  0
   36.7490   23.7730   37.8590 H   0  0  0  0  0  0  0  0  0  0  0  0
   37.4090   22.0080   33.7960 C   0  0  0  0  0  0  0  0  0  0  0  0
   36.6110   22.1280   34.5490 H   0  0  0  0  0  0  0  0  0  0  0  0
   37.4180   22.9480   33.2060 H   0  0  0  0  0  0  0  0  0  0  0  0
   37.1080   20.8610   32.8680 C   0  0  0  0  0  0  0  0  0  0  0  0
   37.0630   21.2020   31.8340 H   0  0  0  0  0  0  0  0  0  0  0  0
   37.8230   20.0430   33.0440 H   0  0  0  0  0  0  0  0  0  0  0  0
   35.7110   20.3650   33.2440 C   0  0  0  0  0  3  0  0  0  0  0  0
   34.7200   20.1370   32.1700 C   0  0  0  0  0  2  0  0  0  0  0  0
   35.3530   18.9500   32.8190 C   0  0  0  0  0  2  0  0  0  0  0  0
  1  6  1  0  0  0  0
  2  8  1  0  0  0  0
  2  3  1  0  0  0  0
  3  9  1  0  0  0  0
  4 10  1  0  0  0  0
  4  3  2  0  0  0  0
  5  4  1  0  0  0  0
  6  5  2  0  0  0  0
  6  7  1  0  0  0  0
  7  2  2  0  0  0  0
 11  1  1  0  0  0  0
 11 12  1  0  0  0  0
 13 11  1  0  0  0  0
 14 16  1  0  0  0  0
 14 17  1  0  0  0  0
 14 11  1  0  0  0  0
 15 14  1  0  0  0  0
 18 19  1  0  0  0  0
 18 17  1  0  0  0  0
 19 17  1  0  0  0  0
M  END
>  <minimizedAffinity>
-3.74179482

$$$$

 OpenBabel03272509483D

 19 20  0  0  0  0  0  0  0  0999 V2000
   38.1800   23.4040   34.6130 O   0  0  0  0  0  0  0  0  0  0  0  0
   37.8200   23.9670   38.1690 C   0  0  0  0  0  0  0  0  0  0  0  0
   38.9830   23.3540   38.6250 C   0  0  0  0  0  0  0  0  0  0  0  0
   39.8420   22.7750   37.6940 C   0  0  0  0  0  0  0  0  0  0  0  0
   39.4590   22.8580   36.3770 N   0  0  0  0  0  0  0  0  0  0  0  0
   38.3370   23.4530   35.9700 C   0  0  0  0  0  0  0  0  0  0  0  0
   37.5060   24.0150   36.8760 N   0  0  0  0  0  0  0  0  0  0  0  0
   37.1030   24.4420   38.8420 H   0  0  0  0  0  0  0  0  0  0  0  0
   39.1920   23.3440   39.6900 H   0  0  0  0  0  0  0  0  0  0  0  0
   40.7500   22.2920   38.0130 H   0  0  0  0  0  0  0  0  0  0  0  0
   37.9950   24.6310   33.9140 C   0  0  0  0  0  0  0  0  0  0  0  0
   37.7910   24.4500   32.8450 H   0  0  0  0  0  0  0  0  0  0  0  0
   37.1120   25.1760   34.3070 H   0  0  0  0  0  0  0  0  0  0  0  0
   39.2130   25.5010   34.0920 C   0  0  0  0  0  0  0  0  0  0  0  0
   39.7830   25.1940   34.9680 H   0  0  0  0  0  0  0  0  0  0  0  0
   39.7940   25.5220   33.1570 H   0  0  0  0  0  0  0  0  0  0  0  0
   38.6900   26.9130   34.3610 C   0  0  0  0  0  3  0  0  0  0  0  0
   37.4000   27.0750   35.0690 C   0  0  0  0  0  2  0  0  0  0  0  0
   38.6640   27.3640   35.8130 C   0  0  0  0  0  2  0  0  0  0  0  0
  1  6  1  0  0  0  0
  2  3  1  0  0  0  0
  2  8  1  0  0  0  0
  3  9  1  0  0  0  0
  4 10  1  0  0  0  0
  4  3  2  0  0  0  0
  5  4  1  0  0  0  0
  6  5  2  0  0  0  0
  6  7  1  0  0  0  0
  7  2  2  0  0  0  0
 11 14  1  0  0  0  0
 11 13  1  0  0  0  0
 11  1  1  0  0  0  0
 12 11  1  0  0  0  0
 14 17  1  0  0  0  0
 14 15  1  0  0  0  0
 16 14  1  0  0  0  0
 17 18  1  0  0  0  0
 17 19  1  0  0  0  0
 18 19  1  0  0  0  0
M  END
>  <minimizedAffinity>
-3.63703346

$$$$

 OpenBabel03272509483D

 19 20  0  0  0  0  0  0  0  0999 V2000
   38.1590   25.5420   33.7140 O   0  0  0  0  0  0  0  0  0  0  0  0
   35.8160   24.0550   31.3910 C   0  0  0  0  0  0  0  0  0  0  0  0
   35.2120   25.2070   30.8940 C   0  0  0  0  0  0  0  0  0  0  0  0
   35.6340   26.4430   31.3760 C   0  0  0  0  0  0  0  0  0  0  0  0
   36.6310   26.4210   32.3210 N   0  0  0  0  0  0  0  0  0  0  0  0
   37.1900   25.3010   32.7780 C   0  0  0  0  0  0  0  0  0  0  0  0
   36.7790   24.1020   32.3090 N   0  0  0  0  0  0  0  0  0  0  0  0
   35.5360   23.0540   31.0590 H   0  0  0  0  0  0  0  0  0  0  0  0
   34.4310   25.1120   30.1460 H   0  0  0  0  0  0  0  0  0  0  0  0
   35.1870   27.3540   31.0120 H   0  0  0  0  0  0  0  0  0  0  0  0
   38.3330   24.5910   34.7590 C   0  0  0  0  0  0  0  0  0  0  0  0
   37.7150   23.6940   34.5830 H   0  0  0  0  0  0  0  0  0  0  0  0
   39.3840   24.2370   34.7940 H   0  0  0  0  0  0  0  0  0  0  0  0
   37.9970   25.2270   36.0830 C   0  0  0  0  0  0  0  0  0  0  0  0
   38.8620   25.7460   36.4930 H   0  0  0  0  0  0  0  0  0  0  0  0
   37.1000   25.8560   35.9750 H   0  0  0  0  0  0  0  0  0  0  0  0
   37.6630   24.0760   37.0340 C   0  0  0  0  0  3  0  0  0  0  0  0
   38.7710   23.3410   37.6830 C   0  0  0  0  0  2  0  0  0  0  0  0
   37.9720   24.2990   38.5060 C   0  0  0  0  0  2  0  0  0  0  0  0
  1 11  1  0  0  0  0
  2  7  1  0  0  0  0
  3  4  1  0  0  0  0
  3  2  2  0  0  0  0
  4  5  2  0  0  0  0
  5  6  1  0  0  0  0
  6  1  1  0  0  0  0
  7  6  2  0  0  0  0
  8  2  1  0  0  0  0
  9  3  1  0  0  0  0
 10  4  1  0  0  0  0
 11 13  1  0  0  0  0
 11 14  1  0  0  0  0
 12 11  1  0  0  0  0
 14 15  1  0  0  0  0
 14 17  1  0  0  0  0
 16 14  1  0  0  0  0
 17 18  1  0  0  0  0
 17 19  1  0  0  0  0
 18 19  1  0  0  0  0
M  END
>  <minimizedAffinity>
-3.59594393

$$$$

 OpenBabel03272509483D

 19 20  0  0  0  0  0  0  0  0999 V2000
   38.3630   24.9100   33.6370 O   0  0  0  0  0  0  0  0  0  0  0  0
   35.7720   26.2100   31.4710 C   0  0  0  0  0  0  0  0  0  0  0  0
   35.2570   25.0160   30.9750 C   0  0  0  0  0  0  0  0  0  0  0  0
   35.8180   23.8170   31.4050 C   0  0  0  0  0  0  0  0  0  0  0  0
   36.8570   23.9160   32.3000 N   0  0  0  0  0  0  0  0  0  0  0  0
   37.3290   25.0760   32.7570 C   0  0  0  0  0  0  0  0  0  0  0  0
   36.7810   26.2390   32.3390 N   0  0  0  0  0  0  0  0  0  0  0  0
   35.3800   27.1860   31.1780 H   0  0  0  0  0  0  0  0  0  0  0  0
   34.4320   25.0500   30.2700 H   0  0  0  0  0  0  0  0  0  0  0  0
   35.4440   22.8750   31.0410 H   0  0  0  0  0  0  0  0  0  0  0  0
   38.1620   24.0530   34.7560 C   0  0  0  0  0  0  0  0  0  0  0  0
   37.2210   23.4850   34.6530 H   0  0  0  0  0  0  0  0  0  0  0  0
   38.9710   23.2980   34.8220 H   0  0  0  0  0  0  0  0  0  0  0  0
   38.1630   24.8690   36.0230 C   0  0  0  0  0  0  0  0  0  0  0  0
   39.1650   25.2350   36.2460 H   0  0  0  0  0  0  0  0  0  0  0  0
   37.3960   25.6550   35.9590 H   0  0  0  0  0  0  0  0  0  0  0  0
   37.7700   23.9070   37.1470 C   0  0  0  0  0  3  0  0  0  0  0  0
   38.8340   23.3270   37.9950 C   0  0  0  0  0  2  0  0  0  0  0  0
   37.9730   24.4050   38.5690 C   0  0  0  0  0  2  0  0  0  0  0  0
  1 11  1  0  0  0  0
  2  7  1  0  0  0  0
  3  4  1  0  0  0  0
  3  2  2  0  0  0  0
  4  5  2  0  0  0  0
  5  6  1  0  0  0  0
  6  1  1  0  0  0  0
  7  6  2  0  0  0  0
  8  2  1  0  0  0  0
  9  3  1  0  0  0  0
 10  4  1  0  0  0  0
 11 13  1  0  0  0  0
 11 14  1  0  0  0  0
 12 11  1  0  0  0  0
 14 15  1  0  0  0  0
 14 17  1  0  0  0  0
 16 14  1  0  0  0  0
 17 18  1  0  0  0  0
 17 19  1  0  0  0  0
 18 19  1  0  0  0  0
M  END
>  <minimizedAffinity>
-3.59315419

$$$$

 OpenBabel03272509483D

 19 20  0  0  0  0  0  0  0  0999 V2000
   38.1730   24.2850   34.7570 O   0  0  0  0  0  0  0  0  0  0  0  0
   39.7720   22.8330   37.6610 C   0  0  0  0  0  0  0  0  0  0  0  0
   38.9580   23.3530   38.6640 C   0  0  0  0  0  0  0  0  0  0  0  0
   37.8970   24.1780   38.3020 C   0  0  0  0  0  0  0  0  0  0  0  0
   37.7390   24.4140   36.9580 N   0  0  0  0  0  0  0  0  0  0  0  0
   38.5360   23.9020   36.0190 C   0  0  0  0  0  0  0  0  0  0  0  0
   39.5660   23.1010   36.3730 N   0  0  0  0  0  0  0  0  0  0  0  0
   40.6210   22.1800   37.8720 H   0  0  0  0  0  0  0  0  0  0  0  0
   39.1710   23.1020   39.6990 H   0  0  0  0  0  0  0  0  0  0  0  0
   37.2480   24.5960   39.0530 H   0  0  0  0  0  0  0  0  0  0  0  0
   37.8600   25.6560   34.5360 C   0  0  0  0  0  0  0  0  0  0  0  0
   36.8070   25.7750   34.2260 H   0  0  0  0  0  0  0  0  0  0  0  0
   37.9710   26.2390   35.4740 H   0  0  0  0  0  0  0  0  0  0  0  0
   38.7950   26.2280   33.5030 C   0  0  0  0  0  0  0  0  0  0  0  0
   39.3180   25.4330   32.9720 H   0  0  0  0  0  0  0  0  0  0  0  0
   38.2470   26.9240   32.8500 H   0  0  0  0  0  0  0  0  0  0  0  0
   39.8470   27.0250   34.2770 C   0  0  0  0  0  3  0  0  0  0  0  0
   41.0900   26.3450   34.7000 C   0  0  0  0  0  2  0  0  0  0  0  0
   41.1560   27.3040   33.5560 C   0  0  0  0  0  2  0  0  0  0  0  0
  1  6  1  0  0  0  0
  2  8  1  0  0  0  0
  2  3  1  0  0  0  0
  3  9  1  0  0  0  0
  4  3  2  0  0  0  0
  4 10  1  0  0  0  0
  5  4  1  0  0  0  0
  6  7  1  0  0  0  0
  6  5  2  0  0  0  0
  7  2  2  0  0  0  0
 11  1  1  0  0  0  0
 11 13  1  0  0  0  0
 12 11  1  0  0  0  0
 14 17  1  0  0  0  0
 14 11  1  0  0  0  0
 15 14  1  0  0  0  0
 16 14  1  0  0  0  0
 17 18  1  0  0  0  0
 19 17  1  0  0  0  0
 19 18  1  0  0  0  0
M  END
>  <minimizedAffinity>
-3.50344419

$$$$

 OpenBabel03272509483D

 19 20  0  0  0  0  0  0  0  0999 V2000
   37.5550   21.8800   34.8520 O   0  0  0  0  0  0  0  0  0  0  0  0
   39.9940   22.6690   37.4070 C   0  0  0  0  0  0  0  0  0  0  0  0
   39.1700   23.3010   38.3330 C   0  0  0  0  0  0  0  0  0  0  0  0
   37.8140   23.4300   38.0440 C   0  0  0  0  0  0  0  0  0  0  0  0
   37.3960   22.9120   36.8420 N   0  0  0  0  0  0  0  0  0  0  0  0
   38.2090   22.3100   35.9730 C   0  0  0  0  0  0  0  0  0  0  0  0
   39.5250   22.1860   36.2570 N   0  0  0  0  0  0  0  0  0  0  0  0
   41.0650   22.5330   37.5680 H   0  0  0  0  0  0  0  0  0  0  0  0
   39.6030   23.6760   39.2550 H   0  0  0  0  0  0  0  0  0  0  0  0
   37.1490   23.9140   38.7390 H   0  0  0  0  0  0  0  0  0  0  0  0
   38.1770   22.0920   33.5890 C   0  0  0  0  0  0  0  0  0  0  0  0
   39.2740   22.1610   33.6970 H   0  0  0  0  0  0  0  0  0  0  0  0
   37.9890   21.2340   32.9110 H   0  0  0  0  0  0  0  0  0  0  0  0
   37.6180   23.3380   32.9530 C   0  0  0  0  0  0  0  0  0  0  0  0
   36.8770   23.8040   33.6010 H   0  0  0  0  0  0  0  0  0  0  0  0
   38.4420   24.0040   32.6540 H   0  0  0  0  0  0  0  0  0  0  0  0
   36.8920   22.8790   31.6870 C   0  0  0  0  0  3  0  0  0  0  0  0
   35.5510   22.2660   31.8150 C   0  0  0  0  0  2  0  0  0  0  0  0
   35.6500   23.6630   31.2930 C   0  0  0  0  0  2  0  0  0  0  0  0
  1  6  1  0  0  0  0
  2  8  1  0  0  0  0
  2  3  1  0  0  0  0
  3  9  1  0  0  0  0
  4  3  2  0  0  0  0
  4 10  1  0  0  0  0
  5  4  1  0  0  0  0
  6  7  1  0  0  0  0
  6  5  2  0  0  0  0
  7  2  2  0  0  0  0
 11 12  1  0  0  0  0
 11  1  1  0  0  0  0
 13 11  1  0  0  0  0
 14 11  1  0  0  0  0
 14 15  1  0  0  0  0
 16 14  1  0  0  0  0
 17 18  1  0  0  0  0
 17 14  1  0  0  0  0
 19 17  1  0  0  0  0
 19 18  1  0  0  0  0
M  END
>  <minimizedAffinity>
-3.48328233

$$$$

 OpenBabel03272509483D

 19 20  0  0  0  0  0  0  0  0999 V2000
   39.2170   22.9670   37.3150 O   0  0  0  0  0  0  0  0  0  0  0  0
   42.5020   22.9930   35.7960 C   0  0  0  0  0  0  0  0  0  0  0  0
   43.0440   21.8550   36.3850 C   0  0  0  0  0  0  0  0  0  0  0  0
   42.2610   21.1260   37.2770 C   0  0  0  0  0  0  0  0  0  0  0  0
   40.9930   21.6040   37.5050 N   0  0  0  0  0  0  0  0  0  0  0  0
   40.5010   22.6990   36.9260 C   0  0  0  0  0  0  0  0  0  0  0  0
   41.2630   23.4040   36.0600 N   0  0  0  0  0  0  0  0  0  0  0  0
   43.0580   23.6110   35.0890 H   0  0  0  0  0  0  0  0  0  0  0  0
   44.0600   21.5640   36.1340 H   0  0  0  0  0  0  0  0  0  0  0  0
   42.6500   20.2400   37.7500 H   0  0  0  0  0  0  0  0  0  0  0  0
   38.3340   23.5480   36.3610 C   0  0  0  0  0  0  0  0  0  0  0  0
   38.7650   23.5020   35.3460 H   0  0  0  0  0  0  0  0  0  0  0  0
   37.3800   22.9830   36.3150 H   0  0  0  0  0  0  0  0  0  0  0  0
   38.0300   24.9700   36.7550 C   0  0  0  0  0  0  0  0  0  0  0  0
   36.9680   25.0960   36.9600 H   0  0  0  0  0  0  0  0  0  0  0  0
   38.6900   25.2760   37.5810 H   0  0  0  0  0  0  0  0  0  0  0  0
   38.3640   25.8290   35.5340 C   0  0  0  0  0  3  0  0  0  0  0  0
   37.4120   26.8850   35.1210 C   0  0  0  0  0  2  0  0  0  0  0  0
   38.6810   27.2920   35.7970 C   0  0  0  0  0  2  0  0  0  0  0  0
  2  7  2  0  0  0  0
  2  3  1  0  0  0  0
  3  4  2  0  0  0  0
  4  5  1  0  0  0  0
  4 10  1  0  0  0  0
  6  1  1  0  0  0  0
  6  5  2  0  0  0  0
  7  6  1  0  0  0  0
  8  2  1  0  0  0  0
  9  3  1  0  0  0  0
 11 14  1  0  0  0  0
 11  1  1  0  0  0  0
 12 11  1  0  0  0  0
 13 11  1  0  0  0  0
 14 15  1  0  0  0  0
 14 16  1  0  0  0  0
 17 19  1  0  0  0  0
 17 14  1  0  0  0  0
 18 17  1  0  0  0  0
 18 19  1  0  0  0  0
M  END
>  <minimizedAffinity>
-3.44709778

$$$$

 OpenBabel03272509483D

 19 20  0  0  0  0  0  0  0  0999 V2000
   36.5110   24.2520   31.1130 O   0  0  0  0  0  0  0  0  0  0  0  0
   37.1490   26.7060   33.6950 C   0  0  0  0  0  0  0  0  0  0  0  0
   36.5450   27.8190   33.1180 C   0  0  0  0  0  0  0  0  0  0  0  0
   35.9450   27.6820   31.8700 C   0  0  0  0  0  0  0  0  0  0  0  0
   36.0010   26.4330   31.3000 N   0  0  0  0  0  0  0  0  0  0  0  0
   36.5870   25.3840   31.8780 C   0  0  0  0  0  0  0  0  0  0  0  0
   37.1690   25.5200   33.0900 N   0  0  0  0  0  0  0  0  0  0  0  0
   37.6380   26.7420   34.6700 H   0  0  0  0  0  0  0  0  0  0  0  0
   36.5570   28.7630   33.6550 H   0  0  0  0  0  0  0  0  0  0  0  0
   35.4680   28.5240   31.3950 H   0  0  0  0  0  0  0  0  0  0  0  0
   35.4480   23.3390   31.3700 C   0  0  0  0  0  0  0  0  0  0  0  0
   34.8830   23.6350   32.2710 H   0  0  0  0  0  0  0  0  0  0  0  0
   34.7180   23.3430   30.5340 H   0  0  0  0  0  0  0  0  0  0  0  0
   36.0040   21.9470   31.5140 C   0  0  0  0  0  0  0  0  0  0  0  0
   36.0820   21.4590   30.5440 H   0  0  0  0  0  0  0  0  0  0  0  0
   36.9460   21.9790   32.0820 H   0  0  0  0  0  0  0  0  0  0  0  0
   34.9780   21.1640   32.3360 C   0  0  0  0  0  3  0  0  0  0  0  0
   34.8850   19.6980   32.1540 C   0  0  0  0  0  2  0  0  0  0  0  0
   35.5290   20.2240   33.3960 C   0  0  0  0  0  2  0  0  0  0  0  0
  1 11  1  0  0  0  0
  1  6  1  0  0  0  0
  2  8  1  0  0  0  0
  3  9  1  0  0  0  0
  3  2  1  0  0  0  0
  4  3  2  0  0  0  0
  5  4  1  0  0  0  0
  5  6  2  0  0  0  0
  6  7  1  0  0  0  0
  7  2  2  0  0  0  0
 10  4  1  0  0  0  0
 11 14  1  0  0  0  0
 11 12  1  0  0  0  0
 13 11  1  0  0  0  0
 14 16  1  0  0  0  0
 14 17  1  0  0  0  0
 15 14  1  0  0  0  0
 17 19  1  0  0  0  0
 18 17  1  0  0  0  0
 18 19  1  0  0  0  0
M  END
>  <minimizedAffinity>
-3.44078445

$$$$

 OpenBabel03272509483D

 19 20  0  0  0  0  0  0  0  0999 V2000
   37.4470   25.6480   35.8440 O   0  0  0  0  0  0  0  0  0  0  0  0
   40.0440   23.1970   36.4310 C   0  0  0  0  0  0  0  0  0  0  0  0
   39.7320   22.8300   37.7360 C   0  0  0  0  0  0  0  0  0  0  0  0
   38.6450   23.4370   38.3600 C   0  0  0  0  0  0  0  0  0  0  0  0
   37.9590   24.3670   37.6180 N   0  0  0  0  0  0  0  0  0  0  0  0
   38.2810   24.6990   36.3680 C   0  0  0  0  0  0  0  0  0  0  0  0
   39.3370   24.1080   35.7650 N   0  0  0  0  0  0  0  0  0  0  0  0
   40.8810   22.7620   35.8810 H   0  0  0  0  0  0  0  0  0  0  0  0
   40.3410   22.0810   38.2340 H   0  0  0  0  0  0  0  0  0  0  0  0
   38.3770   23.1760   39.3700 H   0  0  0  0  0  0  0  0  0  0  0  0
   37.6250   26.0190   34.4810 C   0  0  0  0  0  0  0  0  0  0  0  0
   38.6890   25.9640   34.1930 H   0  0  0  0  0  0  0  0  0  0  0  0
   37.0880   25.3160   33.8100 H   0  0  0  0  0  0  0  0  0  0  0  0
   37.0760   27.4050   34.2590 C   0  0  0  0  0  0  0  0  0  0  0  0
   36.0180   27.4480   34.5160 H   0  0  0  0  0  0  0  0  0  0  0  0
   37.7010   28.1400   34.7880 H   0  0  0  0  0  0  0  0  0  0  0  0
   37.1910   27.6720   32.7570 C   0  0  0  0  0  3  0  0  0  0  0  0
   35.9950   27.4910   31.9060 C   0  0  0  0  0  2  0  0  0  0  0  0
   36.4430   28.8820   32.2220 C   0  0  0  0  0  2  0  0  0  0  0  0
  1  6  1  0  0  0  0
  2  3  1  0  0  0  0
  3  9  1  0  0  0  0
  3  4  2  0  0  0  0
  4 10  1  0  0  0  0
  5  4  1  0  0  0  0
  6  5  2  0  0  0  0
  7  6  1  0  0  0  0
  7  2  2  0  0  0  0
  8  2  1  0  0  0  0
 11  1  1  0  0  0  0
 12 11  1  0  0  0  0
 13 11  1  0  0  0  0
 14 11  1  0  0  0  0
 14 15  1  0  0  0  0
 14 16  1  0  0  0  0
 17 14  1  0  0  0  0
 18 19  1  0  0  0  0
 18 17  1  0  0  0  0
 19 17  1  0  0  0  0
M  END
>  <minimizedAffinity>
-3.4079802

$$$$
