
 OpenBabel03272506313D

 28 30  0  0  1  0  0  0  0  0999 V2000
   38.7470   22.9660   35.6370 C   0  0  1  0  0  0  0  0  0  0  0  0
   38.6390   24.3980   35.3600 C   0  0  0  0  0  0  0  0  0  0  0  0
   37.9700   25.2450   36.4070 C   0  0  0  0  0  0  0  0  0  0  0  0
   38.1840   24.8420   37.8100 C   0  0  0  0  0  0  0  0  0  0  0  0
   38.2310   23.4080   38.0940 C   0  0  0  0  0  0  0  0  0  0  0  0
   39.0350   22.6370   37.0740 C   0  0  2  0  0  0  0  0  0  0  0  0
   39.6560   22.5680   35.0770 H   0  0  0  0  0  0  0  0  0  0  0  0
   38.1680   24.7080   34.4190 H   0  0  0  0  0  0  0  0  0  0  0  0
   39.6900   24.8180   35.2120 H   0  0  0  0  0  0  0  0  0  0  0  0
   36.8670   25.2840   36.2160 H   0  0  0  0  0  0  0  0  0  0  0  0
   38.3210   26.2890   36.2730 H   0  0  0  0  0  0  0  0  0  0  0  0
   39.0870   25.3450   38.2200 H   0  0  0  0  0  0  0  0  0  0  0  0
   37.3460   25.2930   38.4190 H   0  0  0  0  0  0  0  0  0  0  0  0
   38.6880   23.1960   39.0760 H   0  0  0  0  0  0  0  0  0  0  0  0
   37.1760   23.0130   38.1780 H   0  0  0  0  0  0  0  0  0  0  0  0
   38.6860   21.6040   37.2500 H   0  0  0  0  0  0  0  0  0  0  0  0
   36.6660   21.4990   35.8780 C   0  0  0  0  0  0  0  0  0  0  0  0
   37.6540   22.1310   35.0770 C   0  0  0  0  0  0  0  0  0  0  0  0
   37.5620   21.9270   33.7150 C   0  0  0  0  0  0  0  0  0  0  0  0
   36.5680   21.1560   33.2050 N   0  0  0  0  0  0  0  0  0  0  0  0
   35.6460   20.5720   34.0160 C   0  0  0  0  0  0  0  0  0  0  0  0
   35.7040   20.7510   35.3590 N   0  0  0  0  0  0  0  0  0  0  0  0
   36.6760   21.6150   36.9420 H   0  0  0  0  0  0  0  0  0  0  0  0
   38.1580   22.2970   32.9090 H   0  0  0  0  0  0  0  0  0  0  0  0
   34.8430   19.9520   33.6350 H   0  0  0  0  0  0  0  0  0  0  0  0
   40.4540   22.6820   37.5060 C   0  0  0  0  0  3  0  0  0  0  0  0
   41.6340   22.8210   36.6430 C   0  0  0  0  0  2  0  0  0  0  0  0
   41.3700   21.5340   37.4530 C   0  0  0  0  0  2  0  0  0  0  0  0
  1  7  1  6  0  0  0
  1  6  1  0  0  0  0
  2  1  1  0  0  0  0
  2  3  1  0  0  0  0
  3  4  1  0  0  0  0
  4  5  1  0  0  0  0
  4 12  1  0  0  0  0
  4 13  1  0  0  0  0
  5 15  1  0  0  0  0
  5 14  1  0  0  0  0
  6 16  1  1  0  0  0
  6 26  1  0  0  0  0
  6  5  1  0  0  0  0
  8  2  1  0  0  0  0
  9  2  1  0  0  0  0
 10  3  1  0  0  0  0
 11  3  1  0  0  0  0
 17 23  1  0  0  0  0
 18  1  1  0  0  0  0
 18 17  2  0  0  0  0
 19 18  1  0  0  0  0
 20 19  2  0  0  0  0
 20 21  1  0  0  0  0
 21 22  2  0  0  0  0
 22 17  1  0  0  0  0
 24 19  1  0  0  0  0
 25 21  1  0  0  0  0
 27 28  1  0  0  0  0
 27 26  1  0  0  0  0
 28 26  1  0  0  0  0
M  END
>  <minimizedAffinity>
-4.67479801

$$$$

 OpenBabel03272506313D

 28 30  0  0  1  0  0  0  0  0999 V2000
   37.8710   26.5150   32.6950 C   0  0  1  0  0  0  0  0  0  0  0  0
   37.2150   27.7690   32.3240 C   0  0  0  0  0  0  0  0  0  0  0  0
   36.3250   28.4020   33.3570 C   0  0  0  0  0  0  0  0  0  0  0  0
   36.7410   28.2480   34.7640 C   0  0  0  0  0  0  0  0  0  0  0  0
   37.3420   26.9700   35.1470 C   0  0  0  0  0  0  0  0  0  0  0  0
   38.3290   26.4600   34.1240 C   0  0  2  0  0  0  0  0  0  0  0  0
   38.8350   26.4330   32.0940 H   0  0  0  0  0  0  0  0  0  0  0  0
   36.6180   27.7870   31.4040 H   0  0  0  0  0  0  0  0  0  0  0  0
   38.0200   28.5340   32.0620 H   0  0  0  0  0  0  0  0  0  0  0  0
   35.2820   28.0080   33.2530 H   0  0  0  0  0  0  0  0  0  0  0  0
   36.2480   29.4840   33.1190 H   0  0  0  0  0  0  0  0  0  0  0  0
   37.4040   29.0900   35.0620 H   0  0  0  0  0  0  0  0  0  0  0  0
   35.8250   28.4110   35.4040 H   0  0  0  0  0  0  0  0  0  0  0  0
   37.8910   27.0410   36.1010 H   0  0  0  0  0  0  0  0  0  0  0  0
   36.5210   26.2200   35.3440 H   0  0  0  0  0  0  0  0  0  0  0  0
   38.4060   25.3940   34.4030 H   0  0  0  0  0  0  0  0  0  0  0  0
   36.0290   25.2860   31.4160 C   0  0  0  0  0  0  0  0  0  0  0  0
   37.1510   25.2820   32.2870 C   0  0  0  0  0  0  0  0  0  0  0  0
   37.5550   24.0500   32.7600 C   0  0  0  0  0  0  0  0  0  0  0  0
   36.8910   22.9250   32.3930 N   0  0  0  0  0  0  0  0  0  0  0  0
   35.8210   22.9830   31.5560 C   0  0  0  0  0  0  0  0  0  0  0  0
   35.3950   24.1750   31.0700 N   0  0  0  0  0  0  0  0  0  0  0  0
   35.6610   26.2060   31.0110 H   0  0  0  0  0  0  0  0  0  0  0  0
   38.3650   23.7770   33.4020 H   0  0  0  0  0  0  0  0  0  0  0  0
   35.2720   22.1000   31.2480 H   0  0  0  0  0  0  0  0  0  0  0  0
   39.6430   27.0730   34.4360 C   0  0  0  0  0  3  0  0  0  0  0  0
   40.7860   27.2180   33.5260 C   0  0  0  0  0  2  0  0  0  0  0  0
   40.8530   26.3080   34.7710 C   0  0  0  0  0  2  0  0  0  0  0  0
  1  7  1  6  0  0  0
  1  6  1  0  0  0  0
  2  1  1  0  0  0  0
  2  3  1  0  0  0  0
  3  4  1  0  0  0  0
  4 12  1  0  0  0  0
  4  5  1  0  0  0  0
  4 13  1  0  0  0  0
  5 15  1  0  0  0  0
  5 14  1  0  0  0  0
  6 16  1  1  0  0  0
  6 26  1  0  0  0  0
  6  5  1  0  0  0  0
  8  2  1  0  0  0  0
  9  2  1  0  0  0  0
 10  3  1  0  0  0  0
 11  3  1  0  0  0  0
 17 18  1  0  0  0  0
 18  1  1  0  0  0  0
 18 19  2  0  0  0  0
 19 24  1  0  0  0  0
 20 19  1  0  0  0  0
 21 20  2  0  0  0  0
 22 17  2  0  0  0  0
 22 21  1  0  0  0  0
 23 17  1  0  0  0  0
 25 21  1  0  0  0  0
 26 28  1  0  0  0  0
 27 26  1  0  0  0  0
 27 28  1  0  0  0  0
M  END
>  <minimizedAffinity>
-4.42968225

$$$$

 OpenBabel03272506313D

 28 30  0  0  1  0  0  0  0  0999 V2000
   38.7170   24.7190   33.8660 C   0  0  1  0  0  0  0  0  0  0  0  0
   39.7560   25.6950   33.5410 C   0  0  0  0  0  0  0  0  0  0  0  0
   39.6430   27.0490   34.1850 C   0  0  0  0  0  0  0  0  0  0  0  0
   39.0920   27.0780   35.5530 C   0  0  0  0  0  0  0  0  0  0  0  0
   38.0100   26.1420   35.8590 C   0  0  0  0  0  0  0  0  0  0  0  0
   38.2560   24.7630   35.2940 C   0  0  2  0  0  0  0  0  0  0  0  0
   39.1670   23.6780   33.7550 H   0  0  0  0  0  0  0  0  0  0  0  0
   39.9470   25.9140   32.4820 H   0  0  0  0  0  0  0  0  0  0  0  0
   40.7670   25.2630   33.8470 H   0  0  0  0  0  0  0  0  0  0  0  0
   39.0250   27.7250   33.5420 H   0  0  0  0  0  0  0  0  0  0  0  0
   40.6540   27.5050   34.1920 H   0  0  0  0  0  0  0  0  0  0  0  0
   39.9100   26.9780   36.2990 H   0  0  0  0  0  0  0  0  0  0  0  0
   38.7110   28.1260   35.7370 H   0  0  0  0  0  0  0  0  0  0  0  0
   37.8690   26.0130   36.9450 H   0  0  0  0  0  0  0  0  0  0  0  0
   37.0320   26.5740   35.4930 H   0  0  0  0  0  0  0  0  0  0  0  0
   37.2410   24.3260   35.3250 H   0  0  0  0  0  0  0  0  0  0  0  0
   36.9050   25.8180   32.4340 C   0  0  0  0  0  0  0  0  0  0  0  0
   37.5820   24.6630   32.9090 C   0  0  0  0  0  0  0  0  0  0  0  0
   37.1250   23.4490   32.4390 C   0  0  0  0  0  0  0  0  0  0  0  0
   36.0820   23.3990   31.5720 N   0  0  0  0  0  0  0  0  0  0  0  0
   35.4680   24.5360   31.1480 C   0  0  0  0  0  0  0  0  0  0  0  0
   35.8890   25.7480   31.5870 N   0  0  0  0  0  0  0  0  0  0  0  0
   37.2070   26.7940   32.7570 H   0  0  0  0  0  0  0  0  0  0  0  0
   37.4650   22.4530   32.6240 H   0  0  0  0  0  0  0  0  0  0  0  0
   34.6320   24.5240   30.4570 H   0  0  0  0  0  0  0  0  0  0  0  0
   39.0660   24.0180   36.2890 C   0  0  0  0  0  3  0  0  0  0  0  0
   39.1870   22.5600   36.4130 C   0  0  0  0  0  2  0  0  0  0  0  0
   38.5200   23.4130   37.5120 C   0  0  0  0  0  2  0  0  0  0  0  0
  1  7  1  6  0  0  0
  1  6  1  0  0  0  0
  2  9  1  0  0  0  0
  2  1  1  0  0  0  0
  2  3  1  0  0  0  0
  3 11  1  0  0  0  0
  3  4  1  0  0  0  0
  4 13  1  0  0  0  0
  4  5  1  0  0  0  0
  4 12  1  0  0  0  0
  5 14  1  0  0  0  0
  6 16  1  1  0  0  0
  6  5  1  0  0  0  0
  6 26  1  0  0  0  0
  8  2  1  0  0  0  0
 10  3  1  0  0  0  0
 15  5  1  0  0  0  0
 17 23  1  0  0  0  0
 17 18  1  0  0  0  0
 18  1  1  0  0  0  0
 19 24  1  0  0  0  0
 19 18  2  0  0  0  0
 20 19  1  0  0  0  0
 21 20  2  0  0  0  0
 21 22  1  0  0  0  0
 22 17  2  0  0  0  0
 25 21  1  0  0  0  0
 26 27  1  0  0  0  0
 26 28  1  0  0  0  0
 27 28  1  0  0  0  0
M  END
>  <minimizedAffinity>
-4.42455626

$$$$

 OpenBabel03272506313D

 28 30  0  0  1  0  0  0  0  0999 V2000
   38.0790   25.9040   32.6370 C   0  0  1  0  0  0  0  0  0  0  0  0
   38.5290   26.6750   31.4790 C   0  0  0  0  0  0  0  0  0  0  0  0
   37.6620   27.8240   31.0480 C   0  0  0  0  0  0  0  0  0  0  0  0
   36.9700   28.5620   32.1220 C   0  0  0  0  0  0  0  0  0  0  0  0
   36.4660   27.7800   33.2520 C   0  0  0  0  0  0  0  0  0  0  0  0
   37.4480   26.7320   33.7190 C   0  0  2  0  0  0  0  0  0  0  0  0
   38.9980   25.4530   33.1380 H   0  0  0  0  0  0  0  0  0  0  0  0
   38.7430   26.1330   30.5490 H   0  0  0  0  0  0  0  0  0  0  0  0
   39.5620   27.1030   31.7090 H   0  0  0  0  0  0  0  0  0  0  0  0
   36.8950   27.4680   30.3150 H   0  0  0  0  0  0  0  0  0  0  0  0
   38.2980   28.5320   30.4760 H   0  0  0  0  0  0  0  0  0  0  0  0
   37.6070   29.3970   32.4860 H   0  0  0  0  0  0  0  0  0  0  0  0
   36.0960   29.0990   31.6500 H   0  0  0  0  0  0  0  0  0  0  0  0
   36.2460   28.4140   34.1280 H   0  0  0  0  0  0  0  0  0  0  0  0
   35.4720   27.3240   32.9710 H   0  0  0  0  0  0  0  0  0  0  0  0
   36.7940   26.0620   34.3060 H   0  0  0  0  0  0  0  0  0  0  0  0
   37.5030   23.4290   32.9260 C   0  0  0  0  0  0  0  0  0  0  0  0
   37.2810   24.6930   32.3170 C   0  0  0  0  0  0  0  0  0  0  0  0
   36.2690   24.7530   31.3810 C   0  0  0  0  0  0  0  0  0  0  0  0
   35.5460   23.6430   31.0830 N   0  0  0  0  0  0  0  0  0  0  0  0
   35.7990   22.4560   31.6950 C   0  0  0  0  0  0  0  0  0  0  0  0
   36.7850   22.3580   32.6210 N   0  0  0  0  0  0  0  0  0  0  0  0
   38.2720   23.3100   33.6620 H   0  0  0  0  0  0  0  0  0  0  0  0
   35.8960   25.5710   30.8030 H   0  0  0  0  0  0  0  0  0  0  0  0
   35.2380   21.5540   31.4750 H   0  0  0  0  0  0  0  0  0  0  0  0
   38.3600   27.3850   34.6900 C   0  0  0  0  0  3  0  0  0  0  0  0
   39.6650   26.8870   35.1450 C   0  0  0  0  0  2  0  0  0  0  0  0
   38.4640   27.0110   36.1070 C   0  0  0  0  0  2  0  0  0  0  0  0
  1  7  1  1  0  0  0
  1  6  1  0  0  0  0
  2  9  1  0  0  0  0
  2  1  1  0  0  0  0
  3  2  1  0  0  0  0
  3  4  1  0  0  0  0
  4 12  1  0  0  0  0
  4  5  1  0  0  0  0
  5  6  1  0  0  0  0
  5 14  1  0  0  0  0
  6 16  1  1  0  0  0
  6 26  1  0  0  0  0
  8  2  1  0  0  0  0
 10  3  1  0  0  0  0
 11  3  1  0  0  0  0
 13  4  1  0  0  0  0
 15  5  1  0  0  0  0
 17 23  1  0  0  0  0
 18  1  1  0  0  0  0
 18 17  2  0  0  0  0
 19 18  1  0  0  0  0
 20 19  2  0  0  0  0
 20 21  1  0  0  0  0
 21 22  2  0  0  0  0
 22 17  1  0  0  0  0
 24 19  1  0  0  0  0
 25 21  1  0  0  0  0
 26 27  1  0  0  0  0
 26 28  1  0  0  0  0
 27 28  1  0  0  0  0
M  END
>  <minimizedAffinity>
-4.32323885

$$$$

 OpenBabel03272506313D

 28 30  0  0  1  0  0  0  0  0999 V2000
   39.8950   25.0630   34.4520 C   0  0  1  0  0  0  0  0  0  0  0  0
   38.6100   24.9200   33.7680 C   0  0  0  0  0  0  0  0  0  0  0  0
   37.4740   25.7660   34.2710 C   0  0  0  0  0  0  0  0  0  0  0  0
   37.8290   27.1090   34.7690 C   0  0  0  0  0  0  0  0  0  0  0  0
   39.0860   27.2380   35.5060 C   0  0  0  0  0  0  0  0  0  0  0  0
   40.2180   26.4690   34.8670 C   0  0  2  0  0  0  0  0  0  0  0  0
   40.7190   24.8000   33.7100 H   0  0  0  0  0  0  0  0  0  0  0  0
   38.1810   23.9140   33.6800 H   0  0  0  0  0  0  0  0  0  0  0  0
   38.7570   25.1780   32.6660 H   0  0  0  0  0  0  0  0  0  0  0  0
   36.9260   25.2230   35.0810 H   0  0  0  0  0  0  0  0  0  0  0  0
   36.7390   25.8700   33.4460 H   0  0  0  0  0  0  0  0  0  0  0  0
   37.7920   27.8490   33.9400 H   0  0  0  0  0  0  0  0  0  0  0  0
   36.9900   27.4470   35.4460 H   0  0  0  0  0  0  0  0  0  0  0  0
   39.4210   28.2870   35.5730 H   0  0  0  0  0  0  0  0  0  0  0  0
   38.9200   26.9210   36.5780 H   0  0  0  0  0  0  0  0  0  0  0  0
   40.9420   26.4070   35.7000 H   0  0  0  0  0  0  0  0  0  0  0  0
   39.1400   23.6640   36.4550 C   0  0  0  0  0  0  0  0  0  0  0  0
   40.1420   24.0830   35.5410 C   0  0  0  0  0  0  0  0  0  0  0  0
   41.3970   23.5340   35.7130 C   0  0  0  0  0  0  0  0  0  0  0  0
   41.6230   22.6460   36.7130 N   0  0  0  0  0  0  0  0  0  0  0  0
   40.6280   22.2770   37.5630 C   0  0  0  0  0  0  0  0  0  0  0  0
   39.3820   22.7950   37.4250 N   0  0  0  0  0  0  0  0  0  0  0  0
   38.1430   24.0490   36.3800 H   0  0  0  0  0  0  0  0  0  0  0  0
   42.3020   23.6670   35.1600 H   0  0  0  0  0  0  0  0  0  0  0  0
   40.7820   21.5710   38.3710 H   0  0  0  0  0  0  0  0  0  0  0  0
   40.8270   27.3530   33.8430 C   0  0  0  0  0  3  0  0  0  0  0  0
   41.0480   27.0380   32.4260 C   0  0  0  0  0  2  0  0  0  0  0  0
   42.2250   27.2600   33.3990 C   0  0  0  0  0  2  0  0  0  0  0  0
  1  7  1  6  0  0  0
  1  6  1  0  0  0  0
  1 18  1  0  0  0  0
  2  3  1  0  0  0  0
  2  1  1  0  0  0  0
  3  4  1  0  0  0  0
  3 10  1  0  0  0  0
  4 13  1  0  0  0  0
  4  5  1  0  0  0  0
  5 14  1  0  0  0  0
  5 15  1  0  0  0  0
  6  5  1  0  0  0  0
  6 16  1  1  0  0  0
  8  2  1  0  0  0  0
  9  2  1  0  0  0  0
 11  3  1  0  0  0  0
 12  4  1  0  0  0  0
 17 22  1  0  0  0  0
 18 19  1  0  0  0  0
 18 17  2  0  0  0  0
 19 20  2  0  0  0  0
 20 21  1  0  0  0  0
 21 25  1  0  0  0  0
 22 21  2  0  0  0  0
 23 17  1  0  0  0  0
 24 19  1  0  0  0  0
 26  6  1  0  0  0  0
 27 28  1  0  0  0  0
 27 26  1  0  0  0  0
 28 26  1  0  0  0  0
M  END
>  <minimizedAffinity>
-4.30755138

$$$$

 OpenBabel03272506313D

 28 30  0  0  1  0  0  0  0  0999 V2000
   37.0820   21.9620   32.0930 C   0  0  1  0  0  0  0  0  0  0  0  0
   37.2460   21.5480   33.4860 C   0  0  0  0  0  0  0  0  0  0  0  0
   36.0700   20.8760   34.1390 C   0  0  0  0  0  0  0  0  0  0  0  0
   35.2420   20.0170   33.2700 C   0  0  0  0  0  0  0  0  0  0  0  0
   35.0290   20.4640   31.8940 C   0  0  0  0  0  0  0  0  0  0  0  0
   36.2880   21.0030   31.2550 C   0  0  2  0  0  0  0  0  0  0  0  0
   38.1120   21.9660   31.6050 H   0  0  0  0  0  0  0  0  0  0  0  0
   37.5660   22.3030   34.2160 H   0  0  0  0  0  0  0  0  0  0  0  0
   38.1220   20.8200   33.5460 H   0  0  0  0  0  0  0  0  0  0  0  0
   35.4050   21.6450   34.6090 H   0  0  0  0  0  0  0  0  0  0  0  0
   36.4530   20.2710   34.9860 H   0  0  0  0  0  0  0  0  0  0  0  0
   35.6290   18.9740   33.2800 H   0  0  0  0  0  0  0  0  0  0  0  0
   34.2320   19.9150   33.7660 H   0  0  0  0  0  0  0  0  0  0  0  0
   34.6760   19.6470   31.2430 H   0  0  0  0  0  0  0  0  0  0  0  0
   34.1950   21.2250   31.8770 H   0  0  0  0  0  0  0  0  0  0  0  0
   35.8770   21.5740   30.4030 H   0  0  0  0  0  0  0  0  0  0  0  0
   37.2450   24.4690   32.5760 C   0  0  0  0  0  0  0  0  0  0  0  0
   36.6490   23.3700   31.9010 C   0  0  0  0  0  0  0  0  0  0  0  0
   35.6150   23.6690   31.0380 C   0  0  0  0  0  0  0  0  0  0  0  0
   35.2140   24.9550   30.8690 N   0  0  0  0  0  0  0  0  0  0  0  0
   35.8190   25.9720   31.5400 C   0  0  0  0  0  0  0  0  0  0  0  0
   36.8400   25.7170   32.3960 N   0  0  0  0  0  0  0  0  0  0  0  0
   38.0540   24.3100   33.2600 H   0  0  0  0  0  0  0  0  0  0  0  0
   35.0230   23.0400   30.4090 H   0  0  0  0  0  0  0  0  0  0  0  0
   35.5190   27.0070   31.4250 H   0  0  0  0  0  0  0  0  0  0  0  0
   37.0160   19.8480   30.6760 C   0  0  0  0  0  3  0  0  0  0  0  0
   38.0190   19.8870   29.6040 C   0  0  0  0  0  2  0  0  0  0  0  0
   36.6540   19.1930   29.4110 C   0  0  0  0  0  2  0  0  0  0  0  0
  1  7  1  6  0  0  0
  1  2  1  0  0  0  0
  2  9  1  0  0  0  0
  2  3  1  0  0  0  0
  2  8  1  0  0  0  0
  3 10  1  0  0  0  0
  3 11  1  0  0  0  0
  4 12  1  0  0  0  0
  4 13  1  0  0  0  0
  4  3  1  0  0  0  0
  5  4  1  0  0  0  0
  6 16  1  6  0  0  0
  6  5  1  0  0  0  0
  6  1  1  0  0  0  0
 14  5  1  0  0  0  0
 15  5  1  0  0  0  0
 17 23  1  0  0  0  0
 18  1  1  0  0  0  0
 18 17  2  0  0  0  0
 19 18  1  0  0  0  0
 20 19  2  0  0  0  0
 20 21  1  0  0  0  0
 21 22  2  0  0  0  0
 22 17  1  0  0  0  0
 24 19  1  0  0  0  0
 25 21  1  0  0  0  0
 26  6  1  0  0  0  0
 27 26  1  0  0  0  0
 28 27  1  0  0  0  0
 28 26  1  0  0  0  0
M  END
>  <minimizedAffinity>
-4.29189014

$$$$

 OpenBabel03272506313D

 28 30  0  0  1  0  0  0  0  0999 V2000
   38.1220   26.5700   32.8750 C   0  0  1  0  0  0  0  0  0  0  0  0
   37.2110   27.6640   33.2100 C   0  0  0  0  0  0  0  0  0  0  0  0
   36.8880   27.8600   34.6650 C   0  0  0  0  0  0  0  0  0  0  0  0
   37.9740   27.5680   35.6210 C   0  0  0  0  0  0  0  0  0  0  0  0
   38.8470   26.4350   35.3150 C   0  0  0  0  0  0  0  0  0  0  0  0
   39.2400   26.3780   33.8580 C   0  0  2  0  0  0  0  0  0  0  0  0
   38.6530   26.8400   31.9040 H   0  0  0  0  0  0  0  0  0  0  0  0
   36.2340   27.6950   32.7090 H   0  0  0  0  0  0  0  0  0  0  0  0
   37.6650   28.6410   32.8340 H   0  0  0  0  0  0  0  0  0  0  0  0
   35.9980   27.2420   34.9440 H   0  0  0  0  0  0  0  0  0  0  0  0
   36.5610   28.9120   34.8000 H   0  0  0  0  0  0  0  0  0  0  0  0
   38.5800   28.4820   35.8050 H   0  0  0  0  0  0  0  0  0  0  0  0
   37.4920   27.3780   36.6250 H   0  0  0  0  0  0  0  0  0  0  0  0
   39.7880   26.4700   35.8900 H   0  0  0  0  0  0  0  0  0  0  0  0
   38.3440   25.4790   35.6480 H   0  0  0  0  0  0  0  0  0  0  0  0
   39.5870   25.3340   33.7620 H   0  0  0  0  0  0  0  0  0  0  0  0
   38.0210   24.0150   32.8080 C   0  0  0  0  0  0  0  0  0  0  0  0
   37.4630   25.2880   32.5150 C   0  0  0  0  0  0  0  0  0  0  0  0
   36.2500   25.2890   31.8560 C   0  0  0  0  0  0  0  0  0  0  0  0
   35.6540   24.1170   31.5200 N   0  0  0  0  0  0  0  0  0  0  0  0
   36.2310   22.9240   31.8230 C   0  0  0  0  0  0  0  0  0  0  0  0
   37.4210   22.8830   32.4710 N   0  0  0  0  0  0  0  0  0  0  0  0
   38.9590   23.9400   33.3190 H   0  0  0  0  0  0  0  0  0  0  0  0
   35.6240   26.0960   31.5420 H   0  0  0  0  0  0  0  0  0  0  0  0
   35.7760   21.9740   31.5650 H   0  0  0  0  0  0  0  0  0  0  0  0
   40.4390   27.2370   33.6930 C   0  0  0  0  0  3  0  0  0  0  0  0
   41.3670   27.2440   32.5550 C   0  0  0  0  0  2  0  0  0  0  0  0
   41.8150   26.7940   33.9620 C   0  0  0  0  0  2  0  0  0  0  0  0
  1  7  1  6  0  0  0
  1  2  1  0  0  0  0
  1  6  1  0  0  0  0
  2  3  1  0  0  0  0
  3 11  1  0  0  0  0
  3 10  1  0  0  0  0
  3  4  1  0  0  0  0
  4 12  1  0  0  0  0
  4 13  1  0  0  0  0
  5  4  1  0  0  0  0
  5 15  1  0  0  0  0
  5 14  1  0  0  0  0
  6 16  1  6  0  0  0
  6  5  1  0  0  0  0
  8  2  1  0  0  0  0
  9  2  1  0  0  0  0
 17 23  1  0  0  0  0
 18 17  1  0  0  0  0
 18  1  1  0  0  0  0
 19 18  2  0  0  0  0
 20 21  2  0  0  0  0
 20 19  1  0  0  0  0
 21 22  1  0  0  0  0
 22 17  2  0  0  0  0
 24 19  1  0  0  0  0
 25 21  1  0  0  0  0
 26  6  1  0  0  0  0
 26 28  1  0  0  0  0
 27 26  1  0  0  0  0
 27 28  1  0  0  0  0
M  END
>  <minimizedAffinity>
-4.27818871

$$$$

 OpenBabel03272506313D

 28 30  0  0  1  0  0  0  0  0999 V2000
   38.2230   26.2150   34.6510 C   0  0  1  0  0  0  0  0  0  0  0  0
   39.3400   26.9130   35.2850 C   0  0  0  0  0  0  0  0  0  0  0  0
   40.6150   27.0140   34.4940 C   0  0  0  0  0  0  0  0  0  0  0  0
   40.4700   27.1570   33.0330 C   0  0  0  0  0  0  0  0  0  0  0  0
   39.3880   26.4090   32.3930 C   0  0  0  0  0  0  0  0  0  0  0  0
   38.0980   26.4640   33.1760 C   0  0  2  0  0  0  0  0  0  0  0  0
   37.2560   26.6360   35.0830 H   0  0  0  0  0  0  0  0  0  0  0  0
   39.6630   26.5770   36.2780 H   0  0  0  0  0  0  0  0  0  0  0  0
   39.0110   27.9790   35.5250 H   0  0  0  0  0  0  0  0  0  0  0  0
   41.2610   26.1220   34.6990 H   0  0  0  0  0  0  0  0  0  0  0  0
   41.1890   27.8790   34.8870 H   0  0  0  0  0  0  0  0  0  0  0  0
   40.4110   28.2320   32.7560 H   0  0  0  0  0  0  0  0  0  0  0  0
   41.4460   26.8300   32.5670 H   0  0  0  0  0  0  0  0  0  0  0  0
   39.1580   26.7960   31.3850 H   0  0  0  0  0  0  0  0  0  0  0  0
   39.7250   25.3450   32.2200 H   0  0  0  0  0  0  0  0  0  0  0  0
   37.5400   25.6130   32.7450 H   0  0  0  0  0  0  0  0  0  0  0  0
   38.0480   23.7440   34.0140 C   0  0  0  0  0  0  0  0  0  0  0  0
   38.1060   24.7740   34.9910 C   0  0  0  0  0  0  0  0  0  0  0  0
   38.0380   24.3720   36.3090 C   0  0  0  0  0  0  0  0  0  0  0  0
   37.9220   23.0550   36.6180 N   0  0  0  0  0  0  0  0  0  0  0  0
   37.8710   22.1080   35.6430 C   0  0  0  0  0  0  0  0  0  0  0  0
   37.9360   22.4650   34.3370 N   0  0  0  0  0  0  0  0  0  0  0  0
   38.0960   23.9840   32.9710 H   0  0  0  0  0  0  0  0  0  0  0  0
   38.0770   24.9350   37.2160 H   0  0  0  0  0  0  0  0  0  0  0  0
   37.7780   21.0500   35.8620 H   0  0  0  0  0  0  0  0  0  0  0  0
   37.3810   27.6940   32.7560 C   0  0  0  0  0  3  0  0  0  0  0  0
   36.3180   28.3890   33.4940 C   0  0  0  0  0  2  0  0  0  0  0  0
   36.0470   27.7010   32.1390 C   0  0  0  0  0  2  0  0  0  0  0  0
  1 18  1  0  0  0  0
  1  7  1  1  0  0  0
  1  2  1  0  0  0  0
  2  9  1  0  0  0  0
  2  8  1  0  0  0  0
  3 10  1  0  0  0  0
  3 11  1  0  0  0  0
  3  2  1  0  0  0  0
  4  3  1  0  0  0  0
  5  4  1  0  0  0  0
  5  6  1  0  0  0  0
  6 16  1  6  0  0  0
  6  1  1  0  0  0  0
 12  4  1  0  0  0  0
 13  4  1  0  0  0  0
 14  5  1  0  0  0  0
 15  5  1  0  0  0  0
 17 22  2  0  0  0  0
 17 18  1  0  0  0  0
 18 19  2  0  0  0  0
 19 20  1  0  0  0  0
 19 24  1  0  0  0  0
 21 25  1  0  0  0  0
 21 20  2  0  0  0  0
 22 21  1  0  0  0  0
 23 17  1  0  0  0  0
 26  6  1  0  0  0  0
 26 27  1  0  0  0  0
 28 26  1  0  0  0  0
 28 27  1  0  0  0  0
M  END
>  <minimizedAffinity>
-4.25899553

$$$$

 OpenBabel03272506313D

 28 30  0  0  1  0  0  0  0  0999 V2000
   35.4040   29.9090   33.3620 C   0  0  1  0  0  0  0  0  0  0  0  0
   34.4840   30.2610   32.2820 C   0  0  0  0  0  0  0  0  0  0  0  0
   33.0200   30.0320   32.5330 C   0  0  0  0  0  0  0  0  0  0  0  0
   32.5520   30.2470   33.9160 C   0  0  0  0  0  0  0  0  0  0  0  0
   33.4490   29.8370   34.9970 C   0  0  0  0  0  0  0  0  0  0  0  0
   34.8870   30.2210   34.7370 C   0  0  2  0  0  0  0  0  0  0  0  0
   36.3300   30.5660   33.2620 H   0  0  0  0  0  0  0  0  0  0  0  0
   34.6600   29.8240   31.2900 H   0  0  0  0  0  0  0  0  0  0  0  0
   34.6130   31.3690   32.0430 H   0  0  0  0  0  0  0  0  0  0  0  0
   32.7390   28.9930   32.2240 H   0  0  0  0  0  0  0  0  0  0  0  0
   32.4510   30.6980   31.8520 H   0  0  0  0  0  0  0  0  0  0  0  0
   32.2390   31.3040   34.0560 H   0  0  0  0  0  0  0  0  0  0  0  0
   31.5820   29.6790   34.0320 H   0  0  0  0  0  0  0  0  0  0  0  0
   33.1730   30.2980   35.9600 H   0  0  0  0  0  0  0  0  0  0  0  0
   33.3390   28.7260   35.1680 H   0  0  0  0  0  0  0  0  0  0  0  0
   35.4230   29.5650   35.4460 H   0  0  0  0  0  0  0  0  0  0  0  0
   36.6700   27.9190   34.3530 C   0  0  0  0  0  0  0  0  0  0  0  0
   35.9870   28.5460   33.2760 C   0  0  0  0  0  0  0  0  0  0  0  0
   35.8890   27.8190   32.1070 C   0  0  0  0  0  0  0  0  0  0  0  0
   36.4300   26.5770   32.0260 N   0  0  0  0  0  0  0  0  0  0  0  0
   37.0740   26.0220   33.0870 C   0  0  0  0  0  0  0  0  0  0  0  0
   37.1890   26.7050   34.2530 N   0  0  0  0  0  0  0  0  0  0  0  0
   36.7820   28.4250   35.2900 H   0  0  0  0  0  0  0  0  0  0  0  0
   35.4210   28.0500   31.1750 H   0  0  0  0  0  0  0  0  0  0  0  0
   37.5160   25.0320   33.0500 H   0  0  0  0  0  0  0  0  0  0  0  0
   35.0680   31.6090   35.2280 C   0  0  0  0  0  3  0  0  0  0  0  0
   36.3010   32.2020   35.7610 C   0  0  0  0  0  2  0  0  0  0  0  0
   35.0550   31.9910   36.6480 C   0  0  0  0  0  2  0  0  0  0  0  0
  1  7  1  6  0  0  0
  1  6  1  0  0  0  0
  2  3  1  0  0  0  0
  2  1  1  0  0  0  0
  3  4  1  0  0  0  0
  4 13  1  0  0  0  0
  4 12  1  0  0  0  0
  4  5  1  0  0  0  0
  5 15  1  0  0  0  0
  5 14  1  0  0  0  0
  6  5  1  0  0  0  0
  6 26  1  0  0  0  0
  6 16  1  1  0  0  0
  8  2  1  0  0  0  0
  9  2  1  0  0  0  0
 10  3  1  0  0  0  0
 11  3  1  0  0  0  0
 17 23  1  0  0  0  0
 18  1  1  0  0  0  0
 18 17  2  0  0  0  0
 19 18  1  0  0  0  0
 20 19  2  0  0  0  0
 20 21  1  0  0  0  0
 21 22  2  0  0  0  0
 22 17  1  0  0  0  0
 24 19  1  0  0  0  0
 25 21  1  0  0  0  0
 26 27  1  0  0  0  0
 26 28  1  0  0  0  0
 27 28  1  0  0  0  0
M  END
>  <minimizedAffinity>
-4.24695635

$$$$
