
 OpenBabel03272505133D

 33 36  0  0  0  0  0  0  0  0999 V2000
   36.4060   30.8970   45.6980 Cl  0  0  0  0  0  0  0  0  0  0  0  0
   36.6890   30.7690   47.4130 C   0  0  0  0  0  0  0  0  0  0  0  0
   37.9460   31.0970   47.8770 C   0  0  0  0  0  0  0  0  0  0  0  0
   38.1790   30.9990   49.2370 C   0  0  0  0  0  0  0  0  0  0  0  0
   37.1890   30.5900   50.0730 C   0  0  0  0  0  0  0  0  0  0  0  0
   35.9340   30.2710   49.5410 C   0  0  0  0  0  0  0  0  0  0  0  0
   35.6270   30.3430   48.2120 C   0  0  0  0  0  0  0  0  0  0  0  0
   39.1640   31.2540   49.6070 H   0  0  0  0  0  0  0  0  0  0  0  0
   37.3970   30.5230   51.1240 H   0  0  0  0  0  0  0  0  0  0  0  0
   35.1540   29.9460   50.2260 H   0  0  0  0  0  0  0  0  0  0  0  0
   40.2070   33.3160   46.0750 C   0  0  0  0  0  0  0  0  0  0  0  0
   40.9200   32.4620   45.2120 C   0  0  0  0  0  0  0  0  0  0  0  0
   40.6030   31.1000   45.2650 C   0  0  0  0  0  0  0  0  0  0  0  0
   39.6380   30.6800   46.1350 N   0  0  0  0  0  0  0  0  0  0  0  0
   38.9940   31.5380   46.9300 C   0  0  0  0  0  0  0  0  0  0  0  0
   39.2750   32.8400   46.9010 N   0  0  0  0  0  0  0  0  0  0  0  0
   40.4890   34.3570   45.9950 H   0  0  0  0  0  0  0  0  0  0  0  0
   41.6800   32.7110   44.5110 H   0  0  0  0  0  0  0  0  0  0  0  0
   41.0660   30.3360   44.6650 H   0  0  0  0  0  0  0  0  0  0  0  0
   34.0590   29.9490   47.5240 S   0  0  0  0  0  0  0  0  0  0  0  0
   33.7650   29.1870   44.4900 Cl  0  0  0  0  0  0  0  0  0  0  0  0
   33.7940   27.9470   45.7370 C   0  0  0  0  0  0  0  0  0  0  0  0
   33.9220   28.2110   47.1000 C   0  0  0  0  0  0  0  0  0  0  0  0
   33.9330   27.1710   47.9960 C   0  0  0  0  0  0  0  0  0  0  0  0
   33.8210   25.8830   47.5660 C   0  0  0  0  0  0  0  0  0  0  0  0
   33.6930   25.5720   46.2270 C   0  0  0  0  0  0  0  0  0  0  0  0
   33.6830   26.6150   45.3470 C   0  0  0  0  0  0  0  0  0  0  0  0
   34.0370   27.4820   49.0270 H   0  0  0  0  0  0  0  0  0  0  0  0
   33.8370   25.1080   48.3210 H   0  0  0  0  0  0  0  0  0  0  0  0
   33.6080   24.5450   45.9440 H   0  0  0  0  0  0  0  0  0  0  0  0
   33.5450   26.3190   43.8970 C   0  0  0  0  0  3  0  0  0  0  0  0
   34.1730   25.0740   43.3930 C   0  0  0  0  0  2  0  0  0  0  0  0
   32.6320   25.2000   43.4500 C   0  0  0  0  0  2  0  0  0  0  0  0
  1  2  1  0  0  0  0
  2  3  2  0  0  0  0
  2  7  1  0  0  0  0
  3  4  1  0  0  0  0
  4  8  1  0  0  0  0
  4  5  2  0  0  0  0
  5  9  1  0  0  0  0
  6  5  1  0  0  0  0
  6 10  1  0  0  0  0
  7  6  2  0  0  0  0
 11 16  1  0  0  0  0
 12 13  1  0  0  0  0
 12 11  2  0  0  0  0
 13 14  2  0  0  0  0
 14 15  1  0  0  0  0
 15  3  1  0  0  0  0
 16 15  2  0  0  0  0
 17 11  1  0  0  0  0
 18 12  1  0  0  0  0
 19 13  1  0  0  0  0
 20  7  1  0  0  0  0
 21 22  1  0  0  0  0
 22 23  1  0  0  0  0
 23 20  1  0  0  0  0
 23 24  2  0  0  0  0
 24 28  1  0  0  0  0
 25 24  1  0  0  0  0
 25 29  1  0  0  0  0
 26 25  2  0  0  0  0
 27 22  2  0  0  0  0
 27 26  1  0  0  0  0
 30 26  1  0  0  0  0
 31 27  1  0  0  0  0
 32 33  1  0  0  0  0
 32 31  1  0  0  0  0
 33 31  1  0  0  0  0
M  END
>  <minimizedAffinity>
-5.61029959

>  <minimizedRMSD>
0.132089868

$$$$
