
 OpenBabel03272505333D

 34 37  0  0  0  0  0  0  0  0999 V2000
   36.0070   29.3080   34.2170 N   0  0  0  0  0  0  0  0  0  0  0  0
   36.7320   28.3130   34.7930 C   0  0  0  0  0  0  0  0  0  0  0  0
   37.4650   27.4150   34.0140 C   0  0  0  0  0  0  0  0  0  0  0  0
   37.4330   27.5660   32.6310 C   0  0  0  0  0  0  0  0  0  0  0  0
   38.0820   26.7730   31.9070 O   0  0  0  0  0  0  0  0  0  0  0  0
   36.6940   28.5790   32.0610 N   0  0  0  0  0  0  0  0  0  0  0  0
   36.0370   29.3730   32.8920 C   0  0  0  0  0  0  0  0  0  0  0  0
   35.3760   30.2810   32.3370 O   0  0  0  0  0  0  0  0  0  0  0  0
   36.7500   28.2050   35.8690 H   0  0  0  0  0  0  0  0  0  0  0  0
   35.1440   32.1270   36.4920 C   0  0  0  0  0  0  0  0  0  0  0  0
   35.8840   31.2230   35.7140 C   0  0  0  0  0  0  0  0  0  0  0  0
   35.2740   30.2060   34.9900 C   0  0  0  0  0  0  0  0  0  0  0  0
   33.9280   30.1370   35.0740 N   0  0  0  0  0  0  0  0  0  0  0  0
   33.1840   30.9960   35.8170 C   0  0  0  0  0  0  0  0  0  0  0  0
   33.8170   31.9850   36.5190 N   0  0  0  0  0  0  0  0  0  0  0  0
   35.6460   32.9110   37.0490 H   0  0  0  0  0  0  0  0  0  0  0  0
   36.9650   31.3000   35.6630 H   0  0  0  0  0  0  0  0  0  0  0  0
   32.0960   30.8950   35.8510 H   0  0  0  0  0  0  0  0  0  0  0  0
   38.2550   26.3370   34.5760 C   0  0  0  0  0  0  0  0  0  0  0  0
   39.5120   26.0000   34.1320 C   0  0  0  0  0  0  0  0  0  0  0  0
   40.2940   24.9840   34.6360 C   0  0  0  0  0  0  0  0  0  0  0  0
   39.7830   24.2250   35.6870 C   0  0  0  0  0  0  0  0  0  0  0  0
   38.5040   24.5900   36.1200 C   0  0  0  0  0  0  0  0  0  0  0  0
   37.7990   25.5920   35.5800 N   0  0  0  0  0  0  0  0  0  0  0  0
   39.9580   26.5630   33.3110 H   0  0  0  0  0  0  0  0  0  0  0  0
   41.2750   24.7710   34.2400 H   0  0  0  0  0  0  0  0  0  0  0  0
   40.3490   23.4150   36.1260 H   0  0  0  0  0  0  0  0  0  0  0  0
   37.9340   23.7890   37.2470 C   0  0  0  0  0  3  0  0  0  0  0  0
   38.8300   23.2460   38.3050 C   0  0  0  0  0  2  0  0  0  0  0  0
   37.9010   24.3790   38.6150 C   0  0  0  0  0  2  0  0  0  0  0  0
   36.6680   28.7250   30.6310 C   0  0  0  0  0  0  0  0  0  0  0  0
   37.9290   28.8980   30.1380 F   0  0  0  0  0  0  0  0  0  0  0  0
   35.9230   29.8050   30.1950 F   0  0  0  0  0  0  0  0  0  0  0  0
   36.1600   27.5430   30.0730 F   0  0  0  0  0  0  0  0  0  0  0  0
  1  2  1  0  0  0  0
  1 12  1  0  0  0  0
  2  9  1  0  0  0  0
  3 19  1  0  0  0  0
  3  2  2  0  0  0  0
  4  3  1  0  0  0  0
  5  4  2  0  0  0  0
  6  4  1  0  0  0  0
  6  7  1  0  0  0  0
  7  1  1  0  0  0  0
  8  7  2  0  0  0  0
 10 15  1  0  0  0  0
 10 16  1  0  0  0  0
 11 10  2  0  0  0  0
 12 13  2  0  0  0  0
 12 11  1  0  0  0  0
 13 14  1  0  0  0  0
 14 18  1  0  0  0  0
 14 15  2  0  0  0  0
 17 11  1  0  0  0  0
 19 24  1  0  0  0  0
 20 19  2  0  0  0  0
 20 21  1  0  0  0  0
 21 22  2  0  0  0  0
 22 23  1  0  0  0  0
 22 27  1  0  0  0  0
 23 28  1  0  0  0  0
 24 23  2  0  0  0  0
 25 20  1  0  0  0  0
 26 21  1  0  0  0  0
 28 29  1  0  0  0  0
 28 30  1  0  0  0  0
 29 30  1  0  0  0  0
 31  6  1  0  0  0  0
 32 31  1  0  0  0  0
 33 31  1  0  0  0  0
 34 31  1  0  0  0  0
M  END
>  <minimizedAffinity>
-6.38085079

$$$$

 OpenBabel03272505333D

 34 37  0  0  0  0  0  0  0  0999 V2000
   37.2640   25.2670   32.4890 N   0  0  0  0  0  0  0  0  0  0  0  0
   37.8700   25.0590   33.6880 C   0  0  0  0  0  0  0  0  0  0  0  0
   37.9790   23.7740   34.2240 C   0  0  0  0  0  0  0  0  0  0  0  0
   37.4510   22.7100   33.4970 C   0  0  0  0  0  0  0  0  0  0  0  0
   37.5350   21.5450   33.9550 O   0  0  0  0  0  0  0  0  0  0  0  0
   36.8410   22.9360   32.2830 N   0  0  0  0  0  0  0  0  0  0  0  0
   36.7920   24.1930   31.8690 C   0  0  0  0  0  0  0  0  0  0  0  0
   36.2290   24.3590   30.7620 O   0  0  0  0  0  0  0  0  0  0  0  0
   38.2760   25.8920   34.2460 H   0  0  0  0  0  0  0  0  0  0  0  0
   38.0420   28.3980   30.6300 C   0  0  0  0  0  0  0  0  0  0  0  0
   38.1560   27.1080   31.1720 C   0  0  0  0  0  0  0  0  0  0  0  0
   37.1530   26.5460   31.9500 C   0  0  0  0  0  0  0  0  0  0  0  0
   36.0580   27.3100   32.1570 N   0  0  0  0  0  0  0  0  0  0  0  0
   35.9160   28.5610   31.6470 C   0  0  0  0  0  0  0  0  0  0  0  0
   36.9260   29.0830   30.8840 N   0  0  0  0  0  0  0  0  0  0  0  0
   38.8410   28.8120   30.0250 H   0  0  0  0  0  0  0  0  0  0  0  0
   39.0470   26.5140   30.9910 H   0  0  0  0  0  0  0  0  0  0  0  0
   35.0090   29.1370   31.8440 H   0  0  0  0  0  0  0  0  0  0  0  0
   38.6140   23.4950   35.4980 C   0  0  0  0  0  0  0  0  0  0  0  0
   37.9790   23.6260   36.7110 C   0  0  0  0  0  0  0  0  0  0  0  0
   38.5440   23.3730   37.9420 C   0  0  0  0  0  0  0  0  0  0  0  0
   39.8700   22.9470   37.9770 C   0  0  0  0  0  0  0  0  0  0  0  0
   40.4910   22.8210   36.7300 C   0  0  0  0  0  0  0  0  0  0  0  0
   39.8780   23.0870   35.5700 N   0  0  0  0  0  0  0  0  0  0  0  0
   36.9400   23.9570   36.7380 H   0  0  0  0  0  0  0  0  0  0  0  0
   37.9900   23.4970   38.8590 H   0  0  0  0  0  0  0  0  0  0  0  0
   40.3690   22.7320   38.9120 H   0  0  0  0  0  0  0  0  0  0  0  0
   41.9150   22.3650   36.7430 C   0  0  0  0  0  3  0  0  0  0  0  0
   42.2510   20.9780   37.1660 C   0  0  0  0  0  2  0  0  0  0  0  0
   42.3710   21.3750   35.7280 C   0  0  0  0  0  2  0  0  0  0  0  0
   36.3000   21.8310   31.5410 C   0  0  0  0  0  0  0  0  0  0  0  0
   35.3390   22.2550   30.6690 F   0  0  0  0  0  0  0  0  0  0  0  0
   35.7110   20.8630   32.3350 F   0  0  0  0  0  0  0  0  0  0  0  0
   37.3300   21.2580   30.7820 F   0  0  0  0  0  0  0  0  0  0  0  0
  1  2  1  0  0  0  0
  2  3  2  0  0  0  0
  2  9  1  0  0  0  0
  3 19  1  0  0  0  0
  4  5  2  0  0  0  0
  4  3  1  0  0  0  0
  6  4  1  0  0  0  0
  7  6  1  0  0  0  0
  7  1  1  0  0  0  0
  8  7  2  0  0  0  0
 10 15  2  0  0  0  0
 10 11  1  0  0  0  0
 11 12  2  0  0  0  0
 12 13  1  0  0  0  0
 12  1  1  0  0  0  0
 14 18  1  0  0  0  0
 14 13  2  0  0  0  0
 15 14  1  0  0  0  0
 16 10  1  0  0  0  0
 17 11  1  0  0  0  0
 19 24  2  0  0  0  0
 19 20  1  0  0  0  0
 20 25  1  0  0  0  0
 20 21  2  0  0  0  0
 21 22  1  0  0  0  0
 21 26  1  0  0  0  0
 22 27  1  0  0  0  0
 23 28  1  0  0  0  0
 23 22  2  0  0  0  0
 24 23  1  0  0  0  0
 28 29  1  0  0  0  0
 30 28  1  0  0  0  0
 30 29  1  0  0  0  0
 31  6  1  0  0  0  0
 31 33  1  0  0  0  0
 32 31  1  0  0  0  0
 34 31  1  0  0  0  0
M  END
>  <minimizedAffinity>
-6.15611506

$$$$

 OpenBabel03272505333D

 34 37  0  0  0  0  0  0  0  0999 V2000
   38.1130   23.5910   34.2140 N   0  0  0  0  0  0  0  0  0  0  0  0
   38.0420   24.8820   33.7970 C   0  0  0  0  0  0  0  0  0  0  0  0
   37.3080   25.2310   32.6600 C   0  0  0  0  0  0  0  0  0  0  0  0
   36.6520   24.2180   31.9650 C   0  0  0  0  0  0  0  0  0  0  0  0
   35.9860   24.5030   30.9400 O   0  0  0  0  0  0  0  0  0  0  0  0
   36.7340   22.9130   32.4000 N   0  0  0  0  0  0  0  0  0  0  0  0
   37.4550   22.6950   33.4880 C   0  0  0  0  0  0  0  0  0  0  0  0
   37.5070   21.4980   33.8510 O   0  0  0  0  0  0  0  0  0  0  0  0
   38.5560   25.6610   34.3440 H   0  0  0  0  0  0  0  0  0  0  0  0
   39.1010   23.1030   37.7710 C   0  0  0  0  0  0  0  0  0  0  0  0
   38.3640   23.4590   36.6310 C   0  0  0  0  0  0  0  0  0  0  0  0
   38.8440   23.2380   35.3460 C   0  0  0  0  0  0  0  0  0  0  0  0
   40.0610   22.6600   35.2540 N   0  0  0  0  0  0  0  0  0  0  0  0
   40.7990   22.3040   36.3380 C   0  0  0  0  0  0  0  0  0  0  0  0
   40.2950   22.5370   37.5890 N   0  0  0  0  0  0  0  0  0  0  0  0
   38.7020   23.2880   38.7620 H   0  0  0  0  0  0  0  0  0  0  0  0
   37.3870   23.9230   36.7310 H   0  0  0  0  0  0  0  0  0  0  0  0
   41.7790   21.8390   36.2080 H   0  0  0  0  0  0  0  0  0  0  0  0
   37.1980   26.5910   32.1720 C   0  0  0  0  0  0  0  0  0  0  0  0
   38.0120   27.1190   31.1960 C   0  0  0  0  0  0  0  0  0  0  0  0
   37.9420   28.4050   30.7050 C   0  0  0  0  0  0  0  0  0  0  0  0
   36.9690   29.2530   31.2290 C   0  0  0  0  0  0  0  0  0  0  0  0
   36.1550   28.6900   32.2180 C   0  0  0  0  0  0  0  0  0  0  0  0
   36.2820   27.4290   32.6490 N   0  0  0  0  0  0  0  0  0  0  0  0
   38.7890   26.4960   30.7530 H   0  0  0  0  0  0  0  0  0  0  0  0
   38.6120   28.7580   29.9370 H   0  0  0  0  0  0  0  0  0  0  0  0
   36.8630   30.2720   30.8840 H   0  0  0  0  0  0  0  0  0  0  0  0
   35.1040   29.5830   32.7960 C   0  0  0  0  0  3  0  0  0  0  0  0
   34.7110   29.4460   34.2260 C   0  0  0  0  0  2  0  0  0  0  0  0
   35.5000   30.6350   33.7740 C   0  0  0  0  0  2  0  0  0  0  0  0
   36.0520   21.8770   31.6740 C   0  0  0  0  0  0  0  0  0  0  0  0
   35.2710   22.4080   30.6880 F   0  0  0  0  0  0  0  0  0  0  0  0
   35.2200   21.1010   32.4600 F   0  0  0  0  0  0  0  0  0  0  0  0
   37.0110   21.0630   31.0550 F   0  0  0  0  0  0  0  0  0  0  0  0
  1 12  1  0  0  0  0
  2  1  1  0  0  0  0
  2  9  1  0  0  0  0
  3  2  2  0  0  0  0
  4  6  1  0  0  0  0
  4  3  1  0  0  0  0
  5  4  2  0  0  0  0
  6  7  1  0  0  0  0
  7  8  2  0  0  0  0
  7  1  1  0  0  0  0
 10 16  1  0  0  0  0
 11 17  1  0  0  0  0
 11 10  2  0  0  0  0
 12 11  1  0  0  0  0
 13 12  2  0  0  0  0
 13 14  1  0  0  0  0
 14 15  2  0  0  0  0
 15 10  1  0  0  0  0
 18 14  1  0  0  0  0
 19 24  1  0  0  0  0
 19  3  1  0  0  0  0
 20 19  2  0  0  0  0
 21 20  1  0  0  0  0
 21 22  2  0  0  0  0
 22 23  1  0  0  0  0
 23 24  2  0  0  0  0
 23 28  1  0  0  0  0
 25 20  1  0  0  0  0
 26 21  1  0  0  0  0
 27 22  1  0  0  0  0
 28 30  1  0  0  0  0
 28 29  1  0  0  0  0
 30 29  1  0  0  0  0
 31  6  1  0  0  0  0
 31 33  1  0  0  0  0
 32 31  1  0  0  0  0
 34 31  1  0  0  0  0
M  END
>  <minimizedAffinity>
-6.11105251

$$$$

 OpenBabel03272505333D

 34 37  0  0  0  0  0  0  0  0999 V2000
   38.3460   24.7140   33.7430 N   0  0  0  0  0  0  0  0  0  0  0  0
   38.0400   26.0360   33.6720 C   0  0  0  0  0  0  0  0  0  0  0  0
   37.0110   26.4920   32.8440 C   0  0  0  0  0  0  0  0  0  0  0  0
   36.3080   25.5540   32.0920 C   0  0  0  0  0  0  0  0  0  0  0  0
   35.3800   25.9350   31.3390 O   0  0  0  0  0  0  0  0  0  0  0  0
   36.6300   24.2170   32.1750 N   0  0  0  0  0  0  0  0  0  0  0  0
   37.6210   23.8960   32.9910 C   0  0  0  0  0  0  0  0  0  0  0  0
   37.8850   22.6720   33.0390 O   0  0  0  0  0  0  0  0  0  0  0  0
   38.5930   26.7570   34.2590 H   0  0  0  0  0  0  0  0  0  0  0  0
   41.7410   23.9290   35.0560 C   0  0  0  0  0  0  0  0  0  0  0  0
   40.7100   24.3920   34.2240 C   0  0  0  0  0  0  0  0  0  0  0  0
   39.3710   24.2550   34.5680 C   0  0  0  0  0  0  0  0  0  0  0  0
   39.1150   23.6530   35.7490 N   0  0  0  0  0  0  0  0  0  0  0  0
   40.0900   23.1940   36.5770 C   0  0  0  0  0  0  0  0  0  0  0  0
   41.3990   23.3450   36.2060 N   0  0  0  0  0  0  0  0  0  0  0  0
   42.7790   24.0480   34.7630 H   0  0  0  0  0  0  0  0  0  0  0  0
   40.9420   24.8730   33.2790 H   0  0  0  0  0  0  0  0  0  0  0  0
   39.8290   22.7130   37.5220 H   0  0  0  0  0  0  0  0  0  0  0  0
   36.6430   27.8890   32.7290 C   0  0  0  0  0  0  0  0  0  0  0  0
   36.8430   28.6410   31.5940 C   0  0  0  0  0  0  0  0  0  0  0  0
   36.5090   29.9690   31.4440 C   0  0  0  0  0  0  0  0  0  0  0  0
   35.9180   30.6200   32.5240 C   0  0  0  0  0  0  0  0  0  0  0  0
   35.7250   29.8330   33.6640 C   0  0  0  0  0  0  0  0  0  0  0  0
   36.0770   28.5440   33.7390 N   0  0  0  0  0  0  0  0  0  0  0  0
   37.3030   28.1770   30.7200 H   0  0  0  0  0  0  0  0  0  0  0  0
   36.6940   30.5010   30.5240 H   0  0  0  0  0  0  0  0  0  0  0  0
   35.6320   31.6620   32.4670 H   0  0  0  0  0  0  0  0  0  0  0  0
   35.0920   30.5120   34.8360 C   0  0  0  0  0  3  0  0  0  0  0  0
   35.9290   31.2880   35.7920 C   0  0  0  0  0  2  0  0  0  0  0  0
   35.0040   32.0000   34.8550 C   0  0  0  0  0  2  0  0  0  0  0  0
   35.8970   23.2590   31.3950 C   0  0  0  0  0  0  0  0  0  0  0  0
   35.0790   23.8850   30.5000 F   0  0  0  0  0  0  0  0  0  0  0  0
   35.0900   22.4260   32.1490 F   0  0  0  0  0  0  0  0  0  0  0  0
   36.8110   22.4920   30.6590 F   0  0  0  0  0  0  0  0  0  0  0  0
  1 12  1  0  0  0  0
  2  1  1  0  0  0  0
  2  9  1  0  0  0  0
  3  2  2  0  0  0  0
  4  6  1  0  0  0  0
  4  3  1  0  0  0  0
  5  4  2  0  0  0  0
  6  7  1  0  0  0  0
  7  8  2  0  0  0  0
  7  1  1  0  0  0  0
 10 15  1  0  0  0  0
 11 12  1  0  0  0  0
 11 10  2  0  0  0  0
 12 13  2  0  0  0  0
 13 14  1  0  0  0  0
 14 18  1  0  0  0  0
 15 14  2  0  0  0  0
 16 10  1  0  0  0  0
 17 11  1  0  0  0  0
 19  3  1  0  0  0  0
 19 24  1  0  0  0  0
 20 19  2  0  0  0  0
 21 20  1  0  0  0  0
 21 22  2  0  0  0  0
 22 23  1  0  0  0  0
 23 24  2  0  0  0  0
 23 28  1  0  0  0  0
 25 20  1  0  0  0  0
 26 21  1  0  0  0  0
 27 22  1  0  0  0  0
 28 30  1  0  0  0  0
 28 29  1  0  0  0  0
 30 29  1  0  0  0  0
 31 33  1  0  0  0  0
 31  6  1  0  0  0  0
 32 31  1  0  0  0  0
 34 31  1  0  0  0  0
M  END
>  <minimizedAffinity>
-5.99389839

$$$$

 OpenBabel03272505333D

 34 37  0  0  0  0  0  0  0  0999 V2000
   36.6320   27.0800   32.8090 N   0  0  0  0  0  0  0  0  0  0  0  0
   36.6360   25.9060   32.1250 C   0  0  0  0  0  0  0  0  0  0  0  0
   37.2190   24.7600   32.6710 C   0  0  0  0  0  0  0  0  0  0  0  0
   37.7960   24.8530   33.9340 C   0  0  0  0  0  0  0  0  0  0  0  0
   38.3280   23.8390   34.4480 O   0  0  0  0  0  0  0  0  0  0  0  0
   37.7840   26.0500   34.6160 N   0  0  0  0  0  0  0  0  0  0  0  0
   37.2050   27.0730   34.0060 C   0  0  0  0  0  0  0  0  0  0  0  0
   37.2140   28.1440   34.6560 O   0  0  0  0  0  0  0  0  0  0  0  0
   36.1860   25.8440   31.1440 H   0  0  0  0  0  0  0  0  0  0  0  0
   36.0610   30.0900   30.6920 C   0  0  0  0  0  0  0  0  0  0  0  0
   36.6470   28.9360   31.2340 C   0  0  0  0  0  0  0  0  0  0  0  0
   36.0520   28.2260   32.2690 C   0  0  0  0  0  0  0  0  0  0  0  0
   34.8750   28.7080   32.7250 N   0  0  0  0  0  0  0  0  0  0  0  0
   34.2820   29.8220   32.2220 C   0  0  0  0  0  0  0  0  0  0  0  0
   34.8970   30.4970   31.2020 N   0  0  0  0  0  0  0  0  0  0  0  0
   36.5480   30.6250   29.8840 H   0  0  0  0  0  0  0  0  0  0  0  0
   37.5930   28.5680   30.8500 H   0  0  0  0  0  0  0  0  0  0  0  0
   33.3290   30.1690   32.6270 H   0  0  0  0  0  0  0  0  0  0  0  0
   37.2530   23.4830   31.9860 C   0  0  0  0  0  0  0  0  0  0  0  0
   38.2090   23.1390   31.0580 C   0  0  0  0  0  0  0  0  0  0  0  0
   38.2760   21.9380   30.3850 C   0  0  0  0  0  0  0  0  0  0  0  0
   37.3010   20.9810   30.6560 C   0  0  0  0  0  0  0  0  0  0  0  0
   36.3430   21.3550   31.6040 C   0  0  0  0  0  0  0  0  0  0  0  0
   36.3390   22.5440   32.2200 N   0  0  0  0  0  0  0  0  0  0  0  0
   38.9940   23.8530   30.8100 H   0  0  0  0  0  0  0  0  0  0  0  0
   39.0540   21.7320   29.6670 H   0  0  0  0  0  0  0  0  0  0  0  0
   37.3020   20.0200   30.1610 H   0  0  0  0  0  0  0  0  0  0  0  0
   35.2860   20.3430   31.9110 C   0  0  0  0  0  3  0  0  0  0  0  0
   35.6030   18.8900   31.8470 C   0  0  0  0  0  2  0  0  0  0  0  0
   35.3800   19.5530   33.1700 C   0  0  0  0  0  2  0  0  0  0  0  0
   38.3830   26.1340   35.9190 C   0  0  0  0  0  0  0  0  0  0  0  0
   37.9000   25.1560   36.7390 F   0  0  0  0  0  0  0  0  0  0  0  0
   38.1500   27.3360   36.5620 F   0  0  0  0  0  0  0  0  0  0  0  0
   39.7630   25.9270   35.7890 F   0  0  0  0  0  0  0  0  0  0  0  0
  1  7  1  0  0  0  0
  2  3  2  0  0  0  0
  2  1  1  0  0  0  0
  3  4  1  0  0  0  0
  4  5  2  0  0  0  0
  4  6  1  0  0  0  0
  6 31  1  0  0  0  0
  7  6  1  0  0  0  0
  7  8  2  0  0  0  0
  9  2  1  0  0  0  0
 10 15  2  0  0  0  0
 10 11  1  0  0  0  0
 11 12  2  0  0  0  0
 12 13  1  0  0  0  0
 12  1  1  0  0  0  0
 14 18  1  0  0  0  0
 14 13  2  0  0  0  0
 15 14  1  0  0  0  0
 16 10  1  0  0  0  0
 17 11  1  0  0  0  0
 19 24  1  0  0  0  0
 19  3  1  0  0  0  0
 20 19  2  0  0  0  0
 21 22  2  0  0  0  0
 21 20  1  0  0  0  0
 22 23  1  0  0  0  0
 23 28  1  0  0  0  0
 23 24  2  0  0  0  0
 25 20  1  0  0  0  0
 26 21  1  0  0  0  0
 27 22  1  0  0  0  0
 28 30  1  0  0  0  0
 29 28  1  0  0  0  0
 29 30  1  0  0  0  0
 31 33  1  0  0  0  0
 31 32  1  0  0  0  0
 34 31  1  0  0  0  0
M  END
>  <minimizedAffinity>
-5.98502207

$$$$

 OpenBabel03272505333D

 34 37  0  0  0  0  0  0  0  0999 V2000
   37.2020   25.2670   32.1800 N   0  0  0  0  0  0  0  0  0  0  0  0
   38.0610   24.9940   33.1970 C   0  0  0  0  0  0  0  0  0  0  0  0
   38.1710   23.7020   33.7160 C   0  0  0  0  0  0  0  0  0  0  0  0
   37.3770   22.7010   33.1630 C   0  0  0  0  0  0  0  0  0  0  0  0
   37.4560   21.5310   33.6100 O   0  0  0  0  0  0  0  0  0  0  0  0
   36.5110   22.9930   32.1320 N   0  0  0  0  0  0  0  0  0  0  0  0
   36.4870   24.2500   31.7170 C   0  0  0  0  0  0  0  0  0  0  0  0
   35.6880   24.4770   30.7790 O   0  0  0  0  0  0  0  0  0  0  0  0
   38.6730   25.7790   33.6200 H   0  0  0  0  0  0  0  0  0  0  0  0
   36.1280   28.8000   31.6930 C   0  0  0  0  0  0  0  0  0  0  0  0
   36.2420   27.5030   32.2180 C   0  0  0  0  0  0  0  0  0  0  0  0
   37.0880   26.5540   31.6590 C   0  0  0  0  0  0  0  0  0  0  0  0
   37.7980   26.9490   30.5800 N   0  0  0  0  0  0  0  0  0  0  0  0
   37.7110   28.1950   30.0470 C   0  0  0  0  0  0  0  0  0  0  0  0
   36.8660   29.1050   30.6240 N   0  0  0  0  0  0  0  0  0  0  0  0
   35.4590   29.5210   32.1490 H   0  0  0  0  0  0  0  0  0  0  0  0
   35.6600   27.2110   33.0870 H   0  0  0  0  0  0  0  0  0  0  0  0
   38.3080   28.4630   29.1720 H   0  0  0  0  0  0  0  0  0  0  0  0
   39.0700   23.3550   34.7990 C   0  0  0  0  0  0  0  0  0  0  0  0
   40.3440   22.8730   34.6090 C   0  0  0  0  0  0  0  0  0  0  0  0
   41.2290   22.5310   35.6090 C   0  0  0  0  0  0  0  0  0  0  0  0
   40.8120   22.6820   36.9300 C   0  0  0  0  0  0  0  0  0  0  0  0
   39.5130   23.1740   37.0950 C   0  0  0  0  0  0  0  0  0  0  0  0
   38.7060   23.4860   36.0720 N   0  0  0  0  0  0  0  0  0  0  0  0
   40.7180   22.7370   33.5940 H   0  0  0  0  0  0  0  0  0  0  0  0
   42.2170   22.1570   35.3910 H   0  0  0  0  0  0  0  0  0  0  0  0
   41.4600   22.4310   37.7580 H   0  0  0  0  0  0  0  0  0  0  0  0
   39.0440   23.3440   38.5040 C   0  0  0  0  0  3  0  0  0  0  0  0
   38.0810   24.4270   38.8460 C   0  0  0  0  0  2  0  0  0  0  0  0
   37.6360   22.9980   38.8480 C   0  0  0  0  0  2  0  0  0  0  0  0
   35.6970   21.9510   31.5690 C   0  0  0  0  0  0  0  0  0  0  0  0
   34.9920   22.4120   30.4950 F   0  0  0  0  0  0  0  0  0  0  0  0
   34.7700   21.4300   32.4530 F   0  0  0  0  0  0  0  0  0  0  0  0
   36.5380   20.9290   31.1080 F   0  0  0  0  0  0  0  0  0  0  0  0
  1  2  1  0  0  0  0
  2  9  1  0  0  0  0
  2  3  2  0  0  0  0
  3 19  1  0  0  0  0
  4  5  2  0  0  0  0
  4  3  1  0  0  0  0
  6  4  1  0  0  0  0
  7  6  1  0  0  0  0
  7  1  1  0  0  0  0
  8  7  2  0  0  0  0
 10 16  1  0  0  0  0
 10 11  1  0  0  0  0
 11 17  1  0  0  0  0
 12  1  1  0  0  0  0
 12 11  2  0  0  0  0
 13 12  1  0  0  0  0
 14 13  2  0  0  0  0
 14 15  1  0  0  0  0
 15 10  2  0  0  0  0
 18 14  1  0  0  0  0
 19 24  1  0  0  0  0
 20 19  2  0  0  0  0
 20 21  1  0  0  0  0
 21 22  2  0  0  0  0
 22 23  1  0  0  0  0
 22 27  1  0  0  0  0
 23 28  1  0  0  0  0
 24 23  2  0  0  0  0
 25 20  1  0  0  0  0
 26 21  1  0  0  0  0
 28 29  1  0  0  0  0
 28 30  1  0  0  0  0
 29 30  1  0  0  0  0
 31  6  1  0  0  0  0
 31 33  1  0  0  0  0
 32 31  1  0  0  0  0
 34 31  1  0  0  0  0
M  END
>  <minimizedAffinity>
-5.97484684

$$$$

 OpenBabel03272505333D

 34 37  0  0  0  0  0  0  0  0999 V2000
   38.0500   23.5910   34.2320 N   0  0  0  0  0  0  0  0  0  0  0  0
   37.9960   24.8660   33.7650 C   0  0  0  0  0  0  0  0  0  0  0  0
   37.3010   25.1730   32.5930 C   0  0  0  0  0  0  0  0  0  0  0  0
   36.6660   24.1370   31.9140 C   0  0  0  0  0  0  0  0  0  0  0  0
   36.0350   24.3840   30.8580 O   0  0  0  0  0  0  0  0  0  0  0  0
   36.7290   22.8490   32.3990 N   0  0  0  0  0  0  0  0  0  0  0  0
   37.4140   22.6700   33.5180 C   0  0  0  0  0  0  0  0  0  0  0  0
   37.4500   21.4870   33.9270 O   0  0  0  0  0  0  0  0  0  0  0  0
   38.4940   25.6640   34.3000 H   0  0  0  0  0  0  0  0  0  0  0  0
   38.9040   23.2020   37.8350 C   0  0  0  0  0  0  0  0  0  0  0  0
   38.2060   23.5170   36.6590 C   0  0  0  0  0  0  0  0  0  0  0  0
   38.7420   23.2790   35.4000 C   0  0  0  0  0  0  0  0  0  0  0  0
   39.9740   22.7270   35.3700 N   0  0  0  0  0  0  0  0  0  0  0  0
   40.6760   22.4110   36.4890 C   0  0  0  0  0  0  0  0  0  0  0  0
   40.1170   22.6600   37.7140 N   0  0  0  0  0  0  0  0  0  0  0  0
   38.4610   23.3990   38.8060 H   0  0  0  0  0  0  0  0  0  0  0  0
   37.2160   23.9600   36.7100 H   0  0  0  0  0  0  0  0  0  0  0  0
   41.6700   21.9660   36.4090 H   0  0  0  0  0  0  0  0  0  0  0  0
   37.2120   26.5150   32.0510 C   0  0  0  0  0  0  0  0  0  0  0  0
   36.4470   27.5130   32.6080 C   0  0  0  0  0  0  0  0  0  0  0  0
   36.3330   28.7990   32.1250 C   0  0  0  0  0  0  0  0  0  0  0  0
   37.0480   29.1320   30.9770 C   0  0  0  0  0  0  0  0  0  0  0  0
   37.8190   28.0990   30.4320 C   0  0  0  0  0  0  0  0  0  0  0  0
   37.8800   26.8680   30.9570 N   0  0  0  0  0  0  0  0  0  0  0  0
   35.8680   27.3040   33.5080 H   0  0  0  0  0  0  0  0  0  0  0  0
   35.7140   29.5360   32.6110 H   0  0  0  0  0  0  0  0  0  0  0  0
   37.0010   30.1240   30.5510 H   0  0  0  0  0  0  0  0  0  0  0  0
   38.5950   28.4330   29.1980 C   0  0  0  0  0  3  0  0  0  0  0  0
   38.0870   29.4660   28.2540 C   0  0  0  0  0  2  0  0  0  0  0  0
   39.2840   29.7510   29.1080 C   0  0  0  0  0  2  0  0  0  0  0  0
   36.0690   21.7880   31.6900 C   0  0  0  0  0  0  0  0  0  0  0  0
   35.2350   22.2880   30.7330 F   0  0  0  0  0  0  0  0  0  0  0  0
   35.2960   20.9740   32.4990 F   0  0  0  0  0  0  0  0  0  0  0  0
   37.0420   21.0170   31.0370 F   0  0  0  0  0  0  0  0  0  0  0  0
  1 12  1  0  0  0  0
  2  1  1  0  0  0  0
  2  9  1  0  0  0  0
  3  2  2  0  0  0  0
  4  6  1  0  0  0  0
  4  3  1  0  0  0  0
  5  4  2  0  0  0  0
  6  7  1  0  0  0  0
  7  8  2  0  0  0  0
  7  1  1  0  0  0  0
 10 16  1  0  0  0  0
 11 17  1  0  0  0  0
 11 10  2  0  0  0  0
 12 11  1  0  0  0  0
 13 12  2  0  0  0  0
 13 14  1  0  0  0  0
 14 15  2  0  0  0  0
 15 10  1  0  0  0  0
 18 14  1  0  0  0  0
 19  3  1  0  0  0  0
 19 20  1  0  0  0  0
 20 25  1  0  0  0  0
 21 20  2  0  0  0  0
 21 26  1  0  0  0  0
 22 21  1  0  0  0  0
 23 24  1  0  0  0  0
 23 22  2  0  0  0  0
 24 19  2  0  0  0  0
 27 22  1  0  0  0  0
 28 23  1  0  0  0  0
 29 30  1  0  0  0  0
 29 28  1  0  0  0  0
 30 28  1  0  0  0  0
 31  6  1  0  0  0  0
 31 33  1  0  0  0  0
 32 31  1  0  0  0  0
 34 31  1  0  0  0  0
M  END
>  <minimizedAffinity>
-5.96936846

$$$$

 OpenBabel03272505333D

 34 37  0  0  0  0  0  0  0  0999 V2000
   36.1000   28.0990   32.0780 N   0  0  0  0  0  0  0  0  0  0  0  0
   35.6490   28.6420   33.2400 C   0  0  0  0  0  0  0  0  0  0  0  0
   35.5250   30.0250   33.3860 C   0  0  0  0  0  0  0  0  0  0  0  0
   35.8770   30.8350   32.3100 C   0  0  0  0  0  0  0  0  0  0  0  0
   35.7760   32.0810   32.4130 O   0  0  0  0  0  0  0  0  0  0  0  0
   36.3330   30.2710   31.1380 N   0  0  0  0  0  0  0  0  0  0  0  0
   36.4120   28.9500   31.1080 C   0  0  0  0  0  0  0  0  0  0  0  0
   36.8310   28.4740   30.0280 O   0  0  0  0  0  0  0  0  0  0  0  0
   35.3780   28.0040   34.0710 H   0  0  0  0  0  0  0  0  0  0  0  0
   37.4090   24.6220   32.3300 C   0  0  0  0  0  0  0  0  0  0  0  0
   37.2840   26.0120   32.4830 C   0  0  0  0  0  0  0  0  0  0  0  0
   36.2260   26.7200   31.9280 C   0  0  0  0  0  0  0  0  0  0  0  0
   35.3210   25.9970   31.2330 N   0  0  0  0  0  0  0  0  0  0  0  0
   35.4140   24.6520   31.0660 C   0  0  0  0  0  0  0  0  0  0  0  0
   36.4700   23.9860   31.6270 N   0  0  0  0  0  0  0  0  0  0  0  0
   38.2460   24.0940   32.7740 H   0  0  0  0  0  0  0  0  0  0  0  0
   38.0240   26.5700   33.0470 H   0  0  0  0  0  0  0  0  0  0  0  0
   34.6540   24.1150   30.4940 H   0  0  0  0  0  0  0  0  0  0  0  0
   35.0490   30.6560   34.6010 C   0  0  0  0  0  0  0  0  0  0  0  0
   35.8310   31.4580   35.4020 C   0  0  0  0  0  0  0  0  0  0  0  0
   35.4190   32.0750   36.5630 C   0  0  0  0  0  0  0  0  0  0  0  0
   34.1020   31.8810   36.9740 C   0  0  0  0  0  0  0  0  0  0  0  0
   33.3290   31.0640   36.1420 C   0  0  0  0  0  0  0  0  0  0  0  0
   33.7980   30.4940   35.0250 N   0  0  0  0  0  0  0  0  0  0  0  0
   36.8690   31.6400   35.1240 H   0  0  0  0  0  0  0  0  0  0  0  0
   36.0840   32.6910   37.1460 H   0  0  0  0  0  0  0  0  0  0  0  0
   33.7200   32.3390   37.8760 H   0  0  0  0  0  0  0  0  0  0  0  0
   31.9120   30.8420   36.5650 C   0  0  0  0  0  3  0  0  0  0  0  0
   30.9930   30.0450   35.7060 C   0  0  0  0  0  2  0  0  0  0  0  0
   31.4880   29.4820   37.0010 C   0  0  0  0  0  2  0  0  0  0  0  0
   36.6940   31.1160   30.0340 C   0  0  0  0  0  0  0  0  0  0  0  0
   35.7220   32.0440   29.7940 F   0  0  0  0  0  0  0  0  0  0  0  0
   36.8850   30.4320   28.8470 F   0  0  0  0  0  0  0  0  0  0  0  0
   37.8630   31.8140   30.3710 F   0  0  0  0  0  0  0  0  0  0  0  0
  1  2  1  0  0  0  0
  2  3  2  0  0  0  0
  2  9  1  0  0  0  0
  3 19  1  0  0  0  0
  4  5  2  0  0  0  0
  4  3  1  0  0  0  0
  6  4  1  0  0  0  0
  7  6  1  0  0  0  0
  7  1  1  0  0  0  0
  8  7  2  0  0  0  0
 10 11  1  0  0  0  0
 10 16  1  0  0  0  0
 11 17  1  0  0  0  0
 12  1  1  0  0  0  0
 12 11  2  0  0  0  0
 13 12  1  0  0  0  0
 14 13  2  0  0  0  0
 14 15  1  0  0  0  0
 15 10  2  0  0  0  0
 18 14  1  0  0  0  0
 19 24  2  0  0  0  0
 19 20  1  0  0  0  0
 20 21  2  0  0  0  0
 21 22  1  0  0  0  0
 21 26  1  0  0  0  0
 22 27  1  0  0  0  0
 23 28  1  0  0  0  0
 23 22  2  0  0  0  0
 24 23  1  0  0  0  0
 25 20  1  0  0  0  0
 28 30  1  0  0  0  0
 29 28  1  0  0  0  0
 29 30  1  0  0  0  0
 31 34  1  0  0  0  0
 31  6  1  0  0  0  0
 32 31  1  0  0  0  0
 33 31  1  0  0  0  0
M  END
>  <minimizedAffinity>
-5.92724514

$$$$

 OpenBabel03272505333D

 34 37  0  0  0  0  0  0  0  0999 V2000
   36.5630   27.8910   34.1510 N   0  0  0  0  0  0  0  0  0  0  0  0
   37.0610   27.0250   35.0720 C   0  0  0  0  0  0  0  0  0  0  0  0
   37.7470   25.8740   34.6780 C   0  0  0  0  0  0  0  0  0  0  0  0
   37.9080   25.6370   33.3160 C   0  0  0  0  0  0  0  0  0  0  0  0
   38.5190   24.6100   32.9340 O   0  0  0  0  0  0  0  0  0  0  0  0
   37.3970   26.5240   32.3930 N   0  0  0  0  0  0  0  0  0  0  0  0
   36.7650   27.5820   32.8760 C   0  0  0  0  0  0  0  0  0  0  0  0
   36.3150   28.3650   32.0070 O   0  0  0  0  0  0  0  0  0  0  0  0
   36.9300   27.2180   36.1280 H   0  0  0  0  0  0  0  0  0  0  0  0
   33.8450   30.3900   34.6340 C   0  0  0  0  0  0  0  0  0  0  0  0
   34.5340   29.2310   34.2430 C   0  0  0  0  0  0  0  0  0  0  0  0
   35.8780   29.0400   34.5380 C   0  0  0  0  0  0  0  0  0  0  0  0
   36.4860   30.0310   35.2250 N   0  0  0  0  0  0  0  0  0  0  0  0
   35.8470   31.1650   35.6180 C   0  0  0  0  0  0  0  0  0  0  0  0
   34.5230   31.3190   35.3090 N   0  0  0  0  0  0  0  0  0  0  0  0
   32.7950   30.5130   34.3900 H   0  0  0  0  0  0  0  0  0  0  0  0
   34.0220   28.4480   33.6920 H   0  0  0  0  0  0  0  0  0  0  0  0
   36.3870   31.9370   36.1710 H   0  0  0  0  0  0  0  0  0  0  0  0
   38.2980   24.9170   35.6180 C   0  0  0  0  0  0  0  0  0  0  0  0
   37.6950   24.5830   36.8090 C   0  0  0  0  0  0  0  0  0  0  0  0
   38.1840   23.6810   37.7280 C   0  0  0  0  0  0  0  0  0  0  0  0
   39.3900   23.0440   37.4420 C   0  0  0  0  0  0  0  0  0  0  0  0
   39.9810   23.4010   36.2250 C   0  0  0  0  0  0  0  0  0  0  0  0
   39.4460   24.2900   35.3780 N   0  0  0  0  0  0  0  0  0  0  0  0
   36.7500   25.0540   37.0800 H   0  0  0  0  0  0  0  0  0  0  0  0
   37.6610   23.4640   38.6460 H   0  0  0  0  0  0  0  0  0  0  0  0
   39.8240   22.3260   38.1240 H   0  0  0  0  0  0  0  0  0  0  0  0
   41.2760   22.7300   35.8970 C   0  0  0  0  0  3  0  0  0  0  0  0
   42.5280   23.1470   36.5860 C   0  0  0  0  0  2  0  0  0  0  0  0
   41.9020   21.8260   36.9030 C   0  0  0  0  0  2  0  0  0  0  0  0
   37.5690   26.2690   30.9900 C   0  0  0  0  0  0  0  0  0  0  0  0
   38.8400   25.8480   30.7240 F   0  0  0  0  0  0  0  0  0  0  0  0
   37.3470   27.3760   30.1910 F   0  0  0  0  0  0  0  0  0  0  0  0
   36.7000   25.2340   30.6160 F   0  0  0  0  0  0  0  0  0  0  0  0
  1 12  1  0  0  0  0
  1  2  1  0  0  0  0
  2  9  1  0  0  0  0
  3  2  2  0  0  0  0
  3 19  1  0  0  0  0
  4  3  1  0  0  0  0
  5  4  2  0  0  0  0
  6  7  1  0  0  0  0
  6  4  1  0  0  0  0
  7  1  1  0  0  0  0
  8  7  2  0  0  0  0
 10 15  1  0  0  0  0
 11 12  1  0  0  0  0
 11 10  2  0  0  0  0
 12 13  2  0  0  0  0
 13 14  1  0  0  0  0
 14 18  1  0  0  0  0
 15 14  2  0  0  0  0
 16 10  1  0  0  0  0
 17 11  1  0  0  0  0
 19 20  1  0  0  0  0
 20 25  1  0  0  0  0
 20 21  2  0  0  0  0
 21 26  1  0  0  0  0
 22 21  1  0  0  0  0
 22 27  1  0  0  0  0
 23 22  2  0  0  0  0
 24 19  2  0  0  0  0
 24 23  1  0  0  0  0
 28 23  1  0  0  0  0
 28 29  1  0  0  0  0
 28 30  1  0  0  0  0
 29 30  1  0  0  0  0
 31  6  1  0  0  0  0
 32 31  1  0  0  0  0
 33 31  1  0  0  0  0
 34 31  1  0  0  0  0
M  END
>  <minimizedAffinity>
-5.84747601

$$$$
