
 OpenBabel03272503523D

 22 24  0  0  0  0  0  0  0  0999 V2000
   38.3560   32.1600   48.9280 C   0  0  0  0  0  0  0  0  0  0  0  0
   38.6850   33.3150   49.6240 C   0  0  0  0  0  0  0  0  0  0  0  0
   39.5030   34.2810   49.0070 C   0  0  0  0  0  0  0  0  0  0  0  0
   39.9450   34.0250   47.7140 C   0  0  0  0  0  0  0  0  0  0  0  0
   39.6320   32.8900   47.0100 C   0  0  0  0  0  0  0  0  0  0  0  0
   38.8280   31.9720   47.6540 C   0  0  0  0  0  0  0  0  0  0  0  0
   38.3940   33.5970   50.6140 H   0  0  0  0  0  0  0  0  0  0  0  0
   39.7920   35.1970   49.4970 H   0  0  0  0  0  0  0  0  0  0  0  0
   40.5830   34.7990   47.2570 H   0  0  0  0  0  0  0  0  0  0  0  0
   40.0290   32.8110   46.0300 H   0  0  0  0  0  0  0  0  0  0  0  0
   37.0230   29.5010   51.2570 C   0  0  0  0  0  0  0  0  0  0  0  0
   37.9400   30.3830   50.6440 C   0  0  0  0  0  0  0  0  0  0  0  0
   37.5050   31.2120   49.6300 C   0  0  0  0  0  0  0  0  0  0  0  0
   36.1970   31.1480   49.2560 N   0  0  0  0  0  0  0  0  0  0  0  0
   35.3400   30.2820   49.8740 C   0  0  0  0  0  0  0  0  0  0  0  0
   35.7530   29.4700   50.8620 N   0  0  0  0  0  0  0  0  0  0  0  0
   37.4820   28.9050   52.0360 H   0  0  0  0  0  0  0  0  0  0  0  0
   38.9780   30.4550   50.9190 H   0  0  0  0  0  0  0  0  0  0  0  0
   34.3070   30.2580   49.5500 H   0  0  0  0  0  0  0  0  0  0  0  0
   38.4570   30.7350   46.9360 C   0  0  0  0  0  0  0  0  0  0  0  0
   38.8100   30.4640   45.5420 C   0  0  0  0  0  0  0  0  0  0  0  0
   37.3760   30.8750   45.8200 C   0  0  0  0  0  0  0  0  0  0  0  0
  1  2  1  0  0  0  0
  1 13  1  0  0  0  0
  2  7  1  0  0  0  0
  3  8  1  0  0  0  0
  3  2  2  0  0  0  0
  4  3  1  0  0  0  0
  5  6  1  0  0  0  0
  5  4  2  0  0  0  0
  6  1  2  0  0  0  0
  9  4  1  0  0  0  0
 10  5  1  0  0  0  0
 11 17  1  0  0  0  0
 12 18  1  0  0  0  0
 12 11  2  0  0  0  0
 13 12  1  0  0  0  0
 14 13  2  0  0  0  0
 14 15  1  0  0  0  0
 15 16  2  0  0  0  0
 16 11  1  0  0  0  0
 19 15  1  0  0  0  0
 20  6  1  0  0  0  0
 21 22  1  0  0  0  0
 21 20  1  0  0  0  0
 22 20  1  0  0  0  0
M  END
>  <minimizedAffinity>
-5.78784418

>  <minimizedRMSD>
1.73608768

$$$$
