
 OpenBabel03272509123D

 22 24  0  0  0  0  0  0  0  0999 V2000
   39.0610   25.6540   32.6030 C   0  0  0  0  0  0  0  0  0  0  0  0
   39.2620   25.4070   33.9840 C   0  0  0  0  0  0  0  0  0  0  0  0
   38.5980   24.3420   34.5580 C   0  0  0  0  0  0  0  0  0  0  0  0
   37.7690   23.5590   33.8010 N   0  0  0  0  0  0  0  0  0  0  0  0
   37.5990   23.8320   32.4640 C   0  0  0  0  0  0  0  0  0  0  0  0
   38.2480   24.8730   31.8890 N   0  0  0  0  0  0  0  0  0  0  0  0
   39.5810   26.4840   32.1570 H   0  0  0  0  0  0  0  0  0  0  0  0
   36.9350   23.1880   31.9030 H   0  0  0  0  0  0  0  0  0  0  0  0
   38.7620   23.9710   35.9630 C   0  0  0  0  0  0  0  0  0  0  0  0
   37.8460   24.5370   36.8520 C   0  0  0  0  0  0  0  0  0  0  0  0
   37.9520   24.2330   38.2130 C   0  0  0  0  0  0  0  0  0  0  0  0
   38.9640   23.3810   38.6350 C   0  0  0  0  0  0  0  0  0  0  0  0
   39.8810   22.8120   37.7670 C   0  0  0  0  0  0  0  0  0  0  0  0
   39.7580   23.1280   36.4050 C   0  0  0  0  0  0  0  0  0  0  0  0
   37.0350   25.2090   36.6530 H   0  0  0  0  0  0  0  0  0  0  0  0
   37.2900   24.6240   38.9630 H   0  0  0  0  0  0  0  0  0  0  0  0
   39.0560   23.1380   39.6990 H   0  0  0  0  0  0  0  0  0  0  0  0
   40.6270   22.1710   38.1620 H   0  0  0  0  0  0  0  0  0  0  0  0
   40.4490   22.7050   35.7160 H   0  0  0  0  0  0  0  0  0  0  0  0
   40.1340   26.3520   34.7370 C   0  0  0  0  0  3  0  0  0  0  0  0
   41.6540   25.9670   34.7440 C   0  0  0  0  0  2  0  0  0  0  0  0
   41.1930   27.1090   33.9620 C   0  0  0  0  0  2  0  0  0  0  0  0
  1  2  1  0  0  0  0
  2  3  2  0  0  0  0
  2 20  1  0  0  0  0
  3  9  1  0  0  0  0
  4  3  1  0  0  0  0
  5  4  2  0  0  0  0
  6  5  1  0  0  0  0
  6  1  2  0  0  0  0
  7  1  1  0  0  0  0
  8  5  1  0  0  0  0
  9 14  2  0  0  0  0
  9 10  1  0  0  0  0
 10 11  2  0  0  0  0
 11 12  1  0  0  0  0
 11 16  1  0  0  0  0
 12 17  1  0  0  0  0
 13 18  1  0  0  0  0
 13 12  2  0  0  0  0
 14 13  1  0  0  0  0
 15 10  1  0  0  0  0
 19 14  1  0  0  0  0
 20 21  1  0  0  0  0
 22 20  1  0  0  0  0
 22 21  1  0  0  0  0
M  END
>  <minimizedAffinity>
-4.53531361

$$$$

 OpenBabel03272509123D

 22 24  0  0  0  0  0  0  0  0999 V2000
   37.4200   27.3710   32.7540 C   0  0  0  0  0  0  0  0  0  0  0  0
   36.7850   28.0970   33.7930 C   0  0  0  0  0  0  0  0  0  0  0  0
   35.8520   29.0530   33.4430 C   0  0  0  0  0  0  0  0  0  0  0  0
   35.5640   29.2830   32.1250 N   0  0  0  0  0  0  0  0  0  0  0  0
   36.2030   28.5580   31.1460 C   0  0  0  0  0  0  0  0  0  0  0  0
   37.1170   27.6160   31.4780 N   0  0  0  0  0  0  0  0  0  0  0  0
   38.1440   26.6250   33.0300 H   0  0  0  0  0  0  0  0  0  0  0  0
   35.9440   28.7730   30.1170 H   0  0  0  0  0  0  0  0  0  0  0  0
   35.1080   29.8320   34.4320 C   0  0  0  0  0  0  0  0  0  0  0  0
   35.8330   30.8240   35.0960 C   0  0  0  0  0  0  0  0  0  0  0  0
   35.1850   31.5990   36.0620 C   0  0  0  0  0  0  0  0  0  0  0  0
   33.8450   31.3570   36.3300 C   0  0  0  0  0  0  0  0  0  0  0  0
   33.1120   30.3780   35.6820 C   0  0  0  0  0  0  0  0  0  0  0  0
   33.7780   29.6100   34.7150 C   0  0  0  0  0  0  0  0  0  0  0  0
   36.8640   31.0970   34.9850 H   0  0  0  0  0  0  0  0  0  0  0  0
   35.6680   32.3810   36.6180 H   0  0  0  0  0  0  0  0  0  0  0  0
   33.3290   31.9590   37.0870 H   0  0  0  0  0  0  0  0  0  0  0  0
   32.0910   30.2510   35.9410 H   0  0  0  0  0  0  0  0  0  0  0  0
   33.2380   28.8510   34.2020 H   0  0  0  0  0  0  0  0  0  0  0  0
   37.2110   27.8190   35.1940 C   0  0  0  0  0  3  0  0  0  0  0  0
   37.5300   26.3120   35.4870 C   0  0  0  0  0  2  0  0  0  0  0  0
   38.6130   27.2870   35.4150 C   0  0  0  0  0  2  0  0  0  0  0  0
  1  7  1  0  0  0  0
  1  2  1  0  0  0  0
  2 20  1  0  0  0  0
  3  2  2  0  0  0  0
  3  9  1  0  0  0  0
  4  3  1  0  0  0  0
  5  6  1  0  0  0  0
  5  4  2  0  0  0  0
  6  1  2  0  0  0  0
  8  5  1  0  0  0  0
  9 14  2  0  0  0  0
  9 10  1  0  0  0  0
 10 11  2  0  0  0  0
 11 12  1  0  0  0  0
 11 16  1  0  0  0  0
 12 17  1  0  0  0  0
 13 18  1  0  0  0  0
 13 12  2  0  0  0  0
 14 13  1  0  0  0  0
 15 10  1  0  0  0  0
 19 14  1  0  0  0  0
 20 22  1  0  0  0  0
 20 21  1  0  0  0  0
 22 21  1  0  0  0  0
M  END
>  <minimizedAffinity>
-4.51247978

$$$$

 OpenBabel03272509123D

 22 24  0  0  0  0  0  0  0  0999 V2000
   38.2620   24.9380   32.4370 C   0  0  0  0  0  0  0  0  0  0  0  0
   38.4600   24.9770   33.8400 C   0  0  0  0  0  0  0  0  0  0  0  0
   38.2390   23.8210   34.5610 C   0  0  0  0  0  0  0  0  0  0  0  0
   37.8350   22.6790   33.9230 N   0  0  0  0  0  0  0  0  0  0  0  0
   37.6520   22.6820   32.5600 C   0  0  0  0  0  0  0  0  0  0  0  0
   37.8700   23.8100   31.8420 N   0  0  0  0  0  0  0  0  0  0  0  0
   38.4390   25.8400   31.8770 H   0  0  0  0  0  0  0  0  0  0  0  0
   37.3330   21.7580   32.0970 H   0  0  0  0  0  0  0  0  0  0  0  0
   38.4500   23.7360   36.0060 C   0  0  0  0  0  0  0  0  0  0  0  0
   39.5420   22.9680   36.4160 C   0  0  0  0  0  0  0  0  0  0  0  0
   39.7950   22.8350   37.7850 C   0  0  0  0  0  0  0  0  0  0  0  0
   38.9550   23.4700   38.6890 C   0  0  0  0  0  0  0  0  0  0  0  0
   37.8690   24.2350   38.2990 C   0  0  0  0  0  0  0  0  0  0  0  0
   37.6300   24.3580   36.9220 C   0  0  0  0  0  0  0  0  0  0  0  0
   40.2500   22.4260   35.8210 H   0  0  0  0  0  0  0  0  0  0  0  0
   40.6110   22.2640   38.1850 H   0  0  0  0  0  0  0  0  0  0  0  0
   39.1450   23.3710   39.7640 H   0  0  0  0  0  0  0  0  0  0  0  0
   37.2710   24.6900   39.0480 H   0  0  0  0  0  0  0  0  0  0  0  0
   36.8030   24.9400   36.5940 H   0  0  0  0  0  0  0  0  0  0  0  0
   38.8400   26.2830   34.4510 C   0  0  0  0  0  3  0  0  0  0  0  0
   40.3650   26.4240   34.7830 C   0  0  0  0  0  2  0  0  0  0  0  0
   39.7860   27.1780   33.6760 C   0  0  0  0  0  2  0  0  0  0  0  0
  1  2  1  0  0  0  0
  2 20  1  0  0  0  0
  2  3  2  0  0  0  0
  3  9  1  0  0  0  0
  4  3  1  0  0  0  0
  5  4  2  0  0  0  0
  6  1  2  0  0  0  0
  6  5  1  0  0  0  0
  7  1  1  0  0  0  0
  8  5  1  0  0  0  0
  9 10  2  0  0  0  0
  9 14  1  0  0  0  0
 10 11  1  0  0  0  0
 11 16  1  0  0  0  0
 11 12  2  0  0  0  0
 12 17  1  0  0  0  0
 13 12  1  0  0  0  0
 13 18  1  0  0  0  0
 14 13  2  0  0  0  0
 15 10  1  0  0  0  0
 19 14  1  0  0  0  0
 20 21  1  0  0  0  0
 22 20  1  0  0  0  0
 22 21  1  0  0  0  0
M  END
>  <minimizedAffinity>
-4.45161152

$$$$

 OpenBabel03272509123D

 22 24  0  0  0  0  0  0  0  0999 V2000
   33.3900   31.2300   34.6130 C   0  0  0  0  0  0  0  0  0  0  0  0
   34.6190   30.5300   34.5170 C   0  0  0  0  0  0  0  0  0  0  0  0
   34.7010   29.4790   33.6270 C   0  0  0  0  0  0  0  0  0  0  0  0
   33.6140   29.1320   32.8700 N   0  0  0  0  0  0  0  0  0  0  0  0
   32.4390   29.8350   32.9940 C   0  0  0  0  0  0  0  0  0  0  0  0
   32.3480   30.8710   33.8620 N   0  0  0  0  0  0  0  0  0  0  0  0
   33.3300   32.0520   35.3060 H   0  0  0  0  0  0  0  0  0  0  0  0
   31.6050   29.5260   32.3760 H   0  0  0  0  0  0  0  0  0  0  0  0
   35.9290   28.7140   33.4160 C   0  0  0  0  0  0  0  0  0  0  0  0
   36.4820   28.7910   32.1350 C   0  0  0  0  0  0  0  0  0  0  0  0
   37.6510   28.0750   31.8620 C   0  0  0  0  0  0  0  0  0  0  0  0
   38.2230   27.3110   32.8700 C   0  0  0  0  0  0  0  0  0  0  0  0
   37.6880   27.2230   34.1440 C   0  0  0  0  0  0  0  0  0  0  0  0
   36.5160   27.9490   34.4010 C   0  0  0  0  0  0  0  0  0  0  0  0
   36.1320   29.3330   31.2790 H   0  0  0  0  0  0  0  0  0  0  0  0
   38.1410   28.0790   30.9060 H   0  0  0  0  0  0  0  0  0  0  0  0
   39.1390   26.7450   32.6640 H   0  0  0  0  0  0  0  0  0  0  0  0
   38.1810   26.6180   34.8630 H   0  0  0  0  0  0  0  0  0  0  0  0
   36.0830   27.9000   35.3710 H   0  0  0  0  0  0  0  0  0  0  0  0
   35.7250   30.9430   35.4270 C   0  0  0  0  0  3  0  0  0  0  0  0
   36.2580   32.3970   35.1830 C   0  0  0  0  0  2  0  0  0  0  0  0
   35.4700   32.0980   36.3730 C   0  0  0  0  0  2  0  0  0  0  0  0
  1  7  1  0  0  0  0
  2  1  1  0  0  0  0
  2 20  1  0  0  0  0
  3  2  2  0  0  0  0
  4  5  2  0  0  0  0
  4  3  1  0  0  0  0
  5  6  1  0  0  0  0
  6  1  2  0  0  0  0
  8  5  1  0  0  0  0
  9  3  1  0  0  0  0
  9 14  1  0  0  0  0
 10  9  2  0  0  0  0
 11 10  1  0  0  0  0
 11 12  2  0  0  0  0
 12 13  1  0  0  0  0
 13 14  2  0  0  0  0
 13 18  1  0  0  0  0
 14 19  1  0  0  0  0
 15 10  1  0  0  0  0
 16 11  1  0  0  0  0
 17 12  1  0  0  0  0
 20 22  1  0  0  0  0
 21 20  1  0  0  0  0
 21 22  1  0  0  0  0
M  END
>  <minimizedAffinity>
-4.39968967

$$$$

 OpenBabel03272509123D

 22 24  0  0  0  0  0  0  0  0999 V2000
   37.6590   26.0640   32.9170 C   0  0  0  0  0  0  0  0  0  0  0  0
   38.3620   25.6430   34.0740 C   0  0  0  0  0  0  0  0  0  0  0  0
   38.4370   24.2900   34.3340 C   0  0  0  0  0  0  0  0  0  0  0  0
   37.8390   23.3930   33.4900 N   0  0  0  0  0  0  0  0  0  0  0  0
   37.1640   23.8410   32.3790 C   0  0  0  0  0  0  0  0  0  0  0  0
   37.0870   25.1670   32.1120 N   0  0  0  0  0  0  0  0  0  0  0  0
   37.6050   27.1190   32.7150 H   0  0  0  0  0  0  0  0  0  0  0  0
   36.7060   23.0980   31.7390 H   0  0  0  0  0  0  0  0  0  0  0  0
   39.1700   23.7420   35.4740 C   0  0  0  0  0  0  0  0  0  0  0  0
   40.5260   23.4840   35.2590 C   0  0  0  0  0  0  0  0  0  0  0  0
   41.2840   22.9490   36.3050 C   0  0  0  0  0  0  0  0  0  0  0  0
   40.6650   22.6920   37.5210 C   0  0  0  0  0  0  0  0  0  0  0  0
   39.3230   22.9410   37.7510 C   0  0  0  0  0  0  0  0  0  0  0  0
   38.5780   23.4790   36.6900 C   0  0  0  0  0  0  0  0  0  0  0  0
   41.1100   23.6280   34.3720 H   0  0  0  0  0  0  0  0  0  0  0  0
   42.3300   22.7210   36.2240 H   0  0  0  0  0  0  0  0  0  0  0  0
   41.2510   22.2710   38.3460 H   0  0  0  0  0  0  0  0  0  0  0  0
   38.9190   22.7190   38.7060 H   0  0  0  0  0  0  0  0  0  0  0  0
   37.5440   23.6810   36.8390 H   0  0  0  0  0  0  0  0  0  0  0  0
   38.9260   26.6970   34.9640 C   0  0  0  0  0  3  0  0  0  0  0  0
   37.9140   27.8310   35.3480 C   0  0  0  0  0  2  0  0  0  0  0  0
   38.3260   26.8510   36.3470 C   0  0  0  0  0  2  0  0  0  0  0  0
  1  2  1  0  0  0  0
  2  3  2  0  0  0  0
  2 20  1  0  0  0  0
  3  9  1  0  0  0  0
  4  3  1  0  0  0  0
  5  4  2  0  0  0  0
  6  5  1  0  0  0  0
  6  1  2  0  0  0  0
  7  1  1  0  0  0  0
  8  5  1  0  0  0  0
  9 14  1  0  0  0  0
 10  9  2  0  0  0  0
 10 11  1  0  0  0  0
 11 12  2  0  0  0  0
 12 13  1  0  0  0  0
 12 17  1  0  0  0  0
 13 18  1  0  0  0  0
 14 19  1  0  0  0  0
 14 13  2  0  0  0  0
 15 10  1  0  0  0  0
 16 11  1  0  0  0  0
 20 21  1  0  0  0  0
 20 22  1  0  0  0  0
 21 22  1  0  0  0  0
M  END
>  <minimizedAffinity>
-4.36139822

$$$$

 OpenBabel03272509123D

 22 24  0  0  0  0  0  0  0  0999 V2000
   40.9200   22.9620   36.5670 C   0  0  0  0  0  0  0  0  0  0  0  0
   40.3230   23.9610   35.7580 C   0  0  0  0  0  0  0  0  0  0  0  0
   39.0870   24.4480   36.1300 C   0  0  0  0  0  0  0  0  0  0  0  0
   38.4650   23.9640   37.2500 N   0  0  0  0  0  0  0  0  0  0  0  0
   39.0760   22.9930   38.0080 C   0  0  0  0  0  0  0  0  0  0  0  0
   40.2910   22.5100   37.6540 N   0  0  0  0  0  0  0  0  0  0  0  0
   41.8850   22.5860   36.2760 H   0  0  0  0  0  0  0  0  0  0  0  0
   38.5490   22.6390   38.8850 H   0  0  0  0  0  0  0  0  0  0  0  0
   38.3980   25.5060   35.3930 C   0  0  0  0  0  0  0  0  0  0  0  0
   38.3900   26.7640   36.0010 C   0  0  0  0  0  0  0  0  0  0  0  0
   37.7390   27.8200   35.3550 C   0  0  0  0  0  0  0  0  0  0  0  0
   37.1230   27.5840   34.1340 C   0  0  0  0  0  0  0  0  0  0  0  0
   37.1210   26.3430   33.5180 C   0  0  0  0  0  0  0  0  0  0  0  0
   37.7790   25.2960   34.1800 C   0  0  0  0  0  0  0  0  0  0  0  0
   38.8170   27.0670   36.9360 H   0  0  0  0  0  0  0  0  0  0  0  0
   37.6850   28.8160   35.7520 H   0  0  0  0  0  0  0  0  0  0  0  0
   36.6090   28.4050   33.6210 H   0  0  0  0  0  0  0  0  0  0  0  0
   36.6280   26.2390   32.5840 H   0  0  0  0  0  0  0  0  0  0  0  0
   37.7940   24.3330   33.7290 H   0  0  0  0  0  0  0  0  0  0  0  0
   41.0490   24.3790   34.5250 C   0  0  0  0  0  3  0  0  0  0  0  0
   41.9480   25.6510   34.7010 C   0  0  0  0  0  2  0  0  0  0  0  0
   42.5640   24.3380   34.5470 C   0  0  0  0  0  2  0  0  0  0  0  0
  1  6  1  0  0  0  0
  2  3  1  0  0  0  0
  2  1  2  0  0  0  0
  3  4  2  0  0  0  0
  4  5  1  0  0  0  0
  5  8  1  0  0  0  0
  6  5  2  0  0  0  0
  7  1  1  0  0  0  0
  9 10  1  0  0  0  0
  9  3  1  0  0  0  0
 10 15  1  0  0  0  0
 11 16  1  0  0  0  0
 11 10  2  0  0  0  0
 12 11  1  0  0  0  0
 13 12  2  0  0  0  0
 13 14  1  0  0  0  0
 14  9  2  0  0  0  0
 17 12  1  0  0  0  0
 18 13  1  0  0  0  0
 19 14  1  0  0  0  0
 20 22  1  0  0  0  0
 20 21  1  0  0  0  0
 20  2  1  0  0  0  0
 22 21  1  0  0  0  0
M  END
>  <minimizedAffinity>
-4.27859354

$$$$

 OpenBabel03272509123D

 22 24  0  0  0  0  0  0  0  0999 V2000
   38.3250   24.9830   33.1690 C   0  0  0  0  0  0  0  0  0  0  0  0
   38.0270   26.3650   33.2660 C   0  0  0  0  0  0  0  0  0  0  0  0
   36.9010   26.8360   32.6230 C   0  0  0  0  0  0  0  0  0  0  0  0
   36.1070   25.9770   31.9100 N   0  0  0  0  0  0  0  0  0  0  0  0
   36.4300   24.6430   31.8380 C   0  0  0  0  0  0  0  0  0  0  0  0
   37.5320   24.1700   32.4690 N   0  0  0  0  0  0  0  0  0  0  0  0
   39.2020   24.6190   33.6740 H   0  0  0  0  0  0  0  0  0  0  0  0
   35.7750   24.0000   31.2650 H   0  0  0  0  0  0  0  0  0  0  0  0
   36.4760   28.2330   32.6890 C   0  0  0  0  0  0  0  0  0  0  0  0
   36.7730   29.0130   31.5690 C   0  0  0  0  0  0  0  0  0  0  0  0
   36.4050   30.3620   31.5700 C   0  0  0  0  0  0  0  0  0  0  0  0
   35.7580   30.8810   32.6830 C   0  0  0  0  0  0  0  0  0  0  0  0
   35.4560   30.1220   33.8010 C   0  0  0  0  0  0  0  0  0  0  0  0
   35.8320   28.7710   33.7820 C   0  0  0  0  0  0  0  0  0  0  0  0
   37.2730   28.7330   30.6620 H   0  0  0  0  0  0  0  0  0  0  0  0
   36.5950   31.0310   30.7520 H   0  0  0  0  0  0  0  0  0  0  0  0
   35.4670   31.9380   32.6930 H   0  0  0  0  0  0  0  0  0  0  0  0
   34.9600   30.5890   34.6150 H   0  0  0  0  0  0  0  0  0  0  0  0
   35.6130   28.1650   34.6280 H   0  0  0  0  0  0  0  0  0  0  0  0
   38.9850   27.2300   34.0120 C   0  0  0  0  0  3  0  0  0  0  0  0
   38.7390   27.2860   35.5590 C   0  0  0  0  0  2  0  0  0  0  0  0
   39.8930   26.5670   35.0290 C   0  0  0  0  0  2  0  0  0  0  0  0
  1  2  1  0  0  0  0
  1  7  1  0  0  0  0
  2 20  1  0  0  0  0
  3  9  1  0  0  0  0
  3  2  2  0  0  0  0
  4  3  1  0  0  0  0
  5  4  2  0  0  0  0
  5  6  1  0  0  0  0
  6  1  2  0  0  0  0
  8  5  1  0  0  0  0
  9 14  1  0  0  0  0
 10 11  1  0  0  0  0
 10  9  2  0  0  0  0
 11 12  2  0  0  0  0
 12 17  1  0  0  0  0
 12 13  1  0  0  0  0
 13 18  1  0  0  0  0
 14 13  2  0  0  0  0
 14 19  1  0  0  0  0
 15 10  1  0  0  0  0
 16 11  1  0  0  0  0
 20 22  1  0  0  0  0
 20 21  1  0  0  0  0
 22 21  1  0  0  0  0
M  END
>  <minimizedAffinity>
-4.27249193

$$$$

 OpenBabel03272509123D

 22 24  0  0  0  0  0  0  0  0999 V2000
   36.6580   28.9550   31.8010 C   0  0  0  0  0  0  0  0  0  0  0  0
   35.9410   29.8450   32.6400 C   0  0  0  0  0  0  0  0  0  0  0  0
   35.7420   29.4810   33.9560 C   0  0  0  0  0  0  0  0  0  0  0  0
   36.2250   28.2870   34.4200 N   0  0  0  0  0  0  0  0  0  0  0  0
   36.9130   27.4500   33.5740 C   0  0  0  0  0  0  0  0  0  0  0  0
   37.1180   27.7990   32.2820 N   0  0  0  0  0  0  0  0  0  0  0  0
   36.8140   29.2430   30.7760 H   0  0  0  0  0  0  0  0  0  0  0  0
   37.2780   26.5160   33.9830 H   0  0  0  0  0  0  0  0  0  0  0  0
   35.0530   30.3390   34.9190 C   0  0  0  0  0  0  0  0  0  0  0  0
   35.8650   31.2130   35.6450 C   0  0  0  0  0  0  0  0  0  0  0  0
   35.2720   32.0540   36.5920 C   0  0  0  0  0  0  0  0  0  0  0  0
   33.8980   31.9930   36.7790 C   0  0  0  0  0  0  0  0  0  0  0  0
   33.0790   31.1330   36.0680 C   0  0  0  0  0  0  0  0  0  0  0  0
   33.6900   30.2960   35.1220 C   0  0  0  0  0  0  0  0  0  0  0  0
   36.9280   31.3450   35.5990 H   0  0  0  0  0  0  0  0  0  0  0  0
   35.8220   32.7550   37.1920 H   0  0  0  0  0  0  0  0  0  0  0  0
   33.4250   32.6480   37.5190 H   0  0  0  0  0  0  0  0  0  0  0  0
   32.0360   31.1420   36.2660 H   0  0  0  0  0  0  0  0  0  0  0  0
   33.0850   29.6260   34.5620 H   0  0  0  0  0  0  0  0  0  0  0  0
   35.4010   31.0920   32.0270 C   0  0  0  0  0  3  0  0  0  0  0  0
   36.3760   32.3190   32.0880 C   0  0  0  0  0  2  0  0  0  0  0  0
   36.1180   31.6530   30.8160 C   0  0  0  0  0  2  0  0  0  0  0  0
  1  6  2  0  0  0  0
  1  2  1  0  0  0  0
  2  3  2  0  0  0  0
  3  4  1  0  0  0  0
  3  9  1  0  0  0  0
  5  8  1  0  0  0  0
  5  4  2  0  0  0  0
  6  5  1  0  0  0  0
  7  1  1  0  0  0  0
  9 14  2  0  0  0  0
  9 10  1  0  0  0  0
 10 11  2  0  0  0  0
 11 12  1  0  0  0  0
 11 16  1  0  0  0  0
 12 17  1  0  0  0  0
 13 18  1  0  0  0  0
 13 12  2  0  0  0  0
 14 13  1  0  0  0  0
 15 10  1  0  0  0  0
 19 14  1  0  0  0  0
 20 21  1  0  0  0  0
 20  2  1  0  0  0  0
 22 20  1  0  0  0  0
 22 21  1  0  0  0  0
M  END
>  <minimizedAffinity>
-4.25030422

$$$$

 OpenBabel03272509123D

 22 24  0  0  0  0  0  0  0  0999 V2000
   36.3580   28.5530   34.5350 C   0  0  0  0  0  0  0  0  0  0  0  0
   36.9200   27.4320   33.8740 C   0  0  0  0  0  0  0  0  0  0  0  0
   36.5390   27.1860   32.5710 C   0  0  0  0  0  0  0  0  0  0  0  0
   35.6380   28.0090   31.9510 N   0  0  0  0  0  0  0  0  0  0  0  0
   35.1140   29.0860   32.6260 C   0  0  0  0  0  0  0  0  0  0  0  0
   35.4840   29.3390   33.9050 N   0  0  0  0  0  0  0  0  0  0  0  0
   36.6600   28.7440   35.5500 H   0  0  0  0  0  0  0  0  0  0  0  0
   34.4050   29.7110   32.0980 H   0  0  0  0  0  0  0  0  0  0  0  0
   37.0850   26.0830   31.7810 C   0  0  0  0  0  0  0  0  0  0  0  0
   36.3210   24.9140   31.7590 C   0  0  0  0  0  0  0  0  0  0  0  0
   36.7900   23.8160   31.0310 C   0  0  0  0  0  0  0  0  0  0  0  0
   37.9980   23.9240   30.3560 C   0  0  0  0  0  0  0  0  0  0  0  0
   38.7670   25.0750   30.3670 C   0  0  0  0  0  0  0  0  0  0  0  0
   38.2810   26.1670   31.1020 C   0  0  0  0  0  0  0  0  0  0  0  0
   35.3870   24.7070   32.2430 H   0  0  0  0  0  0  0  0  0  0  0  0
   36.2660   22.8810   30.9620 H   0  0  0  0  0  0  0  0  0  0  0  0
   38.3740   23.0680   29.7840 H   0  0  0  0  0  0  0  0  0  0  0  0
   39.6810   25.0820   29.8270 H   0  0  0  0  0  0  0  0  0  0  0  0
   38.8520   27.0630   31.1270 H   0  0  0  0  0  0  0  0  0  0  0  0
   37.8440   26.5590   34.6530 C   0  0  0  0  0  3  0  0  0  0  0  0
   39.3430   27.0170   34.6290 C   0  0  0  0  0  2  0  0  0  0  0  0
   38.5540   27.1670   35.8460 C   0  0  0  0  0  2  0  0  0  0  0  0
  1  7  1  0  0  0  0
  2  1  2  0  0  0  0
  2 20  1  0  0  0  0
  3  2  1  0  0  0  0
  4  3  2  0  0  0  0
  4  5  1  0  0  0  0
  5  6  2  0  0  0  0
  6  1  1  0  0  0  0
  8  5  1  0  0  0  0
  9  3  1  0  0  0  0
 10  9  1  0  0  0  0
 10 15  1  0  0  0  0
 11 10  2  0  0  0  0
 12 13  2  0  0  0  0
 12 11  1  0  0  0  0
 13 14  1  0  0  0  0
 14 19  1  0  0  0  0
 14  9  2  0  0  0  0
 16 11  1  0  0  0  0
 17 12  1  0  0  0  0
 18 13  1  0  0  0  0
 20 22  1  0  0  0  0
 21 20  1  0  0  0  0
 21 22  1  0  0  0  0
M  END
>  <minimizedAffinity>
-4.19732475

$$$$
