
 OpenBabel03272506193D

 28 30  0  0  0  0  0  0  0  0999 V2000
   34.8070   30.4760   34.1320 C   0  0  0  0  0  0  0  0  0  0  0  0
   35.7270   31.5440   34.5350 C   0  0  0  0  0  0  0  0  0  0  0  0
   35.8580   31.6630   36.0380 C   0  0  0  0  0  0  0  0  0  0  0  0
   34.5250   31.9940   36.6650 C   0  0  0  0  0  0  0  0  0  0  0  0
   33.3850   31.2210   36.0720 C   0  0  0  0  0  0  0  0  0  0  0  0
   33.8590   30.0630   35.2170 C   0  0  0  0  0  0  0  0  0  0  0  0
   34.1530   30.8280   33.2730 H   0  0  0  0  0  0  0  0  0  0  0  0
   36.6830   31.6620   34.0700 H   0  0  0  0  0  0  0  0  0  0  0  0
   35.2060   32.5040   34.2880 H   0  0  0  0  0  0  0  0  0  0  0  0
   36.5640   32.5160   36.2210 H   0  0  0  0  0  0  0  0  0  0  0  0
   36.3070   30.7410   36.4510 H   0  0  0  0  0  0  0  0  0  0  0  0
   34.6290   31.8250   37.7410 H   0  0  0  0  0  0  0  0  0  0  0  0
   34.3680   33.0790   36.5290 H   0  0  0  0  0  0  0  0  0  0  0  0
   32.7140   31.9040   35.5100 H   0  0  0  0  0  0  0  0  0  0  0  0
   32.8110   30.7490   36.9070 H   0  0  0  0  0  0  0  0  0  0  0  0
   34.4230   29.3920   35.9220 H   0  0  0  0  0  0  0  0  0  0  0  0
   32.9960   29.4890   34.8840 H   0  0  0  0  0  0  0  0  0  0  0  0
   35.4590   29.2700   33.6050 C   0  0  0  0  0  0  0  0  0  0  0  0
   36.3050   28.5730   34.4820 C   0  0  0  0  0  0  0  0  0  0  0  0
   36.9450   27.4310   33.9520 C   0  0  0  0  0  0  0  0  0  0  0  0
   36.7220   27.0630   32.6530 N   0  0  0  0  0  0  0  0  0  0  0  0
   35.8890   27.7810   31.8540 C   0  0  0  0  0  0  0  0  0  0  0  0
   35.2770   28.8690   32.3480 N   0  0  0  0  0  0  0  0  0  0  0  0
   36.5150   28.8200   35.5110 H   0  0  0  0  0  0  0  0  0  0  0  0
   35.8060   27.3790   30.8530 H   0  0  0  0  0  0  0  0  0  0  0  0
   37.8680   26.5880   34.7490 C   0  0  0  0  0  3  0  0  0  0  0  0
   38.4560   27.2780   35.9600 C   0  0  0  0  0  2  0  0  0  0  0  0
   39.3360   26.9950   34.8030 C   0  0  0  0  0  2  0  0  0  0  0  0
  1  2  1  0  0  0  0
  1  6  1  0  0  0  0
  2  3  1  0  0  0  0
  3 10  1  0  0  0  0
  3 11  1  0  0  0  0
  3  4  1  0  0  0  0
  4 12  1  0  0  0  0
  5  4  1  0  0  0  0
  5 15  1  0  0  0  0
  6 16  1  0  0  0  0
  6  5  1  0  0  0  0
  7  1  1  0  0  0  0
  8  2  1  0  0  0  0
  9  2  1  0  0  0  0
 13  4  1  0  0  0  0
 14  5  1  0  0  0  0
 17  6  1  0  0  0  0
 18  1  1  0  0  0  0
 18 19  1  0  0  0  0
 19 24  1  0  0  0  0
 20 19  2  0  0  0  0
 20 26  1  0  0  0  0
 21 20  1  0  0  0  0
 22 23  1  0  0  0  0
 22 21  2  0  0  0  0
 23 18  2  0  0  0  0
 25 22  1  0  0  0  0
 26 28  1  0  0  0  0
 26 27  1  0  0  0  0
 28 27  1  0  0  0  0
M  END
>  <minimizedAffinity>
-4.79674816

$$$$

 OpenBabel03272506193D

 28 30  0  0  0  0  0  0  0  0999 V2000
   37.4540   26.9820   33.2090 C   0  0  0  0  0  0  0  0  0  0  0  0
   38.8850   27.0490   32.8960 C   0  0  0  0  0  0  0  0  0  0  0  0
   39.7420   26.3760   33.9470 C   0  0  0  0  0  0  0  0  0  0  0  0
   39.5700   27.0500   35.2870 C   0  0  0  0  0  0  0  0  0  0  0  0
   38.1430   27.3970   35.5940 C   0  0  0  0  0  0  0  0  0  0  0  0
   37.1700   26.7130   34.6550 C   0  0  0  0  0  0  0  0  0  0  0  0
   36.9580   27.9780   32.9790 H   0  0  0  0  0  0  0  0  0  0  0  0
   39.2540   26.8230   31.9180 H   0  0  0  0  0  0  0  0  0  0  0  0
   39.1770   28.1210   33.0340 H   0  0  0  0  0  0  0  0  0  0  0  0
   40.8040   26.5090   33.6110 H   0  0  0  0  0  0  0  0  0  0  0  0
   39.5160   25.2940   33.9810 H   0  0  0  0  0  0  0  0  0  0  0  0
   40.0080   26.3840   36.0370 H   0  0  0  0  0  0  0  0  0  0  0  0
   40.1930   27.9620   35.2700 H   0  0  0  0  0  0  0  0  0  0  0  0
   38.0120   28.5000   35.5970 H   0  0  0  0  0  0  0  0  0  0  0  0
   37.8970   26.9980   36.6090 H   0  0  0  0  0  0  0  0  0  0  0  0
   37.3210   25.6130   34.8310 H   0  0  0  0  0  0  0  0  0  0  0  0
   36.1520   26.9320   34.9750 H   0  0  0  0  0  0  0  0  0  0  0  0
   36.6940   26.0180   32.4020 C   0  0  0  0  0  0  0  0  0  0  0  0
   37.0750   24.6710   32.5000 C   0  0  0  0  0  0  0  0  0  0  0  0
   36.3520   23.7600   31.6990 C   0  0  0  0  0  0  0  0  0  0  0  0
   35.3450   24.2110   30.8890 N   0  0  0  0  0  0  0  0  0  0  0  0
   35.0240   25.5310   30.8390 C   0  0  0  0  0  0  0  0  0  0  0  0
   35.7060   26.4050   31.5960 N   0  0  0  0  0  0  0  0  0  0  0  0
   37.8580   24.2630   33.1200 H   0  0  0  0  0  0  0  0  0  0  0  0
   34.2120   25.7470   30.1580 H   0  0  0  0  0  0  0  0  0  0  0  0
   36.6310   22.3040   31.6890 C   0  0  0  0  0  3  0  0  0  0  0  0
   35.4690   21.4480   31.2340 C   0  0  0  0  0  2  0  0  0  0  0  0
   35.8570   21.4230   32.6630 C   0  0  0  0  0  2  0  0  0  0  0  0
  1  6  1  0  0  0  0
  2  9  1  0  0  0  0
  2  1  1  0  0  0  0
  2  3  1  0  0  0  0
  3 11  1  0  0  0  0
  3  4  1  0  0  0  0
  4  5  1  0  0  0  0
  4 12  1  0  0  0  0
  5 14  1  0  0  0  0
  5 15  1  0  0  0  0
  6 16  1  0  0  0  0
  6 17  1  0  0  0  0
  6  5  1  0  0  0  0
  7  1  1  0  0  0  0
  8  2  1  0  0  0  0
 10  3  1  0  0  0  0
 13  4  1  0  0  0  0
 18 19  1  0  0  0  0
 18  1  1  0  0  0  0
 19 24  1  0  0  0  0
 20 19  2  0  0  0  0
 21 20  1  0  0  0  0
 22 21  2  0  0  0  0
 22 23  1  0  0  0  0
 23 18  2  0  0  0  0
 25 22  1  0  0  0  0
 26 20  1  0  0  0  0
 26 28  1  0  0  0  0
 27 26  1  0  0  0  0
 27 28  1  0  0  0  0
M  END
>  <minimizedAffinity>
-4.78285742

$$$$

 OpenBabel03272506193D

 28 30  0  0  0  0  0  0  0  0999 V2000
   37.2640   21.5600   33.6460 C   0  0  0  0  0  0  0  0  0  0  0  0
   37.0640   22.1040   32.2990 C   0  0  0  0  0  0  0  0  0  0  0  0
   35.6010   22.1960   31.9200 C   0  0  0  0  0  0  0  0  0  0  0  0
   34.9630   20.8270   31.9220 C   0  0  0  0  0  0  0  0  0  0  0  0
   35.3830   19.9820   33.0880 C   0  0  0  0  0  0  0  0  0  0  0  0
   36.0850   20.7900   34.1610 C   0  0  0  0  0  0  0  0  0  0  0  0
   38.1320   20.8270   33.6450 H   0  0  0  0  0  0  0  0  0  0  0  0
   37.5880   22.9760   31.9660 H   0  0  0  0  0  0  0  0  0  0  0  0
   37.4200   21.3110   31.5950 H   0  0  0  0  0  0  0  0  0  0  0  0
   35.5780   22.6030   30.8750 H   0  0  0  0  0  0  0  0  0  0  0  0
   35.0830   22.9100   32.5870 H   0  0  0  0  0  0  0  0  0  0  0  0
   33.8800   20.9810   31.8870 H   0  0  0  0  0  0  0  0  0  0  0  0
   35.2460   20.3410   30.9720 H   0  0  0  0  0  0  0  0  0  0  0  0
   36.0030   19.1310   32.7370 H   0  0  0  0  0  0  0  0  0  0  0  0
   34.4620   19.5850   33.5810 H   0  0  0  0  0  0  0  0  0  0  0  0
   35.3200   21.5360   34.5110 H   0  0  0  0  0  0  0  0  0  0  0  0
   36.2910   20.1460   35.0150 H   0  0  0  0  0  0  0  0  0  0  0  0
   37.6450   22.5530   34.6590 C   0  0  0  0  0  0  0  0  0  0  0  0
   38.1030   23.7930   34.1890 C   0  0  0  0  0  0  0  0  0  0  0  0
   38.4890   24.7290   35.1740 C   0  0  0  0  0  0  0  0  0  0  0  0
   38.4050   24.3990   36.5000 N   0  0  0  0  0  0  0  0  0  0  0  0
   37.9510   23.1790   36.8910 C   0  0  0  0  0  0  0  0  0  0  0  0
   37.5810   22.2830   35.9620 N   0  0  0  0  0  0  0  0  0  0  0  0
   38.1890   24.1030   33.1590 H   0  0  0  0  0  0  0  0  0  0  0  0
   37.9370   23.0540   37.9660 H   0  0  0  0  0  0  0  0  0  0  0  0
   38.9950   26.0820   34.8410 C   0  0  0  0  0  3  0  0  0  0  0  0
   38.6980   27.1340   35.8870 C   0  0  0  0  0  2  0  0  0  0  0  0
   37.9710   27.1850   34.5980 C   0  0  0  0  0  2  0  0  0  0  0  0
  1  6  1  0  0  0  0
  1 18  1  0  0  0  0
  2  1  1  0  0  0  0
  3  4  1  0  0  0  0
  3  2  1  0  0  0  0
  3 11  1  0  0  0  0
  4  5  1  0  0  0  0
  5 15  1  0  0  0  0
  5  6  1  0  0  0  0
  6 16  1  0  0  0  0
  6 17  1  0  0  0  0
  7  1  1  0  0  0  0
  8  2  1  0  0  0  0
  9  2  1  0  0  0  0
 10  3  1  0  0  0  0
 12  4  1  0  0  0  0
 13  4  1  0  0  0  0
 14  5  1  0  0  0  0
 18 23  1  0  0  0  0
 19 18  2  0  0  0  0
 19 20  1  0  0  0  0
 20 21  2  0  0  0  0
 21 22  1  0  0  0  0
 22 25  1  0  0  0  0
 23 22  2  0  0  0  0
 24 19  1  0  0  0  0
 26 20  1  0  0  0  0
 26 27  1  0  0  0  0
 28 26  1  0  0  0  0
 28 27  1  0  0  0  0
M  END
>  <minimizedAffinity>
-4.68550968

$$$$

 OpenBabel03272506193D

 28 30  0  0  0  0  0  0  0  0999 V2000
   38.1800   26.3400   33.8320 C   0  0  0  0  0  0  0  0  0  0  0  0
   37.8480   27.4210   34.7660 C   0  0  0  0  0  0  0  0  0  0  0  0
   36.4760   28.0080   34.5110 C   0  0  0  0  0  0  0  0  0  0  0  0
   36.4010   28.6070   33.1270 C   0  0  0  0  0  0  0  0  0  0  0  0
   37.0570   27.7570   32.0800 C   0  0  0  0  0  0  0  0  0  0  0  0
   37.3570   26.3580   32.5790 C   0  0  0  0  0  0  0  0  0  0  0  0
   39.2590   26.4380   33.4910 H   0  0  0  0  0  0  0  0  0  0  0  0
   38.0190   27.3220   35.8170 H   0  0  0  0  0  0  0  0  0  0  0  0
   38.5060   28.2800   34.4820 H   0  0  0  0  0  0  0  0  0  0  0  0
   36.3460   28.8280   35.2660 H   0  0  0  0  0  0  0  0  0  0  0  0
   35.6990   27.2410   34.6880 H   0  0  0  0  0  0  0  0  0  0  0  0
   35.3420   28.7870   32.9150 H   0  0  0  0  0  0  0  0  0  0  0  0
   36.8860   29.5980   33.1800 H   0  0  0  0  0  0  0  0  0  0  0  0
   37.9660   28.2640   31.6940 H   0  0  0  0  0  0  0  0  0  0  0  0
   36.3330   27.6160   31.2400 H   0  0  0  0  0  0  0  0  0  0  0  0
   36.3530   25.9160   32.8270 H   0  0  0  0  0  0  0  0  0  0  0  0
   37.7530   25.7630   31.7570 H   0  0  0  0  0  0  0  0  0  0  0  0
   38.1150   24.9900   34.4080 C   0  0  0  0  0  0  0  0  0  0  0  0
   37.9290   24.9020   35.7960 C   0  0  0  0  0  0  0  0  0  0  0  0
   37.8940   23.5990   36.3380 C   0  0  0  0  0  0  0  0  0  0  0  0
   38.0380   22.5130   35.5180 N   0  0  0  0  0  0  0  0  0  0  0  0
   38.2140   22.6650   34.1780 C   0  0  0  0  0  0  0  0  0  0  0  0
   38.2490   23.9000   33.6530 N   0  0  0  0  0  0  0  0  0  0  0  0
   37.8110   25.7230   36.4860 H   0  0  0  0  0  0  0  0  0  0  0  0
   38.3140   21.7250   33.6520 H   0  0  0  0  0  0  0  0  0  0  0  0
   37.7050   23.3370   37.7850 C   0  0  0  0  0  3  0  0  0  0  0  0
   38.0040   24.5210   38.6780 C   0  0  0  0  0  2  0  0  0  0  0  0
   38.9380   23.3730   38.6820 C   0  0  0  0  0  2  0  0  0  0  0  0
  1 18  1  0  0  0  0
  1  2  1  0  0  0  0
  2  8  1  0  0  0  0
  3 11  1  0  0  0  0
  3  2  1  0  0  0  0
  3 10  1  0  0  0  0
  4 13  1  0  0  0  0
  4  3  1  0  0  0  0
  5  6  1  0  0  0  0
  5  4  1  0  0  0  0
  6 16  1  0  0  0  0
  6  1  1  0  0  0  0
  7  1  1  0  0  0  0
  9  2  1  0  0  0  0
 12  4  1  0  0  0  0
 14  5  1  0  0  0  0
 15  5  1  0  0  0  0
 17  6  1  0  0  0  0
 18 19  1  0  0  0  0
 19 20  2  0  0  0  0
 19 24  1  0  0  0  0
 20 26  1  0  0  0  0
 21 20  1  0  0  0  0
 22 21  2  0  0  0  0
 23 22  1  0  0  0  0
 23 18  2  0  0  0  0
 25 22  1  0  0  0  0
 26 27  1  0  0  0  0
 26 28  1  0  0  0  0
 27 28  1  0  0  0  0
M  END
>  <minimizedAffinity>
-4.61628866

$$$$

 OpenBabel03272506193D

 28 30  0  0  0  0  0  0  0  0999 V2000
   38.8590   26.5260   34.8600 C   0  0  0  0  0  0  0  0  0  0  0  0
   37.9720   27.5710   35.3820 C   0  0  0  0  0  0  0  0  0  0  0  0
   36.6730   27.6700   34.6120 C   0  0  0  0  0  0  0  0  0  0  0  0
   36.9350   28.0220   33.1670 C   0  0  0  0  0  0  0  0  0  0  0  0
   38.0980   27.2780   32.5810 C   0  0  0  0  0  0  0  0  0  0  0  0
   38.5400   26.1210   33.4530 C   0  0  0  0  0  0  0  0  0  0  0  0
   39.9300   26.9020   34.8350 H   0  0  0  0  0  0  0  0  0  0  0  0
   37.7890   27.6740   36.4310 H   0  0  0  0  0  0  0  0  0  0  0  0
   38.4560   28.5440   35.1140 H   0  0  0  0  0  0  0  0  0  0  0  0
   36.0940   28.5060   35.0870 H   0  0  0  0  0  0  0  0  0  0  0  0
   36.0950   26.7340   34.7250 H   0  0  0  0  0  0  0  0  0  0  0  0
   36.0050   27.8380   32.6210 H   0  0  0  0  0  0  0  0  0  0  0  0
   37.1150   29.1110   33.1300 H   0  0  0  0  0  0  0  0  0  0  0  0
   38.9320   27.9820   32.3710 H   0  0  0  0  0  0  0  0  0  0  0  0
   37.7660   26.8100   31.6220 H   0  0  0  0  0  0  0  0  0  0  0  0
   37.6520   25.4310   33.4920 H   0  0  0  0  0  0  0  0  0  0  0  0
   39.3270   25.5690   32.9410 H   0  0  0  0  0  0  0  0  0  0  0  0
   38.9310   25.3140   35.6850 C   0  0  0  0  0  0  0  0  0  0  0  0
   39.9730   24.4170   35.4020 C   0  0  0  0  0  0  0  0  0  0  0  0
   40.0150   23.2440   36.1870 C   0  0  0  0  0  0  0  0  0  0  0  0
   39.0720   23.0370   37.1580 N   0  0  0  0  0  0  0  0  0  0  0  0
   38.0880   23.9460   37.3840 C   0  0  0  0  0  0  0  0  0  0  0  0
   38.0390   25.0650   36.6430 N   0  0  0  0  0  0  0  0  0  0  0  0
   40.7390   24.5310   34.6510 H   0  0  0  0  0  0  0  0  0  0  0  0
   37.4130   23.6560   38.1780 H   0  0  0  0  0  0  0  0  0  0  0  0
   41.0510   22.1980   36.0120 C   0  0  0  0  0  3  0  0  0  0  0  0
   41.4840   21.5270   37.2970 C   0  0  0  0  0  2  0  0  0  0  0  0
   42.4260   22.4490   36.6210 C   0  0  0  0  0  2  0  0  0  0  0  0
  1  2  1  0  0  0  0
  1 18  1  0  0  0  0
  2  8  1  0  0  0  0
  3 11  1  0  0  0  0
  3 10  1  0  0  0  0
  3  2  1  0  0  0  0
  4  3  1  0  0  0  0
  5  4  1  0  0  0  0
  5  6  1  0  0  0  0
  6 16  1  0  0  0  0
  6  1  1  0  0  0  0
  7  1  1  0  0  0  0
  9  2  1  0  0  0  0
 12  4  1  0  0  0  0
 13  4  1  0  0  0  0
 14  5  1  0  0  0  0
 15  5  1  0  0  0  0
 17  6  1  0  0  0  0
 18 23  1  0  0  0  0
 19 18  2  0  0  0  0
 19 20  1  0  0  0  0
 20 21  2  0  0  0  0
 21 22  1  0  0  0  0
 22 25  1  0  0  0  0
 23 22  2  0  0  0  0
 24 19  1  0  0  0  0
 26 20  1  0  0  0  0
 26 28  1  0  0  0  0
 26 27  1  0  0  0  0
 28 27  1  0  0  0  0
M  END
>  <minimizedAffinity>
-4.58793926

$$$$

 OpenBabel03272506193D

 28 30  0  0  0  0  0  0  0  0999 V2000
   38.6100   24.8060   33.7480 C   0  0  0  0  0  0  0  0  0  0  0  0
   38.4120   24.7260   35.1980 C   0  0  0  0  0  0  0  0  0  0  0  0
   38.0010   26.0510   35.8040 C   0  0  0  0  0  0  0  0  0  0  0  0
   39.0700   27.0930   35.5800 C   0  0  0  0  0  0  0  0  0  0  0  0
   39.6570   27.0500   34.2010 C   0  0  0  0  0  0  0  0  0  0  0  0
   38.8350   26.2030   33.2520 C   0  0  0  0  0  0  0  0  0  0  0  0
   39.5370   24.2220   33.4480 H   0  0  0  0  0  0  0  0  0  0  0  0
   37.8540   23.9270   35.6420 H   0  0  0  0  0  0  0  0  0  0  0  0
   39.4330   24.5950   35.6380 H   0  0  0  0  0  0  0  0  0  0  0  0
   37.9000   25.8690   36.9070 H   0  0  0  0  0  0  0  0  0  0  0  0
   37.0160   26.3570   35.4060 H   0  0  0  0  0  0  0  0  0  0  0  0
   38.6220   28.0640   35.8130 H   0  0  0  0  0  0  0  0  0  0  0  0
   39.8540   26.9160   36.3390 H   0  0  0  0  0  0  0  0  0  0  0  0
   40.7150   26.7140   34.2480 H   0  0  0  0  0  0  0  0  0  0  0  0
   39.6210   28.0830   33.7740 H   0  0  0  0  0  0  0  0  0  0  0  0
   37.8320   26.7100   33.2030 H   0  0  0  0  0  0  0  0  0  0  0  0
   39.2570   26.2760   32.2510 H   0  0  0  0  0  0  0  0  0  0  0  0
   37.5390   24.1980   32.9470 C   0  0  0  0  0  0  0  0  0  0  0  0
   37.4390   22.7990   32.9820 C   0  0  0  0  0  0  0  0  0  0  0  0
   36.4210   22.2280   32.1880 C   0  0  0  0  0  0  0  0  0  0  0  0
   35.6020   23.0330   31.4430 N   0  0  0  0  0  0  0  0  0  0  0  0
   35.7500   24.3840   31.4530 C   0  0  0  0  0  0  0  0  0  0  0  0
   36.7150   24.9370   32.2050 N   0  0  0  0  0  0  0  0  0  0  0  0
   38.0570   22.1200   33.5490 H   0  0  0  0  0  0  0  0  0  0  0  0
   35.0370   24.8960   30.8210 H   0  0  0  0  0  0  0  0  0  0  0  0
   36.1850   20.7660   32.1150 C   0  0  0  0  0  3  0  0  0  0  0  0
   34.7260   20.3700   32.0710 C   0  0  0  0  0  2  0  0  0  0  0  0
   35.5020   20.0950   33.3010 C   0  0  0  0  0  2  0  0  0  0  0  0
  1  2  1  0  0  0  0
  2  9  1  0  0  0  0
  2  8  1  0  0  0  0
  2  3  1  0  0  0  0
  3 10  1  0  0  0  0
  4  3  1  0  0  0  0
  4 12  1  0  0  0  0
  4 13  1  0  0  0  0
  5 14  1  0  0  0  0
  5  4  1  0  0  0  0
  6  1  1  0  0  0  0
  6  5  1  0  0  0  0
  7  1  1  0  0  0  0
 11  3  1  0  0  0  0
 15  5  1  0  0  0  0
 16  6  1  0  0  0  0
 17  6  1  0  0  0  0
 18 19  1  0  0  0  0
 18  1  1  0  0  0  0
 19 24  1  0  0  0  0
 20 19  2  0  0  0  0
 21 22  2  0  0  0  0
 21 20  1  0  0  0  0
 22 23  1  0  0  0  0
 23 18  2  0  0  0  0
 25 22  1  0  0  0  0
 26 20  1  0  0  0  0
 26 28  1  0  0  0  0
 27 26  1  0  0  0  0
 27 28  1  0  0  0  0
M  END
>  <minimizedAffinity>
-4.55956841

$$$$

 OpenBabel03272506193D

 28 30  0  0  0  0  0  0  0  0999 V2000
   38.6960   25.4350   35.7520 C   0  0  0  0  0  0  0  0  0  0  0  0
   39.8750   24.7050   35.2730 C   0  0  0  0  0  0  0  0  0  0  0  0
   39.7030   23.2040   35.3580 C   0  0  0  0  0  0  0  0  0  0  0  0
   39.4890   22.7710   36.7880 C   0  0  0  0  0  0  0  0  0  0  0  0
   38.5620   23.6740   37.5460 C   0  0  0  0  0  0  0  0  0  0  0  0
   37.8030   24.6160   36.6330 C   0  0  0  0  0  0  0  0  0  0  0  0
   39.0180   26.3230   36.3830 H   0  0  0  0  0  0  0  0  0  0  0  0
   40.3630   24.9710   34.3590 H   0  0  0  0  0  0  0  0  0  0  0  0
   40.6700   24.8740   36.0420 H   0  0  0  0  0  0  0  0  0  0  0  0
   40.6650   22.7610   34.9870 H   0  0  0  0  0  0  0  0  0  0  0  0
   38.8860   22.8800   34.6870 H   0  0  0  0  0  0  0  0  0  0  0  0
   39.1320   21.7370   36.7580 H   0  0  0  0  0  0  0  0  0  0  0  0
   40.4840   22.7480   37.2680 H   0  0  0  0  0  0  0  0  0  0  0  0
   39.1240   24.2210   38.3330 H   0  0  0  0  0  0  0  0  0  0  0  0
   37.7770   23.0420   38.0290 H   0  0  0  0  0  0  0  0  0  0  0  0
   37.1920   23.9460   35.9670 H   0  0  0  0  0  0  0  0  0  0  0  0
   37.0880   25.1860   37.2240 H   0  0  0  0  0  0  0  0  0  0  0  0
   37.8750   26.0360   34.6930 C   0  0  0  0  0  0  0  0  0  0  0  0
   37.6170   25.2420   33.5650 C   0  0  0  0  0  0  0  0  0  0  0  0
   36.8470   25.8430   32.5440 C   0  0  0  0  0  0  0  0  0  0  0  0
   36.4010   27.1280   32.6910 N   0  0  0  0  0  0  0  0  0  0  0  0
   36.6850   27.8450   33.8100 C   0  0  0  0  0  0  0  0  0  0  0  0
   37.4160   27.2830   34.7860 N   0  0  0  0  0  0  0  0  0  0  0  0
   37.9430   24.2270   33.3990 H   0  0  0  0  0  0  0  0  0  0  0  0
   36.2710   28.8450   33.7940 H   0  0  0  0  0  0  0  0  0  0  0  0
   36.4880   25.1380   31.2900 C   0  0  0  0  0  3  0  0  0  0  0  0
   35.0510   25.3290   30.8560 C   0  0  0  0  0  2  0  0  0  0  0  0
   35.4700   24.0070   31.3760 C   0  0  0  0  0  2  0  0  0  0  0  0
  1  7  1  0  0  0  0
  1  6  1  0  0  0  0
  2  3  1  0  0  0  0
  2  1  1  0  0  0  0
  2  9  1  0  0  0  0
  3  4  1  0  0  0  0
  4 13  1  0  0  0  0
  4  5  1  0  0  0  0
  5 15  1  0  0  0  0
  5 14  1  0  0  0  0
  6 17  1  0  0  0  0
  6  5  1  0  0  0  0
  8  2  1  0  0  0  0
 10  3  1  0  0  0  0
 11  3  1  0  0  0  0
 12  4  1  0  0  0  0
 16  6  1  0  0  0  0
 18 23  1  0  0  0  0
 18  1  1  0  0  0  0
 19 18  2  0  0  0  0
 20 21  2  0  0  0  0
 20 19  1  0  0  0  0
 21 22  1  0  0  0  0
 22 23  2  0  0  0  0
 24 19  1  0  0  0  0
 25 22  1  0  0  0  0
 26 28  1  0  0  0  0
 26 20  1  0  0  0  0
 27 26  1  0  0  0  0
 27 28  1  0  0  0  0
M  END
>  <minimizedAffinity>
-4.51993084

$$$$

 OpenBabel03272506193D

 28 30  0  0  0  0  0  0  0  0999 V2000
   37.5130   26.6580   34.9070 C   0  0  0  0  0  0  0  0  0  0  0  0
   38.6720   27.1210   35.6760 C   0  0  0  0  0  0  0  0  0  0  0  0
   39.9870   26.7830   35.0060 C   0  0  0  0  0  0  0  0  0  0  0  0
   40.1440   25.2880   34.8640 C   0  0  0  0  0  0  0  0  0  0  0  0
   38.8830   24.6010   34.4290 C   0  0  0  0  0  0  0  0  0  0  0  0
   37.8410   25.5780   33.9220 C   0  0  0  0  0  0  0  0  0  0  0  0
   36.7370   26.2100   35.6060 H   0  0  0  0  0  0  0  0  0  0  0  0
   38.7100   28.1070   36.0890 H   0  0  0  0  0  0  0  0  0  0  0  0
   38.7180   26.4660   36.5820 H   0  0  0  0  0  0  0  0  0  0  0  0
   40.7900   27.1660   35.6900 H   0  0  0  0  0  0  0  0  0  0  0  0
   40.0650   27.3140   34.0400 H   0  0  0  0  0  0  0  0  0  0  0  0
   40.9720   25.1190   34.1680 H   0  0  0  0  0  0  0  0  0  0  0  0
   40.4720   24.9050   35.8470 H   0  0  0  0  0  0  0  0  0  0  0  0
   38.4920   23.9670   35.2530 H   0  0  0  0  0  0  0  0  0  0  0  0
   39.1240   23.9520   33.5510 H   0  0  0  0  0  0  0  0  0  0  0  0
   38.3140   26.0680   33.0270 H   0  0  0  0  0  0  0  0  0  0  0  0
   36.9850   25.0210   33.5430 H   0  0  0  0  0  0  0  0  0  0  0  0
   36.7800   27.7180   34.2030 C   0  0  0  0  0  0  0  0  0  0  0  0
   36.3500   28.8100   34.9740 C   0  0  0  0  0  0  0  0  0  0  0  0
   35.6250   29.8090   34.2880 C   0  0  0  0  0  0  0  0  0  0  0  0
   35.3800   29.6780   32.9480 N   0  0  0  0  0  0  0  0  0  0  0  0
   35.8240   28.5940   32.2570 C   0  0  0  0  0  0  0  0  0  0  0  0
   36.5140   27.6390   32.9000 N   0  0  0  0  0  0  0  0  0  0  0  0
   36.5170   28.9630   36.0290 H   0  0  0  0  0  0  0  0  0  0  0  0
   35.5590   28.6190   31.2090 H   0  0  0  0  0  0  0  0  0  0  0  0
   35.1030   31.0240   34.9580 C   0  0  0  0  0  3  0  0  0  0  0  0
   35.5950   32.3260   34.3640 C   0  0  0  0  0  2  0  0  0  0  0  0
   36.0980   31.9150   35.6940 C   0  0  0  0  0  2  0  0  0  0  0  0
  1  7  1  0  0  0  0
  1  2  1  0  0  0  0
  2  8  1  0  0  0  0
  2  9  1  0  0  0  0
  3  2  1  0  0  0  0
  3 10  1  0  0  0  0
  4  3  1  0  0  0  0
  4 13  1  0  0  0  0
  5  4  1  0  0  0  0
  5 14  1  0  0  0  0
  6  5  1  0  0  0  0
  6  1  1  0  0  0  0
 11  3  1  0  0  0  0
 12  4  1  0  0  0  0
 15  5  1  0  0  0  0
 16  6  1  0  0  0  0
 17  6  1  0  0  0  0
 18  1  1  0  0  0  0
 18 19  1  0  0  0  0
 19 24  1  0  0  0  0
 20 26  1  0  0  0  0
 20 19  2  0  0  0  0
 21 20  1  0  0  0  0
 22 23  1  0  0  0  0
 22 21  2  0  0  0  0
 23 18  2  0  0  0  0
 25 22  1  0  0  0  0
 26 28  1  0  0  0  0
 27 26  1  0  0  0  0
 27 28  1  0  0  0  0
M  END
>  <minimizedAffinity>
-4.39885855

$$$$

 OpenBabel03272506193D

 28 30  0  0  0  0  0  0  0  0999 V2000
   39.0410   24.1700   35.7000 C   0  0  0  0  0  0  0  0  0  0  0  0
   40.4690   23.8710   35.5450 C   0  0  0  0  0  0  0  0  0  0  0  0
   40.8430   22.5150   36.1050 C   0  0  0  0  0  0  0  0  0  0  0  0
   40.5560   22.4520   37.5860 C   0  0  0  0  0  0  0  0  0  0  0  0
   39.2470   23.0800   37.9600 C   0  0  0  0  0  0  0  0  0  0  0  0
   38.3680   23.3430   36.7540 C   0  0  0  0  0  0  0  0  0  0  0  0
   38.9020   25.2500   36.0230 H   0  0  0  0  0  0  0  0  0  0  0  0
   40.9770   24.0430   34.6200 H   0  0  0  0  0  0  0  0  0  0  0  0
   41.0000   24.5520   36.2570 H   0  0  0  0  0  0  0  0  0  0  0  0
   41.9490   22.4110   35.9470 H   0  0  0  0  0  0  0  0  0  0  0  0
   40.3300   21.7180   35.5360 H   0  0  0  0  0  0  0  0  0  0  0  0
   40.6100   21.3980   37.8750 H   0  0  0  0  0  0  0  0  0  0  0  0
   41.3900   22.9650   38.0960 H   0  0  0  0  0  0  0  0  0  0  0  0
   39.4240   24.0020   38.5540 H   0  0  0  0  0  0  0  0  0  0  0  0
   38.6740   22.3500   38.5830 H   0  0  0  0  0  0  0  0  0  0  0  0
   38.1690   22.3280   36.3120 H   0  0  0  0  0  0  0  0  0  0  0  0
   37.4030   23.7190   37.0900 H   0  0  0  0  0  0  0  0  0  0  0  0
   38.2560   24.0700   34.4630 C   0  0  0  0  0  0  0  0  0  0  0  0
   37.8750   22.7810   34.0570 C   0  0  0  0  0  0  0  0  0  0  0  0
   37.1420   22.6990   32.8530 C   0  0  0  0  0  0  0  0  0  0  0  0
   36.8440   23.8380   32.1550 N   0  0  0  0  0  0  0  0  0  0  0  0
   37.2410   25.0580   32.6030 C   0  0  0  0  0  0  0  0  0  0  0  0
   37.9390   25.1470   33.7460 N   0  0  0  0  0  0  0  0  0  0  0  0
   38.0830   21.8540   34.5680 H   0  0  0  0  0  0  0  0  0  0  0  0
   36.9380   25.8700   31.9550 H   0  0  0  0  0  0  0  0  0  0  0  0
   36.6670   21.4130   32.2890 C   0  0  0  0  0  3  0  0  0  0  0  0
   35.5490   21.5490   31.2790 C   0  0  0  0  0  2  0  0  0  0  0  0
   35.2410   20.9790   32.6100 C   0  0  0  0  0  2  0  0  0  0  0  0
  1  7  1  0  0  0  0
  1  6  1  0  0  0  0
  2  1  1  0  0  0  0
  2  3  1  0  0  0  0
  2  9  1  0  0  0  0
  3  4  1  0  0  0  0
  4 12  1  0  0  0  0
  4  5  1  0  0  0  0
  4 13  1  0  0  0  0
  5 14  1  0  0  0  0
  5 15  1  0  0  0  0
  6 17  1  0  0  0  0
  6  5  1  0  0  0  0
  8  2  1  0  0  0  0
 10  3  1  0  0  0  0
 11  3  1  0  0  0  0
 16  6  1  0  0  0  0
 18  1  1  0  0  0  0
 19 18  1  0  0  0  0
 19 24  1  0  0  0  0
 20 19  2  0  0  0  0
 21 22  2  0  0  0  0
 21 20  1  0  0  0  0
 22 23  1  0  0  0  0
 23 18  2  0  0  0  0
 25 22  1  0  0  0  0
 26 28  1  0  0  0  0
 26 20  1  0  0  0  0
 27 26  1  0  0  0  0
 27 28  1  0  0  0  0
M  END
>  <minimizedAffinity>
-4.34075499

$$$$
