
 OpenBabel03272506243D

 25 27  0  0  0  0  0  0  0  0999 V2000
   38.8860   24.0280   35.9640 C   0  0  0  0  0  0  0  0  0  0  0  0
   37.9180   24.5180   36.8160 C   0  0  0  0  0  0  0  0  0  0  0  0
   37.8650   24.2510   38.1740 C   0  0  0  0  0  0  0  0  0  0  0  0
   38.8740   23.4160   38.7310 C   0  0  0  0  0  0  0  0  0  0  0  0
   39.8410   22.9310   37.8630 C   0  0  0  0  0  0  0  0  0  0  0  0
   39.8730   23.2100   36.5160 C   0  0  0  0  0  0  0  0  0  0  0  0
   37.1160   25.1600   36.4750 H   0  0  0  0  0  0  0  0  0  0  0  0
   37.0970   24.6460   38.8230 H   0  0  0  0  0  0  0  0  0  0  0  0
   38.8670   23.1860   39.7770 H   0  0  0  0  0  0  0  0  0  0  0  0
   40.5990   22.3010   38.2920 H   0  0  0  0  0  0  0  0  0  0  0  0
   38.0550   23.5330   33.7210 C   0  0  0  0  0  0  0  0  0  0  0  0
   38.7810   24.4120   34.5820 C   0  0  0  0  0  0  0  0  0  0  0  0
   39.3220   25.5580   34.0050 C   0  0  0  0  0  0  0  0  0  0  0  0
   39.1360   25.7820   32.6760 N   0  0  0  0  0  0  0  0  0  0  0  0
   38.4360   24.9210   31.8820 C   0  0  0  0  0  0  0  0  0  0  0  0
   37.8940   23.7870   32.4210 N   0  0  0  0  0  0  0  0  0  0  0  0
   37.5990   22.6300   34.0460 H   0  0  0  0  0  0  0  0  0  0  0  0
   38.3720   25.2340   30.8430 H   0  0  0  0  0  0  0  0  0  0  0  0
   40.0910   26.5490   34.7700 C   0  0  0  0  0  0  0  0  0  0  0  0
   40.5600   27.5640   33.9030 F   0  0  0  0  0  0  0  0  0  0  0  0
   39.4770   27.1310   35.8160 F   0  0  0  0  0  0  0  0  0  0  0  0
   41.2890   25.9790   35.2320 F   0  0  0  0  0  0  0  0  0  0  0  0
   40.9090   22.6880   35.5880 C   0  0  0  0  0  3  0  0  0  0  0  0
   41.8560   21.6180   35.9860 C   0  0  0  0  0  2  0  0  0  0  0  0
   42.3310   23.0290   35.9810 C   0  0  0  0  0  2  0  0  0  0  0  0
  1  6  2  0  0  0  0
  1  2  1  0  0  0  0
  2  3  2  0  0  0  0
  3  4  1  0  0  0  0
  3  8  1  0  0  0  0
  4  9  1  0  0  0  0
  5 10  1  0  0  0  0
  5  4  2  0  0  0  0
  6  5  1  0  0  0  0
  7  2  1  0  0  0  0
 11 17  1  0  0  0  0
 11 12  1  0  0  0  0
 12  1  1  0  0  0  0
 13 12  2  0  0  0  0
 13 19  1  0  0  0  0
 14 13  1  0  0  0  0
 15 16  1  0  0  0  0
 15 14  2  0  0  0  0
 16 11  2  0  0  0  0
 18 15  1  0  0  0  0
 19 22  1  0  0  0  0
 19 21  1  0  0  0  0
 20 19  1  0  0  0  0
 23 25  1  0  0  0  0
 23 24  1  0  0  0  0
 23  6  1  0  0  0  0
 25 24  1  0  0  0  0
M  END
>  <minimizedAffinity>
-5.20143175

$$$$

 OpenBabel03272506243D

 25 27  0  0  0  0  0  0  0  0999 V2000
   38.8270   25.2120   35.3510 C   0  0  0  0  0  0  0  0  0  0  0  0
   38.9030   26.4850   35.8760 C   0  0  0  0  0  0  0  0  0  0  0  0
   38.1960   27.5740   35.3930 C   0  0  0  0  0  0  0  0  0  0  0  0
   37.3330   27.3680   34.2800 C   0  0  0  0  0  0  0  0  0  0  0  0
   37.2660   26.0840   33.7620 C   0  0  0  0  0  0  0  0  0  0  0  0
   37.9790   25.0170   34.2600 C   0  0  0  0  0  0  0  0  0  0  0  0
   39.5340   26.7270   36.7220 H   0  0  0  0  0  0  0  0  0  0  0  0
   38.2710   28.5630   35.8200 H   0  0  0  0  0  0  0  0  0  0  0  0
   36.7690   28.1860   33.8770 H   0  0  0  0  0  0  0  0  0  0  0  0
   36.6110   25.9380   32.9220 H   0  0  0  0  0  0  0  0  0  0  0  0
   40.9120   23.9400   35.4000 C   0  0  0  0  0  0  0  0  0  0  0  0
   39.6350   24.2050   35.9840 C   0  0  0  0  0  0  0  0  0  0  0  0
   39.2890   23.4640   37.1110 C   0  0  0  0  0  0  0  0  0  0  0  0
   40.1660   22.5420   37.5930 N   0  0  0  0  0  0  0  0  0  0  0  0
   41.3790   22.3140   37.0100 C   0  0  0  0  0  0  0  0  0  0  0  0
   41.7450   23.0260   35.9030 N   0  0  0  0  0  0  0  0  0  0  0  0
   41.2850   24.4400   34.5400 H   0  0  0  0  0  0  0  0  0  0  0  0
   41.9690   21.5480   37.5080 H   0  0  0  0  0  0  0  0  0  0  0  0
   38.0090   23.6310   37.8130 C   0  0  0  0  0  0  0  0  0  0  0  0
   37.9890   24.8790   38.4800 F   0  0  0  0  0  0  0  0  0  0  0  0
   36.8860   23.5200   37.0800 F   0  0  0  0  0  0  0  0  0  0  0  0
   37.9220   22.7230   38.8810 F   0  0  0  0  0  0  0  0  0  0  0  0
   37.9060   23.6420   33.7020 C   0  0  0  0  0  3  0  0  0  0  0  0
   38.6480   23.2470   32.4810 C   0  0  0  0  0  2  0  0  0  0  0  0
   37.1940   23.5430   32.3700 C   0  0  0  0  0  2  0  0  0  0  0  0
  1  2  1  0  0  0  0
  1 12  1  0  0  0  0
  2  7  1  0  0  0  0
  3  8  1  0  0  0  0
  3  2  2  0  0  0  0
  4  3  1  0  0  0  0
  5  6  1  0  0  0  0
  5  4  2  0  0  0  0
  6  1  2  0  0  0  0
  9  4  1  0  0  0  0
 10  5  1  0  0  0  0
 11 16  2  0  0  0  0
 11 12  1  0  0  0  0
 12 13  2  0  0  0  0
 13 14  1  0  0  0  0
 13 19  1  0  0  0  0
 15 18  1  0  0  0  0
 15 14  2  0  0  0  0
 16 15  1  0  0  0  0
 17 11  1  0  0  0  0
 19 20  1  0  0  0  0
 19 22  1  0  0  0  0
 21 19  1  0  0  0  0
 23  6  1  0  0  0  0
 24 23  1  0  0  0  0
 25 24  1  0  0  0  0
 25 23  1  0  0  0  0
M  END
>  <minimizedAffinity>
-5.16904593

$$$$

 OpenBabel03272506243D

 25 27  0  0  0  0  0  0  0  0999 V2000
   40.7730   23.4390   35.5350 C   0  0  0  0  0  0  0  0  0  0  0  0
   41.7530   22.6730   36.1330 C   0  0  0  0  0  0  0  0  0  0  0  0
   43.0490   23.1030   36.3630 C   0  0  0  0  0  0  0  0  0  0  0  0
   43.3960   24.4230   35.9570 C   0  0  0  0  0  0  0  0  0  0  0  0
   42.4020   25.1810   35.3590 C   0  0  0  0  0  0  0  0  0  0  0  0
   41.1200   24.7310   35.1400 C   0  0  0  0  0  0  0  0  0  0  0  0
   41.5730   21.6610   36.4710 H   0  0  0  0  0  0  0  0  0  0  0  0
   43.8010   22.4870   36.8330 H   0  0  0  0  0  0  0  0  0  0  0  0
   44.3890   24.7930   36.1180 H   0  0  0  0  0  0  0  0  0  0  0  0
   42.6740   26.1770   35.0550 H   0  0  0  0  0  0  0  0  0  0  0  0
   39.2140   22.1990   34.1220 C   0  0  0  0  0  0  0  0  0  0  0  0
   39.4830   22.8240   35.3780 C   0  0  0  0  0  0  0  0  0  0  0  0
   38.4710   22.7830   36.3340 C   0  0  0  0  0  0  0  0  0  0  0  0
   37.2990   22.1610   36.0330 N   0  0  0  0  0  0  0  0  0  0  0  0
   37.0750   21.5730   34.8220 C   0  0  0  0  0  0  0  0  0  0  0  0
   38.0500   21.5990   33.8640 N   0  0  0  0  0  0  0  0  0  0  0  0
   39.9060   22.1660   33.3160 H   0  0  0  0  0  0  0  0  0  0  0  0
   36.0930   21.1170   34.7300 H   0  0  0  0  0  0  0  0  0  0  0  0
   38.6090   23.3850   37.6670 C   0  0  0  0  0  0  0  0  0  0  0  0
   37.4780   23.0660   38.4560 F   0  0  0  0  0  0  0  0  0  0  0  0
   39.7180   23.0800   38.3680 F   0  0  0  0  0  0  0  0  0  0  0  0
   38.5230   24.7840   37.5780 F   0  0  0  0  0  0  0  0  0  0  0  0
   40.0570   25.5460   34.4970 C   0  0  0  0  0  3  0  0  0  0  0  0
   40.3140   26.9120   33.9810 C   0  0  0  0  0  2  0  0  0  0  0  0
   39.6300   26.7600   35.2930 C   0  0  0  0  0  2  0  0  0  0  0  0
  1  2  1  0  0  0  0
  2  3  2  0  0  0  0
  2  7  1  0  0  0  0
  3  8  1  0  0  0  0
  4  9  1  0  0  0  0
  4  3  1  0  0  0  0
  5  4  2  0  0  0  0
  6  5  1  0  0  0  0
  6  1  2  0  0  0  0
 10  5  1  0  0  0  0
 11 12  1  0  0  0  0
 12  1  1  0  0  0  0
 12 13  2  0  0  0  0
 13 19  1  0  0  0  0
 14 13  1  0  0  0  0
 15 14  2  0  0  0  0
 16 11  2  0  0  0  0
 16 15  1  0  0  0  0
 17 11  1  0  0  0  0
 18 15  1  0  0  0  0
 19 21  1  0  0  0  0
 19 20  1  0  0  0  0
 22 19  1  0  0  0  0
 23  6  1  0  0  0  0
 23 25  1  0  0  0  0
 24 23  1  0  0  0  0
 24 25  1  0  0  0  0
M  END
>  <minimizedAffinity>
-5.06907797

$$$$

 OpenBabel03272506243D

 25 27  0  0  0  0  0  0  0  0999 V2000
   38.8950   23.5070   34.5270 C   0  0  0  0  0  0  0  0  0  0  0  0
   38.1230   22.6380   33.7840 C   0  0  0  0  0  0  0  0  0  0  0  0
   37.2560   23.0290   32.7770 C   0  0  0  0  0  0  0  0  0  0  0  0
   37.1540   24.4190   32.4860 C   0  0  0  0  0  0  0  0  0  0  0  0
   37.9360   25.2800   33.2390 C   0  0  0  0  0  0  0  0  0  0  0  0
   38.7900   24.8680   34.2360 C   0  0  0  0  0  0  0  0  0  0  0  0
   38.1410   21.5670   33.9410 H   0  0  0  0  0  0  0  0  0  0  0  0
   36.6610   22.3310   32.2080 H   0  0  0  0  0  0  0  0  0  0  0  0
   36.4940   24.7600   31.7130 H   0  0  0  0  0  0  0  0  0  0  0  0
   37.8520   26.3280   33.0120 H   0  0  0  0  0  0  0  0  0  0  0  0
   40.9900   22.3880   35.0980 C   0  0  0  0  0  0  0  0  0  0  0  0
   39.7380   22.9210   35.5330 C   0  0  0  0  0  0  0  0  0  0  0  0
   39.4480   22.8230   36.8920 C   0  0  0  0  0  0  0  0  0  0  0  0
   40.3530   22.2370   37.7220 N   0  0  0  0  0  0  0  0  0  0  0  0
   41.5410   21.7380   37.2720 C   0  0  0  0  0  0  0  0  0  0  0  0
   41.8520   21.8200   35.9440 N   0  0  0  0  0  0  0  0  0  0  0  0
   41.3210   22.4040   34.0880 H   0  0  0  0  0  0  0  0  0  0  0  0
   42.1580   21.3010   38.0530 H   0  0  0  0  0  0  0  0  0  0  0  0
   38.1990   23.3270   37.4790 C   0  0  0  0  0  0  0  0  0  0  0  0
   38.2490   24.7380   37.5690 F   0  0  0  0  0  0  0  0  0  0  0  0
   37.0490   22.9780   36.8710 F   0  0  0  0  0  0  0  0  0  0  0  0
   38.1100   22.9470   38.8280 F   0  0  0  0  0  0  0  0  0  0  0  0
   39.6260   25.7950   35.0430 C   0  0  0  0  0  3  0  0  0  0  0  0
   39.1850   27.1720   35.3710 C   0  0  0  0  0  2  0  0  0  0  0  0
   40.1710   26.9780   34.2730 C   0  0  0  0  0  2  0  0  0  0  0  0
  1 12  1  0  0  0  0
  2  7  1  0  0  0  0
  2  1  2  0  0  0  0
  3  2  1  0  0  0  0
  4  3  2  0  0  0  0
  4  5  1  0  0  0  0
  5  6  2  0  0  0  0
  6  1  1  0  0  0  0
  6 23  1  0  0  0  0
  8  3  1  0  0  0  0
  9  4  1  0  0  0  0
 10  5  1  0  0  0  0
 11 12  2  0  0  0  0
 11 16  1  0  0  0  0
 12 13  1  0  0  0  0
 13 19  1  0  0  0  0
 13 14  2  0  0  0  0
 15 14  1  0  0  0  0
 15 18  1  0  0  0  0
 16 15  2  0  0  0  0
 17 11  1  0  0  0  0
 19 20  1  0  0  0  0
 19 22  1  0  0  0  0
 21 19  1  0  0  0  0
 23 24  1  0  0  0  0
 25 23  1  0  0  0  0
 25 24  1  0  0  0  0
M  END
>  <minimizedAffinity>
-5.04607582

$$$$

 OpenBabel03272506243D

 25 27  0  0  0  0  0  0  0  0999 V2000
   39.8900   23.4280   35.3270 C   0  0  0  0  0  0  0  0  0  0  0  0
   40.9900   22.7230   34.8860 C   0  0  0  0  0  0  0  0  0  0  0  0
   41.8200   21.9770   35.7050 C   0  0  0  0  0  0  0  0  0  0  0  0
   41.5200   21.9320   37.0970 C   0  0  0  0  0  0  0  0  0  0  0  0
   40.4110   22.6450   37.5250 C   0  0  0  0  0  0  0  0  0  0  0  0
   39.6010   23.3800   36.6910 C   0  0  0  0  0  0  0  0  0  0  0  0
   41.2880   22.7030   33.8450 H   0  0  0  0  0  0  0  0  0  0  0  0
   42.6770   21.4310   35.3390 H   0  0  0  0  0  0  0  0  0  0  0  0
   42.1380   21.3650   37.7630 H   0  0  0  0  0  0  0  0  0  0  0  0
   40.1930   22.6060   38.5780 H   0  0  0  0  0  0  0  0  0  0  0  0
   38.1810   23.4040   33.5820 C   0  0  0  0  0  0  0  0  0  0  0  0
   39.1440   24.1480   34.3300 C   0  0  0  0  0  0  0  0  0  0  0  0
   39.2740   25.5010   34.0250 C   0  0  0  0  0  0  0  0  0  0  0  0
   38.4920   26.0380   33.0500 N   0  0  0  0  0  0  0  0  0  0  0  0
   37.5800   25.2980   32.3540 C   0  0  0  0  0  0  0  0  0  0  0  0
   37.4320   23.9690   32.6310 N   0  0  0  0  0  0  0  0  0  0  0  0
   37.9930   22.3680   33.7230 H   0  0  0  0  0  0  0  0  0  0  0  0
   37.0310   25.8670   31.6080 H   0  0  0  0  0  0  0  0  0  0  0  0
   40.2240   26.3850   34.7130 C   0  0  0  0  0  0  0  0  0  0  0  0
   39.5950   26.9870   35.8300 F   0  0  0  0  0  0  0  0  0  0  0  0
   41.3870   25.8420   35.1190 F   0  0  0  0  0  0  0  0  0  0  0  0
   40.5210   27.4960   33.9080 F   0  0  0  0  0  0  0  0  0  0  0  0
   38.4140   24.1450   37.1550 C   0  0  0  0  0  3  0  0  0  0  0  0
   37.9680   24.1270   38.5680 C   0  0  0  0  0  2  0  0  0  0  0  0
   37.2420   23.2860   37.5770 C   0  0  0  0  0  2  0  0  0  0  0  0
  1  6  1  0  0  0  0
  2  1  2  0  0  0  0
  2  3  1  0  0  0  0
  3  4  2  0  0  0  0
  4  5  1  0  0  0  0
  4  9  1  0  0  0  0
  5 10  1  0  0  0  0
  6 23  1  0  0  0  0
  6  5  2  0  0  0  0
  7  2  1  0  0  0  0
  8  3  1  0  0  0  0
 11 17  1  0  0  0  0
 11 12  1  0  0  0  0
 12  1  1  0  0  0  0
 13 12  2  0  0  0  0
 13 19  1  0  0  0  0
 14 13  1  0  0  0  0
 15 16  1  0  0  0  0
 15 14  2  0  0  0  0
 16 11  2  0  0  0  0
 18 15  1  0  0  0  0
 19 21  1  0  0  0  0
 19 20  1  0  0  0  0
 22 19  1  0  0  0  0
 23 25  1  0  0  0  0
 23 24  1  0  0  0  0
 25 24  1  0  0  0  0
M  END
>  <minimizedAffinity>
-4.9603734

$$$$

 OpenBabel03272506243D

 25 27  0  0  0  0  0  0  0  0999 V2000
   39.4590   24.7050   34.6880 C   0  0  0  0  0  0  0  0  0  0  0  0
   40.7970   24.4700   34.9270 C   0  0  0  0  0  0  0  0  0  0  0  0
   41.7920   25.4260   34.8080 C   0  0  0  0  0  0  0  0  0  0  0  0
   41.4120   26.7400   34.4130 C   0  0  0  0  0  0  0  0  0  0  0  0
   40.0640   26.9620   34.1770 C   0  0  0  0  0  0  0  0  0  0  0  0
   39.0930   25.9950   34.3020 C   0  0  0  0  0  0  0  0  0  0  0  0
   41.1710   23.5000   35.2310 H   0  0  0  0  0  0  0  0  0  0  0  0
   42.8340   25.2200   35.0000 H   0  0  0  0  0  0  0  0  0  0  0  0
   42.1530   27.5070   34.3100 H   0  0  0  0  0  0  0  0  0  0  0  0
   39.7870   27.9570   33.8790 H   0  0  0  0  0  0  0  0  0  0  0  0
   38.2360   22.8400   33.6930 C   0  0  0  0  0  0  0  0  0  0  0  0
   38.5680   23.5900   34.8620 C   0  0  0  0  0  0  0  0  0  0  0  0
   37.9990   23.1740   36.0630 C   0  0  0  0  0  0  0  0  0  0  0  0
   37.1700   22.0950   36.0650 N   0  0  0  0  0  0  0  0  0  0  0  0
   36.8740   21.4000   34.9280 C   0  0  0  0  0  0  0  0  0  0  0  0
   37.4180   21.7860   33.7360 N   0  0  0  0  0  0  0  0  0  0  0  0
   38.6070   23.0610   32.7220 H   0  0  0  0  0  0  0  0  0  0  0  0
   36.1990   20.5630   35.0890 H   0  0  0  0  0  0  0  0  0  0  0  0
   38.2520   23.8510   37.3420 C   0  0  0  0  0  0  0  0  0  0  0  0
   39.5320   23.4940   37.8280 F   0  0  0  0  0  0  0  0  0  0  0  0
   38.1480   25.1930   37.3590 F   0  0  0  0  0  0  0  0  0  0  0  0
   37.4040   23.3380   38.3370 F   0  0  0  0  0  0  0  0  0  0  0  0
   37.6490   26.2360   34.0460 C   0  0  0  0  0  3  0  0  0  0  0  0
   37.1490   27.5250   33.5090 C   0  0  0  0  0  2  0  0  0  0  0  0
   37.0120   27.2550   34.9670 C   0  0  0  0  0  2  0  0  0  0  0  0
  1 12  1  0  0  0  0
  1  2  1  0  0  0  0
  2  7  1  0  0  0  0
  3  2  2  0  0  0  0
  3  8  1  0  0  0  0
  4  3  1  0  0  0  0
  5  6  1  0  0  0  0
  5  4  2  0  0  0  0
  6  1  2  0  0  0  0
  9  4  1  0  0  0  0
 10  5  1  0  0  0  0
 11 16  2  0  0  0  0
 11 12  1  0  0  0  0
 12 13  2  0  0  0  0
 13 14  1  0  0  0  0
 13 19  1  0  0  0  0
 15 18  1  0  0  0  0
 15 14  2  0  0  0  0
 16 15  1  0  0  0  0
 17 11  1  0  0  0  0
 19 21  1  0  0  0  0
 19 20  1  0  0  0  0
 19 22  1  0  0  0  0
 23  6  1  0  0  0  0
 23 25  1  0  0  0  0
 24 23  1  0  0  0  0
 24 25  1  0  0  0  0
M  END
>  <minimizedAffinity>
-4.95578337

$$$$

 OpenBabel03272506243D

 25 27  0  0  0  0  0  0  0  0999 V2000
   39.5550   23.9870   35.3480 C   0  0  0  0  0  0  0  0  0  0  0  0
   39.0310   23.3370   36.4450 C   0  0  0  0  0  0  0  0  0  0  0  0
   39.7870   22.6670   37.3920 C   0  0  0  0  0  0  0  0  0  0  0  0
   41.2010   22.6460   37.2240 C   0  0  0  0  0  0  0  0  0  0  0  0
   41.7140   23.3040   36.1160 C   0  0  0  0  0  0  0  0  0  0  0  0
   40.9420   23.9630   35.1890 C   0  0  0  0  0  0  0  0  0  0  0  0
   37.9680   23.3050   36.6480 H   0  0  0  0  0  0  0  0  0  0  0  0
   39.3560   22.1640   38.2450 H   0  0  0  0  0  0  0  0  0  0  0  0
   41.8210   22.1380   37.9350 H   0  0  0  0  0  0  0  0  0  0  0  0
   42.7830   23.2820   35.9980 H   0  0  0  0  0  0  0  0  0  0  0  0
   38.0950   23.8460   33.3940 C   0  0  0  0  0  0  0  0  0  0  0  0
   38.6150   24.6300   34.4700 C   0  0  0  0  0  0  0  0  0  0  0  0
   38.1650   25.9440   34.5700 C   0  0  0  0  0  0  0  0  0  0  0  0
   37.2690   26.4090   33.6570 N   0  0  0  0  0  0  0  0  0  0  0  0
   36.7930   25.6320   32.6410 C   0  0  0  0  0  0  0  0  0  0  0  0
   37.2170   24.3390   32.5180 N   0  0  0  0  0  0  0  0  0  0  0  0
   38.3640   22.8340   33.2160 H   0  0  0  0  0  0  0  0  0  0  0  0
   36.0840   26.1430   31.9930 H   0  0  0  0  0  0  0  0  0  0  0  0
   38.6140   26.8630   35.6240 C   0  0  0  0  0  0  0  0  0  0  0  0
   38.2370   26.3580   36.8910 F   0  0  0  0  0  0  0  0  0  0  0  0
   39.9260   27.1660   35.6580 F   0  0  0  0  0  0  0  0  0  0  0  0
   37.8920   28.0650   35.5580 F   0  0  0  0  0  0  0  0  0  0  0  0
   41.4950   24.6660   34.0020 C   0  0  0  0  0  3  0  0  0  0  0  0
   42.9200   24.5500   33.6110 C   0  0  0  0  0  2  0  0  0  0  0  0
   42.4720   25.7740   34.3300 C   0  0  0  0  0  2  0  0  0  0  0  0
  1  2  1  0  0  0  0
  2  7  1  0  0  0  0
  2  3  2  0  0  0  0
  3  8  1  0  0  0  0
  4  3  1  0  0  0  0
  4  9  1  0  0  0  0
  5  4  2  0  0  0  0
  6  1  2  0  0  0  0
  6  5  1  0  0  0  0
 10  5  1  0  0  0  0
 11 12  1  0  0  0  0
 12 13  2  0  0  0  0
 12  1  1  0  0  0  0
 13 19  1  0  0  0  0
 14 13  1  0  0  0  0
 15 14  2  0  0  0  0
 16 15  1  0  0  0  0
 16 11  2  0  0  0  0
 17 11  1  0  0  0  0
 18 15  1  0  0  0  0
 19 21  1  0  0  0  0
 19 20  1  0  0  0  0
 22 19  1  0  0  0  0
 23 25  1  0  0  0  0
 23  6  1  0  0  0  0
 24 23  1  0  0  0  0
 24 25  1  0  0  0  0
M  END
>  <minimizedAffinity>
-4.86765766

$$$$

 OpenBabel03272506243D

 25 27  0  0  0  0  0  0  0  0999 V2000
   37.3320   27.7320   32.4890 C   0  0  0  0  0  0  0  0  0  0  0  0
   36.5750   28.7050   31.8710 C   0  0  0  0  0  0  0  0  0  0  0  0
   35.7140   29.5640   32.5340 C   0  0  0  0  0  0  0  0  0  0  0  0
   35.6000   29.4350   33.9480 C   0  0  0  0  0  0  0  0  0  0  0  0
   36.3670   28.4530   34.5550 C   0  0  0  0  0  0  0  0  0  0  0  0
   37.2160   27.6110   33.8750 C   0  0  0  0  0  0  0  0  0  0  0  0
   36.6030   28.8700   30.8010 H   0  0  0  0  0  0  0  0  0  0  0  0
   35.1310   30.3200   32.0300 H   0  0  0  0  0  0  0  0  0  0  0  0
   34.9450   30.0810   34.4960 H   0  0  0  0  0  0  0  0  0  0  0  0
   36.2740   28.3630   35.6230 H   0  0  0  0  0  0  0  0  0  0  0  0
   39.4940   27.4140   31.3980 C   0  0  0  0  0  0  0  0  0  0  0  0
   38.1710   26.9310   31.6390 C   0  0  0  0  0  0  0  0  0  0  0  0
   37.8150   25.7310   31.0280 C   0  0  0  0  0  0  0  0  0  0  0  0
   38.7260   25.0890   30.2480 N   0  0  0  0  0  0  0  0  0  0  0  0
   39.9820   25.5790   30.0390 C   0  0  0  0  0  0  0  0  0  0  0  0
   40.3590   26.7550   30.6240 N   0  0  0  0  0  0  0  0  0  0  0  0
   39.8790   28.3160   31.8070 H   0  0  0  0  0  0  0  0  0  0  0  0
   40.5950   24.9550   29.3930 H   0  0  0  0  0  0  0  0  0  0  0  0
   36.4900   25.1180   31.1880 C   0  0  0  0  0  0  0  0  0  0  0  0
   36.3200   24.6860   32.5250 F   0  0  0  0  0  0  0  0  0  0  0  0
   35.4220   25.8610   30.8410 F   0  0  0  0  0  0  0  0  0  0  0  0
   36.4270   23.9090   30.4770 F   0  0  0  0  0  0  0  0  0  0  0  0
   38.0350   26.5580   34.5290 C   0  0  0  0  0  3  0  0  0  0  0  0
   38.2170   26.5020   36.0000 C   0  0  0  0  0  2  0  0  0  0  0  0
   39.3130   27.0620   35.1630 C   0  0  0  0  0  2  0  0  0  0  0  0
  1  6  1  0  0  0  0
  2  1  2  0  0  0  0
  2  3  1  0  0  0  0
  3  4  2  0  0  0  0
  4  9  1  0  0  0  0
  4  5  1  0  0  0  0
  5 10  1  0  0  0  0
  6 23  1  0  0  0  0
  6  5  2  0  0  0  0
  7  2  1  0  0  0  0
  8  3  1  0  0  0  0
 11 12  1  0  0  0  0
 11 17  1  0  0  0  0
 12  1  1  0  0  0  0
 13 19  1  0  0  0  0
 13 12  2  0  0  0  0
 14 13  1  0  0  0  0
 15 14  2  0  0  0  0
 15 16  1  0  0  0  0
 16 11  2  0  0  0  0
 18 15  1  0  0  0  0
 19 20  1  0  0  0  0
 21 19  1  0  0  0  0
 22 19  1  0  0  0  0
 23 25  1  0  0  0  0
 23 24  1  0  0  0  0
 25 24  1  0  0  0  0
M  END
>  <minimizedAffinity>
-4.80821896

$$$$

 OpenBabel03272506243D

 25 27  0  0  0  0  0  0  0  0999 V2000
   36.6620   27.2610   32.7140 C   0  0  0  0  0  0  0  0  0  0  0  0
   35.7930   28.1500   32.1170 C   0  0  0  0  0  0  0  0  0  0  0  0
   35.2360   29.2450   32.7550 C   0  0  0  0  0  0  0  0  0  0  0  0
   35.5810   29.4720   34.1170 C   0  0  0  0  0  0  0  0  0  0  0  0
   36.4560   28.5710   34.7040 C   0  0  0  0  0  0  0  0  0  0  0  0
   36.9970   27.4880   34.0500 C   0  0  0  0  0  0  0  0  0  0  0  0
   35.4790   28.0500   31.0860 H   0  0  0  0  0  0  0  0  0  0  0  0
   34.5570   29.9300   32.2670 H   0  0  0  0  0  0  0  0  0  0  0  0
   35.1710   30.3100   34.6450 H   0  0  0  0  0  0  0  0  0  0  0  0
   36.7110   28.7510   35.7340 H   0  0  0  0  0  0  0  0  0  0  0  0
   36.3740   24.9730   31.9070 C   0  0  0  0  0  0  0  0  0  0  0  0
   37.1400   26.1790   31.8960 C   0  0  0  0  0  0  0  0  0  0  0  0
   38.2790   26.1970   31.0950 C   0  0  0  0  0  0  0  0  0  0  0  0
   38.6020   25.0880   30.3760 N   0  0  0  0  0  0  0  0  0  0  0  0
   37.8470   23.9520   30.4090 C   0  0  0  0  0  0  0  0  0  0  0  0
   36.7240   23.9050   31.1860 N   0  0  0  0  0  0  0  0  0  0  0  0
   35.4880   24.8400   32.4780 H   0  0  0  0  0  0  0  0  0  0  0  0
   38.2310   23.1510   29.7820 H   0  0  0  0  0  0  0  0  0  0  0  0
   39.1600   27.3690   30.9880 C   0  0  0  0  0  0  0  0  0  0  0  0
   40.1880   27.1100   30.0510 F   0  0  0  0  0  0  0  0  0  0  0  0
   38.5840   28.5450   30.6770 F   0  0  0  0  0  0  0  0  0  0  0  0
   39.8820   27.5410   32.1800 F   0  0  0  0  0  0  0  0  0  0  0  0
   37.9330   26.5230   34.6830 C   0  0  0  0  0  3  0  0  0  0  0  0
   38.2170   26.5400   36.1380 C   0  0  0  0  0  2  0  0  0  0  0  0
   39.2110   27.1420   35.2070 C   0  0  0  0  0  2  0  0  0  0  0  0
  1  6  1  0  0  0  0
  2  1  2  0  0  0  0
  2  3  1  0  0  0  0
  3  4  2  0  0  0  0
  4  9  1  0  0  0  0
  4  5  1  0  0  0  0
  5 10  1  0  0  0  0
  6 23  1  0  0  0  0
  6  5  2  0  0  0  0
  7  2  1  0  0  0  0
  8  3  1  0  0  0  0
 11 17  1  0  0  0  0
 12 11  1  0  0  0  0
 12  1  1  0  0  0  0
 13 12  2  0  0  0  0
 14 15  2  0  0  0  0
 14 13  1  0  0  0  0
 15 16  1  0  0  0  0
 16 11  2  0  0  0  0
 18 15  1  0  0  0  0
 19 13  1  0  0  0  0
 19 22  1  0  0  0  0
 20 19  1  0  0  0  0
 21 19  1  0  0  0  0
 23 25  1  0  0  0  0
 23 24  1  0  0  0  0
 25 24  1  0  0  0  0
M  END
>  <minimizedAffinity>
-4.79913425

$$$$
