
 OpenBabel03272510093D

 21 23  0  0  0  0  0  0  0  0999 V2000
   37.3020   31.1770   48.5770 C   0  0  0  0  0  0  0  0  0  0  0  0
   38.1660   32.1560   49.0150 C   0  0  0  0  0  0  0  0  0  0  0  0
   39.0580   32.8520   48.2310 C   0  0  0  0  0  0  0  0  0  0  0  0
   39.1080   32.5610   46.8860 C   0  0  0  0  0  0  0  0  0  0  0  0
   38.2460   31.5840   46.4460 C   0  0  0  0  0  0  0  0  0  0  0  0
   37.3840   30.9210   47.2450 N   0  0  0  0  0  0  0  0  0  0  0  0
   38.1450   32.4050   50.0770 H   0  0  0  0  0  0  0  0  0  0  0  0
   39.6920   33.6030   48.6790 H   0  0  0  0  0  0  0  0  0  0  0  0
   38.2550   31.3210   45.3760 H   0  0  0  0  0  0  0  0  0  0  0  0
   36.7250   29.9650   50.6980 C   0  0  0  0  0  0  0  0  0  0  0  0
   36.3770   30.4690   49.4460 C   0  0  0  0  0  0  0  0  0  0  0  0
   35.0690   30.2970   48.9760 C   0  0  0  0  0  0  0  0  0  0  0  0
   34.2020   29.6260   49.8050 N   0  0  0  0  0  0  0  0  0  0  0  0
   34.5590   29.1510   51.0040 C   0  0  0  0  0  0  0  0  0  0  0  0
   35.8130   29.3150   51.4560 N   0  0  0  0  0  0  0  0  0  0  0  0
   37.7410   30.1070   51.0460 H   0  0  0  0  0  0  0  0  0  0  0  0
   34.7000   30.6500   48.0200 H   0  0  0  0  0  0  0  0  0  0  0  0
   33.7500   28.6500   51.5200 H   0  0  0  0  0  0  0  0  0  0  0  0
   40.0460   33.2730   45.9910 C   0  0  0  0  0  3  0  0  0  0  0  0
   41.0070   32.4680   45.1420 C   0  0  0  0  0  2  0  0  0  0  0  0
   39.8800   33.2340   44.5360 C   0  0  0  0  0  2  0  0  0  0  0  0
  1  2  1  0  0  0  0
  1 11  1  0  0  0  0
  2  7  1  0  0  0  0
  3  8  1  0  0  0  0
  3  2  2  0  0  0  0
  4  3  1  0  0  0  0
  5  4  2  0  0  0  0
  5  6  1  0  0  0  0
  6  1  2  0  0  0  0
  9  5  1  0  0  0  0
 10 16  1  0  0  0  0
 10 15  1  0  0  0  0
 11 10  2  0  0  0  0
 12 11  1  0  0  0  0
 12 13  2  0  0  0  0
 13 14  1  0  0  0  0
 14 15  2  0  0  0  0
 14 18  1  0  0  0  0
 17 12  1  0  0  0  0
 19  4  1  0  0  0  0
 20 19  1  0  0  0  0
 21 20  1  0  0  0  0
 21 19  1  0  0  0  0
M  END
>  <minimizedAffinity>
-5.29867554

>  <minimizedRMSD>
1.65654838

$$$$
