
 OpenBabel03272506583D

 22 24  0  0  0  0  0  0  0  0999 V2000
   37.0200   29.7920   49.1280 C   0  0  0  0  0  0  0  0  0  0  0  0
   37.4650   30.2470   50.3590 C   0  0  0  0  0  0  0  0  0  0  0  0
   38.3120   31.3610   50.3010 C   0  0  0  0  0  0  0  0  0  0  0  0
   38.6420   31.9150   49.1070 N   0  0  0  0  0  0  0  0  0  0  0  0
   38.1740   31.4210   47.9590 C   0  0  0  0  0  0  0  0  0  0  0  0
   37.3430   30.3380   47.9230 N   0  0  0  0  0  0  0  0  0  0  0  0
   36.3670   28.9350   49.1390 H   0  0  0  0  0  0  0  0  0  0  0  0
   38.6840   31.7490   51.2540 H   0  0  0  0  0  0  0  0  0  0  0  0
   38.5180   32.0040   46.6650 C   0  0  0  0  0  0  0  0  0  0  0  0
   39.7050   32.6480   46.4530 C   0  0  0  0  0  0  0  0  0  0  0  0
   40.1210   33.2280   45.2770 C   0  0  0  0  0  0  0  0  0  0  0  0
   39.2460   33.1370   44.2390 N   0  0  0  0  0  0  0  0  0  0  0  0
   38.0600   32.5070   44.4100 C   0  0  0  0  0  0  0  0  0  0  0  0
   37.6910   31.9490   45.5900 N   0  0  0  0  0  0  0  0  0  0  0  0
   40.3870   32.7090   47.2910 H   0  0  0  0  0  0  0  0  0  0  0  0
   41.0900   33.7220   45.2010 H   0  0  0  0  0  0  0  0  0  0  0  0
   37.1650   32.4550   43.2240 C   0  0  0  0  0  0  0  0  0  0  0  0
   37.6740   32.5910   41.8610 C   0  0  0  0  0  0  0  0  0  0  0  0
   37.4020   31.2150   42.3820 C   0  0  0  0  0  0  0  0  0  0  0  0
   37.0650   29.6010   51.5440 N   0  0  0  0  0  0  0  0  0  0  0  0
   37.9870   29.2240   51.8740 H   0  0  0  0  0  0  0  0  0  0  0  0
   36.0380   29.7050   51.6940 H   0  0  0  0  0  0  0  0  0  0  0  0
  1  7  1  0  0  0  0
  1  2  1  0  0  0  0
  2 20  1  0  0  0  0
  3  2  2  0  0  0  0
  3  8  1  0  0  0  0
  4  3  1  0  0  0  0
  5  4  2  0  0  0  0
  6  5  1  0  0  0  0
  6  1  2  0  0  0  0
  9  5  1  0  0  0  0
 10  9  1  0  0  0  0
 10 15  1  0  0  0  0
 11 10  2  0  0  0  0
 12 13  2  0  0  0  0
 12 11  1  0  0  0  0
 13 14  1  0  0  0  0
 14  9  2  0  0  0  0
 16 11  1  0  0  0  0
 17 13  1  0  0  0  0
 18 19  1  0  0  0  0
 18 17  1  0  0  0  0
 19 17  1  0  0  0  0
 20 22  1  0  0  0  0
 20 21  1  0  0  0  0
M  END
>  <minimizedAffinity>
-4.93965054

>  <minimizedRMSD>
1.56175256

$$$$
