
 OpenBabel03272505123D

 33 36  0  0  0  0  0  0  0  0999 V2000
   36.4050   30.8990   45.7010 Cl  0  0  0  0  0  0  0  0  0  0  0  0
   36.6900   30.7710   47.4160 C   0  0  0  0  0  0  0  0  0  0  0  0
   37.9480   31.0980   47.8780 C   0  0  0  0  0  0  0  0  0  0  0  0
   38.1830   31.0000   49.2380 C   0  0  0  0  0  0  0  0  0  0  0  0
   37.1940   30.5920   50.0750 C   0  0  0  0  0  0  0  0  0  0  0  0
   35.9370   30.2740   49.5450 C   0  0  0  0  0  0  0  0  0  0  0  0
   35.6280   30.3460   48.2170 C   0  0  0  0  0  0  0  0  0  0  0  0
   39.1680   31.2550   49.6070 H   0  0  0  0  0  0  0  0  0  0  0  0
   37.4030   30.5250   51.1270 H   0  0  0  0  0  0  0  0  0  0  0  0
   35.1580   29.9490   50.2310 H   0  0  0  0  0  0  0  0  0  0  0  0
   40.2080   33.3150   46.0730 C   0  0  0  0  0  0  0  0  0  0  0  0
   40.9190   32.4610   45.2090 C   0  0  0  0  0  0  0  0  0  0  0  0
   40.6010   31.0990   45.2630 C   0  0  0  0  0  0  0  0  0  0  0  0
   39.6370   30.6800   46.1340 N   0  0  0  0  0  0  0  0  0  0  0  0
   38.9940   31.5380   46.9300 C   0  0  0  0  0  0  0  0  0  0  0  0
   39.2760   32.8400   46.9000 N   0  0  0  0  0  0  0  0  0  0  0  0
   40.4910   34.3560   45.9930 H   0  0  0  0  0  0  0  0  0  0  0  0
   41.6790   32.7100   44.5080 H   0  0  0  0  0  0  0  0  0  0  0  0
   41.0630   30.3350   44.6620 H   0  0  0  0  0  0  0  0  0  0  0  0
   34.0600   29.9530   47.5310 S   0  0  0  0  0  0  0  0  0  0  0  0
   33.7350   29.1940   44.4990 Cl  0  0  0  0  0  0  0  0  0  0  0  0
   33.7790   27.9530   45.7440 C   0  0  0  0  0  0  0  0  0  0  0  0
   33.9210   28.2150   47.1060 C   0  0  0  0  0  0  0  0  0  0  0  0
   33.9440   27.1740   48.0010 C   0  0  0  0  0  0  0  0  0  0  0  0
   33.8300   25.8870   47.5700 C   0  0  0  0  0  0  0  0  0  0  0  0
   33.6880   25.5760   46.2330 C   0  0  0  0  0  0  0  0  0  0  0  0
   33.6670   26.6200   45.3540 C   0  0  0  0  0  0  0  0  0  0  0  0
   34.0570   27.4840   49.0310 H   0  0  0  0  0  0  0  0  0  0  0  0
   33.8550   25.1110   48.3240 H   0  0  0  0  0  0  0  0  0  0  0  0
   33.6010   24.5490   45.9500 H   0  0  0  0  0  0  0  0  0  0  0  0
   33.5140   26.3260   43.9060 C   0  0  0  0  0  3  0  0  0  0  0  0
   33.3700   24.9040   43.5090 C   0  0  0  0  0  2  0  0  0  0  0  0
   32.1720   25.8750   43.3750 C   0  0  0  0  0  2  0  0  0  0  0  0
  1  2  1  0  0  0  0
  2  3  2  0  0  0  0
  2  7  1  0  0  0  0
  3  4  1  0  0  0  0
  4  8  1  0  0  0  0
  4  5  2  0  0  0  0
  5  9  1  0  0  0  0
  6  5  1  0  0  0  0
  6 10  1  0  0  0  0
  7  6  2  0  0  0  0
 11 16  1  0  0  0  0
 12 13  1  0  0  0  0
 12 11  2  0  0  0  0
 13 14  2  0  0  0  0
 14 15  1  0  0  0  0
 15  3  1  0  0  0  0
 16 15  2  0  0  0  0
 17 11  1  0  0  0  0
 18 12  1  0  0  0  0
 19 13  1  0  0  0  0
 20  7  1  0  0  0  0
 21 22  1  0  0  0  0
 22 23  1  0  0  0  0
 23 20  1  0  0  0  0
 23 24  2  0  0  0  0
 24 28  1  0  0  0  0
 25 24  1  0  0  0  0
 25 29  1  0  0  0  0
 26 25  2  0  0  0  0
 27 22  2  0  0  0  0
 27 26  1  0  0  0  0
 30 26  1  0  0  0  0
 31 27  1  0  0  0  0
 32 31  1  0  0  0  0
 33 32  1  0  0  0  0
 33 31  1  0  0  0  0
M  END
>  <minimizedAffinity>
-5.59133196

>  <minimizedRMSD>
0.374609262

$$$$
