
 OpenBabel03272508253D

 19 21  0  0  1  0  0  0  0  0999 V2000
   39.2030   25.3260   34.7210 C   0  0  1  0  0  0  0  0  0  0  0  0
   38.6900   26.6940   34.6770 C   0  0  1  0  0  0  0  0  0  0  0  0
   40.1630   26.4980   34.8560 C   0  0  0  0  0  0  0  0  0  0  0  0
   39.4640   24.6870   33.8560 H   0  0  0  0  0  0  0  0  0  0  0  0
   38.1420   27.0160   35.6050 H   0  0  0  0  0  0  0  0  0  0  0  0
   40.8100   26.7360   34.0000 H   0  0  0  0  0  0  0  0  0  0  0  0
   40.6140   26.7090   35.8400 H   0  0  0  0  0  0  0  0  0  0  0  0
   39.0920   24.5190   35.9930 C   0  0  0  0  0  0  0  0  0  0  0  0
   38.0570   24.8640   36.8800 C   0  0  0  0  0  0  0  0  0  0  0  0
   37.9920   24.1260   38.0490 C   0  0  0  0  0  0  0  0  0  0  0  0
   38.9020   23.1260   38.2910 N   0  0  0  0  0  0  0  0  0  0  0  0
   39.8820   22.8290   37.4070 C   0  0  0  0  0  0  0  0  0  0  0  0
   39.9760   23.5340   36.2480 N   0  0  0  0  0  0  0  0  0  0  0  0
   37.3790   25.6650   36.6200 H   0  0  0  0  0  0  0  0  0  0  0  0
   37.2110   24.3540   38.7650 H   0  0  0  0  0  0  0  0  0  0  0  0
   40.5740   22.0330   37.6440 H   0  0  0  0  0  0  0  0  0  0  0  0
   38.1280   27.1990   33.3930 C   0  0  0  0  0  3  0  0  0  0  0  0
   36.8980   26.5160   32.8260 C   0  0  0  0  0  2  0  0  0  0  0  0
   36.7310   27.8200   33.4970 C   0  0  0  0  0  2  0  0  0  0  0  0
  1  4  1  6  0  0  0
  1  3  1  0  0  0  0
  1  8  1  0  0  0  0
  2  1  1  0  0  0  0
  2  3  1  0  0  0  0
  2  5  1  1  0  0  0
  3  7  1  0  0  0  0
  6  3  1  0  0  0  0
  8 13  2  0  0  0  0
  8  9  1  0  0  0  0
  9 10  2  0  0  0  0
 10 11  1  0  0  0  0
 10 15  1  0  0  0  0
 12 16  1  0  0  0  0
 12 11  2  0  0  0  0
 13 12  1  0  0  0  0
 14  9  1  0  0  0  0
 17 19  1  0  0  0  0
 17  2  1  0  0  0  0
 18 17  1  0  0  0  0
 18 19  1  0  0  0  0
M  END
>  <minimizedAffinity>
-3.82184362

$$$$

 OpenBabel03272508253D

 19 21  0  0  1  0  0  0  0  0999 V2000
   37.4340   26.6560   35.3590 C   0  0  1  0  0  0  0  0  0  0  0  0
   38.3370   25.5460   35.6530 C   0  0  1  0  0  0  0  0  0  0  0  0
   38.9220   26.9180   35.5300 C   0  0  0  0  0  0  0  0  0  0  0  0
   36.8340   27.2350   36.0870 H   0  0  0  0  0  0  0  0  0  0  0  0
   38.5420   24.8670   34.7800 H   0  0  0  0  0  0  0  0  0  0  0  0
   39.2560   27.4080   36.4550 H   0  0  0  0  0  0  0  0  0  0  0  0
   39.5280   27.1630   34.6420 H   0  0  0  0  0  0  0  0  0  0  0  0
   36.9640   26.8910   33.9420 C   0  0  0  0  0  0  0  0  0  0  0  0
   36.4780   28.1740   33.6350 C   0  0  0  0  0  0  0  0  0  0  0  0
   36.0320   28.3560   32.3370 C   0  0  0  0  0  0  0  0  0  0  0  0
   36.0770   27.3210   31.4350 N   0  0  0  0  0  0  0  0  0  0  0  0
   36.5540   26.1010   31.7770 C   0  0  0  0  0  0  0  0  0  0  0  0
   37.0010   25.8870   33.0430 N   0  0  0  0  0  0  0  0  0  0  0  0
   36.4730   28.9380   34.3990 H   0  0  0  0  0  0  0  0  0  0  0  0
   35.6480   29.3280   32.0510 H   0  0  0  0  0  0  0  0  0  0  0  0
   36.5690   25.3200   31.0310 H   0  0  0  0  0  0  0  0  0  0  0  0
   38.2230   24.8710   36.9760 C   0  0  0  0  0  3  0  0  0  0  0  0
   37.4850   23.5480   37.0490 C   0  0  0  0  0  2  0  0  0  0  0  0
   38.9590   23.5320   37.0860 C   0  0  0  0  0  2  0  0  0  0  0  0
  1  3  1  0  0  0  0
  1  2  1  0  0  0  0
  1  4  1  1  0  0  0
  2  5  1  6  0  0  0
  2 17  1  0  0  0  0
  3  2  1  0  0  0  0
  3  6  1  0  0  0  0
  7  3  1  0  0  0  0
  8  1  1  0  0  0  0
  9  8  1  0  0  0  0
  9 14  1  0  0  0  0
 10  9  2  0  0  0  0
 11 12  2  0  0  0  0
 11 10  1  0  0  0  0
 12 13  1  0  0  0  0
 13  8  2  0  0  0  0
 15 10  1  0  0  0  0
 16 12  1  0  0  0  0
 17 18  1  0  0  0  0
 17 19  1  0  0  0  0
 18 19  1  0  0  0  0
M  END
>  <minimizedAffinity>
-3.81827307

$$$$

 OpenBabel03272508253D

 19 21  0  0  1  0  0  0  0  0999 V2000
   39.1990   25.4950   34.6980 C   0  0  1  0  0  0  0  0  0  0  0  0
   38.5270   26.7880   34.5870 C   0  0  1  0  0  0  0  0  0  0  0  0
   39.9830   26.7770   34.9330 C   0  0  0  0  0  0  0  0  0  0  0  0
   39.6330   24.9000   33.8740 H   0  0  0  0  0  0  0  0  0  0  0  0
   37.8420   27.0330   35.4460 H   0  0  0  0  0  0  0  0  0  0  0  0
   40.6880   27.1000   34.1540 H   0  0  0  0  0  0  0  0  0  0  0  0
   40.2900   27.0360   35.9600 H   0  0  0  0  0  0  0  0  0  0  0  0
   39.0460   24.6720   35.9560 C   0  0  0  0  0  0  0  0  0  0  0  0
   39.8840   23.5510   36.0910 C   0  0  0  0  0  0  0  0  0  0  0  0
   39.7080   22.8000   37.2410 C   0  0  0  0  0  0  0  0  0  0  0  0
   38.7610   23.1610   38.1680 N   0  0  0  0  0  0  0  0  0  0  0  0
   37.9770   24.2510   37.9950 C   0  0  0  0  0  0  0  0  0  0  0  0
   38.1230   25.0110   36.8780 N   0  0  0  0  0  0  0  0  0  0  0  0
   40.6050   23.3300   35.3180 H   0  0  0  0  0  0  0  0  0  0  0  0
   40.3300   21.9260   37.3910 H   0  0  0  0  0  0  0  0  0  0  0  0
   37.2470   24.4920   38.7540 H   0  0  0  0  0  0  0  0  0  0  0  0
   38.0550   27.2280   33.2450 C   0  0  0  0  0  3  0  0  0  0  0  0
   36.8290   26.5570   32.6560 C   0  0  0  0  0  2  0  0  0  0  0  0
   36.6820   27.9080   33.2310 C   0  0  0  0  0  2  0  0  0  0  0  0
  1  4  1  6  0  0  0
  1  3  1  0  0  0  0
  1  8  1  0  0  0  0
  2  1  1  0  0  0  0
  2  3  1  0  0  0  0
  2  5  1  1  0  0  0
  3  7  1  0  0  0  0
  6  3  1  0  0  0  0
  8  9  2  0  0  0  0
  8 13  1  0  0  0  0
  9 10  1  0  0  0  0
 10 15  1  0  0  0  0
 10 11  2  0  0  0  0
 12 11  1  0  0  0  0
 12 16  1  0  0  0  0
 13 12  2  0  0  0  0
 14  9  1  0  0  0  0
 17  2  1  0  0  0  0
 18 19  1  0  0  0  0
 18 17  1  0  0  0  0
 19 17  1  0  0  0  0
M  END
>  <minimizedAffinity>
-3.77004075

$$$$

 OpenBabel03272508253D

 19 21  0  0  1  0  0  0  0  0999 V2000
   35.9300   29.2050   34.1140 C   0  0  1  0  0  0  0  0  0  0  0  0
   35.4970   30.5590   34.4530 C   0  0  1  0  0  0  0  0  0  0  0  0
   34.4650   29.4770   34.4150 C   0  0  0  0  0  0  0  0  0  0  0  0
   36.3520   28.4510   34.8050 H   0  0  0  0  0  0  0  0  0  0  0  0
   35.4660   31.2700   33.5810 H   0  0  0  0  0  0  0  0  0  0  0  0
   34.0630   29.1310   35.3770 H   0  0  0  0  0  0  0  0  0  0  0  0
   33.7370   29.4620   33.5860 H   0  0  0  0  0  0  0  0  0  0  0  0
   36.1650   28.8270   32.6700 C   0  0  0  0  0  0  0  0  0  0  0  0
   36.3350   29.8800   31.7540 C   0  0  0  0  0  0  0  0  0  0  0  0
   36.5240   29.5080   30.4340 C   0  0  0  0  0  0  0  0  0  0  0  0
   36.5380   28.1800   30.0820 N   0  0  0  0  0  0  0  0  0  0  0  0
   36.3700   27.2010   31.0000 C   0  0  0  0  0  0  0  0  0  0  0  0
   36.1820   27.5300   32.3060 N   0  0  0  0  0  0  0  0  0  0  0  0
   36.3110   30.9010   32.1070 H   0  0  0  0  0  0  0  0  0  0  0  0
   36.6600   30.2830   29.6900 H   0  0  0  0  0  0  0  0  0  0  0  0
   36.3880   26.1710   30.6720 H   0  0  0  0  0  0  0  0  0  0  0  0
   35.9530   31.1470   35.7430 C   0  0  0  0  0  3  0  0  0  0  0  0
   36.4580   32.5770   35.7460 C   0  0  0  0  0  2  0  0  0  0  0  0
   35.1020   32.3110   36.2620 C   0  0  0  0  0  2  0  0  0  0  0  0
  1  3  1  0  0  0  0
  1  2  1  0  0  0  0
  1  4  1  1  0  0  0
  2  5  1  6  0  0  0
  2 17  1  0  0  0  0
  3  2  1  0  0  0  0
  3  6  1  0  0  0  0
  7  3  1  0  0  0  0
  8  1  1  0  0  0  0
  9 14  1  0  0  0  0
  9  8  2  0  0  0  0
 10  9  1  0  0  0  0
 11 10  2  0  0  0  0
 11 12  1  0  0  0  0
 12 13  2  0  0  0  0
 13  8  1  0  0  0  0
 15 10  1  0  0  0  0
 16 12  1  0  0  0  0
 17 18  1  0  0  0  0
 17 19  1  0  0  0  0
 18 19  1  0  0  0  0
M  END
>  <minimizedAffinity>
-3.7050612

$$$$

 OpenBabel03272508253D

 19 21  0  0  1  0  0  0  0  0999 V2000
   36.9400   22.5570   32.2030 C   0  0  1  0  0  0  0  0  0  0  0  0
   36.4570   21.4740   31.3490 C   0  0  1  0  0  0  0  0  0  0  0  0
   37.8310   22.0110   31.0980 C   0  0  0  0  0  0  0  0  0  0  0  0
   37.4190   22.4570   33.1950 H   0  0  0  0  0  0  0  0  0  0  0  0
   35.6850   21.7850   30.5920 H   0  0  0  0  0  0  0  0  0  0  0  0
   38.6810   21.3770   31.3860 H   0  0  0  0  0  0  0  0  0  0  0  0
   38.0080   22.6270   30.2000 H   0  0  0  0  0  0  0  0  0  0  0  0
   36.4980   23.9780   31.9410 C   0  0  0  0  0  0  0  0  0  0  0  0
   35.3550   24.1540   31.1410 C   0  0  0  0  0  0  0  0  0  0  0  0
   34.9840   25.4650   30.8960 C   0  0  0  0  0  0  0  0  0  0  0  0
   35.7160   26.5030   31.4200 N   0  0  0  0  0  0  0  0  0  0  0  0
   36.8110   26.2840   32.1860 C   0  0  0  0  0  0  0  0  0  0  0  0
   37.2030   25.0090   32.4470 N   0  0  0  0  0  0  0  0  0  0  0  0
   34.8310   23.2870   30.7640 H   0  0  0  0  0  0  0  0  0  0  0  0
   34.1100   25.6530   30.2850 H   0  0  0  0  0  0  0  0  0  0  0  0
   37.3520   27.1350   32.5740 H   0  0  0  0  0  0  0  0  0  0  0  0
   36.2530   20.1300   31.9570 C   0  0  0  0  0  3  0  0  0  0  0  0
   35.5180   20.0420   33.2810 C   0  0  0  0  0  2  0  0  0  0  0  0
   34.7930   19.6750   32.0500 C   0  0  0  0  0  2  0  0  0  0  0  0
  1  4  1  1  0  0  0
  2  5  1  6  0  0  0
  2 17  1  0  0  0  0
  2  1  1  0  0  0  0
  3  2  1  0  0  0  0
  3  6  1  0  0  0  0
  3  1  1  0  0  0  0
  7  3  1  0  0  0  0
  8  1  1  0  0  0  0
  8 13  1  0  0  0  0
  9  8  2  0  0  0  0
 10  9  1  0  0  0  0
 10 11  2  0  0  0  0
 11 12  1  0  0  0  0
 12 13  2  0  0  0  0
 12 16  1  0  0  0  0
 14  9  1  0  0  0  0
 15 10  1  0  0  0  0
 17 19  1  0  0  0  0
 17 18  1  0  0  0  0
 19 18  1  0  0  0  0
M  END
>  <minimizedAffinity>
-3.66376257

$$$$

 OpenBabel03272508253D

 19 21  0  0  1  0  0  0  0  0999 V2000
   38.5110   21.7850   34.4150 C   0  0  1  0  0  0  0  0  0  0  0  0
   37.2980   22.2010   33.7140 C   0  0  1  0  0  0  0  0  0  0  0  0
   38.5780   22.9030   33.3870 C   0  0  0  0  0  0  0  0  0  0  0  0
   39.1800   20.9460   34.1460 H   0  0  0  0  0  0  0  0  0  0  0  0
   36.5800   22.7990   34.3390 H   0  0  0  0  0  0  0  0  0  0  0  0
   39.0400   22.6830   32.4140 H   0  0  0  0  0  0  0  0  0  0  0  0
   38.7210   23.9410   33.7330 H   0  0  0  0  0  0  0  0  0  0  0  0
   38.7750   22.2750   35.8210 C   0  0  0  0  0  0  0  0  0  0  0  0
   37.6980   22.8660   36.5030 C   0  0  0  0  0  0  0  0  0  0  0  0
   37.9710   23.3280   37.7800 C   0  0  0  0  0  0  0  0  0  0  0  0
   39.2320   23.1980   38.3090 N   0  0  0  0  0  0  0  0  0  0  0  0
   40.2390   22.6210   37.6130 C   0  0  0  0  0  0  0  0  0  0  0  0
   40.0050   22.1560   36.3570 N   0  0  0  0  0  0  0  0  0  0  0  0
   36.7340   22.9330   36.0200 H   0  0  0  0  0  0  0  0  0  0  0  0
   37.1730   23.7910   38.3470 H   0  0  0  0  0  0  0  0  0  0  0  0
   41.2130   22.5430   38.0750 H   0  0  0  0  0  0  0  0  0  0  0  0
   36.6740   21.2480   32.7550 C   0  0  0  0  0  3  0  0  0  0  0  0
   35.5640   20.3440   33.2560 C   0  0  0  0  0  2  0  0  0  0  0  0
   35.1980   21.5180   32.4420 C   0  0  0  0  0  2  0  0  0  0  0  0
  1  4  1  6  0  0  0
  1  8  1  0  0  0  0
  2  5  1  1  0  0  0
  2  1  1  0  0  0  0
  3  2  1  0  0  0  0
  3  7  1  0  0  0  0
  3  1  1  0  0  0  0
  6  3  1  0  0  0  0
  8 13  2  0  0  0  0
  8  9  1  0  0  0  0
  9 10  2  0  0  0  0
 10 11  1  0  0  0  0
 10 15  1  0  0  0  0
 12 16  1  0  0  0  0
 12 11  2  0  0  0  0
 13 12  1  0  0  0  0
 14  9  1  0  0  0  0
 17 18  1  0  0  0  0
 17  2  1  0  0  0  0
 19 17  1  0  0  0  0
 19 18  1  0  0  0  0
M  END
>  <minimizedAffinity>
-3.60232043

$$$$

 OpenBabel03272508253D

 19 21  0  0  1  0  0  0  0  0999 V2000
   37.7610   26.8960   32.6870 C   0  0  1  0  0  0  0  0  0  0  0  0
   39.1960   26.6300   32.7550 C   0  0  1  0  0  0  0  0  0  0  0  0
   38.6900   27.4950   31.6430 C   0  0  0  0  0  0  0  0  0  0  0  0
   37.2050   27.6820   33.2320 H   0  0  0  0  0  0  0  0  0  0  0  0
   39.4920   25.5900   32.4440 H   0  0  0  0  0  0  0  0  0  0  0  0
   38.9080   28.5700   31.7030 H   0  0  0  0  0  0  0  0  0  0  0  0
   38.6740   27.0910   30.6170 H   0  0  0  0  0  0  0  0  0  0  0  0
   36.8280   25.8600   32.1050 C   0  0  0  0  0  0  0  0  0  0  0  0
   37.1710   24.5100   32.3000 C   0  0  0  0  0  0  0  0  0  0  0  0
   36.3140   23.5810   31.7360 C   0  0  0  0  0  0  0  0  0  0  0  0
   35.2060   23.9930   31.0370 N   0  0  0  0  0  0  0  0  0  0  0  0
   34.9160   25.3050   30.8750 C   0  0  0  0  0  0  0  0  0  0  0  0
   35.7360   26.2450   31.4150 N   0  0  0  0  0  0  0  0  0  0  0  0
   38.0610   24.2640   32.8620 H   0  0  0  0  0  0  0  0  0  0  0  0
   36.5360   22.5280   31.8590 H   0  0  0  0  0  0  0  0  0  0  0  0
   34.0320   25.5770   30.3160 H   0  0  0  0  0  0  0  0  0  0  0  0
   39.9700   27.2050   33.8890 C   0  0  0  0  0  3  0  0  0  0  0  0
   39.4560   26.9840   35.2990 C   0  0  0  0  0  2  0  0  0  0  0  0
   40.5980   26.1750   34.8340 C   0  0  0  0  0  2  0  0  0  0  0  0
  1  2  1  0  0  0  0
  1  4  1  1  0  0  0
  2  5  1  6  0  0  0
  2 17  1  0  0  0  0
  3  6  1  0  0  0  0
  3  1  1  0  0  0  0
  3  2  1  0  0  0  0
  7  3  1  0  0  0  0
  8  9  1  0  0  0  0
  8  1  1  0  0  0  0
  9 14  1  0  0  0  0
 10 15  1  0  0  0  0
 10  9  2  0  0  0  0
 11 10  1  0  0  0  0
 12 11  2  0  0  0  0
 12 13  1  0  0  0  0
 13  8  2  0  0  0  0
 16 12  1  0  0  0  0
 17 19  1  0  0  0  0
 17 18  1  0  0  0  0
 19 18  1  0  0  0  0
M  END
>  <minimizedAffinity>
-3.57153296

$$$$

 OpenBabel03272508253D

 19 21  0  0  1  0  0  0  0  0999 V2000
   39.1880   23.7740   36.8470 C   0  0  1  0  0  0  0  0  0  0  0  0
   38.4590   24.4850   35.8000 C   0  0  1  0  0  0  0  0  0  0  0  0
   37.8130   23.2850   36.4180 C   0  0  0  0  0  0  0  0  0  0  0  0
   39.2110   24.0210   37.9250 H   0  0  0  0  0  0  0  0  0  0  0  0
   38.8580   24.3220   34.7610 H   0  0  0  0  0  0  0  0  0  0  0  0
   36.9680   23.4610   37.0970 H   0  0  0  0  0  0  0  0  0  0  0  0
   37.7360   22.3570   35.8270 H   0  0  0  0  0  0  0  0  0  0  0  0
   40.2880   22.8060   36.4770 C   0  0  0  0  0  0  0  0  0  0  0  0
   40.8490   22.0470   37.5190 C   0  0  0  0  0  0  0  0  0  0  0  0
   41.8710   21.1870   37.1570 C   0  0  0  0  0  0  0  0  0  0  0  0
   42.2830   21.1090   35.8490 N   0  0  0  0  0  0  0  0  0  0  0  0
   41.7120   21.8610   34.8790 C   0  0  0  0  0  0  0  0  0  0  0  0
   40.7060   22.7170   35.1980 N   0  0  0  0  0  0  0  0  0  0  0  0
   40.4710   22.1640   38.5240 H   0  0  0  0  0  0  0  0  0  0  0  0
   42.3350   20.5790   37.9240 H   0  0  0  0  0  0  0  0  0  0  0  0
   42.0730   21.7630   33.8650 H   0  0  0  0  0  0  0  0  0  0  0  0
   37.9670   25.8610   36.0890 C   0  0  0  0  0  3  0  0  0  0  0  0
   38.8580   27.0350   35.7310 C   0  0  0  0  0  2  0  0  0  0  0  0
   37.7120   26.7310   34.8530 C   0  0  0  0  0  2  0  0  0  0  0  0
  1  4  1  1  0  0  0
  2  5  1  6  0  0  0
  2 17  1  0  0  0  0
  2  3  1  0  0  0  0
  2  1  1  0  0  0  0
  3  1  1  0  0  0  0
  3  6  1  0  0  0  0
  7  3  1  0  0  0  0
  8  1  1  0  0  0  0
  8  9  1  0  0  0  0
  9 14  1  0  0  0  0
 10  9  2  0  0  0  0
 10 15  1  0  0  0  0
 11 10  1  0  0  0  0
 12 13  1  0  0  0  0
 12 11  2  0  0  0  0
 13  8  2  0  0  0  0
 16 12  1  0  0  0  0
 18 17  1  0  0  0  0
 19 18  1  0  0  0  0
 19 17  1  0  0  0  0
M  END
>  <minimizedAffinity>
-3.56391001

$$$$

 OpenBabel03272508253D

 19 21  0  0  1  0  0  0  0  0999 V2000
   35.5180   22.0060   31.1280 C   0  0  1  0  0  0  0  0  0  0  0  0
   36.3640   20.8670   31.4830 C   0  0  1  0  0  0  0  0  0  0  0  0
   35.4600   21.4310   32.5340 C   0  0  0  0  0  0  0  0  0  0  0  0
   34.5290   21.9690   30.6340 H   0  0  0  0  0  0  0  0  0  0  0  0
   37.4520   21.1180   31.6140 H   0  0  0  0  0  0  0  0  0  0  0  0
   34.5790   20.8360   32.8130 H   0  0  0  0  0  0  0  0  0  0  0  0
   35.9020   22.0050   33.3660 H   0  0  0  0  0  0  0  0  0  0  0  0
   36.1030   23.3980   31.0960 C   0  0  0  0  0  0  0  0  0  0  0  0
   35.2070   24.4710   31.2460 C   0  0  0  0  0  0  0  0  0  0  0  0
   35.7650   25.7370   31.1890 C   0  0  0  0  0  0  0  0  0  0  0  0
   37.1160   25.8920   30.9950 N   0  0  0  0  0  0  0  0  0  0  0  0
   37.9400   24.8280   30.8550 C   0  0  0  0  0  0  0  0  0  0  0  0
   37.4270   23.5710   30.9060 N   0  0  0  0  0  0  0  0  0  0  0  0
   34.1560   24.2690   31.3950 H   0  0  0  0  0  0  0  0  0  0  0  0
   35.1150   26.5970   31.3000 H   0  0  0  0  0  0  0  0  0  0  0  0
   38.9960   25.0040   30.7040 H   0  0  0  0  0  0  0  0  0  0  0  0
   36.0820   19.5510   30.8470 C   0  0  0  0  0  3  0  0  0  0  0  0
   36.6860   19.2630   29.4860 C   0  0  0  0  0  2  0  0  0  0  0  0
   37.3020   18.6410   30.6720 C   0  0  0  0  0  2  0  0  0  0  0  0
  1  4  1  6  0  0  0
  1  2  1  0  0  0  0
  1  3  1  0  0  0  0
  2  5  1  1  0  0  0
  2  3  1  0  0  0  0
  3  6  1  0  0  0  0
  3  7  1  0  0  0  0
  8  1  1  0  0  0  0
  8  9  1  0  0  0  0
  9 14  1  0  0  0  0
 10  9  2  0  0  0  0
 10 15  1  0  0  0  0
 11 10  1  0  0  0  0
 12 13  1  0  0  0  0
 12 11  2  0  0  0  0
 13  8  2  0  0  0  0
 16 12  1  0  0  0  0
 17  2  1  0  0  0  0
 18 19  1  0  0  0  0
 18 17  1  0  0  0  0
 19 17  1  0  0  0  0
M  END
>  <minimizedAffinity>
-3.52017856

$$$$
