
 OpenBabel03272501413D

 39 43  0  0  1  0  0  0  0  0999 V2000
   35.7280   29.2840   31.4100 C   0  0  1  0  0  0  0  0  0  0  0  0
   35.0450   28.4180   31.0350 H   0  0  0  0  0  0  0  0  0  0  0  0
   38.9880   27.5610   31.1920 C   0  0  0  0  0  0  0  0  0  0  0  0
   37.8950   28.3610   30.9510 C   0  0  0  0  0  0  0  0  0  0  0  0
   36.8360   28.4890   31.8600 C   0  0  0  0  0  0  0  0  0  0  0  0
   36.9240   27.8140   32.9700 N   0  0  0  0  0  0  0  0  0  0  0  0
   38.0180   27.0190   33.2050 C   0  0  0  0  0  0  0  0  0  0  0  0
   39.0200   26.8940   32.3410 N   0  0  0  0  0  0  0  0  0  0  0  0
   39.8040   27.4630   30.4870 H   0  0  0  0  0  0  0  0  0  0  0  0
   37.9060   28.8950   29.9970 H   0  0  0  0  0  0  0  0  0  0  0  0
   38.1420   26.2750   34.4560 C   0  0  0  0  0  0  0  0  0  0  0  0
   38.1010   26.6860   35.7680 C   0  0  0  0  0  0  0  0  0  0  0  0
   38.2240   25.8000   36.7690 C   0  0  0  0  0  0  0  0  0  0  0  0
   38.3920   24.4640   36.3800 C   0  0  0  0  0  0  0  0  0  0  0  0
   38.3670   24.5330   34.5510 S   0  0  0  0  0  0  0  0  0  0  0  0
   37.9650   27.7520   35.9280 H   0  0  0  0  0  0  0  0  0  0  0  0
   38.2060   26.0070   37.8130 H   0  0  0  0  0  0  0  0  0  0  0  0
   38.5650   23.1820   37.0990 C   0  0  0  0  0  3  0  0  0  0  0  0
   39.9450   22.7970   37.5870 C   0  0  0  0  0  2  0  0  0  0  0  0
   38.9140   23.2840   38.5260 C   0  0  0  0  0  2  0  0  0  0  0  0
   34.9300   29.9990   32.4800 C   0  0  2  0  0  0  0  0  0  0  0  0
   35.4380   31.4430   32.5090 C   0  0  0  0  0  0  0  0  0  0  0  0
   35.5830   30.5070   33.6610 C   0  0  1  0  0  0  0  0  0  0  0  0
   33.8440   29.8530   32.3660 H   0  0  0  0  0  0  0  0  0  0  0  0
   36.3810   31.7670   32.0780 H   0  0  0  0  0  0  0  0  0  0  0  0
   34.6410   32.2030   32.5260 H   0  0  0  0  0  0  0  0  0  0  0  0
   36.5390   29.9980   33.9000 H   0  0  0  0  0  0  0  0  0  0  0  0
   34.9040   30.9700   34.8780 C   0  0  0  0  0  0  0  0  0  0  0  0
   35.6430   31.6820   35.7860 C   0  0  0  0  0  0  0  0  0  0  0  0
   34.9820   32.1280   36.9020 C   0  0  0  0  0  0  0  0  0  0  0  0
   33.6400   31.8940   37.1370 C   0  0  0  0  0  0  0  0  0  0  0  0
   32.9310   31.1740   36.2010 C   0  0  0  0  0  0  0  0  0  0  0  0
   33.5660   30.7290   35.1000 N   0  0  0  0  0  0  0  0  0  0  0  0
   36.6950   31.8960   35.6550 H   0  0  0  0  0  0  0  0  0  0  0  0
   35.4820   32.7050   37.6850 H   0  0  0  0  0  0  0  0  0  0  0  0
   33.0740   32.2190   37.9930 H   0  0  0  0  0  0  0  0  0  0  0  0
   31.8800   30.9010   36.2250 H   0  0  0  0  0  0  0  0  0  0  0  0
   35.7460   29.9060   30.2620 O   0  0  0  0  0  0  0  0  0  0  0  0
   36.2850   30.7330   30.1920 H   0  0  0  0  0  0  0  0  0  0  0  0
  1  2  1  6  0  0  0
  1  5  1  0  0  0  0
  1 21  1  0  0  0  0
  3  8  1  0  0  0  0
  4  3  2  0  0  0  0
  4  5  1  0  0  0  0
  5  6  2  0  0  0  0
  6  7  1  0  0  0  0
  7 11  1  0  0  0  0
  8  7  2  0  0  0  0
  9  3  1  0  0  0  0
 10  4  1  0  0  0  0
 11 15  1  0  0  0  0
 11 12  2  0  0  0  0
 12 16  1  0  0  0  0
 12 13  1  0  0  0  0
 13 17  1  0  0  0  0
 14 13  2  0  0  0  0
 14 18  1  0  0  0  0
 15 14  1  0  0  0  0
 18 19  1  0  0  0  0
 18 20  1  0  0  0  0
 19 20  1  0  0  0  0
 21 24  1  1  0  0  0
 21 22  1  0  0  0  0
 21 23  1  0  0  0  0
 22 26  1  0  0  0  0
 22 23  1  0  0  0  0
 23 27  1  1  0  0  0
 23 28  1  0  0  0  0
 25 22  1  0  0  0  0
 28 33  2  0  0  0  0
 28 29  1  0  0  0  0
 29 30  2  0  0  0  0
 30 31  1  0  0  0  0
 30 35  1  0  0  0  0
 31 36  1  0  0  0  0
 32 37  1  0  0  0  0
 32 31  2  0  0  0  0
 33 32  1  0  0  0  0
 34 29  1  0  0  0  0
 38  1  1  0  0  0  0
 39 38  1  0  0  0  0
M  END
>  <minimizedAffinity>
-6.24695301

$$$$

 OpenBabel03272501413D

 39 43  0  0  1  0  0  0  0  0999 V2000
   37.1710   26.4250   33.2850 C   0  0  1  0  0  0  0  0  0  0  0  0
   38.1300   26.6310   32.6570 H   0  0  0  0  0  0  0  0  0  0  0  0
   36.0230   29.4800   31.5550 C   0  0  0  0  0  0  0  0  0  0  0  0
   36.4960   28.2210   31.8430 C   0  0  0  0  0  0  0  0  0  0  0  0
   36.5580   27.7160   33.1490 C   0  0  0  0  0  0  0  0  0  0  0  0
   36.1370   28.4950   34.1050 N   0  0  0  0  0  0  0  0  0  0  0  0
   35.6650   29.7490   33.8110 C   0  0  0  0  0  0  0  0  0  0  0  0
   35.6100   30.2290   32.5730 N   0  0  0  0  0  0  0  0  0  0  0  0
   35.9770   29.8680   30.5460 H   0  0  0  0  0  0  0  0  0  0  0  0
   36.8240   27.6350   30.9800 H   0  0  0  0  0  0  0  0  0  0  0  0
   35.1670   30.6240   34.8690 C   0  0  0  0  0  0  0  0  0  0  0  0
   35.8260   31.4140   35.7830 C   0  0  0  0  0  0  0  0  0  0  0  0
   35.1410   32.1580   36.6660 C   0  0  0  0  0  0  0  0  0  0  0  0
   33.7460   32.0660   36.5840 C   0  0  0  0  0  0  0  0  0  0  0  0
   33.4630   30.8900   35.2120 S   0  0  0  0  0  0  0  0  0  0  0  0
   36.9120   31.3910   35.7360 H   0  0  0  0  0  0  0  0  0  0  0  0
   35.5470   32.8020   37.4110 H   0  0  0  0  0  0  0  0  0  0  0  0
   32.6150   32.6760   37.3200 C   0  0  0  0  0  3  0  0  0  0  0  0
   32.0170   33.9660   36.8030 C   0  0  0  0  0  2  0  0  0  0  0  0
   31.3180   32.6780   36.6230 C   0  0  0  0  0  2  0  0  0  0  0  0
   37.6610   26.0500   34.6670 C   0  0  2  0  0  0  0  0  0  0  0  0
   39.1900   26.0900   34.6120 C   0  0  0  0  0  0  0  0  0  0  0  0
   38.4190   24.8400   34.8700 C   0  0  1  0  0  0  0  0  0  0  0  0
   37.1730   26.6370   35.4620 H   0  0  0  0  0  0  0  0  0  0  0  0
   39.7690   26.0730   33.6920 H   0  0  0  0  0  0  0  0  0  0  0  0
   39.6600   26.6210   35.4550 H   0  0  0  0  0  0  0  0  0  0  0  0
   38.2530   24.0690   34.0910 H   0  0  0  0  0  0  0  0  0  0  0  0
   38.7170   24.2300   36.1720 C   0  0  0  0  0  0  0  0  0  0  0  0
   37.9040   24.5530   37.2270 C   0  0  0  0  0  0  0  0  0  0  0  0
   38.1860   23.9500   38.4270 C   0  0  0  0  0  0  0  0  0  0  0  0
   39.2260   23.0570   38.6050 C   0  0  0  0  0  0  0  0  0  0  0  0
   40.0200   22.7580   37.5210 C   0  0  0  0  0  0  0  0  0  0  0  0
   39.7580   23.3410   36.3370 N   0  0  0  0  0  0  0  0  0  0  0  0
   37.0770   25.2450   37.1460 H   0  0  0  0  0  0  0  0  0  0  0  0
   37.5970   24.1410   39.3280 H   0  0  0  0  0  0  0  0  0  0  0  0
   39.4900   22.5570   39.5210 H   0  0  0  0  0  0  0  0  0  0  0  0
   40.8710   22.0840   37.4830 H   0  0  0  0  0  0  0  0  0  0  0  0
   36.7930   25.4030   32.5630 O   0  0  0  0  0  0  0  0  0  0  0  0
   35.9450   24.9540   32.8050 H   0  0  0  0  0  0  0  0  0  0  0  0
  1  2  1  6  0  0  0
  1 21  1  0  0  0  0
  3  4  2  0  0  0  0
  3  8  1  0  0  0  0
  4  5  1  0  0  0  0
  5  1  1  0  0  0  0
  5  6  2  0  0  0  0
  7  6  1  0  0  0  0
  7 11  1  0  0  0  0
  8  7  2  0  0  0  0
  9  3  1  0  0  0  0
 10  4  1  0  0  0  0
 11 15  1  0  0  0  0
 11 12  2  0  0  0  0
 12 13  1  0  0  0  0
 13 17  1  0  0  0  0
 14 13  2  0  0  0  0
 14 18  1  0  0  0  0
 15 14  1  0  0  0  0
 16 12  1  0  0  0  0
 19 18  1  0  0  0  0
 20 19  1  0  0  0  0
 20 18  1  0  0  0  0
 21 23  1  0  0  0  0
 21 24  1  1  0  0  0
 22 21  1  0  0  0  0
 22 23  1  0  0  0  0
 22 26  1  0  0  0  0
 23 27  1  6  0  0  0
 23 28  1  0  0  0  0
 25 22  1  0  0  0  0
 28 33  2  0  0  0  0
 28 29  1  0  0  0  0
 29 30  2  0  0  0  0
 30 31  1  0  0  0  0
 30 35  1  0  0  0  0
 31 36  1  0  0  0  0
 32 31  2  0  0  0  0
 33 32  1  0  0  0  0
 34 29  1  0  0  0  0
 37 32  1  0  0  0  0
 38 39  1  0  0  0  0
 38  1  1  0  0  0  0
M  END
>  <minimizedAffinity>
-6.11675167

$$$$

 OpenBabel03272501413D

 39 43  0  0  1  0  0  0  0  0999 V2000
   35.8770   27.7720   31.4000 C   0  0  1  0  0  0  0  0  0  0  0  0
   34.7660   27.7150   31.0570 H   0  0  0  0  0  0  0  0  0  0  0  0
   35.2620   24.1490   31.0250 C   0  0  0  0  0  0  0  0  0  0  0  0
   35.2340   25.5170   30.8870 C   0  0  0  0  0  0  0  0  0  0  0  0
   36.1060   26.3670   31.5820 C   0  0  0  0  0  0  0  0  0  0  0  0
   36.9700   25.8030   32.3790 N   0  0  0  0  0  0  0  0  0  0  0  0
   36.9930   24.4380   32.5110 C   0  0  0  0  0  0  0  0  0  0  0  0
   36.1630   23.6330   31.8540 N   0  0  0  0  0  0  0  0  0  0  0  0
   34.5860   23.4960   30.4880 H   0  0  0  0  0  0  0  0  0  0  0  0
   34.4810   25.9040   30.1940 H   0  0  0  0  0  0  0  0  0  0  0  0
   37.9710   23.7910   33.3810 C   0  0  0  0  0  0  0  0  0  0  0  0
   38.5620   22.5500   33.3240 C   0  0  0  0  0  0  0  0  0  0  0  0
   39.4640   22.1760   34.2470 C   0  0  0  0  0  0  0  0  0  0  0  0
   39.7440   23.1240   35.2400 C   0  0  0  0  0  0  0  0  0  0  0  0
   38.6800   24.5470   34.8030 S   0  0  0  0  0  0  0  0  0  0  0  0
   38.2520   21.9130   32.5000 H   0  0  0  0  0  0  0  0  0  0  0  0
   39.9790   21.2460   34.2980 H   0  0  0  0  0  0  0  0  0  0  0  0
   40.6340   23.1640   36.4220 C   0  0  0  0  0  3  0  0  0  0  0  0
   40.0830   22.7370   37.7660 C   0  0  0  0  0  2  0  0  0  0  0  0
   40.9930   21.8590   37.0040 C   0  0  0  0  0  2  0  0  0  0  0  0
   35.8740   28.6240   32.6510 C   0  0  2  0  0  0  0  0  0  0  0  0
   34.4240   29.0590   32.8770 C   0  0  0  0  0  0  0  0  0  0  0  0
   35.5240   30.0210   32.5820 C   0  0  1  0  0  0  0  0  0  0  0  0
   36.3880   28.1380   33.4960 H   0  0  0  0  0  0  0  0  0  0  0  0
   33.6490   29.0220   32.1170 H   0  0  0  0  0  0  0  0  0  0  0  0
   34.0720   28.9400   33.9150 H   0  0  0  0  0  0  0  0  0  0  0  0
   35.6690   30.4730   31.5800 H   0  0  0  0  0  0  0  0  0  0  0  0
   35.7370   31.0080   33.6490 C   0  0  0  0  0  0  0  0  0  0  0  0
   35.6540   30.5700   34.9450 C   0  0  0  0  0  0  0  0  0  0  0  0
   35.8840   31.5030   35.9250 C   0  0  0  0  0  0  0  0  0  0  0  0
   36.1870   32.8250   35.6610 C   0  0  0  0  0  0  0  0  0  0  0  0
   36.2610   33.2270   34.3470 C   0  0  0  0  0  0  0  0  0  0  0  0
   36.0380   32.3240   33.3730 N   0  0  0  0  0  0  0  0  0  0  0  0
   35.4210   29.5470   35.2100 H   0  0  0  0  0  0  0  0  0  0  0  0
   35.8410   31.2530   36.9890 H   0  0  0  0  0  0  0  0  0  0  0  0
   36.3750   33.5960   36.3890 H   0  0  0  0  0  0  0  0  0  0  0  0
   36.4850   34.2180   33.9630 H   0  0  0  0  0  0  0  0  0  0  0  0
   36.2830   28.4050   30.3320 O   0  0  0  0  0  0  0  0  0  0  0  0
   37.2470   28.6180   30.2580 H   0  0  0  0  0  0  0  0  0  0  0  0
  1  2  1  6  0  0  0
  1  5  1  0  0  0  0
  1 21  1  0  0  0  0
  3  8  1  0  0  0  0
  4  3  2  0  0  0  0
  4  5  1  0  0  0  0
  5  6  2  0  0  0  0
  6  7  1  0  0  0  0
  7 11  1  0  0  0  0
  8  7  2  0  0  0  0
  9  3  1  0  0  0  0
 10  4  1  0  0  0  0
 11 15  1  0  0  0  0
 12 11  2  0  0  0  0
 12 13  1  0  0  0  0
 13 17  1  0  0  0  0
 13 14  2  0  0  0  0
 14 18  1  0  0  0  0
 15 14  1  0  0  0  0
 16 12  1  0  0  0  0
 18 20  1  0  0  0  0
 18 19  1  0  0  0  0
 20 19  1  0  0  0  0
 21 22  1  0  0  0  0
 21 24  1  1  0  0  0
 22 26  1  0  0  0  0
 23 27  1  6  0  0  0
 23 21  1  0  0  0  0
 23 22  1  0  0  0  0
 23 28  1  0  0  0  0
 25 22  1  0  0  0  0
 28 29  1  0  0  0  0
 29 34  1  0  0  0  0
 29 30  2  0  0  0  0
 30 35  1  0  0  0  0
 31 30  1  0  0  0  0
 31 36  1  0  0  0  0
 32 31  2  0  0  0  0
 33 28  2  0  0  0  0
 33 32  1  0  0  0  0
 37 32  1  0  0  0  0
 38  1  1  0  0  0  0
 39 38  1  0  0  0  0
M  END
>  <minimizedAffinity>
-5.86114502

$$$$

 OpenBabel03272501413D

 39 43  0  0  1  0  0  0  0  0999 V2000
   38.5380   26.5300   32.7010 C   0  0  1  0  0  0  0  0  0  0  0  0
   39.4740   27.2200   32.6430 H   0  0  0  0  0  0  0  0  0  0  0  0
   36.9010   28.8070   30.2960 C   0  0  0  0  0  0  0  0  0  0  0  0
   37.6960   27.8490   30.8810 C   0  0  0  0  0  0  0  0  0  0  0  0
   37.5630   27.4700   32.2240 C   0  0  0  0  0  0  0  0  0  0  0  0
   36.6340   28.0660   32.9170 N   0  0  0  0  0  0  0  0  0  0  0  0
   35.8430   29.0200   32.3270 C   0  0  0  0  0  0  0  0  0  0  0  0
   35.9720   29.3810   31.0550 N   0  0  0  0  0  0  0  0  0  0  0  0
   37.0070   29.0990   29.2600 H   0  0  0  0  0  0  0  0  0  0  0  0
   38.4460   27.3990   30.2250 H   0  0  0  0  0  0  0  0  0  0  0  0
   34.7820   29.6780   33.0850 C   0  0  0  0  0  0  0  0  0  0  0  0
   33.4140   29.6610   32.9390 C   0  0  0  0  0  0  0  0  0  0  0  0
   32.6260   30.3450   33.7850 C   0  0  0  0  0  0  0  0  0  0  0  0
   33.2900   31.0540   34.7950 C   0  0  0  0  0  0  0  0  0  0  0  0
   35.0590   30.7040   34.4860 S   0  0  0  0  0  0  0  0  0  0  0  0
   33.0300   29.0700   32.1120 H   0  0  0  0  0  0  0  0  0  0  0  0
   31.5620   30.4010   33.7650 H   0  0  0  0  0  0  0  0  0  0  0  0
   32.8610   31.9200   35.9160 C   0  0  0  0  0  3  0  0  0  0  0  0
   32.3910   31.2730   37.2010 C   0  0  0  0  0  2  0  0  0  0  0  0
   33.7230   31.9040   37.1100 C   0  0  0  0  0  2  0  0  0  0  0  0
   38.4250   26.1170   34.1530 C   0  0  2  0  0  0  0  0  0  0  0  0
   39.7020   26.6030   34.8440 C   0  0  0  0  0  0  0  0  0  0  0  0
   39.3470   25.1610   34.7140 C   0  0  1  0  0  0  0  0  0  0  0  0
   37.4660   26.4180   34.6050 H   0  0  0  0  0  0  0  0  0  0  0  0
   40.6100   26.8870   34.3190 H   0  0  0  0  0  0  0  0  0  0  0  0
   39.5300   27.1200   35.8020 H   0  0  0  0  0  0  0  0  0  0  0  0
   39.8180   24.4960   33.9620 H   0  0  0  0  0  0  0  0  0  0  0  0
   39.1890   24.4810   36.0060 C   0  0  0  0  0  0  0  0  0  0  0  0
   38.1710   24.8980   36.8240 C   0  0  0  0  0  0  0  0  0  0  0  0
   38.0260   24.2310   38.0140 C   0  0  0  0  0  0  0  0  0  0  0  0
   38.8420   23.1870   38.4060 C   0  0  0  0  0  0  0  0  0  0  0  0
   39.8540   22.7970   37.5580 C   0  0  0  0  0  0  0  0  0  0  0  0
   40.0100   23.4420   36.3860 N   0  0  0  0  0  0  0  0  0  0  0  0
   37.5020   25.7090   36.5690 H   0  0  0  0  0  0  0  0  0  0  0  0
   37.2450   24.4880   38.7350 H   0  0  0  0  0  0  0  0  0  0  0  0
   38.7730   22.6310   39.3250 H   0  0  0  0  0  0  0  0  0  0  0  0
   40.5810   22.0040   37.7060 H   0  0  0  0  0  0  0  0  0  0  0  0
   39.0410   25.6070   31.9270 O   0  0  0  0  0  0  0  0  0  0  0  0
   38.4790   24.8190   31.7190 H   0  0  0  0  0  0  0  0  0  0  0  0
  1  2  1  1  0  0  0
  1 21  1  0  0  0  0
  3  4  2  0  0  0  0
  3  8  1  0  0  0  0
  4  5  1  0  0  0  0
  5  1  1  0  0  0  0
  5  6  2  0  0  0  0
  7  6  1  0  0  0  0
  7 11  1  0  0  0  0
  8  7  2  0  0  0  0
  9  3  1  0  0  0  0
 10  4  1  0  0  0  0
 11 15  1  0  0  0  0
 12 11  2  0  0  0  0
 12 13  1  0  0  0  0
 13 14  2  0  0  0  0
 14 18  1  0  0  0  0
 15 14  1  0  0  0  0
 16 12  1  0  0  0  0
 17 13  1  0  0  0  0
 18 20  1  0  0  0  0
 18 19  1  0  0  0  0
 20 19  1  0  0  0  0
 21 24  1  1  0  0  0
 21 23  1  0  0  0  0
 21 22  1  0  0  0  0
 22 26  1  0  0  0  0
 23 27  1  6  0  0  0
 23 22  1  0  0  0  0
 23 28  1  0  0  0  0
 25 22  1  0  0  0  0
 28 33  2  0  0  0  0
 28 29  1  0  0  0  0
 29 30  2  0  0  0  0
 30 31  1  0  0  0  0
 30 35  1  0  0  0  0
 31 36  1  0  0  0  0
 32 37  1  0  0  0  0
 32 31  2  0  0  0  0
 33 32  1  0  0  0  0
 34 29  1  0  0  0  0
 38  1  1  0  0  0  0
 39 38  1  0  0  0  0
M  END
>  <minimizedAffinity>
-5.81031322

$$$$

 OpenBabel03272501413D

 39 43  0  0  1  0  0  0  0  0999 V2000
   38.7980   24.2160   32.1330 C   0  0  1  0  0  0  0  0  0  0  0  0
   39.5850   24.9880   31.7570 H   0  0  0  0  0  0  0  0  0  0  0  0
   35.4120   25.1060   30.9550 C   0  0  0  0  0  0  0  0  0  0  0  0
   36.5680   24.4320   31.2720 C   0  0  0  0  0  0  0  0  0  0  0  0
   37.6250   25.0280   31.9730 C   0  0  0  0  0  0  0  0  0  0  0  0
   37.4700   26.2720   32.3290 N   0  0  0  0  0  0  0  0  0  0  0  0
   36.3140   26.9390   32.0110 C   0  0  0  0  0  0  0  0  0  0  0  0
   35.3140   26.3730   31.3430 N   0  0  0  0  0  0  0  0  0  0  0  0
   34.5980   24.6430   30.4120 H   0  0  0  0  0  0  0  0  0  0  0  0
   36.6100   23.3910   30.9380 H   0  0  0  0  0  0  0  0  0  0  0  0
   36.1170   28.3250   32.4250 C   0  0  0  0  0  0  0  0  0  0  0  0
   36.2430   29.5090   31.7350 C   0  0  0  0  0  0  0  0  0  0  0  0
   35.9880   30.6830   32.3340 C   0  0  0  0  0  0  0  0  0  0  0  0
   35.5960   30.6070   33.6770 C   0  0  0  0  0  0  0  0  0  0  0  0
   35.6080   28.8130   34.0370 S   0  0  0  0  0  0  0  0  0  0  0  0
   36.5560   29.4230   30.6980 H   0  0  0  0  0  0  0  0  0  0  0  0
   36.0530   31.6520   31.8970 H   0  0  0  0  0  0  0  0  0  0  0  0
   35.2250   31.5960   34.7140 C   0  0  0  0  0  3  0  0  0  0  0  0
   36.2580   31.9980   35.7440 C   0  0  0  0  0  2  0  0  0  0  0  0
   35.9020   32.9010   34.6320 C   0  0  0  0  0  2  0  0  0  0  0  0
   39.2010   23.8820   33.5530 C   0  0  2  0  0  0  0  0  0  0  0  0
   38.7290   22.4480   33.8130 C   0  0  0  0  0  0  0  0  0  0  0  0
   38.1960   23.6260   34.5560 C   0  0  1  0  0  0  0  0  0  0  0  0
   40.2610   24.1040   33.7560 H   0  0  0  0  0  0  0  0  0  0  0  0
   37.9880   21.9300   33.2090 H   0  0  0  0  0  0  0  0  0  0  0  0
   39.4840   21.8020   34.2900 H   0  0  0  0  0  0  0  0  0  0  0  0
   37.2090   24.0780   34.3290 H   0  0  0  0  0  0  0  0  0  0  0  0
   38.4340   23.5580   36.0030 C   0  0  0  0  0  0  0  0  0  0  0  0
   39.5440   22.8790   36.4340 C   0  0  0  0  0  0  0  0  0  0  0  0
   39.7610   22.8510   37.7880 C   0  0  0  0  0  0  0  0  0  0  0  0
   38.9280   23.4640   38.7060 C   0  0  0  0  0  0  0  0  0  0  0  0
   37.8230   24.1360   38.2340 C   0  0  0  0  0  0  0  0  0  0  0  0
   37.5960   24.1720   36.9080 N   0  0  0  0  0  0  0  0  0  0  0  0
   40.2300   22.3810   35.7620 H   0  0  0  0  0  0  0  0  0  0  0  0
   40.6180   22.3360   38.2310 H   0  0  0  0  0  0  0  0  0  0  0  0
   39.0510   23.4730   39.7750 H   0  0  0  0  0  0  0  0  0  0  0  0
   37.0710   24.6690   38.8090 H   0  0  0  0  0  0  0  0  0  0  0  0
   39.1260   23.3000   31.2620 O   0  0  0  0  0  0  0  0  0  0  0  0
   38.6170   22.4520   31.2670 H   0  0  0  0  0  0  0  0  0  0  0  0
  1  2  1  6  0  0  0
  1 21  1  0  0  0  0
  3  4  2  0  0  0  0
  3  8  1  0  0  0  0
  4  5  1  0  0  0  0
  5  1  1  0  0  0  0
  5  6  2  0  0  0  0
  7  6  1  0  0  0  0
  7 11  1  0  0  0  0
  8  7  2  0  0  0  0
  9  3  1  0  0  0  0
 10  4  1  0  0  0  0
 11 15  1  0  0  0  0
 12 13  1  0  0  0  0
 12 11  2  0  0  0  0
 13 14  2  0  0  0  0
 14 15  1  0  0  0  0
 14 18  1  0  0  0  0
 16 12  1  0  0  0  0
 17 13  1  0  0  0  0
 18 19  1  0  0  0  0
 20 18  1  0  0  0  0
 20 19  1  0  0  0  0
 21 24  1  1  0  0  0
 21 22  1  0  0  0  0
 21 23  1  0  0  0  0
 22 26  1  0  0  0  0
 22 23  1  0  0  0  0
 23 27  1  6  0  0  0
 23 28  1  0  0  0  0
 25 22  1  0  0  0  0
 28 29  2  0  0  0  0
 28 33  1  0  0  0  0
 29 30  1  0  0  0  0
 30 35  1  0  0  0  0
 30 31  2  0  0  0  0
 31 36  1  0  0  0  0
 32 31  1  0  0  0  0
 32 37  1  0  0  0  0
 33 32  2  0  0  0  0
 34 29  1  0  0  0  0
 38 39  1  0  0  0  0
 38  1  1  0  0  0  0
M  END
>  <minimizedAffinity>
-5.7708745

$$$$

 OpenBabel03272501413D

 39 43  0  0  1  0  0  0  0  0999 V2000
   38.0410   27.2080   32.8630 C   0  0  1  0  0  0  0  0  0  0  0  0
   38.8570   28.0330   32.9680 H   0  0  0  0  0  0  0  0  0  0  0  0
   36.1500   29.5820   30.7570 C   0  0  0  0  0  0  0  0  0  0  0  0
   37.0680   28.6730   31.2290 C   0  0  0  0  0  0  0  0  0  0  0  0
   36.9460   28.0540   32.4810 C   0  0  0  0  0  0  0  0  0  0  0  0
   35.9050   28.3710   33.1980 N   0  0  0  0  0  0  0  0  0  0  0  0
   34.9920   29.2780   32.7200 C   0  0  0  0  0  0  0  0  0  0  0  0
   35.1110   29.8670   31.5350 N   0  0  0  0  0  0  0  0  0  0  0  0
   36.2480   30.0590   29.7910 H   0  0  0  0  0  0  0  0  0  0  0  0
   37.9070   28.4630   30.5600 H   0  0  0  0  0  0  0  0  0  0  0  0
   33.8090   29.6240   33.5030 C   0  0  0  0  0  0  0  0  0  0  0  0
   32.4680   29.4320   33.2610 C   0  0  0  0  0  0  0  0  0  0  0  0
   31.5460   29.8280   34.1530 C   0  0  0  0  0  0  0  0  0  0  0  0
   32.0460   30.4340   35.3130 C   0  0  0  0  0  0  0  0  0  0  0  0
   33.8600   30.4120   35.0750 S   0  0  0  0  0  0  0  0  0  0  0  0
   32.2190   28.9490   32.3200 H   0  0  0  0  0  0  0  0  0  0  0  0
   30.4890   29.7290   34.0680 H   0  0  0  0  0  0  0  0  0  0  0  0
   31.4370   31.0120   36.5330 C   0  0  0  0  0  3  0  0  0  0  0  0
   30.9890   32.4580   36.5120 C   0  0  0  0  0  2  0  0  0  0  0  0
   30.0090   31.3570   36.4410 C   0  0  0  0  0  2  0  0  0  0  0  0
   37.9470   26.5520   34.2240 C   0  0  2  0  0  0  0  0  0  0  0  0
   39.0240   27.2030   35.0960 C   0  0  0  0  0  0  0  0  0  0  0  0
   39.0390   25.7580   34.7290 C   0  0  1  0  0  0  0  0  0  0  0  0
   36.9190   26.5460   34.6200 H   0  0  0  0  0  0  0  0  0  0  0  0
   39.8650   27.7700   34.7070 H   0  0  0  0  0  0  0  0  0  0  0  0
   38.6750   27.5040   36.0970 H   0  0  0  0  0  0  0  0  0  0  0  0
   39.7020   25.3500   33.9390 H   0  0  0  0  0  0  0  0  0  0  0  0
   38.9760   24.8610   35.8900 C   0  0  0  0  0  0  0  0  0  0  0  0
   38.0400   25.1330   36.8530 C   0  0  0  0  0  0  0  0  0  0  0  0
   37.9800   24.2660   37.9150 C   0  0  0  0  0  0  0  0  0  0  0  0
   38.8040   23.1640   38.0450 C   0  0  0  0  0  0  0  0  0  0  0  0
   39.7320   22.9240   37.0570 C   0  0  0  0  0  0  0  0  0  0  0  0
   39.8030   23.7650   36.0080 N   0  0  0  0  0  0  0  0  0  0  0  0
   37.3690   25.9810   36.8030 H   0  0  0  0  0  0  0  0  0  0  0  0
   37.2680   24.3960   38.7350 H   0  0  0  0  0  0  0  0  0  0  0  0
   38.8000   22.4550   38.8550 H   0  0  0  0  0  0  0  0  0  0  0  0
   40.4510   22.1120   37.0000 H   0  0  0  0  0  0  0  0  0  0  0  0
   38.7120   26.5110   31.9860 O   0  0  0  0  0  0  0  0  0  0  0  0
   38.2900   25.6920   31.6250 H   0  0  0  0  0  0  0  0  0  0  0  0
  1  2  1  1  0  0  0
  1 21  1  0  0  0  0
  3  4  2  0  0  0  0
  3  8  1  0  0  0  0
  4  5  1  0  0  0  0
  5  1  1  0  0  0  0
  5  6  2  0  0  0  0
  7  6  1  0  0  0  0
  7 11  1  0  0  0  0
  8  7  2  0  0  0  0
  9  3  1  0  0  0  0
 10  4  1  0  0  0  0
 11 15  1  0  0  0  0
 12 11  2  0  0  0  0
 12 13  1  0  0  0  0
 13 14  2  0  0  0  0
 14 18  1  0  0  0  0
 15 14  1  0  0  0  0
 16 12  1  0  0  0  0
 17 13  1  0  0  0  0
 19 18  1  0  0  0  0
 20 19  1  0  0  0  0
 20 18  1  0  0  0  0
 21 24  1  1  0  0  0
 21 23  1  0  0  0  0
 21 22  1  0  0  0  0
 22 26  1  0  0  0  0
 23 27  1  6  0  0  0
 23 22  1  0  0  0  0
 23 28  1  0  0  0  0
 25 22  1  0  0  0  0
 28 33  2  0  0  0  0
 28 29  1  0  0  0  0
 29 30  2  0  0  0  0
 30 31  1  0  0  0  0
 30 35  1  0  0  0  0
 31 36  1  0  0  0  0
 32 31  2  0  0  0  0
 33 32  1  0  0  0  0
 34 29  1  0  0  0  0
 37 32  1  0  0  0  0
 38  1  1  0  0  0  0
 39 38  1  0  0  0  0
M  END
>  <minimizedAffinity>
-5.68877268

$$$$

 OpenBabel03272501413D

 39 43  0  0  1  0  0  0  0  0999 V2000
   36.5820   27.9740   32.5580 C   0  0  1  0  0  0  0  0  0  0  0  0
   35.8110   27.7030   31.7290 H   0  0  0  0  0  0  0  0  0  0  0  0
   39.0170   25.4430   33.7040 C   0  0  0  0  0  0  0  0  0  0  0  0
   38.3210   26.6110   33.4970 C   0  0  0  0  0  0  0  0  0  0  0  0
   37.1260   26.6610   32.7660 C   0  0  0  0  0  0  0  0  0  0  0  0
   36.6810   25.5360   32.2810 N   0  0  0  0  0  0  0  0  0  0  0  0
   37.3800   24.3740   32.4930 C   0  0  0  0  0  0  0  0  0  0  0  0
   38.5150   24.3280   33.1830 N   0  0  0  0  0  0  0  0  0  0  0  0
   39.9400   25.4080   34.2680 H   0  0  0  0  0  0  0  0  0  0  0  0
   38.7650   27.5060   33.9420 H   0  0  0  0  0  0  0  0  0  0  0  0
   36.8800   23.1020   31.9770 C   0  0  0  0  0  0  0  0  0  0  0  0
   35.6040   22.6700   31.7000 C   0  0  0  0  0  0  0  0  0  0  0  0
   35.3890   21.4390   31.2070 C   0  0  0  0  0  0  0  0  0  0  0  0
   36.5330   20.6580   31.0040 C   0  0  0  0  0  0  0  0  0  0  0  0
   37.9060   21.7420   31.5410 S   0  0  0  0  0  0  0  0  0  0  0  0
   34.8070   23.3790   31.9040 H   0  0  0  0  0  0  0  0  0  0  0  0
   34.4490   21.0060   30.9570 H   0  0  0  0  0  0  0  0  0  0  0  0
   36.7860   19.2890   30.4990 C   0  0  0  0  0  3  0  0  0  0  0  0
   36.7300   19.0380   29.0080 C   0  0  0  0  0  2  0  0  0  0  0  0
   38.0220   19.1070   29.7190 C   0  0  0  0  0  2  0  0  0  0  0  0
   35.7720   28.5570   33.6960 C   0  0  2  0  0  0  0  0  0  0  0  0
   34.4980   29.1330   33.0710 C   0  0  0  0  0  0  0  0  0  0  0  0
   35.5180   29.9760   33.7590 C   0  0  1  0  0  0  0  0  0  0  0  0
   35.6440   27.8500   34.5310 H   0  0  0  0  0  0  0  0  0  0  0  0
   34.3810   29.3510   32.0130 H   0  0  0  0  0  0  0  0  0  0  0  0
   33.5710   28.8620   33.6020 H   0  0  0  0  0  0  0  0  0  0  0  0
   36.2570   30.5900   33.2050 H   0  0  0  0  0  0  0  0  0  0  0  0
   34.9890   30.6960   34.9240 C   0  0  0  0  0  0  0  0  0  0  0  0
   35.8300   31.5630   35.5710 C   0  0  0  0  0  0  0  0  0  0  0  0
   35.3060   32.2450   36.6400 C   0  0  0  0  0  0  0  0  0  0  0  0
   34.0030   32.0940   37.0750 C   0  0  0  0  0  0  0  0  0  0  0  0
   33.1890   31.2130   36.4000 C   0  0  0  0  0  0  0  0  0  0  0  0
   33.6870   30.5350   35.3480 N   0  0  0  0  0  0  0  0  0  0  0  0
   36.8580   31.7210   35.2750 H   0  0  0  0  0  0  0  0  0  0  0  0
   35.8950   32.9600   37.2210 H   0  0  0  0  0  0  0  0  0  0  0  0
   33.5430   32.6020   37.9050 H   0  0  0  0  0  0  0  0  0  0  0  0
   32.1490   30.9740   36.6040 H   0  0  0  0  0  0  0  0  0  0  0  0
   37.2000   28.8700   31.8360 O   0  0  0  0  0  0  0  0  0  0  0  0
   37.9820   29.3270   32.2350 H   0  0  0  0  0  0  0  0  0  0  0  0
  1  2  1  6  0  0  0
  1  5  1  0  0  0  0
  1 21  1  0  0  0  0
  3  9  1  0  0  0  0
  4  3  1  0  0  0  0
  4 10  1  0  0  0  0
  5  4  2  0  0  0  0
  6  7  2  0  0  0  0
  6  5  1  0  0  0  0
  7  8  1  0  0  0  0
  8  3  2  0  0  0  0
 11  7  1  0  0  0  0
 12 16  1  0  0  0  0
 12 11  2  0  0  0  0
 13 12  1  0  0  0  0
 14 13  2  0  0  0  0
 14 15  1  0  0  0  0
 15 11  1  0  0  0  0
 17 13  1  0  0  0  0
 18 14  1  0  0  0  0
 19 20  1  0  0  0  0
 19 18  1  0  0  0  0
 20 18  1  0  0  0  0
 21 23  1  0  0  0  0
 21 24  1  1  0  0  0
 22 26  1  0  0  0  0
 22 21  1  0  0  0  0
 22 23  1  0  0  0  0
 23 27  1  6  0  0  0
 23 28  1  0  0  0  0
 25 22  1  0  0  0  0
 28 33  2  0  0  0  0
 28 29  1  0  0  0  0
 29 30  2  0  0  0  0
 30 31  1  0  0  0  0
 30 35  1  0  0  0  0
 31 36  1  0  0  0  0
 32 37  1  0  0  0  0
 32 31  2  0  0  0  0
 33 32  1  0  0  0  0
 34 29  1  0  0  0  0
 38 39  1  0  0  0  0
 38  1  1  0  0  0  0
M  END
>  <minimizedAffinity>
-5.67049074

$$$$

 OpenBabel03272501413D

 39 43  0  0  1  0  0  0  0  0999 V2000
   36.2340   28.4150   32.3160 C   0  0  1  0  0  0  0  0  0  0  0  0
   35.3440   28.3200   31.5710 H   0  0  0  0  0  0  0  0  0  0  0  0
   36.3880   24.9030   31.1800 C   0  0  0  0  0  0  0  0  0  0  0  0
   36.1740   26.2600   31.2620 C   0  0  0  0  0  0  0  0  0  0  0  0
   36.6300   27.0350   32.3370 C   0  0  0  0  0  0  0  0  0  0  0  0
   37.2860   26.4160   33.2770 N   0  0  0  0  0  0  0  0  0  0  0  0
   37.4990   25.0630   33.1880 C   0  0  0  0  0  0  0  0  0  0  0  0
   37.0620   24.3270   32.1710 N   0  0  0  0  0  0  0  0  0  0  0  0
   36.0330   24.3070   30.3500 H   0  0  0  0  0  0  0  0  0  0  0  0
   35.6180   26.6970   30.4280 H   0  0  0  0  0  0  0  0  0  0  0  0
   38.2530   24.3590   34.2220 C   0  0  0  0  0  0  0  0  0  0  0  0
   38.1300   24.3500   35.5920 C   0  0  0  0  0  0  0  0  0  0  0  0
   38.9450   23.5970   36.3490 C   0  0  0  0  0  0  0  0  0  0  0  0
   39.9000   22.8460   35.6500 C   0  0  0  0  0  0  0  0  0  0  0  0
   39.5850   23.2580   33.8960 S   0  0  0  0  0  0  0  0  0  0  0  0
   37.3460   24.9800   36.0040 H   0  0  0  0  0  0  0  0  0  0  0  0
   38.9380   23.5140   37.4100 H   0  0  0  0  0  0  0  0  0  0  0  0
   40.9740   21.9040   36.0390 C   0  0  0  0  0  3  0  0  0  0  0  0
   42.2540   22.4580   36.6260 C   0  0  0  0  0  2  0  0  0  0  0  0
   41.2490   21.7980   37.4810 C   0  0  0  0  0  2  0  0  0  0  0  0
   35.6390   28.9670   33.5940 C   0  0  2  0  0  0  0  0  0  0  0  0
   34.1860   29.3300   33.2760 C   0  0  0  0  0  0  0  0  0  0  0  0
   35.2090   30.3420   33.6650 C   0  0  1  0  0  0  0  0  0  0  0  0
   35.8120   28.3080   34.4600 H   0  0  0  0  0  0  0  0  0  0  0  0
   33.7940   29.4570   32.2700 H   0  0  0  0  0  0  0  0  0  0  0  0
   33.4580   28.9790   34.0250 H   0  0  0  0  0  0  0  0  0  0  0  0
   35.7030   31.0060   32.9270 H   0  0  0  0  0  0  0  0  0  0  0  0
   34.8720   31.0670   34.8970 C   0  0  0  0  0  0  0  0  0  0  0  0
   35.7610   32.0110   35.3420 C   0  0  0  0  0  0  0  0  0  0  0  0
   35.4120   32.6950   36.4800 C   0  0  0  0  0  0  0  0  0  0  0  0
   34.2360   32.4730   37.1710 C   0  0  0  0  0  0  0  0  0  0  0  0
   33.3700   31.5160   36.6930 C   0  0  0  0  0  0  0  0  0  0  0  0
   33.6970   30.8360   35.5780 N   0  0  0  0  0  0  0  0  0  0  0  0
   36.6950   32.2260   34.8420 H   0  0  0  0  0  0  0  0  0  0  0  0
   36.0520   33.4670   36.9150 H   0  0  0  0  0  0  0  0  0  0  0  0
   33.9150   32.9790   38.0660 H   0  0  0  0  0  0  0  0  0  0  0  0
   32.4120   31.2170   37.1070 H   0  0  0  0  0  0  0  0  0  0  0  0
   36.8710   29.3050   31.6030 O   0  0  0  0  0  0  0  0  0  0  0  0
   37.7450   29.6280   31.9390 H   0  0  0  0  0  0  0  0  0  0  0  0
  1  2  1  6  0  0  0
  1  5  1  0  0  0  0
  1 21  1  0  0  0  0
  3  4  2  0  0  0  0
  3  8  1  0  0  0  0
  4  5  1  0  0  0  0
  5  6  2  0  0  0  0
  7  6  1  0  0  0  0
  7 11  1  0  0  0  0
  8  7  2  0  0  0  0
  9  3  1  0  0  0  0
 10  4  1  0  0  0  0
 11 12  2  0  0  0  0
 12 16  1  0  0  0  0
 12 13  1  0  0  0  0
 13 17  1  0  0  0  0
 14 18  1  0  0  0  0
 14 13  2  0  0  0  0
 15 11  1  0  0  0  0
 15 14  1  0  0  0  0
 18 19  1  0  0  0  0
 18 20  1  0  0  0  0
 19 20  1  0  0  0  0
 21 23  1  0  0  0  0
 21 24  1  1  0  0  0
 22 21  1  0  0  0  0
 22 23  1  0  0  0  0
 22 26  1  0  0  0  0
 23 27  1  6  0  0  0
 23 28  1  0  0  0  0
 25 22  1  0  0  0  0
 28 29  2  0  0  0  0
 28 33  1  0  0  0  0
 29 30  1  0  0  0  0
 30 35  1  0  0  0  0
 30 31  2  0  0  0  0
 31 36  1  0  0  0  0
 32 37  1  0  0  0  0
 32 31  1  0  0  0  0
 33 32  2  0  0  0  0
 34 29  1  0  0  0  0
 38 39  1  0  0  0  0
 38  1  1  0  0  0  0
M  END
>  <minimizedAffinity>
-5.64624929

$$$$

 OpenBabel03272501413D

 39 43  0  0  1  0  0  0  0  0999 V2000
   36.5020   25.7340   31.5610 C   0  0  1  0  0  0  0  0  0  0  0  0
   37.4900   25.9790   30.9940 H   0  0  0  0  0  0  0  0  0  0  0  0
   37.6630   27.0190   34.8240 C   0  0  0  0  0  0  0  0  0  0  0  0
   37.4910   26.2740   33.6800 C   0  0  0  0  0  0  0  0  0  0  0  0
   36.6460   26.6750   32.6350 C   0  0  0  0  0  0  0  0  0  0  0  0
   36.0180   27.8070   32.7840 N   0  0  0  0  0  0  0  0  0  0  0  0
   36.1960   28.5460   33.9260 C   0  0  0  0  0  0  0  0  0  0  0  0
   36.9940   28.1640   34.9180 N   0  0  0  0  0  0  0  0  0  0  0  0
   38.3150   26.7060   35.6290 H   0  0  0  0  0  0  0  0  0  0  0  0
   38.0590   25.3400   33.6390 H   0  0  0  0  0  0  0  0  0  0  0  0
   35.5180   29.8280   34.0950 C   0  0  0  0  0  0  0  0  0  0  0  0
   34.5910   30.4780   33.3140 C   0  0  0  0  0  0  0  0  0  0  0  0
   34.0880   31.6650   33.6900 C   0  0  0  0  0  0  0  0  0  0  0  0
   34.5690   32.1710   34.9050 C   0  0  0  0  0  0  0  0  0  0  0  0
   35.7520   30.8950   35.4740 S   0  0  0  0  0  0  0  0  0  0  0  0
   34.3050   29.9730   32.3950 H   0  0  0  0  0  0  0  0  0  0  0  0
   33.3700   32.2510   33.1660 H   0  0  0  0  0  0  0  0  0  0  0  0
   34.3180   33.3950   35.6980 C   0  0  0  0  0  3  0  0  0  0  0  0
   33.1410   33.4220   36.6480 C   0  0  0  0  0  2  0  0  0  0  0  0
   34.5200   33.2750   37.1520 C   0  0  0  0  0  2  0  0  0  0  0  0
   36.5960   24.2680   31.9280 C   0  0  2  0  0  0  0  0  0  0  0  0
   37.6280   23.6480   30.9820 C   0  0  0  0  0  0  0  0  0  0  0  0
   36.1900   23.2530   30.9880 C   0  0  1  0  0  0  0  0  0  0  0  0
   36.7500   24.1120   33.0080 H   0  0  0  0  0  0  0  0  0  0  0  0
   37.9600   24.1070   30.0540 H   0  0  0  0  0  0  0  0  0  0  0  0
   38.3700   23.0040   31.4800 H   0  0  0  0  0  0  0  0  0  0  0  0
   35.4700   23.6090   30.2240 H   0  0  0  0  0  0  0  0  0  0  0  0
   35.9780   21.8340   31.3040 C   0  0  0  0  0  0  0  0  0  0  0  0
   35.1080   21.5330   32.3200 C   0  0  0  0  0  0  0  0  0  0  0  0
   34.9050   20.2010   32.5800 C   0  0  0  0  0  0  0  0  0  0  0  0
   35.5240   19.1850   31.8770 C   0  0  0  0  0  0  0  0  0  0  0  0
   36.3910   19.5280   30.8640 C   0  0  0  0  0  0  0  0  0  0  0  0
   36.6020   20.8300   30.5960 N   0  0  0  0  0  0  0  0  0  0  0  0
   34.5960   22.2860   32.9030 H   0  0  0  0  0  0  0  0  0  0  0  0
   34.2310   19.8580   33.3690 H   0  0  0  0  0  0  0  0  0  0  0  0
   35.4010   18.1280   32.0390 H   0  0  0  0  0  0  0  0  0  0  0  0
   36.9570   18.8640   30.2170 H   0  0  0  0  0  0  0  0  0  0  0  0
   35.7310   25.9720   30.5340 O   0  0  0  0  0  0  0  0  0  0  0  0
   34.7540   25.8820   30.6580 H   0  0  0  0  0  0  0  0  0  0  0  0
  1  2  1  6  0  0  0
  1 21  1  0  0  0  0
  1  5  1  0  0  0  0
  3  8  1  0  0  0  0
  3  9  1  0  0  0  0
  4  3  2  0  0  0  0
  5  6  2  0  0  0  0
  5  4  1  0  0  0  0
  6  7  1  0  0  0  0
  7 11  1  0  0  0  0
  7  8  2  0  0  0  0
 10  4  1  0  0  0  0
 11 15  1  0  0  0  0
 12 13  1  0  0  0  0
 12 11  2  0  0  0  0
 13 14  2  0  0  0  0
 14 15  1  0  0  0  0
 14 18  1  0  0  0  0
 16 12  1  0  0  0  0
 17 13  1  0  0  0  0
 18 19  1  0  0  0  0
 18 20  1  0  0  0  0
 19 20  1  0  0  0  0
 21 24  1  1  0  0  0
 22 23  1  0  0  0  0
 22 26  1  0  0  0  0
 22 21  1  0  0  0  0
 23 27  1  6  0  0  0
 23 28  1  0  0  0  0
 23 21  1  0  0  0  0
 25 22  1  0  0  0  0
 28 29  1  0  0  0  0
 29 30  2  0  0  0  0
 29 34  1  0  0  0  0
 30 35  1  0  0  0  0
 31 36  1  0  0  0  0
 31 30  1  0  0  0  0
 32 31  2  0  0  0  0
 33 32  1  0  0  0  0
 33 28  2  0  0  0  0
 37 32  1  0  0  0  0
 38 39  1  0  0  0  0
 38  1  1  0  0  0  0
M  END
>  <minimizedAffinity>
-5.52767181

$$$$
