
 OpenBabel03272510233D

 25 28  0  0  0  0  0  0  0  0999 V2000
   35.4820   29.9170   47.1250 C   0  0  0  0  0  0  0  0  0  0  0  0
   36.6620   30.3020   47.7340 C   0  0  0  0  0  0  0  0  0  0  0  0
   37.6710   30.8300   46.9750 C   0  0  0  0  0  0  0  0  0  0  0  0
   37.4660   30.9600   45.5990 C   0  0  0  0  0  0  0  0  0  0  0  0
   38.3340   31.4560   44.6750 N   0  0  0  0  0  0  0  0  0  0  0  0
   37.7020   31.3820   43.4980 C   0  0  0  0  0  0  0  0  0  0  0  0
   36.4770   30.8610   43.6510 N   0  0  0  0  0  0  0  0  0  0  0  0
   36.2970   30.5850   44.9580 C   0  0  0  0  0  0  0  0  0  0  0  0
   35.2920   30.0540   45.7490 C   0  0  0  0  0  0  0  0  0  0  0  0
   34.6300   29.4890   47.6540 H   0  0  0  0  0  0  0  0  0  0  0  0
   38.6030   31.1370   47.4300 H   0  0  0  0  0  0  0  0  0  0  0  0
   39.2890   31.8160   44.8540 H   0  0  0  0  0  0  0  0  0  0  0  0
   34.3720   29.7540   45.2710 H   0  0  0  0  0  0  0  0  0  0  0  0
   37.8340   30.2930   51.3060 C   0  0  0  0  0  0  0  0  0  0  0  0
   37.8480   30.5220   49.9240 C   0  0  0  0  0  0  0  0  0  0  0  0
   36.7630   30.1200   49.1710 C   0  0  0  0  0  0  0  0  0  0  0  0
   35.7170   29.5130   49.8050 N   0  0  0  0  0  0  0  0  0  0  0  0
   35.7190   29.2990   51.1480 C   0  0  0  0  0  0  0  0  0  0  0  0
   36.7730   29.6880   51.8880 N   0  0  0  0  0  0  0  0  0  0  0  0
   38.7080   30.6300   51.8330 H   0  0  0  0  0  0  0  0  0  0  0  0
   38.6750   30.9970   49.4400 H   0  0  0  0  0  0  0  0  0  0  0  0
   34.9010   28.8220   51.6620 H   0  0  0  0  0  0  0  0  0  0  0  0
   38.2800   31.8220   42.1800 C   0  0  0  0  0  3  0  0  0  0  0  0
   37.7040   33.1640   41.7240 C   0  0  0  0  0  2  0  0  0  0  0  0
   39.1710   32.9810   42.0810 C   0  0  0  0  0  2  0  0  0  0  0  0
  1 10  1  0  0  0  0
  1  2  1  0  0  0  0
  2 16  1  0  0  0  0
  3 11  1  0  0  0  0
  3  2  2  0  0  0  0
  4  3  1  0  0  0  0
  5 12  1  0  0  0  0
  5  4  1  0  0  0  0
  6  7  2  0  0  0  0
  6  5  1  0  0  0  0
  7  8  1  0  0  0  0
  8  4  2  0  0  0  0
  8  9  1  0  0  0  0
  9  1  2  0  0  0  0
 13  9  1  0  0  0  0
 14 20  1  0  0  0  0
 14 19  1  0  0  0  0
 15 14  2  0  0  0  0
 16 17  2  0  0  0  0
 16 15  1  0  0  0  0
 17 18  1  0  0  0  0
 18 22  1  0  0  0  0
 18 19  2  0  0  0  0
 21 15  1  0  0  0  0
 23  6  1  0  0  0  0
 24 25  1  0  0  0  0
 24 23  1  0  0  0  0
 25 23  1  0  0  0  0
M  END
>  <minimizedAffinity>
-4.75639009

>  <minimizedRMSD>
2.39404988

$$$$
