
 OpenBabel03272509213D

 40 44  0  0  0  0  0  0  0  0999 V2000
   38.1410   31.3640   47.8850 C   0  0  0  0  0  0  0  0  0  0  0  0
   37.2970   31.5810   48.9540 C   0  0  0  0  0  0  0  0  0  0  0  0
   37.5160   32.7870   49.6210 C   0  0  0  0  0  0  0  0  0  0  0  0
   38.5160   33.6890   49.2200 C   0  0  0  0  0  0  0  0  0  0  0  0
   39.3260   33.3690   48.1100 C   0  0  0  0  0  0  0  0  0  0  0  0
   39.1200   32.1670   47.4330 C   0  0  0  0  0  0  0  0  0  0  0  0
   36.9160   33.0680   50.4760 H   0  0  0  0  0  0  0  0  0  0  0  0
   38.6710   34.6200   49.7500 H   0  0  0  0  0  0  0  0  0  0  0  0
   40.0670   34.0840   47.8480 H   0  0  0  0  0  0  0  0  0  0  0  0
   35.1630   30.4510   48.5560 C   0  0  0  0  0  0  0  0  0  0  0  0
   36.2790   30.6640   49.3620 C   0  0  0  0  0  0  0  0  0  0  0  0
   36.3490   29.9490   50.5610 C   0  0  0  0  0  0  0  0  0  0  0  0
   35.3420   29.1000   50.8730 N   0  0  0  0  0  0  0  0  0  0  0  0
   34.2690   28.9260   50.0510 C   0  0  0  0  0  0  0  0  0  0  0  0
   34.1860   29.5980   48.9060 N   0  0  0  0  0  0  0  0  0  0  0  0
   35.0160   30.9640   47.5990 H   0  0  0  0  0  0  0  0  0  0  0  0
   33.5680   28.2060   50.4720 H   0  0  0  0  0  0  0  0  0  0  0  0
   37.5160   30.1330   51.4610 C   0  0  0  0  0  0  0  0  0  0  0  0
   38.4310   30.3880   50.9170 H   0  0  0  0  0  0  0  0  0  0  0  0
   37.6110   29.2960   52.1520 H   0  0  0  0  0  0  0  0  0  0  0  0
   37.2820   31.0430   52.0830 H   0  0  0  0  0  0  0  0  0  0  0  0
   38.0100   30.1800   47.1390 O   0  0  0  0  0  0  0  0  0  0  0  0
   38.5200   29.3670   47.4700 H   0  0  0  0  0  0  0  0  0  0  0  0
   39.9520   31.9280   46.3590 O   0  0  0  0  0  0  0  0  0  0  0  0
   40.0630   30.8470   44.1250 C   0  0  0  0  0  0  0  0  0  0  0  0
   39.5730   31.7260   45.0670 C   0  0  0  0  0  0  0  0  0  0  0  0
   38.5250   32.5720   44.7060 C   0  0  0  0  0  0  0  0  0  0  0  0
   37.9770   32.5300   43.4090 C   0  0  0  0  0  0  0  0  0  0  0  0
   37.0040   33.1820   42.7670 N   0  0  0  0  0  0  0  0  0  0  0  0
   36.8910   32.7430   41.5100 C   0  0  0  0  0  0  0  0  0  0  0  0
   37.8310   31.7720   41.3470 N   0  0  0  0  0  0  0  0  0  0  0  0
   38.5180   31.6230   42.5110 C   0  0  0  0  0  0  0  0  0  0  0  0
   39.5470   30.7880   42.8570 C   0  0  0  0  0  0  0  0  0  0  0  0
   40.8650   30.2350   44.4810 H   0  0  0  0  0  0  0  0  0  0  0  0
   38.0410   33.3040   45.3240 H   0  0  0  0  0  0  0  0  0  0  0  0
   36.4190   33.9290   43.1980 H   0  0  0  0  0  0  0  0  0  0  0  0
   36.1870   33.0940   40.7700 H   0  0  0  0  0  0  0  0  0  0  0  0
   40.1080   29.8240   41.8740 C   0  0  0  0  0  0  0  0  0  0  0  0
   41.5010   29.3190   42.1420 C   0  0  0  0  0  0  0  0  0  0  0  0
   40.3010   28.4000   42.1860 C   0  0  0  0  0  0  0  0  0  0  0  0
  1  2  1  0  0  0  0
  2 11  1  0  0  0  0
  2  3  2  0  0  0  0
  3  7  1  0  0  0  0
  4  3  1  0  0  0  0
  4  8  1  0  0  0  0
  5  4  2  0  0  0  0
  6  1  2  0  0  0  0
  6  5  1  0  0  0  0
  9  5  1  0  0  0  0
 10 15  2  0  0  0  0
 10 11  1  0  0  0  0
 11 12  2  0  0  0  0
 12 13  1  0  0  0  0
 12 18  1  0  0  0  0
 14 17  1  0  0  0  0
 14 13  2  0  0  0  0
 15 14  1  0  0  0  0
 16 10  1  0  0  0  0
 18 21  1  0  0  0  0
 18 20  1  0  0  0  0
 19 18  1  0  0  0  0
 22 23  1  0  0  0  0
 22  1  1  0  0  0  0
 24  6  1  0  0  0  0
 25 34  1  0  0  0  0
 25 26  1  0  0  0  0
 26 24  1  0  0  0  0
 27 26  2  0  0  0  0
 27 35  1  0  0  0  0
 28 27  1  0  0  0  0
 29 36  1  0  0  0  0
 29 28  1  0  0  0  0
 30 29  1  0  0  0  0
 31 30  2  0  0  0  0
 31 32  1  0  0  0  0
 32 33  1  0  0  0  0
 32 28  2  0  0  0  0
 33 25  2  0  0  0  0
 37 30  1  0  0  0  0
 38 39  1  0  0  0  0
 38 40  1  0  0  0  0
 38 33  1  0  0  0  0
 39 40  1  0  0  0  0
M  END
>  <minimizedAffinity>
-7.34576941

>  <minimizedRMSD>
0.811363637

$$$$
