
 OpenBabel03272505073D

 27 29  0  0  1  0  0  0  0  0999 V2000
   39.6530   27.0770   34.4260 C   0  0  0  0  0  0  0  0  0  0  0  0
   40.3080   25.9270   34.8850 C   0  0  0  0  0  0  0  0  0  0  0  0
   39.5020   24.8050   35.1160 C   0  0  0  0  0  0  0  0  0  0  0  0
   38.1580   24.8700   34.8930 N   0  0  0  0  0  0  0  0  0  0  0  0
   37.6010   26.0240   34.4480 C   0  0  0  0  0  0  0  0  0  0  0  0
   38.3410   27.1280   34.2130 N   0  0  0  0  0  0  0  0  0  0  0  0
   39.9520   23.5300   35.5830 N   0  0  0  0  0  0  0  0  0  0  0  0
   41.0780   22.8160   35.0570 C   0  0  0  0  0  0  0  0  0  0  0  0
   42.0290   22.2730   36.0600 C   0  0  0  0  0  0  0  0  0  0  0  0
   41.4010   21.6530   37.2630 C   0  0  0  0  0  0  0  0  0  0  0  0
   40.3330   22.5890   37.7890 C   0  0  0  0  0  0  0  0  0  0  0  0
   39.3530   22.7730   36.6420 C   0  0  1  0  0  0  0  0  0  0  0  0
   40.3110   27.9190   34.2600 H   0  0  0  0  0  0  0  0  0  0  0  0
   41.3450   25.7970   35.0820 H   0  0  0  0  0  0  0  0  0  0  0  0
   36.5290   26.0110   34.2900 H   0  0  0  0  0  0  0  0  0  0  0  0
   40.6500   21.9290   34.5000 H   0  0  0  0  0  0  0  0  0  0  0  0
   41.6440   23.3870   34.3140 H   0  0  0  0  0  0  0  0  0  0  0  0
   42.6610   23.1350   36.4090 H   0  0  0  0  0  0  0  0  0  0  0  0
   42.7280   21.6030   35.5370 H   0  0  0  0  0  0  0  0  0  0  0  0
   41.0590   20.6240   37.1340 H   0  0  0  0  0  0  0  0  0  0  0  0
   42.1990   21.6130   38.0500 H   0  0  0  0  0  0  0  0  0  0  0  0
   40.8120   23.5320   38.0840 H   0  0  0  0  0  0  0  0  0  0  0  0
   39.8270   22.0730   38.6220 H   0  0  0  0  0  0  0  0  0  0  0  0
   39.0140   21.7820   36.3130 H   0  0  0  0  0  0  0  0  0  0  0  0
   38.2000   23.5840   37.2310 C   0  0  0  0  0  3  0  0  0  0  0  0
   38.3810   24.1630   38.6110 C   0  0  0  0  0  2  0  0  0  0  0  0
   37.3750   23.0400   38.3100 C   0  0  0  0  0  2  0  0  0  0  0  0
  1  2  1  0  0  0  0
  2 14  1  0  0  0  0
  2  3  2  0  0  0  0
  3  7  1  0  0  0  0
  4  3  1  0  0  0  0
  5  4  2  0  0  0  0
  6  1  2  0  0  0  0
  6  5  1  0  0  0  0
  7 12  1  0  0  0  0
  8  7  1  0  0  0  0
  8  9  1  0  0  0  0
  9 18  1  0  0  0  0
  9 10  1  0  0  0  0
 10 11  1  0  0  0  0
 10 21  1  0  0  0  0
 11 22  1  0  0  0  0
 11 23  1  0  0  0  0
 12 24  1  6  0  0  0
 12 25  1  0  0  0  0
 12 11  1  0  0  0  0
 13  1  1  0  0  0  0
 15  5  1  0  0  0  0
 16  8  1  0  0  0  0
 17  8  1  0  0  0  0
 19  9  1  0  0  0  0
 20 10  1  0  0  0  0
 25 27  1  0  0  0  0
 25 26  1  0  0  0  0
 27 26  1  0  0  0  0
M  END
>  <minimizedAffinity>
-4.43791723

$$$$

 OpenBabel03272505073D

 27 29  0  0  1  0  0  0  0  0999 V2000
   31.0510   27.9840   36.5100 C   0  0  0  0  0  0  0  0  0  0  0  0
   31.9450   29.0420   36.7200 C   0  0  0  0  0  0  0  0  0  0  0  0
   32.4110   29.6970   35.5730 C   0  0  0  0  0  0  0  0  0  0  0  0
   31.9930   29.2960   34.3390 N   0  0  0  0  0  0  0  0  0  0  0  0
   31.1240   28.2610   34.2220 C   0  0  0  0  0  0  0  0  0  0  0  0
   30.6500   27.6030   35.3010 N   0  0  0  0  0  0  0  0  0  0  0  0
   33.3250   30.7970   35.5480 N   0  0  0  0  0  0  0  0  0  0  0  0
   33.2230   31.9660   36.3730 C   0  0  0  0  0  0  0  0  0  0  0  0
   34.4710   32.3890   37.0570 C   0  0  0  0  0  0  0  0  0  0  0  0
   35.7090   32.3140   36.2270 C   0  0  0  0  0  0  0  0  0  0  0  0
   35.7470   30.9680   35.5340 C   0  0  0  0  0  0  0  0  0  0  0  0
   34.4770   30.9040   34.7020 C   0  0  1  0  0  0  0  0  0  0  0  0
   30.7160   27.5070   37.4220 H   0  0  0  0  0  0  0  0  0  0  0  0
   32.3180   29.4120   37.6450 H   0  0  0  0  0  0  0  0  0  0  0  0
   30.8300   27.9920   33.2140 H   0  0  0  0  0  0  0  0  0  0  0  0
   32.9290   32.8090   35.6790 H   0  0  0  0  0  0  0  0  0  0  0  0
   32.4230   31.9010   37.1160 H   0  0  0  0  0  0  0  0  0  0  0  0
   34.6070   31.7040   37.9380 H   0  0  0  0  0  0  0  0  0  0  0  0
   34.2970   33.3830   37.4950 H   0  0  0  0  0  0  0  0  0  0  0  0
   35.8730   33.1590   35.5560 H   0  0  0  0  0  0  0  0  0  0  0  0
   36.5710   32.3220   36.9450 H   0  0  0  0  0  0  0  0  0  0  0  0
   35.7850   30.1830   36.3010 H   0  0  0  0  0  0  0  0  0  0  0  0
   36.6220   30.9700   34.8630 H   0  0  0  0  0  0  0  0  0  0  0  0
   34.4420   31.7870   34.0510 H   0  0  0  0  0  0  0  0  0  0  0  0
   34.6020   29.6190   33.8840 C   0  0  0  0  0  3  0  0  0  0  0  0
   35.8380   28.7790   34.0820 C   0  0  0  0  0  2  0  0  0  0  0  0
   35.5480   29.5280   32.7720 C   0  0  0  0  0  2  0  0  0  0  0  0
  1  2  1  0  0  0  0
  1 13  1  0  0  0  0
  2 14  1  0  0  0  0
  3  2  2  0  0  0  0
  4  3  1  0  0  0  0
  5  4  2  0  0  0  0
  5  6  1  0  0  0  0
  6  1  2  0  0  0  0
  7  3  1  0  0  0  0
  7  8  1  0  0  0  0
  8  9  1  0  0  0  0
  8 17  1  0  0  0  0
  9 19  1  0  0  0  0
  9 18  1  0  0  0  0
 10 21  1  0  0  0  0
 10  9  1  0  0  0  0
 11 10  1  0  0  0  0
 11 22  1  0  0  0  0
 12 24  1  6  0  0  0
 12 11  1  0  0  0  0
 12  7  1  0  0  0  0
 15  5  1  0  0  0  0
 16  8  1  0  0  0  0
 20 10  1  0  0  0  0
 23 11  1  0  0  0  0
 25 26  1  0  0  0  0
 25 12  1  0  0  0  0
 27 25  1  0  0  0  0
 27 26  1  0  0  0  0
M  END
>  <minimizedAffinity>
-4.37235069

$$$$

 OpenBabel03272505073D

 27 29  0  0  1  0  0  0  0  0999 V2000
   42.8260   24.7170   34.2980 C   0  0  0  0  0  0  0  0  0  0  0  0
   41.9430   24.3680   35.3280 C   0  0  0  0  0  0  0  0  0  0  0  0
   40.5860   24.3030   34.9860 C   0  0  0  0  0  0  0  0  0  0  0  0
   40.1890   24.5710   33.7090 N   0  0  0  0  0  0  0  0  0  0  0  0
   41.1090   24.9010   32.7690 C   0  0  0  0  0  0  0  0  0  0  0  0
   42.4260   24.9760   33.0560 N   0  0  0  0  0  0  0  0  0  0  0  0
   39.5130   23.9700   35.8710 N   0  0  0  0  0  0  0  0  0  0  0  0
   39.5090   22.8510   36.7680 C   0  0  0  0  0  0  0  0  0  0  0  0
   39.0890   23.1390   38.1630 C   0  0  0  0  0  0  0  0  0  0  0  0
   37.9200   24.0560   38.3000 C   0  0  0  0  0  0  0  0  0  0  0  0
   38.1390   25.2570   37.4030 C   0  0  0  0  0  0  0  0  0  0  0  0
   38.2840   24.6950   35.9990 C   0  0  1  0  0  0  0  0  0  0  0  0
   43.8630   24.7550   34.6040 H   0  0  0  0  0  0  0  0  0  0  0  0
   42.1740   24.1460   36.3430 H   0  0  0  0  0  0  0  0  0  0  0  0
   40.7290   25.1020   31.7740 H   0  0  0  0  0  0  0  0  0  0  0  0
   38.7580   22.1180   36.3460 H   0  0  0  0  0  0  0  0  0  0  0  0
   40.4620   22.3150   36.7950 H   0  0  0  0  0  0  0  0  0  0  0  0
   39.9670   23.6230   38.6730 H   0  0  0  0  0  0  0  0  0  0  0  0
   38.9540   22.1790   38.6820 H   0  0  0  0  0  0  0  0  0  0  0  0
   36.9420   23.5880   38.1770 H   0  0  0  0  0  0  0  0  0  0  0  0
   37.9430   24.4420   39.3530 H   0  0  0  0  0  0  0  0  0  0  0  0
   39.0430   25.7820   37.7390 H   0  0  0  0  0  0  0  0  0  0  0  0
   37.2270   25.8750   37.4560 H   0  0  0  0  0  0  0  0  0  0  0  0
   37.4040   24.0760   35.7800 H   0  0  0  0  0  0  0  0  0  0  0  0
   38.3410   25.9180   35.0850 C   0  0  0  0  0  3  0  0  0  0  0  0
   38.5280   27.2680   35.7300 C   0  0  0  0  0  2  0  0  0  0  0  0
   37.2240   26.8610   35.0240 C   0  0  0  0  0  2  0  0  0  0  0  0
  1 13  1  0  0  0  0
  1  2  1  0  0  0  0
  2 14  1  0  0  0  0
  3  2  2  0  0  0  0
  3  7  1  0  0  0  0
  4  3  1  0  0  0  0
  5  6  1  0  0  0  0
  5  4  2  0  0  0  0
  6  1  2  0  0  0  0
  7 12  1  0  0  0  0
  7  8  1  0  0  0  0
  8 17  1  0  0  0  0
  8  9  1  0  0  0  0
  9 10  1  0  0  0  0
  9 18  1  0  0  0  0
  9 19  1  0  0  0  0
 10 21  1  0  0  0  0
 11 23  1  0  0  0  0
 11 22  1  0  0  0  0
 11 10  1  0  0  0  0
 12 24  1  6  0  0  0
 12 11  1  0  0  0  0
 15  5  1  0  0  0  0
 16  8  1  0  0  0  0
 20 10  1  0  0  0  0
 25 26  1  0  0  0  0
 25 12  1  0  0  0  0
 27 25  1  0  0  0  0
 27 26  1  0  0  0  0
M  END
>  <minimizedAffinity>
-4.33447886

$$$$

 OpenBabel03272505073D

 27 29  0  0  1  0  0  0  0  0999 V2000
   37.8670   22.1990   35.6850 C   0  0  0  0  0  0  0  0  0  0  0  0
   38.7960   23.0450   35.0650 C   0  0  0  0  0  0  0  0  0  0  0  0
   39.0240   24.2790   35.6880 C   0  0  0  0  0  0  0  0  0  0  0  0
   38.3570   24.6000   36.8340 N   0  0  0  0  0  0  0  0  0  0  0  0
   37.4720   23.7230   37.3700 C   0  0  0  0  0  0  0  0  0  0  0  0
   37.2230   22.5240   36.8020 N   0  0  0  0  0  0  0  0  0  0  0  0
   39.9240   25.2940   35.2350 N   0  0  0  0  0  0  0  0  0  0  0  0
   41.2790   25.0650   34.8290 C   0  0  0  0  0  0  0  0  0  0  0  0
   41.6890   25.6960   33.5480 C   0  0  0  0  0  0  0  0  0  0  0  0
   41.2000   27.0900   33.3410 C   0  0  0  0  0  0  0  0  0  0  0  0
   39.7230   27.1400   33.6710 C   0  0  0  0  0  0  0  0  0  0  0  0
   39.6150   26.6880   35.1180 C   0  0  1  0  0  0  0  0  0  0  0  0
   37.7220   21.2580   35.1720 H   0  0  0  0  0  0  0  0  0  0  0  0
   39.3530   22.8680   34.1760 H   0  0  0  0  0  0  0  0  0  0  0  0
   36.9760   24.0380   38.2810 H   0  0  0  0  0  0  0  0  0  0  0  0
   41.9260   25.5190   35.6370 H   0  0  0  0  0  0  0  0  0  0  0  0
   41.5470   24.0040   34.7950 H   0  0  0  0  0  0  0  0  0  0  0  0
   41.2680   25.0580   32.7230 H   0  0  0  0  0  0  0  0  0  0  0  0
   42.7800   25.5970   33.4550 H   0  0  0  0  0  0  0  0  0  0  0  0
   41.7870   27.8690   33.8310 H   0  0  0  0  0  0  0  0  0  0  0  0
   41.2830   27.2930   32.2400 H   0  0  0  0  0  0  0  0  0  0  0  0
   39.1900   26.4710   32.9830 H   0  0  0  0  0  0  0  0  0  0  0  0
   39.4050   28.1940   33.5940 H   0  0  0  0  0  0  0  0  0  0  0  0
   40.2730   27.3190   35.7290 H   0  0  0  0  0  0  0  0  0  0  0  0
   38.1480   26.8960   35.4910 C   0  0  0  0  0  3  0  0  0  0  0  0
   37.1470   27.0120   34.3680 C   0  0  0  0  0  2  0  0  0  0  0  0
   37.4990   28.1920   35.2880 C   0  0  0  0  0  2  0  0  0  0  0  0
  1  6  1  0  0  0  0
  2  1  2  0  0  0  0
  2  3  1  0  0  0  0
  3  4  2  0  0  0  0
  4  5  1  0  0  0  0
  5 15  1  0  0  0  0
  6  5  2  0  0  0  0
  7  3  1  0  0  0  0
  8  7  1  0  0  0  0
  8 16  1  0  0  0  0
  9  8  1  0  0  0  0
 10  9  1  0  0  0  0
 10 11  1  0  0  0  0
 10 20  1  0  0  0  0
 11 12  1  0  0  0  0
 12  7  1  0  0  0  0
 12 25  1  0  0  0  0
 12 24  1  1  0  0  0
 13  1  1  0  0  0  0
 14  2  1  0  0  0  0
 17  8  1  0  0  0  0
 18  9  1  0  0  0  0
 19  9  1  0  0  0  0
 21 10  1  0  0  0  0
 22 11  1  0  0  0  0
 23 11  1  0  0  0  0
 26 27  1  0  0  0  0
 26 25  1  0  0  0  0
 27 25  1  0  0  0  0
M  END
>  <minimizedAffinity>
-4.27902126

$$$$

 OpenBabel03272505073D

 27 29  0  0  1  0  0  0  0  0999 V2000
   35.9590   23.5170   31.2120 C   0  0  0  0  0  0  0  0  0  0  0  0
   35.6470   24.8320   31.5820 C   0  0  0  0  0  0  0  0  0  0  0  0
   36.7330   25.6740   31.8550 C   0  0  0  0  0  0  0  0  0  0  0  0
   38.0080   25.2000   31.7540 N   0  0  0  0  0  0  0  0  0  0  0  0
   38.2240   23.9120   31.3880 C   0  0  0  0  0  0  0  0  0  0  0  0
   37.2070   23.0670   31.1160 N   0  0  0  0  0  0  0  0  0  0  0  0
   36.6530   27.0460   32.2500 N   0  0  0  0  0  0  0  0  0  0  0  0
   35.8370   28.0360   31.6080 C   0  0  0  0  0  0  0  0  0  0  0  0
   35.0190   28.8870   32.5100 C   0  0  0  0  0  0  0  0  0  0  0  0
   35.7110   29.3510   33.7480 C   0  0  0  0  0  0  0  0  0  0  0  0
   36.4040   28.1670   34.3890 C   0  0  0  0  0  0  0  0  0  0  0  0
   37.3680   27.6430   33.3380 C   0  0  1  0  0  0  0  0  0  0  0  0
   35.0920   22.9030   31.0100 H   0  0  0  0  0  0  0  0  0  0  0  0
   34.6850   25.2740   31.6840 H   0  0  0  0  0  0  0  0  0  0  0  0
   39.2600   23.5970   31.3260 H   0  0  0  0  0  0  0  0  0  0  0  0
   36.5530   28.7260   31.0700 H   0  0  0  0  0  0  0  0  0  0  0  0
   35.1850   27.6220   30.8330 H   0  0  0  0  0  0  0  0  0  0  0  0
   34.1330   28.2700   32.8230 H   0  0  0  0  0  0  0  0  0  0  0  0
   34.5970   29.7070   31.9110 H   0  0  0  0  0  0  0  0  0  0  0  0
   36.3550   30.2240   33.6240 H   0  0  0  0  0  0  0  0  0  0  0  0
   34.9040   29.6660   34.4610 H   0  0  0  0  0  0  0  0  0  0  0  0
   35.6420   27.4250   34.6640 H   0  0  0  0  0  0  0  0  0  0  0  0
   36.9770   28.5500   35.2500 H   0  0  0  0  0  0  0  0  0  0  0  0
   38.0140   28.4700   33.0150 H   0  0  0  0  0  0  0  0  0  0  0  0
   38.1760   26.5560   34.0460 C   0  0  0  0  0  3  0  0  0  0  0  0
   37.7780   26.1900   35.4540 C   0  0  0  0  0  2  0  0  0  0  0  0
   39.1040   26.8940   35.1250 C   0  0  0  0  0  2  0  0  0  0  0  0
  1  2  1  0  0  0  0
  2 14  1  0  0  0  0
  2  3  2  0  0  0  0
  3  7  1  0  0  0  0
  4  3  1  0  0  0  0
  5  4  2  0  0  0  0
  6  1  2  0  0  0  0
  6  5  1  0  0  0  0
  7 12  1  0  0  0  0
  8  7  1  0  0  0  0
  8  9  1  0  0  0  0
  9 18  1  0  0  0  0
  9 10  1  0  0  0  0
 10 11  1  0  0  0  0
 10 21  1  0  0  0  0
 11 22  1  0  0  0  0
 11 23  1  0  0  0  0
 12 24  1  6  0  0  0
 12 25  1  0  0  0  0
 12 11  1  0  0  0  0
 13  1  1  0  0  0  0
 15  5  1  0  0  0  0
 16  8  1  0  0  0  0
 17  8  1  0  0  0  0
 19  9  1  0  0  0  0
 20 10  1  0  0  0  0
 25 27  1  0  0  0  0
 25 26  1  0  0  0  0
 27 26  1  0  0  0  0
M  END
>  <minimizedAffinity>
-4.22654438

$$$$

 OpenBabel03272505073D

 27 29  0  0  1  0  0  0  0  0999 V2000
   36.8020   22.3890   32.0290 C   0  0  0  0  0  0  0  0  0  0  0  0
   37.1550   23.6240   32.5880 C   0  0  0  0  0  0  0  0  0  0  0  0
   38.2330   23.6150   33.4820 C   0  0  0  0  0  0  0  0  0  0  0  0
   38.8770   22.4460   33.7660 N   0  0  0  0  0  0  0  0  0  0  0  0
   38.4720   21.2910   33.1810 C   0  0  0  0  0  0  0  0  0  0  0  0
   37.4380   21.2560   32.3140 N   0  0  0  0  0  0  0  0  0  0  0  0
   38.7640   24.7520   34.1690 N   0  0  0  0  0  0  0  0  0  0  0  0
   39.0750   26.0080   33.5520 C   0  0  0  0  0  0  0  0  0  0  0  0
   38.5730   27.2170   34.2530 C   0  0  0  0  0  0  0  0  0  0  0  0
   38.7130   27.1970   35.7380 C   0  0  0  0  0  0  0  0  0  0  0  0
   38.2100   25.8640   36.2540 C   0  0  0  0  0  0  0  0  0  0  0  0
   39.0670   24.8130   35.5670 C   0  0  1  0  0  0  0  0  0  0  0  0
   35.9660   22.4410   31.3450 H   0  0  0  0  0  0  0  0  0  0  0  0
   36.7060   24.5730   32.4190 H   0  0  0  0  0  0  0  0  0  0  0  0
   39.0240   20.3980   33.4480 H   0  0  0  0  0  0  0  0  0  0  0  0
   40.2040   26.0800   33.5470 H   0  0  0  0  0  0  0  0  0  0  0  0
   38.7700   26.0630   32.5030 H   0  0  0  0  0  0  0  0  0  0  0  0
   37.4770   27.3010   34.0130 H   0  0  0  0  0  0  0  0  0  0  0  0
   39.0330   28.0980   33.7830 H   0  0  0  0  0  0  0  0  0  0  0  0
   39.6990   27.4720   36.1190 H   0  0  0  0  0  0  0  0  0  0  0  0
   38.0060   27.9730   36.1330 H   0  0  0  0  0  0  0  0  0  0  0  0
   37.1470   25.7700   35.9960 H   0  0  0  0  0  0  0  0  0  0  0  0
   38.4030   25.8390   37.3400 H   0  0  0  0  0  0  0  0  0  0  0  0
   40.1220   25.0440   35.7610 H   0  0  0  0  0  0  0  0  0  0  0  0
   38.6640   23.4880   36.2130 C   0  0  0  0  0  3  0  0  0  0  0  0
   37.6750   23.5340   37.3510 C   0  0  0  0  0  2  0  0  0  0  0  0
   39.1450   23.1270   37.5470 C   0  0  0  0  0  2  0  0  0  0  0  0
  1  6  2  0  0  0  0
  1  2  1  0  0  0  0
  2  3  2  0  0  0  0
  3  4  1  0  0  0  0
  3  7  1  0  0  0  0
  5 15  1  0  0  0  0
  5  4  2  0  0  0  0
  6  5  1  0  0  0  0
  7 12  1  0  0  0  0
  8  7  1  0  0  0  0
  8  9  1  0  0  0  0
  9 10  1  0  0  0  0
 10 20  1  0  0  0  0
 10 21  1  0  0  0  0
 10 11  1  0  0  0  0
 11 23  1  0  0  0  0
 12 24  1  1  0  0  0
 12 25  1  0  0  0  0
 12 11  1  0  0  0  0
 13  1  1  0  0  0  0
 14  2  1  0  0  0  0
 16  8  1  0  0  0  0
 17  8  1  0  0  0  0
 18  9  1  0  0  0  0
 19  9  1  0  0  0  0
 22 11  1  0  0  0  0
 25 26  1  0  0  0  0
 25 27  1  0  0  0  0
 26 27  1  0  0  0  0
M  END
>  <minimizedAffinity>
-4.16791534

$$$$

 OpenBabel03272505073D

 27 29  0  0  1  0  0  0  0  0999 V2000
   36.3500   29.3710   30.6030 C   0  0  0  0  0  0  0  0  0  0  0  0
   36.6390   28.0160   30.8100 C   0  0  0  0  0  0  0  0  0  0  0  0
   36.4920   27.5440   32.1210 C   0  0  0  0  0  0  0  0  0  0  0  0
   36.0870   28.3900   33.1110 N   0  0  0  0  0  0  0  0  0  0  0  0
   35.8270   29.6910   32.8260 C   0  0  0  0  0  0  0  0  0  0  0  0
   35.9560   30.1860   31.5770 N   0  0  0  0  0  0  0  0  0  0  0  0
   36.7310   26.2050   32.5630 N   0  0  0  0  0  0  0  0  0  0  0  0
   36.2390   25.0280   31.9100 C   0  0  0  0  0  0  0  0  0  0  0  0
   37.2310   23.9450   31.6880 C   0  0  0  0  0  0  0  0  0  0  0  0
   38.1580   23.6870   32.8280 C   0  0  0  0  0  0  0  0  0  0  0  0
   38.7080   25.0120   33.3140 C   0  0  0  0  0  0  0  0  0  0  0  0
   37.4940   25.8330   33.7170 C   0  0  1  0  0  0  0  0  0  0  0  0
   36.4760   29.6930   29.5780 H   0  0  0  0  0  0  0  0  0  0  0  0
   36.9590   27.2960   30.0950 H   0  0  0  0  0  0  0  0  0  0  0  0
   35.5090   30.3110   33.6560 H   0  0  0  0  0  0  0  0  0  0  0  0
   35.4420   24.6050   32.5920 H   0  0  0  0  0  0  0  0  0  0  0  0
   35.7350   25.2370   30.9610 H   0  0  0  0  0  0  0  0  0  0  0  0
   37.8530   24.2510   30.8020 H   0  0  0  0  0  0  0  0  0  0  0  0
   36.6870   23.0490   31.3560 H   0  0  0  0  0  0  0  0  0  0  0  0
   37.7560   23.0590   33.6250 H   0  0  0  0  0  0  0  0  0  0  0  0
   39.0300   23.1220   32.4040 H   0  0  0  0  0  0  0  0  0  0  0  0
   39.2730   25.4760   32.4950 H   0  0  0  0  0  0  0  0  0  0  0  0
   39.3200   24.8050   34.2080 H   0  0  0  0  0  0  0  0  0  0  0  0
   36.9070   25.2530   34.4410 H   0  0  0  0  0  0  0  0  0  0  0  0
   38.0640   27.0990   34.3550 C   0  0  0  0  0  3  0  0  0  0  0  0
   39.4910   27.0600   34.8390 C   0  0  0  0  0  2  0  0  0  0  0  0
   38.2950   27.1730   35.7980 C   0  0  0  0  0  2  0  0  0  0  0  0
  1  2  2  0  0  0  0
  1  6  1  0  0  0  0
  2  3  1  0  0  0  0
  3  7  1  0  0  0  0
  3  4  2  0  0  0  0
  5  4  1  0  0  0  0
  5 15  1  0  0  0  0
  6  5  2  0  0  0  0
  7 12  1  0  0  0  0
  8  7  1  0  0  0  0
  8 16  1  0  0  0  0
  9  8  1  0  0  0  0
  9 10  1  0  0  0  0
 10 11  1  0  0  0  0
 10 20  1  0  0  0  0
 11 12  1  0  0  0  0
 11 23  1  0  0  0  0
 12 25  1  0  0  0  0
 12 24  1  1  0  0  0
 13  1  1  0  0  0  0
 14  2  1  0  0  0  0
 17  8  1  0  0  0  0
 18  9  1  0  0  0  0
 19  9  1  0  0  0  0
 21 10  1  0  0  0  0
 22 11  1  0  0  0  0
 25 26  1  0  0  0  0
 25 27  1  0  0  0  0
 26 27  1  0  0  0  0
M  END
>  <minimizedAffinity>
-4.15766239

$$$$

 OpenBabel03272505073D

 27 29  0  0  1  0  0  0  0  0999 V2000
   38.8940   25.9660   35.5800 C   0  0  0  0  0  0  0  0  0  0  0  0
   37.9630   25.5080   34.6390 C   0  0  0  0  0  0  0  0  0  0  0  0
   38.1840   25.8910   33.3100 C   0  0  0  0  0  0  0  0  0  0  0  0
   39.2590   26.6680   32.9920 N   0  0  0  0  0  0  0  0  0  0  0  0
   40.1150   27.0710   33.9650 C   0  0  0  0  0  0  0  0  0  0  0  0
   39.9380   26.7240   35.2580 N   0  0  0  0  0  0  0  0  0  0  0  0
   37.3680   25.5420   32.1890 N   0  0  0  0  0  0  0  0  0  0  0  0
   36.8970   24.2190   31.9000 C   0  0  0  0  0  0  0  0  0  0  0  0
   35.4530   24.1020   31.5700 C   0  0  0  0  0  0  0  0  0  0  0  0
   34.9160   25.1670   30.6750 C   0  0  0  0  0  0  0  0  0  0  0  0
   35.3800   26.5130   31.1920 C   0  0  0  0  0  0  0  0  0  0  0  0
   36.8980   26.4510   31.1860 C   0  0  1  0  0  0  0  0  0  0  0  0
   38.6860   25.6470   36.5930 H   0  0  0  0  0  0  0  0  0  0  0  0
   37.1050   24.9020   34.8070 H   0  0  0  0  0  0  0  0  0  0  0  0
   40.9480   27.6860   33.6480 H   0  0  0  0  0  0  0  0  0  0  0  0
   37.4690   23.8790   30.9860 H   0  0  0  0  0  0  0  0  0  0  0  0
   37.1340   23.4940   32.6840 H   0  0  0  0  0  0  0  0  0  0  0  0
   34.8920   24.1560   32.5430 H   0  0  0  0  0  0  0  0  0  0  0  0
   35.2730   23.0840   31.1950 H   0  0  0  0  0  0  0  0  0  0  0  0
   35.1000   25.0190   29.6090 H   0  0  0  0  0  0  0  0  0  0  0  0
   33.8010   25.1500   30.7970 H   0  0  0  0  0  0  0  0  0  0  0  0
   34.9710   26.6580   32.2010 H   0  0  0  0  0  0  0  0  0  0  0  0
   35.0430   27.2750   30.4690 H   0  0  0  0  0  0  0  0  0  0  0  0
   37.2300   26.1750   30.1770 H   0  0  0  0  0  0  0  0  0  0  0  0
   37.3550   27.8620   31.5530 C   0  0  0  0  0  3  0  0  0  0  0  0
   36.3230   28.8150   32.1010 C   0  0  0  0  0  2  0  0  0  0  0  0
   36.9830   29.0090   30.7260 C   0  0  0  0  0  2  0  0  0  0  0  0
  1 13  1  0  0  0  0
  2 14  1  0  0  0  0
  2  1  2  0  0  0  0
  3  2  1  0  0  0  0
  4  3  2  0  0  0  0
  4  5  1  0  0  0  0
  5  6  2  0  0  0  0
  6  1  1  0  0  0  0
  7  3  1  0  0  0  0
  8  7  1  0  0  0  0
  8 17  1  0  0  0  0
  9  8  1  0  0  0  0
  9 18  1  0  0  0  0
 10 21  1  0  0  0  0
 10 11  1  0  0  0  0
 10  9  1  0  0  0  0
 11 22  1  0  0  0  0
 12 24  1  6  0  0  0
 12 11  1  0  0  0  0
 12 25  1  0  0  0  0
 12  7  1  0  0  0  0
 15  5  1  0  0  0  0
 16  8  1  0  0  0  0
 19  9  1  0  0  0  0
 20 10  1  0  0  0  0
 23 11  1  0  0  0  0
 25 26  1  0  0  0  0
 27 25  1  0  0  0  0
 27 26  1  0  0  0  0
M  END
>  <minimizedAffinity>
-4.05826855

$$$$

 OpenBabel03272505073D

 27 29  0  0  1  0  0  0  0  0999 V2000
   36.5400   22.7130   31.6830 C   0  0  0  0  0  0  0  0  0  0  0  0
   37.4210   23.4290   32.5040 C   0  0  0  0  0  0  0  0  0  0  0  0
   37.1950   24.8070   32.6030 C   0  0  0  0  0  0  0  0  0  0  0  0
   36.1630   25.3820   31.9210 N   0  0  0  0  0  0  0  0  0  0  0  0
   35.3550   24.6160   31.1450 C   0  0  0  0  0  0  0  0  0  0  0  0
   35.5370   23.2850   31.0220 N   0  0  0  0  0  0  0  0  0  0  0  0
   37.9630   25.7310   33.3790 N   0  0  0  0  0  0  0  0  0  0  0  0
   38.3470   25.5300   34.7460 C   0  0  0  0  0  0  0  0  0  0  0  0
   39.7730   25.7960   35.0650 C   0  0  0  0  0  0  0  0  0  0  0  0
   40.3540   27.0100   34.4230 C   0  0  0  0  0  0  0  0  0  0  0  0
   39.9860   27.0050   32.9540 C   0  0  0  0  0  0  0  0  0  0  0  0
   38.4670   26.9900   32.9160 C   0  0  1  0  0  0  0  0  0  0  0  0
   36.7500   21.6530   31.6360 H   0  0  0  0  0  0  0  0  0  0  0  0
   38.2440   23.0560   33.0650 H   0  0  0  0  0  0  0  0  0  0  0  0
   34.5530   25.1330   30.6290 H   0  0  0  0  0  0  0  0  0  0  0  0
   37.7350   26.2660   35.3500 H   0  0  0  0  0  0  0  0  0  0  0  0
   38.0830   24.5400   35.1290 H   0  0  0  0  0  0  0  0  0  0  0  0
   40.3570   24.9040   34.7070 H   0  0  0  0  0  0  0  0  0  0  0  0
   39.8830   25.7850   36.1600 H   0  0  0  0  0  0  0  0  0  0  0  0
   40.1390   27.9540   34.9270 H   0  0  0  0  0  0  0  0  0  0  0  0
   41.4690   26.8880   34.4680 H   0  0  0  0  0  0  0  0  0  0  0  0
   40.4240   26.1120   32.4890 H   0  0  0  0  0  0  0  0  0  0  0  0
   40.3520   27.9510   32.5210 H   0  0  0  0  0  0  0  0  0  0  0  0
   38.0960   27.8360   33.5090 H   0  0  0  0  0  0  0  0  0  0  0  0
   38.1040   27.1480   31.4400 C   0  0  0  0  0  3  0  0  0  0  0  0
   39.1150   27.8070   30.5360 C   0  0  0  0  0  2  0  0  0  0  0  0
   37.7680   28.4610   30.8880 C   0  0  0  0  0  2  0  0  0  0  0  0
  1  2  1  0  0  0  0
  2  3  2  0  0  0  0
  2 14  1  0  0  0  0
  3  7  1  0  0  0  0
  4  3  1  0  0  0  0
  5  4  2  0  0  0  0
  6  5  1  0  0  0  0
  6  1  2  0  0  0  0
  7  8  1  0  0  0  0
  8  9  1  0  0  0  0
  8 17  1  0  0  0  0
  8 16  1  0  0  0  0
  9 19  1  0  0  0  0
 10 21  1  0  0  0  0
 10 20  1  0  0  0  0
 10  9  1  0  0  0  0
 11 10  1  0  0  0  0
 12 11  1  0  0  0  0
 12  7  1  0  0  0  0
 12 24  1  1  0  0  0
 13  1  1  0  0  0  0
 15  5  1  0  0  0  0
 18  9  1  0  0  0  0
 22 11  1  0  0  0  0
 23 11  1  0  0  0  0
 25 12  1  0  0  0  0
 26 27  1  0  0  0  0
 26 25  1  0  0  0  0
 27 25  1  0  0  0  0
M  END
>  <minimizedAffinity>
-4.01019144

$$$$
