
 OpenBabel03272510273D

 39 43  0  0  1  0  0  0  0  0999 V2000
   36.1410   30.2190   46.8730 C   0  0  0  0  0  0  0  0  0  0  0  0
   37.0450   30.7490   47.7910 C   0  0  0  0  0  0  0  0  0  0  0  0
   38.0580   31.6150   47.3850 C   0  0  0  0  0  0  0  0  0  0  0  0
   38.1150   31.9180   46.0280 C   0  0  0  0  0  0  0  0  0  0  0  0
   39.0010   32.7350   45.3890 N   0  0  0  0  0  0  0  0  0  0  0  0
   38.6630   32.7220   44.0900 C   0  0  0  0  0  0  0  0  0  0  0  0
   37.6180   31.9380   43.9110 N   0  0  0  0  0  0  0  0  0  0  0  0
   37.2400   31.4160   45.0890 C   0  0  0  0  0  0  0  0  0  0  0  0
   36.2320   30.5470   45.5300 C   0  0  0  0  0  0  0  0  0  0  0  0
   35.3480   29.5500   47.1410 H   0  0  0  0  0  0  0  0  0  0  0  0
   38.7470   32.0160   48.0990 H   0  0  0  0  0  0  0  0  0  0  0  0
   39.7740   33.2540   45.8300 H   0  0  0  0  0  0  0  0  0  0  0  0
   35.5430   30.1490   44.7980 H   0  0  0  0  0  0  0  0  0  0  0  0
   37.5480   30.1910   51.4720 C   0  0  0  0  0  0  0  0  0  0  0  0
   37.8160   30.6150   50.1800 C   0  0  0  0  0  0  0  0  0  0  0  0
   36.8870   30.3610   49.1770 C   0  0  0  0  0  0  0  0  0  0  0  0
   35.7490   29.6980   49.5350 N   0  0  0  0  0  0  0  0  0  0  0  0
   35.4970   29.2900   50.7920 C   0  0  0  0  0  0  0  0  0  0  0  0
   36.3770   29.5320   51.7380 N   0  0  0  0  0  0  0  0  0  0  0  0
   38.2620   30.3830   52.2630 H   0  0  0  0  0  0  0  0  0  0  0  0
   38.7240   31.1420   49.9050 H   0  0  0  0  0  0  0  0  0  0  0  0
   34.5670   28.7610   51.0240 H   0  0  0  0  0  0  0  0  0  0  0  0
   39.3640   33.4560   43.1320 O   0  0  0  0  0  0  0  0  0  0  0  0
   38.9760   31.5820   41.8630 N   0  0  0  0  0  0  0  0  0  0  0  0
   39.2330   32.9960   41.7960 C   0  0  1  0  0  0  0  0  0  0  0  0
   38.1510   33.6870   41.1070 C   0  0  0  0  0  0  0  0  0  0  0  0
   38.0900   33.2150   39.7850 O   0  0  0  0  0  0  0  0  0  0  0  0
   37.9640   31.8630   39.6510 C   0  0  0  0  0  0  0  0  0  0  0  0
   38.9470   31.0990   40.5130 C   0  0  1  0  0  0  0  0  0  0  0  0
   38.3220   31.2100   42.5050 H   0  0  0  0  0  0  0  0  0  0  0  0
   40.1880   33.1470   41.2710 H   0  0  0  0  0  0  0  0  0  0  0  0
   37.1390   33.6940   41.4130 H   0  0  0  0  0  0  0  0  0  0  0  0
   38.4590   34.7690   40.9820 H   0  0  0  0  0  0  0  0  0  0  0  0
   38.2220   31.6070   38.6080 H   0  0  0  0  0  0  0  0  0  0  0  0
   36.9190   31.5680   39.9230 H   0  0  0  0  0  0  0  0  0  0  0  0
   38.6240   30.0450   40.5330 H   0  0  0  0  0  0  0  0  0  0  0  0
   40.3100   31.1550   39.8650 C   0  0  0  0  0  3  0  0  0  0  0  0
   41.4010   30.2880   40.4020 C   0  0  0  0  0  2  0  0  0  0  0  0
   40.7700   29.9240   39.1070 C   0  0  0  0  0  2  0  0  0  0  0  0
  1 10  1  0  0  0  0
  1  2  1  0  0  0  0
  2 16  1  0  0  0  0
  3  2  2  0  0  0  0
  3 11  1  0  0  0  0
  4  3  1  0  0  0  0
  5 12  1  0  0  0  0
  5  4  1  0  0  0  0
  6  5  1  0  0  0  0
  7  6  2  0  0  0  0
  7  8  1  0  0  0  0
  8  9  1  0  0  0  0
  8  4  2  0  0  0  0
  9  1  2  0  0  0  0
 13  9  1  0  0  0  0
 14 19  1  0  0  0  0
 14 20  1  0  0  0  0
 15 14  2  0  0  0  0
 16 17  2  0  0  0  0
 16 15  1  0  0  0  0
 17 18  1  0  0  0  0
 18 22  1  0  0  0  0
 18 19  2  0  0  0  0
 21 15  1  0  0  0  0
 23  6  1  0  0  0  0
 24 30  1  0  0  0  0
 25 31  1  6  0  0  0
 25 24  1  0  0  0  0
 25 23  1  0  0  0  0
 26 32  1  0  0  0  0
 26 25  1  0  0  0  0
 27 26  1  0  0  0  0
 28 27  1  0  0  0  0
 28 35  1  0  0  0  0
 28 29  1  0  0  0  0
 29 36  1  1  0  0  0
 29 24  1  0  0  0  0
 33 26  1  0  0  0  0
 34 28  1  0  0  0  0
 37 38  1  0  0  0  0
 37 29  1  0  0  0  0
 39 37  1  0  0  0  0
 39 38  1  0  0  0  0
M  END
>  <minimizedAffinity>
-5.5845685

>  <minimizedRMSD>
0.758361757

$$$$
