
 OpenBabel03272509053D

 27 29  0  0  0  0  0  0  0  0999 V2000
   33.2560   27.3430   48.1470 C   0  0  0  0  0  0  0  0  0  0  0  0
   32.5300   28.0450   47.6600 H   0  0  0  0  0  0  0  0  0  0  0  0
   32.7900   26.8680   49.0260 H   0  0  0  0  0  0  0  0  0  0  0  0
   33.6830   26.3480   47.1110 C   0  0  0  0  0  0  0  0  0  0  0  0
   33.9410   25.0210   47.3320 C   0  0  0  0  0  0  0  0  0  0  0  0
   34.3280   24.2030   46.2970 C   0  0  0  0  0  0  0  0  0  0  0  0
   34.4710   24.6850   45.0030 C   0  0  0  0  0  0  0  0  0  0  0  0
   34.2160   26.0080   44.7740 C   0  0  0  0  0  0  0  0  0  0  0  0
   33.8280   26.8360   45.8010 C   0  0  0  0  0  0  0  0  0  0  0  0
   33.8030   24.7370   48.3670 H   0  0  0  0  0  0  0  0  0  0  0  0
   34.5050   23.1670   46.5920 H   0  0  0  0  0  0  0  0  0  0  0  0
   34.7790   23.9370   44.2930 H   0  0  0  0  0  0  0  0  0  0  0  0
   34.3360   26.3580   43.7500 H   0  0  0  0  0  0  0  0  0  0  0  0
   33.6500   27.8780   45.5020 H   0  0  0  0  0  0  0  0  0  0  0  0
   34.5820   28.5980   49.8350 C   0  0  0  0  0  3  0  0  0  0  0  0
   34.3690   28.1700   48.6220 C   0  0  0  0  0  3  0  0  0  0  0  0
   37.4780   30.1680   51.4500 C   0  0  0  0  0  0  0  0  0  0  0  0
   37.9440   30.9950   50.3890 C   0  0  0  0  0  0  0  0  0  0  0  0
   37.2570   30.9920   49.1580 C   0  0  0  0  0  0  0  0  0  0  0  0
   36.1730   30.1770   49.0760 N   0  0  0  0  0  0  0  0  0  0  0  0
   35.7630   29.4160   50.0870 C   0  0  0  0  0  0  0  0  0  0  0  0
   36.4090   29.4130   51.2580 N   0  0  0  0  0  0  0  0  0  0  0  0
   38.0470   30.2160   52.3680 H   0  0  0  0  0  0  0  0  0  0  0  0
   38.8000   31.6020   50.5350 H   0  0  0  0  0  0  0  0  0  0  0  0
   37.7100   31.8380   48.0340 C   0  0  0  0  0  3  0  0  0  0  0  0
   38.8420   32.8250   48.2810 C   0  0  0  0  0  2  0  0  0  0  0  0
   39.0110   31.6350   47.3990 C   0  0  0  0  0  2  0  0  0  0  0  0
  1 16  1  0  0  0  0
  1  3  1  0  0  0  0
  2  1  1  0  0  0  0
  4  5  1  0  0  0  0
  4  1  1  0  0  0  0
  5 10  1  0  0  0  0
  6 11  1  0  0  0  0
  6  5  2  0  0  0  0
  7  6  1  0  0  0  0
  8  7  2  0  0  0  0
  8  9  1  0  0  0  0
  9  4  2  0  0  0  0
 12  7  1  0  0  0  0
 13  8  1  0  0  0  0
 14  9  1  0  0  0  0
 15 21  1  0  0  0  0
 16 15  2  0  0  0  0
 17 23  1  0  0  0  0
 18 24  1  0  0  0  0
 18 17  2  0  0  0  0
 19 18  1  0  0  0  0
 20 19  2  0  0  0  0
 20 21  1  0  0  0  0
 21 22  2  0  0  0  0
 22 17  1  0  0  0  0
 25 26  1  0  0  0  0
 25 19  1  0  0  0  0
 27 25  1  0  0  0  0
 27 26  1  0  0  0  0
M  END
>  <minimizedAffinity>
-5.41442108

>  <minimizedRMSD>
0.605654478

$$$$
