
 OpenBabel03272510103D

 21 23  0  0  0  0  0  0  0  0999 V2000
   38.4210   25.3820   35.3770 C   0  0  0  0  0  0  0  0  0  0  0  0
   38.2530   26.6690   35.8390 C   0  0  0  0  0  0  0  0  0  0  0  0
   37.5750   27.6740   35.1880 C   0  0  0  0  0  0  0  0  0  0  0  0
   37.0070   27.3930   33.9650 C   0  0  0  0  0  0  0  0  0  0  0  0
   37.1740   26.1090   33.5030 C   0  0  0  0  0  0  0  0  0  0  0  0
   37.8460   25.1470   34.1690 N   0  0  0  0  0  0  0  0  0  0  0  0
   38.6930   26.9170   36.8050 H   0  0  0  0  0  0  0  0  0  0  0  0
   37.5030   28.6530   35.6420 H   0  0  0  0  0  0  0  0  0  0  0  0
   36.7350   25.8420   32.5280 H   0  0  0  0  0  0  0  0  0  0  0  0
   40.3380   23.7850   35.6560 C   0  0  0  0  0  0  0  0  0  0  0  0
   39.1460   24.3530   36.1030 C   0  0  0  0  0  0  0  0  0  0  0  0
   38.5960   23.9240   37.3180 C   0  0  0  0  0  0  0  0  0  0  0  0
   39.2880   22.9510   37.9970 N   0  0  0  0  0  0  0  0  0  0  0  0
   40.4320   22.4200   37.5470 C   0  0  0  0  0  0  0  0  0  0  0  0
   40.9610   22.8300   36.3820 N   0  0  0  0  0  0  0  0  0  0  0  0
   40.7500   24.1270   34.7140 H   0  0  0  0  0  0  0  0  0  0  0  0
   37.6770   24.3010   37.7520 H   0  0  0  0  0  0  0  0  0  0  0  0
   40.8400   21.6680   38.2090 H   0  0  0  0  0  0  0  0  0  0  0  0
   36.2670   28.4310   33.2160 C   0  0  0  0  0  3  0  0  0  0  0  0
   36.8100   28.9020   31.8830 C   0  0  0  0  0  2  0  0  0  0  0  0
   35.5540   28.1050   31.9780 C   0  0  0  0  0  2  0  0  0  0  0  0
  1  2  1  0  0  0  0
  1 11  1  0  0  0  0
  2  7  1  0  0  0  0
  3  8  1  0  0  0  0
  3  2  2  0  0  0  0
  4  3  1  0  0  0  0
  5  4  2  0  0  0  0
  5  6  1  0  0  0  0
  6  1  2  0  0  0  0
  9  5  1  0  0  0  0
 10 11  2  0  0  0  0
 10 15  1  0  0  0  0
 11 12  1  0  0  0  0
 12 17  1  0  0  0  0
 12 13  2  0  0  0  0
 14 13  1  0  0  0  0
 14 18  1  0  0  0  0
 15 14  2  0  0  0  0
 16 10  1  0  0  0  0
 19  4  1  0  0  0  0
 20 21  1  0  0  0  0
 20 19  1  0  0  0  0
 21 19  1  0  0  0  0
M  END
>  <minimizedAffinity>
-4.51976585

$$$$

 OpenBabel03272510103D

 21 23  0  0  0  0  0  0  0  0999 V2000
   38.1280   25.3970   35.1850 C   0  0  0  0  0  0  0  0  0  0  0  0
   37.7470   26.6730   35.5370 C   0  0  0  0  0  0  0  0  0  0  0  0
   37.1480   27.5910   34.7050 C   0  0  0  0  0  0  0  0  0  0  0  0
   36.8970   27.2240   33.4020 C   0  0  0  0  0  0  0  0  0  0  0  0
   37.2750   25.9510   33.0490 C   0  0  0  0  0  0  0  0  0  0  0  0
   37.8630   25.0750   33.8920 N   0  0  0  0  0  0  0  0  0  0  0  0
   37.9350   26.9880   36.5640 H   0  0  0  0  0  0  0  0  0  0  0  0
   36.8890   28.5690   35.0850 H   0  0  0  0  0  0  0  0  0  0  0  0
   37.0920   25.6170   32.0150 H   0  0  0  0  0  0  0  0  0  0  0  0
   38.2510   24.1540   37.3620 C   0  0  0  0  0  0  0  0  0  0  0  0
   38.7590   24.4620   36.1020 C   0  0  0  0  0  0  0  0  0  0  0  0
   39.9430   23.8500   35.6700 C   0  0  0  0  0  0  0  0  0  0  0  0
   40.5330   22.9680   36.5440 N   0  0  0  0  0  0  0  0  0  0  0  0
   40.0260   22.6880   37.7500 C   0  0  0  0  0  0  0  0  0  0  0  0
   38.8910   23.2740   38.1660 N   0  0  0  0  0  0  0  0  0  0  0  0
   37.3350   24.6360   37.6810 H   0  0  0  0  0  0  0  0  0  0  0  0
   40.4190   24.0220   34.7110 H   0  0  0  0  0  0  0  0  0  0  0  0
   40.6200   21.9720   38.3050 H   0  0  0  0  0  0  0  0  0  0  0  0
   36.2550   28.1660   32.4590 C   0  0  0  0  0  3  0  0  0  0  0  0
   37.1180   28.8940   31.4480 C   0  0  0  0  0  2  0  0  0  0  0  0
   36.1410   27.8470   31.0330 C   0  0  0  0  0  2  0  0  0  0  0  0
  1  2  1  0  0  0  0
  1 11  1  0  0  0  0
  2  7  1  0  0  0  0
  3  8  1  0  0  0  0
  3  2  2  0  0  0  0
  4  3  1  0  0  0  0
  5  4  2  0  0  0  0
  5  6  1  0  0  0  0
  6  1  2  0  0  0  0
  9  5  1  0  0  0  0
 10 16  1  0  0  0  0
 10 15  1  0  0  0  0
 11 10  2  0  0  0  0
 12 11  1  0  0  0  0
 12 13  2  0  0  0  0
 13 14  1  0  0  0  0
 14 15  2  0  0  0  0
 14 18  1  0  0  0  0
 17 12  1  0  0  0  0
 19  4  1  0  0  0  0
 20 19  1  0  0  0  0
 21 20  1  0  0  0  0
 21 19  1  0  0  0  0
M  END
>  <minimizedAffinity>
-4.43415403

$$$$

 OpenBabel03272510103D

 21 23  0  0  0  0  0  0  0  0999 V2000
   37.7650   26.1100   34.1570 C   0  0  0  0  0  0  0  0  0  0  0  0
   37.8270   26.3540   35.5110 C   0  0  0  0  0  0  0  0  0  0  0  0
   38.0670   25.4150   36.4880 C   0  0  0  0  0  0  0  0  0  0  0  0
   38.2650   24.1080   36.1010 C   0  0  0  0  0  0  0  0  0  0  0  0
   38.2040   23.8620   34.7500 C   0  0  0  0  0  0  0  0  0  0  0  0
   37.9660   24.8100   33.8190 N   0  0  0  0  0  0  0  0  0  0  0  0
   37.6730   27.3820   35.8430 H   0  0  0  0  0  0  0  0  0  0  0  0
   38.0940   25.7160   37.5260 H   0  0  0  0  0  0  0  0  0  0  0  0
   38.3580   22.8290   34.3980 H   0  0  0  0  0  0  0  0  0  0  0  0
   36.5080   28.1010   33.2870 C   0  0  0  0  0  0  0  0  0  0  0  0
   37.5080   27.1390   33.1630 C   0  0  0  0  0  0  0  0  0  0  0  0
   38.3260   27.1410   32.0250 C   0  0  0  0  0  0  0  0  0  0  0  0
   38.0750   28.1170   31.0910 N   0  0  0  0  0  0  0  0  0  0  0  0
   37.1080   29.0310   31.2320 C   0  0  0  0  0  0  0  0  0  0  0  0
   36.3220   29.0300   32.3220 N   0  0  0  0  0  0  0  0  0  0  0  0
   35.8840   28.0850   34.1720 H   0  0  0  0  0  0  0  0  0  0  0  0
   39.1290   26.4380   31.8350 H   0  0  0  0  0  0  0  0  0  0  0  0
   37.0530   29.7220   30.4000 H   0  0  0  0  0  0  0  0  0  0  0  0
   38.5270   23.0520   37.1030 C   0  0  0  0  0  3  0  0  0  0  0  0
   39.9390   22.8600   37.6150 C   0  0  0  0  0  2  0  0  0  0  0  0
   38.8560   23.3930   38.4900 C   0  0  0  0  0  2  0  0  0  0  0  0
  1  2  1  0  0  0  0
  2  7  1  0  0  0  0
  2  3  2  0  0  0  0
  3  8  1  0  0  0  0
  4  3  1  0  0  0  0
  4 19  1  0  0  0  0
  5  4  2  0  0  0  0
  6  1  2  0  0  0  0
  6  5  1  0  0  0  0
  9  5  1  0  0  0  0
 10 16  1  0  0  0  0
 11 10  1  0  0  0  0
 11  1  1  0  0  0  0
 12 11  2  0  0  0  0
 13 14  2  0  0  0  0
 13 12  1  0  0  0  0
 14 15  1  0  0  0  0
 15 10  2  0  0  0  0
 17 12  1  0  0  0  0
 18 14  1  0  0  0  0
 19 20  1  0  0  0  0
 19 21  1  0  0  0  0
 20 21  1  0  0  0  0
M  END
>  <minimizedAffinity>
-4.34810495

$$$$

 OpenBabel03272510103D

 21 23  0  0  0  0  0  0  0  0999 V2000
   37.1780   27.2580   33.8500 C   0  0  0  0  0  0  0  0  0  0  0  0
   37.6350   27.6000   35.1040 C   0  0  0  0  0  0  0  0  0  0  0  0
   38.1580   26.7300   36.0340 C   0  0  0  0  0  0  0  0  0  0  0  0
   38.2420   25.3960   35.7030 C   0  0  0  0  0  0  0  0  0  0  0  0
   37.7870   25.0530   34.4530 C   0  0  0  0  0  0  0  0  0  0  0  0
   37.2790   25.9340   33.5650 N   0  0  0  0  0  0  0  0  0  0  0  0
   37.5800   28.6510   35.3890 H   0  0  0  0  0  0  0  0  0  0  0  0
   38.4890   27.1060   36.9920 H   0  0  0  0  0  0  0  0  0  0  0  0
   37.8360   23.9950   34.1490 H   0  0  0  0  0  0  0  0  0  0  0  0
   36.9860   28.2540   31.5540 C   0  0  0  0  0  0  0  0  0  0  0  0
   36.6330   28.2150   32.9020 C   0  0  0  0  0  0  0  0  0  0  0  0
   35.7040   29.1410   33.3960 C   0  0  0  0  0  0  0  0  0  0  0  0
   35.1950   30.0420   32.4920 N   0  0  0  0  0  0  0  0  0  0  0  0
   35.5490   30.0600   31.2010 C   0  0  0  0  0  0  0  0  0  0  0  0
   36.4400   29.1740   30.7260 N   0  0  0  0  0  0  0  0  0  0  0  0
   37.7060   27.5320   31.1890 H   0  0  0  0  0  0  0  0  0  0  0  0
   35.3650   29.1940   34.4240 H   0  0  0  0  0  0  0  0  0  0  0  0
   35.0490   30.8350   30.6350 H   0  0  0  0  0  0  0  0  0  0  0  0
   38.7950   24.4120   36.6600 C   0  0  0  0  0  3  0  0  0  0  0  0
   37.9260   23.9350   37.8050 C   0  0  0  0  0  2  0  0  0  0  0  0
   38.3090   23.0290   36.6850 C   0  0  0  0  0  2  0  0  0  0  0  0
  1  2  1  0  0  0  0
  2  7  1  0  0  0  0
  2  3  2  0  0  0  0
  3  8  1  0  0  0  0
  4  3  1  0  0  0  0
  4 19  1  0  0  0  0
  5  4  2  0  0  0  0
  6  1  2  0  0  0  0
  6  5  1  0  0  0  0
  9  5  1  0  0  0  0
 10 11  1  0  0  0  0
 11 12  2  0  0  0  0
 11  1  1  0  0  0  0
 12 17  1  0  0  0  0
 13 12  1  0  0  0  0
 14 13  2  0  0  0  0
 15 14  1  0  0  0  0
 15 10  2  0  0  0  0
 16 10  1  0  0  0  0
 18 14  1  0  0  0  0
 19 21  1  0  0  0  0
 19 20  1  0  0  0  0
 21 20  1  0  0  0  0
M  END
>  <minimizedAffinity>
-4.29088926

$$$$

 OpenBabel03272510103D

 21 23  0  0  0  0  0  0  0  0999 V2000
   36.2910   25.9780   31.7180 C   0  0  0  0  0  0  0  0  0  0  0  0
   35.3610   25.1680   31.1050 C   0  0  0  0  0  0  0  0  0  0  0  0
   35.3290   23.7940   31.1640 C   0  0  0  0  0  0  0  0  0  0  0  0
   36.3030   23.1490   31.8950 C   0  0  0  0  0  0  0  0  0  0  0  0
   37.2320   23.9560   32.5070 C   0  0  0  0  0  0  0  0  0  0  0  0
   37.2320   25.3040   32.4280 N   0  0  0  0  0  0  0  0  0  0  0  0
   34.5790   25.6540   30.5210 H   0  0  0  0  0  0  0  0  0  0  0  0
   34.5510   23.2530   30.6430 H   0  0  0  0  0  0  0  0  0  0  0  0
   38.0280   23.4800   33.1020 H   0  0  0  0  0  0  0  0  0  0  0  0
   35.9800   28.2690   32.6960 C   0  0  0  0  0  0  0  0  0  0  0  0
   36.2820   27.4290   31.6260 C   0  0  0  0  0  0  0  0  0  0  0  0
   36.5970   27.9890   30.3810 C   0  0  0  0  0  0  0  0  0  0  0  0
   36.5870   29.3610   30.3040 N   0  0  0  0  0  0  0  0  0  0  0  0
   36.2930   30.1480   31.3460 C   0  0  0  0  0  0  0  0  0  0  0  0
   35.9900   29.6130   32.5410 N   0  0  0  0  0  0  0  0  0  0  0  0
   35.7380   27.8200   33.6520 H   0  0  0  0  0  0  0  0  0  0  0  0
   36.8460   27.4240   29.4900 H   0  0  0  0  0  0  0  0  0  0  0  0
   36.3330   31.2030   31.1060 H   0  0  0  0  0  0  0  0  0  0  0  0
   36.3230   21.6740   31.9950 C   0  0  0  0  0  3  0  0  0  0  0  0
   35.5810   21.0050   33.1340 C   0  0  0  0  0  2  0  0  0  0  0  0
   35.1200   20.8820   31.7220 C   0  0  0  0  0  2  0  0  0  0  0  0
  1  6  1  0  0  0  0
  2  3  1  0  0  0  0
  2  1  2  0  0  0  0
  3  4  2  0  0  0  0
  4 19  1  0  0  0  0
  4  5  1  0  0  0  0
  5  9  1  0  0  0  0
  6  5  2  0  0  0  0
  7  2  1  0  0  0  0
  8  3  1  0  0  0  0
 10 16  1  0  0  0  0
 11  1  1  0  0  0  0
 11 10  2  0  0  0  0
 12 11  1  0  0  0  0
 13 12  2  0  0  0  0
 13 14  1  0  0  0  0
 14 15  2  0  0  0  0
 15 10  1  0  0  0  0
 17 12  1  0  0  0  0
 18 14  1  0  0  0  0
 19 20  1  0  0  0  0
 21 19  1  0  0  0  0
 21 20  1  0  0  0  0
M  END
>  <minimizedAffinity>
-4.19157314

$$$$

 OpenBabel03272510103D

 21 23  0  0  0  0  0  0  0  0999 V2000
   36.4780   24.5150   32.0140 C   0  0  0  0  0  0  0  0  0  0  0  0
   35.5580   23.7660   31.3130 C   0  0  0  0  0  0  0  0  0  0  0  0
   35.4610   22.3940   31.3250 C   0  0  0  0  0  0  0  0  0  0  0  0
   36.3520   21.6840   32.1000 C   0  0  0  0  0  0  0  0  0  0  0  0
   37.2710   22.4290   32.8010 C   0  0  0  0  0  0  0  0  0  0  0  0
   37.3370   23.7770   32.7640 N   0  0  0  0  0  0  0  0  0  0  0  0
   34.8420   24.3050   30.6920 H   0  0  0  0  0  0  0  0  0  0  0  0
   34.6990   21.9050   30.7350 H   0  0  0  0  0  0  0  0  0  0  0  0
   38.0020   21.9000   33.4330 H   0  0  0  0  0  0  0  0  0  0  0  0
   36.1530   26.7210   30.8630 C   0  0  0  0  0  0  0  0  0  0  0  0
   36.5400   25.9660   31.9680 C   0  0  0  0  0  0  0  0  0  0  0  0
   37.0210   26.6180   33.1100 C   0  0  0  0  0  0  0  0  0  0  0  0
   37.0760   27.9900   33.0580 N   0  0  0  0  0  0  0  0  0  0  0  0
   36.6980   28.6950   31.9840 C   0  0  0  0  0  0  0  0  0  0  0  0
   36.2380   28.0710   30.8870 N   0  0  0  0  0  0  0  0  0  0  0  0
   35.7840   26.2020   29.9870 H   0  0  0  0  0  0  0  0  0  0  0  0
   37.3470   26.1230   34.0180 H   0  0  0  0  0  0  0  0  0  0  0  0
   36.8090   29.7630   32.1170 H   0  0  0  0  0  0  0  0  0  0  0  0
   36.3000   20.2070   32.1550 C   0  0  0  0  0  3  0  0  0  0  0  0
   35.5560   19.5400   33.2940 C   0  0  0  0  0  2  0  0  0  0  0  0
   35.0510   19.4850   31.8920 C   0  0  0  0  0  2  0  0  0  0  0  0
  1  6  1  0  0  0  0
  2  3  1  0  0  0  0
  2  1  2  0  0  0  0
  3  4  2  0  0  0  0
  4 19  1  0  0  0  0
  4  5  1  0  0  0  0
  5  9  1  0  0  0  0
  6  5  2  0  0  0  0
  7  2  1  0  0  0  0
  8  3  1  0  0  0  0
 10 15  2  0  0  0  0
 10 11  1  0  0  0  0
 11  1  1  0  0  0  0
 11 12  2  0  0  0  0
 12 17  1  0  0  0  0
 13 12  1  0  0  0  0
 14 18  1  0  0  0  0
 14 13  2  0  0  0  0
 15 14  1  0  0  0  0
 16 10  1  0  0  0  0
 19 20  1  0  0  0  0
 21 19  1  0  0  0  0
 21 20  1  0  0  0  0
M  END
>  <minimizedAffinity>
-4.17944193

$$$$

 OpenBabel03272510103D

 21 23  0  0  0  0  0  0  0  0999 V2000
   36.2400   22.6280   32.0420 C   0  0  0  0  0  0  0  0  0  0  0  0
   35.4440   23.5060   31.3400 C   0  0  0  0  0  0  0  0  0  0  0  0
   35.6130   24.8700   31.2760 C   0  0  0  0  0  0  0  0  0  0  0  0
   36.6650   25.4300   31.9660 C   0  0  0  0  0  0  0  0  0  0  0  0
   37.4620   24.5560   32.6670 C   0  0  0  0  0  0  0  0  0  0  0  0
   37.2650   23.2210   32.7080 N   0  0  0  0  0  0  0  0  0  0  0  0
   34.6040   23.0870   30.7850 H   0  0  0  0  0  0  0  0  0  0  0  0
   34.9270   25.4680   30.6930 H   0  0  0  0  0  0  0  0  0  0  0  0
   38.3140   24.9640   33.2340 H   0  0  0  0  0  0  0  0  0  0  0  0
   35.6070   20.5030   33.2180 C   0  0  0  0  0  0  0  0  0  0  0  0
   36.0200   21.1920   32.0800 C   0  0  0  0  0  0  0  0  0  0  0  0
   36.2450   20.4840   30.8920 C   0  0  0  0  0  0  0  0  0  0  0  0
   36.0340   19.1270   30.9370 N   0  0  0  0  0  0  0  0  0  0  0  0
   35.6370   18.4860   32.0430 C   0  0  0  0  0  0  0  0  0  0  0  0
   35.4220   19.1640   33.1830 N   0  0  0  0  0  0  0  0  0  0  0  0
   35.4380   21.0660   34.1280 H   0  0  0  0  0  0  0  0  0  0  0  0
   36.5670   20.9250   29.9560 H   0  0  0  0  0  0  0  0  0  0  0  0
   35.5210   17.4200   31.8980 H   0  0  0  0  0  0  0  0  0  0  0  0
   36.8990   26.8900   31.9370 C   0  0  0  0  0  3  0  0  0  0  0  0
   36.6690   27.6960   33.1990 C   0  0  0  0  0  2  0  0  0  0  0  0
   38.0370   27.4870   32.6430 C   0  0  0  0  0  2  0  0  0  0  0  0
  1 11  1  0  0  0  0
  1  6  1  0  0  0  0
  2  1  2  0  0  0  0
  3  2  1  0  0  0  0
  3  4  2  0  0  0  0
  4  5  1  0  0  0  0
  5  6  2  0  0  0  0
  5  9  1  0  0  0  0
  7  2  1  0  0  0  0
  8  3  1  0  0  0  0
 10 16  1  0  0  0  0
 11 10  2  0  0  0  0
 12 13  2  0  0  0  0
 12 11  1  0  0  0  0
 13 14  1  0  0  0  0
 14 15  2  0  0  0  0
 15 10  1  0  0  0  0
 17 12  1  0  0  0  0
 18 14  1  0  0  0  0
 19  4  1  0  0  0  0
 19 21  1  0  0  0  0
 19 20  1  0  0  0  0
 21 20  1  0  0  0  0
M  END
>  <minimizedAffinity>
-4.15928411

$$$$

 OpenBabel03272510103D

 21 23  0  0  0  0  0  0  0  0999 V2000
   35.1300   29.9820   34.7070 C   0  0  0  0  0  0  0  0  0  0  0  0
   35.9520   30.8390   35.4060 C   0  0  0  0  0  0  0  0  0  0  0  0
   35.5360   31.8310   36.2630 C   0  0  0  0  0  0  0  0  0  0  0  0
   34.1830   32.0020   36.4560 C   0  0  0  0  0  0  0  0  0  0  0  0
   33.3610   31.1480   35.7600 C   0  0  0  0  0  0  0  0  0  0  0  0
   33.8050   30.1840   34.9260 N   0  0  0  0  0  0  0  0  0  0  0  0
   37.0280   30.7240   35.2700 H   0  0  0  0  0  0  0  0  0  0  0  0
   36.2690   32.4500   36.7620 H   0  0  0  0  0  0  0  0  0  0  0  0
   32.2710   31.2510   35.8860 H   0  0  0  0  0  0  0  0  0  0  0  0
   35.1830   28.7940   32.4970 C   0  0  0  0  0  0  0  0  0  0  0  0
   35.6180   28.9470   33.8110 C   0  0  0  0  0  0  0  0  0  0  0  0
   36.5800   28.0650   34.3230 C   0  0  0  0  0  0  0  0  0  0  0  0
   37.0350   27.0900   33.4680 N   0  0  0  0  0  0  0  0  0  0  0  0
   36.6010   26.9630   32.2090 C   0  0  0  0  0  0  0  0  0  0  0  0
   35.6790   27.8070   31.7170 N   0  0  0  0  0  0  0  0  0  0  0  0
   34.4390   29.4840   32.1170 H   0  0  0  0  0  0  0  0  0  0  0  0
   36.9820   28.0990   35.3280 H   0  0  0  0  0  0  0  0  0  0  0  0
   37.0670   26.1410   31.6800 H   0  0  0  0  0  0  0  0  0  0  0  0
   33.6730   33.0520   37.3640 C   0  0  0  0  0  3  0  0  0  0  0  0
   33.6270   34.4850   36.8770 C   0  0  0  0  0  2  0  0  0  0  0  0
   32.3820   33.7010   37.1190 C   0  0  0  0  0  2  0  0  0  0  0  0
  1  6  2  0  0  0  0
  1  2  1  0  0  0  0
  2  3  2  0  0  0  0
  3  4  1  0  0  0  0
  3  8  1  0  0  0  0
  4 19  1  0  0  0  0
  5  9  1  0  0  0  0
  5  4  2  0  0  0  0
  6  5  1  0  0  0  0
  7  2  1  0  0  0  0
 10 11  1  0  0  0  0
 11 12  2  0  0  0  0
 11  1  1  0  0  0  0
 12 17  1  0  0  0  0
 13 12  1  0  0  0  0
 14 13  2  0  0  0  0
 15 14  1  0  0  0  0
 15 10  2  0  0  0  0
 16 10  1  0  0  0  0
 18 14  1  0  0  0  0
 20 21  1  0  0  0  0
 20 19  1  0  0  0  0
 21 19  1  0  0  0  0
M  END
>  <minimizedAffinity>
-4.14945889

$$$$

 OpenBabel03272510103D

 21 23  0  0  0  0  0  0  0  0999 V2000
   39.6000   26.2970   34.0170 C   0  0  0  0  0  0  0  0  0  0  0  0
   39.1570   26.9620   35.1390 C   0  0  0  0  0  0  0  0  0  0  0  0
   38.5370   26.3860   36.2240 C   0  0  0  0  0  0  0  0  0  0  0  0
   38.3310   25.0250   36.2090 C   0  0  0  0  0  0  0  0  0  0  0  0
   38.7720   24.3580   35.0910 C   0  0  0  0  0  0  0  0  0  0  0  0
   39.3760   24.9570   34.0430 N   0  0  0  0  0  0  0  0  0  0  0  0
   39.3090   28.0420   35.1740 H   0  0  0  0  0  0  0  0  0  0  0  0
   38.2290   27.0040   37.0550 H   0  0  0  0  0  0  0  0  0  0  0  0
   38.6250   23.2670   35.0400 H   0  0  0  0  0  0  0  0  0  0  0  0
   39.6440   27.1440   31.6550 C   0  0  0  0  0  0  0  0  0  0  0  0
   40.2500   26.9510   32.8940 C   0  0  0  0  0  0  0  0  0  0  0  0
   41.5610   27.4040   33.0950 C   0  0  0  0  0  0  0  0  0  0  0  0
   42.1670   28.0220   32.0280 N   0  0  0  0  0  0  0  0  0  0  0  0
   41.5640   28.1960   30.8460 C   0  0  0  0  0  0  0  0  0  0  0  0
   40.3080   27.7610   30.6510 N   0  0  0  0  0  0  0  0  0  0  0  0
   38.6300   26.7870   31.5160 H   0  0  0  0  0  0  0  0  0  0  0  0
   42.1190   27.3030   34.0190 H   0  0  0  0  0  0  0  0  0  0  0  0
   42.1890   28.7000   30.1200 H   0  0  0  0  0  0  0  0  0  0  0  0
   37.6690   24.3460   37.3450 C   0  0  0  0  0  3  0  0  0  0  0  0
   38.4910   23.4430   38.2410 C   0  0  0  0  0  2  0  0  0  0  0  0
   37.9490   24.7430   38.7280 C   0  0  0  0  0  2  0  0  0  0  0  0
  1  6  2  0  0  0  0
  1  2  1  0  0  0  0
  2  7  1  0  0  0  0
  2  3  2  0  0  0  0
  3  8  1  0  0  0  0
  4  3  1  0  0  0  0
  4 19  1  0  0  0  0
  5  4  2  0  0  0  0
  6  5  1  0  0  0  0
  9  5  1  0  0  0  0
 10 11  1  0  0  0  0
 11 12  2  0  0  0  0
 11  1  1  0  0  0  0
 12 17  1  0  0  0  0
 13 12  1  0  0  0  0
 14 13  2  0  0  0  0
 15 14  1  0  0  0  0
 15 10  2  0  0  0  0
 16 10  1  0  0  0  0
 18 14  1  0  0  0  0
 19 20  1  0  0  0  0
 19 21  1  0  0  0  0
 20 21  1  0  0  0  0
M  END
>  <minimizedAffinity>
-4.12306213

$$$$
