
 OpenBabel03262520373D

 12 13  0  0  0  0  0  0  0  0999 V2000
   36.9950   31.1470   49.2400 C   0  0  0  0  0  0  0  0  0  0  0  0
   37.3310   32.4410   49.7100 C   0  0  0  0  0  0  0  0  0  0  0  0
   38.3240   33.1310   49.0170 C   0  0  0  0  0  0  0  0  0  0  0  0
   38.9130   32.5370   47.9460 N   0  0  0  0  0  0  0  0  0  0  0  0
   38.5670   31.2930   47.5210 C   0  0  0  0  0  0  0  0  0  0  0  0
   37.6040   30.6070   48.1800 N   0  0  0  0  0  0  0  0  0  0  0  0
   36.8530   32.8890   50.5580 H   0  0  0  0  0  0  0  0  0  0  0  0
   38.6340   34.1330   49.3230 H   0  0  0  0  0  0  0  0  0  0  0  0
   39.0660   30.8650   46.6620 H   0  0  0  0  0  0  0  0  0  0  0  0
   35.9270   30.3940   49.9750 C   0  0  0  0  0  0  0  0  0  0  0  0
   35.8370   28.9240   49.8480 C   0  0  0  0  0  0  0  0  0  0  0  0
   36.4370   29.5150   51.0830 C   0  0  0  0  0  0  0  0  0  0  0  0
  1  2  1  0  0  0  0
  1 10  1  0  0  0  0
  2  7  1  0  0  0  0
  3  8  1  0  0  0  0
  3  2  2  0  0  0  0
  4  3  1  0  0  0  0
  5  4  2  0  0  0  0
  5  6  1  0  0  0  0
  6  1  2  0  0  0  0
  9  5  1  0  0  0  0
 10 12  1  0  0  0  0
 11 10  1  0  0  0  0
 11 12  1  0  0  0  0
M  END
>  <minimizedAffinity>
-4.01879358

>  <minimizedRMSD>
3.48448181

$$$$
