
 OpenBabel03272504073D

 24 26  0  0  0  0  0  0  0  0999 V2000
   37.8000   30.4690   50.1620 C   0  0  0  0  0  0  0  0  0  0  0  0
   37.2830   30.6810   48.8710 C   0  0  0  0  0  0  0  0  0  0  0  0
   35.9820   30.2880   48.5970 C   0  0  0  0  0  0  0  0  0  0  0  0
   35.2510   29.7130   49.5820 N   0  0  0  0  0  0  0  0  0  0  0  0
   35.7830   29.5180   50.8330 C   0  0  0  0  0  0  0  0  0  0  0  0
   37.0510   29.8980   51.1120 N   0  0  0  0  0  0  0  0  0  0  0  0
   34.9740   28.9110   51.8330 N   0  0  0  0  0  0  0  0  0  0  0  0
   38.8120   30.7710   50.3890 H   0  0  0  0  0  0  0  0  0  0  0  0
   35.3690   28.7250   52.7630 H   0  0  0  0  0  0  0  0  0  0  0  0
   34.0020   28.6530   51.6400 H   0  0  0  0  0  0  0  0  0  0  0  0
   38.1990   33.5640   49.1980 Cl  0  0  0  0  0  0  0  0  0  0  0  0
   38.6940   32.5850   47.8510 C   0  0  0  0  0  0  0  0  0  0  0  0
   38.1770   31.3170   47.8800 C   0  0  0  0  0  0  0  0  0  0  0  0
   38.5190   30.4420   46.8310 C   0  0  0  0  0  0  0  0  0  0  0  0
   39.3310   30.8200   45.8110 C   0  0  0  0  0  0  0  0  0  0  0  0
   39.8360   32.1110   45.8120 C   0  0  0  0  0  0  0  0  0  0  0  0
   40.8830   32.6360   44.5210 Cl  0  0  0  0  0  0  0  0  0  0  0  0
   39.5130   32.9520   46.8140 C   0  0  0  0  0  0  0  0  0  0  0  0
   38.1620   29.4220   46.7660 H   0  0  0  0  0  0  0  0  0  0  0  0
   39.6170   30.1760   44.9870 H   0  0  0  0  0  0  0  0  0  0  0  0
   39.8720   33.9890   46.8850 H   0  0  0  0  0  0  0  0  0  0  0  0
   35.4520   30.5130   47.2490 C   0  0  0  0  0  0  0  0  0  0  0  0
   34.8530   29.4220   46.4470 C   0  0  0  0  0  0  0  0  0  0  0  0
   33.9080   30.3300   47.1450 C   0  0  0  0  0  0  0  0  0  0  0  0
  1  8  1  0  0  0  0
  1  6  1  0  0  0  0
  2  1  2  0  0  0  0
  3  2  1  0  0  0  0
  3  4  2  0  0  0  0
  4  5  1  0  0  0  0
  5  6  2  0  0  0  0
  5  7  1  0  0  0  0
  7  9  1  0  0  0  0
 10  7  1  0  0  0  0
 12 13  1  0  0  0  0
 12 11  1  0  0  0  0
 13  2  1  0  0  0  0
 14 13  2  0  0  0  0
 15 16  2  0  0  0  0
 15 14  1  0  0  0  0
 16 18  1  0  0  0  0
 17 16  1  0  0  0  0
 18 21  1  0  0  0  0
 18 12  2  0  0  0  0
 19 14  1  0  0  0  0
 20 15  1  0  0  0  0
 22  3  1  0  0  0  0
 23 24  1  0  0  0  0
 23 22  1  0  0  0  0
 24 22  1  0  0  0  0
M  END
>  <minimizedAffinity>
-5.53297424

>  <minimizedRMSD>
0.736847222

$$$$
