
 OpenBabel03272507553D

 17 18  0  0  0  0  0  0  0  0999 V2000
   35.0030   29.6760   50.1800 C   0  0  0  0  0  0  0  0  0  0  0  0
   36.3680   29.9560   49.9260 C   0  0  0  0  0  0  0  0  0  0  0  0
   36.7200   30.4260   48.6570 C   0  0  0  0  0  0  0  0  0  0  0  0
   35.7320   30.5910   47.7270 N   0  0  0  0  0  0  0  0  0  0  0  0
   34.4290   30.3090   48.0140 C   0  0  0  0  0  0  0  0  0  0  0  0
   34.0650   29.8590   49.2170 N   0  0  0  0  0  0  0  0  0  0  0  0
   33.5760   30.5420   46.9100 N   0  0  0  0  0  0  0  0  0  0  0  0
   34.6580   29.3100   51.1390 H   0  0  0  0  0  0  0  0  0  0  0  0
   33.3240   31.5520   46.7830 H   0  0  0  0  0  0  0  0  0  0  0  0
   33.2930   29.7080   46.3530 H   0  0  0  0  0  0  0  0  0  0  0  0
   37.3530   29.7310   51.0300 C   0  0  0  0  0  0  0  0  0  0  0  0
   38.2860   30.7710   51.0620 F   0  0  0  0  0  0  0  0  0  0  0  0
   36.6610   29.7700   52.2090 F   0  0  0  0  0  0  0  0  0  0  0  0
   38.0280   28.5520   50.9110 F   0  0  0  0  0  0  0  0  0  0  0  0
   38.1310   30.7180   48.3900 C   0  0  0  0  0  0  0  0  0  0  0  0
   38.5200   32.1080   47.9060 C   0  0  0  0  0  0  0  0  0  0  0  0
   38.4830   30.9960   46.9330 C   0  0  0  0  0  0  0  0  0  0  0  0
  1  8  1  0  0  0  0
  2  1  1  0  0  0  0
  2 11  1  0  0  0  0
  3  2  2  0  0  0  0
  4  5  2  0  0  0  0
  4  3  1  0  0  0  0
  5  6  1  0  0  0  0
  6  1  2  0  0  0  0
  7  5  1  0  0  0  0
  9  7  1  0  0  0  0
 10  7  1  0  0  0  0
 11 12  1  0  0  0  0
 11 13  1  0  0  0  0
 14 11  1  0  0  0  0
 15  3  1  0  0  0  0
 16 15  1  0  0  0  0
 17 16  1  0  0  0  0
 17 15  1  0  0  0  0
M  END
>  <minimizedAffinity>
-5.45271826

>  <minimizedRMSD>
1.8114773

$$$$
