
 OpenBabel03272510343D

 22 24  0  0  0  0  0  0  0  0999 V2000
   36.2940   30.1440   48.0240 C   0  0  0  0  0  0  0  0  0  0  0  0
   35.1940   30.0960   47.1910 C   0  0  0  0  0  0  0  0  0  0  0  0
   34.0650   29.3970   47.5510 C   0  0  0  0  0  0  0  0  0  0  0  0
   34.0510   28.7450   48.7570 C   0  0  0  0  0  0  0  0  0  0  0  0
   35.1390   28.7740   49.6160 C   0  0  0  0  0  0  0  0  0  0  0  0
   36.2880   29.4820   49.2560 C   0  0  0  0  0  0  0  0  0  0  0  0
   35.2300   30.6240   46.2340 H   0  0  0  0  0  0  0  0  0  0  0  0
   33.2410   29.4040   46.8470 H   0  0  0  0  0  0  0  0  0  0  0  0
   33.1560   28.2020   49.0210 H   0  0  0  0  0  0  0  0  0  0  0  0
   35.1400   28.2610   50.5750 H   0  0  0  0  0  0  0  0  0  0  0  0
   38.7260   32.8480   47.7910 C   0  0  0  0  0  0  0  0  0  0  0  0
   39.6100   32.4380   46.7960 C   0  0  0  0  0  0  0  0  0  0  0  0
   39.3550   31.1810   46.1850 C   0  0  0  0  0  0  0  0  0  0  0  0
   38.2780   30.4710   46.6060 N   0  0  0  0  0  0  0  0  0  0  0  0
   37.4590   30.9120   47.5680 C   0  0  0  0  0  0  0  0  0  0  0  0
   37.6920   32.0970   48.1520 N   0  0  0  0  0  0  0  0  0  0  0  0
   38.9900   33.8030   48.2000 H   0  0  0  0  0  0  0  0  0  0  0  0
   40.4790   32.9190   46.3950 H   0  0  0  0  0  0  0  0  0  0  0  0
   39.9240   30.7000   45.4010 H   0  0  0  0  0  0  0  0  0  0  0  0
   37.5040   29.5750   50.1040 C   0  0  0  0  0  3  0  0  0  0  0  0
   37.4880   30.5250   51.2850 C   0  0  0  0  0  2  0  0  0  0  0  0
   37.5020   29.0390   51.4830 C   0  0  0  0  0  2  0  0  0  0  0  0
  1  6  1  0  0  0  0
  2  3  1  0  0  0  0
  2  1  2  0  0  0  0
  3  4  2  0  0  0  0
  4  9  1  0  0  0  0
  4  5  1  0  0  0  0
  5 10  1  0  0  0  0
  6  5  2  0  0  0  0
  6 20  1  0  0  0  0
  7  2  1  0  0  0  0
  8  3  1  0  0  0  0
 11 16  1  0  0  0  0
 11 17  1  0  0  0  0
 12 11  2  0  0  0  0
 13 14  2  0  0  0  0
 13 12  1  0  0  0  0
 14 15  1  0  0  0  0
 15  1  1  0  0  0  0
 15 16  2  0  0  0  0
 18 12  1  0  0  0  0
 19 13  1  0  0  0  0
 20 21  1  0  0  0  0
 20 22  1  0  0  0  0
 21 22  1  0  0  0  0
M  END
>  <minimizedAffinity>
-5.57584858

>  <minimizedRMSD>
1.17960203

$$$$
