
 OpenBabel03272509473D

 19 20  0  0  0  0  0  0  0  0999 V2000
   34.8520   28.2970   49.6680 O   0  0  0  0  0  0  0  0  0  0  0  0
   37.3510   30.2460   51.4170 C   0  0  0  0  0  0  0  0  0  0  0  0
   38.0830   30.7200   50.3320 C   0  0  0  0  0  0  0  0  0  0  0  0
   37.6890   30.3530   49.0480 C   0  0  0  0  0  0  0  0  0  0  0  0
   36.5880   29.5350   48.9590 N   0  0  0  0  0  0  0  0  0  0  0  0
   35.9060   29.0960   50.0170 C   0  0  0  0  0  0  0  0  0  0  0  0
   36.2910   29.4550   51.2630 N   0  0  0  0  0  0  0  0  0  0  0  0
   37.6030   30.4930   52.4500 H   0  0  0  0  0  0  0  0  0  0  0  0
   38.9390   31.3630   50.5140 H   0  0  0  0  0  0  0  0  0  0  0  0
   38.2330   30.7030   48.1870 H   0  0  0  0  0  0  0  0  0  0  0  0
   34.4010   28.3340   48.3170 C   0  0  0  0  0  0  0  0  0  0  0  0
   33.8970   29.2900   48.0960 H   0  0  0  0  0  0  0  0  0  0  0  0
   35.2590   28.2700   47.6170 H   0  0  0  0  0  0  0  0  0  0  0  0
   33.4840   27.1670   48.0600 C   0  0  0  0  0  0  0  0  0  0  0  0
   33.6690   26.3650   48.7730 H   0  0  0  0  0  0  0  0  0  0  0  0
   32.4400   27.5150   48.0300 H   0  0  0  0  0  0  0  0  0  0  0  0
   33.8510   26.6370   46.6730 C   0  0  0  0  0  3  0  0  0  0  0  0
   34.1160   25.1890   46.5080 C   0  0  0  0  0  2  0  0  0  0  0  0
   32.8260   25.7430   45.9930 C   0  0  0  0  0  2  0  0  0  0  0  0
  1  6  1  0  0  0  0
  2  8  1  0  0  0  0
  3  9  1  0  0  0  0
  3  2  2  0  0  0  0
  4  3  1  0  0  0  0
  5  4  2  0  0  0  0
  5  6  1  0  0  0  0
  6  7  2  0  0  0  0
  7  2  1  0  0  0  0
 10  4  1  0  0  0  0
 11  1  1  0  0  0  0
 12 11  1  0  0  0  0
 13 11  1  0  0  0  0
 14 11  1  0  0  0  0
 14 15  1  0  0  0  0
 16 14  1  0  0  0  0
 17 14  1  0  0  0  0
 18 17  1  0  0  0  0
 19 18  1  0  0  0  0
 19 17  1  0  0  0  0
M  END
>  <minimizedAffinity>
-3.62172437

>  <minimizedRMSD>
0.768626571

$$$$
