
 OpenBabel03262520173D

 12 13  0  0  0  0  0  0  0  0999 V2000
   37.3260   30.1710   51.4410 C   0  0  0  0  0  0  0  0  0  0  0  0
   38.0840   30.6920   50.3750 C   0  0  0  0  0  0  0  0  0  0  0  0
   37.6690   30.4010   49.0630 C   0  0  0  0  0  0  0  0  0  0  0  0
   36.5530   29.6280   48.9160 N   0  0  0  0  0  0  0  0  0  0  0  0
   35.8540   29.1470   49.9650 C   0  0  0  0  0  0  0  0  0  0  0  0
   36.2420   29.4200   51.2350 N   0  0  0  0  0  0  0  0  0  0  0  0
   37.6360   30.3890   52.4570 H   0  0  0  0  0  0  0  0  0  0  0  0
   38.9720   31.3080   50.5730 H   0  0  0  0  0  0  0  0  0  0  0  0
   34.9900   28.5480   49.6430 H   0  0  0  0  0  0  0  0  0  0  0  0
   38.4160   30.9140   47.9130 C   0  0  0  0  0  3  0  0  0  0  0  0
   37.7860   31.5150   46.7400 C   0  0  0  0  0  2  0  0  0  0  0  0
   38.3780   32.4430   47.7990 C   0  0  0  0  0  2  0  0  0  0  0  0
  1  7  1  0  0  0  0
  2  8  1  0  0  0  0
  2  1  2  0  0  0  0
  3  2  1  0  0  0  0
  4  3  2  0  0  0  0
  4  5  1  0  0  0  0
  5  6  2  0  0  0  0
  6  1  1  0  0  0  0
  9  5  1  0  0  0  0
 10  3  1  0  0  0  0
 11 12  1  0  0  0  0
 11 10  1  0  0  0  0
 12 10  1  0  0  0  0
M  END
>  <minimizedAffinity>
-3.90070248

>  <minimizedRMSD>
1.10434783

$$$$
