
 OpenBabel03272510233D

 25 28  0  0  0  0  0  0  0  0999 V2000
   37.7220   31.0690   45.7730 C   0  0  0  0  0  0  0  0  0  0  0  0
   38.9850   31.5220   46.1080 C   0  0  0  0  0  0  0  0  0  0  0  0
   40.0590   31.1460   45.3470 C   0  0  0  0  0  0  0  0  0  0  0  0
   39.8340   30.3090   44.2510 C   0  0  0  0  0  0  0  0  0  0  0  0
   40.7560   29.8240   43.3760 N   0  0  0  0  0  0  0  0  0  0  0  0
   40.0770   29.0730   42.5010 C   0  0  0  0  0  0  0  0  0  0  0  0
   38.7690   29.0720   42.7960 N   0  0  0  0  0  0  0  0  0  0  0  0
   38.5830   29.8390   43.8890 C   0  0  0  0  0  0  0  0  0  0  0  0
   37.5130   30.2340   44.6750 C   0  0  0  0  0  0  0  0  0  0  0  0
   36.8160   31.3210   46.3240 H   0  0  0  0  0  0  0  0  0  0  0  0
   41.0560   31.4880   45.5920 H   0  0  0  0  0  0  0  0  0  0  0  0
   41.7770   30.0030   43.3900 H   0  0  0  0  0  0  0  0  0  0  0  0
   36.5290   29.8790   44.4110 H   0  0  0  0  0  0  0  0  0  0  0  0
   39.8580   34.3190   48.4630 C   0  0  0  0  0  0  0  0  0  0  0  0
   39.8190   33.5650   47.2830 C   0  0  0  0  0  0  0  0  0  0  0  0
   39.0990   32.3870   47.2680 C   0  0  0  0  0  0  0  0  0  0  0  0
   38.4540   32.0020   48.4090 N   0  0  0  0  0  0  0  0  0  0  0  0
   38.5020   32.7460   49.5460 C   0  0  0  0  0  0  0  0  0  0  0  0
   39.2010   33.8950   49.5680 N   0  0  0  0  0  0  0  0  0  0  0  0
   40.4350   35.2240   48.4070 H   0  0  0  0  0  0  0  0  0  0  0  0
   40.3310   33.8790   46.3970 H   0  0  0  0  0  0  0  0  0  0  0  0
   37.9980   32.4550   50.4530 H   0  0  0  0  0  0  0  0  0  0  0  0
   40.6880   28.3310   41.3430 C   0  0  0  0  0  3  0  0  0  0  0  0
   40.4410   29.0460   40.0130 C   0  0  0  0  0  2  0  0  0  0  0  0
   41.8310   28.8700   40.6040 C   0  0  0  0  0  2  0  0  0  0  0  0
  1  2  1  0  0  0  0
  1 10  1  0  0  0  0
  2 16  1  0  0  0  0
  3 11  1  0  0  0  0
  3  2  2  0  0  0  0
  4  3  1  0  0  0  0
  5 12  1  0  0  0  0
  5  4  1  0  0  0  0
  6  7  2  0  0  0  0
  6  5  1  0  0  0  0
  7  8  1  0  0  0  0
  8  4  2  0  0  0  0
  8  9  1  0  0  0  0
  9  1  2  0  0  0  0
 13  9  1  0  0  0  0
 14 19  1  0  0  0  0
 15 14  2  0  0  0  0
 16 15  1  0  0  0  0
 16 17  2  0  0  0  0
 17 18  1  0  0  0  0
 18 19  2  0  0  0  0
 18 22  1  0  0  0  0
 20 14  1  0  0  0  0
 21 15  1  0  0  0  0
 23  6  1  0  0  0  0
 24 25  1  0  0  0  0
 24 23  1  0  0  0  0
 25 23  1  0  0  0  0
M  END
>  <minimizedAffinity>
-4.69621563

>  <minimizedRMSD>
4.71559858

$$$$
