
 OpenBabel03272501253D

 31 34  0  0  1  0  0  0  0  0999 V2000
   38.4040   22.1730   35.0280 C   0  0  0  0  0  0  0  0  0  0  0  0
   39.4660   22.1050   34.1210 C   0  0  0  0  0  0  0  0  0  0  0  0
   38.9830   21.5140   32.9490 C   0  0  0  0  0  0  0  0  0  0  0  0
   37.6750   21.2570   33.1910 N   0  0  0  0  0  0  0  0  0  0  0  0
   37.3590   21.6540   34.4200 N   0  0  0  0  0  0  0  0  0  0  0  0
   40.4860   22.4230   34.2320 H   0  0  0  0  0  0  0  0  0  0  0  0
   39.5360   21.3020   32.0280 H   0  0  0  0  0  0  0  0  0  0  0  0
   37.1840   19.3900   31.7410 N   0  0  0  0  0  0  0  0  0  0  0  0
   35.9720   18.8180   31.1800 C   0  0  0  0  0  0  0  0  0  0  0  0
   34.7960   19.4300   31.9260 C   0  0  0  0  0  0  0  0  0  0  0  0
   35.4950   20.1990   33.0460 C   0  0  0  0  0  0  0  0  0  0  0  0
   36.7270   20.6560   32.3110 C   0  0  1  0  0  0  0  0  0  0  0  0
   37.7990   19.6660   30.9270 H   0  0  0  0  0  0  0  0  0  0  0  0
   35.8510   19.1410   30.1130 H   0  0  0  0  0  0  0  0  0  0  0  0
   35.9840   17.7270   31.1830 H   0  0  0  0  0  0  0  0  0  0  0  0
   34.1890   20.1070   31.3010 H   0  0  0  0  0  0  0  0  0  0  0  0
   34.2080   18.5740   32.3440 H   0  0  0  0  0  0  0  0  0  0  0  0
   34.8920   21.0110   33.4460 H   0  0  0  0  0  0  0  0  0  0  0  0
   35.8070   19.4430   33.7870 H   0  0  0  0  0  0  0  0  0  0  0  0
   36.4040   21.6490   31.2170 C   0  0  0  0  0  3  0  0  0  0  0  0
   35.5400   22.7930   31.6750 C   0  0  0  0  0  2  0  0  0  0  0  0
   36.9650   23.0490   31.3460 C   0  0  0  0  0  2  0  0  0  0  0  0
   37.5780   23.5140   36.9730 C   0  0  0  0  0  0  0  0  0  0  0  0
   38.5700   22.7390   36.3520 C   0  0  0  0  0  0  0  0  0  0  0  0
   39.7540   22.5270   37.0640 C   0  0  0  0  0  0  0  0  0  0  0  0
   39.8740   23.0710   38.2960 N   0  0  0  0  0  0  0  0  0  0  0  0
   38.8920   23.8150   38.8620 C   0  0  0  0  0  0  0  0  0  0  0  0
   37.7280   24.0380   38.1880 N   0  0  0  0  0  0  0  0  0  0  0  0
   36.6530   23.6890   36.4340 H   0  0  0  0  0  0  0  0  0  0  0  0
   40.5530   21.9400   36.6410 H   0  0  0  0  0  0  0  0  0  0  0  0
   39.1290   24.1870   39.8500 H   0  0  0  0  0  0  0  0  0  0  0  0
  1 24  1  0  0  0  0
  2  6  1  0  0  0  0
  2  1  1  0  0  0  0
  3  4  1  0  0  0  0
  3  2  2  0  0  0  0
  4  5  1  0  0  0  0
  5  1  2  0  0  0  0
  7  3  1  0  0  0  0
  8 12  1  0  0  0  0
  9 15  1  0  0  0  0
  9  8  1  0  0  0  0
  9 10  1  0  0  0  0
 10 17  1  0  0  0  0
 10 11  1  0  0  0  0
 11 18  1  0  0  0  0
 11 19  1  0  0  0  0
 12 20  1  6  0  0  0
 12 11  1  0  0  0  0
 12  4  1  0  0  0  0
 13  8  1  0  0  0  0
 14  9  1  0  0  0  0
 16 10  1  0  0  0  0
 20 22  1  0  0  0  0
 20 21  1  0  0  0  0
 22 21  1  0  0  0  0
 23 28  1  0  0  0  0
 24 23  2  0  0  0  0
 24 25  1  0  0  0  0
 25 26  2  0  0  0  0
 26 27  1  0  0  0  0
 27 31  1  0  0  0  0
 28 27  2  0  0  0  0
 29 23  1  0  0  0  0
 30 25  1  0  0  0  0
M  END
>  <minimizedAffinity>
-4.99081278

$$$$

 OpenBabel03272501253D

 31 34  0  0  1  0  0  0  0  0999 V2000
   37.3360   27.1810   34.6180 C   0  0  0  0  0  0  0  0  0  0  0  0
   38.3820   27.6290   35.4300 C   0  0  0  0  0  0  0  0  0  0  0  0
   39.0070   26.5020   35.9740 C   0  0  0  0  0  0  0  0  0  0  0  0
   38.3270   25.4410   35.4770 N   0  0  0  0  0  0  0  0  0  0  0  0
   37.3490   25.8660   34.6820 N   0  0  0  0  0  0  0  0  0  0  0  0
   38.7040   28.6310   35.6450 H   0  0  0  0  0  0  0  0  0  0  0  0
   39.8630   26.4740   36.6560 H   0  0  0  0  0  0  0  0  0  0  0  0
   38.1990   23.1940   34.6030 N   0  0  0  0  0  0  0  0  0  0  0  0
   38.8280   21.9270   34.9360 C   0  0  0  0  0  0  0  0  0  0  0  0
   39.9860   22.2290   35.8730 C   0  0  0  0  0  0  0  0  0  0  0  0
   40.0370   23.7560   35.8340 C   0  0  0  0  0  0  0  0  0  0  0  0
   38.5660   24.0570   35.7240 C   0  0  1  0  0  0  0  0  0  0  0  0
   37.1560   23.0540   34.7000 H   0  0  0  0  0  0  0  0  0  0  0  0
   38.1200   21.2900   35.5290 H   0  0  0  0  0  0  0  0  0  0  0  0
   39.1070   21.3530   34.0510 H   0  0  0  0  0  0  0  0  0  0  0  0
   39.8210   21.8660   36.9020 H   0  0  0  0  0  0  0  0  0  0  0  0
   40.9000   21.7930   35.3960 H   0  0  0  0  0  0  0  0  0  0  0  0
   40.5130   24.1900   36.7120 H   0  0  0  0  0  0  0  0  0  0  0  0
   40.5070   24.0220   34.8720 H   0  0  0  0  0  0  0  0  0  0  0  0
   37.8080   23.6640   36.9720 C   0  0  0  0  0  3  0  0  0  0  0  0
   38.6830   23.4990   38.1860 C   0  0  0  0  0  2  0  0  0  0  0  0
   37.7600   24.6590   38.1130 C   0  0  0  0  0  2  0  0  0  0  0  0
   35.8200   29.1700   34.5310 C   0  0  0  0  0  0  0  0  0  0  0  0
   36.4820   28.1050   33.8990 C   0  0  0  0  0  0  0  0  0  0  0  0
   36.2870   27.9570   32.5230 C   0  0  0  0  0  0  0  0  0  0  0  0
   35.4820   28.8380   31.8860 N   0  0  0  0  0  0  0  0  0  0  0  0
   34.8590   29.8540   32.5310 C   0  0  0  0  0  0  0  0  0  0  0  0
   35.0330   30.0200   33.8740 N   0  0  0  0  0  0  0  0  0  0  0  0
   35.9610   29.2990   35.5980 H   0  0  0  0  0  0  0  0  0  0  0  0
   36.7680   27.1600   31.9810 H   0  0  0  0  0  0  0  0  0  0  0  0
   34.2470   30.4780   31.8940 H   0  0  0  0  0  0  0  0  0  0  0  0
  1  5  2  0  0  0  0
  1  2  1  0  0  0  0
  2  6  1  0  0  0  0
  2  3  2  0  0  0  0
  3  7  1  0  0  0  0
  4 12  1  0  0  0  0
  4  3  1  0  0  0  0
  5  4  1  0  0  0  0
  8 13  1  0  0  0  0
  8  9  1  0  0  0  0
  8 12  1  0  0  0  0
  9 14  1  0  0  0  0
  9 10  1  0  0  0  0
 10 16  1  0  0  0  0
 11 10  1  0  0  0  0
 11 18  1  0  0  0  0
 12 11  1  0  0  0  0
 12 20  1  1  0  0  0
 15  9  1  0  0  0  0
 17 10  1  0  0  0  0
 19 11  1  0  0  0  0
 20 22  1  0  0  0  0
 20 21  1  0  0  0  0
 22 21  1  0  0  0  0
 23 29  1  0  0  0  0
 24 23  1  0  0  0  0
 24  1  1  0  0  0  0
 25 24  2  0  0  0  0
 26 25  1  0  0  0  0
 26 27  2  0  0  0  0
 27 28  1  0  0  0  0
 28 23  2  0  0  0  0
 30 25  1  0  0  0  0
 31 27  1  0  0  0  0
M  END
>  <minimizedAffinity>
-4.82370853

$$$$

 OpenBabel03272501253D

 31 34  0  0  1  0  0  0  0  0999 V2000
   38.5610   24.5090   34.6320 C   0  0  0  0  0  0  0  0  0  0  0  0
   39.4670   24.0440   33.6740 C   0  0  0  0  0  0  0  0  0  0  0  0
   39.1160   24.6160   32.4480 C   0  0  0  0  0  0  0  0  0  0  0  0
   38.0350   25.3890   32.7090 N   0  0  0  0  0  0  0  0  0  0  0  0
   37.7290   25.3090   34.0010 N   0  0  0  0  0  0  0  0  0  0  0  0
   40.2990   23.3720   33.7850 H   0  0  0  0  0  0  0  0  0  0  0  0
   39.6050   24.4750   31.4780 H   0  0  0  0  0  0  0  0  0  0  0  0
   36.3840   27.1300   32.4470 N   0  0  0  0  0  0  0  0  0  0  0  0
   36.0110   28.0350   31.3730 C   0  0  0  0  0  0  0  0  0  0  0  0
   37.1150   27.9790   30.3290 C   0  0  0  0  0  0  0  0  0  0  0  0
   38.1790   27.1410   31.0350 C   0  0  0  0  0  0  0  0  0  0  0  0
   37.2920   26.1890   31.7930 C   0  0  1  0  0  0  0  0  0  0  0  0
   35.5260   26.5610   32.6800 H   0  0  0  0  0  0  0  0  0  0  0  0
   35.0890   27.6600   30.8550 H   0  0  0  0  0  0  0  0  0  0  0  0
   35.7860   29.0410   31.7320 H   0  0  0  0  0  0  0  0  0  0  0  0
   36.7980   27.5020   29.3850 H   0  0  0  0  0  0  0  0  0  0  0  0
   37.4710   29.0310   30.1900 H   0  0  0  0  0  0  0  0  0  0  0  0
   38.8650   26.6530   30.3460 H   0  0  0  0  0  0  0  0  0  0  0  0
   38.6570   27.8110   31.7710 H   0  0  0  0  0  0  0  0  0  0  0  0
   36.5290   25.2640   30.8710 C   0  0  0  0  0  3  0  0  0  0  0  0
   36.1060   23.9750   31.5230 C   0  0  0  0  0  2  0  0  0  0  0  0
   35.0750   24.9900   31.1910 C   0  0  0  0  0  2  0  0  0  0  0  0
   37.7460   24.5550   36.9970 C   0  0  0  0  0  0  0  0  0  0  0  0
   38.6480   24.1040   36.0210 C   0  0  0  0  0  0  0  0  0  0  0  0
   39.6580   23.2320   36.4370 C   0  0  0  0  0  0  0  0  0  0  0  0
   39.7080   22.8770   37.7410 N   0  0  0  0  0  0  0  0  0  0  0  0
   38.8190   23.3350   38.6560 C   0  0  0  0  0  0  0  0  0  0  0  0
   37.8230   24.1860   38.2750 N   0  0  0  0  0  0  0  0  0  0  0  0
   36.9560   25.2320   36.6910 H   0  0  0  0  0  0  0  0  0  0  0  0
   40.3810   22.8510   35.7340 H   0  0  0  0  0  0  0  0  0  0  0  0
   38.9830   22.9670   39.6590 H   0  0  0  0  0  0  0  0  0  0  0  0
  1 24  1  0  0  0  0
  2  6  1  0  0  0  0
  2  1  1  0  0  0  0
  3  4  1  0  0  0  0
  3  2  2  0  0  0  0
  4  5  1  0  0  0  0
  5  1  2  0  0  0  0
  7  3  1  0  0  0  0
  8 13  1  0  0  0  0
  9 15  1  0  0  0  0
  9  8  1  0  0  0  0
 10 11  1  0  0  0  0
 10  9  1  0  0  0  0
 11 19  1  0  0  0  0
 11 12  1  0  0  0  0
 12 20  1  6  0  0  0
 12  8  1  0  0  0  0
 12  4  1  0  0  0  0
 14  9  1  0  0  0  0
 16 10  1  0  0  0  0
 17 10  1  0  0  0  0
 18 11  1  0  0  0  0
 20 22  1  0  0  0  0
 20 21  1  0  0  0  0
 22 21  1  0  0  0  0
 23 28  1  0  0  0  0
 24 25  1  0  0  0  0
 24 23  2  0  0  0  0
 25 26  2  0  0  0  0
 26 27  1  0  0  0  0
 27 31  1  0  0  0  0
 28 27  2  0  0  0  0
 29 23  1  0  0  0  0
 30 25  1  0  0  0  0
M  END
>  <minimizedAffinity>
-4.81282949

$$$$

 OpenBabel03272501253D

 31 34  0  0  1  0  0  0  0  0999 V2000
   36.4690   23.5280   31.9530 C   0  0  0  0  0  0  0  0  0  0  0  0
   35.7780   24.5210   31.2510 C   0  0  0  0  0  0  0  0  0  0  0  0
   36.1630   25.7570   31.7790 C   0  0  0  0  0  0  0  0  0  0  0  0
   37.0530   25.4670   32.7580 N   0  0  0  0  0  0  0  0  0  0  0  0
   37.2170   24.1500   32.8400 N   0  0  0  0  0  0  0  0  0  0  0  0
   35.0700   24.4270   30.4480 H   0  0  0  0  0  0  0  0  0  0  0  0
   35.8230   26.7510   31.4730 H   0  0  0  0  0  0  0  0  0  0  0  0
   36.8560   27.2710   34.3490 N   0  0  0  0  0  0  0  0  0  0  0  0
   37.7270   27.8460   35.3600 C   0  0  0  0  0  0  0  0  0  0  0  0
   38.8830   26.8800   35.5650 C   0  0  0  0  0  0  0  0  0  0  0  0
   38.4380   25.6730   34.7400 C   0  0  0  0  0  0  0  0  0  0  0  0
   37.7450   26.3800   33.6060 C   0  0  1  0  0  0  0  0  0  0  0  0
   36.6190   28.0460   33.6710 H   0  0  0  0  0  0  0  0  0  0  0  0
   38.1910   28.7930   34.9760 H   0  0  0  0  0  0  0  0  0  0  0  0
   37.1920   28.1030   36.2760 H   0  0  0  0  0  0  0  0  0  0  0  0
   39.8480   27.2730   35.2010 H   0  0  0  0  0  0  0  0  0  0  0  0
   38.8950   26.6290   36.6550 H   0  0  0  0  0  0  0  0  0  0  0  0
   39.2670   25.0420   34.4270 H   0  0  0  0  0  0  0  0  0  0  0  0
   37.6650   25.1620   35.3390 H   0  0  0  0  0  0  0  0  0  0  0  0
   38.7090   27.1760   32.7550 C   0  0  0  0  0  3  0  0  0  0  0  0
   40.0550   26.5210   32.5920 C   0  0  0  0  0  2  0  0  0  0  0  0
   39.1350   26.5840   31.4280 C   0  0  0  0  0  2  0  0  0  0  0  0
   35.2000   21.3770   32.1110 C   0  0  0  0  0  0  0  0  0  0  0  0
   36.2970   22.1220   31.6490 C   0  0  0  0  0  0  0  0  0  0  0  0
   37.2430   21.4500   30.8690 C   0  0  0  0  0  0  0  0  0  0  0  0
   37.0490   20.1380   30.6070 N   0  0  0  0  0  0  0  0  0  0  0  0
   35.9770   19.4520   31.0720 C   0  0  0  0  0  0  0  0  0  0  0  0
   35.0400   20.0840   31.8360 N   0  0  0  0  0  0  0  0  0  0  0  0
   34.4570   21.8830   32.7180 H   0  0  0  0  0  0  0  0  0  0  0  0
   38.1060   21.9670   30.4840 H   0  0  0  0  0  0  0  0  0  0  0  0
   35.9550   18.4100   30.7840 H   0  0  0  0  0  0  0  0  0  0  0  0
  1  5  2  0  0  0  0
  2  3  2  0  0  0  0
  2  1  1  0  0  0  0
  3  4  1  0  0  0  0
  4  5  1  0  0  0  0
  4 12  1  0  0  0  0
  6  2  1  0  0  0  0
  7  3  1  0  0  0  0
  8  9  1  0  0  0  0
  9 10  1  0  0  0  0
  9 15  1  0  0  0  0
 10 17  1  0  0  0  0
 11 19  1  0  0  0  0
 11 10  1  0  0  0  0
 12 20  1  6  0  0  0
 12  8  1  0  0  0  0
 12 11  1  0  0  0  0
 13  8  1  0  0  0  0
 14  9  1  0  0  0  0
 16 10  1  0  0  0  0
 18 11  1  0  0  0  0
 21 20  1  0  0  0  0
 22 21  1  0  0  0  0
 22 20  1  0  0  0  0
 23 29  1  0  0  0  0
 24  1  1  0  0  0  0
 24 23  2  0  0  0  0
 25 24  1  0  0  0  0
 26 25  2  0  0  0  0
 26 27  1  0  0  0  0
 27 28  2  0  0  0  0
 28 23  1  0  0  0  0
 30 25  1  0  0  0  0
 31 27  1  0  0  0  0
M  END
>  <minimizedAffinity>
-4.65618038

$$$$

 OpenBabel03272501253D

 31 34  0  0  1  0  0  0  0  0999 V2000
   38.2150   24.5550   34.6590 C   0  0  0  0  0  0  0  0  0  0  0  0
   38.0220   23.6520   33.6090 C   0  0  0  0  0  0  0  0  0  0  0  0
   37.8010   24.3970   32.4460 C   0  0  0  0  0  0  0  0  0  0  0  0
   37.8700   25.6940   32.8330 N   0  0  0  0  0  0  0  0  0  0  0  0
   38.1150   25.7600   34.1390 N   0  0  0  0  0  0  0  0  0  0  0  0
   38.0260   22.5780   33.6180 H   0  0  0  0  0  0  0  0  0  0  0  0
   37.6130   24.0220   31.4350 H   0  0  0  0  0  0  0  0  0  0  0  0
   37.0000   26.6020   30.7730 N   0  0  0  0  0  0  0  0  0  0  0  0
   36.6710   27.9350   30.2980 C   0  0  0  0  0  0  0  0  0  0  0  0
   36.6600   28.8560   31.5070 C   0  0  0  0  0  0  0  0  0  0  0  0
   36.8010   27.8670   32.6620 C   0  0  0  0  0  0  0  0  0  0  0  0
   37.7150   26.8560   32.0220 C   0  0  1  0  0  0  0  0  0  0  0  0
   37.7310   26.2130   30.1160 H   0  0  0  0  0  0  0  0  0  0  0  0
   37.4900   28.3200   29.6350 H   0  0  0  0  0  0  0  0  0  0  0  0
   35.7500   27.9550   29.7120 H   0  0  0  0  0  0  0  0  0  0  0  0
   37.4880   29.5850   31.5080 H   0  0  0  0  0  0  0  0  0  0  0  0
   35.6510   29.3400   31.5260 H   0  0  0  0  0  0  0  0  0  0  0  0
   37.2070   28.3190   33.5650 H   0  0  0  0  0  0  0  0  0  0  0  0
   35.8110   27.3940   32.7840 H   0  0  0  0  0  0  0  0  0  0  0  0
   39.0890   27.4240   31.7450 C   0  0  0  0  0  3  0  0  0  0  0  0
   40.2030   26.4260   31.9190 C   0  0  0  0  0  2  0  0  0  0  0  0
   39.8490   26.8830   30.5520 C   0  0  0  0  0  2  0  0  0  0  0  0
   37.7020   24.5270   37.1080 C   0  0  0  0  0  0  0  0  0  0  0  0
   38.4710   24.1040   36.0120 C   0  0  0  0  0  0  0  0  0  0  0  0
   39.5180   23.2160   36.2710 C   0  0  0  0  0  0  0  0  0  0  0  0
   39.7280   22.8180   37.5460 N   0  0  0  0  0  0  0  0  0  0  0  0
   38.9640   23.2490   38.5790 C   0  0  0  0  0  0  0  0  0  0  0  0
   37.9350   24.1160   38.3530 N   0  0  0  0  0  0  0  0  0  0  0  0
   36.8850   25.2160   36.9250 H   0  0  0  0  0  0  0  0  0  0  0  0
   40.1440   22.8550   35.4710 H   0  0  0  0  0  0  0  0  0  0  0  0
   39.2490   22.8480   39.5420 H   0  0  0  0  0  0  0  0  0  0  0  0
  1 24  1  0  0  0  0
  2  6  1  0  0  0  0
  2  1  1  0  0  0  0
  3  4  1  0  0  0  0
  3  2  2  0  0  0  0
  4  5  1  0  0  0  0
  5  1  2  0  0  0  0
  7  3  1  0  0  0  0
  8 12  1  0  0  0  0
  9  8  1  0  0  0  0
  9 10  1  0  0  0  0
 10 16  1  0  0  0  0
 10 17  1  0  0  0  0
 10 11  1  0  0  0  0
 11 19  1  0  0  0  0
 11 18  1  0  0  0  0
 12 20  1  6  0  0  0
 12 11  1  0  0  0  0
 12  4  1  0  0  0  0
 13  8  1  0  0  0  0
 14  9  1  0  0  0  0
 15  9  1  0  0  0  0
 20 21  1  0  0  0  0
 22 20  1  0  0  0  0
 22 21  1  0  0  0  0
 23 28  1  0  0  0  0
 24 25  1  0  0  0  0
 24 23  2  0  0  0  0
 25 26  2  0  0  0  0
 26 27  1  0  0  0  0
 27 31  1  0  0  0  0
 28 27  2  0  0  0  0
 29 23  1  0  0  0  0
 30 25  1  0  0  0  0
M  END
>  <minimizedAffinity>
-4.63276577

$$$$

 OpenBabel03272501253D

 31 34  0  0  1  0  0  0  0  0999 V2000
   36.0890   23.6010   31.3550 C   0  0  0  0  0  0  0  0  0  0  0  0
   34.8960   24.3080   31.1750 C   0  0  0  0  0  0  0  0  0  0  0  0
   35.2280   25.6560   31.0010 C   0  0  0  0  0  0  0  0  0  0  0  0
   36.5790   25.7050   31.0800 N   0  0  0  0  0  0  0  0  0  0  0  0
   37.0620   24.4840   31.2890 N   0  0  0  0  0  0  0  0  0  0  0  0
   33.8830   23.9530   31.1620 H   0  0  0  0  0  0  0  0  0  0  0  0
   34.5470   26.4970   30.8350 H   0  0  0  0  0  0  0  0  0  0  0  0
   38.5210   26.6760   30.0240 N   0  0  0  0  0  0  0  0  0  0  0  0
   39.0100   28.0290   29.8240 C   0  0  0  0  0  0  0  0  0  0  0  0
   37.8670   28.9770   30.1520 C   0  0  0  0  0  0  0  0  0  0  0  0
   36.6970   28.0130   30.3350 C   0  0  0  0  0  0  0  0  0  0  0  0
   37.4180   26.8530   30.9670 C   0  0  1  0  0  0  0  0  0  0  0  0
   39.2630   26.1580   30.5690 H   0  0  0  0  0  0  0  0  0  0  0  0
   39.8160   28.2620   30.5690 H   0  0  0  0  0  0  0  0  0  0  0  0
   39.4410   28.1760   28.8320 H   0  0  0  0  0  0  0  0  0  0  0  0
   38.0400   29.5670   31.0690 H   0  0  0  0  0  0  0  0  0  0  0  0
   37.7140   29.6130   29.2440 H   0  0  0  0  0  0  0  0  0  0  0  0
   35.8970   28.4230   30.9480 H   0  0  0  0  0  0  0  0  0  0  0  0
   36.3920   27.7050   29.3200 H   0  0  0  0  0  0  0  0  0  0  0  0
   37.9430   27.1900   32.3450 C   0  0  0  0  0  3  0  0  0  0  0  0
   36.9390   27.8910   33.2210 C   0  0  0  0  0  2  0  0  0  0  0  0
   37.3150   26.4890   33.5310 C   0  0  0  0  0  2  0  0  0  0  0  0
   35.1360   21.5100   32.3470 C   0  0  0  0  0  0  0  0  0  0  0  0
   36.0970   22.1660   31.5630 C   0  0  0  0  0  0  0  0  0  0  0  0
   37.0900   21.3770   30.9750 C   0  0  0  0  0  0  0  0  0  0  0  0
   37.0670   20.0420   31.1920 N   0  0  0  0  0  0  0  0  0  0  0  0
   36.1210   19.4440   31.9570 C   0  0  0  0  0  0  0  0  0  0  0  0
   35.1410   20.1920   32.5410 N   0  0  0  0  0  0  0  0  0  0  0  0
   34.3580   22.1070   32.8100 H   0  0  0  0  0  0  0  0  0  0  0  0
   37.8560   21.8220   30.3620 H   0  0  0  0  0  0  0  0  0  0  0  0
   36.2290   18.3720   32.0420 H   0  0  0  0  0  0  0  0  0  0  0  0
  1 24  1  0  0  0  0
  2  1  1  0  0  0  0
  3  4  1  0  0  0  0
  3  2  2  0  0  0  0
  4  5  1  0  0  0  0
  5  1  2  0  0  0  0
  6  2  1  0  0  0  0
  7  3  1  0  0  0  0
  8 13  1  0  0  0  0
  8 12  1  0  0  0  0
  9  8  1  0  0  0  0
  9 10  1  0  0  0  0
  9 14  1  0  0  0  0
 10 11  1  0  0  0  0
 10 16  1  0  0  0  0
 11 18  1  0  0  0  0
 11 12  1  0  0  0  0
 12  4  1  0  0  0  0
 12 20  1  1  0  0  0
 15  9  1  0  0  0  0
 17 10  1  0  0  0  0
 19 11  1  0  0  0  0
 20 21  1  0  0  0  0
 20 22  1  0  0  0  0
 21 22  1  0  0  0  0
 23 28  1  0  0  0  0
 23 29  1  0  0  0  0
 24 23  2  0  0  0  0
 25 26  2  0  0  0  0
 25 24  1  0  0  0  0
 26 27  1  0  0  0  0
 27 31  1  0  0  0  0
 27 28  2  0  0  0  0
 30 25  1  0  0  0  0
M  END
>  <minimizedAffinity>
-4.62245941

$$$$

 OpenBabel03272501253D

 31 34  0  0  1  0  0  0  0  0999 V2000
   37.6330   26.9100   34.3070 C   0  0  0  0  0  0  0  0  0  0  0  0
   39.0140   27.0010   34.1110 C   0  0  0  0  0  0  0  0  0  0  0  0
   39.6130   25.9610   34.8280 C   0  0  0  0  0  0  0  0  0  0  0  0
   38.5890   25.2960   35.4160 N   0  0  0  0  0  0  0  0  0  0  0  0
   37.4350   25.8730   35.0930 N   0  0  0  0  0  0  0  0  0  0  0  0
   39.5800   27.7090   33.5340 H   0  0  0  0  0  0  0  0  0  0  0  0
   40.6790   25.7270   34.9050 H   0  0  0  0  0  0  0  0  0  0  0  0
   40.0330   23.7660   36.5990 N   0  0  0  0  0  0  0  0  0  0  0  0
   39.8560   22.8310   37.6970 C   0  0  0  0  0  0  0  0  0  0  0  0
   38.5140   23.1380   38.3420 C   0  0  0  0  0  0  0  0  0  0  0  0
   38.1070   24.4280   37.6310 C   0  0  0  0  0  0  0  0  0  0  0  0
   38.6640   24.1490   36.2600 C   0  0  1  0  0  0  0  0  0  0  0  0
   40.3700   23.2050   35.7700 H   0  0  0  0  0  0  0  0  0  0  0  0
   39.7660   21.7840   37.3020 H   0  0  0  0  0  0  0  0  0  0  0  0
   40.6980   22.8370   38.3920 H   0  0  0  0  0  0  0  0  0  0  0  0
   37.7620   22.3460   38.1830 H   0  0  0  0  0  0  0  0  0  0  0  0
   38.7210   23.3350   39.4240 H   0  0  0  0  0  0  0  0  0  0  0  0
   37.0330   24.6030   37.6450 H   0  0  0  0  0  0  0  0  0  0  0  0
   38.7150   25.2310   38.0830 H   0  0  0  0  0  0  0  0  0  0  0  0
   37.9440   23.0110   35.5720 C   0  0  0  0  0  3  0  0  0  0  0  0
   37.9920   23.0840   34.0700 C   0  0  0  0  0  2  0  0  0  0  0  0
   38.7750   22.0340   34.7670 C   0  0  0  0  0  2  0  0  0  0  0  0
   36.0380   28.8340   34.4280 C   0  0  0  0  0  0  0  0  0  0  0  0
   36.7140   27.8470   33.6930 C   0  0  0  0  0  0  0  0  0  0  0  0
   36.4660   27.7920   32.3190 C   0  0  0  0  0  0  0  0  0  0  0  0
   35.6020   28.6820   31.7820 N   0  0  0  0  0  0  0  0  0  0  0  0
   34.9670   29.6220   32.5250 C   0  0  0  0  0  0  0  0  0  0  0  0
   35.1920   29.6960   33.8680 N   0  0  0  0  0  0  0  0  0  0  0  0
   36.2190   28.8910   35.4960 H   0  0  0  0  0  0  0  0  0  0  0  0
   36.9550   27.0570   31.7000 H   0  0  0  0  0  0  0  0  0  0  0  0
   34.3040   30.2630   31.9610 H   0  0  0  0  0  0  0  0  0  0  0  0
  1  5  2  0  0  0  0
  2  1  1  0  0  0  0
  2  3  2  0  0  0  0
  3  7  1  0  0  0  0
  3  4  1  0  0  0  0
  4 12  1  0  0  0  0
  5  4  1  0  0  0  0
  6  2  1  0  0  0  0
  8  9  1  0  0  0  0
  9 10  1  0  0  0  0
  9 15  1  0  0  0  0
 10 17  1  0  0  0  0
 11 18  1  0  0  0  0
 11 19  1  0  0  0  0
 11 10  1  0  0  0  0
 12 20  1  6  0  0  0
 12  8  1  0  0  0  0
 12 11  1  0  0  0  0
 13  8  1  0  0  0  0
 14  9  1  0  0  0  0
 16 10  1  0  0  0  0
 21 22  1  0  0  0  0
 21 20  1  0  0  0  0
 22 20  1  0  0  0  0
 23 29  1  0  0  0  0
 24  1  1  0  0  0  0
 24 23  2  0  0  0  0
 25 24  1  0  0  0  0
 26 25  2  0  0  0  0
 26 27  1  0  0  0  0
 27 28  2  0  0  0  0
 28 23  1  0  0  0  0
 30 25  1  0  0  0  0
 31 27  1  0  0  0  0
M  END
>  <minimizedAffinity>
-4.61638641

$$$$

 OpenBabel03272501253D

 31 34  0  0  1  0  0  0  0  0999 V2000
   38.5120   25.2940   35.0040 C   0  0  0  0  0  0  0  0  0  0  0  0
   37.5120   26.1570   35.4610 C   0  0  0  0  0  0  0  0  0  0  0  0
   37.1010   26.9390   34.3780 C   0  0  0  0  0  0  0  0  0  0  0  0
   37.8550   26.5250   33.3310 N   0  0  0  0  0  0  0  0  0  0  0  0
   38.6760   25.5560   33.7250 N   0  0  0  0  0  0  0  0  0  0  0  0
   37.0890   26.2580   36.4440 H   0  0  0  0  0  0  0  0  0  0  0  0
   36.3360   27.7210   34.3680 H   0  0  0  0  0  0  0  0  0  0  0  0
   37.1750   28.3090   31.8540 N   0  0  0  0  0  0  0  0  0  0  0  0
   37.5560   28.7360   30.5190 C   0  0  0  0  0  0  0  0  0  0  0  0
   38.8410   28.0050   30.1590 C   0  0  0  0  0  0  0  0  0  0  0  0
   39.2040   27.3320   31.4810 C   0  0  0  0  0  0  0  0  0  0  0  0
   37.8240   27.0070   31.9890 C   0  0  1  0  0  0  0  0  0  0  0  0
   36.1410   28.0940   31.8240 H   0  0  0  0  0  0  0  0  0  0  0  0
   36.7950   28.3900   29.7710 H   0  0  0  0  0  0  0  0  0  0  0  0
   37.6200   29.8220   30.4290 H   0  0  0  0  0  0  0  0  0  0  0  0
   38.7070   27.2580   29.3580 H   0  0  0  0  0  0  0  0  0  0  0  0
   39.5910   28.7950   29.9010 H   0  0  0  0  0  0  0  0  0  0  0  0
   39.8450   26.4610   31.3550 H   0  0  0  0  0  0  0  0  0  0  0  0
   39.6200   28.1260   32.1250 H   0  0  0  0  0  0  0  0  0  0  0  0
   37.1300   25.9720   31.1330 C   0  0  0  0  0  3  0  0  0  0  0  0
   36.3040   24.9900   31.9200 C   0  0  0  0  0  2  0  0  0  0  0  0
   35.6170   26.0010   31.0770 C   0  0  0  0  0  2  0  0  0  0  0  0
   38.5710   23.9060   37.0860 C   0  0  0  0  0  0  0  0  0  0  0  0
   39.1560   24.3400   35.8860 C   0  0  0  0  0  0  0  0  0  0  0  0
   40.4100   23.8160   35.5600 C   0  0  0  0  0  0  0  0  0  0  0  0
   40.9800   22.9300   36.4070 N   0  0  0  0  0  0  0  0  0  0  0  0
   40.3830   22.5340   37.5580 C   0  0  0  0  0  0  0  0  0  0  0  0
   39.1600   23.0320   37.8990 N   0  0  0  0  0  0  0  0  0  0  0  0
   37.5980   24.3030   37.3540 H   0  0  0  0  0  0  0  0  0  0  0  0
   40.9100   24.1100   34.6520 H   0  0  0  0  0  0  0  0  0  0  0  0
   40.9570   21.8230   38.1360 H   0  0  0  0  0  0  0  0  0  0  0  0
  1  2  1  0  0  0  0
  1 24  1  0  0  0  0
  2  6  1  0  0  0  0
  3  2  2  0  0  0  0
  4  5  1  0  0  0  0
  4  3  1  0  0  0  0
  5  1  2  0  0  0  0
  7  3  1  0  0  0  0
  8 12  1  0  0  0  0
  9  8  1  0  0  0  0
 10  9  1  0  0  0  0
 10 11  1  0  0  0  0
 11 12  1  0  0  0  0
 11 19  1  0  0  0  0
 12 20  1  6  0  0  0
 12  4  1  0  0  0  0
 13  8  1  0  0  0  0
 14  9  1  0  0  0  0
 15  9  1  0  0  0  0
 16 10  1  0  0  0  0
 17 10  1  0  0  0  0
 18 11  1  0  0  0  0
 20 21  1  0  0  0  0
 22 20  1  0  0  0  0
 22 21  1  0  0  0  0
 23 29  1  0  0  0  0
 23 28  1  0  0  0  0
 24 23  2  0  0  0  0
 25 24  1  0  0  0  0
 25 26  2  0  0  0  0
 26 27  1  0  0  0  0
 27 28  2  0  0  0  0
 27 31  1  0  0  0  0
 30 25  1  0  0  0  0
M  END
>  <minimizedAffinity>
-4.56680536

$$$$

 OpenBabel03272501253D

 31 34  0  0  1  0  0  0  0  0999 V2000
   37.0000   23.4710   32.4900 C   0  0  0  0  0  0  0  0  0  0  0  0
   36.4940   24.5160   31.7120 C   0  0  0  0  0  0  0  0  0  0  0  0
   37.2320   25.6640   32.0150 C   0  0  0  0  0  0  0  0  0  0  0  0
   38.1370   25.2730   32.9440 N   0  0  0  0  0  0  0  0  0  0  0  0
   37.9800   23.9780   33.2060 N   0  0  0  0  0  0  0  0  0  0  0  0
   35.6910   24.5140   30.9970 H   0  0  0  0  0  0  0  0  0  0  0  0
   37.1120   26.6680   31.5960 H   0  0  0  0  0  0  0  0  0  0  0  0
   40.0600   25.2930   34.4040 N   0  0  0  0  0  0  0  0  0  0  0  0
   41.1400   26.2290   34.6620 C   0  0  0  0  0  0  0  0  0  0  0  0
   41.1180   27.2650   33.5490 C   0  0  0  0  0  0  0  0  0  0  0  0
   40.0830   26.6800   32.5910 C   0  0  0  0  0  0  0  0  0  0  0  0
   39.1310   26.0700   33.5840 C   0  0  1  0  0  0  0  0  0  0  0  0
   39.5550   25.1470   35.3200 H   0  0  0  0  0  0  0  0  0  0  0  0
   40.9390   26.8000   35.6070 H   0  0  0  0  0  0  0  0  0  0  0  0
   42.1040   25.7310   34.7900 H   0  0  0  0  0  0  0  0  0  0  0  0
   40.8140   28.2680   33.8940 H   0  0  0  0  0  0  0  0  0  0  0  0
   42.1360   27.2510   33.0850 H   0  0  0  0  0  0  0  0  0  0  0  0
   39.6290   27.4280   31.9440 H   0  0  0  0  0  0  0  0  0  0  0  0
   40.5900   25.8540   32.0610 H   0  0  0  0  0  0  0  0  0  0  0  0
   38.4290   27.1170   34.4190 C   0  0  0  0  0  3  0  0  0  0  0  0
   37.1490   26.6340   35.0460 C   0  0  0  0  0  2  0  0  0  0  0  0
   38.3290   26.8810   35.9110 C   0  0  0  0  0  2  0  0  0  0  0  0
   36.2030   21.3500   33.5540 C   0  0  0  0  0  0  0  0  0  0  0  0
   36.4520   22.1310   32.4140 C   0  0  0  0  0  0  0  0  0  0  0  0
   36.1500   21.5640   31.1730 C   0  0  0  0  0  0  0  0  0  0  0  0
   35.6410   20.3120   31.1400 N   0  0  0  0  0  0  0  0  0  0  0  0
   35.4150   19.5880   32.2640 C   0  0  0  0  0  0  0  0  0  0  0  0
   35.7010   20.1190   33.4880 N   0  0  0  0  0  0  0  0  0  0  0  0
   36.4310   21.7750   34.5250 H   0  0  0  0  0  0  0  0  0  0  0  0
   36.3180   22.1140   30.2610 H   0  0  0  0  0  0  0  0  0  0  0  0
   35.0060   18.6030   32.0840 H   0  0  0  0  0  0  0  0  0  0  0  0
  1  5  2  0  0  0  0
  2  3  2  0  0  0  0
  2  1  1  0  0  0  0
  3  4  1  0  0  0  0
  4  5  1  0  0  0  0
  4 12  1  0  0  0  0
  6  2  1  0  0  0  0
  7  3  1  0  0  0  0
  8  9  1  0  0  0  0
  8 13  1  0  0  0  0
  9 15  1  0  0  0  0
  9 14  1  0  0  0  0
 10 16  1  0  0  0  0
 10  9  1  0  0  0  0
 11 10  1  0  0  0  0
 11 12  1  0  0  0  0
 12  8  1  0  0  0  0
 12 20  1  1  0  0  0
 17 10  1  0  0  0  0
 18 11  1  0  0  0  0
 19 11  1  0  0  0  0
 20 21  1  0  0  0  0
 20 22  1  0  0  0  0
 21 22  1  0  0  0  0
 23 29  1  0  0  0  0
 24  1  1  0  0  0  0
 24 23  2  0  0  0  0
 25 24  1  0  0  0  0
 26 25  2  0  0  0  0
 26 27  1  0  0  0  0
 27 28  2  0  0  0  0
 28 23  1  0  0  0  0
 30 25  1  0  0  0  0
 31 27  1  0  0  0  0
M  END
>  <minimizedAffinity>
-4.54031038

$$$$
