
 OpenBabel03272506543D

 38 41  0  0  1  0  0  0  0  0999 V2000
   37.4210   27.4540   32.3370 C   0  0  1  0  0  0  0  0  0  0  0  0
   37.1010   28.6960   31.6790 C   0  0  0  0  0  0  0  0  0  0  0  0
   35.9880   29.5180   32.2990 C   0  0  0  0  0  0  0  0  0  0  0  0
   35.9630   29.6020   33.7400 C   0  0  2  0  0  0  0  0  0  0  0  0
   36.3350   28.3090   34.4980 C   0  0  0  0  0  0  0  0  0  0  0  0
   37.4980   27.6270   33.8390 C   0  0  0  0  0  0  0  0  0  0  0  0
   38.4990   27.1810   32.0890 H   0  0  0  0  0  0  0  0  0  0  0  0
   37.9980   29.3800   31.7530 H   0  0  0  0  0  0  0  0  0  0  0  0
   36.8770   28.6440   30.6130 H   0  0  0  0  0  0  0  0  0  0  0  0
   35.0780   28.8920   32.0070 H   0  0  0  0  0  0  0  0  0  0  0  0
   35.9990   30.4870   31.8070 H   0  0  0  0  0  0  0  0  0  0  0  0
   36.7140   30.2850   34.1870 H   0  0  0  0  0  0  0  0  0  0  0  0
   36.7500   28.5830   35.4800 H   0  0  0  0  0  0  0  0  0  0  0  0
   35.4710   27.6490   34.6350 H   0  0  0  0  0  0  0  0  0  0  0  0
   38.4650   28.1460   34.1060 H   0  0  0  0  0  0  0  0  0  0  0  0
   37.5770   26.6100   34.2750 H   0  0  0  0  0  0  0  0  0  0  0  0
   34.5660   29.8860   34.1880 C   0  0  0  0  0  0  0  0  0  0  0  0
   33.5280   29.2900   33.4360 C   0  0  0  0  0  0  0  0  0  0  0  0
   32.2020   29.5280   33.7320 C   0  0  0  0  0  0  0  0  0  0  0  0
   31.9220   30.3490   34.7620 C   0  0  0  0  0  0  0  0  0  0  0  0
   32.9080   30.9400   35.5020 C   0  0  0  0  0  0  0  0  0  0  0  0
   34.2440   30.7100   35.2140 C   0  0  0  0  0  0  0  0  0  0  0  0
   33.5470   28.6300   32.5740 H   0  0  0  0  0  0  0  0  0  0  0  0
   31.3370   29.1290   33.2310 H   0  0  0  0  0  0  0  0  0  0  0  0
   30.8900   30.5940   35.0730 H   0  0  0  0  0  0  0  0  0  0  0  0
   32.6500   31.6020   36.3300 H   0  0  0  0  0  0  0  0  0  0  0  0
   35.2310   31.3790   36.0410 C   0  0  0  0  0  3  0  0  0  0  0  0
   36.3010   32.2660   35.6080 C   0  0  0  0  0  2  0  0  0  0  0  0
   35.0650   32.9380   35.9900 C   0  0  0  0  0  2  0  0  0  0  0  0
   35.5850   26.2870   31.1070 C   0  0  0  0  0  0  0  0  0  0  0  0
   36.6910   26.2390   31.9470 C   0  0  0  0  0  0  0  0  0  0  0  0
   37.0890   24.9840   32.4100 C   0  0  0  0  0  0  0  0  0  0  0  0
   36.3790   23.8820   32.0180 N   0  0  0  0  0  0  0  0  0  0  0  0
   35.3090   23.9730   31.2010 C   0  0  0  0  0  0  0  0  0  0  0  0
   34.9100   25.1930   30.7420 N   0  0  0  0  0  0  0  0  0  0  0  0
   35.1540   27.1350   30.6500 H   0  0  0  0  0  0  0  0  0  0  0  0
   37.9470   24.8690   33.0710 H   0  0  0  0  0  0  0  0  0  0  0  0
   34.8270   23.0360   30.9600 H   0  0  0  0  0  0  0  0  0  0  0  0
  1  7  1  6  0  0  0
  1  6  1  0  0  0  0
  2  8  1  0  0  0  0
  2  3  1  0  0  0  0
  2  1  1  0  0  0  0
  3  4  1  0  0  0  0
  4 12  1  1  0  0  0
  4 17  1  0  0  0  0
  4  5  1  0  0  0  0
  5 14  1  0  0  0  0
  5 13  1  0  0  0  0
  6 15  1  0  0  0  0
  6 16  1  0  0  0  0
  6  5  1  0  0  0  0
  9  2  1  0  0  0  0
 10  3  1  0  0  0  0
 11  3  1  0  0  0  0
 17 22  1  0  0  0  0
 18 19  1  0  0  0  0
 18 17  2  0  0  0  0
 19 20  2  0  0  0  0
 20 25  1  0  0  0  0
 20 21  1  0  0  0  0
 21 26  1  0  0  0  0
 22 21  2  0  0  0  0
 22 27  1  0  0  0  0
 23 18  1  0  0  0  0
 24 19  1  0  0  0  0
 28 29  1  0  0  0  0
 28 27  1  0  0  0  0
 29 27  1  0  0  0  0
 30 31  1  0  0  0  0
 31  1  1  0  0  0  0
 31 32  2  0  0  0  0
 32 37  1  0  0  0  0
 33 32  1  0  0  0  0
 34 33  2  0  0  0  0
 35 30  2  0  0  0  0
 35 34  1  0  0  0  0
 36 30  1  0  0  0  0
 38 34  1  0  0  0  0
M  END
>  <minimizedAffinity>
-5.54382801

$$$$

 OpenBabel03272506543D

 38 41  0  0  1  0  0  0  0  0999 V2000
   39.1110   26.8130   32.6340 C   0  0  1  0  0  0  0  0  0  0  0  0
   40.2320   27.0160   33.5180 C   0  0  0  0  0  0  0  0  0  0  0  0
   40.2990   26.1170   34.7360 C   0  0  0  0  0  0  0  0  0  0  0  0
   39.9590   24.7270   34.5420 C   0  0  2  0  0  0  0  0  0  0  0  0
   38.7890   24.4480   33.5750 C   0  0  0  0  0  0  0  0  0  0  0  0
   38.8740   25.3410   32.3720 C   0  0  0  0  0  0  0  0  0  0  0  0
   39.3990   27.1810   31.5950 H   0  0  0  0  0  0  0  0  0  0  0  0
   41.1790   26.7610   32.9560 H   0  0  0  0  0  0  0  0  0  0  0  0
   40.3910   28.0310   33.8860 H   0  0  0  0  0  0  0  0  0  0  0  0
   39.4580   26.5590   35.3700 H   0  0  0  0  0  0  0  0  0  0  0  0
   41.2780   26.2650   35.1860 H   0  0  0  0  0  0  0  0  0  0  0  0
   40.7400   24.1130   34.0480 H   0  0  0  0  0  0  0  0  0  0  0  0
   38.9250   23.4490   33.1350 H   0  0  0  0  0  0  0  0  0  0  0  0
   37.8170   24.4980   34.0790 H   0  0  0  0  0  0  0  0  0  0  0  0
   39.6540   24.9600   31.6500 H   0  0  0  0  0  0  0  0  0  0  0  0
   37.9080   25.2640   31.8320 H   0  0  0  0  0  0  0  0  0  0  0  0
   39.4910   24.1530   35.8400 C   0  0  0  0  0  0  0  0  0  0  0  0
   38.1840   24.5040   36.2510 C   0  0  0  0  0  0  0  0  0  0  0  0
   37.6730   24.0710   37.4560 C   0  0  0  0  0  0  0  0  0  0  0  0
   38.4570   23.3020   38.2350 C   0  0  0  0  0  0  0  0  0  0  0  0
   39.7250   22.9530   37.8620 C   0  0  0  0  0  0  0  0  0  0  0  0
   40.2510   23.3820   36.6540 C   0  0  0  0  0  0  0  0  0  0  0  0
   37.4210   25.1190   35.7850 H   0  0  0  0  0  0  0  0  0  0  0  0
   36.6980   24.2750   37.8660 H   0  0  0  0  0  0  0  0  0  0  0  0
   38.1300   22.9080   39.2160 H   0  0  0  0  0  0  0  0  0  0  0  0
   40.3370   22.3300   38.5170 H   0  0  0  0  0  0  0  0  0  0  0  0
   41.6060   22.9740   36.3320 C   0  0  0  0  0  3  0  0  0  0  0  0
   42.3090   21.7840   36.7850 C   0  0  0  0  0  2  0  0  0  0  0  0
   41.6270   21.6420   35.5050 C   0  0  0  0  0  2  0  0  0  0  0  0
   37.3050   27.6140   34.1650 C   0  0  0  0  0  0  0  0  0  0  0  0
   37.8650   27.5470   32.8950 C   0  0  0  0  0  0  0  0  0  0  0  0
   37.1940   28.2100   31.8650 C   0  0  0  0  0  0  0  0  0  0  0  0
   36.0390   28.8810   32.1560 N   0  0  0  0  0  0  0  0  0  0  0  0
   35.5280   28.9200   33.4050 C   0  0  0  0  0  0  0  0  0  0  0  0
   36.1730   28.2770   34.4190 N   0  0  0  0  0  0  0  0  0  0  0  0
   37.6760   27.1940   35.0590 H   0  0  0  0  0  0  0  0  0  0  0  0
   37.5740   28.2020   30.8440 H   0  0  0  0  0  0  0  0  0  0  0  0
   34.6110   29.4800   33.5150 H   0  0  0  0  0  0  0  0  0  0  0  0
  1  7  1  6  0  0  0
  1 31  1  0  0  0  0
  1  2  1  0  0  0  0
  2  9  1  0  0  0  0
  2  3  1  0  0  0  0
  3 11  1  0  0  0  0
  3 10  1  0  0  0  0
  4 12  1  6  0  0  0
  4  3  1  0  0  0  0
  4 17  1  0  0  0  0
  5 14  1  0  0  0  0
  5  4  1  0  0  0  0
  6  1  1  0  0  0  0
  6  5  1  0  0  0  0
  8  2  1  0  0  0  0
 13  5  1  0  0  0  0
 15  6  1  0  0  0  0
 16  6  1  0  0  0  0
 17 18  2  0  0  0  0
 17 22  1  0  0  0  0
 18 19  1  0  0  0  0
 19 24  1  0  0  0  0
 19 20  2  0  0  0  0
 20 25  1  0  0  0  0
 21 20  1  0  0  0  0
 21 26  1  0  0  0  0
 22 21  2  0  0  0  0
 23 18  1  0  0  0  0
 27 22  1  0  0  0  0
 27 28  1  0  0  0  0
 29 27  1  0  0  0  0
 29 28  1  0  0  0  0
 30 35  1  0  0  0  0
 30 36  1  0  0  0  0
 31 30  2  0  0  0  0
 32 33  2  0  0  0  0
 32 31  1  0  0  0  0
 33 34  1  0  0  0  0
 34 38  1  0  0  0  0
 34 35  2  0  0  0  0
 37 32  1  0  0  0  0
M  END
>  <minimizedAffinity>
-5.49327946

$$$$

 OpenBabel03272506543D

 38 41  0  0  1  0  0  0  0  0999 V2000
   39.5970   23.8940   34.4130 C   0  0  1  0  0  0  0  0  0  0  0  0
   38.6000   23.6740   33.3960 C   0  0  0  0  0  0  0  0  0  0  0  0
   37.7880   24.8840   32.9780 C   0  0  0  0  0  0  0  0  0  0  0  0
   38.5010   26.1300   32.8300 C   0  0  2  0  0  0  0  0  0  0  0  0
   39.6080   26.4020   33.8710 C   0  0  0  0  0  0  0  0  0  0  0  0
   40.3940   25.1530   34.1440 C   0  0  0  0  0  0  0  0  0  0  0  0
   40.4030   23.0950   34.3100 H   0  0  0  0  0  0  0  0  0  0  0  0
   39.1260   23.3730   32.4410 H   0  0  0  0  0  0  0  0  0  0  0  0
   37.8780   22.8770   33.5790 H   0  0  0  0  0  0  0  0  0  0  0  0
   37.1180   25.0140   33.8940 H   0  0  0  0  0  0  0  0  0  0  0  0
   37.2270   24.5970   32.0920 H   0  0  0  0  0  0  0  0  0  0  0  0
   39.1090   26.2210   31.9060 H   0  0  0  0  0  0  0  0  0  0  0  0
   40.3640   27.0610   33.4190 H   0  0  0  0  0  0  0  0  0  0  0  0
   39.2120   26.8670   34.7810 H   0  0  0  0  0  0  0  0  0  0  0  0
   41.1300   24.9580   33.3090 H   0  0  0  0  0  0  0  0  0  0  0  0
   41.0120   25.3400   35.0460 H   0  0  0  0  0  0  0  0  0  0  0  0
   37.5470   27.2640   33.0220 C   0  0  0  0  0  0  0  0  0  0  0  0
   37.1730   27.5550   34.3540 C   0  0  0  0  0  0  0  0  0  0  0  0
   36.2590   28.5470   34.6400 C   0  0  0  0  0  0  0  0  0  0  0  0
   35.7290   29.2340   33.6100 C   0  0  0  0  0  0  0  0  0  0  0  0
   36.0720   28.9690   32.3140 C   0  0  0  0  0  0  0  0  0  0  0  0
   36.9890   27.9740   32.0130 C   0  0  0  0  0  0  0  0  0  0  0  0
   37.4640   27.1100   35.3000 H   0  0  0  0  0  0  0  0  0  0  0  0
   35.9040   28.8530   35.6100 H   0  0  0  0  0  0  0  0  0  0  0  0
   34.9920   30.0480   33.7450 H   0  0  0  0  0  0  0  0  0  0  0  0
   35.6240   29.5420   31.5000 H   0  0  0  0  0  0  0  0  0  0  0  0
   37.2960   27.7480   30.6130 C   0  0  0  0  0  3  0  0  0  0  0  0
   37.1670   28.6890   29.5100 C   0  0  0  0  0  2  0  0  0  0  0  0
   38.4850   28.6490   30.1310 C   0  0  0  0  0  2  0  0  0  0  0  0
   38.0640   24.3790   36.3270 C   0  0  0  0  0  0  0  0  0  0  0  0
   39.2070   23.7670   35.8240 C   0  0  0  0  0  0  0  0  0  0  0  0
   39.9760   23.0180   36.7170 C   0  0  0  0  0  0  0  0  0  0  0  0
   39.5710   22.9280   38.0200 N   0  0  0  0  0  0  0  0  0  0  0  0
   38.4550   23.5390   38.4680 C   0  0  0  0  0  0  0  0  0  0  0  0
   37.6940   24.2730   37.6070 N   0  0  0  0  0  0  0  0  0  0  0  0
   37.3590   24.9630   35.8040 H   0  0  0  0  0  0  0  0  0  0  0  0
   40.8840   22.5100   36.3950 H   0  0  0  0  0  0  0  0  0  0  0  0
   38.2350   23.3970   39.5160 H   0  0  0  0  0  0  0  0  0  0  0  0
  1  7  1  6  0  0  0
  1 31  1  0  0  0  0
  2  9  1  0  0  0  0
  2  1  1  0  0  0  0
  3  2  1  0  0  0  0
  3 10  1  0  0  0  0
  4 12  1  6  0  0  0
  4  3  1  0  0  0  0
  4 17  1  0  0  0  0
  4  5  1  0  0  0  0
  5  6  1  0  0  0  0
  5 14  1  0  0  0  0
  6  1  1  0  0  0  0
  6 16  1  0  0  0  0
  8  2  1  0  0  0  0
 11  3  1  0  0  0  0
 13  5  1  0  0  0  0
 15  6  1  0  0  0  0
 17 18  1  0  0  0  0
 18 19  2  0  0  0  0
 18 23  1  0  0  0  0
 19 24  1  0  0  0  0
 20 25  1  0  0  0  0
 20 19  1  0  0  0  0
 21 20  2  0  0  0  0
 22 21  1  0  0  0  0
 22 17  2  0  0  0  0
 26 21  1  0  0  0  0
 27 22  1  0  0  0  0
 28 29  1  0  0  0  0
 28 27  1  0  0  0  0
 29 27  1  0  0  0  0
 30 35  1  0  0  0  0
 31 30  2  0  0  0  0
 31 32  1  0  0  0  0
 32 33  2  0  0  0  0
 33 34  1  0  0  0  0
 34 38  1  0  0  0  0
 35 34  2  0  0  0  0
 36 30  1  0  0  0  0
 37 32  1  0  0  0  0
M  END
>  <minimizedAffinity>
-5.45662498

$$$$

 OpenBabel03272506543D

 38 41  0  0  1  0  0  0  0  0999 V2000
   39.0000   25.7490   35.5250 C   0  0  1  0  0  0  0  0  0  0  0  0
   38.4870   26.9940   36.0390 C   0  0  0  0  0  0  0  0  0  0  0  0
   37.7680   27.8870   35.0470 C   0  0  0  0  0  0  0  0  0  0  0  0
   36.8820   27.2390   34.1080 C   0  0  2  0  0  0  0  0  0  0  0  0
   37.3650   25.8820   33.5530 C   0  0  0  0  0  0  0  0  0  0  0  0
   37.9840   25.0560   34.6410 C   0  0  0  0  0  0  0  0  0  0  0  0
   39.0860   25.0090   36.3870 H   0  0  0  0  0  0  0  0  0  0  0  0
   37.6870   26.7610   36.8040 H   0  0  0  0  0  0  0  0  0  0  0  0
   39.1940   27.6380   36.5640 H   0  0  0  0  0  0  0  0  0  0  0  0
   38.6510   28.2690   34.4310 H   0  0  0  0  0  0  0  0  0  0  0  0
   37.2900   28.6770   35.6210 H   0  0  0  0  0  0  0  0  0  0  0  0
   35.9060   26.9170   34.5240 H   0  0  0  0  0  0  0  0  0  0  0  0
   36.4850   25.2810   33.2750 H   0  0  0  0  0  0  0  0  0  0  0  0
   38.0160   26.0020   32.6810 H   0  0  0  0  0  0  0  0  0  0  0  0
   37.1850   24.5870   35.2870 H   0  0  0  0  0  0  0  0  0  0  0  0
   38.5090   24.2070   34.1560 H   0  0  0  0  0  0  0  0  0  0  0  0
   36.7520   28.0950   32.8900 C   0  0  0  0  0  0  0  0  0  0  0  0
   37.6780   27.8550   31.8480 C   0  0  0  0  0  0  0  0  0  0  0  0
   37.6790   28.6220   30.7030 C   0  0  0  0  0  0  0  0  0  0  0  0
   36.7700   29.6110   30.6030 C   0  0  0  0  0  0  0  0  0  0  0  0
   35.8670   29.8640   31.5980 C   0  0  0  0  0  0  0  0  0  0  0  0
   35.8560   29.1020   32.7550 C   0  0  0  0  0  0  0  0  0  0  0  0
   38.4850   27.1360   31.7500 H   0  0  0  0  0  0  0  0  0  0  0  0
   38.3320   28.5290   29.8520 H   0  0  0  0  0  0  0  0  0  0  0  0
   36.6960   30.2740   29.7200 H   0  0  0  0  0  0  0  0  0  0  0  0
   35.1440   30.6740   31.4880 H   0  0  0  0  0  0  0  0  0  0  0  0
   34.8720   29.4370   33.7670 C   0  0  0  0  0  3  0  0  0  0  0  0
   35.0250   30.3510   34.8880 C   0  0  0  0  0  2  0  0  0  0  0  0
   34.4530   30.9460   33.6870 C   0  0  0  0  0  2  0  0  0  0  0  0
   40.9400   26.8630   34.4130 C   0  0  0  0  0  0  0  0  0  0  0  0
   40.3530   25.7250   34.9530 C   0  0  0  0  0  0  0  0  0  0  0  0
   41.1030   24.5480   34.9340 C   0  0  0  0  0  0  0  0  0  0  0  0
   42.3590   24.5760   34.3920 N   0  0  0  0  0  0  0  0  0  0  0  0
   42.8920   25.7030   33.8770 C   0  0  0  0  0  0  0  0  0  0  0  0
   42.1700   26.8600   33.8890 N   0  0  0  0  0  0  0  0  0  0  0  0
   40.5370   27.8360   34.3560 H   0  0  0  0  0  0  0  0  0  0  0  0
   40.7080   23.6180   35.3400 H   0  0  0  0  0  0  0  0  0  0  0  0
   43.8910   25.6040   33.4770 H   0  0  0  0  0  0  0  0  0  0  0  0
  1  2  1  0  0  0  0
  1  7  1  1  0  0  0
  2  9  1  0  0  0  0
  2  8  1  0  0  0  0
  3 11  1  0  0  0  0
  3  2  1  0  0  0  0
  4 12  1  1  0  0  0
  4  3  1  0  0  0  0
  5  4  1  0  0  0  0
  5  6  1  0  0  0  0
  6 15  1  0  0  0  0
  6  1  1  0  0  0  0
 10  3  1  0  0  0  0
 13  5  1  0  0  0  0
 14  5  1  0  0  0  0
 16  6  1  0  0  0  0
 17  4  1  0  0  0  0
 18 17  2  0  0  0  0
 19 18  1  0  0  0  0
 20 19  2  0  0  0  0
 20 21  1  0  0  0  0
 21 22  2  0  0  0  0
 22 17  1  0  0  0  0
 22 27  1  0  0  0  0
 23 18  1  0  0  0  0
 24 19  1  0  0  0  0
 25 20  1  0  0  0  0
 26 21  1  0  0  0  0
 27 28  1  0  0  0  0
 29 27  1  0  0  0  0
 29 28  1  0  0  0  0
 30 31  1  0  0  0  0
 31  1  1  0  0  0  0
 32 31  2  0  0  0  0
 32 37  1  0  0  0  0
 33 32  1  0  0  0  0
 34 35  1  0  0  0  0
 34 33  2  0  0  0  0
 35 30  2  0  0  0  0
 36 30  1  0  0  0  0
 38 34  1  0  0  0  0
M  END
>  <minimizedAffinity>
-5.2169981

$$$$

 OpenBabel03272506543D

 38 41  0  0  1  0  0  0  0  0999 V2000
   36.3790   26.8190   31.8280 C   0  0  1  0  0  0  0  0  0  0  0  0
   35.3070   26.0790   31.2080 C   0  0  0  0  0  0  0  0  0  0  0  0
   35.5810   24.6180   30.9130 C   0  0  0  0  0  0  0  0  0  0  0  0
   36.2930   23.8700   31.9220 C   0  0  2  0  0  0  0  0  0  0  0  0
   37.4280   24.6250   32.6460 C   0  0  0  0  0  0  0  0  0  0  0  0
   37.0120   26.0330   32.9570 C   0  0  0  0  0  0  0  0  0  0  0  0
   35.9310   27.6990   32.3940 H   0  0  0  0  0  0  0  0  0  0  0  0
   34.4390   26.0390   31.9310 H   0  0  0  0  0  0  0  0  0  0  0  0
   34.8880   26.4970   30.2920 H   0  0  0  0  0  0  0  0  0  0  0  0
   36.3000   24.7140   30.0300 H   0  0  0  0  0  0  0  0  0  0  0  0
   34.6330   24.1700   30.6290 H   0  0  0  0  0  0  0  0  0  0  0  0
   35.6910   23.5770   32.8070 H   0  0  0  0  0  0  0  0  0  0  0  0
   37.5560   24.1920   33.6500 H   0  0  0  0  0  0  0  0  0  0  0  0
   38.3750   24.5690   32.0980 H   0  0  0  0  0  0  0  0  0  0  0  0
   36.3280   26.0550   33.8560 H   0  0  0  0  0  0  0  0  0  0  0  0
   37.9220   26.5890   33.2630 H   0  0  0  0  0  0  0  0  0  0  0  0
   36.9900   22.7180   31.2750 C   0  0  0  0  0  0  0  0  0  0  0  0
   38.2290   22.9980   30.6520 C   0  0  0  0  0  0  0  0  0  0  0  0
   38.9290   22.0190   29.9810 C   0  0  0  0  0  0  0  0  0  0  0  0
   38.3990   20.7810   29.9340 C   0  0  0  0  0  0  0  0  0  0  0  0
   37.2020   20.4870   30.5250 C   0  0  0  0  0  0  0  0  0  0  0  0
   36.4870   21.4620   31.2020 C   0  0  0  0  0  0  0  0  0  0  0  0
   38.8000   23.9160   30.5610 H   0  0  0  0  0  0  0  0  0  0  0  0
   39.8750   22.1180   29.4750 H   0  0  0  0  0  0  0  0  0  0  0  0
   38.8920   19.9340   29.4220 H   0  0  0  0  0  0  0  0  0  0  0  0
   36.7970   19.4750   30.4680 H   0  0  0  0  0  0  0  0  0  0  0  0
   35.2220   21.0730   31.7960 C   0  0  0  0  0  3  0  0  0  0  0  0
   34.7690   19.7300   32.1250 C   0  0  0  0  0  2  0  0  0  0  0  0
   35.4230   20.4400   33.2170 C   0  0  0  0  0  2  0  0  0  0  0  0
   38.7390   27.3670   31.2180 C   0  0  0  0  0  0  0  0  0  0  0  0
   37.3760   27.4710   30.9680 C   0  0  0  0  0  0  0  0  0  0  0  0
   36.9840   28.2250   29.8600 C   0  0  0  0  0  0  0  0  0  0  0  0
   37.9490   28.8120   29.0880 N   0  0  0  0  0  0  0  0  0  0  0  0
   39.2630   28.6860   29.3660 C   0  0  0  0  0  0  0  0  0  0  0  0
   39.6600   27.9540   30.4460 N   0  0  0  0  0  0  0  0  0  0  0  0
   39.2170   26.8320   31.9900 H   0  0  0  0  0  0  0  0  0  0  0  0
   35.9340   28.3500   29.6020 H   0  0  0  0  0  0  0  0  0  0  0  0
   39.9330   29.1940   28.6870 H   0  0  0  0  0  0  0  0  0  0  0  0
  1  7  1  1  0  0  0
  1  6  1  0  0  0  0
  2  1  1  0  0  0  0
  2  8  1  0  0  0  0
  3  2  1  0  0  0  0
  3  4  1  0  0  0  0
  4  5  1  0  0  0  0
  4 12  1  1  0  0  0
  5  6  1  0  0  0  0
  5 13  1  0  0  0  0
  6 16  1  0  0  0  0
  6 15  1  0  0  0  0
  9  2  1  0  0  0  0
 10  3  1  0  0  0  0
 11  3  1  0  0  0  0
 14  5  1  0  0  0  0
 17  4  1  0  0  0  0
 18 17  2  0  0  0  0
 19 18  1  0  0  0  0
 20 19  2  0  0  0  0
 20 21  1  0  0  0  0
 21 22  2  0  0  0  0
 22 17  1  0  0  0  0
 22 27  1  0  0  0  0
 23 18  1  0  0  0  0
 24 19  1  0  0  0  0
 25 20  1  0  0  0  0
 26 21  1  0  0  0  0
 27 28  1  0  0  0  0
 27 29  1  0  0  0  0
 28 29  1  0  0  0  0
 30 36  1  0  0  0  0
 31 30  1  0  0  0  0
 31  1  1  0  0  0  0
 32 31  2  0  0  0  0
 33 34  2  0  0  0  0
 33 32  1  0  0  0  0
 34 35  1  0  0  0  0
 35 30  2  0  0  0  0
 37 32  1  0  0  0  0
 38 34  1  0  0  0  0
M  END
>  <minimizedAffinity>
-5.15225983

$$$$

 OpenBabel03272506543D

 38 41  0  0  1  0  0  0  0  0999 V2000
   35.4160   31.4020   32.1020 C   0  0  1  0  0  0  0  0  0  0  0  0
   36.2780   30.7200   31.1690 C   0  0  0  0  0  0  0  0  0  0  0  0
   36.7520   29.3390   31.5780 C   0  0  0  0  0  0  0  0  0  0  0  0
   35.7830   28.4760   32.2100 C   0  0  2  0  0  0  0  0  0  0  0  0
   34.8080   29.1610   33.1910 C   0  0  0  0  0  0  0  0  0  0  0  0
   34.3450   30.4780   32.6430 C   0  0  0  0  0  0  0  0  0  0  0  0
   34.7870   32.1580   31.5270 H   0  0  0  0  0  0  0  0  0  0  0  0
   35.6920   30.5210   30.2230 H   0  0  0  0  0  0  0  0  0  0  0  0
   37.1680   31.2570   30.8390 H   0  0  0  0  0  0  0  0  0  0  0  0
   37.5070   29.6100   32.3930 H   0  0  0  0  0  0  0  0  0  0  0  0
   37.2250   28.8960   30.7060 H   0  0  0  0  0  0  0  0  0  0  0  0
   35.0410   28.0160   31.5250 H   0  0  0  0  0  0  0  0  0  0  0  0
   33.8740   28.5790   33.2240 H   0  0  0  0  0  0  0  0  0  0  0  0
   35.2270   29.2390   34.2000 H   0  0  0  0  0  0  0  0  0  0  0  0
   33.5520   30.3230   31.8540 H   0  0  0  0  0  0  0  0  0  0  0  0
   33.8400   31.0220   33.4670 H   0  0  0  0  0  0  0  0  0  0  0  0
   36.4990   27.4770   33.0600 C   0  0  0  0  0  0  0  0  0  0  0  0
   36.8180   27.8820   34.3770 C   0  0  0  0  0  0  0  0  0  0  0  0
   37.5230   27.0580   35.2270 C   0  0  0  0  0  0  0  0  0  0  0  0
   37.9030   25.8500   34.7680 C   0  0  0  0  0  0  0  0  0  0  0  0
   37.6090   25.4380   33.4980 C   0  0  0  0  0  0  0  0  0  0  0  0
   36.9020   26.2570   32.6320 C   0  0  0  0  0  0  0  0  0  0  0  0
   36.6250   28.8050   34.9150 H   0  0  0  0  0  0  0  0  0  0  0  0
   37.8180   27.2610   36.2430 H   0  0  0  0  0  0  0  0  0  0  0  0
   38.4680   25.1240   35.3800 H   0  0  0  0  0  0  0  0  0  0  0  0
   37.9330   24.4540   33.1530 H   0  0  0  0  0  0  0  0  0  0  0  0
   36.6360   25.7500   31.2990 C   0  0  0  0  0  3  0  0  0  0  0  0
   36.5510   24.3610   30.8750 C   0  0  0  0  0  2  0  0  0  0  0  0
   35.2780   24.9690   31.2390 C   0  0  0  0  0  2  0  0  0  0  0  0
   36.9220   33.2510   32.8490 C   0  0  0  0  0  0  0  0  0  0  0  0
   36.0260   32.2320   33.1500 C   0  0  0  0  0  0  0  0  0  0  0  0
   35.7230   32.0240   34.4970 C   0  0  0  0  0  0  0  0  0  0  0  0
   36.3140   32.8230   35.4360 N   0  0  0  0  0  0  0  0  0  0  0  0
   37.1800   33.8010   35.1010 C   0  0  0  0  0  0  0  0  0  0  0  0
   37.4860   34.0150   33.7900 N   0  0  0  0  0  0  0  0  0  0  0  0
   37.2540   33.5620   31.8980 H   0  0  0  0  0  0  0  0  0  0  0  0
   35.0290   31.2440   34.8080 H   0  0  0  0  0  0  0  0  0  0  0  0
   37.5850   34.3670   35.9280 H   0  0  0  0  0  0  0  0  0  0  0  0
  1  7  1  6  0  0  0
  1  6  1  0  0  0  0
  1 31  1  0  0  0  0
  2  3  1  0  0  0  0
  2  1  1  0  0  0  0
  3  4  1  0  0  0  0
  3 10  1  0  0  0  0
  4 12  1  6  0  0  0
  4 17  1  0  0  0  0
  4  5  1  0  0  0  0
  5 13  1  0  0  0  0
  5 14  1  0  0  0  0
  6  5  1  0  0  0  0
  6 16  1  0  0  0  0
  8  2  1  0  0  0  0
  9  2  1  0  0  0  0
 11  3  1  0  0  0  0
 15  6  1  0  0  0  0
 17 18  1  0  0  0  0
 18 23  1  0  0  0  0
 18 19  2  0  0  0  0
 19 24  1  0  0  0  0
 20 19  1  0  0  0  0
 20 25  1  0  0  0  0
 21 20  2  0  0  0  0
 22 17  2  0  0  0  0
 22 21  1  0  0  0  0
 26 21  1  0  0  0  0
 27 22  1  0  0  0  0
 28 29  1  0  0  0  0
 28 27  1  0  0  0  0
 29 27  1  0  0  0  0
 30 31  2  0  0  0  0
 30 35  1  0  0  0  0
 31 32  1  0  0  0  0
 32 37  1  0  0  0  0
 32 33  2  0  0  0  0
 34 33  1  0  0  0  0
 34 38  1  0  0  0  0
 35 34  2  0  0  0  0
 36 30  1  0  0  0  0
M  END
>  <minimizedAffinity>
-5.13189793

$$$$

 OpenBabel03272506543D

 38 41  0  0  1  0  0  0  0  0999 V2000
   37.3400   22.1100   31.0520 C   0  0  1  0  0  0  0  0  0  0  0  0
   36.6940   23.3670   31.3370 C   0  0  0  0  0  0  0  0  0  0  0  0
   36.9390   23.9530   32.7130 C   0  0  0  0  0  0  0  0  0  0  0  0
   38.2830   23.8620   33.2320 C   0  0  2  0  0  0  0  0  0  0  0  0
   39.0370   22.5500   32.9240 C   0  0  0  0  0  0  0  0  0  0  0  0
   38.7820   22.1130   31.5120 C   0  0  0  0  0  0  0  0  0  0  0  0
   37.4660   22.0160   29.9240 H   0  0  0  0  0  0  0  0  0  0  0  0
   37.1200   24.1520   30.6430 H   0  0  0  0  0  0  0  0  0  0  0  0
   35.6150   23.4120   31.1800 H   0  0  0  0  0  0  0  0  0  0  0  0
   36.3080   23.2490   33.3560 H   0  0  0  0  0  0  0  0  0  0  0  0
   36.5460   24.9660   32.7010 H   0  0  0  0  0  0  0  0  0  0  0  0
   39.0070   24.5820   32.7990 H   0  0  0  0  0  0  0  0  0  0  0  0
   40.1180   22.7590   32.9130 H   0  0  0  0  0  0  0  0  0  0  0  0
   38.8220   21.7690   33.6610 H   0  0  0  0  0  0  0  0  0  0  0  0
   39.4030   22.7220   30.7910 H   0  0  0  0  0  0  0  0  0  0  0  0
   39.1510   21.0720   31.4150 H   0  0  0  0  0  0  0  0  0  0  0  0
   38.2340   23.9010   34.7250 C   0  0  0  0  0  0  0  0  0  0  0  0
   38.2000   22.6520   35.3890 C   0  0  0  0  0  0  0  0  0  0  0  0
   38.1020   22.5750   36.7620 C   0  0  0  0  0  0  0  0  0  0  0  0
   38.0380   23.7260   37.4570 C   0  0  0  0  0  0  0  0  0  0  0  0
   38.0650   24.9450   36.8380 C   0  0  0  0  0  0  0  0  0  0  0  0
   38.1620   25.0370   35.4590 C   0  0  0  0  0  0  0  0  0  0  0  0
   38.2180   21.6340   35.0130 H   0  0  0  0  0  0  0  0  0  0  0  0
   38.0700   21.6850   37.3680 H   0  0  0  0  0  0  0  0  0  0  0  0
   37.9610   23.7600   38.5600 H   0  0  0  0  0  0  0  0  0  0  0  0
   38.0090   25.8610   37.4290 H   0  0  0  0  0  0  0  0  0  0  0  0
   38.1780   26.3660   34.8760 C   0  0  0  0  0  3  0  0  0  0  0  0
   38.4800   27.6250   35.5400 C   0  0  0  0  0  2  0  0  0  0  0  0
   39.6190   26.9860   34.8930 C   0  0  0  0  0  2  0  0  0  0  0  0
   35.2770   20.8360   31.6590 C   0  0  0  0  0  0  0  0  0  0  0  0
   36.6420   20.8640   31.3970 C   0  0  0  0  0  0  0  0  0  0  0  0
   37.3320   19.6520   31.4720 C   0  0  0  0  0  0  0  0  0  0  0  0
   36.6390   18.5180   31.7950 N   0  0  0  0  0  0  0  0  0  0  0  0
   35.3130   18.5350   32.0430 C   0  0  0  0  0  0  0  0  0  0  0  0
   34.6260   19.7110   31.9730 N   0  0  0  0  0  0  0  0  0  0  0  0
   34.5960   21.6410   31.6330 H   0  0  0  0  0  0  0  0  0  0  0  0
   38.4020   19.5970   31.2790 H   0  0  0  0  0  0  0  0  0  0  0  0
   34.8730   17.5790   32.2880 H   0  0  0  0  0  0  0  0  0  0  0  0
  1  7  1  6  0  0  0
  1  2  1  0  0  0  0
  1 31  1  0  0  0  0
  1  6  1  0  0  0  0
  2  3  1  0  0  0  0
  3  4  1  0  0  0  0
  3 10  1  0  0  0  0
  4 12  1  6  0  0  0
  4 17  1  0  0  0  0
  5  4  1  0  0  0  0
  5 14  1  0  0  0  0
  6  5  1  0  0  0  0
  8  2  1  0  0  0  0
  9  2  1  0  0  0  0
 11  3  1  0  0  0  0
 13  5  1  0  0  0  0
 15  6  1  0  0  0  0
 16  6  1  0  0  0  0
 17 18  2  0  0  0  0
 17 22  1  0  0  0  0
 18 19  1  0  0  0  0
 19 24  1  0  0  0  0
 19 20  2  0  0  0  0
 20 25  1  0  0  0  0
 21 26  1  0  0  0  0
 21 20  1  0  0  0  0
 22 21  2  0  0  0  0
 23 18  1  0  0  0  0
 27 29  1  0  0  0  0
 27 22  1  0  0  0  0
 27 28  1  0  0  0  0
 29 28  1  0  0  0  0
 30 35  1  0  0  0  0
 31 32  1  0  0  0  0
 31 30  2  0  0  0  0
 32 33  2  0  0  0  0
 33 34  1  0  0  0  0
 34 38  1  0  0  0  0
 35 34  2  0  0  0  0
 36 30  1  0  0  0  0
 37 32  1  0  0  0  0
M  END
>  <minimizedAffinity>
-5.11839342

$$$$

 OpenBabel03272506543D

 38 41  0  0  1  0  0  0  0  0999 V2000
   35.7220   27.9570   31.8540 C   0  0  1  0  0  0  0  0  0  0  0  0
   35.9360   26.5420   31.6810 C   0  0  0  0  0  0  0  0  0  0  0  0
   37.1180   25.9460   32.4190 C   0  0  0  0  0  0  0  0  0  0  0  0
   37.3460   26.4060   33.7690 C   0  0  2  0  0  0  0  0  0  0  0  0
   37.0960   27.9080   34.0200 C   0  0  0  0  0  0  0  0  0  0  0  0
   35.8570   28.3640   33.3060 C   0  0  0  0  0  0  0  0  0  0  0  0
   34.6230   28.1830   31.6610 H   0  0  0  0  0  0  0  0  0  0  0  0
   35.0520   25.9920   32.1230 H   0  0  0  0  0  0  0  0  0  0  0  0
   36.0070   26.1770   30.6560 H   0  0  0  0  0  0  0  0  0  0  0  0
   37.9830   26.3600   31.7980 H   0  0  0  0  0  0  0  0  0  0  0  0
   37.0300   24.8650   32.3380 H   0  0  0  0  0  0  0  0  0  0  0  0
   36.6600   25.9870   34.5330 H   0  0  0  0  0  0  0  0  0  0  0  0
   36.8220   28.0480   35.0770 H   0  0  0  0  0  0  0  0  0  0  0  0
   37.9760   28.5170   33.7850 H   0  0  0  0  0  0  0  0  0  0  0  0
   34.9330   28.0430   33.8710 H   0  0  0  0  0  0  0  0  0  0  0  0
   35.8490   29.4730   33.3300 H   0  0  0  0  0  0  0  0  0  0  0  0
   38.7900   26.2250   34.1090 C   0  0  0  0  0  0  0  0  0  0  0  0
   39.6940   27.1490   33.5370 C   0  0  0  0  0  0  0  0  0  0  0  0
   41.0530   27.0420   33.7430 C   0  0  0  0  0  0  0  0  0  0  0  0
   41.4980   26.0270   34.5090 C   0  0  0  0  0  0  0  0  0  0  0  0
   40.6440   25.1190   35.0700 C   0  0  0  0  0  0  0  0  0  0  0  0
   39.2760   25.2150   34.8690 C   0  0  0  0  0  0  0  0  0  0  0  0
   39.5380   28.0040   32.8860 H   0  0  0  0  0  0  0  0  0  0  0  0
   41.8270   27.6850   33.3610 H   0  0  0  0  0  0  0  0  0  0  0  0
   42.5690   25.8650   34.7310 H   0  0  0  0  0  0  0  0  0  0  0  0
   41.0350   24.3060   35.6850 H   0  0  0  0  0  0  0  0  0  0  0  0
   38.4360   24.2090   35.4930 C   0  0  0  0  0  3  0  0  0  0  0  0
   38.7340   23.4050   36.6680 C   0  0  0  0  0  2  0  0  0  0  0  0
   38.0010   24.6360   36.9380 C   0  0  0  0  0  2  0  0  0  0  0  0
   36.9860   28.4610   29.7580 C   0  0  0  0  0  0  0  0  0  0  0  0
   36.4000   28.8900   30.9430 C   0  0  0  0  0  0  0  0  0  0  0  0
   36.4780   30.2520   31.2390 C   0  0  0  0  0  0  0  0  0  0  0  0
   37.1180   31.0820   30.3590 N   0  0  0  0  0  0  0  0  0  0  0  0
   37.6750   30.6240   29.2190 C   0  0  0  0  0  0  0  0  0  0  0  0
   37.6070   29.2960   28.9180 N   0  0  0  0  0  0  0  0  0  0  0  0
   37.0120   27.4830   29.3650 H   0  0  0  0  0  0  0  0  0  0  0  0
   36.0410   30.6610   32.1490 H   0  0  0  0  0  0  0  0  0  0  0  0
   38.1540   31.3710   28.6020 H   0  0  0  0  0  0  0  0  0  0  0  0
  1  7  1  6  0  0  0
  1  6  1  0  0  0  0
  2  1  1  0  0  0  0
  2  8  1  0  0  0  0
  2  3  1  0  0  0  0
  3  4  1  0  0  0  0
  4  5  1  0  0  0  0
  4 17  1  0  0  0  0
  4 12  1  1  0  0  0
  5 13  1  0  0  0  0
  6 16  1  0  0  0  0
  6 15  1  0  0  0  0
  6  5  1  0  0  0  0
  9  2  1  0  0  0  0
 10  3  1  0  0  0  0
 11  3  1  0  0  0  0
 14  5  1  0  0  0  0
 17 22  1  0  0  0  0
 18 19  1  0  0  0  0
 18 17  2  0  0  0  0
 19 20  2  0  0  0  0
 20 25  1  0  0  0  0
 20 21  1  0  0  0  0
 21 26  1  0  0  0  0
 22 21  2  0  0  0  0
 22 27  1  0  0  0  0
 23 18  1  0  0  0  0
 24 19  1  0  0  0  0
 27 28  1  0  0  0  0
 27 29  1  0  0  0  0
 28 29  1  0  0  0  0
 30 31  1  0  0  0  0
 31 32  2  0  0  0  0
 31  1  1  0  0  0  0
 32 37  1  0  0  0  0
 33 32  1  0  0  0  0
 34 33  2  0  0  0  0
 35 34  1  0  0  0  0
 35 30  2  0  0  0  0
 36 30  1  0  0  0  0
 38 34  1  0  0  0  0
M  END
>  <minimizedAffinity>
-5.11051702

$$$$

 OpenBabel03272506543D

 38 41  0  0  1  0  0  0  0  0999 V2000
   39.2040   26.5010   35.7240 C   0  0  1  0  0  0  0  0  0  0  0  0
   39.8810   26.3790   34.4570 C   0  0  0  0  0  0  0  0  0  0  0  0
   39.0010   26.1640   33.2420 C   0  0  0  0  0  0  0  0  0  0  0  0
   37.7800   26.9330   33.1750 C   0  0  2  0  0  0  0  0  0  0  0  0
   37.0320   27.1270   34.5110 C   0  0  0  0  0  0  0  0  0  0  0  0
   37.9990   27.4120   35.6210 C   0  0  0  0  0  0  0  0  0  0  0  0
   39.8690   27.0910   36.4350 H   0  0  0  0  0  0  0  0  0  0  0  0
   40.3960   27.3610   34.2330 H   0  0  0  0  0  0  0  0  0  0  0  0
   40.6700   25.6290   34.3920 H   0  0  0  0  0  0  0  0  0  0  0  0
   38.6790   25.0800   33.4050 H   0  0  0  0  0  0  0  0  0  0  0  0
   39.6360   26.2800   32.3670 H   0  0  0  0  0  0  0  0  0  0  0  0
   37.9070   27.9980   32.8930 H   0  0  0  0  0  0  0  0  0  0  0  0
   36.4530   28.0620   34.4580 H   0  0  0  0  0  0  0  0  0  0  0  0
   36.3590   26.2910   34.7310 H   0  0  0  0  0  0  0  0  0  0  0  0
   38.3460   28.4860   35.5790 H   0  0  0  0  0  0  0  0  0  0  0  0
   37.4440   27.3180   36.5770 H   0  0  0  0  0  0  0  0  0  0  0  0
   36.7930   26.2080   32.3170 C   0  0  0  0  0  0  0  0  0  0  0  0
   36.7720   24.7990   32.4310 C   0  0  0  0  0  0  0  0  0  0  0  0
   35.9370   24.0310   31.6490 C   0  0  0  0  0  0  0  0  0  0  0  0
   35.1380   24.6630   30.7680 C   0  0  0  0  0  0  0  0  0  0  0  0
   35.1430   26.0240   30.6370 C   0  0  0  0  0  0  0  0  0  0  0  0
   35.9790   26.8070   31.4160 C   0  0  0  0  0  0  0  0  0  0  0  0
   37.3430   24.1170   33.0530 H   0  0  0  0  0  0  0  0  0  0  0  0
   35.8380   22.9590   31.6520 H   0  0  0  0  0  0  0  0  0  0  0  0
   34.4350   24.1280   30.1020 H   0  0  0  0  0  0  0  0  0  0  0  0
   34.4850   26.5060   29.9110 H   0  0  0  0  0  0  0  0  0  0  0  0
   35.9310   28.2430   31.2130 C   0  0  0  0  0  3  0  0  0  0  0  0
   37.0280   29.1930   31.3140 C   0  0  0  0  0  2  0  0  0  0  0  0
   36.7860   28.6790   29.9720 C   0  0  0  0  0  2  0  0  0  0  0  0
   38.0750   25.2890   37.5960 C   0  0  0  0  0  0  0  0  0  0  0  0
   38.9230   25.2810   36.4940 C   0  0  0  0  0  0  0  0  0  0  0  0
   39.5020   24.0610   36.1420 C   0  0  0  0  0  0  0  0  0  0  0  0
   39.2090   22.9530   36.8880 N   0  0  0  0  0  0  0  0  0  0  0  0
   38.3810   23.0040   37.9520 C   0  0  0  0  0  0  0  0  0  0  0  0
   37.8080   24.1890   38.3070 N   0  0  0  0  0  0  0  0  0  0  0  0
   37.5400   26.1050   37.9950 H   0  0  0  0  0  0  0  0  0  0  0  0
   40.1760   23.9780   35.2900 H   0  0  0  0  0  0  0  0  0  0  0  0
   38.2240   22.0660   38.4650 H   0  0  0  0  0  0  0  0  0  0  0  0
  1  7  1  1  0  0  0
  1 31  1  0  0  0  0
  2  1  1  0  0  0  0
  3 10  1  0  0  0  0
  3  2  1  0  0  0  0
  4 12  1  6  0  0  0
  4  3  1  0  0  0  0
  4  5  1  0  0  0  0
  5 14  1  0  0  0  0
  5  6  1  0  0  0  0
  6  1  1  0  0  0  0
  6 16  1  0  0  0  0
  8  2  1  0  0  0  0
  9  2  1  0  0  0  0
 11  3  1  0  0  0  0
 13  5  1  0  0  0  0
 15  6  1  0  0  0  0
 17 18  1  0  0  0  0
 17  4  1  0  0  0  0
 18 23  1  0  0  0  0
 19 24  1  0  0  0  0
 19 18  2  0  0  0  0
 20 19  1  0  0  0  0
 21 20  2  0  0  0  0
 21 22  1  0  0  0  0
 22 17  2  0  0  0  0
 25 20  1  0  0  0  0
 26 21  1  0  0  0  0
 27 28  1  0  0  0  0
 27 22  1  0  0  0  0
 29 27  1  0  0  0  0
 29 28  1  0  0  0  0
 30 36  1  0  0  0  0
 30 35  1  0  0  0  0
 31 30  2  0  0  0  0
 32 31  1  0  0  0  0
 32 33  2  0  0  0  0
 33 34  1  0  0  0  0
 34 35  2  0  0  0  0
 34 38  1  0  0  0  0
 37 32  1  0  0  0  0
M  END
>  <minimizedAffinity>
-5.0931139

$$$$
