
 OpenBabel03262522333D

 21 23  0  0  0  0  0  0  0  0999 V2000
   39.9260   23.0210   36.8400 C   0  0  0  0  0  0  0  0  0  0  0  0
   39.2170   22.9900   38.0190 C   0  0  0  0  0  0  0  0  0  0  0  0
   38.2150   23.8840   38.3460 C   0  0  0  0  0  0  0  0  0  0  0  0
   37.8830   24.8810   37.4480 C   0  0  0  0  0  0  0  0  0  0  0  0
   38.5990   24.8960   36.2790 C   0  0  0  0  0  0  0  0  0  0  0  0
   39.5710   24.0160   35.9820 N   0  0  0  0  0  0  0  0  0  0  0  0
   39.4400   22.2300   38.7520 H   0  0  0  0  0  0  0  0  0  0  0  0
   37.6770   23.8280   39.2890 H   0  0  0  0  0  0  0  0  0  0  0  0
   37.1110   25.6110   37.6400 H   0  0  0  0  0  0  0  0  0  0  0  0
   41.6720   21.3180   37.4640 C   0  0  0  0  0  0  0  0  0  0  0  0
   40.9760   22.0790   36.5060 C   0  0  0  0  0  0  0  0  0  0  0  0
   41.3130   21.9160   35.1720 C   0  0  0  0  0  0  0  0  0  0  0  0
   42.2960   21.0370   34.8380 N   0  0  0  0  0  0  0  0  0  0  0  0
   42.9480   20.3190   35.7870 C   0  0  0  0  0  0  0  0  0  0  0  0
   42.6440   20.4520   37.0940 N   0  0  0  0  0  0  0  0  0  0  0  0
   41.3240   21.5280   38.4650 H   0  0  0  0  0  0  0  0  0  0  0  0
   40.8500   22.4450   34.3400 H   0  0  0  0  0  0  0  0  0  0  0  0
   43.7300   19.6190   35.5080 H   0  0  0  0  0  0  0  0  0  0  0  0
   38.2720   25.9570   35.2840 C   0  0  0  0  0  3  0  0  0  0  0  0
   38.0140   27.3460   35.6780 C   0  0  0  0  0  2  0  0  0  0  0  0
   39.3450   27.0360   35.0900 C   0  0  0  0  0  2  0  0  0  0  0  0
  1  2  1  0  0  0  0
  2  3  2  0  0  0  0
  2  7  1  0  0  0  0
  3  8  1  0  0  0  0
  4  9  1  0  0  0  0
  4  3  1  0  0  0  0
  5  4  2  0  0  0  0
  6  5  1  0  0  0  0
  6  1  2  0  0  0  0
 10 16  1  0  0  0  0
 11  1  1  0  0  0  0
 11 10  2  0  0  0  0
 12 11  1  0  0  0  0
 13 12  2  0  0  0  0
 13 14  1  0  0  0  0
 14 15  2  0  0  0  0
 15 10  1  0  0  0  0
 17 12  1  0  0  0  0
 18 14  1  0  0  0  0
 19 20  1  0  0  0  0
 19  5  1  0  0  0  0
 21 19  1  0  0  0  0
 21 20  1  0  0  0  0
M  END
>  <minimizedAffinity>
-4.58558846

$$$$

 OpenBabel03262522333D

 21 23  0  0  0  0  0  0  0  0999 V2000
   37.8110   25.6440   34.8670 C   0  0  0  0  0  0  0  0  0  0  0  0
   37.4800   26.9370   35.2020 C   0  0  0  0  0  0  0  0  0  0  0  0
   36.8990   27.8400   34.3340 C   0  0  0  0  0  0  0  0  0  0  0  0
   36.6200   27.4450   33.0380 C   0  0  0  0  0  0  0  0  0  0  0  0
   36.9550   26.1540   32.7220 C   0  0  0  0  0  0  0  0  0  0  0  0
   37.5210   25.2910   33.5850 N   0  0  0  0  0  0  0  0  0  0  0  0
   37.6790   27.2920   36.2020 H   0  0  0  0  0  0  0  0  0  0  0  0
   36.6530   28.8550   34.6350 H   0  0  0  0  0  0  0  0  0  0  0  0
   36.1670   28.0990   32.3100 H   0  0  0  0  0  0  0  0  0  0  0  0
   37.8310   24.3100   37.0020 C   0  0  0  0  0  0  0  0  0  0  0  0
   38.4210   24.7020   35.7850 C   0  0  0  0  0  0  0  0  0  0  0  0
   39.6490   24.1580   35.4490 C   0  0  0  0  0  0  0  0  0  0  0  0
   40.2370   23.2730   36.2980 N   0  0  0  0  0  0  0  0  0  0  0  0
   39.6420   22.9160   37.4640 C   0  0  0  0  0  0  0  0  0  0  0  0
   38.4470   23.4270   37.8210 N   0  0  0  0  0  0  0  0  0  0  0  0
   36.8790   24.7980   37.1560 H   0  0  0  0  0  0  0  0  0  0  0  0
   40.2050   24.3800   34.5390 H   0  0  0  0  0  0  0  0  0  0  0  0
   40.1210   22.2080   38.1330 H   0  0  0  0  0  0  0  0  0  0  0  0
   36.6700   25.6880   31.3340 C   0  0  0  0  0  3  0  0  0  0  0  0
   36.5040   24.2680   31.0060 C   0  0  0  0  0  2  0  0  0  0  0  0
   35.2720   25.0960   31.1110 C   0  0  0  0  0  2  0  0  0  0  0  0
  1  2  1  0  0  0  0
  1 11  1  0  0  0  0
  2  7  1  0  0  0  0
  3  8  1  0  0  0  0
  3  2  2  0  0  0  0
  4  3  1  0  0  0  0
  5  4  2  0  0  0  0
  5  6  1  0  0  0  0
  6  1  2  0  0  0  0
  9  4  1  0  0  0  0
 10 16  1  0  0  0  0
 10 15  1  0  0  0  0
 11 10  2  0  0  0  0
 12 11  1  0  0  0  0
 12 13  2  0  0  0  0
 13 14  1  0  0  0  0
 14 15  2  0  0  0  0
 14 18  1  0  0  0  0
 17 12  1  0  0  0  0
 19  5  1  0  0  0  0
 20 21  1  0  0  0  0
 20 19  1  0  0  0  0
 21 19  1  0  0  0  0
M  END
>  <minimizedAffinity>
-4.56687927

$$$$

 OpenBabel03262522333D

 21 23  0  0  0  0  0  0  0  0999 V2000
   37.8590   25.6090   34.9070 C   0  0  0  0  0  0  0  0  0  0  0  0
   37.5040   26.8910   35.2580 C   0  0  0  0  0  0  0  0  0  0  0  0
   36.9040   27.7920   34.4000 C   0  0  0  0  0  0  0  0  0  0  0  0
   36.6290   27.4070   33.1010 C   0  0  0  0  0  0  0  0  0  0  0  0
   36.9880   26.1260   32.7690 C   0  0  0  0  0  0  0  0  0  0  0  0
   37.5730   25.2650   33.6210 N   0  0  0  0  0  0  0  0  0  0  0  0
   37.6990   27.2390   36.2610 H   0  0  0  0  0  0  0  0  0  0  0  0
   36.6380   28.8000   34.7140 H   0  0  0  0  0  0  0  0  0  0  0  0
   36.1620   28.0610   32.3810 H   0  0  0  0  0  0  0  0  0  0  0  0
   39.7020   24.0130   35.5330 C   0  0  0  0  0  0  0  0  0  0  0  0
   38.4890   24.6690   35.8130 C   0  0  0  0  0  0  0  0  0  0  0  0
   37.8650   24.4020   37.0210 C   0  0  0  0  0  0  0  0  0  0  0  0
   38.4410   23.5230   37.8840 N   0  0  0  0  0  0  0  0  0  0  0  0
   39.6120   22.9070   37.5840 C   0  0  0  0  0  0  0  0  0  0  0  0
   40.2450   23.1450   36.4180 N   0  0  0  0  0  0  0  0  0  0  0  0
   40.0940   24.3000   34.5670 H   0  0  0  0  0  0  0  0  0  0  0  0
   36.9270   24.8430   37.3530 H   0  0  0  0  0  0  0  0  0  0  0  0
   40.0620   22.2080   38.2820 H   0  0  0  0  0  0  0  0  0  0  0  0
   36.7090   25.6710   31.3780 C   0  0  0  0  0  3  0  0  0  0  0  0
   36.5480   24.2530   31.0370 C   0  0  0  0  0  2  0  0  0  0  0  0
   35.3140   25.0760   31.1450 C   0  0  0  0  0  2  0  0  0  0  0  0
  1  2  1  0  0  0  0
  1 11  1  0  0  0  0
  2  7  1  0  0  0  0
  3  8  1  0  0  0  0
  3  2  2  0  0  0  0
  4  3  1  0  0  0  0
  5  4  2  0  0  0  0
  5  6  1  0  0  0  0
  6  1  2  0  0  0  0
  9  4  1  0  0  0  0
 10 11  2  0  0  0  0
 10 15  1  0  0  0  0
 11 12  1  0  0  0  0
 12 17  1  0  0  0  0
 12 13  2  0  0  0  0
 14 13  1  0  0  0  0
 14 18  1  0  0  0  0
 15 14  2  0  0  0  0
 16 10  1  0  0  0  0
 19  5  1  0  0  0  0
 20 21  1  0  0  0  0
 20 19  1  0  0  0  0
 21 19  1  0  0  0  0
M  END
>  <minimizedAffinity>
-4.56568575

$$$$

 OpenBabel03262522333D

 21 23  0  0  0  0  0  0  0  0999 V2000
   38.3710   24.4410   36.0910 C   0  0  0  0  0  0  0  0  0  0  0  0
   37.8180   24.6100   37.3400 C   0  0  0  0  0  0  0  0  0  0  0  0
   38.2510   23.9530   38.4750 C   0  0  0  0  0  0  0  0  0  0  0  0
   39.3060   23.0650   38.3790 C   0  0  0  0  0  0  0  0  0  0  0  0
   39.8440   22.9090   37.1280 C   0  0  0  0  0  0  0  0  0  0  0  0
   39.4070   23.5600   36.0350 N   0  0  0  0  0  0  0  0  0  0  0  0
   36.9920   25.2920   37.4650 H   0  0  0  0  0  0  0  0  0  0  0  0
   37.7870   24.1120   39.4460 H   0  0  0  0  0  0  0  0  0  0  0  0
   39.6930   22.5200   39.2260 H   0  0  0  0  0  0  0  0  0  0  0  0
   37.9720   24.5860   33.6090 C   0  0  0  0  0  0  0  0  0  0  0  0
   37.9110   25.1350   34.9030 C   0  0  0  0  0  0  0  0  0  0  0  0
   37.3800   26.4060   35.0490 C   0  0  0  0  0  0  0  0  0  0  0  0
   36.9430   27.0720   33.9480 N   0  0  0  0  0  0  0  0  0  0  0  0
   37.0170   26.5140   32.7130 C   0  0  0  0  0  0  0  0  0  0  0  0
   37.5270   25.2790   32.5360 N   0  0  0  0  0  0  0  0  0  0  0  0
   38.4030   23.5940   33.6200 H   0  0  0  0  0  0  0  0  0  0  0  0
   37.2780   26.9370   35.9940 H   0  0  0  0  0  0  0  0  0  0  0  0
   36.6630   27.0570   31.8410 H   0  0  0  0  0  0  0  0  0  0  0  0
   40.9850   21.9600   36.9820 C   0  0  0  0  0  3  0  0  0  0  0  0
   41.6690   21.7520   35.7010 C   0  0  0  0  0  2  0  0  0  0  0  0
   42.3510   22.6050   36.7110 C   0  0  0  0  0  2  0  0  0  0  0  0
  1  2  1  0  0  0  0
  2  7  1  0  0  0  0
  2  3  2  0  0  0  0
  3  8  1  0  0  0  0
  4  3  1  0  0  0  0
  4  9  1  0  0  0  0
  5  4  2  0  0  0  0
  6  1  2  0  0  0  0
  6  5  1  0  0  0  0
 10 16  1  0  0  0  0
 10 11  1  0  0  0  0
 11 12  2  0  0  0  0
 11  1  1  0  0  0  0
 12 17  1  0  0  0  0
 13 12  1  0  0  0  0
 14 13  2  0  0  0  0
 15 14  1  0  0  0  0
 15 10  2  0  0  0  0
 18 14  1  0  0  0  0
 19  5  1  0  0  0  0
 20 21  1  0  0  0  0
 20 19  1  0  0  0  0
 21 19  1  0  0  0  0
M  END
>  <minimizedAffinity>
-4.45772457

$$$$

 OpenBabel03262522333D

 21 23  0  0  0  0  0  0  0  0999 V2000
   37.7830   22.3600   34.6030 C   0  0  0  0  0  0  0  0  0  0  0  0
   38.1110   23.0420   33.4530 C   0  0  0  0  0  0  0  0  0  0  0  0
   37.5270   22.8130   32.2230 C   0  0  0  0  0  0  0  0  0  0  0  0
   36.5470   21.8450   32.1100 C   0  0  0  0  0  0  0  0  0  0  0  0
   36.2330   21.1760   33.2650 C   0  0  0  0  0  0  0  0  0  0  0  0
   36.8140   21.4150   34.4540 N   0  0  0  0  0  0  0  0  0  0  0  0
   38.8710   23.8070   33.4900 H   0  0  0  0  0  0  0  0  0  0  0  0
   37.8140   23.3720   31.3350 H   0  0  0  0  0  0  0  0  0  0  0  0
   36.0510   21.6160   31.1800 H   0  0  0  0  0  0  0  0  0  0  0  0
   39.7060   22.1940   36.2190 C   0  0  0  0  0  0  0  0  0  0  0  0
   38.4010   22.6070   35.8910 C   0  0  0  0  0  0  0  0  0  0  0  0
   37.6700   23.2850   36.8520 C   0  0  0  0  0  0  0  0  0  0  0  0
   38.2320   23.5250   38.0670 N   0  0  0  0  0  0  0  0  0  0  0  0
   39.4930   23.1140   38.3510 C   0  0  0  0  0  0  0  0  0  0  0  0
   40.2330   22.4520   37.4380 N   0  0  0  0  0  0  0  0  0  0  0  0
   40.1770   21.6780   35.3940 H   0  0  0  0  0  0  0  0  0  0  0  0
   36.6530   23.6540   36.7210 H   0  0  0  0  0  0  0  0  0  0  0  0
   39.9320   23.3130   39.3240 H   0  0  0  0  0  0  0  0  0  0  0  0
   35.1800   20.1240   33.1880 C   0  0  0  0  0  3  0  0  0  0  0  0
   34.7510   19.5400   31.9120 C   0  0  0  0  0  2  0  0  0  0  0  0
   35.6660   18.7320   32.7630 C   0  0  0  0  0  2  0  0  0  0  0  0
  1 11  1  0  0  0  0
  2  7  1  0  0  0  0
  2  1  2  0  0  0  0
  3  2  1  0  0  0  0
  4  3  2  0  0  0  0
  4  5  1  0  0  0  0
  5  6  2  0  0  0  0
  6  1  1  0  0  0  0
  8  3  1  0  0  0  0
  9  4  1  0  0  0  0
 10 15  1  0  0  0  0
 11 10  2  0  0  0  0
 11 12  1  0  0  0  0
 12 13  2  0  0  0  0
 13 14  1  0  0  0  0
 14 18  1  0  0  0  0
 15 14  2  0  0  0  0
 16 10  1  0  0  0  0
 17 12  1  0  0  0  0
 19  5  1  0  0  0  0
 20 21  1  0  0  0  0
 20 19  1  0  0  0  0
 21 19  1  0  0  0  0
M  END
>  <minimizedAffinity>
-4.38241768

$$$$

 OpenBabel03262522333D

 21 23  0  0  0  0  0  0  0  0999 V2000
   38.2060   26.1380   34.4440 C   0  0  0  0  0  0  0  0  0  0  0  0
   39.4280   25.6640   34.0250 C   0  0  0  0  0  0  0  0  0  0  0  0
   40.1290   24.6590   34.6610 C   0  0  0  0  0  0  0  0  0  0  0  0
   39.5910   24.0720   35.7920 C   0  0  0  0  0  0  0  0  0  0  0  0
   38.3730   24.5570   36.1940 C   0  0  0  0  0  0  0  0  0  0  0  0
   37.7070   25.5380   35.5590 N   0  0  0  0  0  0  0  0  0  0  0  0
   39.8900   26.0910   33.1480 H   0  0  0  0  0  0  0  0  0  0  0  0
   41.0950   24.3110   34.3010 H   0  0  0  0  0  0  0  0  0  0  0  0
   40.0860   23.2830   36.3360 H   0  0  0  0  0  0  0  0  0  0  0  0
   37.6110   27.4810   32.3980 C   0  0  0  0  0  0  0  0  0  0  0  0
   37.4760   27.1950   33.7700 C   0  0  0  0  0  0  0  0  0  0  0  0
   36.5980   27.9650   34.5140 C   0  0  0  0  0  0  0  0  0  0  0  0
   35.9050   28.9610   33.9000 N   0  0  0  0  0  0  0  0  0  0  0  0
   36.0580   29.2100   32.5750 C   0  0  0  0  0  0  0  0  0  0  0  0
   36.9040   28.4800   31.8220 N   0  0  0  0  0  0  0  0  0  0  0  0
   38.3210   26.8170   31.9240 H   0  0  0  0  0  0  0  0  0  0  0  0
   36.4060   27.8440   35.5790 H   0  0  0  0  0  0  0  0  0  0  0  0
   35.4990   30.0080   32.0960 H   0  0  0  0  0  0  0  0  0  0  0  0
   37.7570   23.9510   37.4090 C   0  0  0  0  0  3  0  0  0  0  0  0
   38.5660   23.4030   38.5040 C   0  0  0  0  0  2  0  0  0  0  0  0
   37.9480   24.7410   38.7100 C   0  0  0  0  0  2  0  0  0  0  0  0
  1  6  1  0  0  0  0
  2  1  2  0  0  0  0
  2  3  1  0  0  0  0
  3  4  2  0  0  0  0
  4  5  1  0  0  0  0
  4  9  1  0  0  0  0
  5 19  1  0  0  0  0
  6  5  2  0  0  0  0
  7  2  1  0  0  0  0
  8  3  1  0  0  0  0
 10 11  1  0  0  0  0
 11  1  1  0  0  0  0
 11 12  2  0  0  0  0
 12 17  1  0  0  0  0
 13 12  1  0  0  0  0
 14 13  2  0  0  0  0
 15 10  2  0  0  0  0
 15 14  1  0  0  0  0
 16 10  1  0  0  0  0
 18 14  1  0  0  0  0
 19 20  1  0  0  0  0
 19 21  1  0  0  0  0
 20 21  1  0  0  0  0
M  END
>  <minimizedAffinity>
-4.36922503

$$$$

 OpenBabel03262522333D

 21 23  0  0  0  0  0  0  0  0999 V2000
   36.7170   25.2490   32.4030 C   0  0  0  0  0  0  0  0  0  0  0  0
   36.1990   26.2370   31.5970 C   0  0  0  0  0  0  0  0  0  0  0  0
   36.1810   27.5770   31.9270 C   0  0  0  0  0  0  0  0  0  0  0  0
   36.7120   27.9810   33.1380 C   0  0  0  0  0  0  0  0  0  0  0  0
   37.2240   26.9830   33.9280 C   0  0  0  0  0  0  0  0  0  0  0  0
   37.2310   25.6830   33.5860 N   0  0  0  0  0  0  0  0  0  0  0  0
   35.7730   25.9720   30.6410 H   0  0  0  0  0  0  0  0  0  0  0  0
   35.7620   28.3300   31.2640 H   0  0  0  0  0  0  0  0  0  0  0  0
   36.7300   29.0110   33.4580 H   0  0  0  0  0  0  0  0  0  0  0  0
   37.8110   22.9820   32.3250 C   0  0  0  0  0  0  0  0  0  0  0  0
   36.7320   23.8430   32.0480 C   0  0  0  0  0  0  0  0  0  0  0  0
   35.6260   23.3160   31.4020 C   0  0  0  0  0  0  0  0  0  0  0  0
   35.6210   22.0000   31.0610 N   0  0  0  0  0  0  0  0  0  0  0  0
   36.6780   21.1970   31.3430 C   0  0  0  0  0  0  0  0  0  0  0  0
   37.7700   21.6770   31.9710 N   0  0  0  0  0  0  0  0  0  0  0  0
   38.6130   23.5030   32.8290 H   0  0  0  0  0  0  0  0  0  0  0  0
   34.7320   23.8760   31.1340 H   0  0  0  0  0  0  0  0  0  0  0  0
   36.6620   20.1470   31.0660 H   0  0  0  0  0  0  0  0  0  0  0  0
   37.8060   27.3760   35.2430 C   0  0  0  0  0  3  0  0  0  0  0  0
   38.3040   26.3850   36.2050 C   0  0  0  0  0  2  0  0  0  0  0  0
   39.3120   27.1260   35.4000 C   0  0  0  0  0  2  0  0  0  0  0  0
  1  6  1  0  0  0  0
  2  3  1  0  0  0  0
  2  1  2  0  0  0  0
  3  4  2  0  0  0  0
  4  9  1  0  0  0  0
  4  5  1  0  0  0  0
  5 19  1  0  0  0  0
  6  5  2  0  0  0  0
  7  2  1  0  0  0  0
  8  3  1  0  0  0  0
 10 16  1  0  0  0  0
 11 10  1  0  0  0  0
 11  1  1  0  0  0  0
 12 11  2  0  0  0  0
 13 14  2  0  0  0  0
 13 12  1  0  0  0  0
 14 15  1  0  0  0  0
 15 10  2  0  0  0  0
 17 12  1  0  0  0  0
 18 14  1  0  0  0  0
 19 21  1  0  0  0  0
 19 20  1  0  0  0  0
 21 20  1  0  0  0  0
M  END
>  <minimizedAffinity>
-4.29031277

$$$$

 OpenBabel03262522333D

 21 23  0  0  0  0  0  0  0  0999 V2000
   37.8490   22.1920   34.2170 C   0  0  0  0  0  0  0  0  0  0  0  0
   38.9070   22.9590   33.7850 C   0  0  0  0  0  0  0  0  0  0  0  0
   39.6600   23.7750   34.6060 C   0  0  0  0  0  0  0  0  0  0  0  0
   39.3540   23.8440   35.9520 C   0  0  0  0  0  0  0  0  0  0  0  0
   38.2980   23.0740   36.3650 C   0  0  0  0  0  0  0  0  0  0  0  0
   37.5780   22.2850   35.5470 N   0  0  0  0  0  0  0  0  0  0  0  0
   39.1850   22.9400   32.7420 H   0  0  0  0  0  0  0  0  0  0  0  0
   40.4900   24.3680   34.2270 H   0  0  0  0  0  0  0  0  0  0  0  0
   39.9020   24.4610   36.6480 H   0  0  0  0  0  0  0  0  0  0  0  0
   35.8220   20.7850   33.7160 C   0  0  0  0  0  0  0  0  0  0  0  0
   37.0640   21.3380   33.3480 C   0  0  0  0  0  0  0  0  0  0  0  0
   37.5590   21.0490   32.0870 C   0  0  0  0  0  0  0  0  0  0  0  0
   36.8370   20.2500   31.2570 N   0  0  0  0  0  0  0  0  0  0  0  0
   35.6430   19.7330   31.6430 C   0  0  0  0  0  0  0  0  0  0  0  0
   35.1320   19.9940   32.8630 N   0  0  0  0  0  0  0  0  0  0  0  0
   35.5390   21.0800   34.7170 H   0  0  0  0  0  0  0  0  0  0  0  0
   38.5040   21.4140   31.6870 H   0  0  0  0  0  0  0  0  0  0  0  0
   35.0760   19.0960   30.9710 H   0  0  0  0  0  0  0  0  0  0  0  0
   37.9350   23.1190   37.8110 C   0  0  0  0  0  3  0  0  0  0  0  0
   38.8960   23.5180   38.8450 C   0  0  0  0  0  2  0  0  0  0  0  0
   37.8760   24.5200   38.4340 C   0  0  0  0  0  2  0  0  0  0  0  0
  1  6  1  0  0  0  0
  2  1  2  0  0  0  0
  2  3  1  0  0  0  0
  3  4  2  0  0  0  0
  4  5  1  0  0  0  0
  4  9  1  0  0  0  0
  5 19  1  0  0  0  0
  6  5  2  0  0  0  0
  7  2  1  0  0  0  0
  8  3  1  0  0  0  0
 10 16  1  0  0  0  0
 11 10  1  0  0  0  0
 11  1  1  0  0  0  0
 12 11  2  0  0  0  0
 13 14  2  0  0  0  0
 13 12  1  0  0  0  0
 14 15  1  0  0  0  0
 15 10  2  0  0  0  0
 17 12  1  0  0  0  0
 18 14  1  0  0  0  0
 19 21  1  0  0  0  0
 19 20  1  0  0  0  0
 21 20  1  0  0  0  0
M  END
>  <minimizedAffinity>
-4.1594677

$$$$

 OpenBabel03262522333D

 21 23  0  0  0  0  0  0  0  0999 V2000
   37.2160   28.4610   31.7400 C   0  0  0  0  0  0  0  0  0  0  0  0
   36.2610   29.4060   32.0390 C   0  0  0  0  0  0  0  0  0  0  0  0
   35.6500   29.5290   33.2710 C   0  0  0  0  0  0  0  0  0  0  0  0
   36.0020   28.6600   34.2880 C   0  0  0  0  0  0  0  0  0  0  0  0
   36.9540   27.7260   33.9720 C   0  0  0  0  0  0  0  0  0  0  0  0
   37.5370   27.6250   32.7640 N   0  0  0  0  0  0  0  0  0  0  0  0
   35.9520   30.1070   31.2780 H   0  0  0  0  0  0  0  0  0  0  0  0
   34.8970   30.2890   33.4700 H   0  0  0  0  0  0  0  0  0  0  0  0
   35.5630   28.7010   35.2730 H   0  0  0  0  0  0  0  0  0  0  0  0
   38.9020   27.4410   30.1730 C   0  0  0  0  0  0  0  0  0  0  0  0
   37.8520   28.3400   30.4430 C   0  0  0  0  0  0  0  0  0  0  0  0
   37.4050   29.1500   29.4120 C   0  0  0  0  0  0  0  0  0  0  0  0
   37.9900   29.0510   28.1890 N   0  0  0  0  0  0  0  0  0  0  0  0
   39.0000   28.1730   27.9620 C   0  0  0  0  0  0  0  0  0  0  0  0
   39.4590   27.3700   28.9420 N   0  0  0  0  0  0  0  0  0  0  0  0
   39.1640   26.8640   31.0490 H   0  0  0  0  0  0  0  0  0  0  0  0
   36.6030   29.8830   29.4940 H   0  0  0  0  0  0  0  0  0  0  0  0
   39.4580   28.1030   26.9800 H   0  0  0  0  0  0  0  0  0  0  0  0
   37.3620   26.7700   35.0410 C   0  0  0  0  0  3  0  0  0  0  0  0
   38.6320   26.0360   34.9900 C   0  0  0  0  0  2  0  0  0  0  0  0
   38.5550   27.2100   35.9000 C   0  0  0  0  0  2  0  0  0  0  0  0
  1  2  2  0  0  0  0
  1  6  1  0  0  0  0
  2  3  1  0  0  0  0
  3  8  1  0  0  0  0
  3  4  2  0  0  0  0
  4  9  1  0  0  0  0
  5  4  1  0  0  0  0
  5 19  1  0  0  0  0
  6  5  2  0  0  0  0
  7  2  1  0  0  0  0
 10 11  1  0  0  0  0
 10 16  1  0  0  0  0
 11  1  1  0  0  0  0
 12 17  1  0  0  0  0
 12 11  2  0  0  0  0
 13 12  1  0  0  0  0
 14 13  2  0  0  0  0
 14 15  1  0  0  0  0
 15 10  2  0  0  0  0
 18 14  1  0  0  0  0
 19 21  1  0  0  0  0
 20 19  1  0  0  0  0
 20 21  1  0  0  0  0
M  END
>  <minimizedAffinity>
-4.14452267

$$$$
