
 OpenBabel03272503583D

 38 42  0  0  0  0  0  0  0  0999 V2000
   35.8190   29.4420   49.9530 C   0  0  0  0  0  0  0  0  0  0  0  0
   36.5220   30.0920   48.9180 C   0  0  0  0  0  0  0  0  0  0  0  0
   35.9800   29.9600   47.6680 C   0  0  0  0  0  0  0  0  0  0  0  0
   34.8860   29.2550   47.5690 N   0  0  0  0  0  0  0  0  0  0  0  0
   34.1940   28.6370   48.4640 C   0  0  0  0  0  0  0  0  0  0  0  0
   34.7200   28.7700   49.6640 N   0  0  0  0  0  0  0  0  0  0  0  0
   37.4080   30.6280   49.1870 H   0  0  0  0  0  0  0  0  0  0  0  0
   32.9760   27.8250   48.4720 C   0  0  0  0  0  0  0  0  0  0  0  0
   31.8510   28.2020   49.1530 N   0  0  0  0  0  0  0  0  0  0  0  0
   30.7550   27.4600   49.1660 C   0  0  0  0  0  0  0  0  0  0  0  0
   30.6400   26.2790   48.5220 N   0  0  0  0  0  0  0  0  0  0  0  0
   31.7070   25.8530   47.8370 C   0  0  0  0  0  0  0  0  0  0  0  0
   31.6130   24.6550   47.1750 C   0  0  0  0  0  0  0  0  0  0  0  0
   32.6970   24.1720   46.4470 C   0  0  0  0  0  0  0  0  0  0  0  0
   33.8370   24.9470   46.4340 C   0  0  0  0  0  0  0  0  0  0  0  0
   33.8860   26.1440   47.1150 C   0  0  0  0  0  0  0  0  0  0  0  0
   32.8490   26.6390   47.8290 C   0  0  0  0  0  0  0  0  0  0  0  0
   29.9310   27.8840   49.7510 H   0  0  0  0  0  0  0  0  0  0  0  0
   30.7100   24.0550   47.1930 H   0  0  0  0  0  0  0  0  0  0  0  0
   32.5940   23.2420   45.9460 H   0  0  0  0  0  0  0  0  0  0  0  0
   34.6430   24.5160   45.8510 H   0  0  0  0  0  0  0  0  0  0  0  0
   34.8450   26.6180   46.9950 H   0  0  0  0  0  0  0  0  0  0  0  0
   38.5320   31.5740   48.3550 Cl  0  0  0  0  0  0  0  0  0  0  0  0
   37.8170   31.3960   46.7610 C   0  0  0  0  0  0  0  0  0  0  0  0
   36.6680   30.6360   46.5990 C   0  0  0  0  0  0  0  0  0  0  0  0
   36.2450   30.5890   45.3030 C   0  0  0  0  0  0  0  0  0  0  0  0
   36.9040   31.2370   44.2780 C   0  0  0  0  0  0  0  0  0  0  0  0
   38.0310   31.9740   44.4760 C   0  0  0  0  0  0  0  0  0  0  0  0
   38.4910   32.0510   45.7530 C   0  0  0  0  0  0  0  0  0  0  0  0
   35.3500   30.0240   45.0350 H   0  0  0  0  0  0  0  0  0  0  0  0
   36.4990   31.1500   43.2530 H   0  0  0  0  0  0  0  0  0  0  0  0
   38.4840   32.4450   43.6370 H   0  0  0  0  0  0  0  0  0  0  0  0
   39.7250   32.8550   45.9980 C   0  0  0  0  0  0  0  0  0  0  0  0
   40.2120   33.7630   44.9200 C   0  0  0  0  0  0  0  0  0  0  0  0
   40.9750   32.5550   45.3040 C   0  0  0  0  0  0  0  0  0  0  0  0
   36.2820   29.4940   51.3410 N   0  0  0  0  0  0  0  0  0  0  0  0
   37.2130   29.0800   51.4370 H   0  0  0  0  0  0  0  0  0  0  0  0
   35.8320   29.8660   52.1960 H   0  0  0  0  0  0  0  0  0  0  0  0
  1 36  1  0  0  0  0
  2  7  1  0  0  0  0
  2  1  2  0  0  0  0
  3  2  1  0  0  0  0
  4  3  2  0  0  0  0
  4  5  1  0  0  0  0
  5  8  1  0  0  0  0
  5  6  2  0  0  0  0
  6  1  1  0  0  0  0
  8  9  1  0  0  0  0
  9 10  2  0  0  0  0
 10 18  1  0  0  0  0
 11 10  1  0  0  0  0
 12 11  2  0  0  0  0
 13 19  1  0  0  0  0
 13 12  1  0  0  0  0
 14 13  2  0  0  0  0
 15 14  1  0  0  0  0
 15 16  2  0  0  0  0
 16 17  1  0  0  0  0
 17 12  1  0  0  0  0
 17  8  2  0  0  0  0
 20 14  1  0  0  0  0
 21 15  1  0  0  0  0
 22 16  1  0  0  0  0
 24 23  1  0  0  0  0
 25 24  1  0  0  0  0
 25  3  1  0  0  0  0
 26 25  2  0  0  0  0
 27 28  2  0  0  0  0
 27 26  1  0  0  0  0
 28 29  1  0  0  0  0
 29 33  1  0  0  0  0
 29 24  2  0  0  0  0
 30 26  1  0  0  0  0
 31 27  1  0  0  0  0
 32 28  1  0  0  0  0
 34 35  1  0  0  0  0
 34 33  1  0  0  0  0
 35 33  1  0  0  0  0
 36 37  1  0  0  0  0
 36 38  1  0  0  0  0
M  END
>  <minimizedAffinity>
-6.7342844

>  <minimizedRMSD>
2.88296676

$$$$
