
 OpenBabel03272506273D

 36 39  0  0  0  0  0  0  0  0999 V2000
   34.1320   27.5330   44.9860 C   0  0  0  0  0  0  0  0  0  0  0  0
   34.2180   26.3180   44.3360 C   0  0  0  0  0  0  0  0  0  0  0  0
   35.0050   26.1000   43.2030 C   0  0  0  0  0  0  0  0  0  0  0  0
   35.7550   27.1860   42.6930 C   0  0  0  0  0  0  0  0  0  0  0  0
   35.6500   28.3740   43.3550 C   0  0  0  0  0  0  0  0  0  0  0  0
   34.8850   28.5870   44.4610 C   0  0  0  0  0  0  0  0  0  0  0  0
   33.6430   25.4570   44.7140 H   0  0  0  0  0  0  0  0  0  0  0  0
   34.9890   25.0820   42.7760 H   0  0  0  0  0  0  0  0  0  0  0  0
   36.3020   26.8730   41.8320 H   0  0  0  0  0  0  0  0  0  0  0  0
   36.2710   29.0400   42.8020 H   0  0  0  0  0  0  0  0  0  0  0  0
   33.7930   27.1840   47.3550 C   0  0  0  0  0  0  0  0  0  0  0  0
   33.2550   27.5920   46.1270 C   0  0  0  0  0  0  0  0  0  0  0  0
   31.9230   28.0220   46.0990 C   0  0  0  0  0  0  0  0  0  0  0  0
   31.2080   28.0270   47.2540 N   0  0  0  0  0  0  0  0  0  0  0  0
   31.7530   27.6260   48.4390 C   0  0  0  0  0  0  0  0  0  0  0  0
   33.0480   27.2040   48.4810 N   0  0  0  0  0  0  0  0  0  0  0  0
   34.8190   26.8470   47.4050 H   0  0  0  0  0  0  0  0  0  0  0  0
   31.1740   27.6330   49.3560 H   0  0  0  0  0  0  0  0  0  0  0  0
   31.2170   28.4820   44.8660 C   0  0  0  0  0  0  0  0  0  0  0  0
   29.8640   28.7260   45.1650 F   0  0  0  0  0  0  0  0  0  0  0  0
   31.7300   29.5720   44.2630 F   0  0  0  0  0  0  0  0  0  0  0  0
   31.1590   27.4410   43.9440 F   0  0  0  0  0  0  0  0  0  0  0  0
   34.7960   30.1110   45.3040 S   0  0  0  0  0  0  0  0  0  0  0  0
   34.3010   30.3950   48.3630 Cl  0  0  0  0  0  0  0  0  0  0  0  0
   35.9100   30.5650   47.6990 C   0  0  0  0  0  0  0  0  0  0  0  0
   36.1850   30.4570   46.3500 C   0  0  0  0  0  0  0  0  0  0  0  0
   37.4600   30.5980   45.8740 C   0  0  0  0  0  0  0  0  0  0  0  0
   38.4770   30.8490   46.7940 C   0  0  0  0  0  0  0  0  0  0  0  0
   38.2020   30.9580   48.1570 C   0  0  0  0  0  0  0  0  0  0  0  0
   36.9030   30.8160   48.6250 C   0  0  0  0  0  0  0  0  0  0  0  0
   37.7720   30.5680   44.8640 H   0  0  0  0  0  0  0  0  0  0  0  0
   39.5110   30.9650   46.4520 H   0  0  0  0  0  0  0  0  0  0  0  0
   39.0660   31.1570   48.7950 H   0  0  0  0  0  0  0  0  0  0  0  0
   36.8090   30.9870   50.0890 C   0  0  0  0  0  3  0  0  0  0  0  0
   36.7520   29.8000   51.0140 C   0  0  0  0  0  2  0  0  0  0  0  0
   38.0190   30.5460   50.8680 C   0  0  0  0  0  2  0  0  0  0  0  0
  1 12  1  0  0  0  0
  2  7  1  0  0  0  0
  2  1  2  0  0  0  0
  3  2  1  0  0  0  0
  4  3  2  0  0  0  0
  4  5  1  0  0  0  0
  5  6  2  0  0  0  0
  6  1  1  0  0  0  0
  6 23  1  0  0  0  0
  8  3  1  0  0  0  0
  9  4  1  0  0  0  0
 10  5  1  0  0  0  0
 11 17  1  0  0  0  0
 11 16  1  0  0  0  0
 12 11  2  0  0  0  0
 13 12  1  0  0  0  0
 13 14  2  0  0  0  0
 14 15  1  0  0  0  0
 15 16  2  0  0  0  0
 15 18  1  0  0  0  0
 19 20  1  0  0  0  0
 19 13  1  0  0  0  0
 21 19  1  0  0  0  0
 22 19  1  0  0  0  0
 23 26  1  0  0  0  0
 25 24  1  0  0  0  0
 25 30  1  0  0  0  0
 26 25  2  0  0  0  0
 27 26  1  0  0  0  0
 27 28  2  0  0  0  0
 28 29  1  0  0  0  0
 29 30  2  0  0  0  0
 29 33  1  0  0  0  0
 30 34  1  0  0  0  0
 31 27  1  0  0  0  0
 32 28  1  0  0  0  0
 34 36  1  0  0  0  0
 34 35  1  0  0  0  0
 36 35  1  0  0  0  0
M  END
>  <minimizedAffinity>
-5.1370039

>  <minimizedRMSD>
2.18676448

$$$$
