
 OpenBabel03272500363D

 15 16  0  0  0  0  0  0  0  0999 V2000
   38.1880   31.7810   49.1880 C   0  0  0  0  0  0  0  0  0  0  0  0
   38.5610   32.9580   49.8290 C   0  0  0  0  0  0  0  0  0  0  0  0
   39.2640   33.9170   49.0910 C   0  0  0  0  0  0  0  0  0  0  0  0
   39.5420   33.6310   47.7710 N   0  0  0  0  0  0  0  0  0  0  0  0
   39.1620   32.4830   47.1950 C   0  0  0  0  0  0  0  0  0  0  0  0
   38.4830   31.5580   47.9090 N   0  0  0  0  0  0  0  0  0  0  0  0
   38.3060   33.1030   50.8630 H   0  0  0  0  0  0  0  0  0  0  0  0
   39.5710   34.8460   49.5590 H   0  0  0  0  0  0  0  0  0  0  0  0
   37.4300   30.7430   49.9760 C   0  0  0  0  0  0  0  0  0  0  0  0
   37.3260   29.5800   49.2390 F   0  0  0  0  0  0  0  0  0  0  0  0
   38.0360   30.6000   51.1830 F   0  0  0  0  0  0  0  0  0  0  0  0
   36.1240   31.2250   50.1150 F   0  0  0  0  0  0  0  0  0  0  0  0
   39.4880   32.2240   45.7600 C   0  0  0  0  0  0  0  0  0  0  0  0
   39.9300   33.3340   44.8820 C   0  0  0  0  0  0  0  0  0  0  0  0
   40.9160   32.2440   45.3120 C   0  0  0  0  0  0  0  0  0  0  0  0
  1  2  1  0  0  0  0
  1  9  1  0  0  0  0
  2  7  1  0  0  0  0
  3  8  1  0  0  0  0
  3  2  2  0  0  0  0
  4  3  1  0  0  0  0
  5  4  2  0  0  0  0
  5  6  1  0  0  0  0
  6  1  2  0  0  0  0
  9 12  1  0  0  0  0
  9 11  1  0  0  0  0
 10  9  1  0  0  0  0
 13  5  1  0  0  0  0
 14 15  1  0  0  0  0
 14 13  1  0  0  0  0
 15 13  1  0  0  0  0
M  END
>  <minimizedAffinity>
-5.08735323

>  <minimizedRMSD>
3.00362039

$$$$
