
 OpenBabel03262520173D

 12 13  0  0  0  0  0  0  0  0999 V2000
   37.3310   30.1780   51.4350 C   0  0  0  0  0  0  0  0  0  0  0  0
   38.0880   30.6950   50.3660 C   0  0  0  0  0  0  0  0  0  0  0  0
   37.6720   30.4000   49.0560 C   0  0  0  0  0  0  0  0  0  0  0  0
   36.5540   29.6270   48.9130 N   0  0  0  0  0  0  0  0  0  0  0  0
   35.8570   29.1500   49.9650 C   0  0  0  0  0  0  0  0  0  0  0  0
   36.2460   29.4270   51.2340 N   0  0  0  0  0  0  0  0  0  0  0  0
   37.6420   30.3990   52.4500 H   0  0  0  0  0  0  0  0  0  0  0  0
   38.9760   31.3110   50.5620 H   0  0  0  0  0  0  0  0  0  0  0  0
   34.9920   28.5500   49.6450 H   0  0  0  0  0  0  0  0  0  0  0  0
   38.4170   30.9080   47.9040 C   0  0  0  0  0  3  0  0  0  0  0  0
   37.7860   31.5160   46.7340 C   0  0  0  0  0  2  0  0  0  0  0  0
   38.3900   32.4390   47.7910 C   0  0  0  0  0  2  0  0  0  0  0  0
  1  7  1  0  0  0  0
  2  8  1  0  0  0  0
  2  1  2  0  0  0  0
  3  2  1  0  0  0  0
  4  3  2  0  0  0  0
  4  5  1  0  0  0  0
  5  6  2  0  0  0  0
  6  1  1  0  0  0  0
  9  5  1  0  0  0  0
 10  3  1  0  0  0  0
 11 12  1  0  0  0  0
 11 10  1  0  0  0  0
 12 10  1  0  0  0  0
M  END
>  <minimizedAffinity>
-3.90025902

>  <minimizedRMSD>
0.175876051

$$$$
