
 OpenBabel03272503573D

 28 31  0  0  0  0  0  0  0  0999 V2000
   34.4350   29.5400   33.8490 C   0  0  0  0  0  0  0  0  0  0  0  0
   33.1580   29.3670   33.4240 N   0  0  0  0  0  0  0  0  0  0  0  0
   32.1640   30.1700   33.8220 C   0  0  0  0  0  0  0  0  0  0  0  0
   32.3190   31.2130   34.6660 N   0  0  0  0  0  0  0  0  0  0  0  0
   33.5720   31.4310   35.1200 C   0  0  0  0  0  0  0  0  0  0  0  0
   33.7450   32.4880   35.9820 C   0  0  0  0  0  0  0  0  0  0  0  0
   35.0090   32.7650   36.4860 C   0  0  0  0  0  0  0  0  0  0  0  0
   36.0380   31.9380   36.0760 C   0  0  0  0  0  0  0  0  0  0  0  0
   35.7970   30.9000   35.2140 C   0  0  0  0  0  0  0  0  0  0  0  0
   34.5720   30.5990   34.7010 C   0  0  0  0  0  0  0  0  0  0  0  0
   31.1310   30.0020   33.4560 H   0  0  0  0  0  0  0  0  0  0  0  0
   32.8980   33.1090   36.2700 H   0  0  0  0  0  0  0  0  0  0  0  0
   35.0790   33.6010   37.1500 H   0  0  0  0  0  0  0  0  0  0  0  0
   37.0010   32.2000   36.4990 H   0  0  0  0  0  0  0  0  0  0  0  0
   36.7020   30.3570   34.9910 H   0  0  0  0  0  0  0  0  0  0  0  0
   36.5000   27.8100   31.4600 C   0  0  0  0  0  0  0  0  0  0  0  0
   37.4580   27.0700   32.1930 C   0  0  0  0  0  0  0  0  0  0  0  0
   37.3710   27.1920   33.5750 C   0  0  0  0  0  0  0  0  0  0  0  0
   36.4260   27.9680   34.0910 N   0  0  0  0  0  0  0  0  0  0  0  0
   35.5240   28.6650   33.4300 C   0  0  0  0  0  0  0  0  0  0  0  0
   35.6230   28.5370   32.1090 N   0  0  0  0  0  0  0  0  0  0  0  0
   38.1750   26.4790   31.6860 H   0  0  0  0  0  0  0  0  0  0  0  0
   36.4750   27.7740   30.0200 N   0  0  0  0  0  0  0  0  0  0  0  0
   36.5190   28.7140   29.5770 H   0  0  0  0  0  0  0  0  0  0  0  0
   36.4200   26.9330   29.4280 H   0  0  0  0  0  0  0  0  0  0  0  0
   38.3190   26.4660   34.4300 C   0  0  0  0  0  3  0  0  0  0  0  0
   38.8230   27.0500   35.6970 C   0  0  0  0  0  2  0  0  0  0  0  0
   39.6840   27.1340   34.5100 C   0  0  0  0  0  2  0  0  0  0  0  0
  1 10  1  0  0  0  0
  2  3  1  0  0  0  0
  2  1  2  0  0  0  0
  3  4  2  0  0  0  0
  4  5  1  0  0  0  0
  5  6  1  0  0  0  0
  6 12  1  0  0  0  0
  6  7  2  0  0  0  0
  7 13  1  0  0  0  0
  8  7  1  0  0  0  0
  8 14  1  0  0  0  0
  9  8  2  0  0  0  0
 10  5  2  0  0  0  0
 10  9  1  0  0  0  0
 11  3  1  0  0  0  0
 15  9  1  0  0  0  0
 16 21  2  0  0  0  0
 16 17  1  0  0  0  0
 17 18  2  0  0  0  0
 18 19  1  0  0  0  0
 18 26  1  0  0  0  0
 20  1  1  0  0  0  0
 20 19  2  0  0  0  0
 21 20  1  0  0  0  0
 22 17  1  0  0  0  0
 23 16  1  0  0  0  0
 24 23  1  0  0  0  0
 25 23  1  0  0  0  0
 26 28  1  0  0  0  0
 26 27  1  0  0  0  0
 28 27  1  0  0  0  0
M  END
>  <minimizedAffinity>
-5.72661161

$$$$

 OpenBabel03272503573D

 28 31  0  0  0  0  0  0  0  0999 V2000
   39.0830   22.8960   34.8380 C   0  0  0  0  0  0  0  0  0  0  0  0
   40.2730   22.3030   35.1110 N   0  0  0  0  0  0  0  0  0  0  0  0
   41.3860   23.0140   35.3250 C   0  0  0  0  0  0  0  0  0  0  0  0
   41.4460   24.3630   35.2930 N   0  0  0  0  0  0  0  0  0  0  0  0
   40.2880   25.0040   35.0260 C   0  0  0  0  0  0  0  0  0  0  0  0
   40.3340   26.3780   34.9890 C   0  0  0  0  0  0  0  0  0  0  0  0
   39.1770   27.0980   34.7180 C   0  0  0  0  0  0  0  0  0  0  0  0
   38.0250   26.3660   34.4980 C   0  0  0  0  0  0  0  0  0  0  0  0
   38.0480   24.9970   34.5480 C   0  0  0  0  0  0  0  0  0  0  0  0
   39.1630   24.2590   34.8110 C   0  0  0  0  0  0  0  0  0  0  0  0
   42.3420   22.4990   35.5460 H   0  0  0  0  0  0  0  0  0  0  0  0
   41.2690   26.9040   35.1710 H   0  0  0  0  0  0  0  0  0  0  0  0
   39.2770   28.1630   34.7040 H   0  0  0  0  0  0  0  0  0  0  0  0
   37.1540   26.9780   34.2910 H   0  0  0  0  0  0  0  0  0  0  0  0
   37.0720   24.5800   34.3600 H   0  0  0  0  0  0  0  0  0  0  0  0
   36.1170   21.0870   35.7830 C   0  0  0  0  0  0  0  0  0  0  0  0
   35.4990   20.6420   34.5900 C   0  0  0  0  0  0  0  0  0  0  0  0
   36.1530   20.9970   33.4160 C   0  0  0  0  0  0  0  0  0  0  0  0
   37.2730   21.7050   33.4960 N   0  0  0  0  0  0  0  0  0  0  0  0
   37.8660   22.1300   34.5940 C   0  0  0  0  0  0  0  0  0  0  0  0
   37.2260   21.7810   35.7070 N   0  0  0  0  0  0  0  0  0  0  0  0
   34.6020   20.0810   34.6330 H   0  0  0  0  0  0  0  0  0  0  0  0
   35.5470   20.7880   37.0730 N   0  0  0  0  0  0  0  0  0  0  0  0
   35.3830   21.6280   37.6630 H   0  0  0  0  0  0  0  0  0  0  0  0
   35.3010   19.8550   37.4330 H   0  0  0  0  0  0  0  0  0  0  0  0
   35.5960   20.5870   32.1210 C   0  0  0  0  0  3  0  0  0  0  0  0
   34.7680   19.3630   31.9860 C   0  0  0  0  0  2  0  0  0  0  0  0
   36.1850   19.2820   31.6030 C   0  0  0  0  0  2  0  0  0  0  0  0
  1  2  1  0  0  0  0
  2  3  2  0  0  0  0
  3 11  1  0  0  0  0
  4  3  1  0  0  0  0
  5  4  2  0  0  0  0
  6  5  1  0  0  0  0
  6 12  1  0  0  0  0
  7  6  2  0  0  0  0
  8  9  2  0  0  0  0
  8  7  1  0  0  0  0
  9 10  1  0  0  0  0
 10  1  2  0  0  0  0
 10  5  1  0  0  0  0
 13  7  1  0  0  0  0
 14  8  1  0  0  0  0
 15  9  1  0  0  0  0
 16 23  1  0  0  0  0
 17 22  1  0  0  0  0
 17 16  2  0  0  0  0
 18 19  2  0  0  0  0
 18 17  1  0  0  0  0
 19 20  1  0  0  0  0
 20  1  1  0  0  0  0
 20 21  2  0  0  0  0
 21 16  1  0  0  0  0
 23 25  1  0  0  0  0
 23 24  1  0  0  0  0
 26 18  1  0  0  0  0
 27 26  1  0  0  0  0
 28 27  1  0  0  0  0
 28 26  1  0  0  0  0
M  END
>  <minimizedAffinity>
-5.69784498

$$$$

 OpenBabel03272503573D

 28 31  0  0  0  0  0  0  0  0999 V2000
   39.0200   22.2050   34.5040 C   0  0  0  0  0  0  0  0  0  0  0  0
   40.2710   21.8720   34.0960 N   0  0  0  0  0  0  0  0  0  0  0  0
   41.3210   21.9140   34.9240 C   0  0  0  0  0  0  0  0  0  0  0  0
   41.2530   22.2810   36.2220 N   0  0  0  0  0  0  0  0  0  0  0  0
   40.0290   22.6230   36.6810 C   0  0  0  0  0  0  0  0  0  0  0  0
   39.9440   23.0010   38.0000 C   0  0  0  0  0  0  0  0  0  0  0  0
   38.7150   23.3650   38.5340 C   0  0  0  0  0  0  0  0  0  0  0  0
   37.6280   23.3220   37.6810 C   0  0  0  0  0  0  0  0  0  0  0  0
   37.7820   22.9360   36.3750 C   0  0  0  0  0  0  0  0  0  0  0  0
   38.9710   22.5730   35.8180 C   0  0  0  0  0  0  0  0  0  0  0  0
   42.3290   21.6360   34.5590 H   0  0  0  0  0  0  0  0  0  0  0  0
   40.8340   23.0150   38.6280 H   0  0  0  0  0  0  0  0  0  0  0  0
   38.7140   23.6480   39.5660 H   0  0  0  0  0  0  0  0  0  0  0  0
   36.6960   23.6160   38.1500 H   0  0  0  0  0  0  0  0  0  0  0  0
   36.8410   22.9520   35.8480 H   0  0  0  0  0  0  0  0  0  0  0  0
   36.7330   23.5580   32.0740 C   0  0  0  0  0  0  0  0  0  0  0  0
   35.7790   22.5520   31.7910 C   0  0  0  0  0  0  0  0  0  0  0  0
   35.9530   21.3590   32.4820 C   0  0  0  0  0  0  0  0  0  0  0  0
   36.9700   21.2520   33.3280 N   0  0  0  0  0  0  0  0  0  0  0  0
   37.8700   22.1720   33.6070 C   0  0  0  0  0  0  0  0  0  0  0  0
   37.6880   23.3070   32.9370 N   0  0  0  0  0  0  0  0  0  0  0  0
   35.0020   22.7370   31.0960 H   0  0  0  0  0  0  0  0  0  0  0  0
   36.6710   24.8460   31.4300 N   0  0  0  0  0  0  0  0  0  0  0  0
   37.5520   25.1160   30.9480 H   0  0  0  0  0  0  0  0  0  0  0  0
   35.8630   25.4830   31.4110 H   0  0  0  0  0  0  0  0  0  0  0  0
   35.0180   20.2480   32.2620 C   0  0  0  0  0  3  0  0  0  0  0  0
   35.2820   18.8940   32.8050 C   0  0  0  0  0  2  0  0  0  0  0  0
   35.5960   19.1420   31.3920 C   0  0  0  0  0  2  0  0  0  0  0  0
  1 10  1  0  0  0  0
  2  1  2  0  0  0  0
  2  3  1  0  0  0  0
  3  4  2  0  0  0  0
  4  5  1  0  0  0  0
  5  6  1  0  0  0  0
  6  7  2  0  0  0  0
  6 12  1  0  0  0  0
  7 13  1  0  0  0  0
  8 14  1  0  0  0  0
  8  7  1  0  0  0  0
  9  8  2  0  0  0  0
 10  9  1  0  0  0  0
 10  5  2  0  0  0  0
 11  3  1  0  0  0  0
 15  9  1  0  0  0  0
 16 21  1  0  0  0  0
 17 16  2  0  0  0  0
 17 18  1  0  0  0  0
 18 19  2  0  0  0  0
 19 20  1  0  0  0  0
 20  1  1  0  0  0  0
 21 20  2  0  0  0  0
 22 17  1  0  0  0  0
 23 16  1  0  0  0  0
 24 23  1  0  0  0  0
 25 23  1  0  0  0  0
 26 18  1  0  0  0  0
 26 27  1  0  0  0  0
 28 26  1  0  0  0  0
 28 27  1  0  0  0  0
M  END
>  <minimizedAffinity>
-5.65960598

$$$$

 OpenBabel03272503573D

 28 31  0  0  0  0  0  0  0  0999 V2000
   38.6900   21.7280   33.6160 C   0  0  0  0  0  0  0  0  0  0  0  0
   39.8900   21.3610   33.0990 N   0  0  0  0  0  0  0  0  0  0  0  0
   39.9980   20.4030   32.1700 C   0  0  0  0  0  0  0  0  0  0  0  0
   38.9540   19.7170   31.6590 N   0  0  0  0  0  0  0  0  0  0  0  0
   37.7340   20.0430   32.1390 C   0  0  0  0  0  0  0  0  0  0  0  0
   36.6610   19.3510   31.6290 C   0  0  0  0  0  0  0  0  0  0  0  0
   35.3800   19.6370   32.0810 C   0  0  0  0  0  0  0  0  0  0  0  0
   35.2650   20.6270   33.0400 C   0  0  0  0  0  0  0  0  0  0  0  0
   36.3760   21.2790   33.5070 C   0  0  0  0  0  0  0  0  0  0  0  0
   37.6470   21.0240   33.0870 C   0  0  0  0  0  0  0  0  0  0  0  0
   40.9940   20.1270   31.7690 H   0  0  0  0  0  0  0  0  0  0  0  0
   36.8100   18.5810   30.8740 H   0  0  0  0  0  0  0  0  0  0  0  0
   34.5870   19.0660   31.6460 H   0  0  0  0  0  0  0  0  0  0  0  0
   34.2430   20.8090   33.3560 H   0  0  0  0  0  0  0  0  0  0  0  0
   36.1150   22.0210   34.2440 H   0  0  0  0  0  0  0  0  0  0  0  0
   38.9120   23.0780   36.9460 C   0  0  0  0  0  0  0  0  0  0  0  0
   38.4640   24.4190   36.8850 C   0  0  0  0  0  0  0  0  0  0  0  0
   38.0730   24.8570   35.6250 C   0  0  0  0  0  0  0  0  0  0  0  0
   38.1480   24.0140   34.6030 N   0  0  0  0  0  0  0  0  0  0  0  0
   38.5620   22.7630   34.6350 C   0  0  0  0  0  0  0  0  0  0  0  0
   38.9310   22.3620   35.8490 N   0  0  0  0  0  0  0  0  0  0  0  0
   38.4430   25.0130   37.7620 H   0  0  0  0  0  0  0  0  0  0  0  0
   39.3460   22.4940   38.1900 N   0  0  0  0  0  0  0  0  0  0  0  0
   40.3000   22.0830   38.1490 H   0  0  0  0  0  0  0  0  0  0  0  0
   38.8100   22.4560   39.0690 H   0  0  0  0  0  0  0  0  0  0  0  0
   37.5910   26.2330   35.4510 C   0  0  0  0  0  3  0  0  0  0  0  0
   37.9560   27.0370   34.2590 C   0  0  0  0  0  2  0  0  0  0  0  0
   38.7070   27.2680   35.5000 C   0  0  0  0  0  2  0  0  0  0  0  0
  1 20  1  0  0  0  0
  2  1  1  0  0  0  0
  3  2  2  0  0  0  0
  4  5  2  0  0  0  0
  4  3  1  0  0  0  0
  5 10  1  0  0  0  0
  6  7  2  0  0  0  0
  6  5  1  0  0  0  0
  7  8  1  0  0  0  0
  8 14  1  0  0  0  0
  8  9  2  0  0  0  0
  9 15  1  0  0  0  0
 10  9  1  0  0  0  0
 10  1  2  0  0  0  0
 11  3  1  0  0  0  0
 12  6  1  0  0  0  0
 13  7  1  0  0  0  0
 16 23  1  0  0  0  0
 17 16  1  0  0  0  0
 17 22  1  0  0  0  0
 18 17  2  0  0  0  0
 19 20  2  0  0  0  0
 19 18  1  0  0  0  0
 20 21  1  0  0  0  0
 21 16  2  0  0  0  0
 23 25  1  0  0  0  0
 24 23  1  0  0  0  0
 26 28  1  0  0  0  0
 26 18  1  0  0  0  0
 27 26  1  0  0  0  0
 27 28  1  0  0  0  0
M  END
>  <minimizedAffinity>
-5.64435673

$$$$

 OpenBabel03272503573D

 28 31  0  0  0  0  0  0  0  0999 V2000
   37.6060   22.9060   31.2230 C   0  0  0  0  0  0  0  0  0  0  0  0
   38.6660   22.6470   30.4150 N   0  0  0  0  0  0  0  0  0  0  0  0
   38.8540   21.4460   29.8550 C   0  0  0  0  0  0  0  0  0  0  0  0
   38.0320   20.3890   30.0270 N   0  0  0  0  0  0  0  0  0  0  0  0
   36.9590   20.5920   30.8230 C   0  0  0  0  0  0  0  0  0  0  0  0
   36.1130   19.5240   31.0080 C   0  0  0  0  0  0  0  0  0  0  0  0
   34.9920   19.6660   31.8160 C   0  0  0  0  0  0  0  0  0  0  0  0
   34.7950   20.9060   32.3950 C   0  0  0  0  0  0  0  0  0  0  0  0
   35.6780   21.9290   32.1690 C   0  0  0  0  0  0  0  0  0  0  0  0
   36.7870   21.8260   31.3840 C   0  0  0  0  0  0  0  0  0  0  0  0
   39.7300   21.2680   29.2000 H   0  0  0  0  0  0  0  0  0  0  0  0
   36.3160   18.5690   30.5260 H   0  0  0  0  0  0  0  0  0  0  0  0
   34.3730   18.7990   31.9210 H   0  0  0  0  0  0  0  0  0  0  0  0
   33.9070   20.9600   33.0150 H   0  0  0  0  0  0  0  0  0  0  0  0
   35.3790   22.8270   32.6880 H   0  0  0  0  0  0  0  0  0  0  0  0
   36.6950   26.3880   31.2860 C   0  0  0  0  0  0  0  0  0  0  0  0
   36.8800   26.8460   32.6130 C   0  0  0  0  0  0  0  0  0  0  0  0
   37.3400   25.8900   33.5110 C   0  0  0  0  0  0  0  0  0  0  0  0
   37.5640   24.6570   33.0740 N   0  0  0  0  0  0  0  0  0  0  0  0
   37.3980   24.2080   31.8460 C   0  0  0  0  0  0  0  0  0  0  0  0
   36.9570   25.1360   31.0010 N   0  0  0  0  0  0  0  0  0  0  0  0
   36.6720   27.8530   32.8620 H   0  0  0  0  0  0  0  0  0  0  0  0
   36.2230   27.2750   30.2520 N   0  0  0  0  0  0  0  0  0  0  0  0
   35.3800   26.9260   29.7540 H   0  0  0  0  0  0  0  0  0  0  0  0
   36.6370   28.1790   29.9850 H   0  0  0  0  0  0  0  0  0  0  0  0
   37.5660   26.2590   34.9140 C   0  0  0  0  0  3  0  0  0  0  0  0
   37.7290   27.6750   35.3260 C   0  0  0  0  0  2  0  0  0  0  0  0
   38.9420   26.8630   35.1590 C   0  0  0  0  0  2  0  0  0  0  0  0
  1 10  1  0  0  0  0
  1 20  1  0  0  0  0
  2  1  2  0  0  0  0
  3  4  2  0  0  0  0
  3  2  1  0  0  0  0
  4  5  1  0  0  0  0
  5  6  2  0  0  0  0
  5 10  1  0  0  0  0
  6  7  1  0  0  0  0
  7 13  1  0  0  0  0
  7  8  2  0  0  0  0
  8 14  1  0  0  0  0
  9  8  1  0  0  0  0
  9 15  1  0  0  0  0
 10  9  2  0  0  0  0
 11  3  1  0  0  0  0
 12  6  1  0  0  0  0
 16 17  1  0  0  0  0
 17 22  1  0  0  0  0
 17 18  2  0  0  0  0
 18 26  1  0  0  0  0
 19 18  1  0  0  0  0
 20 19  2  0  0  0  0
 21 16  2  0  0  0  0
 21 20  1  0  0  0  0
 23 16  1  0  0  0  0
 24 23  1  0  0  0  0
 25 23  1  0  0  0  0
 26 28  1  0  0  0  0
 26 27  1  0  0  0  0
 28 27  1  0  0  0  0
M  END
>  <minimizedAffinity>
-5.62859869

$$$$

 OpenBabel03272503573D

 28 31  0  0  0  0  0  0  0  0999 V2000
   38.3770   25.4790   35.1060 C   0  0  0  0  0  0  0  0  0  0  0  0
   38.1670   26.7000   35.6610 N   0  0  0  0  0  0  0  0  0  0  0  0
   37.4350   27.6390   35.0510 C   0  0  0  0  0  0  0  0  0  0  0  0
   36.8400   27.4790   33.8500 N   0  0  0  0  0  0  0  0  0  0  0  0
   37.0170   26.2810   33.2520 C   0  0  0  0  0  0  0  0  0  0  0  0
   36.4180   26.1040   32.0270 C   0  0  0  0  0  0  0  0  0  0  0  0
   36.5620   24.8950   31.3590 C   0  0  0  0  0  0  0  0  0  0  0  0
   37.3170   23.9230   31.9870 C   0  0  0  0  0  0  0  0  0  0  0  0
   37.8880   24.1640   33.2090 C   0  0  0  0  0  0  0  0  0  0  0  0
   37.7680   25.3360   33.8920 C   0  0  0  0  0  0  0  0  0  0  0  0
   37.2830   28.6260   35.5320 H   0  0  0  0  0  0  0  0  0  0  0  0
   35.8320   26.9050   31.5780 H   0  0  0  0  0  0  0  0  0  0  0  0
   36.0720   24.8190   30.4100 H   0  0  0  0  0  0  0  0  0  0  0  0
   37.3960   23.0010   31.4210 H   0  0  0  0  0  0  0  0  0  0  0  0
   38.4380   23.3060   33.5620 H   0  0  0  0  0  0  0  0  0  0  0  0
   39.1610   23.0890   37.6830 C   0  0  0  0  0  0  0  0  0  0  0  0
   40.3980   22.4930   37.3390 C   0  0  0  0  0  0  0  0  0  0  0  0
   40.9680   22.9500   36.1570 C   0  0  0  0  0  0  0  0  0  0  0  0
   40.3320   23.8830   35.4590 N   0  0  0  0  0  0  0  0  0  0  0  0
   39.1820   24.4520   35.7580 C   0  0  0  0  0  0  0  0  0  0  0  0
   38.6510   24.0020   36.8920 N   0  0  0  0  0  0  0  0  0  0  0  0
   40.8240   21.7540   37.9650 H   0  0  0  0  0  0  0  0  0  0  0  0
   38.4600   22.7100   38.8840 N   0  0  0  0  0  0  0  0  0  0  0  0
   37.4790   22.4100   38.7180 H   0  0  0  0  0  0  0  0  0  0  0  0
   38.8390   22.7130   39.8410 H   0  0  0  0  0  0  0  0  0  0  0  0
   42.2520   22.3970   35.7070 C   0  0  0  0  0  3  0  0  0  0  0  0
   43.1200   21.6140   36.6200 C   0  0  0  0  0  2  0  0  0  0  0  0
   43.4510   23.0290   36.3990 C   0  0  0  0  0  2  0  0  0  0  0  0
  1  2  1  0  0  0  0
  1 20  1  0  0  0  0
  3 11  1  0  0  0  0
  3  2  2  0  0  0  0
  4  3  1  0  0  0  0
  5  4  2  0  0  0  0
  5 10  1  0  0  0  0
  6  5  1  0  0  0  0
  7  8  1  0  0  0  0
  7  6  2  0  0  0  0
  8  9  2  0  0  0  0
  9 15  1  0  0  0  0
  9 10  1  0  0  0  0
 10  1  2  0  0  0  0
 12  6  1  0  0  0  0
 13  7  1  0  0  0  0
 14  8  1  0  0  0  0
 16 23  1  0  0  0  0
 17 16  1  0  0  0  0
 17 22  1  0  0  0  0
 18 17  2  0  0  0  0
 19 20  2  0  0  0  0
 19 18  1  0  0  0  0
 20 21  1  0  0  0  0
 21 16  2  0  0  0  0
 23 25  1  0  0  0  0
 24 23  1  0  0  0  0
 26 18  1  0  0  0  0
 26 28  1  0  0  0  0
 26 27  1  0  0  0  0
 28 27  1  0  0  0  0
M  END
>  <minimizedAffinity>
-5.60409069

$$$$

 OpenBabel03272503573D

 28 31  0  0  0  0  0  0  0  0999 V2000
   39.0920   22.2890   34.4780 C   0  0  0  0  0  0  0  0  0  0  0  0
   40.3340   21.8750   34.1190 N   0  0  0  0  0  0  0  0  0  0  0  0
   41.3450   21.8250   34.9940 C   0  0  0  0  0  0  0  0  0  0  0  0
   41.2430   22.1720   36.2950 N   0  0  0  0  0  0  0  0  0  0  0  0
   40.0270   22.5910   36.7070 C   0  0  0  0  0  0  0  0  0  0  0  0
   39.9080   22.9480   38.0300 C   0  0  0  0  0  0  0  0  0  0  0  0
   38.6840   23.3900   38.5160 C   0  0  0  0  0  0  0  0  0  0  0  0
   37.6370   23.4410   37.6140 C   0  0  0  0  0  0  0  0  0  0  0  0
   37.8230   23.0700   36.3070 C   0  0  0  0  0  0  0  0  0  0  0  0
   39.0090   22.6340   35.7960 C   0  0  0  0  0  0  0  0  0  0  0  0
   42.3470   21.4830   34.6690 H   0  0  0  0  0  0  0  0  0  0  0  0
   40.7660   22.8870   38.6970 H   0  0  0  0  0  0  0  0  0  0  0  0
   38.6550   23.6520   39.5530 H   0  0  0  0  0  0  0  0  0  0  0  0
   36.7070   23.7920   38.0470 H   0  0  0  0  0  0  0  0  0  0  0  0
   36.9120   23.1640   35.7390 H   0  0  0  0  0  0  0  0  0  0  0  0
   36.1280   21.0850   32.8250 C   0  0  0  0  0  0  0  0  0  0  0  0
   35.7540   22.0620   31.8720 C   0  0  0  0  0  0  0  0  0  0  0  0
   36.5760   23.1810   31.8160 C   0  0  0  0  0  0  0  0  0  0  0  0
   37.6180   23.2510   32.6350 N   0  0  0  0  0  0  0  0  0  0  0  0
   37.9860   22.3560   33.5290 C   0  0  0  0  0  0  0  0  0  0  0  0
   37.1880   21.2920   33.5690 N   0  0  0  0  0  0  0  0  0  0  0  0
   34.9000   21.9120   31.2640 H   0  0  0  0  0  0  0  0  0  0  0  0
   35.3650   19.8730   32.9880 N   0  0  0  0  0  0  0  0  0  0  0  0
   35.0500   19.7060   33.9650 H   0  0  0  0  0  0  0  0  0  0  0  0
   35.1210   19.1990   32.2500 H   0  0  0  0  0  0  0  0  0  0  0  0
   36.2770   24.2560   30.8620 C   0  0  0  0  0  3  0  0  0  0  0  0
   36.3540   25.6850   31.2550 C   0  0  0  0  0  2  0  0  0  0  0  0
   35.0300   25.0490   31.2260 C   0  0  0  0  0  2  0  0  0  0  0  0
  1 10  1  0  0  0  0
  2  1  2  0  0  0  0
  2  3  1  0  0  0  0
  3  4  2  0  0  0  0
  4  5  1  0  0  0  0
  5  6  1  0  0  0  0
  6  7  2  0  0  0  0
  6 12  1  0  0  0  0
  7 13  1  0  0  0  0
  8 14  1  0  0  0  0
  8  7  1  0  0  0  0
  9  8  2  0  0  0  0
 10  9  1  0  0  0  0
 10  5  2  0  0  0  0
 11  3  1  0  0  0  0
 15  9  1  0  0  0  0
 16 23  1  0  0  0  0
 16 21  1  0  0  0  0
 17 16  2  0  0  0  0
 18 17  1  0  0  0  0
 18 19  2  0  0  0  0
 19 20  1  0  0  0  0
 20 21  2  0  0  0  0
 20  1  1  0  0  0  0
 22 17  1  0  0  0  0
 23 24  1  0  0  0  0
 25 23  1  0  0  0  0
 26 28  1  0  0  0  0
 26 27  1  0  0  0  0
 26 18  1  0  0  0  0
 28 27  1  0  0  0  0
M  END
>  <minimizedAffinity>
-5.59390211

$$$$

 OpenBabel03272503573D

 28 31  0  0  0  0  0  0  0  0999 V2000
   39.0530   23.6530   34.4110 C   0  0  0  0  0  0  0  0  0  0  0  0
   40.1160   22.9840   33.8970 N   0  0  0  0  0  0  0  0  0  0  0  0
   40.9800   22.3210   34.6760 C   0  0  0  0  0  0  0  0  0  0  0  0
   40.8910   22.2490   36.0210 N   0  0  0  0  0  0  0  0  0  0  0  0
   39.8500   22.8980   36.5850 C   0  0  0  0  0  0  0  0  0  0  0  0
   39.7460   22.8330   37.9550 C   0  0  0  0  0  0  0  0  0  0  0  0
   38.6990   23.4810   38.5970 C   0  0  0  0  0  0  0  0  0  0  0  0
   37.8040   24.1650   37.7950 C   0  0  0  0  0  0  0  0  0  0  0  0
   37.9650   24.1900   36.4350 C   0  0  0  0  0  0  0  0  0  0  0  0
   38.9790   23.5670   35.7720 C   0  0  0  0  0  0  0  0  0  0  0  0
   41.8380   21.7850   34.2240 H   0  0  0  0  0  0  0  0  0  0  0  0
   40.4800   22.2790   38.5380 H   0  0  0  0  0  0  0  0  0  0  0  0
   38.6730   23.3930   39.6630 H   0  0  0  0  0  0  0  0  0  0  0  0
   37.0080   24.6500   38.3490 H   0  0  0  0  0  0  0  0  0  0  0  0
   37.1840   24.7600   35.9570 H   0  0  0  0  0  0  0  0  0  0  0  0
   36.4670   23.9910   31.9280 C   0  0  0  0  0  0  0  0  0  0  0  0
   36.1950   25.3730   31.7920 C   0  0  0  0  0  0  0  0  0  0  0  0
   36.9490   26.2090   32.6070 C   0  0  0  0  0  0  0  0  0  0  0  0
   37.8410   25.6680   33.4280 N   0  0  0  0  0  0  0  0  0  0  0  0
   38.1110   24.3860   33.5720 C   0  0  0  0  0  0  0  0  0  0  0  0
   37.3800   23.6020   32.7840 N   0  0  0  0  0  0  0  0  0  0  0  0
   35.4600   25.7050   31.1060 H   0  0  0  0  0  0  0  0  0  0  0  0
   35.7590   23.0120   31.1430 N   0  0  0  0  0  0  0  0  0  0  0  0
   35.3020   22.2710   31.7110 H   0  0  0  0  0  0  0  0  0  0  0  0
   35.6760   22.9930   30.1160 H   0  0  0  0  0  0  0  0  0  0  0  0
   36.7450   27.6620   32.5460 C   0  0  0  0  0  3  0  0  0  0  0  0
   36.0480   28.2980   31.4020 C   0  0  0  0  0  2  0  0  0  0  0  0
   37.5170   28.3270   31.4150 C   0  0  0  0  0  2  0  0  0  0  0  0
  1 10  1  0  0  0  0
  2  1  2  0  0  0  0
  2  3  1  0  0  0  0
  3  4  2  0  0  0  0
  4  5  1  0  0  0  0
  5  6  1  0  0  0  0
  6 12  1  0  0  0  0
  6  7  2  0  0  0  0
  7 13  1  0  0  0  0
  8 14  1  0  0  0  0
  8  7  1  0  0  0  0
  9  8  2  0  0  0  0
 10  9  1  0  0  0  0
 10  5  2  0  0  0  0
 11  3  1  0  0  0  0
 15  9  1  0  0  0  0
 16 21  1  0  0  0  0
 17 16  2  0  0  0  0
 17 18  1  0  0  0  0
 18 19  2  0  0  0  0
 19 20  1  0  0  0  0
 20  1  1  0  0  0  0
 21 20  2  0  0  0  0
 22 17  1  0  0  0  0
 23 24  1  0  0  0  0
 23 16  1  0  0  0  0
 25 23  1  0  0  0  0
 26 18  1  0  0  0  0
 27 28  1  0  0  0  0
 27 26  1  0  0  0  0
 28 26  1  0  0  0  0
M  END
>  <minimizedAffinity>
-5.45537758

$$$$

 OpenBabel03272503573D

 28 31  0  0  0  0  0  0  0  0999 V2000
   36.1010   28.2980   32.7770 C   0  0  0  0  0  0  0  0  0  0  0  0
   36.1210   27.9230   31.4730 N   0  0  0  0  0  0  0  0  0  0  0  0
   37.0260   27.0610   30.9970 C   0  0  0  0  0  0  0  0  0  0  0  0
   37.9940   26.4850   31.7410 N   0  0  0  0  0  0  0  0  0  0  0  0
   38.0200   26.8220   33.0490 C   0  0  0  0  0  0  0  0  0  0  0  0
   39.0010   26.2440   33.8200 C   0  0  0  0  0  0  0  0  0  0  0  0
   39.0830   26.5500   35.1720 C   0  0  0  0  0  0  0  0  0  0  0  0
   38.1480   27.4400   35.6670 C   0  0  0  0  0  0  0  0  0  0  0  0
   37.1960   27.9820   34.8430 C   0  0  0  0  0  0  0  0  0  0  0  0
   37.0860   27.7040   33.5140 C   0  0  0  0  0  0  0  0  0  0  0  0
   37.0150   26.7760   29.9260 H   0  0  0  0  0  0  0  0  0  0  0  0
   39.7120   25.5480   33.3780 H   0  0  0  0  0  0  0  0  0  0  0  0
   39.8670   26.0680   35.7180 H   0  0  0  0  0  0  0  0  0  0  0  0
   38.2600   27.6430   36.7270 H   0  0  0  0  0  0  0  0  0  0  0  0
   36.5440   28.6500   35.3830 H   0  0  0  0  0  0  0  0  0  0  0  0
   32.8050   29.6660   33.2530 C   0  0  0  0  0  0  0  0  0  0  0  0
   32.9410   30.8110   34.0740 C   0  0  0  0  0  0  0  0  0  0  0  0
   34.2400   31.1040   34.4720 C   0  0  0  0  0  0  0  0  0  0  0  0
   35.2260   30.3140   34.0670 N   0  0  0  0  0  0  0  0  0  0  0  0
   35.1250   29.2450   33.3040 C   0  0  0  0  0  0  0  0  0  0  0  0
   33.8750   28.9790   32.9330 N   0  0  0  0  0  0  0  0  0  0  0  0
   32.0870   31.3760   34.3430 H   0  0  0  0  0  0  0  0  0  0  0  0
   31.5140   29.2480   32.7660 N   0  0  0  0  0  0  0  0  0  0  0  0
   31.2820   28.2600   32.9920 H   0  0  0  0  0  0  0  0  0  0  0  0
   30.8410   29.8230   32.2410 H   0  0  0  0  0  0  0  0  0  0  0  0
   34.4920   32.2710   35.3270 C   0  0  0  0  0  3  0  0  0  0  0  0
   35.8030   32.4770   35.9890 C   0  0  0  0  0  2  0  0  0  0  0  0
   34.7110   31.9060   36.7880 C   0  0  0  0  0  2  0  0  0  0  0  0
  1 20  1  0  0  0  0
  1 10  1  0  0  0  0
  2  1  2  0  0  0  0
  3  2  1  0  0  0  0
  3  4  2  0  0  0  0
  4  5  1  0  0  0  0
  5 10  2  0  0  0  0
  5  6  1  0  0  0  0
  6  7  2  0  0  0  0
  7  8  1  0  0  0  0
  7 13  1  0  0  0  0
  8 14  1  0  0  0  0
  9 15  1  0  0  0  0
  9  8  2  0  0  0  0
 10  9  1  0  0  0  0
 11  3  1  0  0  0  0
 12  6  1  0  0  0  0
 16 17  1  0  0  0  0
 17 22  1  0  0  0  0
 17 18  2  0  0  0  0
 18 26  1  0  0  0  0
 19 18  1  0  0  0  0
 20 19  2  0  0  0  0
 21 16  2  0  0  0  0
 21 20  1  0  0  0  0
 23 24  1  0  0  0  0
 23 16  1  0  0  0  0
 25 23  1  0  0  0  0
 26 27  1  0  0  0  0
 26 28  1  0  0  0  0
 27 28  1  0  0  0  0
M  END
>  <minimizedAffinity>
-5.45039225

$$$$
