
 OpenBabel03272507223D

 37 41  0  0  1  0  0  0  0  0999 V2000
   38.1590   32.3480   48.7620 C   0  0  0  0  0  0  0  0  0  0  0  0
   38.7550   33.4280   49.3730 C   0  0  0  0  0  0  0  0  0  0  0  0
   39.6590   34.1400   48.5790 C   0  0  0  0  0  0  0  0  0  0  0  0
   39.9040   33.7590   47.2930 N   0  0  0  0  0  0  0  0  0  0  0  0
   39.3010   32.6900   46.7220 C   0  0  0  0  0  0  0  0  0  0  0  0
   38.4170   31.9830   47.4770 N   0  0  0  0  0  0  0  0  0  0  0  0
   38.5920   33.7560   50.3670 H   0  0  0  0  0  0  0  0  0  0  0  0
   40.1490   34.9880   49.0080 H   0  0  0  0  0  0  0  0  0  0  0  0
   39.1500   33.1290   44.3350 C   0  0  0  0  0  0  0  0  0  0  0  0
   39.5750   32.2910   45.3410 C   0  0  0  0  0  0  0  0  0  0  0  0
   40.2340   31.1180   45.0190 C   0  0  0  0  0  0  0  0  0  0  0  0
   40.4960   30.7330   43.7170 C   0  0  0  0  0  0  0  0  0  0  0  0
   41.1010   29.6660   43.1510 N   0  0  0  0  0  0  0  0  0  0  0  0
   41.0320   29.8810   41.8160 C   0  0  0  0  0  0  0  0  0  0  0  0
   40.4050   31.0390   41.5560 N   0  0  0  0  0  0  0  0  0  0  0  0
   40.0490   31.6110   42.7290 C   0  0  0  0  0  0  0  0  0  0  0  0
   39.3930   32.7800   43.0190 C   0  0  0  0  0  0  0  0  0  0  0  0
   38.6350   34.0480   44.5800 H   0  0  0  0  0  0  0  0  0  0  0  0
   40.5640   30.4640   45.8240 H   0  0  0  0  0  0  0  0  0  0  0  0
   41.5280   28.8570   43.6550 H   0  0  0  0  0  0  0  0  0  0  0  0
   41.4320   29.2020   41.0730 H   0  0  0  0  0  0  0  0  0  0  0  0
   39.0540   33.4490   42.2380 H   0  0  0  0  0  0  0  0  0  0  0  0
   37.1840   31.5400   49.5880 C   0  0  1  0  0  0  0  0  0  0  0  0
   36.1320   30.7740   48.9640 C   0  0  2  0  0  0  0  0  0  0  0  0
   37.4120   30.0410   49.4260 C   0  0  2  0  0  0  0  0  0  0  0  0
   37.0250   31.9780   50.6010 H   0  0  0  0  0  0  0  0  0  0  0  0
   35.3650   30.2290   49.6200 H   0  0  0  0  0  0  0  0  0  0  0  0
   38.0290   29.6870   48.6020 H   0  0  0  0  0  0  0  0  0  0  0  0
   37.4510   29.2750   50.7010 C   0  0  0  0  0  0  0  0  0  0  0  0
   37.3870   29.9470   52.0200 C   0  0  0  0  0  0  0  0  0  0  0  0
   36.1340   29.3140   51.4610 C   0  0  0  0  0  0  0  0  0  0  0  0
   35.9870   30.8070   47.6190 O   0  0  0  0  0  0  0  0  0  0  0  0
   35.0990   30.4320   46.7050 C   0  0  0  0  0  0  0  0  0  0  0  0
   35.5970   29.9860   45.6240 O   0  0  0  0  0  0  0  0  0  0  0  0
   33.7790   30.5780   47.0510 N   0  0  0  0  0  0  0  0  0  0  0  0
   33.2900   31.4260   47.4120 H   0  0  0  0  0  0  0  0  0  0  0  0
   33.3160   29.6530   46.8870 H   0  0  0  0  0  0  0  0  0  0  0  0
  1  2  1  0  0  0  0
  1 23  1  0  0  0  0
  2  7  1  0  0  0  0
  3  8  1  0  0  0  0
  3  2  2  0  0  0  0
  4  3  1  0  0  0  0
  5  4  2  0  0  0  0
  5  6  1  0  0  0  0
  6  1  2  0  0  0  0
  9 18  1  0  0  0  0
  9 10  1  0  0  0  0
 10  5  1  0  0  0  0
 11 10  2  0  0  0  0
 11 19  1  0  0  0  0
 12 11  1  0  0  0  0
 13 20  1  0  0  0  0
 13 12  1  0  0  0  0
 14 13  1  0  0  0  0
 15 14  2  0  0  0  0
 15 16  1  0  0  0  0
 16 17  1  0  0  0  0
 16 12  2  0  0  0  0
 17  9  2  0  0  0  0
 21 14  1  0  0  0  0
 22 17  1  0  0  0  0
 23 26  1  1  0  0  0
 24 25  1  0  0  0  0
 24 23  1  0  0  0  0
 24 27  1  1  0  0  0
 25 28  1  6  0  0  0
 25 23  1  0  0  0  0
 25 29  1  0  0  0  0
 29 31  1  0  0  0  0
 29 30  1  0  0  0  0
 31 30  1  0  0  0  0
 32 24  1  0  0  0  0
 33 35  1  0  0  0  0
 33 32  1  0  0  0  0
 34 33  2  0  0  0  0
 35 36  1  0  0  0  0
 37 35  1  0  0  0  0
M  END
>  <minimizedAffinity>
-7.39249325

>  <minimizedRMSD>
1.70957017

$$$$
