
 OpenBabel03272500313D

 22 24  0  0  0  0  0  0  0  0999 V2000
   36.0080   20.9140   35.9230 Cl  0  0  0  0  0  0  0  0  0  0  0  0
   36.8150   21.5210   34.4780 C   0  0  0  0  0  0  0  0  0  0  0  0
   37.8590   22.3810   34.6980 C   0  0  0  0  0  0  0  0  0  0  0  0
   38.5210   22.8800   33.5610 C   0  0  0  0  0  0  0  0  0  0  0  0
   38.0950   22.4850   32.3130 C   0  0  0  0  0  0  0  0  0  0  0  0
   37.0410   21.6200   32.1900 C   0  0  0  0  0  0  0  0  0  0  0  0
   36.3590   21.1020   33.2540 C   0  0  0  0  0  0  0  0  0  0  0  0
   39.3500   23.5610   33.6820 H   0  0  0  0  0  0  0  0  0  0  0  0
   38.6220   22.8830   31.4430 H   0  0  0  0  0  0  0  0  0  0  0  0
   36.7310   21.3290   31.1750 H   0  0  0  0  0  0  0  0  0  0  0  0
   39.8890   22.6570   37.7140 C   0  0  0  0  0  0  0  0  0  0  0  0
   39.1330   23.4580   38.5660 C   0  0  0  0  0  0  0  0  0  0  0  0
   37.8970   23.9090   38.0830 C   0  0  0  0  0  0  0  0  0  0  0  0
   37.5110   23.5430   36.8260 N   0  0  0  0  0  0  0  0  0  0  0  0
   38.2740   22.7700   36.0400 C   0  0  0  0  0  0  0  0  0  0  0  0
   39.4580   22.3340   36.4970 N   0  0  0  0  0  0  0  0  0  0  0  0
   40.8470   22.3120   38.0990 H   0  0  0  0  0  0  0  0  0  0  0  0
   39.3920   23.7670   39.5500 H   0  0  0  0  0  0  0  0  0  0  0  0
   37.2010   24.5230   38.5990 H   0  0  0  0  0  0  0  0  0  0  0  0
   35.2080   20.1590   33.1380 C   0  0  0  0  0  3  0  0  0  0  0  0
   35.4890   18.7000   32.8470 C   0  0  0  0  0  2  0  0  0  0  0  0
   34.9450   19.5490   31.7830 C   0  0  0  0  0  2  0  0  0  0  0  0
  2  3  1  0  0  0  0
  2  1  1  0  0  0  0
  3 15  1  0  0  0  0
  4  8  1  0  0  0  0
  4  3  2  0  0  0  0
  5  4  1  0  0  0  0
  6  5  2  0  0  0  0
  6  7  1  0  0  0  0
  7  2  2  0  0  0  0
  9  5  1  0  0  0  0
 10  6  1  0  0  0  0
 11 17  1  0  0  0  0
 11 12  1  0  0  0  0
 12 18  1  0  0  0  0
 13 12  2  0  0  0  0
 13 19  1  0  0  0  0
 14 13  1  0  0  0  0
 15 16  1  0  0  0  0
 15 14  2  0  0  0  0
 16 11  2  0  0  0  0
 20  7  1  0  0  0  0
 21 20  1  0  0  0  0
 22 21  1  0  0  0  0
 22 20  1  0  0  0  0
M  END
>  <minimizedAffinity>
-4.93604231

$$$$

 OpenBabel03272500313D

 22 24  0  0  0  0  0  0  0  0999 V2000
   38.0110   23.1800   33.3250 Cl  0  0  0  0  0  0  0  0  0  0  0  0
   37.7290   24.8780   33.7080 C   0  0  0  0  0  0  0  0  0  0  0  0
   38.1940   25.2970   34.9270 C   0  0  0  0  0  0  0  0  0  0  0  0
   37.9830   26.6470   35.2580 C   0  0  0  0  0  0  0  0  0  0  0  0
   37.3340   27.4620   34.3580 C   0  0  0  0  0  0  0  0  0  0  0  0
   36.9030   26.9550   33.1610 C   0  0  0  0  0  0  0  0  0  0  0  0
   37.0790   25.6550   32.7830 C   0  0  0  0  0  0  0  0  0  0  0  0
   38.3310   27.0250   36.2080 H   0  0  0  0  0  0  0  0  0  0  0  0
   37.1790   28.5070   34.6330 H   0  0  0  0  0  0  0  0  0  0  0  0
   36.3890   27.6390   32.4690 H   0  0  0  0  0  0  0  0  0  0  0  0
   40.8050   23.1960   36.3660 C   0  0  0  0  0  0  0  0  0  0  0  0
   40.2380   22.6930   37.5330 C   0  0  0  0  0  0  0  0  0  0  0  0
   38.9260   23.0910   37.8250 C   0  0  0  0  0  0  0  0  0  0  0  0
   38.2900   23.9350   36.9620 N   0  0  0  0  0  0  0  0  0  0  0  0
   38.8760   24.3950   35.8480 C   0  0  0  0  0  0  0  0  0  0  0  0
   40.1320   24.0170   35.5630 N   0  0  0  0  0  0  0  0  0  0  0  0
   41.8240   22.8810   36.1490 H   0  0  0  0  0  0  0  0  0  0  0  0
   40.6940   22.0350   38.2340 H   0  0  0  0  0  0  0  0  0  0  0  0
   38.3490   22.8020   38.6690 H   0  0  0  0  0  0  0  0  0  0  0  0
   36.6160   25.0860   31.4830 C   0  0  0  0  0  3  0  0  0  0  0  0
   35.3020   25.5650   30.9060 C   0  0  0  0  0  2  0  0  0  0  0  0
   35.3760   24.2290   31.5030 C   0  0  0  0  0  2  0  0  0  0  0  0
  1  2  1  0  0  0  0
  2  3  1  0  0  0  0
  3  4  2  0  0  0  0
  3 15  1  0  0  0  0
  4  8  1  0  0  0  0
  5  9  1  0  0  0  0
  5  4  1  0  0  0  0
  6  5  2  0  0  0  0
  7  6  1  0  0  0  0
  7  2  2  0  0  0  0
 10  6  1  0  0  0  0
 11 12  1  0  0  0  0
 12 13  2  0  0  0  0
 12 18  1  0  0  0  0
 13 19  1  0  0  0  0
 14 13  1  0  0  0  0
 15 14  2  0  0  0  0
 16 15  1  0  0  0  0
 16 11  2  0  0  0  0
 17 11  1  0  0  0  0
 20 22  1  0  0  0  0
 20  7  1  0  0  0  0
 21 20  1  0  0  0  0
 21 22  1  0  0  0  0
M  END
>  <minimizedAffinity>
-4.68182468

$$$$

 OpenBabel03272500313D

 22 24  0  0  0  0  0  0  0  0999 V2000
   40.6690   24.6400   34.5360 Cl  0  0  0  0  0  0  0  0  0  0  0  0
   39.8030   24.0920   35.9710 C   0  0  0  0  0  0  0  0  0  0  0  0
   38.5520   24.6230   36.1480 C   0  0  0  0  0  0  0  0  0  0  0  0
   37.8390   24.2030   37.2850 C   0  0  0  0  0  0  0  0  0  0  0  0
   38.4240   23.2980   38.1430 C   0  0  0  0  0  0  0  0  0  0  0  0
   39.6810   22.8220   37.8860 C   0  0  0  0  0  0  0  0  0  0  0  0
   40.4220   23.1910   36.7990 C   0  0  0  0  0  0  0  0  0  0  0  0
   36.8490   24.5920   37.4690 H   0  0  0  0  0  0  0  0  0  0  0  0
   37.8540   22.9840   39.0210 H   0  0  0  0  0  0  0  0  0  0  0  0
   40.1120   22.1010   38.5960 H   0  0  0  0  0  0  0  0  0  0  0  0
   37.2770   27.7630   34.8030 C   0  0  0  0  0  0  0  0  0  0  0  0
   36.8930   27.4500   33.5020 C   0  0  0  0  0  0  0  0  0  0  0  0
   37.0800   26.1240   33.0860 C   0  0  0  0  0  0  0  0  0  0  0  0
   37.6200   25.2310   33.9660 N   0  0  0  0  0  0  0  0  0  0  0  0
   37.9760   25.5790   35.2100 C   0  0  0  0  0  0  0  0  0  0  0  0
   37.7980   26.8460   35.6150 N   0  0  0  0  0  0  0  0  0  0  0  0
   37.1260   28.7950   35.1160 H   0  0  0  0  0  0  0  0  0  0  0  0
   36.4690   28.1100   32.7840 H   0  0  0  0  0  0  0  0  0  0  0  0
   36.8440   25.7200   32.1320 H   0  0  0  0  0  0  0  0  0  0  0  0
   41.7930   22.6810   36.5030 C   0  0  0  0  0  3  0  0  0  0  0  0
   41.9400   21.4440   35.6440 C   0  0  0  0  0  2  0  0  0  0  0  0
   42.1780   21.3450   37.0860 C   0  0  0  0  0  2  0  0  0  0  0  0
  1  2  1  0  0  0  0
  2  3  2  0  0  0  0
  2  7  1  0  0  0  0
  3  4  1  0  0  0  0
  4  8  1  0  0  0  0
  4  5  2  0  0  0  0
  5  9  1  0  0  0  0
  6  5  1  0  0  0  0
  6 10  1  0  0  0  0
  7  6  2  0  0  0  0
 11 17  1  0  0  0  0
 11 16  1  0  0  0  0
 12 11  2  0  0  0  0
 13 12  1  0  0  0  0
 13 14  2  0  0  0  0
 14 15  1  0  0  0  0
 15 16  2  0  0  0  0
 15  3  1  0  0  0  0
 18 12  1  0  0  0  0
 19 13  1  0  0  0  0
 20  7  1  0  0  0  0
 20 22  1  0  0  0  0
 21 20  1  0  0  0  0
 21 22  1  0  0  0  0
M  END
>  <minimizedAffinity>
-4.61861849

$$$$

 OpenBabel03272500313D

 22 24  0  0  0  0  0  0  0  0999 V2000
   37.9430   23.7570   33.5690 Cl  0  0  0  0  0  0  0  0  0  0  0  0
   37.8410   25.3790   34.2550 C   0  0  0  0  0  0  0  0  0  0  0  0
   38.4760   25.5550   35.4570 C   0  0  0  0  0  0  0  0  0  0  0  0
   38.4100   26.8400   36.0270 C   0  0  0  0  0  0  0  0  0  0  0  0
   37.7270   27.8320   35.3600 C   0  0  0  0  0  0  0  0  0  0  0  0
   37.1220   27.5620   34.1620 C   0  0  0  0  0  0  0  0  0  0  0  0
   37.1510   26.3370   33.5590 C   0  0  0  0  0  0  0  0  0  0  0  0
   38.8950   27.0290   36.9730 H   0  0  0  0  0  0  0  0  0  0  0  0
   37.6880   28.8220   35.8190 H   0  0  0  0  0  0  0  0  0  0  0  0
   36.5860   28.3820   33.6610 H   0  0  0  0  0  0  0  0  0  0  0  0
   39.2430   22.9350   37.8740 C   0  0  0  0  0  0  0  0  0  0  0  0
   40.4650   22.4210   37.4480 C   0  0  0  0  0  0  0  0  0  0  0  0
   41.0320   22.9960   36.3020 C   0  0  0  0  0  0  0  0  0  0  0  0
   40.3630   24.0090   35.6790 N   0  0  0  0  0  0  0  0  0  0  0  0
   39.1870   24.4720   36.1250 C   0  0  0  0  0  0  0  0  0  0  0  0
   38.6400   23.9270   37.2220 N   0  0  0  0  0  0  0  0  0  0  0  0
   38.8120   22.4820   38.7650 H   0  0  0  0  0  0  0  0  0  0  0  0
   41.0210   21.6350   37.9010 H   0  0  0  0  0  0  0  0  0  0  0  0
   41.9520   22.7240   35.8460 H   0  0  0  0  0  0  0  0  0  0  0  0
   36.4980   26.0260   32.2530 C   0  0  0  0  0  3  0  0  0  0  0  0
   37.2500   26.3240   30.9740 C   0  0  0  0  0  2  0  0  0  0  0  0
   36.1340   27.1900   31.3650 C   0  0  0  0  0  2  0  0  0  0  0  0
  1  2  1  0  0  0  0
  2  3  1  0  0  0  0
  3  4  2  0  0  0  0
  3 15  1  0  0  0  0
  4  8  1  0  0  0  0
  5  9  1  0  0  0  0
  5  4  1  0  0  0  0
  6  5  2  0  0  0  0
  7  6  1  0  0  0  0
  7  2  2  0  0  0  0
 10  6  1  0  0  0  0
 11 17  1  0  0  0  0
 12 11  1  0  0  0  0
 12 18  1  0  0  0  0
 13 12  2  0  0  0  0
 14 15  2  0  0  0  0
 14 13  1  0  0  0  0
 15 16  1  0  0  0  0
 16 11  2  0  0  0  0
 19 13  1  0  0  0  0
 20  7  1  0  0  0  0
 21 22  1  0  0  0  0
 21 20  1  0  0  0  0
 22 20  1  0  0  0  0
M  END
>  <minimizedAffinity>
-4.61280584

$$$$

 OpenBabel03272500313D

 22 24  0  0  0  0  0  0  0  0999 V2000
   38.9010   26.7280   35.3240 Cl  0  0  0  0  0  0  0  0  0  0  0  0
   38.4100   25.5210   34.1360 C   0  0  0  0  0  0  0  0  0  0  0  0
   38.2780   24.2420   34.6100 C   0  0  0  0  0  0  0  0  0  0  0  0
   37.8860   23.2590   33.6830 C   0  0  0  0  0  0  0  0  0  0  0  0
   37.6600   23.6260   32.3760 C   0  0  0  0  0  0  0  0  0  0  0  0
   37.8180   24.9310   31.9920 C   0  0  0  0  0  0  0  0  0  0  0  0
   38.1950   25.9290   32.8450 C   0  0  0  0  0  0  0  0  0  0  0  0
   37.7690   22.2360   34.0080 H   0  0  0  0  0  0  0  0  0  0  0  0
   37.3570   22.8480   31.6710 H   0  0  0  0  0  0  0  0  0  0  0  0
   37.6270   25.1830   30.9390 H   0  0  0  0  0  0  0  0  0  0  0  0
   37.8050   23.9940   38.2170 C   0  0  0  0  0  0  0  0  0  0  0  0
   38.9260   23.3000   38.6640 C   0  0  0  0  0  0  0  0  0  0  0  0
   39.8630   22.9130   37.6960 C   0  0  0  0  0  0  0  0  0  0  0  0
   39.6250   23.2330   36.3900 N   0  0  0  0  0  0  0  0  0  0  0  0
   38.5290   23.9020   36.0050 C   0  0  0  0  0  0  0  0  0  0  0  0
   37.6300   24.2760   36.9280 N   0  0  0  0  0  0  0  0  0  0  0  0
   37.0850   24.2900   38.9780 H   0  0  0  0  0  0  0  0  0  0  0  0
   39.1530   23.0310   39.6680 H   0  0  0  0  0  0  0  0  0  0  0  0
   40.7670   22.3810   37.8640 H   0  0  0  0  0  0  0  0  0  0  0  0
   38.3710   27.3570   32.4440 C   0  0  0  0  0  3  0  0  0  0  0  0
   37.1400   28.2090   32.2280 C   0  0  0  0  0  2  0  0  0  0  0  0
   37.9050   27.7520   31.0650 C   0  0  0  0  0  2  0  0  0  0  0  0
  2  3  1  0  0  0  0
  2  1  1  0  0  0  0
  3 15  1  0  0  0  0
  4  8  1  0  0  0  0
  4  3  2  0  0  0  0
  5  4  1  0  0  0  0
  6  5  2  0  0  0  0
  6  7  1  0  0  0  0
  7  2  2  0  0  0  0
  9  5  1  0  0  0  0
 10  6  1  0  0  0  0
 11 12  1  0  0  0  0
 11 17  1  0  0  0  0
 12 18  1  0  0  0  0
 13 19  1  0  0  0  0
 13 12  2  0  0  0  0
 14 13  1  0  0  0  0
 15 14  2  0  0  0  0
 15 16  1  0  0  0  0
 16 11  2  0  0  0  0
 20  7  1  0  0  0  0
 21 20  1  0  0  0  0
 22 21  1  0  0  0  0
 22 20  1  0  0  0  0
M  END
>  <minimizedAffinity>
-4.47470236

$$$$

 OpenBabel03272500313D

 22 24  0  0  0  0  0  0  0  0999 V2000
   38.2080   26.9370   35.6280 Cl  0  0  0  0  0  0  0  0  0  0  0  0
   37.9100   25.8270   34.2910 C   0  0  0  0  0  0  0  0  0  0  0  0
   38.0390   24.4950   34.5850 C   0  0  0  0  0  0  0  0  0  0  0  0
   37.8060   23.5870   33.5360 C   0  0  0  0  0  0  0  0  0  0  0  0
   37.4670   24.0750   32.2940 C   0  0  0  0  0  0  0  0  0  0  0  0
   37.3610   25.4250   32.0920 C   0  0  0  0  0  0  0  0  0  0  0  0
   37.5740   26.3550   33.0700 C   0  0  0  0  0  0  0  0  0  0  0  0
   37.8950   22.5270   33.7180 H   0  0  0  0  0  0  0  0  0  0  0  0
   37.2900   23.3540   31.4930 H   0  0  0  0  0  0  0  0  0  0  0  0
   37.0880   25.7740   31.0860 H   0  0  0  0  0  0  0  0  0  0  0  0
   40.0050   23.0490   37.2940 C   0  0  0  0  0  0  0  0  0  0  0  0
   39.1660   23.1180   38.4030 C   0  0  0  0  0  0  0  0  0  0  0  0
   37.8950   23.6760   38.2060 C   0  0  0  0  0  0  0  0  0  0  0  0
   37.5590   24.1130   36.9570 N   0  0  0  0  0  0  0  0  0  0  0  0
   38.4010   24.0270   35.9180 C   0  0  0  0  0  0  0  0  0  0  0  0
   39.6180   23.4930   36.1010 N   0  0  0  0  0  0  0  0  0  0  0  0
   40.9890   22.6140   37.4590 H   0  0  0  0  0  0  0  0  0  0  0  0
   39.3840   22.7900   39.3920 H   0  0  0  0  0  0  0  0  0  0  0  0
   37.1380   23.8030   38.9390 H   0  0  0  0  0  0  0  0  0  0  0  0
   37.4630   27.8290   32.8680 C   0  0  0  0  0  3  0  0  0  0  0  0
   36.1150   28.4900   33.0530 C   0  0  0  0  0  2  0  0  0  0  0  0
   36.6410   28.3090   31.6980 C   0  0  0  0  0  2  0  0  0  0  0  0
  2  3  1  0  0  0  0
  2  1  1  0  0  0  0
  3 15  1  0  0  0  0
  4  8  1  0  0  0  0
  4  3  2  0  0  0  0
  5  4  1  0  0  0  0
  6  5  2  0  0  0  0
  6  7  1  0  0  0  0
  7  2  2  0  0  0  0
  9  5  1  0  0  0  0
 10  6  1  0  0  0  0
 11 17  1  0  0  0  0
 11 12  1  0  0  0  0
 12 18  1  0  0  0  0
 13 12  2  0  0  0  0
 13 19  1  0  0  0  0
 14 13  1  0  0  0  0
 15 16  1  0  0  0  0
 15 14  2  0  0  0  0
 16 11  2  0  0  0  0
 20 21  1  0  0  0  0
 20  7  1  0  0  0  0
 22 20  1  0  0  0  0
 22 21  1  0  0  0  0
M  END
>  <minimizedAffinity>
-4.40037918

$$$$

 OpenBabel03272500313D

 22 24  0  0  0  0  0  0  0  0999 V2000
   37.2730   24.7760   32.5230 Cl  0  0  0  0  0  0  0  0  0  0  0  0
   37.7340   25.5300   34.0500 C   0  0  0  0  0  0  0  0  0  0  0  0
   37.6300   26.8950   34.0920 C   0  0  0  0  0  0  0  0  0  0  0  0
   37.9910   27.5230   35.2990 C   0  0  0  0  0  0  0  0  0  0  0  0
   38.4200   26.7470   36.3520 C   0  0  0  0  0  0  0  0  0  0  0  0
   38.4930   25.3860   36.2170 C   0  0  0  0  0  0  0  0  0  0  0  0
   38.1560   24.7200   35.0730 C   0  0  0  0  0  0  0  0  0  0  0  0
   37.9260   28.5970   35.3820 H   0  0  0  0  0  0  0  0  0  0  0  0
   38.6960   27.2520   37.2800 H   0  0  0  0  0  0  0  0  0  0  0  0
   38.8410   24.8020   37.0820 H   0  0  0  0  0  0  0  0  0  0  0  0
   35.4370   28.8620   31.9430 C   0  0  0  0  0  0  0  0  0  0  0  0
   36.2180   29.1550   30.8290 C   0  0  0  0  0  0  0  0  0  0  0  0
   37.5300   28.6600   30.8250 C   0  0  0  0  0  0  0  0  0  0  0  0
   37.9590   27.9320   31.8970 N   0  0  0  0  0  0  0  0  0  0  0  0
   37.1690   27.6740   32.9490 C   0  0  0  0  0  0  0  0  0  0  0  0
   35.9130   28.1440   32.9580 N   0  0  0  0  0  0  0  0  0  0  0  0
   34.4200   29.2500   31.9350 H   0  0  0  0  0  0  0  0  0  0  0  0
   35.9280   29.7170   29.9740 H   0  0  0  0  0  0  0  0  0  0  0  0
   38.2550   28.7910   30.0600 H   0  0  0  0  0  0  0  0  0  0  0  0
   38.2280   23.2380   34.9090 C   0  0  0  0  0  3  0  0  0  0  0  0
   37.5400   22.3590   35.9300 C   0  0  0  0  0  2  0  0  0  0  0  0
   39.0020   22.4630   35.9460 C   0  0  0  0  0  2  0  0  0  0  0  0
  1  2  1  0  0  0  0
  2  3  2  0  0  0  0
  2  7  1  0  0  0  0
  3  4  1  0  0  0  0
  4  8  1  0  0  0  0
  4  5  2  0  0  0  0
  5  9  1  0  0  0  0
  6  5  1  0  0  0  0
  6 10  1  0  0  0  0
  7  6  2  0  0  0  0
 11 16  1  0  0  0  0
 12 11  2  0  0  0  0
 13 12  1  0  0  0  0
 13 14  2  0  0  0  0
 14 15  1  0  0  0  0
 15 16  2  0  0  0  0
 15  3  1  0  0  0  0
 17 11  1  0  0  0  0
 18 12  1  0  0  0  0
 19 13  1  0  0  0  0
 20  7  1  0  0  0  0
 20 21  1  0  0  0  0
 20 22  1  0  0  0  0
 21 22  1  0  0  0  0
M  END
>  <minimizedAffinity>
-4.3816433

$$$$

 OpenBabel03272500313D

 22 24  0  0  0  0  0  0  0  0999 V2000
   36.1580   32.0130   35.3560 Cl  0  0  0  0  0  0  0  0  0  0  0  0
   34.5590   31.4280   35.8120 C   0  0  0  0  0  0  0  0  0  0  0  0
   34.1030   30.3410   35.1140 C   0  0  0  0  0  0  0  0  0  0  0  0
   32.8300   29.8530   35.4580 C   0  0  0  0  0  0  0  0  0  0  0  0
   32.1220   30.4810   36.4580 C   0  0  0  0  0  0  0  0  0  0  0  0
   32.6580   31.5640   37.1020 C   0  0  0  0  0  0  0  0  0  0  0  0
   33.8880   32.0830   36.8130 C   0  0  0  0  0  0  0  0  0  0  0  0
   32.4270   28.9970   34.9370 H   0  0  0  0  0  0  0  0  0  0  0  0
   31.1350   30.0870   36.7110 H   0  0  0  0  0  0  0  0  0  0  0  0
   32.0610   32.0370   37.8950 H   0  0  0  0  0  0  0  0  0  0  0  0
   35.3960   29.5720   31.7920 C   0  0  0  0  0  0  0  0  0  0  0  0
   36.3370   28.5700   32.0120 C   0  0  0  0  0  0  0  0  0  0  0  0
   36.5240   28.1530   33.3370 C   0  0  0  0  0  0  0  0  0  0  0  0
   35.7860   28.7460   34.3210 N   0  0  0  0  0  0  0  0  0  0  0  0
   34.8910   29.7090   34.0620 C   0  0  0  0  0  0  0  0  0  0  0  0
   34.7070   30.1120   32.7950 N   0  0  0  0  0  0  0  0  0  0  0  0
   35.2590   29.8880   30.7590 H   0  0  0  0  0  0  0  0  0  0  0  0
   36.9330   28.0800   31.2790 H   0  0  0  0  0  0  0  0  0  0  0  0
   37.1970   27.4050   33.6780 H   0  0  0  0  0  0  0  0  0  0  0  0
   34.4870   33.2620   37.5050 C   0  0  0  0  0  3  0  0  0  0  0  0
   33.5710   34.3660   37.9860 C   0  0  0  0  0  2  0  0  0  0  0  0
   34.4040   34.5940   36.8020 C   0  0  0  0  0  2  0  0  0  0  0  0
  1  2  1  0  0  0  0
  2  7  1  0  0  0  0
  3  4  1  0  0  0  0
  3  2  2  0  0  0  0
  4  5  2  0  0  0  0
  5  9  1  0  0  0  0
  5  6  1  0  0  0  0
  6 10  1  0  0  0  0
  7  6  2  0  0  0  0
  7 20  1  0  0  0  0
  8  4  1  0  0  0  0
 11 12  2  0  0  0  0
 11 16  1  0  0  0  0
 12 13  1  0  0  0  0
 13 19  1  0  0  0  0
 13 14  2  0  0  0  0
 15 14  1  0  0  0  0
 15  3  1  0  0  0  0
 16 15  2  0  0  0  0
 17 11  1  0  0  0  0
 18 12  1  0  0  0  0
 20 21  1  0  0  0  0
 22 20  1  0  0  0  0
 22 21  1  0  0  0  0
M  END
>  <minimizedAffinity>
-4.36353779

$$$$

 OpenBabel03272500313D

 22 24  0  0  0  0  0  0  0  0999 V2000
   36.4350   27.7180   34.5180 Cl  0  0  0  0  0  0  0  0  0  0  0  0
   36.1020   28.9770   33.3290 C   0  0  0  0  0  0  0  0  0  0  0  0
   36.1260   28.5760   32.0190 C   0  0  0  0  0  0  0  0  0  0  0  0
   35.8640   29.5610   31.0490 C   0  0  0  0  0  0  0  0  0  0  0  0
   35.6010   30.8480   31.4590 C   0  0  0  0  0  0  0  0  0  0  0  0
   35.5990   31.1570   32.7930 C   0  0  0  0  0  0  0  0  0  0  0  0
   35.8460   30.2460   33.7800 C   0  0  0  0  0  0  0  0  0  0  0  0
   35.8710   29.2940   30.0020 H   0  0  0  0  0  0  0  0  0  0  0  0
   35.4000   31.5980   30.6900 H   0  0  0  0  0  0  0  0  0  0  0  0
   35.3850   32.1980   33.0790 H   0  0  0  0  0  0  0  0  0  0  0  0
   35.5740   25.1010   31.0610 C   0  0  0  0  0  0  0  0  0  0  0  0
   36.8550   24.5800   30.9040 C   0  0  0  0  0  0  0  0  0  0  0  0
   37.9290   25.4510   31.1350 C   0  0  0  0  0  0  0  0  0  0  0  0
   37.6610   26.7400   31.4950 N   0  0  0  0  0  0  0  0  0  0  0  0
   36.4090   27.1990   31.6340 C   0  0  0  0  0  0  0  0  0  0  0  0
   35.3780   26.3690   31.4150 N   0  0  0  0  0  0  0  0  0  0  0  0
   34.7480   24.4160   30.8790 H   0  0  0  0  0  0  0  0  0  0  0  0
   37.1110   23.5850   30.6260 H   0  0  0  0  0  0  0  0  0  0  0  0
   38.9630   25.2170   31.0590 H   0  0  0  0  0  0  0  0  0  0  0  0
   35.8480   30.5650   35.2380 C   0  0  0  0  0  3  0  0  0  0  0  0
   34.7160   31.3960   35.8030 C   0  0  0  0  0  2  0  0  0  0  0  0
   36.0360   32.0090   35.6320 C   0  0  0  0  0  2  0  0  0  0  0  0
  2  7  1  0  0  0  0
  2  1  1  0  0  0  0
  3  2  2  0  0  0  0
  4  5  2  0  0  0  0
  4  3  1  0  0  0  0
  5  6  1  0  0  0  0
  6 10  1  0  0  0  0
  6  7  2  0  0  0  0
  7 20  1  0  0  0  0
  8  4  1  0  0  0  0
  9  5  1  0  0  0  0
 11 16  1  0  0  0  0
 12 11  2  0  0  0  0
 12 13  1  0  0  0  0
 13 14  2  0  0  0  0
 14 15  1  0  0  0  0
 15  3  1  0  0  0  0
 16 15  2  0  0  0  0
 17 11  1  0  0  0  0
 18 12  1  0  0  0  0
 19 13  1  0  0  0  0
 20 22  1  0  0  0  0
 20 21  1  0  0  0  0
 22 21  1  0  0  0  0
M  END
>  <minimizedAffinity>
-4.35249949

$$$$
