
 OpenBabel03272506563D

 14 15  0  0  0  0  0  0  0  0999 V2000
   37.5180   32.6040   49.6880 C   0  0  0  0  0  0  0  0  0  0  0  0
   38.3960   32.6680   48.5960 C   0  0  0  0  0  0  0  0  0  0  0  0
   38.5760   31.4730   47.8550 C   0  0  0  0  0  0  0  0  0  0  0  0
   37.9020   30.3530   48.2330 N   0  0  0  0  0  0  0  0  0  0  0  0
   37.0760   30.3610   49.2890 C   0  0  0  0  0  0  0  0  0  0  0  0
   36.8590   31.4620   50.0380 N   0  0  0  0  0  0  0  0  0  0  0  0
   37.4140   33.5400   50.2230 H   0  0  0  0  0  0  0  0  0  0  0  0
   39.2350   31.4690   47.0130 H   0  0  0  0  0  0  0  0  0  0  0  0
   39.0670   33.8680   48.2560 N   0  0  0  0  0  0  0  0  0  0  0  0
   39.1950   34.2620   47.3070 H   0  0  0  0  0  0  0  0  0  0  0  0
   39.4740   34.4090   49.0630 H   0  0  0  0  0  0  0  0  0  0  0  0
   36.3450   29.1310   49.6940 C   0  0  0  0  0  3  0  0  0  0  0  0
   35.0100   28.9190   48.9570 C   0  0  0  0  0  2  0  0  0  0  0  0
   35.0780   29.2330   50.4580 C   0  0  0  0  0  2  0  0  0  0  0  0
  1  6  1  0  0  0  0
  1  7  1  0  0  0  0
  2  1  2  0  0  0  0
  3  4  2  0  0  0  0
  3  2  1  0  0  0  0
  4  5  1  0  0  0  0
  5 12  1  0  0  0  0
  5  6  2  0  0  0  0
  8  3  1  0  0  0  0
  9  2  1  0  0  0  0
  9 11  1  0  0  0  0
 10  9  1  0  0  0  0
 12 14  1  0  0  0  0
 13 12  1  0  0  0  0
 13 14  1  0  0  0  0
M  END
>  <minimizedAffinity>
-4.32891941

>  <minimizedRMSD>
3.03179526

$$$$
