
 OpenBabel03272503573D

 28 31  0  0  0  0  0  0  0  0999 V2000
   34.6290   29.3020   48.6050 C   0  0  0  0  0  0  0  0  0  0  0  0
   33.7420   28.6030   49.3580 N   0  0  0  0  0  0  0  0  0  0  0  0
   32.7050   27.9570   48.8130 C   0  0  0  0  0  0  0  0  0  0  0  0
   32.4350   27.9290   47.4900 N   0  0  0  0  0  0  0  0  0  0  0  0
   33.2880   28.6090   46.6940 C   0  0  0  0  0  0  0  0  0  0  0  0
   33.0260   28.5910   45.3440 C   0  0  0  0  0  0  0  0  0  0  0  0
   33.8640   29.2710   44.4710 C   0  0  0  0  0  0  0  0  0  0  0  0
   34.9370   29.9400   45.0310 C   0  0  0  0  0  0  0  0  0  0  0  0
   35.1420   29.9180   46.3860 C   0  0  0  0  0  0  0  0  0  0  0  0
   34.3400   29.2620   47.2710 C   0  0  0  0  0  0  0  0  0  0  0  0
   31.9980   27.3950   49.4560 H   0  0  0  0  0  0  0  0  0  0  0  0
   32.1660   28.0460   44.9560 H   0  0  0  0  0  0  0  0  0  0  0  0
   33.6070   29.2190   43.4330 H   0  0  0  0  0  0  0  0  0  0  0  0
   35.5570   30.4530   44.3040 H   0  0  0  0  0  0  0  0  0  0  0  0
   36.0200   30.4810   46.6590 H   0  0  0  0  0  0  0  0  0  0  0  0
   37.4150   29.7390   50.8440 C   0  0  0  0  0  0  0  0  0  0  0  0
   37.9600   31.0200   50.5900 C   0  0  0  0  0  0  0  0  0  0  0  0
   37.3210   31.7490   49.5940 C   0  0  0  0  0  0  0  0  0  0  0  0
   36.2810   31.2080   48.9720 N   0  0  0  0  0  0  0  0  0  0  0  0
   35.7570   30.0190   49.1910 C   0  0  0  0  0  0  0  0  0  0  0  0
   36.3810   29.3360   50.1470 N   0  0  0  0  0  0  0  0  0  0  0  0
   38.7960   31.3610   51.1430 H   0  0  0  0  0  0  0  0  0  0  0  0
   37.9790   28.8770   51.8520 N   0  0  0  0  0  0  0  0  0  0  0  0
   38.2390   27.9340   51.4980 H   0  0  0  0  0  0  0  0  0  0  0  0
   38.1360   29.1120   52.8420 H   0  0  0  0  0  0  0  0  0  0  0  0
   37.8060   33.0920   49.2510 C   0  0  0  0  0  0  0  0  0  0  0  0
   38.9960   33.2880   48.3860 C   0  0  0  0  0  0  0  0  0  0  0  0
   39.1750   33.4020   49.8400 C   0  0  0  0  0  0  0  0  0  0  0  0
  1 20  1  0  0  0  0
  1  2  1  0  0  0  0
  3  2  2  0  0  0  0
  3 11  1  0  0  0  0
  4  3  1  0  0  0  0
  5 10  1  0  0  0  0
  5  4  2  0  0  0  0
  6  5  1  0  0  0  0
  7  8  1  0  0  0  0
  7  6  2  0  0  0  0
  8  9  2  0  0  0  0
  9 15  1  0  0  0  0
  9 10  1  0  0  0  0
 10  1  2  0  0  0  0
 12  6  1  0  0  0  0
 13  7  1  0  0  0  0
 14  8  1  0  0  0  0
 16 23  1  0  0  0  0
 17 16  1  0  0  0  0
 17 22  1  0  0  0  0
 18 17  2  0  0  0  0
 19 20  2  0  0  0  0
 19 18  1  0  0  0  0
 20 21  1  0  0  0  0
 21 16  2  0  0  0  0
 23 25  1  0  0  0  0
 24 23  1  0  0  0  0
 26 18  1  0  0  0  0
 26 28  1  0  0  0  0
 27 26  1  0  0  0  0
 27 28  1  0  0  0  0
M  END
>  <minimizedAffinity>
-6.0230484

>  <minimizedRMSD>
0.677628696

$$$$
