
 OpenBabel03272508153D

 22 24  0  0  0  0  0  0  0  0999 V2000
   38.6490   23.7220   33.3900 Cl  0  0  0  0  0  0  0  0  0  0  0  0
   37.4410   22.5020   33.6640 C   0  0  0  0  0  0  0  0  0  0  0  0
   37.3930   22.0340   34.9480 C   0  0  0  0  0  0  0  0  0  0  0  0
   36.4500   21.0370   35.2640 C   0  0  0  0  0  0  0  0  0  0  0  0
   35.5980   20.5390   34.3210 C   0  0  0  0  0  0  0  0  0  0  0  0
   35.6660   21.0270   33.0320 C   0  0  0  0  0  0  0  0  0  0  0  0
   34.5840   20.3930   31.8270 Cl  0  0  0  0  0  0  0  0  0  0  0  0
   36.5890   22.0050   32.7180 C   0  0  0  0  0  0  0  0  0  0  0  0
   36.3390   20.6080   36.2510 H   0  0  0  0  0  0  0  0  0  0  0  0
   34.8570   19.7640   34.5400 H   0  0  0  0  0  0  0  0  0  0  0  0
   37.5700   23.1660   37.1410 C   0  0  0  0  0  0  0  0  0  0  0  0
   38.1990   22.4190   36.1040 C   0  0  0  0  0  0  0  0  0  0  0  0
   39.5600   22.0950   36.2530 C   0  0  0  0  0  0  0  0  0  0  0  0
   40.1900   22.5210   37.3870 N   0  0  0  0  0  0  0  0  0  0  0  0
   39.5520   23.2330   38.3530 C   0  0  0  0  0  0  0  0  0  0  0  0
   38.2440   23.5540   38.2270 N   0  0  0  0  0  0  0  0  0  0  0  0
   36.5240   23.4150   37.0250 H   0  0  0  0  0  0  0  0  0  0  0  0
   40.0230   21.5370   35.4770 H   0  0  0  0  0  0  0  0  0  0  0  0
   40.0620   23.5640   39.2450 H   0  0  0  0  0  0  0  0  0  0  0  0
   36.5980   22.4800   31.3420 C   0  0  0  0  0  3  0  0  0  0  0  0
   35.6480   23.7120   31.1680 C   0  0  0  0  0  2  0  0  0  0  0  0
   37.1110   23.7370   30.8290 C   0  0  0  0  0  2  0  0  0  0  0  0
  1  2  1  0  0  0  0
  2  3  1  0  0  0  0
  3  4  2  0  0  0  0
  3 12  1  0  0  0  0
  4  9  1  0  0  0  0
  5 10  1  0  0  0  0
  5  4  1  0  0  0  0
  6  5  2  0  0  0  0
  7  6  1  0  0  0  0
  8  6  1  0  0  0  0
  8  2  2  0  0  0  0
 11 16  1  0  0  0  0
 12 13  1  0  0  0  0
 12 11  2  0  0  0  0
 13 14  2  0  0  0  0
 14 15  1  0  0  0  0
 15 19  1  0  0  0  0
 16 15  2  0  0  0  0
 17 11  1  0  0  0  0
 18 13  1  0  0  0  0
 20  8  1  0  0  0  0
 21 20  1  0  0  0  0
 22 21  1  0  0  0  0
 22 20  1  0  0  0  0
M  END
>  <minimizedAffinity>
-4.96850443

$$$$

 OpenBabel03272508153D

 22 24  0  0  0  0  0  0  0  0999 V2000
   37.8640   23.6070   33.3580 Cl  0  0  0  0  0  0  0  0  0  0  0  0
   37.7700   25.2030   34.0410 C   0  0  0  0  0  0  0  0  0  0  0  0
   38.4220   25.3440   35.2350 C   0  0  0  0  0  0  0  0  0  0  0  0
   38.3950   26.6010   35.8690 C   0  0  0  0  0  0  0  0  0  0  0  0
   37.7370   27.6630   35.3170 C   0  0  0  0  0  0  0  0  0  0  0  0
   37.0870   27.4950   34.1110 C   0  0  0  0  0  0  0  0  0  0  0  0
   36.2470   28.8440   33.4060 Cl  0  0  0  0  0  0  0  0  0  0  0  0
   37.1120   26.2640   33.4860 C   0  0  0  0  0  0  0  0  0  0  0  0
   38.8810   26.8070   36.8140 H   0  0  0  0  0  0  0  0  0  0  0  0
   37.7010   28.6500   35.7890 H   0  0  0  0  0  0  0  0  0  0  0  0
   38.5950   23.8370   37.1890 C   0  0  0  0  0  0  0  0  0  0  0  0
   39.1800   24.3560   35.9990 C   0  0  0  0  0  0  0  0  0  0  0  0
   40.4540   23.8880   35.6280 C   0  0  0  0  0  0  0  0  0  0  0  0
   41.0470   22.9640   36.4380 N   0  0  0  0  0  0  0  0  0  0  0  0
   40.4540   22.4940   37.5670 C   0  0  0  0  0  0  0  0  0  0  0  0
   39.2300   22.9330   37.9400 N   0  0  0  0  0  0  0  0  0  0  0  0
   37.6170   24.1980   37.4740 H   0  0  0  0  0  0  0  0  0  0  0  0
   40.8840   24.2790   34.7390 H   0  0  0  0  0  0  0  0  0  0  0  0
   40.9340   21.7630   38.1990 H   0  0  0  0  0  0  0  0  0  0  0  0
   36.4130   26.1610   32.2120 C   0  0  0  0  0  3  0  0  0  0  0  0
   37.3840   26.4440   31.0180 C   0  0  0  0  0  2  0  0  0  0  0  0
   36.5970   25.1740   31.1650 C   0  0  0  0  0  2  0  0  0  0  0  0
  1  2  1  0  0  0  0
  2  3  1  0  0  0  0
  3  4  2  0  0  0  0
  3 12  1  0  0  0  0
  4  9  1  0  0  0  0
  5 10  1  0  0  0  0
  5  4  1  0  0  0  0
  6  5  2  0  0  0  0
  7  6  1  0  0  0  0
  8  2  2  0  0  0  0
  8  6  1  0  0  0  0
 11 17  1  0  0  0  0
 11 16  1  0  0  0  0
 12 11  2  0  0  0  0
 13 12  1  0  0  0  0
 13 14  2  0  0  0  0
 14 15  1  0  0  0  0
 15 16  2  0  0  0  0
 15 19  1  0  0  0  0
 18 13  1  0  0  0  0
 20  8  1  0  0  0  0
 21 22  1  0  0  0  0
 21 20  1  0  0  0  0
 22 20  1  0  0  0  0
M  END
>  <minimizedAffinity>
-4.78635168

$$$$

 OpenBabel03272508153D

 22 24  0  0  0  0  0  0  0  0999 V2000
   32.6600   29.3210   34.9820 Cl  0  0  0  0  0  0  0  0  0  0  0  0
   33.7730   30.5660   35.4660 C   0  0  0  0  0  0  0  0  0  0  0  0
   34.9990   30.4920   34.8640 C   0  0  0  0  0  0  0  0  0  0  0  0
   35.9710   31.4540   35.2000 C   0  0  0  0  0  0  0  0  0  0  0  0
   35.7090   32.4440   36.1030 C   0  0  0  0  0  0  0  0  0  0  0  0
   34.4650   32.4980   36.6980 C   0  0  0  0  0  0  0  0  0  0  0  0
   34.1300   33.7550   37.8510 Cl  0  0  0  0  0  0  0  0  0  0  0  0
   33.5090   31.5560   36.3710 C   0  0  0  0  0  0  0  0  0  0  0  0
   36.9660   31.4760   34.7750 H   0  0  0  0  0  0  0  0  0  0  0  0
   36.4460   33.2040   36.3820 H   0  0  0  0  0  0  0  0  0  0  0  0
   36.2640   28.4290   34.3470 C   0  0  0  0  0  0  0  0  0  0  0  0
   35.4910   29.5300   33.8800 C   0  0  0  0  0  0  0  0  0  0  0  0
   35.2460   29.6290   32.4980 C   0  0  0  0  0  0  0  0  0  0  0  0
   35.7690   28.6580   31.6940 N   0  0  0  0  0  0  0  0  0  0  0  0
   36.5020   27.6230   32.1810 C   0  0  0  0  0  0  0  0  0  0  0  0
   36.7480   27.5120   33.5070 N   0  0  0  0  0  0  0  0  0  0  0  0
   36.4520   28.3550   35.4090 H   0  0  0  0  0  0  0  0  0  0  0  0
   34.6690   30.4520   32.1560 H   0  0  0  0  0  0  0  0  0  0  0  0
   36.9100   26.8610   31.5340 H   0  0  0  0  0  0  0  0  0  0  0  0
   32.2160   31.6790   37.0280 C   0  0  0  0  0  3  0  0  0  0  0  0
   31.2850   32.6680   36.2510 C   0  0  0  0  0  2  0  0  0  0  0  0
   30.9180   31.2420   36.5460 C   0  0  0  0  0  2  0  0  0  0  0  0
  1  2  1  0  0  0  0
  2  8  1  0  0  0  0
  3  4  1  0  0  0  0
  3  2  2  0  0  0  0
  4  5  2  0  0  0  0
  5 10  1  0  0  0  0
  5  6  1  0  0  0  0
  6  7  1  0  0  0  0
  8  6  2  0  0  0  0
  8 20  1  0  0  0  0
  9  4  1  0  0  0  0
 11 17  1  0  0  0  0
 12 11  1  0  0  0  0
 12  3  1  0  0  0  0
 13 12  2  0  0  0  0
 14 15  2  0  0  0  0
 14 13  1  0  0  0  0
 15 16  1  0  0  0  0
 16 11  2  0  0  0  0
 18 13  1  0  0  0  0
 19 15  1  0  0  0  0
 21 22  1  0  0  0  0
 21 20  1  0  0  0  0
 22 20  1  0  0  0  0
M  END
>  <minimizedAffinity>
-4.63491249

$$$$

 OpenBabel03272508153D

 22 24  0  0  0  0  0  0  0  0999 V2000
   38.2200   23.6210   33.5580 Cl  0  0  0  0  0  0  0  0  0  0  0  0
   37.1000   24.5340   32.5920 C   0  0  0  0  0  0  0  0  0  0  0  0
   36.2820   23.7710   31.8040 C   0  0  0  0  0  0  0  0  0  0  0  0
   35.3460   24.4240   30.9790 C   0  0  0  0  0  0  0  0  0  0  0  0
   35.2450   25.7850   30.9560 C   0  0  0  0  0  0  0  0  0  0  0  0
   36.0810   26.5330   31.7600 C   0  0  0  0  0  0  0  0  0  0  0  0
   35.9560   28.2670   31.7310 Cl  0  0  0  0  0  0  0  0  0  0  0  0
   37.0000   25.8970   32.5710 C   0  0  0  0  0  0  0  0  0  0  0  0
   34.6590   23.9040   30.3240 H   0  0  0  0  0  0  0  0  0  0  0  0
   34.5270   26.3170   30.3240 H   0  0  0  0  0  0  0  0  0  0  0  0
   35.1660   21.6300   32.3400 C   0  0  0  0  0  0  0  0  0  0  0  0
   36.2180   22.3180   31.6710 C   0  0  0  0  0  0  0  0  0  0  0  0
   37.1350   21.5580   30.9210 C   0  0  0  0  0  0  0  0  0  0  0  0
   36.9540   20.2060   30.8850 N   0  0  0  0  0  0  0  0  0  0  0  0
   35.9360   19.5880   31.5400 C   0  0  0  0  0  0  0  0  0  0  0  0
   35.0450   20.3020   32.2660 N   0  0  0  0  0  0  0  0  0  0  0  0
   34.4630   22.2140   32.9170 H   0  0  0  0  0  0  0  0  0  0  0  0
   37.9160   22.0770   30.4240 H   0  0  0  0  0  0  0  0  0  0  0  0
   35.8030   18.5170   31.5030 H   0  0  0  0  0  0  0  0  0  0  0  0
   37.8420   26.7470   33.4000 C   0  0  0  0  0  3  0  0  0  0  0  0
   37.1370   27.0800   34.7570 C   0  0  0  0  0  2  0  0  0  0  0  0
   38.4830   26.4220   34.6600 C   0  0  0  0  0  2  0  0  0  0  0  0
  2  1  1  0  0  0  0
  3  2  2  0  0  0  0
  4  3  1  0  0  0  0
  5  4  2  0  0  0  0
  5  6  1  0  0  0  0
  6  8  2  0  0  0  0
  7  6  1  0  0  0  0
  8  2  1  0  0  0  0
  8 20  1  0  0  0  0
  9  4  1  0  0  0  0
 10  5  1  0  0  0  0
 11 17  1  0  0  0  0
 12  3  1  0  0  0  0
 12 11  2  0  0  0  0
 13 12  1  0  0  0  0
 14 13  2  0  0  0  0
 14 15  1  0  0  0  0
 15 16  2  0  0  0  0
 16 11  1  0  0  0  0
 18 13  1  0  0  0  0
 19 15  1  0  0  0  0
 20 22  1  0  0  0  0
 20 21  1  0  0  0  0
 22 21  1  0  0  0  0
M  END
>  <minimizedAffinity>
-4.61640358

$$$$

 OpenBabel03272508153D

 22 24  0  0  0  0  0  0  0  0999 V2000
   41.2120   25.5350   34.0560 Cl  0  0  0  0  0  0  0  0  0  0  0  0
   40.5320   24.5100   35.2850 C   0  0  0  0  0  0  0  0  0  0  0  0
   39.2580   24.8420   35.6550 C   0  0  0  0  0  0  0  0  0  0  0  0
   38.6260   24.0730   36.6510 C   0  0  0  0  0  0  0  0  0  0  0  0
   39.2590   23.0180   37.2430 C   0  0  0  0  0  0  0  0  0  0  0  0
   40.5450   22.7030   36.8540 C   0  0  0  0  0  0  0  0  0  0  0  0
   41.3550   21.3620   37.6080 Cl  0  0  0  0  0  0  0  0  0  0  0  0
   41.1670   23.4550   35.8770 C   0  0  0  0  0  0  0  0  0  0  0  0
   37.6210   24.2590   37.0060 H   0  0  0  0  0  0  0  0  0  0  0  0
   38.7920   22.4040   38.0200 H   0  0  0  0  0  0  0  0  0  0  0  0
   37.6750   25.6950   33.9560 C   0  0  0  0  0  0  0  0  0  0  0  0
   38.4000   25.9170   35.1610 C   0  0  0  0  0  0  0  0  0  0  0  0
   38.2500   27.1580   35.8050 C   0  0  0  0  0  0  0  0  0  0  0  0
   37.4150   28.0720   35.2290 N   0  0  0  0  0  0  0  0  0  0  0  0
   36.7410   27.8200   34.0770 C   0  0  0  0  0  0  0  0  0  0  0  0
   36.8730   26.6320   33.4430 N   0  0  0  0  0  0  0  0  0  0  0  0
   37.7910   24.7410   33.4610 H   0  0  0  0  0  0  0  0  0  0  0  0
   38.7930   27.3170   36.7040 H   0  0  0  0  0  0  0  0  0  0  0  0
   36.0840   28.5510   33.6310 H   0  0  0  0  0  0  0  0  0  0  0  0
   42.5200   23.0600   35.5080 C   0  0  0  0  0  3  0  0  0  0  0  0
   43.5730   24.0650   36.0840 C   0  0  0  0  0  2  0  0  0  0  0  0
   43.5860   22.5910   36.3730 C   0  0  0  0  0  2  0  0  0  0  0  0
  1  2  1  0  0  0  0
  2  3  2  0  0  0  0
  2  8  1  0  0  0  0
  3  4  1  0  0  0  0
  4  9  1  0  0  0  0
  4  5  2  0  0  0  0
  5 10  1  0  0  0  0
  6  5  1  0  0  0  0
  6  7  1  0  0  0  0
  8  6  2  0  0  0  0
 11 12  1  0  0  0  0
 12  3  1  0  0  0  0
 12 13  2  0  0  0  0
 13 18  1  0  0  0  0
 14 13  1  0  0  0  0
 15 14  2  0  0  0  0
 16 11  2  0  0  0  0
 16 15  1  0  0  0  0
 17 11  1  0  0  0  0
 19 15  1  0  0  0  0
 20  8  1  0  0  0  0
 20 21  1  0  0  0  0
 20 22  1  0  0  0  0
 21 22  1  0  0  0  0
M  END
>  <minimizedAffinity>
-4.60549259

$$$$

 OpenBabel03272508153D

 22 24  0  0  0  0  0  0  0  0999 V2000
   34.9840   31.5930   32.1720 Cl  0  0  0  0  0  0  0  0  0  0  0  0
   35.7290   30.0850   32.6090 C   0  0  0  0  0  0  0  0  0  0  0  0
   35.6650   29.7900   33.9430 C   0  0  0  0  0  0  0  0  0  0  0  0
   36.2490   28.5910   34.3940 C   0  0  0  0  0  0  0  0  0  0  0  0
   36.8680   27.7330   33.5310 C   0  0  0  0  0  0  0  0  0  0  0  0
   36.9200   28.0520   32.1900 C   0  0  0  0  0  0  0  0  0  0  0  0
   37.7100   26.9630   31.0890 Cl  0  0  0  0  0  0  0  0  0  0  0  0
   36.3480   29.2270   31.7440 C   0  0  0  0  0  0  0  0  0  0  0  0
   36.2470   28.2750   35.4290 H   0  0  0  0  0  0  0  0  0  0  0  0
   37.3300   26.7950   33.8560 H   0  0  0  0  0  0  0  0  0  0  0  0
   33.6590   30.4150   35.2490 C   0  0  0  0  0  0  0  0  0  0  0  0
   35.0590   30.5530   35.0320 C   0  0  0  0  0  0  0  0  0  0  0  0
   35.7790   31.4180   35.8780 C   0  0  0  0  0  0  0  0  0  0  0  0
   35.0830   32.0690   36.8540 N   0  0  0  0  0  0  0  0  0  0  0  0
   33.7440   31.9090   37.0280 C   0  0  0  0  0  0  0  0  0  0  0  0
   33.0360   31.0820   36.2240 N   0  0  0  0  0  0  0  0  0  0  0  0
   33.1060   29.7520   34.5980 H   0  0  0  0  0  0  0  0  0  0  0  0
   36.8230   31.5160   35.7110 H   0  0  0  0  0  0  0  0  0  0  0  0
   33.2050   32.4300   37.8040 H   0  0  0  0  0  0  0  0  0  0  0  0
   36.4310   29.4960   30.3150 C   0  0  0  0  0  3  0  0  0  0  0  0
   37.3790   30.7070   30.0270 C   0  0  0  0  0  2  0  0  0  0  0  0
   37.5750   29.3400   29.4370 C   0  0  0  0  0  2  0  0  0  0  0  0
  1  2  1  0  0  0  0
  2  3  1  0  0  0  0
  3  4  2  0  0  0  0
  3 12  1  0  0  0  0
  4  9  1  0  0  0  0
  5 10  1  0  0  0  0
  5  4  1  0  0  0  0
  6  5  2  0  0  0  0
  7  6  1  0  0  0  0
  8  6  1  0  0  0  0
  8  2  2  0  0  0  0
 11 16  1  0  0  0  0
 12 11  2  0  0  0  0
 12 13  1  0  0  0  0
 13 14  2  0  0  0  0
 14 15  1  0  0  0  0
 15 19  1  0  0  0  0
 16 15  2  0  0  0  0
 17 11  1  0  0  0  0
 18 13  1  0  0  0  0
 20  8  1  0  0  0  0
 21 20  1  0  0  0  0
 22 21  1  0  0  0  0
 22 20  1  0  0  0  0
M  END
>  <minimizedAffinity>
-4.58137131

$$$$

 OpenBabel03272508153D

 22 24  0  0  0  0  0  0  0  0999 V2000
   36.5380   27.8610   34.7550 Cl  0  0  0  0  0  0  0  0  0  0  0  0
   36.3420   28.7590   33.2790 C   0  0  0  0  0  0  0  0  0  0  0  0
   35.6820   29.9480   33.4260 C   0  0  0  0  0  0  0  0  0  0  0  0
   35.4680   30.7430   32.2830 C   0  0  0  0  0  0  0  0  0  0  0  0
   35.9040   30.3480   31.0510 C   0  0  0  0  0  0  0  0  0  0  0  0
   36.5660   29.1440   30.9280 C   0  0  0  0  0  0  0  0  0  0  0  0
   37.1190   28.6370   29.3590 Cl  0  0  0  0  0  0  0  0  0  0  0  0
   36.7780   28.3620   32.0470 C   0  0  0  0  0  0  0  0  0  0  0  0
   34.9580   31.6970   32.3030 H   0  0  0  0  0  0  0  0  0  0  0  0
   35.7500   30.9460   30.1470 H   0  0  0  0  0  0  0  0  0  0  0  0
   33.7520   30.3760   34.9130 C   0  0  0  0  0  0  0  0  0  0  0  0
   35.1360   30.5610   34.6350 C   0  0  0  0  0  0  0  0  0  0  0  0
   35.8970   31.3240   35.5390 C   0  0  0  0  0  0  0  0  0  0  0  0
   35.2550   31.8380   36.6280 N   0  0  0  0  0  0  0  0  0  0  0  0
   33.9310   31.6380   36.8570 C   0  0  0  0  0  0  0  0  0  0  0  0
   33.1820   30.9070   35.9980 N   0  0  0  0  0  0  0  0  0  0  0  0
   33.1670   29.7910   34.2170 H   0  0  0  0  0  0  0  0  0  0  0  0
   36.9290   31.4570   35.3270 H   0  0  0  0  0  0  0  0  0  0  0  0
   33.4340   32.0500   37.7220 H   0  0  0  0  0  0  0  0  0  0  0  0
   37.4930   27.1100   31.8450 C   0  0  0  0  0  3  0  0  0  0  0  0
   39.0400   27.3260   31.9440 C   0  0  0  0  0  2  0  0  0  0  0  0
   38.2800   26.3600   32.8070 C   0  0  0  0  0  2  0  0  0  0  0  0
  2  3  1  0  0  0  0
  2  1  1  0  0  0  0
  3 12  1  0  0  0  0
  4  9  1  0  0  0  0
  4  3  2  0  0  0  0
  5  4  1  0  0  0  0
  6  5  2  0  0  0  0
  6  8  1  0  0  0  0
  7  6  1  0  0  0  0
  8  2  2  0  0  0  0
 10  5  1  0  0  0  0
 11 16  1  0  0  0  0
 12 11  2  0  0  0  0
 12 13  1  0  0  0  0
 13 14  2  0  0  0  0
 14 15  1  0  0  0  0
 15 19  1  0  0  0  0
 16 15  2  0  0  0  0
 17 11  1  0  0  0  0
 18 13  1  0  0  0  0
 20 21  1  0  0  0  0
 20  8  1  0  0  0  0
 20 22  1  0  0  0  0
 21 22  1  0  0  0  0
M  END
>  <minimizedAffinity>
-4.50075436

$$$$

 OpenBabel03272508153D

 22 24  0  0  0  0  0  0  0  0999 V2000
   36.4630   29.0870   34.8700 Cl  0  0  0  0  0  0  0  0  0  0  0  0
   36.5580   27.7930   33.7130 C   0  0  0  0  0  0  0  0  0  0  0  0
   35.8570   28.0140   32.5600 C   0  0  0  0  0  0  0  0  0  0  0  0
   35.8690   27.0170   31.5650 C   0  0  0  0  0  0  0  0  0  0  0  0
   36.5590   25.8520   31.7350 C   0  0  0  0  0  0  0  0  0  0  0  0
   37.2590   25.6510   32.9070 C   0  0  0  0  0  0  0  0  0  0  0  0
   38.1360   24.1660   33.1280 Cl  0  0  0  0  0  0  0  0  0  0  0  0
   37.2500   26.6270   33.8850 C   0  0  0  0  0  0  0  0  0  0  0  0
   35.3450   27.1040   30.6220 H   0  0  0  0  0  0  0  0  0  0  0  0
   36.5840   25.0610   30.9780 H   0  0  0  0  0  0  0  0  0  0  0  0
   33.7330   29.2760   32.6790 C   0  0  0  0  0  0  0  0  0  0  0  0
   35.0580   29.1740   32.1700 C   0  0  0  0  0  0  0  0  0  0  0  0
   35.5220   30.1950   31.3200 C   0  0  0  0  0  0  0  0  0  0  0  0
   34.6660   31.2200   31.0400 N   0  0  0  0  0  0  0  0  0  0  0  0
   33.4070   31.2790   31.5460 C   0  0  0  0  0  0  0  0  0  0  0  0
   32.9430   30.3070   32.3650 N   0  0  0  0  0  0  0  0  0  0  0  0
   33.3760   28.4910   33.3310 H   0  0  0  0  0  0  0  0  0  0  0  0
   36.5120   30.1130   30.9440 H   0  0  0  0  0  0  0  0  0  0  0  0
   32.7390   32.0960   31.3170 H   0  0  0  0  0  0  0  0  0  0  0  0
   38.0180   26.3530   35.0910 C   0  0  0  0  0  3  0  0  0  0  0  0
   39.4800   26.8960   34.9600 C   0  0  0  0  0  2  0  0  0  0  0  0
   38.5400   27.3010   36.0580 C   0  0  0  0  0  2  0  0  0  0  0  0
  2  8  1  0  0  0  0
  2  1  1  0  0  0  0
  3  2  2  0  0  0  0
  4  5  2  0  0  0  0
  4  3  1  0  0  0  0
  5  6  1  0  0  0  0
  6  7  1  0  0  0  0
  6  8  2  0  0  0  0
  8 20  1  0  0  0  0
  9  4  1  0  0  0  0
 10  5  1  0  0  0  0
 11 17  1  0  0  0  0
 12  3  1  0  0  0  0
 12 11  2  0  0  0  0
 13 12  1  0  0  0  0
 14 13  2  0  0  0  0
 14 15  1  0  0  0  0
 15 16  2  0  0  0  0
 16 11  1  0  0  0  0
 18 13  1  0  0  0  0
 19 15  1  0  0  0  0
 20 22  1  0  0  0  0
 21 20  1  0  0  0  0
 21 22  1  0  0  0  0
M  END
>  <minimizedAffinity>
-4.49085999

$$$$

 OpenBabel03272508153D

 22 24  0  0  0  0  0  0  0  0999 V2000
   38.2020   27.2390   36.0360 Cl  0  0  0  0  0  0  0  0  0  0  0  0
   37.7490   26.3540   34.6100 C   0  0  0  0  0  0  0  0  0  0  0  0
   38.0540   25.0220   34.6510 C   0  0  0  0  0  0  0  0  0  0  0  0
   37.7320   24.2240   33.5370 C   0  0  0  0  0  0  0  0  0  0  0  0
   37.1280   24.7550   32.4330 C   0  0  0  0  0  0  0  0  0  0  0  0
   36.8310   26.1020   32.4140 C   0  0  0  0  0  0  0  0  0  0  0  0
   36.0660   26.7820   31.0080 Cl  0  0  0  0  0  0  0  0  0  0  0  0
   37.1450   26.8880   33.5060 C   0  0  0  0  0  0  0  0  0  0  0  0
   37.9340   23.1630   33.4800 H   0  0  0  0  0  0  0  0  0  0  0  0
   36.8680   24.1580   31.5530 H   0  0  0  0  0  0  0  0  0  0  0  0
   40.0410   23.8390   35.5310 C   0  0  0  0  0  0  0  0  0  0  0  0
   38.6910   24.2510   35.7170 C   0  0  0  0  0  0  0  0  0  0  0  0
   38.0470   23.8910   36.9150 C   0  0  0  0  0  0  0  0  0  0  0  0
   38.7640   23.1670   37.8240 N   0  0  0  0  0  0  0  0  0  0  0  0
   40.0520   22.7940   37.6060 C   0  0  0  0  0  0  0  0  0  0  0  0
   40.6870   23.1300   36.4600 N   0  0  0  0  0  0  0  0  0  0  0  0
   40.5340   24.1150   34.6090 H   0  0  0  0  0  0  0  0  0  0  0  0
   37.0410   24.2020   37.0490 H   0  0  0  0  0  0  0  0  0  0  0  0
   40.6090   22.2210   38.3330 H   0  0  0  0  0  0  0  0  0  0  0  0
   36.7930   28.2980   33.4220 C   0  0  0  0  0  3  0  0  0  0  0  0
   35.2550   28.5040   33.6230 C   0  0  0  0  0  2  0  0  0  0  0  0
   36.3000   29.1650   34.4750 C   0  0  0  0  0  2  0  0  0  0  0  0
  2  3  1  0  0  0  0
  2  1  1  0  0  0  0
  3 12  1  0  0  0  0
  4  3  2  0  0  0  0
  5  4  1  0  0  0  0
  6  5  2  0  0  0  0
  6  8  1  0  0  0  0
  7  6  1  0  0  0  0
  8  2  2  0  0  0  0
  9  4  1  0  0  0  0
 10  5  1  0  0  0  0
 11 12  2  0  0  0  0
 11 16  1  0  0  0  0
 12 13  1  0  0  0  0
 13 18  1  0  0  0  0
 13 14  2  0  0  0  0
 15 14  1  0  0  0  0
 15 19  1  0  0  0  0
 16 15  2  0  0  0  0
 17 11  1  0  0  0  0
 20  8  1  0  0  0  0
 20 21  1  0  0  0  0
 20 22  1  0  0  0  0
 21 22  1  0  0  0  0
M  END
>  <minimizedAffinity>
-4.42112875

$$$$
