
 OpenBabel03272509143D

 34 37  0  0  1  0  0  0  0  0999 V2000
   37.6130   23.8000   32.4030 C   0  0  0  0  0  0  0  0  0  0  0  0
   38.0520   24.0670   33.7310 C   0  0  0  0  0  0  0  0  0  0  0  0
   37.9030   23.0320   34.6670 C   0  0  0  0  0  0  0  0  0  0  0  0
   37.3590   21.8530   34.2620 N   0  0  0  0  0  0  0  0  0  0  0  0
   36.9580   21.6450   32.9950 C   0  0  0  0  0  0  0  0  0  0  0  0
   37.0870   22.6160   32.0750 N   0  0  0  0  0  0  0  0  0  0  0  0
   37.6890   24.5240   31.6330 H   0  0  0  0  0  0  0  0  0  0  0  0
   36.5330   20.6780   32.7460 H   0  0  0  0  0  0  0  0  0  0  0  0
   38.5910   25.3590   33.9560 N   0  0  0  0  0  0  0  0  0  0  0  0
   39.9020   26.0130   33.9030 C   0  0  0  0  0  0  0  0  0  0  0  0
   39.9540   26.7240   35.2470 C   0  0  0  0  0  0  0  0  0  0  0  0
   38.5110   27.1150   35.5230 C   0  0  0  0  0  0  0  0  0  0  0  0
   37.7570   26.4750   34.3630 C   0  0  1  0  0  0  0  0  0  0  0  0
   40.7390   25.2830   33.9250 H   0  0  0  0  0  0  0  0  0  0  0  0
   40.0580   26.6470   33.0410 H   0  0  0  0  0  0  0  0  0  0  0  0
   40.2530   25.9830   36.0210 H   0  0  0  0  0  0  0  0  0  0  0  0
   40.5630   27.6370   35.2340 H   0  0  0  0  0  0  0  0  0  0  0  0
   38.3490   28.1980   35.5410 H   0  0  0  0  0  0  0  0  0  0  0  0
   38.1630   26.6930   36.4970 H   0  0  0  0  0  0  0  0  0  0  0  0
   36.7450   26.1740   34.6910 H   0  0  0  0  0  0  0  0  0  0  0  0
   37.5930   27.5320   33.3250 C   0  0  0  0  0  3  0  0  0  0  0  0
   36.2110   28.1960   33.3780 C   0  0  0  0  0  2  0  0  0  0  0  0
   36.6310   27.3880   32.1920 C   0  0  0  0  0  2  0  0  0  0  0  0
   38.3090   23.1850   36.0330 C   0  0  0  0  0  0  0  0  0  0  0  0
   39.5200   22.6810   36.4250 C   0  0  0  0  0  0  0  0  0  0  0  0
   40.0090   22.7730   37.7110 C   0  0  0  0  0  0  0  0  0  0  0  0
   39.1870   23.4270   38.6420 C   0  0  0  0  0  0  0  0  0  0  0  0
   37.9440   23.9660   38.3240 C   0  0  0  0  0  0  0  0  0  0  0  0
   37.5390   23.8200   36.9920 C   0  0  0  0  0  0  0  0  0  0  0  0
   40.1680   22.1690   35.7020 H   0  0  0  0  0  0  0  0  0  0  0  0
   40.9630   22.3720   38.0070 H   0  0  0  0  0  0  0  0  0  0  0  0
   39.5450   23.5140   39.6590 H   0  0  0  0  0  0  0  0  0  0  0  0
   37.3470   24.4580   39.0660 H   0  0  0  0  0  0  0  0  0  0  0  0
   36.5860   24.2150   36.6790 H   0  0  0  0  0  0  0  0  0  0  0  0
  1  2  1  0  0  0  0
  2  9  1  0  0  0  0
  2  3  2  0  0  0  0
  3 24  1  0  0  0  0
  4  3  1  0  0  0  0
  5  4  2  0  0  0  0
  6  1  2  0  0  0  0
  6  5  1  0  0  0  0
  7  1  1  0  0  0  0
  8  5  1  0  0  0  0
  9 13  1  0  0  0  0
 10 14  1  0  0  0  0
 10  9  1  0  0  0  0
 10 11  1  0  0  0  0
 11 12  1  0  0  0  0
 11 16  1  0  0  0  0
 12 18  1  0  0  0  0
 12 19  1  0  0  0  0
 13 20  1  1  0  0  0
 13 12  1  0  0  0  0
 15 10  1  0  0  0  0
 17 11  1  0  0  0  0
 21 22  1  0  0  0  0
 21 13  1  0  0  0  0
 23 21  1  0  0  0  0
 23 22  1  0  0  0  0
 24 25  2  0  0  0  0
 24 29  1  0  0  0  0
 25 26  1  0  0  0  0
 26 31  1  0  0  0  0
 26 27  2  0  0  0  0
 27 32  1  0  0  0  0
 28 27  1  0  0  0  0
 28 33  1  0  0  0  0
 29 28  2  0  0  0  0
 30 25  1  0  0  0  0
 34 29  1  0  0  0  0
M  END
>  <minimizedAffinity>
-5.58230782

$$$$

 OpenBabel03272509143D

 34 37  0  0  1  0  0  0  0  0999 V2000
   37.6550   23.7770   32.3680 C   0  0  0  0  0  0  0  0  0  0  0  0
   37.9530   24.0280   33.7380 C   0  0  0  0  0  0  0  0  0  0  0  0
   38.1690   22.9070   34.5540 C   0  0  0  0  0  0  0  0  0  0  0  0
   38.0870   21.6670   34.0040 N   0  0  0  0  0  0  0  0  0  0  0  0
   37.8020   21.4770   32.7020 C   0  0  0  0  0  0  0  0  0  0  0  0
   37.5890   22.5280   31.8940 N   0  0  0  0  0  0  0  0  0  0  0  0
   37.4780   24.5640   31.6810 H   0  0  0  0  0  0  0  0  0  0  0  0
   37.7530   20.4570   32.3340 H   0  0  0  0  0  0  0  0  0  0  0  0
   37.9930   25.3920   34.1210 N   0  0  0  0  0  0  0  0  0  0  0  0
   37.2690   26.2870   35.0290 C   0  0  0  0  0  0  0  0  0  0  0  0
   36.9510   27.4660   34.1220 C   0  0  0  0  0  0  0  0  0  0  0  0
   38.1360   27.5440   33.1730 C   0  0  0  0  0  0  0  0  0  0  0  0
   38.9580   26.3180   33.5540 C   0  0  1  0  0  0  0  0  0  0  0  0
   36.2830   25.8750   35.3300 H   0  0  0  0  0  0  0  0  0  0  0  0
   37.7990   26.5360   35.9370 H   0  0  0  0  0  0  0  0  0  0  0  0
   36.0540   27.2070   33.5160 H   0  0  0  0  0  0  0  0  0  0  0  0
   36.8740   28.4210   34.6580 H   0  0  0  0  0  0  0  0  0  0  0  0
   38.7270   28.4580   33.2880 H   0  0  0  0  0  0  0  0  0  0  0  0
   37.8010   27.4760   32.1100 H   0  0  0  0  0  0  0  0  0  0  0  0
   39.4800   25.9220   32.6640 H   0  0  0  0  0  0  0  0  0  0  0  0
   40.0000   26.7830   34.5120 C   0  0  0  0  0  3  0  0  0  0  0  0
   41.3710   26.9610   33.8450 C   0  0  0  0  0  2  0  0  0  0  0  0
   41.1590   25.9250   34.9020 C   0  0  0  0  0  2  0  0  0  0  0  0
   38.4770   23.0380   35.9490 C   0  0  0  0  0  0  0  0  0  0  0  0
   39.7570   22.7980   36.3700 C   0  0  0  0  0  0  0  0  0  0  0  0
   40.1610   22.8950   37.6850 C   0  0  0  0  0  0  0  0  0  0  0  0
   39.1740   23.2600   38.6120 C   0  0  0  0  0  0  0  0  0  0  0  0
   37.8520   23.5210   38.2660 C   0  0  0  0  0  0  0  0  0  0  0  0
   37.5430   23.3950   36.9050 C   0  0  0  0  0  0  0  0  0  0  0  0
   40.5330   22.5120   35.6490 H   0  0  0  0  0  0  0  0  0  0  0  0
   41.1720   22.7040   38.0040 H   0  0  0  0  0  0  0  0  0  0  0  0
   39.4640   23.3440   39.6520 H   0  0  0  0  0  0  0  0  0  0  0  0
   37.1280   23.7970   39.0060 H   0  0  0  0  0  0  0  0  0  0  0  0
   36.5360   23.5820   36.5690 H   0  0  0  0  0  0  0  0  0  0  0  0
  1  2  1  0  0  0  0
  2  9  1  0  0  0  0
  2  3  2  0  0  0  0
  3 24  1  0  0  0  0
  4  3  1  0  0  0  0
  5  4  2  0  0  0  0
  6  1  2  0  0  0  0
  6  5  1  0  0  0  0
  7  1  1  0  0  0  0
  8  5  1  0  0  0  0
  9 10  1  0  0  0  0
 10 14  1  0  0  0  0
 10 15  1  0  0  0  0
 11 17  1  0  0  0  0
 11 10  1  0  0  0  0
 12 18  1  0  0  0  0
 12 13  1  0  0  0  0
 12 11  1  0  0  0  0
 13 20  1  6  0  0  0
 13  9  1  0  0  0  0
 13 21  1  0  0  0  0
 16 11  1  0  0  0  0
 19 12  1  0  0  0  0
 21 23  1  0  0  0  0
 22 21  1  0  0  0  0
 22 23  1  0  0  0  0
 24 25  2  0  0  0  0
 24 29  1  0  0  0  0
 25 26  1  0  0  0  0
 26 31  1  0  0  0  0
 26 27  2  0  0  0  0
 27 32  1  0  0  0  0
 28 27  1  0  0  0  0
 28 33  1  0  0  0  0
 29 28  2  0  0  0  0
 30 25  1  0  0  0  0
 34 29  1  0  0  0  0
M  END
>  <minimizedAffinity>
-5.25068855

$$$$

 OpenBabel03272509143D

 34 37  0  0  1  0  0  0  0  0999 V2000
   37.1560   25.7970   32.4500 C   0  0  0  0  0  0  0  0  0  0  0  0
   37.1760   24.3730   32.4620 C   0  0  0  0  0  0  0  0  0  0  0  0
   36.1870   23.7200   31.7110 C   0  0  0  0  0  0  0  0  0  0  0  0
   35.2820   24.4670   31.0250 N   0  0  0  0  0  0  0  0  0  0  0  0
   35.3010   25.8130   31.0420 C   0  0  0  0  0  0  0  0  0  0  0  0
   36.2350   26.4690   31.7510 N   0  0  0  0  0  0  0  0  0  0  0  0
   37.8660   26.3710   32.9890 H   0  0  0  0  0  0  0  0  0  0  0  0
   34.5460   26.3420   30.4690 H   0  0  0  0  0  0  0  0  0  0  0  0
   38.1990   23.7770   33.2400 N   0  0  0  0  0  0  0  0  0  0  0  0
   39.5810   23.3210   33.0530 C   0  0  0  0  0  0  0  0  0  0  0  0
   39.5330   21.9210   33.6460 C   0  0  0  0  0  0  0  0  0  0  0  0
   38.5260   22.0240   34.7800 C   0  0  0  0  0  0  0  0  0  0  0  0
   38.0030   23.4490   34.6420 C   0  0  1  0  0  0  0  0  0  0  0  0
   39.8350   23.1770   31.9820 H   0  0  0  0  0  0  0  0  0  0  0  0
   40.3340   23.9730   33.4730 H   0  0  0  0  0  0  0  0  0  0  0  0
   39.1060   21.2340   32.8810 H   0  0  0  0  0  0  0  0  0  0  0  0
   40.4930   21.5910   34.0640 H   0  0  0  0  0  0  0  0  0  0  0  0
   38.9670   21.8670   35.7700 H   0  0  0  0  0  0  0  0  0  0  0  0
   37.6980   21.2870   34.6450 H   0  0  0  0  0  0  0  0  0  0  0  0
   36.9460   23.4960   34.9620 H   0  0  0  0  0  0  0  0  0  0  0  0
   38.7930   24.2880   35.5860 C   0  0  0  0  0  3  0  0  0  0  0  0
   37.9810   24.7050   36.8200 C   0  0  0  0  0  2  0  0  0  0  0  0
   38.4650   25.7230   35.8380 C   0  0  0  0  0  2  0  0  0  0  0  0
   36.1080   22.2900   31.6490 C   0  0  0  0  0  0  0  0  0  0  0  0
   35.1460   21.6470   32.3800 C   0  0  0  0  0  0  0  0  0  0  0  0
   34.9810   20.2780   32.3930 C   0  0  0  0  0  0  0  0  0  0  0  0
   35.8700   19.5380   31.6000 C   0  0  0  0  0  0  0  0  0  0  0  0
   36.8750   20.1150   30.8290 C   0  0  0  0  0  0  0  0  0  0  0  0
   36.9590   21.5120   30.8840 C   0  0  0  0  0  0  0  0  0  0  0  0
   34.4460   22.2200   33.0010 H   0  0  0  0  0  0  0  0  0  0  0  0
   34.2190   19.7830   32.9720 H   0  0  0  0  0  0  0  0  0  0  0  0
   35.7640   18.4610   31.5910 H   0  0  0  0  0  0  0  0  0  0  0  0
   37.5350   19.5130   30.2360 H   0  0  0  0  0  0  0  0  0  0  0  0
   37.7150   22.0220   30.3100 H   0  0  0  0  0  0  0  0  0  0  0  0
  1  2  1  0  0  0  0
  1  7  1  0  0  0  0
  2  9  1  0  0  0  0
  3  2  2  0  0  0  0
  4  5  2  0  0  0  0
  4  3  1  0  0  0  0
  5  6  1  0  0  0  0
  6  1  2  0  0  0  0
  8  5  1  0  0  0  0
  9 13  1  0  0  0  0
 10  9  1  0  0  0  0
 10 15  1  0  0  0  0
 10 11  1  0  0  0  0
 11 17  1  0  0  0  0
 11 12  1  0  0  0  0
 12 18  1  0  0  0  0
 13 12  1  0  0  0  0
 13 20  1  1  0  0  0
 13 21  1  0  0  0  0
 14 10  1  0  0  0  0
 16 11  1  0  0  0  0
 19 12  1  0  0  0  0
 21 23  1  0  0  0  0
 21 22  1  0  0  0  0
 23 22  1  0  0  0  0
 24  3  1  0  0  0  0
 24 25  1  0  0  0  0
 25 26  2  0  0  0  0
 25 30  1  0  0  0  0
 26 31  1  0  0  0  0
 27 26  1  0  0  0  0
 28 29  1  0  0  0  0
 28 27  2  0  0  0  0
 29 24  2  0  0  0  0
 32 27  1  0  0  0  0
 33 28  1  0  0  0  0
 34 29  1  0  0  0  0
M  END
>  <minimizedAffinity>
-5.20478916

$$$$

 OpenBabel03272509143D

 34 37  0  0  1  0  0  0  0  0999 V2000
   37.6310   23.3580   32.2300 C   0  0  0  0  0  0  0  0  0  0  0  0
   38.3100   23.5560   33.4660 C   0  0  0  0  0  0  0  0  0  0  0  0
   38.0020   22.6640   34.5050 C   0  0  0  0  0  0  0  0  0  0  0  0
   37.0930   21.6790   34.2800 N   0  0  0  0  0  0  0  0  0  0  0  0
   36.4750   21.5300   33.0930 C   0  0  0  0  0  0  0  0  0  0  0  0
   36.7470   22.3670   32.0780 N   0  0  0  0  0  0  0  0  0  0  0  0
   37.8020   23.9840   31.3920 H   0  0  0  0  0  0  0  0  0  0  0  0
   35.7600   20.7210   32.9870 H   0  0  0  0  0  0  0  0  0  0  0  0
   39.2220   24.6390   33.5040 N   0  0  0  0  0  0  0  0  0  0  0  0
   40.1540   25.3070   32.5900 C   0  0  0  0  0  0  0  0  0  0  0  0
   41.4270   25.3580   33.4200 C   0  0  0  0  0  0  0  0  0  0  0  0
   40.9400   25.5240   34.8500 C   0  0  0  0  0  0  0  0  0  0  0  0
   39.4260   25.4260   34.7080 C   0  0  1  0  0  0  0  0  0  0  0  0
   40.4030   24.6790   31.7090 H   0  0  0  0  0  0  0  0  0  0  0  0
   39.8130   26.2620   32.2130 H   0  0  0  0  0  0  0  0  0  0  0  0
   41.9270   24.3660   33.3510 H   0  0  0  0  0  0  0  0  0  0  0  0
   42.0750   26.2100   33.1740 H   0  0  0  0  0  0  0  0  0  0  0  0
   41.2260   26.4810   35.2990 H   0  0  0  0  0  0  0  0  0  0  0  0
   41.3270   24.7030   35.5010 H   0  0  0  0  0  0  0  0  0  0  0  0
   38.9900   24.9680   35.6140 H   0  0  0  0  0  0  0  0  0  0  0  0
   38.9130   26.8230   34.6240 C   0  0  0  0  0  3  0  0  0  0  0  0
   38.1550   27.2460   35.8890 C   0  0  0  0  0  2  0  0  0  0  0  0
   37.4520   27.1300   34.5750 C   0  0  0  0  0  2  0  0  0  0  0  0
   38.6230   22.7640   35.7940 C   0  0  0  0  0  0  0  0  0  0  0  0
   37.9750   23.4450   36.7890 C   0  0  0  0  0  0  0  0  0  0  0  0
   38.4790   23.6020   38.0630 C   0  0  0  0  0  0  0  0  0  0  0  0
   39.7300   23.0180   38.3120 C   0  0  0  0  0  0  0  0  0  0  0  0
   40.4530   22.3110   37.3550 C   0  0  0  0  0  0  0  0  0  0  0  0
   39.8540   22.2080   36.0940 C   0  0  0  0  0  0  0  0  0  0  0  0
   36.9960   23.9040   36.6020 H   0  0  0  0  0  0  0  0  0  0  0  0
   37.9610   24.1400   38.8390 H   0  0  0  0  0  0  0  0  0  0  0  0
   40.1500   23.1260   39.3030 H   0  0  0  0  0  0  0  0  0  0  0  0
   41.4060   21.8790   37.5860 H   0  0  0  0  0  0  0  0  0  0  0  0
   40.3600   21.6730   35.3070 H   0  0  0  0  0  0  0  0  0  0  0  0
  1  2  1  0  0  0  0
  2  9  1  0  0  0  0
  2  3  2  0  0  0  0
  3 24  1  0  0  0  0
  4  3  1  0  0  0  0
  5  4  2  0  0  0  0
  6  1  2  0  0  0  0
  6  5  1  0  0  0  0
  7  1  1  0  0  0  0
  8  5  1  0  0  0  0
  9 13  1  0  0  0  0
 10 11  1  0  0  0  0
 10  9  1  0  0  0  0
 11 12  1  0  0  0  0
 12 18  1  0  0  0  0
 12 19  1  0  0  0  0
 13 12  1  0  0  0  0
 13 20  1  1  0  0  0
 14 10  1  0  0  0  0
 15 10  1  0  0  0  0
 16 11  1  0  0  0  0
 17 11  1  0  0  0  0
 21 13  1  0  0  0  0
 21 22  1  0  0  0  0
 23 21  1  0  0  0  0
 23 22  1  0  0  0  0
 24 29  2  0  0  0  0
 24 25  1  0  0  0  0
 25 26  2  0  0  0  0
 26 27  1  0  0  0  0
 26 31  1  0  0  0  0
 27 32  1  0  0  0  0
 28 33  1  0  0  0  0
 28 27  2  0  0  0  0
 29 28  1  0  0  0  0
 30 25  1  0  0  0  0
 34 29  1  0  0  0  0
M  END
>  <minimizedAffinity>
-5.13064146

$$$$

 OpenBabel03272509143D

 34 37  0  0  1  0  0  0  0  0999 V2000
   37.0600   25.9470   32.7520 C   0  0  0  0  0  0  0  0  0  0  0  0
   37.7050   24.9940   33.5910 C   0  0  0  0  0  0  0  0  0  0  0  0
   37.9550   25.3850   34.9150 C   0  0  0  0  0  0  0  0  0  0  0  0
   37.5750   26.6270   35.3170 N   0  0  0  0  0  0  0  0  0  0  0  0
   36.9680   27.4950   34.4880 C   0  0  0  0  0  0  0  0  0  0  0  0
   36.7140   27.1520   33.2140 N   0  0  0  0  0  0  0  0  0  0  0  0
   36.8330   25.7360   31.7380 H   0  0  0  0  0  0  0  0  0  0  0  0
   36.6930   28.4690   34.8810 H   0  0  0  0  0  0  0  0  0  0  0  0
   38.0240   23.7530   32.9850 N   0  0  0  0  0  0  0  0  0  0  0  0
   39.2000   23.0990   32.4030 C   0  0  0  0  0  0  0  0  0  0  0  0
   38.6570   22.6040   31.0700 C   0  0  0  0  0  0  0  0  0  0  0  0
   37.2050   22.2600   31.3580 C   0  0  0  0  0  0  0  0  0  0  0  0
   37.0270   22.7120   32.8030 C   0  0  1  0  0  0  0  0  0  0  0  0
   40.0000   23.8240   32.1430 H   0  0  0  0  0  0  0  0  0  0  0  0
   39.6510   22.3390   33.0260 H   0  0  0  0  0  0  0  0  0  0  0  0
   38.6640   23.4560   30.3550 H   0  0  0  0  0  0  0  0  0  0  0  0
   39.1610   21.7000   30.7030 H   0  0  0  0  0  0  0  0  0  0  0  0
   36.9820   21.1930   31.2560 H   0  0  0  0  0  0  0  0  0  0  0  0
   36.5200   22.8270   30.6820 H   0  0  0  0  0  0  0  0  0  0  0  0
   35.9910   23.0600   32.9650 H   0  0  0  0  0  0  0  0  0  0  0  0
   37.2320   21.5080   33.6560 C   0  0  0  0  0  3  0  0  0  0  0  0
   35.9090   20.8400   34.0530 C   0  0  0  0  0  2  0  0  0  0  0  0
   36.7950   21.4640   35.0840 C   0  0  0  0  0  2  0  0  0  0  0  0
   38.5980   24.5100   35.8510 C   0  0  0  0  0  0  0  0  0  0  0  0
   37.9690   24.2270   37.0340 C   0  0  0  0  0  0  0  0  0  0  0  0
   38.4950   23.4000   38.0030 C   0  0  0  0  0  0  0  0  0  0  0  0
   39.7500   22.8370   37.7240 C   0  0  0  0  0  0  0  0  0  0  0  0
   40.4550   23.0740   36.5470 C   0  0  0  0  0  0  0  0  0  0  0  0
   39.8340   23.9280   35.6270 C   0  0  0  0  0  0  0  0  0  0  0  0
   36.9880   24.6640   37.2580 H   0  0  0  0  0  0  0  0  0  0  0  0
   37.9910   23.1850   38.9300 H   0  0  0  0  0  0  0  0  0  0  0  0
   40.1870   22.1830   38.4670 H   0  0  0  0  0  0  0  0  0  0  0  0
   41.4110   22.6240   36.3730 H   0  0  0  0  0  0  0  0  0  0  0  0
   40.3260   24.1540   34.6960 H   0  0  0  0  0  0  0  0  0  0  0  0
  1  6  2  0  0  0  0
  1  2  1  0  0  0  0
  2  3  2  0  0  0  0
  3  4  1  0  0  0  0
  3 24  1  0  0  0  0
  5  8  1  0  0  0  0
  5  4  2  0  0  0  0
  6  5  1  0  0  0  0
  7  1  1  0  0  0  0
  9  2  1  0  0  0  0
 10  9  1  0  0  0  0
 10 15  1  0  0  0  0
 11 12  1  0  0  0  0
 11 10  1  0  0  0  0
 12 13  1  0  0  0  0
 13 20  1  1  0  0  0
 13  9  1  0  0  0  0
 13 21  1  0  0  0  0
 14 10  1  0  0  0  0
 16 11  1  0  0  0  0
 17 11  1  0  0  0  0
 18 12  1  0  0  0  0
 19 12  1  0  0  0  0
 21 22  1  0  0  0  0
 21 23  1  0  0  0  0
 22 23  1  0  0  0  0
 24 25  1  0  0  0  0
 25 30  1  0  0  0  0
 25 26  2  0  0  0  0
 26 31  1  0  0  0  0
 27 26  1  0  0  0  0
 27 32  1  0  0  0  0
 28 27  2  0  0  0  0
 29 24  2  0  0  0  0
 29 28  1  0  0  0  0
 33 28  1  0  0  0  0
 34 29  1  0  0  0  0
M  END
>  <minimizedAffinity>
-5.05279541

$$$$

 OpenBabel03272509143D

 34 37  0  0  1  0  0  0  0  0999 V2000
   37.3210   24.3390   32.0790 C   0  0  0  0  0  0  0  0  0  0  0  0
   37.4210   25.7590   32.0600 C   0  0  0  0  0  0  0  0  0  0  0  0
   36.3300   26.4630   31.5280 C   0  0  0  0  0  0  0  0  0  0  0  0
   35.2570   25.7650   31.0710 N   0  0  0  0  0  0  0  0  0  0  0  0
   35.2050   24.4210   31.1090 C   0  0  0  0  0  0  0  0  0  0  0  0
   36.2340   23.7170   31.6120 N   0  0  0  0  0  0  0  0  0  0  0  0
   38.0980   23.7290   32.4630 H   0  0  0  0  0  0  0  0  0  0  0  0
   34.3150   23.9320   30.7250 H   0  0  0  0  0  0  0  0  0  0  0  0
   38.6220   26.3010   32.5820 N   0  0  0  0  0  0  0  0  0  0  0  0
   39.6990   27.1900   32.1320 C   0  0  0  0  0  0  0  0  0  0  0  0
   40.9400   26.3900   32.4950 C   0  0  0  0  0  0  0  0  0  0  0  0
   40.5520   25.6430   33.7610 C   0  0  0  0  0  0  0  0  0  0  0  0
   39.0790   25.9960   33.9260 C   0  0  1  0  0  0  0  0  0  0  0  0
   39.7270   27.2910   31.0260 H   0  0  0  0  0  0  0  0  0  0  0  0
   39.6600   28.1900   32.5410 H   0  0  0  0  0  0  0  0  0  0  0  0
   41.1110   25.6320   31.6990 H   0  0  0  0  0  0  0  0  0  0  0  0
   41.8140   27.0170   32.7170 H   0  0  0  0  0  0  0  0  0  0  0  0
   41.1260   25.9520   34.6410 H   0  0  0  0  0  0  0  0  0  0  0  0
   40.6800   24.5420   33.6290 H   0  0  0  0  0  0  0  0  0  0  0  0
   38.5390   25.1530   34.3950 H   0  0  0  0  0  0  0  0  0  0  0  0
   39.0180   27.1460   34.8720 C   0  0  0  0  0  3  0  0  0  0  0  0
   38.4090   26.7590   36.2260 C   0  0  0  0  0  2  0  0  0  0  0  0
   37.7210   27.7330   35.3240 C   0  0  0  0  0  2  0  0  0  0  0  0
   36.3180   27.8950   31.4570 C   0  0  0  0  0  0  0  0  0  0  0  0
   36.7780   28.5050   30.3210 C   0  0  0  0  0  0  0  0  0  0  0  0
   36.8110   29.8730   30.1460 C   0  0  0  0  0  0  0  0  0  0  0  0
   36.3390   30.6470   31.2160 C   0  0  0  0  0  0  0  0  0  0  0  0
   35.8560   30.1050   32.4040 C   0  0  0  0  0  0  0  0  0  0  0  0
   35.8640   28.7060   32.4820 C   0  0  0  0  0  0  0  0  0  0  0  0
   37.1480   27.9050   29.4800 H   0  0  0  0  0  0  0  0  0  0  0  0
   37.1750   30.3420   29.2470 H   0  0  0  0  0  0  0  0  0  0  0  0
   36.3530   31.7230   31.1070 H   0  0  0  0  0  0  0  0  0  0  0  0
   35.5040   30.7320   33.1980 H   0  0  0  0  0  0  0  0  0  0  0  0
   35.5030   28.2220   33.3740 H   0  0  0  0  0  0  0  0  0  0  0  0
  1  7  1  0  0  0  0
  2  1  1  0  0  0  0
  2  9  1  0  0  0  0
  3  2  2  0  0  0  0
  4  5  2  0  0  0  0
  4  3  1  0  0  0  0
  5  6  1  0  0  0  0
  6  1  2  0  0  0  0
  8  5  1  0  0  0  0
  9 13  1  0  0  0  0
 10 11  1  0  0  0  0
 10 15  1  0  0  0  0
 10  9  1  0  0  0  0
 11 17  1  0  0  0  0
 11 12  1  0  0  0  0
 12 13  1  0  0  0  0
 12 18  1  0  0  0  0
 13 20  1  1  0  0  0
 13 21  1  0  0  0  0
 14 10  1  0  0  0  0
 16 11  1  0  0  0  0
 19 12  1  0  0  0  0
 21 23  1  0  0  0  0
 21 22  1  0  0  0  0
 23 22  1  0  0  0  0
 24  3  1  0  0  0  0
 24 29  1  0  0  0  0
 25 24  2  0  0  0  0
 26 25  1  0  0  0  0
 26 27  2  0  0  0  0
 27 28  1  0  0  0  0
 28 29  2  0  0  0  0
 28 33  1  0  0  0  0
 29 34  1  0  0  0  0
 30 25  1  0  0  0  0
 31 26  1  0  0  0  0
 32 27  1  0  0  0  0
M  END
>  <minimizedAffinity>
-5.00347328

$$$$

 OpenBabel03272509143D

 34 37  0  0  1  0  0  0  0  0999 V2000
   42.5770   24.5030   34.1360 C   0  0  0  0  0  0  0  0  0  0  0  0
   41.2100   24.8920   34.2210 C   0  0  0  0  0  0  0  0  0  0  0  0
   40.9380   26.2670   34.1460 C   0  0  0  0  0  0  0  0  0  0  0  0
   41.9730   27.1350   33.9980 N   0  0  0  0  0  0  0  0  0  0  0  0
   43.2510   26.7220   33.9220 C   0  0  0  0  0  0  0  0  0  0  0  0
   43.5460   25.4120   33.9910 N   0  0  0  0  0  0  0  0  0  0  0  0
   42.8730   23.4860   34.1830 H   0  0  0  0  0  0  0  0  0  0  0  0
   44.0250   27.4740   33.8050 H   0  0  0  0  0  0  0  0  0  0  0  0
   40.2760   23.8370   34.3750 N   0  0  0  0  0  0  0  0  0  0  0  0
   39.5980   22.8540   33.5240 C   0  0  0  0  0  0  0  0  0  0  0  0
   38.1460   23.0180   33.9490 C   0  0  0  0  0  0  0  0  0  0  0  0
   38.2220   23.3660   35.4270 C   0  0  0  0  0  0  0  0  0  0  0  0
   39.7210   23.4890   35.6710 C   0  0  1  0  0  0  0  0  0  0  0  0
   39.6230   23.1360   32.4510 H   0  0  0  0  0  0  0  0  0  0  0  0
   39.9870   21.8470   33.5960 H   0  0  0  0  0  0  0  0  0  0  0  0
   37.7270   23.9010   33.4180 H   0  0  0  0  0  0  0  0  0  0  0  0
   37.5530   22.1000   33.8390 H   0  0  0  0  0  0  0  0  0  0  0  0
   37.7850   22.6010   36.0770 H   0  0  0  0  0  0  0  0  0  0  0  0
   37.7090   24.3360   35.6340 H   0  0  0  0  0  0  0  0  0  0  0  0
   39.9150   24.2470   36.4520 H   0  0  0  0  0  0  0  0  0  0  0  0
   40.1770   22.1740   36.2030 C   0  0  0  0  0  3  0  0  0  0  0  0
   40.6710   22.2680   37.6530 C   0  0  0  0  0  2  0  0  0  0  0  0
   41.6070   21.9090   36.5440 C   0  0  0  0  0  2  0  0  0  0  0  0
   39.5990   26.7760   34.2200 C   0  0  0  0  0  0  0  0  0  0  0  0
   39.1000   27.1510   35.4380 C   0  0  0  0  0  0  0  0  0  0  0  0
   37.8290   27.6530   35.6230 C   0  0  0  0  0  0  0  0  0  0  0  0
   37.0340   27.7680   34.4730 C   0  0  0  0  0  0  0  0  0  0  0  0
   37.4660   27.4090   33.2000 C   0  0  0  0  0  0  0  0  0  0  0  0
   38.7720   26.9110   33.1190 C   0  0  0  0  0  0  0  0  0  0  0  0
   39.7170   27.0640   36.3410 H   0  0  0  0  0  0  0  0  0  0  0  0
   37.4460   27.9450   36.5870 H   0  0  0  0  0  0  0  0  0  0  0  0
   36.0310   28.1600   34.5890 H   0  0  0  0  0  0  0  0  0  0  0  0
   36.8260   27.5130   32.3460 H   0  0  0  0  0  0  0  0  0  0  0  0
   39.1690   26.6140   32.1620 H   0  0  0  0  0  0  0  0  0  0  0  0
  1  7  1  0  0  0  0
  1  2  1  0  0  0  0
  2  9  1  0  0  0  0
  3 24  1  0  0  0  0
  3  2  2  0  0  0  0
  4  3  1  0  0  0  0
  5  6  1  0  0  0  0
  5  4  2  0  0  0  0
  6  1  2  0  0  0  0
  8  5  1  0  0  0  0
  9 13  1  0  0  0  0
 10 15  1  0  0  0  0
 10 11  1  0  0  0  0
 10  9  1  0  0  0  0
 11 12  1  0  0  0  0
 12 19  1  0  0  0  0
 12 13  1  0  0  0  0
 12 18  1  0  0  0  0
 13 21  1  0  0  0  0
 13 20  1  1  0  0  0
 14 10  1  0  0  0  0
 16 11  1  0  0  0  0
 17 11  1  0  0  0  0
 21 23  1  0  0  0  0
 21 22  1  0  0  0  0
 23 22  1  0  0  0  0
 24 25  1  0  0  0  0
 25 26  2  0  0  0  0
 25 30  1  0  0  0  0
 26 31  1  0  0  0  0
 27 32  1  0  0  0  0
 27 26  1  0  0  0  0
 28 27  2  0  0  0  0
 29 28  1  0  0  0  0
 29 24  2  0  0  0  0
 33 28  1  0  0  0  0
 34 29  1  0  0  0  0
M  END
>  <minimizedAffinity>
-4.98256207

$$$$

 OpenBabel03272509143D

 34 37  0  0  1  0  0  0  0  0999 V2000
   38.4200   24.8070   35.4310 C   0  0  0  0  0  0  0  0  0  0  0  0
   38.1620   23.8900   34.3730 C   0  0  0  0  0  0  0  0  0  0  0  0
   37.7540   22.5980   34.7410 C   0  0  0  0  0  0  0  0  0  0  0  0
   37.6280   22.2990   36.0610 N   0  0  0  0  0  0  0  0  0  0  0  0
   37.8830   23.1990   37.0280 C   0  0  0  0  0  0  0  0  0  0  0  0
   38.2760   24.4440   36.7100 N   0  0  0  0  0  0  0  0  0  0  0  0
   38.7320   25.8030   35.2450 H   0  0  0  0  0  0  0  0  0  0  0  0
   37.7600   22.8880   38.0600 H   0  0  0  0  0  0  0  0  0  0  0  0
   38.3520   24.3910   33.0610 N   0  0  0  0  0  0  0  0  0  0  0  0
   39.3890   24.3570   32.0240 C   0  0  0  0  0  0  0  0  0  0  0  0
   39.5110   25.8270   31.6530 C   0  0  0  0  0  0  0  0  0  0  0  0
   38.1050   26.3780   31.8200 C   0  0  0  0  0  0  0  0  0  0  0  0
   37.3400   25.1910   32.3930 C   0  0  1  0  0  0  0  0  0  0  0  0
   40.3820   24.0730   32.4310 H   0  0  0  0  0  0  0  0  0  0  0  0
   39.1820   23.6900   31.1990 H   0  0  0  0  0  0  0  0  0  0  0  0
   40.1570   26.3240   32.4100 H   0  0  0  0  0  0  0  0  0  0  0  0
   39.8260   25.9890   30.6130 H   0  0  0  0  0  0  0  0  0  0  0  0
   37.6530   26.7120   30.8800 H   0  0  0  0  0  0  0  0  0  0  0  0
   38.0950   27.2340   32.5360 H   0  0  0  0  0  0  0  0  0  0  0  0
   36.5410   25.5470   33.0700 H   0  0  0  0  0  0  0  0  0  0  0  0
   36.6800   24.5110   31.2430 C   0  0  0  0  0  3  0  0  0  0  0  0
   35.2300   24.9720   31.0440 C   0  0  0  0  0  2  0  0  0  0  0  0
   35.5420   23.5620   31.4290 C   0  0  0  0  0  2  0  0  0  0  0  0
   37.4660   21.5910   33.7620 C   0  0  0  0  0  0  0  0  0  0  0  0
   38.4680   21.1730   32.9280 C   0  0  0  0  0  0  0  0  0  0  0  0
   38.3020   20.2110   31.9530 C   0  0  0  0  0  0  0  0  0  0  0  0
   37.0190   19.6560   31.8410 C   0  0  0  0  0  0  0  0  0  0  0  0
   35.9470   20.0260   32.6500 C   0  0  0  0  0  0  0  0  0  0  0  0
   36.2200   21.0100   33.6090 C   0  0  0  0  0  0  0  0  0  0  0  0
   39.4740   21.6030   33.0100 H   0  0  0  0  0  0  0  0  0  0  0  0
   39.0980   19.8900   31.3020 H   0  0  0  0  0  0  0  0  0  0  0  0
   36.8590   18.8990   31.0850 H   0  0  0  0  0  0  0  0  0  0  0  0
   34.9820   19.5770   32.5310 H   0  0  0  0  0  0  0  0  0  0  0  0
   35.4340   21.3420   34.2670 H   0  0  0  0  0  0  0  0  0  0  0  0
  1  6  1  0  0  0  0
  2  3  1  0  0  0  0
  2  1  2  0  0  0  0
  3  4  2  0  0  0  0
  4  5  1  0  0  0  0
  5  8  1  0  0  0  0
  6  5  2  0  0  0  0
  7  1  1  0  0  0  0
  9  2  1  0  0  0  0
 10 14  1  0  0  0  0
 10  9  1  0  0  0  0
 11 12  1  0  0  0  0
 11 10  1  0  0  0  0
 11 16  1  0  0  0  0
 12 13  1  0  0  0  0
 12 19  1  0  0  0  0
 13  9  1  0  0  0  0
 13 20  1  1  0  0  0
 15 10  1  0  0  0  0
 17 11  1  0  0  0  0
 18 12  1  0  0  0  0
 21 23  1  0  0  0  0
 21 13  1  0  0  0  0
 22 21  1  0  0  0  0
 22 23  1  0  0  0  0
 24  3  1  0  0  0  0
 25 30  1  0  0  0  0
 25 24  2  0  0  0  0
 26 25  1  0  0  0  0
 27 26  2  0  0  0  0
 27 28  1  0  0  0  0
 28 29  2  0  0  0  0
 29 24  1  0  0  0  0
 29 34  1  0  0  0  0
 31 26  1  0  0  0  0
 32 27  1  0  0  0  0
 33 28  1  0  0  0  0
M  END
>  <minimizedAffinity>
-4.7721138

$$$$

 OpenBabel03272509143D

 34 37  0  0  1  0  0  0  0  0999 V2000
   35.6940   24.1250   31.4850 C   0  0  0  0  0  0  0  0  0  0  0  0
   36.8420   24.3420   32.2980 C   0  0  0  0  0  0  0  0  0  0  0  0
   37.2980   25.6650   32.4080 C   0  0  0  0  0  0  0  0  0  0  0  0
   36.6310   26.6470   31.7460 N   0  0  0  0  0  0  0  0  0  0  0  0
   35.5490   26.3950   30.9870 C   0  0  0  0  0  0  0  0  0  0  0  0
   35.0870   25.1400   30.8610 N   0  0  0  0  0  0  0  0  0  0  0  0
   35.2810   23.1580   31.3460 H   0  0  0  0  0  0  0  0  0  0  0  0
   35.0690   27.2310   30.4890 H   0  0  0  0  0  0  0  0  0  0  0  0
   37.3960   23.1870   32.9050 N   0  0  0  0  0  0  0  0  0  0  0  0
   37.8970   22.7880   34.2240 C   0  0  0  0  0  0  0  0  0  0  0  0
   39.2430   22.1700   33.8750 C   0  0  0  0  0  0  0  0  0  0  0  0
   39.0240   21.5310   32.5130 C   0  0  0  0  0  0  0  0  0  0  0  0
   37.6040   21.9570   32.1610 C   0  0  1  0  0  0  0  0  0  0  0  0
   38.1330   23.6610   34.8670 H   0  0  0  0  0  0  0  0  0  0  0  0
   37.2310   22.1500   34.7870 H   0  0  0  0  0  0  0  0  0  0  0  0
   39.9800   22.9930   33.7440 H   0  0  0  0  0  0  0  0  0  0  0  0
   39.5590   21.3880   34.5780 H   0  0  0  0  0  0  0  0  0  0  0  0
   39.1100   20.4400   32.5260 H   0  0  0  0  0  0  0  0  0  0  0  0
   39.7510   21.9300   31.7650 H   0  0  0  0  0  0  0  0  0  0  0  0
   37.5070   22.0800   31.0670 H   0  0  0  0  0  0  0  0  0  0  0  0
   36.7090   20.8360   32.5650 C   0  0  0  0  0  3  0  0  0  0  0  0
   35.8530   20.3210   31.4000 C   0  0  0  0  0  2  0  0  0  0  0  0
   35.2220   20.9760   32.5870 C   0  0  0  0  0  2  0  0  0  0  0  0
   38.4440   26.0040   33.2000 C   0  0  0  0  0  0  0  0  0  0  0  0
   38.2540   26.5680   34.4320 C   0  0  0  0  0  0  0  0  0  0  0  0
   39.2830   26.9320   35.2750 C   0  0  0  0  0  0  0  0  0  0  0  0
   40.5840   26.6960   34.8040 C   0  0  0  0  0  0  0  0  0  0  0  0
   40.8620   26.1270   33.5650 C   0  0  0  0  0  0  0  0  0  0  0  0
   39.7470   25.7920   32.7850 C   0  0  0  0  0  0  0  0  0  0  0  0
   37.2400   26.7550   34.8060 H   0  0  0  0  0  0  0  0  0  0  0  0
   39.1220   27.3760   36.2430 H   0  0  0  0  0  0  0  0  0  0  0  0
   41.4110   26.9710   35.4450 H   0  0  0  0  0  0  0  0  0  0  0  0
   41.8710   25.9630   33.2430 H   0  0  0  0  0  0  0  0  0  0  0  0
   39.8920   25.3490   31.8140 H   0  0  0  0  0  0  0  0  0  0  0  0
  1  2  1  0  0  0  0
  2  3  2  0  0  0  0
  2  9  1  0  0  0  0
  3 24  1  0  0  0  0
  4  3  1  0  0  0  0
  5  4  2  0  0  0  0
  6  5  1  0  0  0  0
  6  1  2  0  0  0  0
  7  1  1  0  0  0  0
  8  5  1  0  0  0  0
  9 10  1  0  0  0  0
 10 15  1  0  0  0  0
 10 14  1  0  0  0  0
 11 10  1  0  0  0  0
 11 17  1  0  0  0  0
 12 18  1  0  0  0  0
 12 11  1  0  0  0  0
 13 20  1  6  0  0  0
 13 12  1  0  0  0  0
 13 21  1  0  0  0  0
 13  9  1  0  0  0  0
 16 11  1  0  0  0  0
 19 12  1  0  0  0  0
 21 23  1  0  0  0  0
 22 21  1  0  0  0  0
 22 23  1  0  0  0  0
 24 25  1  0  0  0  0
 25 30  1  0  0  0  0
 25 26  2  0  0  0  0
 26 31  1  0  0  0  0
 27 26  1  0  0  0  0
 27 32  1  0  0  0  0
 28 27  2  0  0  0  0
 29 24  2  0  0  0  0
 29 28  1  0  0  0  0
 33 28  1  0  0  0  0
 34 29  1  0  0  0  0
M  END
>  <minimizedAffinity>
-4.7713151

$$$$
