
 OpenBabel03272508553D

 32 35  0  0  1  0  0  0  0  0999 V2000
   38.0710   26.8430   32.6470 C   0  0  2  0  0  0  0  0  0  0  0  0
   38.4170   25.8080   31.6600 C   0  0  0  0  0  0  0  0  0  0  0  0
   37.3750   25.5880   32.7860 C   0  0  1  0  0  0  0  0  0  0  0  0
   38.8980   27.1210   33.3310 H   0  0  0  0  0  0  0  0  0  0  0  0
   38.0260   25.9500   30.6280 H   0  0  0  0  0  0  0  0  0  0  0  0
   39.3740   25.2910   31.7420 H   0  0  0  0  0  0  0  0  0  0  0  0
   36.3400   25.4530   32.3910 H   0  0  0  0  0  0  0  0  0  0  0  0
   36.7380   29.6540   30.6270 C   0  0  0  0  0  0  0  0  0  0  0  0
   35.8260   30.2710   31.5360 C   0  0  0  0  0  0  0  0  0  0  0  0
   35.6990   29.6910   32.8530 C   0  0  0  0  0  0  0  0  0  0  0  0
   36.4420   28.5970   33.1680 N   0  0  0  0  0  0  0  0  0  0  0  0
   37.2930   28.0640   32.2460 C   0  0  0  0  0  0  0  0  0  0  0  0
   37.4630   28.5670   30.9720 N   0  0  0  0  0  0  0  0  0  0  0  0
   36.7990   30.1210   29.6570 H   0  0  0  0  0  0  0  0  0  0  0  0
   35.2500   31.1260   31.2790 H   0  0  0  0  0  0  0  0  0  0  0  0
   35.0350   30.1100   33.5680 H   0  0  0  0  0  0  0  0  0  0  0  0
   37.7930   25.1170   35.1770 C   0  0  0  0  0  0  0  0  0  0  0  0
   37.1790   26.1630   35.4850 O   0  0  0  0  0  0  0  0  0  0  0  0
   37.8310   24.6560   33.8040 N   0  0  0  0  0  0  0  0  0  0  0  0
   38.1550   23.7240   33.5170 H   0  0  0  0  0  0  0  0  0  0  0  0
   38.5130   24.2940   36.1880 C   0  0  0  0  0  0  0  0  0  0  0  0
   38.0860   24.3200   37.4890 C   0  0  0  0  0  0  0  0  0  0  0  0
   38.7940   23.5420   38.3920 C   0  0  0  0  0  0  0  0  0  0  0  0
   39.8610   22.8040   37.9350 C   0  0  0  0  0  0  0  0  0  0  0  0
   40.2860   22.7830   36.6170 C   0  0  0  0  0  0  0  0  0  0  0  0
   39.5680   23.5510   35.7880 N   0  0  0  0  0  0  0  0  0  0  0  0
   37.2460   24.9020   37.8410 H   0  0  0  0  0  0  0  0  0  0  0  0
   38.5060   23.5180   39.4360 H   0  0  0  0  0  0  0  0  0  0  0  0
   40.3920   22.2040   38.6850 H   0  0  0  0  0  0  0  0  0  0  0  0
   41.4400   21.9730   36.1720 C   0  0  0  0  0  3  0  0  0  0  0  0
   42.2380   21.2080   37.1600 C   0  0  0  0  0  2  0  0  0  0  0  0
   42.8260   22.4380   36.5510 C   0  0  0  0  0  2  0  0  0  0  0  0
  1  3  1  0  0  0  0
  1  4  1  1  0  0  0
  2  6  1  0  0  0  0
  2  1  1  0  0  0  0
  2  3  1  0  0  0  0
  3  7  1  6  0  0  0
  3 19  1  0  0  0  0
  5  2  1  0  0  0  0
  8 13  2  0  0  0  0
  8  9  1  0  0  0  0
  9 10  2  0  0  0  0
 10 11  1  0  0  0  0
 10 16  1  0  0  0  0
 12  1  1  0  0  0  0
 12 11  2  0  0  0  0
 13 12  1  0  0  0  0
 14  8  1  0  0  0  0
 15  9  1  0  0  0  0
 17 18  2  0  0  0  0
 17 21  1  0  0  0  0
 19 17  1  0  0  0  0
 20 19  1  0  0  0  0
 21 22  1  0  0  0  0
 22 27  1  0  0  0  0
 22 23  2  0  0  0  0
 23 28  1  0  0  0  0
 24 23  1  0  0  0  0
 24 29  1  0  0  0  0
 25 24  2  0  0  0  0
 26 21  2  0  0  0  0
 26 25  1  0  0  0  0
 30 32  1  0  0  0  0
 30 25  1  0  0  0  0
 30 31  1  0  0  0  0
 32 31  1  0  0  0  0
M  END
>  <minimizedAffinity>
-5.16724968

$$$$

 OpenBabel03272508553D

 32 35  0  0  1  0  0  0  0  0999 V2000
   36.3830   28.2700   32.3940 C   0  0  2  0  0  0  0  0  0  0  0  0
   37.0180   28.8440   31.1960 C   0  0  0  0  0  0  0  0  0  0  0  0
   36.0410   27.6410   31.1410 C   0  0  1  0  0  0  0  0  0  0  0  0
   37.0890   27.7920   33.1030 H   0  0  0  0  0  0  0  0  0  0  0  0
   36.6330   29.8270   30.8480 H   0  0  0  0  0  0  0  0  0  0  0  0
   38.0750   28.6510   31.0090 H   0  0  0  0  0  0  0  0  0  0  0  0
   35.0900   27.8870   30.6110 H   0  0  0  0  0  0  0  0  0  0  0  0
   34.7150   30.4260   34.9080 C   0  0  0  0  0  0  0  0  0  0  0  0
   33.3600   30.4200   34.4580 C   0  0  0  0  0  0  0  0  0  0  0  0
   33.0520   29.6480   33.2760 C   0  0  0  0  0  0  0  0  0  0  0  0
   34.0500   28.9700   32.6500 N   0  0  0  0  0  0  0  0  0  0  0  0
   35.3210   29.0240   33.1410 C   0  0  0  0  0  0  0  0  0  0  0  0
   35.6840   29.7410   34.2630 N   0  0  0  0  0  0  0  0  0  0  0  0
   34.8970   31.0160   35.7920 H   0  0  0  0  0  0  0  0  0  0  0  0
   32.5880   30.9540   34.9540 H   0  0  0  0  0  0  0  0  0  0  0  0
   32.0610   29.6090   32.8980 H   0  0  0  0  0  0  0  0  0  0  0  0
   35.9240   25.1790   30.9500 C   0  0  0  0  0  0  0  0  0  0  0  0
   34.6890   25.2280   31.1410 O   0  0  0  0  0  0  0  0  0  0  0  0
   36.7000   26.3930   30.7940 N   0  0  0  0  0  0  0  0  0  0  0  0
   37.6700   26.4190   30.4570 H   0  0  0  0  0  0  0  0  0  0  0  0
   36.6640   23.8880   30.8730 C   0  0  0  0  0  0  0  0  0  0  0  0
   37.9720   23.8980   30.4710 C   0  0  0  0  0  0  0  0  0  0  0  0
   38.6140   22.6700   30.4100 C   0  0  0  0  0  0  0  0  0  0  0  0
   37.9100   21.5390   30.7510 C   0  0  0  0  0  0  0  0  0  0  0  0
   36.5860   21.5380   31.1580 C   0  0  0  0  0  0  0  0  0  0  0  0
   36.0150   22.7490   31.2000 N   0  0  0  0  0  0  0  0  0  0  0  0
   38.5200   24.7910   30.2040 H   0  0  0  0  0  0  0  0  0  0  0  0
   39.6500   22.6090   30.0990 H   0  0  0  0  0  0  0  0  0  0  0  0
   38.4580   20.5900   30.6880 H   0  0  0  0  0  0  0  0  0  0  0  0
   35.8700   20.2950   31.5170 C   0  0  0  0  0  3  0  0  0  0  0  0
   34.5010   20.3610   32.0810 C   0  0  0  0  0  2  0  0  0  0  0  0
   35.6390   20.0020   32.9800 C   0  0  0  0  0  2  0  0  0  0  0  0
  1  4  1  1  0  0  0
  1 12  1  0  0  0  0
  2  1  1  0  0  0  0
  3  7  1  6  0  0  0
  3  2  1  0  0  0  0
  3  1  1  0  0  0  0
  5  2  1  0  0  0  0
  6  2  1  0  0  0  0
  8 14  1  0  0  0  0
  9  8  1  0  0  0  0
  9 15  1  0  0  0  0
 10  9  2  0  0  0  0
 11 12  2  0  0  0  0
 11 10  1  0  0  0  0
 12 13  1  0  0  0  0
 13  8  2  0  0  0  0
 16 10  1  0  0  0  0
 17 18  2  0  0  0  0
 19 17  1  0  0  0  0
 19  3  1  0  0  0  0
 20 19  1  0  0  0  0
 21 17  1  0  0  0  0
 21 26  1  0  0  0  0
 22 21  2  0  0  0  0
 23 22  1  0  0  0  0
 23 24  2  0  0  0  0
 24 25  1  0  0  0  0
 25 26  2  0  0  0  0
 25 30  1  0  0  0  0
 27 22  1  0  0  0  0
 28 23  1  0  0  0  0
 29 24  1  0  0  0  0
 30 31  1  0  0  0  0
 30 32  1  0  0  0  0
 31 32  1  0  0  0  0
M  END
>  <minimizedAffinity>
-5.1000371

$$$$

 OpenBabel03272508553D

 32 35  0  0  1  0  0  0  0  0999 V2000
   36.4390   23.3890   31.1990 C   0  0  2  0  0  0  0  0  0  0  0  0
   37.7910   23.6000   30.6570 C   0  0  0  0  0  0  0  0  0  0  0  0
   37.2690   24.3140   31.9310 C   0  0  1  0  0  0  0  0  0  0  0  0
   35.6200   23.7460   30.5430 H   0  0  0  0  0  0  0  0  0  0  0  0
   38.5220   22.7760   30.8000 H   0  0  0  0  0  0  0  0  0  0  0  0
   37.9150   24.1980   29.7530 H   0  0  0  0  0  0  0  0  0  0  0  0
   37.8150   23.9970   32.8510 H   0  0  0  0  0  0  0  0  0  0  0  0
   35.1850   19.9290   31.6580 C   0  0  0  0  0  0  0  0  0  0  0  0
   35.4180   19.7060   33.0490 C   0  0  0  0  0  0  0  0  0  0  0  0
   36.0090   20.7850   33.8090 C   0  0  0  0  0  0  0  0  0  0  0  0
   36.3140   21.9490   33.1760 N   0  0  0  0  0  0  0  0  0  0  0  0
   36.0610   22.0860   31.8440 C   0  0  0  0  0  0  0  0  0  0  0  0
   35.5000   21.0990   31.0600 N   0  0  0  0  0  0  0  0  0  0  0  0
   34.7440   19.0960   31.1330 H   0  0  0  0  0  0  0  0  0  0  0  0
   35.1770   18.7930   33.5340 H   0  0  0  0  0  0  0  0  0  0  0  0
   36.2040   20.6740   34.8460 H   0  0  0  0  0  0  0  0  0  0  0  0
   36.9780   26.5580   32.9250 C   0  0  0  0  0  0  0  0  0  0  0  0
   37.3170   26.1020   34.0390 O   0  0  0  0  0  0  0  0  0  0  0  0
   37.0540   25.7370   31.7340 N   0  0  0  0  0  0  0  0  0  0  0  0
   36.9680   26.1010   30.7770 H   0  0  0  0  0  0  0  0  0  0  0  0
   36.4800   27.9520   32.7570 C   0  0  0  0  0  0  0  0  0  0  0  0
   36.5040   28.5180   31.5110 C   0  0  0  0  0  0  0  0  0  0  0  0
   36.0370   29.8190   31.4080 C   0  0  0  0  0  0  0  0  0  0  0  0
   35.5850   30.4500   32.5440 C   0  0  0  0  0  0  0  0  0  0  0  0
   35.5640   29.8700   33.8010 C   0  0  0  0  0  0  0  0  0  0  0  0
   36.0250   28.6140   33.8440 N   0  0  0  0  0  0  0  0  0  0  0  0
   36.8610   28.0150   30.6220 H   0  0  0  0  0  0  0  0  0  0  0  0
   36.0290   30.3230   30.4490 H   0  0  0  0  0  0  0  0  0  0  0  0
   35.2250   31.4790   32.4150 H   0  0  0  0  0  0  0  0  0  0  0  0
   35.0680   30.5890   34.9940 C   0  0  0  0  0  3  0  0  0  0  0  0
   35.0410   32.0710   35.0130 C   0  0  0  0  0  2  0  0  0  0  0  0
   36.0650   31.3550   35.8310 C   0  0  0  0  0  2  0  0  0  0  0  0
  1  4  1  6  0  0  0
  1 12  1  0  0  0  0
  1  3  1  0  0  0  0
  2  5  1  0  0  0  0
  2  1  1  0  0  0  0
  2  3  1  0  0  0  0
  3  7  1  1  0  0  0
  6  2  1  0  0  0  0
  8  9  1  0  0  0  0
  9 15  1  0  0  0  0
  9 10  2  0  0  0  0
 10 16  1  0  0  0  0
 11 10  1  0  0  0  0
 12 11  2  0  0  0  0
 13  8  2  0  0  0  0
 13 12  1  0  0  0  0
 14  8  1  0  0  0  0
 17 18  2  0  0  0  0
 19  3  1  0  0  0  0
 19 17  1  0  0  0  0
 20 19  1  0  0  0  0
 21 17  1  0  0  0  0
 21 26  1  0  0  0  0
 22 21  2  0  0  0  0
 23 22  1  0  0  0  0
 23 24  2  0  0  0  0
 24 25  1  0  0  0  0
 25 26  2  0  0  0  0
 25 30  1  0  0  0  0
 27 22  1  0  0  0  0
 28 23  1  0  0  0  0
 29 24  1  0  0  0  0
 30 31  1  0  0  0  0
 30 32  1  0  0  0  0
 31 32  1  0  0  0  0
M  END
>  <minimizedAffinity>
-5.0927639

$$$$

 OpenBabel03272508553D

 32 35  0  0  1  0  0  0  0  0999 V2000
   34.9560   31.8330   36.5000 C   0  0  2  0  0  0  0  0  0  0  0  0
   36.0900   32.5150   35.8550 C   0  0  0  0  0  0  0  0  0  0  0  0
   35.2820   31.3840   35.1690 C   0  0  1  0  0  0  0  0  0  0  0  0
   35.2270   31.2340   37.3920 H   0  0  0  0  0  0  0  0  0  0  0  0
   35.9130   33.5540   35.4990 H   0  0  0  0  0  0  0  0  0  0  0  0
   37.1050   32.2890   36.1850 H   0  0  0  0  0  0  0  0  0  0  0  0
   34.7120   31.7460   34.2800 H   0  0  0  0  0  0  0  0  0  0  0  0
   31.3180   32.5190   36.7230 C   0  0  0  0  0  0  0  0  0  0  0  0
   31.2940   33.8690   37.1860 C   0  0  0  0  0  0  0  0  0  0  0  0
   32.5650   34.5230   37.4060 C   0  0  0  0  0  0  0  0  0  0  0  0
   33.7120   33.8340   37.1680 N   0  0  0  0  0  0  0  0  0  0  0  0
   33.6540   32.5460   36.7260 C   0  0  0  0  0  0  0  0  0  0  0  0
   32.4770   31.8630   36.4950 N   0  0  0  0  0  0  0  0  0  0  0  0
   30.3480   32.0730   36.5740 H   0  0  0  0  0  0  0  0  0  0  0  0
   30.3920   34.3980   37.3700 H   0  0  0  0  0  0  0  0  0  0  0  0
   32.6050   35.5260   37.7500 H   0  0  0  0  0  0  0  0  0  0  0  0
   35.9150   29.4520   33.7620 C   0  0  0  0  0  0  0  0  0  0  0  0
   35.3740   29.9990   32.7760 O   0  0  0  0  0  0  0  0  0  0  0  0
   36.0430   30.1540   35.0230 N   0  0  0  0  0  0  0  0  0  0  0  0
   36.6310   29.8370   35.8030 H   0  0  0  0  0  0  0  0  0  0  0  0
   36.4540   28.0640   33.7020 C   0  0  0  0  0  0  0  0  0  0  0  0
   37.2120   27.6030   34.7440 C   0  0  0  0  0  0  0  0  0  0  0  0
   37.6950   26.3070   34.6370 C   0  0  0  0  0  0  0  0  0  0  0  0
   37.3880   25.5790   33.5120 C   0  0  0  0  0  0  0  0  0  0  0  0
   36.6190   26.0530   32.4620 C   0  0  0  0  0  0  0  0  0  0  0  0
   36.1790   27.3080   32.6170 N   0  0  0  0  0  0  0  0  0  0  0  0
   37.4500   28.1810   35.6260 H   0  0  0  0  0  0  0  0  0  0  0  0
   38.3010   25.8830   35.4280 H   0  0  0  0  0  0  0  0  0  0  0  0
   37.7920   24.5590   33.4700 H   0  0  0  0  0  0  0  0  0  0  0  0
   36.3150   25.2310   31.2710 C   0  0  0  0  0  3  0  0  0  0  0  0
   34.9440   25.2190   30.7060 C   0  0  0  0  0  2  0  0  0  0  0  0
   35.4320   24.0180   31.4490 C   0  0  0  0  0  2  0  0  0  0  0  0
  1 12  1  0  0  0  0
  1  4  1  1  0  0  0
  2  6  1  0  0  0  0
  2  1  1  0  0  0  0
  3  7  1  6  0  0  0
  3  2  1  0  0  0  0
  3  1  1  0  0  0  0
  5  2  1  0  0  0  0
  8  9  1  0  0  0  0
  9 15  1  0  0  0  0
  9 10  2  0  0  0  0
 10 16  1  0  0  0  0
 11 10  1  0  0  0  0
 12 11  2  0  0  0  0
 13  8  2  0  0  0  0
 13 12  1  0  0  0  0
 14  8  1  0  0  0  0
 17 19  1  0  0  0  0
 18 17  2  0  0  0  0
 19  3  1  0  0  0  0
 19 20  1  0  0  0  0
 21 17  1  0  0  0  0
 21 22  1  0  0  0  0
 22 27  1  0  0  0  0
 23 22  2  0  0  0  0
 23 28  1  0  0  0  0
 24 23  1  0  0  0  0
 25 26  1  0  0  0  0
 25 24  2  0  0  0  0
 26 21  2  0  0  0  0
 29 24  1  0  0  0  0
 30 32  1  0  0  0  0
 30 25  1  0  0  0  0
 31 30  1  0  0  0  0
 31 32  1  0  0  0  0
M  END
>  <minimizedAffinity>
-4.90677071

$$$$

 OpenBabel03272508553D

 32 35  0  0  1  0  0  0  0  0999 V2000
   35.9680   26.8980   31.2400 C   0  0  2  0  0  0  0  0  0  0  0  0
   36.6530   27.8880   30.3930 C   0  0  0  0  0  0  0  0  0  0  0  0
   36.8610   27.7980   31.9270 C   0  0  1  0  0  0  0  0  0  0  0  0
   34.8680   27.0250   31.2960 H   0  0  0  0  0  0  0  0  0  0  0  0
   37.4750   27.5100   29.7470 H   0  0  0  0  0  0  0  0  0  0  0  0
   36.0900   28.7370   30.0040 H   0  0  0  0  0  0  0  0  0  0  0  0
   37.8980   27.4880   32.2000 H   0  0  0  0  0  0  0  0  0  0  0  0
   37.9060   23.7740   30.7480 C   0  0  0  0  0  0  0  0  0  0  0  0
   36.9450   22.7700   31.0760 C   0  0  0  0  0  0  0  0  0  0  0  0
   35.6220   23.2090   31.4590 C   0  0  0  0  0  0  0  0  0  0  0  0
   35.3520   24.5410   31.4920 N   0  0  0  0  0  0  0  0  0  0  0  0
   36.3220   25.4410   31.1650 C   0  0  0  0  0  0  0  0  0  0  0  0
   37.6040   25.0910   30.7910 N   0  0  0  0  0  0  0  0  0  0  0  0
   38.8780   23.4000   30.4700 H   0  0  0  0  0  0  0  0  0  0  0  0
   37.1670   21.7320   31.0480 H   0  0  0  0  0  0  0  0  0  0  0  0
   34.8700   22.5040   31.7120 H   0  0  0  0  0  0  0  0  0  0  0  0
   36.1870   28.8040   34.0820 C   0  0  0  0  0  0  0  0  0  0  0  0
   36.7800   27.8850   34.6900 O   0  0  0  0  0  0  0  0  0  0  0  0
   36.2870   28.9260   32.6420 N   0  0  0  0  0  0  0  0  0  0  0  0
   35.9820   29.7500   32.1110 H   0  0  0  0  0  0  0  0  0  0  0  0
   35.3530   29.8140   34.7920 C   0  0  0  0  0  0  0  0  0  0  0  0
   35.9720   30.8650   35.4130 C   0  0  0  0  0  0  0  0  0  0  0  0
   35.1520   31.7740   36.0640 C   0  0  0  0  0  0  0  0  0  0  0  0
   33.7920   31.5690   36.0460 C   0  0  0  0  0  0  0  0  0  0  0  0
   33.1740   30.5030   35.4140 C   0  0  0  0  0  0  0  0  0  0  0  0
   34.0110   29.6560   34.8010 N   0  0  0  0  0  0  0  0  0  0  0  0
   37.0420   31.0210   35.4230 H   0  0  0  0  0  0  0  0  0  0  0  0
   35.5800   32.6280   36.5750 H   0  0  0  0  0  0  0  0  0  0  0  0
   33.1820   32.3130   36.5740 H   0  0  0  0  0  0  0  0  0  0  0  0
   31.7060   30.3240   35.4200 C   0  0  0  0  0  3  0  0  0  0  0  0
   30.8810   30.9800   36.4630 C   0  0  0  0  0  2  0  0  0  0  0  0
   31.0930   29.5030   36.5300 C   0  0  0  0  0  2  0  0  0  0  0  0
  1  4  1  1  0  0  0
  1  3  1  0  0  0  0
  2  1  1  0  0  0  0
  2  3  1  0  0  0  0
  3  7  1  1  0  0  0
  3 19  1  0  0  0  0
  5  2  1  0  0  0  0
  6  2  1  0  0  0  0
  8 13  2  0  0  0  0
  8  9  1  0  0  0  0
  9 10  2  0  0  0  0
 10 11  1  0  0  0  0
 10 16  1  0  0  0  0
 12  1  1  0  0  0  0
 12 11  2  0  0  0  0
 13 12  1  0  0  0  0
 14  8  1  0  0  0  0
 15  9  1  0  0  0  0
 17 18  2  0  0  0  0
 17 21  1  0  0  0  0
 19 17  1  0  0  0  0
 20 19  1  0  0  0  0
 21 26  2  0  0  0  0
 21 22  1  0  0  0  0
 22 27  1  0  0  0  0
 22 23  2  0  0  0  0
 23 28  1  0  0  0  0
 24 23  1  0  0  0  0
 24 29  1  0  0  0  0
 25 30  1  0  0  0  0
 25 24  2  0  0  0  0
 26 25  1  0  0  0  0
 30 31  1  0  0  0  0
 30 32  1  0  0  0  0
 31 32  1  0  0  0  0
M  END
>  <minimizedAffinity>
-4.86226082

$$$$

 OpenBabel03272508553D

 32 35  0  0  1  0  0  0  0  0999 V2000
   38.3520   24.1300   35.0840 C   0  0  2  0  0  0  0  0  0  0  0  0
   37.9060   23.5730   33.7960 C   0  0  0  0  0  0  0  0  0  0  0  0
   38.5100   24.9940   33.9410 C   0  0  1  0  0  0  0  0  0  0  0  0
   37.5380   24.2920   35.8200 H   0  0  0  0  0  0  0  0  0  0  0  0
   38.5520   22.7920   33.3390 H   0  0  0  0  0  0  0  0  0  0  0  0
   36.8380   23.4920   33.5920 H   0  0  0  0  0  0  0  0  0  0  0  0
   39.4930   25.0950   33.4230 H   0  0  0  0  0  0  0  0  0  0  0  0
   40.5440   22.4200   37.5380 C   0  0  0  0  0  0  0  0  0  0  0  0
   41.8400   22.6210   36.9750 C   0  0  0  0  0  0  0  0  0  0  0  0
   41.9240   23.3650   35.7380 C   0  0  0  0  0  0  0  0  0  0  0  0
   40.7810   23.8340   35.1710 N   0  0  0  0  0  0  0  0  0  0  0  0
   39.5790   23.6020   35.7700 C   0  0  0  0  0  0  0  0  0  0  0  0
   39.4270   22.9010   36.9490 N   0  0  0  0  0  0  0  0  0  0  0  0
   40.5320   21.8600   38.4600 H   0  0  0  0  0  0  0  0  0  0  0  0
   42.7270   22.2490   37.4250 H   0  0  0  0  0  0  0  0  0  0  0  0
   42.8630   23.5430   35.2760 H   0  0  0  0  0  0  0  0  0  0  0  0
   37.6650   26.8350   32.5230 C   0  0  0  0  0  0  0  0  0  0  0  0
   38.4290   26.4700   31.6030 O   0  0  0  0  0  0  0  0  0  0  0  0
   37.5310   26.0480   33.7320 N   0  0  0  0  0  0  0  0  0  0  0  0
   36.7950   26.1910   34.4350 H   0  0  0  0  0  0  0  0  0  0  0  0
   36.8570   28.0840   32.4340 C   0  0  0  0  0  0  0  0  0  0  0  0
   36.6610   28.6600   31.2080 C   0  0  0  0  0  0  0  0  0  0  0  0
   35.9080   29.8240   31.1800 C   0  0  0  0  0  0  0  0  0  0  0  0
   35.4120   30.3190   32.3640 C   0  0  0  0  0  0  0  0  0  0  0  0
   35.6140   29.7290   33.6000 C   0  0  0  0  0  0  0  0  0  0  0  0
   36.3470   28.6080   33.5710 N   0  0  0  0  0  0  0  0  0  0  0  0
   37.0540   28.2650   30.2810 H   0  0  0  0  0  0  0  0  0  0  0  0
   35.7170   30.3290   30.2410 H   0  0  0  0  0  0  0  0  0  0  0  0
   34.8220   31.2420   32.2940 H   0  0  0  0  0  0  0  0  0  0  0  0
   35.0590   30.2980   34.8470 C   0  0  0  0  0  3  0  0  0  0  0  0
   34.7700   31.7490   34.9390 C   0  0  0  0  0  2  0  0  0  0  0  0
   35.9460   31.1970   35.6770 C   0  0  0  0  0  2  0  0  0  0  0  0
  1 12  1  0  0  0  0
  1  4  1  1  0  0  0
  2  3  1  0  0  0  0
  2  1  1  0  0  0  0
  3  7  1  6  0  0  0
  3  1  1  0  0  0  0
  5  2  1  0  0  0  0
  6  2  1  0  0  0  0
  8 14  1  0  0  0  0
  9 15  1  0  0  0  0
  9  8  1  0  0  0  0
 10  9  2  0  0  0  0
 11 10  1  0  0  0  0
 11 12  2  0  0  0  0
 12 13  1  0  0  0  0
 13  8  2  0  0  0  0
 16 10  1  0  0  0  0
 17 19  1  0  0  0  0
 18 17  2  0  0  0  0
 19  3  1  0  0  0  0
 19 20  1  0  0  0  0
 21 17  1  0  0  0  0
 21 26  1  0  0  0  0
 22 21  2  0  0  0  0
 23 22  1  0  0  0  0
 23 24  2  0  0  0  0
 24 25  1  0  0  0  0
 25 30  1  0  0  0  0
 26 25  2  0  0  0  0
 27 22  1  0  0  0  0
 28 23  1  0  0  0  0
 29 24  1  0  0  0  0
 30 31  1  0  0  0  0
 30 32  1  0  0  0  0
 31 32  1  0  0  0  0
M  END
>  <minimizedAffinity>
-4.83942556

$$$$

 OpenBabel03272508553D

 32 35  0  0  1  0  0  0  0  0999 V2000
   34.4870   29.5000   34.7800 C   0  0  2  0  0  0  0  0  0  0  0  0
   35.5480   30.5040   34.5960 C   0  0  0  0  0  0  0  0  0  0  0  0
   35.5620   29.1200   33.8980 C   0  0  1  0  0  0  0  0  0  0  0  0
   34.4140   29.0920   35.8080 H   0  0  0  0  0  0  0  0  0  0  0  0
   35.2980   31.3870   33.9680 H   0  0  0  0  0  0  0  0  0  0  0  0
   36.2640   30.6770   35.4010 H   0  0  0  0  0  0  0  0  0  0  0  0
   35.4570   29.1990   32.7900 H   0  0  0  0  0  0  0  0  0  0  0  0
   31.7530   30.6100   32.5330 C   0  0  0  0  0  0  0  0  0  0  0  0
   30.6010   30.0450   33.1600 C   0  0  0  0  0  0  0  0  0  0  0  0
   30.8040   29.2840   34.3720 C   0  0  0  0  0  0  0  0  0  0  0  0
   32.0650   29.1410   34.8580 N   0  0  0  0  0  0  0  0  0  0  0  0
   33.1160   29.7120   34.2040 C   0  0  0  0  0  0  0  0  0  0  0  0
   32.9930   30.4490   33.0440 N   0  0  0  0  0  0  0  0  0  0  0  0
   31.5520   31.1670   31.6320 H   0  0  0  0  0  0  0  0  0  0  0  0
   29.6190   30.1620   32.7710 H   0  0  0  0  0  0  0  0  0  0  0  0
   29.9830   28.8420   34.8790 H   0  0  0  0  0  0  0  0  0  0  0  0
   36.9120   27.0670   33.6200 C   0  0  0  0  0  0  0  0  0  0  0  0
   36.4900   26.9550   32.4480 O   0  0  0  0  0  0  0  0  0  0  0  0
   36.5970   28.2380   34.4130 N   0  0  0  0  0  0  0  0  0  0  0  0
   37.0560   28.4740   35.3010 H   0  0  0  0  0  0  0  0  0  0  0  0
   37.7530   26.0190   34.2630 C   0  0  0  0  0  0  0  0  0  0  0  0
   38.6870   25.3640   33.5070 C   0  0  0  0  0  0  0  0  0  0  0  0
   39.4390   24.3920   34.1510 C   0  0  0  0  0  0  0  0  0  0  0  0
   39.2060   24.1530   35.4850 C   0  0  0  0  0  0  0  0  0  0  0  0
   38.2590   24.8220   36.2430 C   0  0  0  0  0  0  0  0  0  0  0  0
   37.5620   25.7480   35.5730 N   0  0  0  0  0  0  0  0  0  0  0  0
   38.8650   25.5570   32.4580 H   0  0  0  0  0  0  0  0  0  0  0  0
   40.1950   23.8380   33.6090 H   0  0  0  0  0  0  0  0  0  0  0  0
   39.8240   23.3760   35.9530 H   0  0  0  0  0  0  0  0  0  0  0  0
   38.0450   24.5300   37.6760 C   0  0  0  0  0  3  0  0  0  0  0  0
   38.8310   23.4650   38.3450 C   0  0  0  0  0  2  0  0  0  0  0  0
   37.3870   23.2210   38.0470 C   0  0  0  0  0  2  0  0  0  0  0  0
  1  4  1  1  0  0  0
  2  1  1  0  0  0  0
  2  6  1  0  0  0  0
  3  7  1  6  0  0  0
  3 19  1  0  0  0  0
  3  2  1  0  0  0  0
  3  1  1  0  0  0  0
  5  2  1  0  0  0  0
  8 13  2  0  0  0  0
  8  9  1  0  0  0  0
  9 10  2  0  0  0  0
 10 11  1  0  0  0  0
 10 16  1  0  0  0  0
 12  1  1  0  0  0  0
 12 11  2  0  0  0  0
 13 12  1  0  0  0  0
 14  8  1  0  0  0  0
 15  9  1  0  0  0  0
 17 21  1  0  0  0  0
 17 19  1  0  0  0  0
 18 17  2  0  0  0  0
 19 20  1  0  0  0  0
 21 26  1  0  0  0  0
 22 23  1  0  0  0  0
 22 21  2  0  0  0  0
 23 24  2  0  0  0  0
 24 29  1  0  0  0  0
 24 25  1  0  0  0  0
 25 30  1  0  0  0  0
 26 25  2  0  0  0  0
 27 22  1  0  0  0  0
 28 23  1  0  0  0  0
 30 32  1  0  0  0  0
 30 31  1  0  0  0  0
 32 31  1  0  0  0  0
M  END
>  <minimizedAffinity>
-4.82894421

$$$$

 OpenBabel03272508553D

 32 35  0  0  1  0  0  0  0  0999 V2000
   35.8790   26.7040   31.1330 C   0  0  2  0  0  0  0  0  0  0  0  0
   36.6800   27.7510   30.4790 C   0  0  0  0  0  0  0  0  0  0  0  0
   36.5560   27.6190   32.0190 C   0  0  1  0  0  0  0  0  0  0  0  0
   34.7880   26.7800   30.9520 H   0  0  0  0  0  0  0  0  0  0  0  0
   37.6400   27.4320   30.0180 H   0  0  0  0  0  0  0  0  0  0  0  0
   36.1720   28.5880   29.9960 H   0  0  0  0  0  0  0  0  0  0  0  0
   37.5240   27.3470   32.5030 H   0  0  0  0  0  0  0  0  0  0  0  0
   37.9880   23.6800   30.7330 C   0  0  0  0  0  0  0  0  0  0  0  0
   37.0870   22.6340   31.0970 C   0  0  0  0  0  0  0  0  0  0  0  0
   35.7420   23.0100   31.4730 C   0  0  0  0  0  0  0  0  0  0  0  0
   35.3980   24.3250   31.4650 N   0  0  0  0  0  0  0  0  0  0  0  0
   36.3150   25.2670   31.1040 C   0  0  0  0  0  0  0  0  0  0  0  0
   37.6130   24.9780   30.7340 N   0  0  0  0  0  0  0  0  0  0  0  0
   38.9780   23.3510   30.4610 H   0  0  0  0  0  0  0  0  0  0  0  0
   37.3660   21.6090   31.1020 H   0  0  0  0  0  0  0  0  0  0  0  0
   35.0320   22.2740   31.7530 H   0  0  0  0  0  0  0  0  0  0  0  0
   35.8440   28.8160   34.0610 C   0  0  0  0  0  0  0  0  0  0  0  0
   36.6950   28.1830   34.7230 O   0  0  0  0  0  0  0  0  0  0  0  0
   35.7860   28.6960   32.6180 N   0  0  0  0  0  0  0  0  0  0  0  0
   35.2410   29.3180   32.0090 H   0  0  0  0  0  0  0  0  0  0  0  0
   34.8500   29.7200   34.7060 C   0  0  0  0  0  0  0  0  0  0  0  0
   33.5160   29.4790   34.5170 C   0  0  0  0  0  0  0  0  0  0  0  0
   32.6320   30.3520   35.1330 C   0  0  0  0  0  0  0  0  0  0  0  0
   33.1410   31.3880   35.8820 C   0  0  0  0  0  0  0  0  0  0  0  0
   34.4930   31.6240   36.0680 C   0  0  0  0  0  0  0  0  0  0  0  0
   35.3010   30.7520   35.4530 N   0  0  0  0  0  0  0  0  0  0  0  0
   33.1230   28.6620   33.9270 H   0  0  0  0  0  0  0  0  0  0  0  0
   31.5630   30.2160   35.0230 H   0  0  0  0  0  0  0  0  0  0  0  0
   32.4050   32.0540   36.3510 H   0  0  0  0  0  0  0  0  0  0  0  0
   34.9920   32.7520   36.8840 C   0  0  0  0  0  3  0  0  0  0  0  0
   34.1390   33.9430   37.1100 C   0  0  0  0  0  2  0  0  0  0  0  0
   35.3070   34.0530   36.1850 C   0  0  0  0  0  2  0  0  0  0  0  0
  1  4  1  6  0  0  0
  1  3  1  0  0  0  0
  2  1  1  0  0  0  0
  2  3  1  0  0  0  0
  3  7  1  1  0  0  0
  3 19  1  0  0  0  0
  5  2  1  0  0  0  0
  6  2  1  0  0  0  0
  8 13  2  0  0  0  0
  8  9  1  0  0  0  0
  9 15  1  0  0  0  0
  9 10  2  0  0  0  0
 10 16  1  0  0  0  0
 11 10  1  0  0  0  0
 12  1  1  0  0  0  0
 12 11  2  0  0  0  0
 13 12  1  0  0  0  0
 14  8  1  0  0  0  0
 17 21  1  0  0  0  0
 17 18  2  0  0  0  0
 19 17  1  0  0  0  0
 20 19  1  0  0  0  0
 21 26  1  0  0  0  0
 22 21  2  0  0  0  0
 22 23  1  0  0  0  0
 23 24  2  0  0  0  0
 24 25  1  0  0  0  0
 24 29  1  0  0  0  0
 25 30  1  0  0  0  0
 26 25  2  0  0  0  0
 27 22  1  0  0  0  0
 28 23  1  0  0  0  0
 30 31  1  0  0  0  0
 32 30  1  0  0  0  0
 32 31  1  0  0  0  0
M  END
>  <minimizedAffinity>
-4.76233912

$$$$

 OpenBabel03272508553D

 32 35  0  0  1  0  0  0  0  0999 V2000
   37.8770   27.8230   32.0970 C   0  0  2  0  0  0  0  0  0  0  0  0
   37.2930   26.5950   32.6620 C   0  0  0  0  0  0  0  0  0  0  0  0
   36.4740   27.8910   32.4280 C   0  0  1  0  0  0  0  0  0  0  0  0
   38.6430   28.3040   32.7380 H   0  0  0  0  0  0  0  0  0  0  0  0
   37.1210   25.7520   31.9580 H   0  0  0  0  0  0  0  0  0  0  0  0
   37.5260   26.3180   33.6910 H   0  0  0  0  0  0  0  0  0  0  0  0
   35.6890   27.7640   31.6460 H   0  0  0  0  0  0  0  0  0  0  0  0
   39.6380   27.1260   28.9090 C   0  0  0  0  0  0  0  0  0  0  0  0
   38.9800   28.0120   28.0020 C   0  0  0  0  0  0  0  0  0  0  0  0
   37.9270   28.8490   28.5310 C   0  0  0  0  0  0  0  0  0  0  0  0
   37.6110   28.7600   29.8500 N   0  0  0  0  0  0  0  0  0  0  0  0
   38.2860   27.8890   30.6540 C   0  0  0  0  0  0  0  0  0  0  0  0
   39.2990   27.0620   30.2150 N   0  0  0  0  0  0  0  0  0  0  0  0
   40.4140   26.5210   28.4690 H   0  0  0  0  0  0  0  0  0  0  0  0
   39.2340   28.0730   26.9730 H   0  0  0  0  0  0  0  0  0  0  0  0
   37.4050   29.5260   27.9010 H   0  0  0  0  0  0  0  0  0  0  0  0
   34.9580   29.4510   33.6020 C   0  0  0  0  0  0  0  0  0  0  0  0
   34.2140   29.4750   32.5980 O   0  0  0  0  0  0  0  0  0  0  0  0
   36.0890   28.5480   33.6660 N   0  0  0  0  0  0  0  0  0  0  0  0
   36.6220   28.3500   34.5220 H   0  0  0  0  0  0  0  0  0  0  0  0
   34.7320   30.3370   34.7780 C   0  0  0  0  0  0  0  0  0  0  0  0
   35.7790   31.0720   35.2650 C   0  0  0  0  0  0  0  0  0  0  0  0
   35.5180   31.8760   36.3640 C   0  0  0  0  0  0  0  0  0  0  0  0
   34.2470   31.8860   36.8880 C   0  0  0  0  0  0  0  0  0  0  0  0
   33.1920   31.1400   36.3890 C   0  0  0  0  0  0  0  0  0  0  0  0
   33.4980   30.3820   35.3280 N   0  0  0  0  0  0  0  0  0  0  0  0
   36.7770   31.0590   34.8470 H   0  0  0  0  0  0  0  0  0  0  0  0
   36.3050   32.4820   36.7970 H   0  0  0  0  0  0  0  0  0  0  0  0
   34.0860   32.5370   37.7580 H   0  0  0  0  0  0  0  0  0  0  0  0
   31.8400   31.1840   36.9870 C   0  0  0  0  0  3  0  0  0  0  0  0
   30.6790   30.6440   36.2410 C   0  0  0  0  0  2  0  0  0  0  0  0
   30.8240   32.1250   36.3820 C   0  0  0  0  0  2  0  0  0  0  0  0
  1  3  1  0  0  0  0
  1  2  1  0  0  0  0
  1  4  1  1  0  0  0
  2  6  1  0  0  0  0
  3  7  1  6  0  0  0
  3  2  1  0  0  0  0
  3 19  1  0  0  0  0
  5  2  1  0  0  0  0
  8 13  1  0  0  0  0
  9 10  1  0  0  0  0
  9  8  2  0  0  0  0
 10 11  2  0  0  0  0
 11 12  1  0  0  0  0
 12  1  1  0  0  0  0
 13 12  2  0  0  0  0
 14  8  1  0  0  0  0
 15  9  1  0  0  0  0
 16 10  1  0  0  0  0
 17 19  1  0  0  0  0
 17 21  1  0  0  0  0
 18 17  2  0  0  0  0
 19 20  1  0  0  0  0
 21 22  2  0  0  0  0
 21 26  1  0  0  0  0
 22 23  1  0  0  0  0
 23 28  1  0  0  0  0
 23 24  2  0  0  0  0
 24 29  1  0  0  0  0
 25 24  1  0  0  0  0
 25 30  1  0  0  0  0
 26 25  2  0  0  0  0
 27 22  1  0  0  0  0
 31 32  1  0  0  0  0
 31 30  1  0  0  0  0
 32 30  1  0  0  0  0
M  END
>  <minimizedAffinity>
-4.75334835

$$$$
