
 OpenBabel03272510273D

 39 43  0  0  1  0  0  0  0  0999 V2000
   35.8710   30.1700   46.9710 C   0  0  0  0  0  0  0  0  0  0  0  0
   36.8820   30.6260   47.8150 C   0  0  0  0  0  0  0  0  0  0  0  0
   37.9330   31.3980   47.3260 C   0  0  0  0  0  0  0  0  0  0  0  0
   37.9170   31.6860   45.9650 C   0  0  0  0  0  0  0  0  0  0  0  0
   38.8220   32.4180   45.2530 N   0  0  0  0  0  0  0  0  0  0  0  0
   38.3900   32.4250   43.9820 C   0  0  0  0  0  0  0  0  0  0  0  0
   37.2710   31.7340   43.8880 N   0  0  0  0  0  0  0  0  0  0  0  0
   36.9360   31.2550   45.0970 C   0  0  0  0  0  0  0  0  0  0  0  0
   35.8920   30.4800   45.6210 C   0  0  0  0  0  0  0  0  0  0  0  0
   35.0450   29.5740   47.3050 H   0  0  0  0  0  0  0  0  0  0  0  0
   38.7050   31.7430   47.9830 H   0  0  0  0  0  0  0  0  0  0  0  0
   39.6660   32.8710   45.6300 H   0  0  0  0  0  0  0  0  0  0  0  0
   35.1200   30.1370   44.9450 H   0  0  0  0  0  0  0  0  0  0  0  0
   37.5690   30.1250   51.4740 C   0  0  0  0  0  0  0  0  0  0  0  0
   37.7730   30.5250   50.1630 C   0  0  0  0  0  0  0  0  0  0  0  0
   36.7930   30.2630   49.2130 C   0  0  0  0  0  0  0  0  0  0  0  0
   35.6690   29.6150   49.6400 N   0  0  0  0  0  0  0  0  0  0  0  0
   35.4790   29.2310   50.9160 C   0  0  0  0  0  0  0  0  0  0  0  0
   36.4080   29.4810   51.8110 N   0  0  0  0  0  0  0  0  0  0  0  0
   38.3250   30.3240   52.2240 H   0  0  0  0  0  0  0  0  0  0  0  0
   38.6700   31.0400   49.8330 H   0  0  0  0  0  0  0  0  0  0  0  0
   34.5580   28.7130   51.2050 H   0  0  0  0  0  0  0  0  0  0  0  0
   39.0800   33.0900   42.9660 O   0  0  0  0  0  0  0  0  0  0  0  0
   39.0170   30.9470   42.1420 N   0  0  0  0  0  0  0  0  0  0  0  0
   39.4300   32.2930   41.8460 C   0  0  1  0  0  0  0  0  0  0  0  0
   38.7830   32.7770   40.6340 C   0  0  0  0  0  0  0  0  0  0  0  0
   39.1900   31.9720   39.5570 O   0  0  0  0  0  0  0  0  0  0  0  0
   38.9820   30.6330   39.7150 C   0  0  0  0  0  0  0  0  0  0  0  0
   39.4640   30.1230   41.0570 C   0  0  1  0  0  0  0  0  0  0  0  0
   38.1290   30.7580   42.5350 H   0  0  0  0  0  0  0  0  0  0  0  0
   40.5250   32.2980   41.7310 H   0  0  0  0  0  0  0  0  0  0  0  0
   37.7380   32.8660   40.4930 H   0  0  0  0  0  0  0  0  0  0  0  0
   39.2290   33.7870   40.3870 H   0  0  0  0  0  0  0  0  0  0  0  0
   39.5970   30.1100   38.9600 H   0  0  0  0  0  0  0  0  0  0  0  0
   37.8890   30.4210   39.6040 H   0  0  0  0  0  0  0  0  0  0  0  0
   39.0480   29.1120   41.1990 H   0  0  0  0  0  0  0  0  0  0  0  0
   40.9690   30.0050   41.0220 C   0  0  0  0  0  3  0  0  0  0  0  0
   41.6560   29.1860   42.0650 C   0  0  0  0  0  2  0  0  0  0  0  0
   41.5520   28.6450   40.6860 C   0  0  0  0  0  2  0  0  0  0  0  0
  1 10  1  0  0  0  0
  1  2  1  0  0  0  0
  2 16  1  0  0  0  0
  3  2  2  0  0  0  0
  3 11  1  0  0  0  0
  4  3  1  0  0  0  0
  5 12  1  0  0  0  0
  5  4  1  0  0  0  0
  6  5  1  0  0  0  0
  7  6  2  0  0  0  0
  7  8  1  0  0  0  0
  8  9  1  0  0  0  0
  8  4  2  0  0  0  0
  9  1  2  0  0  0  0
 13  9  1  0  0  0  0
 14 19  1  0  0  0  0
 14 20  1  0  0  0  0
 15 14  2  0  0  0  0
 16 17  2  0  0  0  0
 16 15  1  0  0  0  0
 17 18  1  0  0  0  0
 18 22  1  0  0  0  0
 18 19  2  0  0  0  0
 21 15  1  0  0  0  0
 23  6  1  0  0  0  0
 24 30  1  0  0  0  0
 25 31  1  6  0  0  0
 25 24  1  0  0  0  0
 25 23  1  0  0  0  0
 26 25  1  0  0  0  0
 27 28  1  0  0  0  0
 27 26  1  0  0  0  0
 28 29  1  0  0  0  0
 29 36  1  1  0  0  0
 29 24  1  0  0  0  0
 32 26  1  0  0  0  0
 33 26  1  0  0  0  0
 34 28  1  0  0  0  0
 35 28  1  0  0  0  0
 37 29  1  0  0  0  0
 37 38  1  0  0  0  0
 39 37  1  0  0  0  0
 39 38  1  0  0  0  0
M  END
>  <minimizedAffinity>
-5.68708563

>  <minimizedRMSD>
1.73683429

$$$$
