
 OpenBabel03262520173D

 12 13  0  0  0  0  0  0  0  0999 V2000
   37.3290   30.1730   51.4390 C   0  0  0  0  0  0  0  0  0  0  0  0
   38.0870   30.6930   50.3720 C   0  0  0  0  0  0  0  0  0  0  0  0
   37.6700   30.4000   49.0600 C   0  0  0  0  0  0  0  0  0  0  0  0
   36.5530   29.6280   48.9150 N   0  0  0  0  0  0  0  0  0  0  0  0
   35.8550   29.1490   49.9660 C   0  0  0  0  0  0  0  0  0  0  0  0
   36.2440   29.4230   51.2350 N   0  0  0  0  0  0  0  0  0  0  0  0
   37.6400   30.3920   52.4550 H   0  0  0  0  0  0  0  0  0  0  0  0
   38.9750   31.3070   50.5690 H   0  0  0  0  0  0  0  0  0  0  0  0
   34.9900   28.5510   49.6450 H   0  0  0  0  0  0  0  0  0  0  0  0
   38.4170   30.9120   47.9100 C   0  0  0  0  0  3  0  0  0  0  0  0
   37.7860   31.5160   46.7380 C   0  0  0  0  0  2  0  0  0  0  0  0
   38.3830   32.4420   47.7960 C   0  0  0  0  0  2  0  0  0  0  0  0
  1  7  1  0  0  0  0
  2  8  1  0  0  0  0
  2  1  2  0  0  0  0
  3  2  1  0  0  0  0
  4  3  2  0  0  0  0
  4  5  1  0  0  0  0
  5  6  2  0  0  0  0
  6  1  1  0  0  0  0
  9  5  1  0  0  0  0
 10  3  1  0  0  0  0
 11 12  1  0  0  0  0
 11 10  1  0  0  0  0
 12 10  1  0  0  0  0
M  END
>  <minimizedAffinity>
-3.90150118

>  <minimizedRMSD>
0.332752705

$$$$
