
 OpenBabel03272509133D

 34 37  0  0  1  0  0  0  0  0999 V2000
   35.1450   29.9720   46.6260 C   0  0  0  0  0  0  0  0  0  0  0  0
   36.4280   30.5840   46.6910 C   0  0  0  0  0  0  0  0  0  0  0  0
   37.1300   30.7120   45.4810 C   0  0  0  0  0  0  0  0  0  0  0  0
   36.5560   30.2540   44.3370 N   0  0  0  0  0  0  0  0  0  0  0  0
   35.3390   29.6810   44.3240 C   0  0  0  0  0  0  0  0  0  0  0  0
   34.6410   29.5430   45.4640 N   0  0  0  0  0  0  0  0  0  0  0  0
   34.5460   29.8350   47.4900 H   0  0  0  0  0  0  0  0  0  0  0  0
   34.9460   29.3390   43.3720 H   0  0  0  0  0  0  0  0  0  0  0  0
   36.8530   30.9950   47.9790 N   0  0  0  0  0  0  0  0  0  0  0  0
   37.3360   32.2200   48.6240 C   0  0  0  0  0  0  0  0  0  0  0  0
   38.5870   31.7280   49.3370 C   0  0  0  0  0  0  0  0  0  0  0  0
   38.2560   30.3000   49.7390 C   0  0  0  0  0  0  0  0  0  0  0  0
   36.8890   30.0750   49.1020 C   0  0  1  0  0  0  0  0  0  0  0  0
   37.6940   32.9710   47.8880 H   0  0  0  0  0  0  0  0  0  0  0  0
   36.6120   32.7150   49.2550 H   0  0  0  0  0  0  0  0  0  0  0  0
   39.4150   31.6840   48.5960 H   0  0  0  0  0  0  0  0  0  0  0  0
   38.8230   32.2970   50.2460 H   0  0  0  0  0  0  0  0  0  0  0  0
   38.2070   30.1520   50.8230 H   0  0  0  0  0  0  0  0  0  0  0  0
   39.0050   29.5850   49.3220 H   0  0  0  0  0  0  0  0  0  0  0  0
   36.7790   29.0150   48.8090 H   0  0  0  0  0  0  0  0  0  0  0  0
   35.8750   30.3530   50.1580 C   0  0  0  0  0  3  0  0  0  0  0  0
   35.1080   29.0920   50.5800 C   0  0  0  0  0  2  0  0  0  0  0  0
   34.4080   30.2270   49.9020 C   0  0  0  0  0  2  0  0  0  0  0  0
   38.4300   31.3120   45.4230 C   0  0  0  0  0  0  0  0  0  0  0  0
   38.5400   32.6160   45.0220 C   0  0  0  0  0  0  0  0  0  0  0  0
   39.7390   33.2910   44.9300 C   0  0  0  0  0  0  0  0  0  0  0  0
   40.8880   32.5650   45.2760 C   0  0  0  0  0  0  0  0  0  0  0  0
   40.8620   31.2370   45.6930 C   0  0  0  0  0  0  0  0  0  0  0  0
   39.5950   30.6430   45.7530 C   0  0  0  0  0  0  0  0  0  0  0  0
   37.6450   33.1900   44.7500 H   0  0  0  0  0  0  0  0  0  0  0  0
   39.8130   34.3180   44.6130 H   0  0  0  0  0  0  0  0  0  0  0  0
   41.8430   33.0700   45.2140 H   0  0  0  0  0  0  0  0  0  0  0  0
   41.7640   30.7180   45.9490 H   0  0  0  0  0  0  0  0  0  0  0  0
   39.5040   29.6160   46.0680 H   0  0  0  0  0  0  0  0  0  0  0  0
  1  2  1  0  0  0  0
  1  7  1  0  0  0  0
  2  9  1  0  0  0  0
  3  2  2  0  0  0  0
  4  3  1  0  0  0  0
  5  4  2  0  0  0  0
  5  6  1  0  0  0  0
  6  1  2  0  0  0  0
  8  5  1  0  0  0  0
  9 10  1  0  0  0  0
  9 13  1  0  0  0  0
 10 15  1  0  0  0  0
 10 11  1  0  0  0  0
 11 12  1  0  0  0  0
 11 17  1  0  0  0  0
 12 18  1  0  0  0  0
 13 20  1  6  0  0  0
 13 12  1  0  0  0  0
 13 21  1  0  0  0  0
 14 10  1  0  0  0  0
 16 11  1  0  0  0  0
 19 12  1  0  0  0  0
 21 22  1  0  0  0  0
 23 21  1  0  0  0  0
 23 22  1  0  0  0  0
 24  3  1  0  0  0  0
 24 29  1  0  0  0  0
 25 24  2  0  0  0  0
 26 25  1  0  0  0  0
 26 27  2  0  0  0  0
 27 28  1  0  0  0  0
 28 29  2  0  0  0  0
 28 33  1  0  0  0  0
 29 34  1  0  0  0  0
 30 25  1  0  0  0  0
 31 26  1  0  0  0  0
 32 27  1  0  0  0  0
M  END
>  <minimizedAffinity>
-5.99636889

>  <minimizedRMSD>
1.27763033

$$$$
