
 OpenBabel03272510023D

 15 16  0  0  0  0  0  0  0  0999 V2000
   38.2630   31.3200   50.2650 C   0  0  0  0  0  0  0  0  0  0  0  0
   38.5240   31.3580   48.8750 C   0  0  0  0  0  0  0  0  0  0  0  0
   37.6360   30.7130   48.0280 C   0  0  0  0  0  0  0  0  0  0  0  0
   36.5660   30.0840   48.5880 N   0  0  0  0  0  0  0  0  0  0  0  0
   36.3410   30.0640   49.9160 C   0  0  0  0  0  0  0  0  0  0  0  0
   37.1870   30.6800   50.7430 N   0  0  0  0  0  0  0  0  0  0  0  0
   38.9640   31.8290   50.9280 H   0  0  0  0  0  0  0  0  0  0  0  0
   39.3720   31.8590   48.4660 H   0  0  0  0  0  0  0  0  0  0  0  0
   35.1440   29.3460   50.4020 C   0  0  0  0  0  0  0  0  0  0  0  0
   35.1850   29.0980   51.7700 F   0  0  0  0  0  0  0  0  0  0  0  0
   33.9880   30.1030   50.1870 F   0  0  0  0  0  0  0  0  0  0  0  0
   34.9270   28.1420   49.7690 F   0  0  0  0  0  0  0  0  0  0  0  0
   37.8000   30.6810   46.5490 C   0  0  0  0  0  0  0  0  0  0  0  0
   38.0440   32.0220   45.8460 C   0  0  0  0  0  0  0  0  0  0  0  0
   39.1050   30.9640   45.9240 C   0  0  0  0  0  0  0  0  0  0  0  0
  1  6  1  0  0  0  0
  1  7  1  0  0  0  0
  2  1  2  0  0  0  0
  3  4  2  0  0  0  0
  3  2  1  0  0  0  0
  4  5  1  0  0  0  0
  5  9  1  0  0  0  0
  5  6  2  0  0  0  0
  8  2  1  0  0  0  0
  9 10  1  0  0  0  0
 11  9  1  0  0  0  0
 12  9  1  0  0  0  0
 13  3  1  0  0  0  0
 14 15  1  0  0  0  0
 14 13  1  0  0  0  0
 15 13  1  0  0  0  0
M  END
>  <minimizedAffinity>
-4.8501544

>  <minimizedRMSD>
0.609714627

$$$$
