
 OpenBabel03262521343D

 19 21  0  0  1  0  0  0  0  0999 V2000
   38.4090   25.9750   35.2810 C   0  0  1  0  0  0  0  0  0  0  0  0
   38.3540   27.3990   35.5010 C   0  0  0  0  0  0  0  0  0  0  0  0
   39.6990   26.7980   35.0680 C   0  0  2  0  0  0  0  0  0  0  0  0
   37.9590   25.5620   34.3480 H   0  0  0  0  0  0  0  0  0  0  0  0
   38.3810   27.7460   36.5670 H   0  0  0  0  0  0  0  0  0  0  0  0
   37.8200   28.0880   34.8540 H   0  0  0  0  0  0  0  0  0  0  0  0
   40.5060   26.6990   35.8140 H   0  0  0  0  0  0  0  0  0  0  0  0
   39.3930   22.9020   37.1720 C   0  0  0  0  0  0  0  0  0  0  0  0
   39.3150   23.8250   36.1140 C   0  0  0  0  0  0  0  0  0  0  0  0
   38.5530   24.9670   36.3500 C   0  0  0  0  0  0  0  0  0  0  0  0
   37.9380   25.1200   37.5720 N   0  0  0  0  0  0  0  0  0  0  0  0
   38.0500   24.1950   38.5520 C   0  0  0  0  0  0  0  0  0  0  0  0
   38.7820   23.0740   38.3600 N   0  0  0  0  0  0  0  0  0  0  0  0
   39.9790   22.0000   37.0240 H   0  0  0  0  0  0  0  0  0  0  0  0
   39.8280   23.6250   35.1950 H   0  0  0  0  0  0  0  0  0  0  0  0
   37.4870   24.5230   39.4160 H   0  0  0  0  0  0  0  0  0  0  0  0
   40.0810   27.1530   33.6630 C   0  0  0  0  0  3  0  0  0  0  0  0
   41.5340   27.4630   33.3490 C   0  0  0  0  0  2  0  0  0  0  0  0
   40.8320   26.2450   32.7900 C   0  0  0  0  0  2  0  0  0  0  0  0
  1  4  1  6  0  0  0
  1  2  1  0  0  0  0
  1 10  1  0  0  0  0
  2  5  1  0  0  0  0
  3  1  1  0  0  0  0
  3  2  1  0  0  0  0
  3  7  1  1  0  0  0
  6  2  1  0  0  0  0
  8 13  1  0  0  0  0
  9 10  1  0  0  0  0
  9  8  2  0  0  0  0
 10 11  2  0  0  0  0
 11 12  1  0  0  0  0
 12 16  1  0  0  0  0
 13 12  2  0  0  0  0
 14  8  1  0  0  0  0
 15  9  1  0  0  0  0
 17  3  1  0  0  0  0
 18 17  1  0  0  0  0
 19 18  1  0  0  0  0
 19 17  1  0  0  0  0
M  END
>  <minimizedAffinity>
-3.92821789

$$$$

 OpenBabel03262521343D

 19 21  0  0  1  0  0  0  0  0999 V2000
   38.4030   26.2610   34.6430 C   0  0  1  0  0  0  0  0  0  0  0  0
   38.4750   27.0570   35.8440 C   0  0  0  0  0  0  0  0  0  0  0  0
   37.7120   25.7260   35.9170 C   0  0  2  0  0  0  0  0  0  0  0  0
   39.3080   25.6890   34.3280 H   0  0  0  0  0  0  0  0  0  0  0  0
   37.7810   27.9350   35.9090 H   0  0  0  0  0  0  0  0  0  0  0  0
   39.3860   27.2060   36.4140 H   0  0  0  0  0  0  0  0  0  0  0  0
   36.6090   25.7430   35.9540 H   0  0  0  0  0  0  0  0  0  0  0  0
   36.0090   27.9100   32.2900 C   0  0  0  0  0  0  0  0  0  0  0  0
   36.9230   27.7690   33.3490 C   0  0  0  0  0  0  0  0  0  0  0  0
   37.4500   26.4930   33.5400 C   0  0  0  0  0  0  0  0  0  0  0  0
   37.0550   25.4740   32.7030 N   0  0  0  0  0  0  0  0  0  0  0  0
   36.1700   25.6730   31.7000 C   0  0  0  0  0  0  0  0  0  0  0  0
   35.6380   26.8970   31.4840 N   0  0  0  0  0  0  0  0  0  0  0  0
   35.5790   28.8900   32.1110 H   0  0  0  0  0  0  0  0  0  0  0  0
   37.1750   28.6180   33.9520 H   0  0  0  0  0  0  0  0  0  0  0  0
   36.0100   24.7380   31.1780 H   0  0  0  0  0  0  0  0  0  0  0  0
   38.4250   24.6780   36.7160 C   0  0  0  0  0  3  0  0  0  0  0  0
   37.9050   24.3210   38.0970 C   0  0  0  0  0  2  0  0  0  0  0  0
   37.8710   23.3400   36.9460 C   0  0  0  0  0  2  0  0  0  0  0  0
  1  4  1  6  0  0  0
  1  2  1  0  0  0  0
  1  3  1  0  0  0  0
  2  5  1  0  0  0  0
  2  3  1  0  0  0  0
  2  6  1  0  0  0  0
  3  7  1  1  0  0  0
  3 17  1  0  0  0  0
  8  9  1  0  0  0  0
  9 10  2  0  0  0  0
  9 15  1  0  0  0  0
 10  1  1  0  0  0  0
 11 10  1  0  0  0  0
 12 11  2  0  0  0  0
 13 12  1  0  0  0  0
 13  8  2  0  0  0  0
 14  8  1  0  0  0  0
 16 12  1  0  0  0  0
 17 19  1  0  0  0  0
 17 18  1  0  0  0  0
 19 18  1  0  0  0  0
M  END
>  <minimizedAffinity>
-3.91342163

$$$$

 OpenBabel03262521343D

 19 21  0  0  1  0  0  0  0  0999 V2000
   38.4170   26.3060   34.6690 C   0  0  1  0  0  0  0  0  0  0  0  0
   38.5580   27.0620   35.8890 C   0  0  0  0  0  0  0  0  0  0  0  0
   37.7400   25.7640   35.9470 C   0  0  2  0  0  0  0  0  0  0  0  0
   39.2870   25.7060   34.3110 H   0  0  0  0  0  0  0  0  0  0  0  0
   37.9050   27.9670   36.0000 H   0  0  0  0  0  0  0  0  0  0  0  0
   39.4910   27.1550   36.4360 H   0  0  0  0  0  0  0  0  0  0  0  0
   36.6400   25.8260   36.0180 H   0  0  0  0  0  0  0  0  0  0  0  0
   36.1770   25.9870   31.6910 C   0  0  0  0  0  0  0  0  0  0  0  0
   37.0950   25.6180   32.6900 C   0  0  0  0  0  0  0  0  0  0  0  0
   37.4440   26.6110   33.6020 C   0  0  0  0  0  0  0  0  0  0  0  0
   36.8840   27.8620   33.4750 N   0  0  0  0  0  0  0  0  0  0  0  0
   36.0040   28.1570   32.4900 C   0  0  0  0  0  0  0  0  0  0  0  0
   35.6420   27.2180   31.5880 N   0  0  0  0  0  0  0  0  0  0  0  0
   35.8810   25.2370   30.9640 H   0  0  0  0  0  0  0  0  0  0  0  0
   37.4820   24.6190   32.7140 H   0  0  0  0  0  0  0  0  0  0  0  0
   35.6990   29.1910   32.5860 H   0  0  0  0  0  0  0  0  0  0  0  0
   38.4300   24.6630   36.6950 C   0  0  0  0  0  3  0  0  0  0  0  0
   37.9400   24.2940   38.0840 C   0  0  0  0  0  2  0  0  0  0  0  0
   37.8210   23.3460   36.9100 C   0  0  0  0  0  2  0  0  0  0  0  0
  1  4  1  6  0  0  0
  1  2  1  0  0  0  0
  1  3  1  0  0  0  0
  2  3  1  0  0  0  0
  2  5  1  0  0  0  0
  2  6  1  0  0  0  0
  3  7  1  1  0  0  0
  3 17  1  0  0  0  0
  8  9  1  0  0  0  0
  9 15  1  0  0  0  0
  9 10  2  0  0  0  0
 10  1  1  0  0  0  0
 11 10  1  0  0  0  0
 12 16  1  0  0  0  0
 12 11  2  0  0  0  0
 13  8  2  0  0  0  0
 13 12  1  0  0  0  0
 14  8  1  0  0  0  0
 17 19  1  0  0  0  0
 17 18  1  0  0  0  0
 19 18  1  0  0  0  0
M  END
>  <minimizedAffinity>
-3.84852099

$$$$

 OpenBabel03262521343D

 19 21  0  0  1  0  0  0  0  0999 V2000
   37.5260   25.9980   32.5110 C   0  0  1  0  0  0  0  0  0  0  0  0
   36.6500   27.1250   32.7220 C   0  0  0  0  0  0  0  0  0  0  0  0
   37.2800   26.4710   33.9610 C   0  0  2  0  0  0  0  0  0  0  0  0
   38.5550   26.1890   32.1250 H   0  0  0  0  0  0  0  0  0  0  0  0
   35.5490   26.9250   32.6660 H   0  0  0  0  0  0  0  0  0  0  0  0
   36.9010   28.1430   32.4440 H   0  0  0  0  0  0  0  0  0  0  0  0
   36.6510   25.8400   34.6120 H   0  0  0  0  0  0  0  0  0  0  0  0
   35.5940   23.0380   31.2900 C   0  0  0  0  0  0  0  0  0  0  0  0
   35.9830   24.3800   31.4430 C   0  0  0  0  0  0  0  0  0  0  0  0
   37.0690   24.6140   32.2840 C   0  0  0  0  0  0  0  0  0  0  0  0
   37.6810   23.5440   32.8980 N   0  0  0  0  0  0  0  0  0  0  0  0
   37.2590   22.2720   32.7110 C   0  0  0  0  0  0  0  0  0  0  0  0
   36.2090   22.0080   31.9010 N   0  0  0  0  0  0  0  0  0  0  0  0
   34.7520   22.8190   30.6410 H   0  0  0  0  0  0  0  0  0  0  0  0
   35.4490   25.1510   30.9260 H   0  0  0  0  0  0  0  0  0  0  0  0
   37.8830   21.6030   33.2890 H   0  0  0  0  0  0  0  0  0  0  0  0
   38.3300   27.3220   34.6100 C   0  0  0  0  0  3  0  0  0  0  0  0
   38.4860   27.2790   36.1190 C   0  0  0  0  0  2  0  0  0  0  0  0
   39.5590   26.7660   35.1840 C   0  0  0  0  0  2  0  0  0  0  0  0
  1  4  1  6  0  0  0
  1  2  1  0  0  0  0
  1  3  1  0  0  0  0
  2  3  1  0  0  0  0
  3 17  1  0  0  0  0
  3  7  1  1  0  0  0
  5  2  1  0  0  0  0
  6  2  1  0  0  0  0
  8  9  2  0  0  0  0
  8 13  1  0  0  0  0
  9 10  1  0  0  0  0
 10  1  1  0  0  0  0
 10 11  2  0  0  0  0
 12 11  1  0  0  0  0
 12 16  1  0  0  0  0
 13 12  2  0  0  0  0
 14  8  1  0  0  0  0
 15  9  1  0  0  0  0
 17 19  1  0  0  0  0
 17 18  1  0  0  0  0
 19 18  1  0  0  0  0
M  END
>  <minimizedAffinity>
-3.59044433

$$$$

 OpenBabel03262521343D

 19 21  0  0  1  0  0  0  0  0999 V2000
   37.5820   26.0090   35.4620 C   0  0  1  0  0  0  0  0  0  0  0  0
   38.2760   27.2550   35.6740 C   0  0  0  0  0  0  0  0  0  0  0  0
   38.2060   26.7150   34.2380 C   0  0  2  0  0  0  0  0  0  0  0  0
   36.4660   26.0100   35.4830 H   0  0  0  0  0  0  0  0  0  0  0  0
   39.3160   27.1890   36.0890 H   0  0  0  0  0  0  0  0  0  0  0  0
   37.7810   28.1820   35.9420 H   0  0  0  0  0  0  0  0  0  0  0  0
   39.1110   26.2700   33.7880 H   0  0  0  0  0  0  0  0  0  0  0  0
   38.7230   22.4800   34.9790 C   0  0  0  0  0  0  0  0  0  0  0  0
   38.1670   23.7350   34.6720 C   0  0  0  0  0  0  0  0  0  0  0  0
   38.1650   24.6740   35.7010 C   0  0  0  0  0  0  0  0  0  0  0  0
   38.6930   24.3280   36.9240 N   0  0  0  0  0  0  0  0  0  0  0  0
   39.2140   23.1010   37.1590 C   0  0  0  0  0  0  0  0  0  0  0  0
   39.2340   22.1640   36.1840 N   0  0  0  0  0  0  0  0  0  0  0  0
   38.7420   21.7230   34.2000 H   0  0  0  0  0  0  0  0  0  0  0  0
   37.7780   23.9180   33.6910 H   0  0  0  0  0  0  0  0  0  0  0  0
   39.5660   23.0560   38.1800 H   0  0  0  0  0  0  0  0  0  0  0  0
   37.3010   27.5120   33.3490 C   0  0  0  0  0  3  0  0  0  0  0  0
   37.7730   27.8840   31.9550 C   0  0  0  0  0  2  0  0  0  0  0  0
   36.6190   26.9340   32.1860 C   0  0  0  0  0  2  0  0  0  0  0  0
  1  4  1  1  0  0  0
  1  2  1  0  0  0  0
  1 10  1  0  0  0  0
  2  6  1  0  0  0  0
  2  5  1  0  0  0  0
  3  7  1  6  0  0  0
  3  1  1  0  0  0  0
  3  2  1  0  0  0  0
  8 13  1  0  0  0  0
  9  8  2  0  0  0  0
  9 10  1  0  0  0  0
 10 11  2  0  0  0  0
 11 12  1  0  0  0  0
 12 16  1  0  0  0  0
 13 12  2  0  0  0  0
 14  8  1  0  0  0  0
 15  9  1  0  0  0  0
 17  3  1  0  0  0  0
 18 19  1  0  0  0  0
 18 17  1  0  0  0  0
 19 17  1  0  0  0  0
M  END
>  <minimizedAffinity>
-3.55880094

$$$$

 OpenBabel03262521343D

 19 21  0  0  1  0  0  0  0  0999 V2000
   35.8030   30.9040   35.3310 C   0  0  1  0  0  0  0  0  0  0  0  0
   36.2590   32.2200   35.7060 C   0  0  0  0  0  0  0  0  0  0  0  0
   34.7430   31.9760   35.6720 C   0  0  2  0  0  0  0  0  0  0  0  0
   35.8880   30.0790   36.0770 H   0  0  0  0  0  0  0  0  0  0  0  0
   36.5860   32.8960   34.8730 H   0  0  0  0  0  0  0  0  0  0  0  0
   36.7650   32.4390   36.6410 H   0  0  0  0  0  0  0  0  0  0  0  0
   34.1510   32.4000   34.8430 H   0  0  0  0  0  0  0  0  0  0  0  0
   35.3440   28.6840   32.3570 C   0  0  0  0  0  0  0  0  0  0  0  0
   35.4200   29.0740   33.7060 C   0  0  0  0  0  0  0  0  0  0  0  0
   35.6900   30.4210   33.9420 C   0  0  0  0  0  0  0  0  0  0  0  0
   35.8610   31.2660   32.8690 N   0  0  0  0  0  0  0  0  0  0  0  0
   35.7760   30.8300   31.5910 C   0  0  0  0  0  0  0  0  0  0  0  0
   35.5160   29.5300   31.3240 N   0  0  0  0  0  0  0  0  0  0  0  0
   35.1350   27.6420   32.1360 H   0  0  0  0  0  0  0  0  0  0  0  0
   35.2730   28.3480   34.4790 H   0  0  0  0  0  0  0  0  0  0  0  0
   35.9450   31.6620   30.9210 H   0  0  0  0  0  0  0  0  0  0  0  0
   34.1190   31.9390   37.0340 C   0  0  0  0  0  3  0  0  0  0  0  0
   32.9330   32.8400   37.3270 C   0  0  0  0  0  2  0  0  0  0  0  0
   32.8080   31.3330   37.2910 C   0  0  0  0  0  2  0  0  0  0  0  0
  1  3  1  0  0  0  0
  1  2  1  0  0  0  0
  1  4  1  1  0  0  0
  2  6  1  0  0  0  0
  3  7  1  6  0  0  0
  3  2  1  0  0  0  0
  3 17  1  0  0  0  0
  5  2  1  0  0  0  0
  8  9  1  0  0  0  0
  9 10  2  0  0  0  0
  9 15  1  0  0  0  0
 10  1  1  0  0  0  0
 11 10  1  0  0  0  0
 12 11  2  0  0  0  0
 13 12  1  0  0  0  0
 13  8  2  0  0  0  0
 14  8  1  0  0  0  0
 16 12  1  0  0  0  0
 17 19  1  0  0  0  0
 17 18  1  0  0  0  0
 19 18  1  0  0  0  0
M  END
>  <minimizedAffinity>
-3.55332494

$$$$

 OpenBabel03262521343D

 19 21  0  0  1  0  0  0  0  0999 V2000
   38.1000   23.1240   34.5790 C   0  0  1  0  0  0  0  0  0  0  0  0
   38.9390   22.5760   33.5410 C   0  0  0  0  0  0  0  0  0  0  0  0
   37.8070   21.6910   34.0820 C   0  0  2  0  0  0  0  0  0  0  0  0
   37.3320   23.8820   34.2980 H   0  0  0  0  0  0  0  0  0  0  0  0
   39.9460   22.1960   33.8550 H   0  0  0  0  0  0  0  0  0  0  0  0
   38.9290   22.9240   32.5130 H   0  0  0  0  0  0  0  0  0  0  0  0
   38.0580   20.8490   34.7490 H   0  0  0  0  0  0  0  0  0  0  0  0
   37.9530   23.6820   38.2740 C   0  0  0  0  0  0  0  0  0  0  0  0
   37.5370   23.6610   36.9310 C   0  0  0  0  0  0  0  0  0  0  0  0
   38.4570   23.1620   36.0100 C   0  0  0  0  0  0  0  0  0  0  0  0
   39.6850   22.7310   36.4580 N   0  0  0  0  0  0  0  0  0  0  0  0
   40.0280   22.7770   37.7670 C   0  0  0  0  0  0  0  0  0  0  0  0
   39.1610   23.2550   38.6880 N   0  0  0  0  0  0  0  0  0  0  0  0
   37.2620   24.0640   39.0190 H   0  0  0  0  0  0  0  0  0  0  0  0
   36.5610   24.0170   36.6710 H   0  0  0  0  0  0  0  0  0  0  0  0
   41.0310   22.3910   37.8840 H   0  0  0  0  0  0  0  0  0  0  0  0
   36.6860   21.5020   33.1050 C   0  0  0  0  0  3  0  0  0  0  0  0
   36.4930   20.1430   32.4560 C   0  0  0  0  0  2  0  0  0  0  0  0
   35.4820   20.7250   33.4190 C   0  0  0  0  0  2  0  0  0  0  0  0
  1  4  1  6  0  0  0
  1 10  1  0  0  0  0
  2  5  1  0  0  0  0
  2  3  1  0  0  0  0
  2  1  1  0  0  0  0
  3  1  1  0  0  0  0
  3  7  1  1  0  0  0
  6  2  1  0  0  0  0
  8 13  1  0  0  0  0
  8 14  1  0  0  0  0
  9  8  2  0  0  0  0
 10 11  2  0  0  0  0
 10  9  1  0  0  0  0
 11 12  1  0  0  0  0
 12 16  1  0  0  0  0
 12 13  2  0  0  0  0
 15  9  1  0  0  0  0
 17 19  1  0  0  0  0
 17  3  1  0  0  0  0
 18 17  1  0  0  0  0
 18 19  1  0  0  0  0
M  END
>  <minimizedAffinity>
-3.50447965

$$$$

 OpenBabel03262521343D

 19 21  0  0  1  0  0  0  0  0999 V2000
   35.9970   29.5730   32.6320 C   0  0  1  0  0  0  0  0  0  0  0  0
   34.7290   30.1950   32.3390 C   0  0  0  0  0  0  0  0  0  0  0  0
   35.0890   29.9740   33.8160 C   0  0  2  0  0  0  0  0  0  0  0  0
   36.9250   30.1820   32.5280 H   0  0  0  0  0  0  0  0  0  0  0  0
   33.8980   29.5170   32.0110 H   0  0  0  0  0  0  0  0  0  0  0  0
   34.6290   31.1980   31.9370 H   0  0  0  0  0  0  0  0  0  0  0  0
   34.5820   29.1690   34.3760 H   0  0  0  0  0  0  0  0  0  0  0  0
   37.3040   26.1530   33.3980 C   0  0  0  0  0  0  0  0  0  0  0  0
   37.0980   27.5390   33.5200 C   0  0  0  0  0  0  0  0  0  0  0  0
   36.2480   28.1200   32.5810 C   0  0  0  0  0  0  0  0  0  0  0  0
   35.6750   27.3230   31.6160 N   0  0  0  0  0  0  0  0  0  0  0  0
   35.9120   25.9920   31.5500 C   0  0  0  0  0  0  0  0  0  0  0  0
   36.7310   25.3950   32.4440 N   0  0  0  0  0  0  0  0  0  0  0  0
   37.9600   25.6680   34.1130 H   0  0  0  0  0  0  0  0  0  0  0  0
   37.5860   28.0820   34.3030 H   0  0  0  0  0  0  0  0  0  0  0  0
   35.3600   25.5750   30.7180 H   0  0  0  0  0  0  0  0  0  0  0  0
   35.4050   31.2440   34.5440 C   0  0  0  0  0  3  0  0  0  0  0  0
   34.6170   31.5950   35.7940 C   0  0  0  0  0  2  0  0  0  0  0  0
   36.0940   31.2680   35.8390 C   0  0  0  0  0  2  0  0  0  0  0  0
  1  4  1  6  0  0  0
  1  3  1  0  0  0  0
  2  1  1  0  0  0  0
  2  3  1  0  0  0  0
  3  7  1  1  0  0  0
  3 17  1  0  0  0  0
  5  2  1  0  0  0  0
  6  2  1  0  0  0  0
  8  9  1  0  0  0  0
  8 14  1  0  0  0  0
  9 15  1  0  0  0  0
 10  1  1  0  0  0  0
 10  9  2  0  0  0  0
 11 10  1  0  0  0  0
 12 11  2  0  0  0  0
 12 13  1  0  0  0  0
 13  8  2  0  0  0  0
 16 12  1  0  0  0  0
 17 18  1  0  0  0  0
 17 19  1  0  0  0  0
 18 19  1  0  0  0  0
M  END
>  <minimizedAffinity>
-3.46621919

$$$$

 OpenBabel03262521343D

 19 21  0  0  1  0  0  0  0  0999 V2000
   39.2170   26.9810   35.0390 C   0  0  1  0  0  0  0  0  0  0  0  0
   38.0470   27.4040   35.7690 C   0  0  0  0  0  0  0  0  0  0  0  0
   38.1820   25.9090   35.4460 C   0  0  2  0  0  0  0  0  0  0  0  0
   40.1900   26.9200   35.5810 H   0  0  0  0  0  0  0  0  0  0  0  0
   37.2270   27.8820   35.1740 H   0  0  0  0  0  0  0  0  0  0  0  0
   38.0730   27.7530   36.7970 H   0  0  0  0  0  0  0  0  0  0  0  0
   37.5490   25.4730   34.6540 H   0  0  0  0  0  0  0  0  0  0  0  0
   40.7010   26.9950   31.6060 C   0  0  0  0  0  0  0  0  0  0  0  0
   40.6240   26.8600   33.0040 C   0  0  0  0  0  0  0  0  0  0  0  0
   39.3740   27.0870   33.5760 C   0  0  0  0  0  0  0  0  0  0  0  0
   38.3170   27.4210   32.7600 N   0  0  0  0  0  0  0  0  0  0  0  0
   38.4540   27.5380   31.4190 C   0  0  0  0  0  0  0  0  0  0  0  0
   39.6510   27.3240   30.8290 N   0  0  0  0  0  0  0  0  0  0  0  0
   41.6600   26.8250   31.1260 H   0  0  0  0  0  0  0  0  0  0  0  0
   41.4990   26.5950   33.5610 H   0  0  0  0  0  0  0  0  0  0  0  0
   37.4990   27.8070   30.9870 H   0  0  0  0  0  0  0  0  0  0  0  0
   38.4790   25.0670   36.6500 C   0  0  0  0  0  3  0  0  0  0  0  0
   37.5040   23.9710   37.0430 C   0  0  0  0  0  2  0  0  0  0  0  0
   38.9030   23.6660   36.5550 C   0  0  0  0  0  2  0  0  0  0  0  0
  1  3  1  0  0  0  0
  1  4  1  1  0  0  0
  1  2  1  0  0  0  0
  2  6  1  0  0  0  0
  3  7  1  6  0  0  0
  3  2  1  0  0  0  0
  3 17  1  0  0  0  0
  5  2  1  0  0  0  0
  8  9  1  0  0  0  0
  9 15  1  0  0  0  0
  9 10  2  0  0  0  0
 10  1  1  0  0  0  0
 11 10  1  0  0  0  0
 12 11  2  0  0  0  0
 13 12  1  0  0  0  0
 13  8  2  0  0  0  0
 14  8  1  0  0  0  0
 16 12  1  0  0  0  0
 17 18  1  0  0  0  0
 19 17  1  0  0  0  0
 19 18  1  0  0  0  0
M  END
>  <minimizedAffinity>
-3.43759322

$$$$
