
 OpenBabel03272510083D

 38 42  0  0  0  0  0  0  0  0999 V2000
   35.6140   28.4240   48.9100 C   0  0  0  0  0  0  0  0  0  0  0  0
   35.6490   29.8130   48.6120 C   0  0  0  0  0  0  0  0  0  0  0  0
   34.3990   30.4770   48.3700 C   0  0  0  0  0  0  0  0  0  0  0  0
   33.2470   29.7650   48.4240 N   0  0  0  0  0  0  0  0  0  0  0  0
   33.2880   28.4330   48.7070 C   0  0  0  0  0  0  0  0  0  0  0  0
   34.4420   27.7770   48.9470 N   0  0  0  0  0  0  0  0  0  0  0  0
   32.0310   27.7170   48.7070 N   0  0  0  0  0  0  0  0  0  0  0  0
   30.9490   28.0030   49.5960 C   0  0  0  0  0  0  0  0  0  0  0  0
   29.8210   27.1560   49.0890 C   0  0  0  0  0  0  0  0  0  0  0  0
   30.2340   26.6650   47.7100 C   0  0  0  0  0  0  0  0  0  0  0  0
   31.7020   26.6060   47.7900 C   0  0  0  0  0  0  0  0  0  0  0  0
   36.5860   27.9890   49.0890 H   0  0  0  0  0  0  0  0  0  0  0  0
   34.3440   31.5150   48.1480 H   0  0  0  0  0  0  0  0  0  0  0  0
   31.1720   27.8720   50.6690 H   0  0  0  0  0  0  0  0  0  0  0  0
   30.6220   29.0700   49.4230 H   0  0  0  0  0  0  0  0  0  0  0  0
   29.7500   26.2580   49.7380 H   0  0  0  0  0  0  0  0  0  0  0  0
   28.8500   27.6680   49.0810 H   0  0  0  0  0  0  0  0  0  0  0  0
   29.7260   25.7110   47.4580 H   0  0  0  0  0  0  0  0  0  0  0  0
   29.9520   27.4440   46.9640 H   0  0  0  0  0  0  0  0  0  0  0  0
   32.0980   25.6720   48.2360 H   0  0  0  0  0  0  0  0  0  0  0  0
   32.1730   26.8130   46.8010 H   0  0  0  0  0  0  0  0  0  0  0  0
   36.7790   30.6610   48.5430 C   0  0  0  0  0  0  0  0  0  0  0  0
   37.2910   31.0440   49.7290 N   0  0  0  0  0  0  0  0  0  0  0  0
   38.3240   31.9110   49.7530 C   0  0  0  0  0  0  0  0  0  0  0  0
   38.9110   32.4500   48.6440 N   0  0  0  0  0  0  0  0  0  0  0  0
   38.4110   32.0760   47.4460 C   0  0  0  0  0  0  0  0  0  0  0  0
   38.9140   32.5810   46.2590 C   0  0  0  0  0  0  0  0  0  0  0  0
   38.3560   32.1900   45.0320 C   0  0  0  0  0  0  0  0  0  0  0  0
   37.2930   31.2860   45.0310 C   0  0  0  0  0  0  0  0  0  0  0  0
   36.8240   30.8080   46.2200 C   0  0  0  0  0  0  0  0  0  0  0  0
   37.3670   31.1970   47.4120 C   0  0  0  0  0  0  0  0  0  0  0  0
   38.7460   32.2250   50.7030 H   0  0  0  0  0  0  0  0  0  0  0  0
   39.7370   33.2690   46.3910 H   0  0  0  0  0  0  0  0  0  0  0  0
   38.8440   32.6630   44.2130 H   0  0  0  0  0  0  0  0  0  0  0  0
   37.0530   31.1710   43.9880 H   0  0  0  0  0  0  0  0  0  0  0  0
   35.7330   29.7910   45.9890 C   0  0  0  0  0  3  0  0  0  0  0  0
   35.7040   29.0960   44.5700 C   0  0  0  0  0  2  0  0  0  0  0  0
   34.6850   29.9940   45.0320 C   0  0  0  0  0  2  0  0  0  0  0  0
  1  6  1  0  0  0  0
  1 12  1  0  0  0  0
  2  1  2  0  0  0  0
  3  4  2  0  0  0  0
  3  2  1  0  0  0  0
  4  5  1  0  0  0  0
  5  7  1  0  0  0  0
  5  6  2  0  0  0  0
  7  8  1  0  0  0  0
  8 14  1  0  0  0  0
  9  8  1  0  0  0  0
  9 16  1  0  0  0  0
 10 11  1  0  0  0  0
 10  9  1  0  0  0  0
 11 20  1  0  0  0  0
 11  7  1  0  0  0  0
 13  3  1  0  0  0  0
 15  8  1  0  0  0  0
 17  9  1  0  0  0  0
 18 10  1  0  0  0  0
 19 10  1  0  0  0  0
 21 11  1  0  0  0  0
 22  2  1  0  0  0  0
 22 23  1  0  0  0  0
 23 24  2  0  0  0  0
 24 32  1  0  0  0  0
 25 24  1  0  0  0  0
 26 25  2  0  0  0  0
 27 33  1  0  0  0  0
 27 26  1  0  0  0  0
 28 27  2  0  0  0  0
 29 28  1  0  0  0  0
 29 30  2  0  0  0  0
 30 31  1  0  0  0  0
 31 26  1  0  0  0  0
 31 22  2  0  0  0  0
 34 28  1  0  0  0  0
 35 29  1  0  0  0  0
 36 30  1  0  0  0  0
 37 38  1  0  0  0  0
 37 36  1  0  0  0  0
 38 36  1  0  0  0  0
M  END
>  <minimizedAffinity>
-4.91731119

>  <minimizedRMSD>
1.14427698

$$$$
