
 OpenBabel03272509473D

 19 20  0  0  0  0  0  0  0  0999 V2000
   34.8730   28.3050   49.7160 O   0  0  0  0  0  0  0  0  0  0  0  0
   37.3810   30.2700   51.4330 C   0  0  0  0  0  0  0  0  0  0  0  0
   38.1030   30.7390   50.3390 C   0  0  0  0  0  0  0  0  0  0  0  0
   37.6990   30.3630   49.0610 C   0  0  0  0  0  0  0  0  0  0  0  0
   36.6000   29.5430   48.9850 N   0  0  0  0  0  0  0  0  0  0  0  0
   35.9280   29.1080   50.0520 C   0  0  0  0  0  0  0  0  0  0  0  0
   36.3210   29.4750   51.2920 N   0  0  0  0  0  0  0  0  0  0  0  0
   37.6400   30.5240   52.4620 H   0  0  0  0  0  0  0  0  0  0  0  0
   38.9580   31.3850   50.5100 H   0  0  0  0  0  0  0  0  0  0  0  0
   38.2360   30.7090   48.1930 H   0  0  0  0  0  0  0  0  0  0  0  0
   34.4430   28.2950   48.3580 C   0  0  0  0  0  0  0  0  0  0  0  0
   34.2140   29.3170   48.0100 H   0  0  0  0  0  0  0  0  0  0  0  0
   35.2480   27.9180   47.6950 H   0  0  0  0  0  0  0  0  0  0  0  0
   33.2430   27.3950   48.2150 C   0  0  0  0  0  0  0  0  0  0  0  0
   33.1210   26.7700   49.0990 H   0  0  0  0  0  0  0  0  0  0  0  0
   32.3570   27.9950   47.9570 H   0  0  0  0  0  0  0  0  0  0  0  0
   33.5490   26.4640   47.0400 C   0  0  0  0  0  3  0  0  0  0  0  0
   33.8240   25.0360   47.3120 C   0  0  0  0  0  2  0  0  0  0  0  0
   32.5030   25.4070   46.7200 C   0  0  0  0  0  2  0  0  0  0  0  0
  1  6  1  0  0  0  0
  2  8  1  0  0  0  0
  3  9  1  0  0  0  0
  3  2  2  0  0  0  0
  4  3  1  0  0  0  0
  5  4  2  0  0  0  0
  5  6  1  0  0  0  0
  6  7  2  0  0  0  0
  7  2  1  0  0  0  0
 10  4  1  0  0  0  0
 11  1  1  0  0  0  0
 12 11  1  0  0  0  0
 13 11  1  0  0  0  0
 14 11  1  0  0  0  0
 14 15  1  0  0  0  0
 16 14  1  0  0  0  0
 17 18  1  0  0  0  0
 17 14  1  0  0  0  0
 19 17  1  0  0  0  0
 19 18  1  0  0  0  0
M  END
>  <minimizedAffinity>
-3.6617496

>  <minimizedRMSD>
0.809783816

$$$$
