
 OpenBabel03272508153D

 22 24  0  0  0  0  0  0  0  0999 V2000
   38.7600   32.3710   48.5120 Cl  0  0  0  0  0  0  0  0  0  0  0  0
   37.9750   31.7750   47.0800 C   0  0  0  0  0  0  0  0  0  0  0  0
   36.9720   30.8750   47.3190 C   0  0  0  0  0  0  0  0  0  0  0  0
   36.2830   30.3310   46.2180 C   0  0  0  0  0  0  0  0  0  0  0  0
   36.5970   30.6840   44.9370 C   0  0  0  0  0  0  0  0  0  0  0  0
   37.6120   31.5940   44.7220 C   0  0  0  0  0  0  0  0  0  0  0  0
   38.0160   32.0430   43.0910 Cl  0  0  0  0  0  0  0  0  0  0  0  0
   38.2900   32.1300   45.7990 C   0  0  0  0  0  0  0  0  0  0  0  0
   35.4770   29.6150   46.3100 H   0  0  0  0  0  0  0  0  0  0  0  0
   36.0770   30.2760   44.0640 H   0  0  0  0  0  0  0  0  0  0  0  0
   37.4040   29.7390   49.4730 C   0  0  0  0  0  0  0  0  0  0  0  0
   36.4740   30.3610   48.5920 C   0  0  0  0  0  0  0  0  0  0  0  0
   35.1300   30.4430   48.9980 C   0  0  0  0  0  0  0  0  0  0  0  0
   34.8050   29.9180   50.2160 N   0  0  0  0  0  0  0  0  0  0  0  0
   35.7240   29.3320   51.0270 C   0  0  0  0  0  0  0  0  0  0  0  0
   37.0210   29.2430   50.6530 N   0  0  0  0  0  0  0  0  0  0  0  0
   38.4370   29.6750   49.1600 H   0  0  0  0  0  0  0  0  0  0  0  0
   34.4410   30.9090   48.3370 H   0  0  0  0  0  0  0  0  0  0  0  0
   35.4540   28.9200   51.9880 H   0  0  0  0  0  0  0  0  0  0  0  0
   39.3420   33.0910   45.4980 C   0  0  0  0  0  0  0  0  0  0  0  0
   40.7490   32.4040   45.5160 C   0  0  0  0  0  0  0  0  0  0  0  0
   40.2020   33.1460   44.3300 C   0  0  0  0  0  0  0  0  0  0  0  0
  2  3  1  0  0  0  0
  2  1  1  0  0  0  0
  3 12  1  0  0  0  0
  4  9  1  0  0  0  0
  4  3  2  0  0  0  0
  5  4  1  0  0  0  0
  6  5  2  0  0  0  0
  6  8  1  0  0  0  0
  7  6  1  0  0  0  0
  8  2  2  0  0  0  0
 10  5  1  0  0  0  0
 11 16  1  0  0  0  0
 12 13  1  0  0  0  0
 12 11  2  0  0  0  0
 13 14  2  0  0  0  0
 14 15  1  0  0  0  0
 15 19  1  0  0  0  0
 16 15  2  0  0  0  0
 17 11  1  0  0  0  0
 18 13  1  0  0  0  0
 20 21  1  0  0  0  0
 20  8  1  0  0  0  0
 22 20  1  0  0  0  0
 22 21  1  0  0  0  0
M  END
>  <minimizedAffinity>
-5.43915892

>  <minimizedRMSD>
1.94791114

$$$$
