
 OpenBabel03262520173D

 12 13  0  0  0  0  0  0  0  0999 V2000
   37.4180   30.1510   51.4120 C   0  0  0  0  0  0  0  0  0  0  0  0
   37.8910   30.9010   50.3190 C   0  0  0  0  0  0  0  0  0  0  0  0
   37.1270   30.9060   49.1380 C   0  0  0  0  0  0  0  0  0  0  0  0
   35.9710   30.1770   49.1370 N   0  0  0  0  0  0  0  0  0  0  0  0
   35.5530   29.4700   50.2070 C   0  0  0  0  0  0  0  0  0  0  0  0
   36.2790   29.4560   51.3520 N   0  0  0  0  0  0  0  0  0  0  0  0
   37.9980   30.1400   52.3280 H   0  0  0  0  0  0  0  0  0  0  0  0
   38.8310   31.4630   50.3960 H   0  0  0  0  0  0  0  0  0  0  0  0
   34.6030   28.9520   50.0100 H   0  0  0  0  0  0  0  0  0  0  0  0
   37.5670   31.6670   47.9670 C   0  0  0  0  0  3  0  0  0  0  0  0
   38.9410   32.1210   47.7650 C   0  0  0  0  0  2  0  0  0  0  0  0
   38.4800   30.8640   47.0300 C   0  0  0  0  0  2  0  0  0  0  0  0
  1  7  1  0  0  0  0
  2  8  1  0  0  0  0
  2  1  2  0  0  0  0
  3  2  1  0  0  0  0
  4  3  2  0  0  0  0
  4  5  1  0  0  0  0
  5  6  2  0  0  0  0
  6  1  1  0  0  0  0
  9  5  1  0  0  0  0
 10  3  1  0  0  0  0
 11 10  1  0  0  0  0
 12 11  1  0  0  0  0
 12 10  1  0  0  0  0
M  END
>  <minimizedAffinity>
-3.77735901

>  <minimizedRMSD>
1.00422418

$$$$
