
 OpenBabel03272509473D

 19 20  0  0  0  0  0  0  0  0999 V2000
   34.8720   28.3050   49.7150 O   0  0  0  0  0  0  0  0  0  0  0  0
   37.3810   30.2690   51.4320 C   0  0  0  0  0  0  0  0  0  0  0  0
   38.1030   30.7390   50.3390 C   0  0  0  0  0  0  0  0  0  0  0  0
   37.6990   30.3630   49.0610 C   0  0  0  0  0  0  0  0  0  0  0  0
   36.6000   29.5430   48.9850 N   0  0  0  0  0  0  0  0  0  0  0  0
   35.9270   29.1080   50.0510 C   0  0  0  0  0  0  0  0  0  0  0  0
   36.3210   29.4750   51.2910 N   0  0  0  0  0  0  0  0  0  0  0  0
   37.6400   30.5230   52.4620 H   0  0  0  0  0  0  0  0  0  0  0  0
   38.9580   31.3850   50.5100 H   0  0  0  0  0  0  0  0  0  0  0  0
   38.2360   30.7090   48.1930 H   0  0  0  0  0  0  0  0  0  0  0  0
   34.4430   28.2950   48.3580 C   0  0  0  0  0  0  0  0  0  0  0  0
   34.2140   29.3170   48.0090 H   0  0  0  0  0  0  0  0  0  0  0  0
   35.2490   27.9180   47.6950 H   0  0  0  0  0  0  0  0  0  0  0  0
   33.2440   27.3950   48.2140 C   0  0  0  0  0  0  0  0  0  0  0  0
   33.1210   26.7700   49.0990 H   0  0  0  0  0  0  0  0  0  0  0  0
   32.3570   27.9940   47.9570 H   0  0  0  0  0  0  0  0  0  0  0  0
   33.5500   26.4640   47.0390 C   0  0  0  0  0  3  0  0  0  0  0  0
   33.8240   25.0350   47.3100 C   0  0  0  0  0  2  0  0  0  0  0  0
   32.5030   25.4080   46.7190 C   0  0  0  0  0  2  0  0  0  0  0  0
  1  6  1  0  0  0  0
  2  8  1  0  0  0  0
  3  9  1  0  0  0  0
  3  2  2  0  0  0  0
  4  3  1  0  0  0  0
  5  4  2  0  0  0  0
  5  6  1  0  0  0  0
  6  7  2  0  0  0  0
  7  2  1  0  0  0  0
 10  4  1  0  0  0  0
 11  1  1  0  0  0  0
 12 11  1  0  0  0  0
 13 11  1  0  0  0  0
 14 11  1  0  0  0  0
 14 15  1  0  0  0  0
 16 14  1  0  0  0  0
 17 18  1  0  0  0  0
 17 14  1  0  0  0  0
 19 17  1  0  0  0  0
 19 18  1  0  0  0  0
M  END
>  <minimizedAffinity>
-3.66191411

>  <minimizedRMSD>
0.820242286

$$$$
