
 OpenBabel03272509173D

 24 26  0  0  0  0  0  0  0  0999 V2000
   38.5670   23.2660   36.7380 C   0  0  0  0  0  0  0  0  0  0  0  0
   39.0880   23.5940   35.4960 C   0  0  0  0  0  0  0  0  0  0  0  0
   40.4580   23.4190   35.3920 C   0  0  0  0  0  0  0  0  0  0  0  0
   41.2370   22.9520   36.4500 C   0  0  0  0  0  0  0  0  0  0  0  0
   40.6280   22.6480   37.6600 C   0  0  0  0  0  0  0  0  0  0  0  0
   39.2720   22.8070   37.8100 C   0  0  0  0  0  0  0  0  0  0  0  0
   40.9620   23.6490   34.4560 H   0  0  0  0  0  0  0  0  0  0  0  0
   42.3070   22.8210   36.3480 H   0  0  0  0  0  0  0  0  0  0  0  0
   41.2220   22.2840   38.4930 H   0  0  0  0  0  0  0  0  0  0  0  0
   37.9730   23.2240   33.3450 C   0  0  0  0  0  0  0  0  0  0  0  0
   38.2960   24.0730   34.4080 C   0  0  0  0  0  0  0  0  0  0  0  0
   37.8180   25.3760   34.3540 C   0  0  0  0  0  0  0  0  0  0  0  0
   37.0680   25.7620   33.2810 N   0  0  0  0  0  0  0  0  0  0  0  0
   36.7810   24.8950   32.2720 C   0  0  0  0  0  0  0  0  0  0  0  0
   37.2320   23.6330   32.3040 N   0  0  0  0  0  0  0  0  0  0  0  0
   38.3320   22.1970   33.3580 H   0  0  0  0  0  0  0  0  0  0  0  0
   36.1720   25.4050   31.5200 H   0  0  0  0  0  0  0  0  0  0  0  0
   38.1400   26.3130   35.4650 C   0  0  0  0  0  3  0  0  0  0  0  0
   37.9200   27.7680   35.3430 C   0  0  0  0  0  2  0  0  0  0  0  0
   39.3480   27.2260   35.2200 C   0  0  0  0  0  2  0  0  0  0  0  0
   37.1930   23.4030   36.9590 O   0  0  0  0  0  0  0  0  0  0  0  0
   36.5260   22.6900   36.7260 H   0  0  0  0  0  0  0  0  0  0  0  0
   38.6910   22.4930   39.0330 O   0  0  0  0  0  0  0  0  0  0  0  0
   38.3800   23.2050   39.6890 H   0  0  0  0  0  0  0  0  0  0  0  0
  1 21  1  0  0  0  0
  1  6  1  0  0  0  0
  2  1  2  0  0  0  0
  3  2  1  0  0  0  0
  3  4  2  0  0  0  0
  4  5  1  0  0  0  0
  5  6  2  0  0  0  0
  5  9  1  0  0  0  0
  6 23  1  0  0  0  0
  7  3  1  0  0  0  0
  8  4  1  0  0  0  0
 10 16  1  0  0  0  0
 10 11  1  0  0  0  0
 11  2  1  0  0  0  0
 12 11  2  0  0  0  0
 12 18  1  0  0  0  0
 13 12  1  0  0  0  0
 14 15  1  0  0  0  0
 14 13  2  0  0  0  0
 15 10  2  0  0  0  0
 17 14  1  0  0  0  0
 19 18  1  0  0  0  0
 20 19  1  0  0  0  0
 20 18  1  0  0  0  0
 22 21  1  0  0  0  0
 23 24  1  0  0  0  0
M  END
>  <minimizedAffinity>
-5.35955381

$$$$

 OpenBabel03272509173D

 24 26  0  0  0  0  0  0  0  0999 V2000
   39.5830   23.0820   36.2380 C   0  0  0  0  0  0  0  0  0  0  0  0
   38.7250   24.0420   35.7250 C   0  0  0  0  0  0  0  0  0  0  0  0
   37.9220   24.6510   36.6760 C   0  0  0  0  0  0  0  0  0  0  0  0
   37.9780   24.3190   38.0280 C   0  0  0  0  0  0  0  0  0  0  0  0
   38.8700   23.3430   38.4530 C   0  0  0  0  0  0  0  0  0  0  0  0
   39.6850   22.7120   37.5460 C   0  0  0  0  0  0  0  0  0  0  0  0
   37.2150   25.4190   36.3720 H   0  0  0  0  0  0  0  0  0  0  0  0
   37.3420   24.8080   38.7560 H   0  0  0  0  0  0  0  0  0  0  0  0
   38.9240   23.0750   39.5030 H   0  0  0  0  0  0  0  0  0  0  0  0
   37.8120   23.6860   33.4780 C   0  0  0  0  0  0  0  0  0  0  0  0
   38.6620   24.3860   34.3400 C   0  0  0  0  0  0  0  0  0  0  0  0
   39.4230   25.4110   33.7940 C   0  0  0  0  0  0  0  0  0  0  0  0
   39.3110   25.6830   32.4610 N   0  0  0  0  0  0  0  0  0  0  0  0
   38.4680   24.9700   31.6660 C   0  0  0  0  0  0  0  0  0  0  0  0
   37.7230   23.9770   32.1720 N   0  0  0  0  0  0  0  0  0  0  0  0
   37.2030   22.8780   33.8750 H   0  0  0  0  0  0  0  0  0  0  0  0
   38.5300   25.3500   30.6410 H   0  0  0  0  0  0  0  0  0  0  0  0
   40.3410   26.1820   34.6780 C   0  0  0  0  0  3  0  0  0  0  0  0
   41.3840   27.0700   34.1280 C   0  0  0  0  0  2  0  0  0  0  0  0
   41.7990   25.7030   34.6810 C   0  0  0  0  0  2  0  0  0  0  0  0
   40.4410   22.4000   35.3700 O   0  0  0  0  0  0  0  0  0  0  0  0
   41.3410   22.7540   35.1000 H   0  0  0  0  0  0  0  0  0  0  0  0
   40.5680   21.7400   38.0020 O   0  0  0  0  0  0  0  0  0  0  0  0
   40.4110   20.7460   37.8530 H   0  0  0  0  0  0  0  0  0  0  0  0
  1  6  1  0  0  0  0
  2  1  2  0  0  0  0
  2  3  1  0  0  0  0
  3  4  2  0  0  0  0
  4  5  1  0  0  0  0
  4  8  1  0  0  0  0
  5  9  1  0  0  0  0
  6 23  1  0  0  0  0
  6  5  2  0  0  0  0
  7  3  1  0  0  0  0
 10 16  1  0  0  0  0
 10 11  1  0  0  0  0
 11  2  1  0  0  0  0
 12 11  2  0  0  0  0
 12 18  1  0  0  0  0
 13 12  1  0  0  0  0
 14 15  1  0  0  0  0
 14 13  2  0  0  0  0
 15 10  2  0  0  0  0
 17 14  1  0  0  0  0
 18 20  1  0  0  0  0
 19 18  1  0  0  0  0
 19 20  1  0  0  0  0
 21  1  1  0  0  0  0
 22 21  1  0  0  0  0
 24 23  1  0  0  0  0
M  END
>  <minimizedAffinity>
-5.15492105

$$$$

 OpenBabel03272509173D

 24 26  0  0  0  0  0  0  0  0999 V2000
   38.6640   23.5120   36.7390 C   0  0  0  0  0  0  0  0  0  0  0  0
   39.1790   23.8770   35.5050 C   0  0  0  0  0  0  0  0  0  0  0  0
   40.5270   23.5980   35.3480 C   0  0  0  0  0  0  0  0  0  0  0  0
   41.2910   23.0030   36.3510 C   0  0  0  0  0  0  0  0  0  0  0  0
   40.6890   22.6710   37.5580 C   0  0  0  0  0  0  0  0  0  0  0  0
   39.3560   22.9290   37.7580 C   0  0  0  0  0  0  0  0  0  0  0  0
   41.0240   23.8460   34.4140 H   0  0  0  0  0  0  0  0  0  0  0  0
   42.3430   22.7920   36.2090 H   0  0  0  0  0  0  0  0  0  0  0  0
   41.2730   22.2070   38.3480 H   0  0  0  0  0  0  0  0  0  0  0  0
   38.1830   25.8680   34.4790 C   0  0  0  0  0  0  0  0  0  0  0  0
   38.4020   24.4870   34.4730 C   0  0  0  0  0  0  0  0  0  0  0  0
   37.8380   23.7550   33.4360 C   0  0  0  0  0  0  0  0  0  0  0  0
   37.1070   24.4060   32.4860 N   0  0  0  0  0  0  0  0  0  0  0  0
   36.9250   25.7540   32.5380 C   0  0  0  0  0  0  0  0  0  0  0  0
   37.4600   26.4800   33.5290 N   0  0  0  0  0  0  0  0  0  0  0  0
   38.6120   26.4690   35.2770 H   0  0  0  0  0  0  0  0  0  0  0  0
   36.3150   26.0700   31.6860 H   0  0  0  0  0  0  0  0  0  0  0  0
   38.0460   22.2810   33.3930 C   0  0  0  0  0  3  0  0  0  0  0  0
   37.3120   21.4200   32.4440 C   0  0  0  0  0  2  0  0  0  0  0  0
   36.8720   21.4410   33.9120 C   0  0  0  0  0  2  0  0  0  0  0  0
   37.3120   23.7460   37.0100 O   0  0  0  0  0  0  0  0  0  0  0  0
   36.5830   23.1050   36.7540 H   0  0  0  0  0  0  0  0  0  0  0  0
   38.7820   22.5850   38.9770 O   0  0  0  0  0  0  0  0  0  0  0  0
   38.5470   23.2770   39.6850 H   0  0  0  0  0  0  0  0  0  0  0  0
  1 21  1  0  0  0  0
  1  6  1  0  0  0  0
  2  1  2  0  0  0  0
  3  2  1  0  0  0  0
  3  4  2  0  0  0  0
  4  5  1  0  0  0  0
  5  6  2  0  0  0  0
  5  9  1  0  0  0  0
  6 23  1  0  0  0  0
  7  3  1  0  0  0  0
  8  4  1  0  0  0  0
 10 16  1  0  0  0  0
 11 10  1  0  0  0  0
 11  2  1  0  0  0  0
 12 11  2  0  0  0  0
 13 14  2  0  0  0  0
 13 12  1  0  0  0  0
 14 15  1  0  0  0  0
 15 10  2  0  0  0  0
 17 14  1  0  0  0  0
 18 12  1  0  0  0  0
 18 20  1  0  0  0  0
 19 18  1  0  0  0  0
 19 20  1  0  0  0  0
 22 21  1  0  0  0  0
 23 24  1  0  0  0  0
M  END
>  <minimizedAffinity>
-4.79846001

$$$$

 OpenBabel03272509173D

 24 26  0  0  0  0  0  0  0  0999 V2000
   39.5710   22.7810   36.9170 C   0  0  0  0  0  0  0  0  0  0  0  0
   39.7500   23.3660   35.6740 C   0  0  0  0  0  0  0  0  0  0  0  0
   39.0090   24.5200   35.4770 C   0  0  0  0  0  0  0  0  0  0  0  0
   38.1580   25.0400   36.4520 C   0  0  0  0  0  0  0  0  0  0  0  0
   38.0410   24.3850   37.6710 C   0  0  0  0  0  0  0  0  0  0  0  0
   38.7560   23.2380   37.9100 C   0  0  0  0  0  0  0  0  0  0  0  0
   39.0820   25.0530   34.5330 H   0  0  0  0  0  0  0  0  0  0  0  0
   37.5880   25.9440   36.2790 H   0  0  0  0  0  0  0  0  0  0  0  0
   37.3820   24.7790   38.4390 H   0  0  0  0  0  0  0  0  0  0  0  0
   40.1460   21.8990   33.7500 C   0  0  0  0  0  0  0  0  0  0  0  0
   40.6200   22.8390   34.6710 C   0  0  0  0  0  0  0  0  0  0  0  0
   41.9490   23.2270   34.5610 C   0  0  0  0  0  0  0  0  0  0  0  0
   42.7210   22.6800   33.5780 N   0  0  0  0  0  0  0  0  0  0  0  0
   42.2100   21.7680   32.7070 C   0  0  0  0  0  0  0  0  0  0  0  0
   40.9300   21.3790   32.7930 N   0  0  0  0  0  0  0  0  0  0  0  0
   39.1100   21.5750   33.8090 H   0  0  0  0  0  0  0  0  0  0  0  0
   42.9910   21.4610   32.0040 H   0  0  0  0  0  0  0  0  0  0  0  0
   42.4940   24.2260   35.5220 C   0  0  0  0  0  3  0  0  0  0  0  0
   43.9270   24.5810   35.5440 C   0  0  0  0  0  2  0  0  0  0  0  0
   43.3830   23.6480   36.6300 C   0  0  0  0  0  2  0  0  0  0  0  0
   40.2690   21.6100   37.2270 O   0  0  0  0  0  0  0  0  0  0  0  0
   41.2020   21.6110   37.5980 H   0  0  0  0  0  0  0  0  0  0  0  0
   38.6180   22.6060   39.1400 O   0  0  0  0  0  0  0  0  0  0  0  0
   38.0860   21.7460   39.2570 H   0  0  0  0  0  0  0  0  0  0  0  0
  1 21  1  0  0  0  0
  1  6  1  0  0  0  0
  2  1  2  0  0  0  0
  3  2  1  0  0  0  0
  3  4  2  0  0  0  0
  4  5  1  0  0  0  0
  5  6  2  0  0  0  0
  5  9  1  0  0  0  0
  6 23  1  0  0  0  0
  7  3  1  0  0  0  0
  8  4  1  0  0  0  0
 10 16  1  0  0  0  0
 10 11  1  0  0  0  0
 11  2  1  0  0  0  0
 12 11  2  0  0  0  0
 12 18  1  0  0  0  0
 13 12  1  0  0  0  0
 14 15  1  0  0  0  0
 14 13  2  0  0  0  0
 15 10  2  0  0  0  0
 17 14  1  0  0  0  0
 18 19  1  0  0  0  0
 18 20  1  0  0  0  0
 19 20  1  0  0  0  0
 21 22  1  0  0  0  0
 23 24  1  0  0  0  0
M  END
>  <minimizedAffinity>
-4.76540613

$$$$

 OpenBabel03272509173D

 24 26  0  0  0  0  0  0  0  0999 V2000
   39.6670   22.8510   37.3800 C   0  0  0  0  0  0  0  0  0  0  0  0
   40.0510   23.5050   36.2200 C   0  0  0  0  0  0  0  0  0  0  0  0
   39.2330   24.5670   35.8700 C   0  0  0  0  0  0  0  0  0  0  0  0
   38.1210   24.9370   36.6250 C   0  0  0  0  0  0  0  0  0  0  0  0
   37.8110   24.2220   37.7750 C   0  0  0  0  0  0  0  0  0  0  0  0
   38.5940   23.1620   38.1600 C   0  0  0  0  0  0  0  0  0  0  0  0
   39.4510   25.1440   34.9750 H   0  0  0  0  0  0  0  0  0  0  0  0
   37.4940   25.7710   36.3340 H   0  0  0  0  0  0  0  0  0  0  0  0
   36.9480   24.5000   38.3720 H   0  0  0  0  0  0  0  0  0  0  0  0
   42.4640   23.5820   35.7950 C   0  0  0  0  0  0  0  0  0  0  0  0
   41.1880   23.1310   35.4410 C   0  0  0  0  0  0  0  0  0  0  0  0
   41.0860   22.3180   34.3190 C   0  0  0  0  0  0  0  0  0  0  0  0
   42.2180   22.0040   33.6240 N   0  0  0  0  0  0  0  0  0  0  0  0
   43.4360   22.4690   34.0120 C   0  0  0  0  0  0  0  0  0  0  0  0
   43.5580   23.2540   35.0920 N   0  0  0  0  0  0  0  0  0  0  0  0
   42.5770   24.2190   36.6690 H   0  0  0  0  0  0  0  0  0  0  0  0
   44.2010   22.0990   33.3230 H   0  0  0  0  0  0  0  0  0  0  0  0
   39.7460   21.8170   33.9070 C   0  0  0  0  0  3  0  0  0  0  0  0
   39.5520   21.0620   32.6530 C   0  0  0  0  0  2  0  0  0  0  0  0
   39.1250   22.5330   32.7000 C   0  0  0  0  0  2  0  0  0  0  0  0
   40.4200   21.7630   37.8300 O   0  0  0  0  0  0  0  0  0  0  0  0
   41.2350   21.8610   38.4080 H   0  0  0  0  0  0  0  0  0  0  0  0
   38.2590   22.4670   39.3160 O   0  0  0  0  0  0  0  0  0  0  0  0
   37.8300   21.5450   39.2950 H   0  0  0  0  0  0  0  0  0  0  0  0
  1 21  1  0  0  0  0
  1  6  1  0  0  0  0
  2  1  2  0  0  0  0
  3  2  1  0  0  0  0
  3  4  2  0  0  0  0
  4  5  1  0  0  0  0
  5  6  2  0  0  0  0
  5  9  1  0  0  0  0
  6 23  1  0  0  0  0
  7  3  1  0  0  0  0
  8  4  1  0  0  0  0
 10 16  1  0  0  0  0
 11 10  1  0  0  0  0
 11  2  1  0  0  0  0
 12 11  2  0  0  0  0
 13 14  2  0  0  0  0
 13 12  1  0  0  0  0
 14 15  1  0  0  0  0
 15 10  2  0  0  0  0
 17 14  1  0  0  0  0
 18 12  1  0  0  0  0
 19 20  1  0  0  0  0
 19 18  1  0  0  0  0
 20 18  1  0  0  0  0
 21 22  1  0  0  0  0
 24 23  1  0  0  0  0
M  END
>  <minimizedAffinity>
-4.73740292

$$$$

 OpenBabel03272509173D

 24 26  0  0  0  0  0  0  0  0999 V2000
   40.0160   23.5490   36.3240 C   0  0  0  0  0  0  0  0  0  0  0  0
   39.2960   24.6270   35.8330 C   0  0  0  0  0  0  0  0  0  0  0  0
   38.1760   24.9490   36.5820 C   0  0  0  0  0  0  0  0  0  0  0  0
   37.8120   24.2440   37.7280 C   0  0  0  0  0  0  0  0  0  0  0  0
   38.5950   23.1750   38.1460 C   0  0  0  0  0  0  0  0  0  0  0  0
   39.7140   22.8200   37.4350 C   0  0  0  0  0  0  0  0  0  0  0  0
   37.5460   25.7810   36.2780 H   0  0  0  0  0  0  0  0  0  0  0  0
   36.9330   24.5120   38.3000 H   0  0  0  0  0  0  0  0  0  0  0  0
   38.3230   22.6170   39.0370 H   0  0  0  0  0  0  0  0  0  0  0  0
   40.4470   26.5070   34.7610 C   0  0  0  0  0  0  0  0  0  0  0  0
   39.6630   25.3540   34.6590 C   0  0  0  0  0  0  0  0  0  0  0  0
   39.2680   24.9590   33.3870 C   0  0  0  0  0  0  0  0  0  0  0  0
   39.6560   25.7040   32.3120 N   0  0  0  0  0  0  0  0  0  0  0  0
   40.4210   26.8190   32.4660 C   0  0  0  0  0  0  0  0  0  0  0  0
   40.8130   27.2180   33.6840 N   0  0  0  0  0  0  0  0  0  0  0  0
   40.7730   26.8420   35.7430 H   0  0  0  0  0  0  0  0  0  0  0  0
   40.6170   27.2620   31.4840 H   0  0  0  0  0  0  0  0  0  0  0  0
   38.4320   23.7370   33.2340 C   0  0  0  0  0  3  0  0  0  0  0  0
   38.2720   23.0630   31.9300 C   0  0  0  0  0  2  0  0  0  0  0  0
   37.1250   23.9330   32.4550 C   0  0  0  0  0  2  0  0  0  0  0  0
   41.1680   23.1340   35.6480 O   0  0  0  0  0  0  0  0  0  0  0  0
   42.0730   23.5380   35.8070 H   0  0  0  0  0  0  0  0  0  0  0  0
   40.4780   21.7460   37.8790 O   0  0  0  0  0  0  0  0  0  0  0  0
   40.4640   20.8380   37.4200 H   0  0  0  0  0  0  0  0  0  0  0  0
  1  6  1  0  0  0  0
  2  1  2  0  0  0  0
  2  3  1  0  0  0  0
  3  4  2  0  0  0  0
  4  5  1  0  0  0  0
  4  8  1  0  0  0  0
  5  9  1  0  0  0  0
  6 23  1  0  0  0  0
  6  5  2  0  0  0  0
  7  3  1  0  0  0  0
 10 16  1  0  0  0  0
 11 10  1  0  0  0  0
 11  2  1  0  0  0  0
 12 11  2  0  0  0  0
 13 14  2  0  0  0  0
 13 12  1  0  0  0  0
 14 15  1  0  0  0  0
 15 10  2  0  0  0  0
 17 14  1  0  0  0  0
 18 12  1  0  0  0  0
 19 20  1  0  0  0  0
 19 18  1  0  0  0  0
 20 18  1  0  0  0  0
 21 22  1  0  0  0  0
 21  1  1  0  0  0  0
 24 23  1  0  0  0  0
M  END
>  <minimizedAffinity>
-4.7321744

$$$$

 OpenBabel03272509173D

 24 26  0  0  0  0  0  0  0  0999 V2000
   37.3880   27.1080   30.7100 C   0  0  0  0  0  0  0  0  0  0  0  0
   37.0700   26.7690   32.0160 C   0  0  0  0  0  0  0  0  0  0  0  0
   36.3040   27.7150   32.6770 C   0  0  0  0  0  0  0  0  0  0  0  0
   35.8930   28.9020   32.0730 C   0  0  0  0  0  0  0  0  0  0  0  0
   36.2600   29.1580   30.7580 C   0  0  0  0  0  0  0  0  0  0  0  0
   37.0190   28.2500   30.0640 C   0  0  0  0  0  0  0  0  0  0  0  0
   36.0020   27.5400   33.7070 H   0  0  0  0  0  0  0  0  0  0  0  0
   35.2940   29.6290   32.6070 H   0  0  0  0  0  0  0  0  0  0  0  0
   35.9470   30.0800   30.2760 H   0  0  0  0  0  0  0  0  0  0  0  0
   36.8720   24.3430   32.3090 C   0  0  0  0  0  0  0  0  0  0  0  0
   37.4870   25.5540   32.6410 C   0  0  0  0  0  0  0  0  0  0  0  0
   38.5030   25.5160   33.5880 C   0  0  0  0  0  0  0  0  0  0  0  0
   38.8470   24.3180   34.1430 N   0  0  0  0  0  0  0  0  0  0  0  0
   38.2160   23.1680   33.7840 C   0  0  0  0  0  0  0  0  0  0  0  0
   37.2340   23.1810   32.8720 N   0  0  0  0  0  0  0  0  0  0  0  0
   36.0740   24.3390   31.5700 H   0  0  0  0  0  0  0  0  0  0  0  0
   38.6440   22.3300   34.3440 H   0  0  0  0  0  0  0  0  0  0  0  0
   39.1840   26.7840   33.9710 C   0  0  0  0  0  3  0  0  0  0  0  0
   40.3550   26.7950   34.8710 C   0  0  0  0  0  2  0  0  0  0  0  0
   38.9910   27.2130   35.4320 C   0  0  0  0  0  2  0  0  0  0  0  0
   38.1590   26.2280   29.9450 O   0  0  0  0  0  0  0  0  0  0  0  0
   37.7650   25.4630   29.4260 H   0  0  0  0  0  0  0  0  0  0  0  0
   37.3700   28.5350   28.7490 O   0  0  0  0  0  0  0  0  0  0  0  0
   38.3080   28.8240   28.4840 H   0  0  0  0  0  0  0  0  0  0  0  0
  1  2  1  0  0  0  0
  2 11  1  0  0  0  0
  2  3  2  0  0  0  0
  3  7  1  0  0  0  0
  4  8  1  0  0  0  0
  4  3  1  0  0  0  0
  5  4  2  0  0  0  0
  6  1  2  0  0  0  0
  6  5  1  0  0  0  0
  9  5  1  0  0  0  0
 10 11  2  0  0  0  0
 10 15  1  0  0  0  0
 11 12  1  0  0  0  0
 12 18  1  0  0  0  0
 12 13  2  0  0  0  0
 14 13  1  0  0  0  0
 14 17  1  0  0  0  0
 15 14  2  0  0  0  0
 16 10  1  0  0  0  0
 18 19  1  0  0  0  0
 18 20  1  0  0  0  0
 19 20  1  0  0  0  0
 21  1  1  0  0  0  0
 22 21  1  0  0  0  0
 23  6  1  0  0  0  0
 24 23  1  0  0  0  0
M  END
>  <minimizedAffinity>
-4.70079088

$$$$

 OpenBabel03272509173D

 24 26  0  0  0  0  0  0  0  0999 V2000
   36.4220   28.8280   30.4980 C   0  0  0  0  0  0  0  0  0  0  0  0
   36.1700   28.0640   31.6270 C   0  0  0  0  0  0  0  0  0  0  0  0
   35.7700   28.7990   32.7320 C   0  0  0  0  0  0  0  0  0  0  0  0
   35.6380   30.1860   32.7010 C   0  0  0  0  0  0  0  0  0  0  0  0
   35.9130   30.8690   31.5240 C   0  0  0  0  0  0  0  0  0  0  0  0
   36.3120   30.1830   30.4040 C   0  0  0  0  0  0  0  0  0  0  0  0
   35.5480   28.2900   33.6660 H   0  0  0  0  0  0  0  0  0  0  0  0
   35.3240   30.7420   33.5750 H   0  0  0  0  0  0  0  0  0  0  0  0
   35.8140   31.9500   31.4860 H   0  0  0  0  0  0  0  0  0  0  0  0
   35.2680   25.8240   31.2060 C   0  0  0  0  0  0  0  0  0  0  0  0
   36.3040   26.6420   31.6660 C   0  0  0  0  0  0  0  0  0  0  0  0
   37.4450   26.0160   32.1510 C   0  0  0  0  0  0  0  0  0  0  0  0
   37.5020   24.6530   32.1580 N   0  0  0  0  0  0  0  0  0  0  0  0
   36.4640   23.9030   31.6970 C   0  0  0  0  0  0  0  0  0  0  0  0
   35.3530   24.4850   31.2240 N   0  0  0  0  0  0  0  0  0  0  0  0
   34.3610   26.2830   30.8190 H   0  0  0  0  0  0  0  0  0  0  0  0
   36.7160   22.8420   31.7910 H   0  0  0  0  0  0  0  0  0  0  0  0
   38.5720   26.8510   32.6520 C   0  0  0  0  0  3  0  0  0  0  0  0
   39.7370   26.2540   33.3350 C   0  0  0  0  0  2  0  0  0  0  0  0
   38.6730   26.9640   34.1780 C   0  0  0  0  0  2  0  0  0  0  0  0
   36.8320   28.1920   29.3230 O   0  0  0  0  0  0  0  0  0  0  0  0
   36.1890   27.8040   28.6570 H   0  0  0  0  0  0  0  0  0  0  0  0
   36.5790   30.8950   29.2400 O   0  0  0  0  0  0  0  0  0  0  0  0
   37.5260   31.0640   28.9080 H   0  0  0  0  0  0  0  0  0  0  0  0
  1  2  1  0  0  0  0
  2 11  1  0  0  0  0
  2  3  2  0  0  0  0
  3  7  1  0  0  0  0
  4  3  1  0  0  0  0
  4  8  1  0  0  0  0
  5  4  2  0  0  0  0
  6  1  2  0  0  0  0
  6  5  1  0  0  0  0
  9  5  1  0  0  0  0
 10 15  2  0  0  0  0
 10 11  1  0  0  0  0
 11 12  2  0  0  0  0
 12 13  1  0  0  0  0
 12 18  1  0  0  0  0
 14 17  1  0  0  0  0
 14 13  2  0  0  0  0
 15 14  1  0  0  0  0
 16 10  1  0  0  0  0
 18 19  1  0  0  0  0
 18 20  1  0  0  0  0
 19 20  1  0  0  0  0
 21  1  1  0  0  0  0
 22 21  1  0  0  0  0
 23  6  1  0  0  0  0
 24 23  1  0  0  0  0
M  END
>  <minimizedAffinity>
-4.64029598

$$$$

 OpenBabel03272509173D

 24 26  0  0  0  0  0  0  0  0999 V2000
   37.1440   21.7750   35.7580 C   0  0  0  0  0  0  0  0  0  0  0  0
   38.0330   22.0690   34.7360 C   0  0  0  0  0  0  0  0  0  0  0  0
   37.6440   21.5990   33.4930 C   0  0  0  0  0  0  0  0  0  0  0  0
   36.4600   20.8900   33.2960 C   0  0  0  0  0  0  0  0  0  0  0  0
   35.6290   20.6410   34.3810 C   0  0  0  0  0  0  0  0  0  0  0  0
   35.9740   21.0880   35.6320 C   0  0  0  0  0  0  0  0  0  0  0  0
   38.2750   21.7800   32.6260 H   0  0  0  0  0  0  0  0  0  0  0  0
   36.1730   20.5310   32.3160 H   0  0  0  0  0  0  0  0  0  0  0  0
   34.7040   20.0900   34.2420 H   0  0  0  0  0  0  0  0  0  0  0  0
   40.4280   22.1180   35.2570 C   0  0  0  0  0  0  0  0  0  0  0  0
   39.2490   22.7940   34.9300 C   0  0  0  0  0  0  0  0  0  0  0  0
   39.3180   24.1770   34.8060 C   0  0  0  0  0  0  0  0  0  0  0  0
   40.5140   24.8010   35.0070 N   0  0  0  0  0  0  0  0  0  0  0  0
   41.6330   24.0950   35.3230 C   0  0  0  0  0  0  0  0  0  0  0  0
   41.5900   22.7610   35.4480 N   0  0  0  0  0  0  0  0  0  0  0  0
   40.4080   21.0360   35.3610 H   0  0  0  0  0  0  0  0  0  0  0  0
   42.4760   24.7850   35.4380 H   0  0  0  0  0  0  0  0  0  0  0  0
   38.0840   24.9350   34.4600 C   0  0  0  0  0  3  0  0  0  0  0  0
   38.1060   26.3950   34.2400 C   0  0  0  0  0  2  0  0  0  0  0  0
   37.5540   25.8580   35.5650 C   0  0  0  0  0  2  0  0  0  0  0  0
   37.4340   22.2010   37.0580 O   0  0  0  0  0  0  0  0  0  0  0  0
   37.1960   23.1140   37.4010 H   0  0  0  0  0  0  0  0  0  0  0  0
   35.1210   20.8240   36.6970 O   0  0  0  0  0  0  0  0  0  0  0  0
   35.3270   20.1170   37.4000 H   0  0  0  0  0  0  0  0  0  0  0  0
  1 21  1  0  0  0  0
  2 11  1  0  0  0  0
  2  1  2  0  0  0  0
  3  2  1  0  0  0  0
  4  3  2  0  0  0  0
  4  5  1  0  0  0  0
  5  6  2  0  0  0  0
  6  1  1  0  0  0  0
  6 23  1  0  0  0  0
  7  3  1  0  0  0  0
  8  4  1  0  0  0  0
  9  5  1  0  0  0  0
 10 16  1  0  0  0  0
 10 15  1  0  0  0  0
 11 10  2  0  0  0  0
 12 11  1  0  0  0  0
 12 13  2  0  0  0  0
 13 14  1  0  0  0  0
 14 17  1  0  0  0  0
 14 15  2  0  0  0  0
 18 12  1  0  0  0  0
 18 20  1  0  0  0  0
 19 18  1  0  0  0  0
 19 20  1  0  0  0  0
 21 22  1  0  0  0  0
 23 24  1  0  0  0  0
M  END
>  <minimizedAffinity>
-4.59917927

$$$$
