
 OpenBabel03262521023D

 31 33  0  0  1  0  0  0  0  0999 V2000
   38.2030   24.3200   36.1470 N   0  0  0  0  0  0  0  0  0  0  0  0
   39.2590   23.6880   35.3890 C   0  0  1  0  0  0  0  0  0  0  0  0
   40.3740   23.2360   36.2960 C   0  0  0  0  0  0  0  0  0  0  0  0
   39.7770   22.3080   37.2660 N   0  0  0  0  0  0  0  0  0  0  0  0
   38.9350   23.1560   38.1220 C   0  0  0  0  0  0  0  0  0  0  0  0
   37.7570   23.5500   37.2570 C   0  0  2  0  0  0  0  0  0  0  0  0
   38.4840   25.2680   36.4250 H   0  0  0  0  0  0  0  0  0  0  0  0
   39.6390   24.4400   34.6860 H   0  0  0  0  0  0  0  0  0  0  0  0
   41.0780   22.6310   35.6990 H   0  0  0  0  0  0  0  0  0  0  0  0
   40.8490   24.0530   36.8500 H   0  0  0  0  0  0  0  0  0  0  0  0
   39.1840   21.6110   36.7930 H   0  0  0  0  0  0  0  0  0  0  0  0
   39.5010   24.0650   38.3890 H   0  0  0  0  0  0  0  0  0  0  0  0
   38.5330   22.6150   38.9820 H   0  0  0  0  0  0  0  0  0  0  0  0
   37.1000   24.2140   37.8790 H   0  0  0  0  0  0  0  0  0  0  0  0
   37.0270   22.3660   36.8620 N   0  0  0  0  0  0  0  0  0  0  0  0
   37.1990   21.5760   37.5410 H   0  0  0  0  0  0  0  0  0  0  0  0
   36.0080   22.5260   36.7320 H   0  0  0  0  0  0  0  0  0  0  0  0
   38.6650   22.1960   34.5370 S   0  0  0  0  0  0  0  0  0  0  0  0
   35.9940   22.1740   31.5020 C   0  0  0  0  0  0  0  0  0  0  0  0
   36.8480   21.7220   32.4850 C   0  0  0  0  0  0  0  0  0  0  0  0
   37.5360   22.6310   33.2430 C   0  0  0  0  0  0  0  0  0  0  0  0
   37.3420   23.9760   32.9870 N   0  0  0  0  0  0  0  0  0  0  0  0
   36.5000   24.3520   32.0210 C   0  0  0  0  0  0  0  0  0  0  0  0
   35.8220   23.4890   31.2720 N   0  0  0  0  0  0  0  0  0  0  0  0
   35.4580   21.4180   30.9140 H   0  0  0  0  0  0  0  0  0  0  0  0
   36.9920   20.6620   32.6770 H   0  0  0  0  0  0  0  0  0  0  0  0
   36.3110   25.7790   31.7800 C   0  0  0  0  0  0  0  0  0  0  0  0
   35.6550   26.2540   30.8310 O   0  0  0  0  0  0  0  0  0  0  0  0
   36.9110   26.7930   32.6880 C   0  0  0  0  0  3  0  0  0  0  0  0
   38.2240   27.3870   32.1070 C   0  0  0  0  0  2  0  0  0  0  0  0
   36.9880   28.2120   32.3460 C   0  0  0  0  0  2  0  0  0  0  0  0
  1  7  1  0  0  0  0
  1  6  1  0  0  0  0
  2  8  1  6  0  0  0
  2  1  1  0  0  0  0
  2  3  1  0  0  0  0
  3 10  1  0  0  0  0
  3  4  1  0  0  0  0
  4  5  1  0  0  0  0
  5 12  1  0  0  0  0
  5 13  1  0  0  0  0
  6 14  1  1  0  0  0
  6  5  1  0  0  0  0
  9  3  1  0  0  0  0
 11  4  1  0  0  0  0
 15  6  1  0  0  0  0
 15 16  1  0  0  0  0
 17 15  1  0  0  0  0
 18  2  1  0  0  0  0
 19 20  1  0  0  0  0
 20 26  1  0  0  0  0
 20 21  2  0  0  0  0
 21 18  1  0  0  0  0
 22 21  1  0  0  0  0
 23 22  2  0  0  0  0
 24 19  2  0  0  0  0
 24 23  1  0  0  0  0
 25 19  1  0  0  0  0
 27 23  1  0  0  0  0
 27 29  1  0  0  0  0
 28 27  2  0  0  0  0
 30 31  1  0  0  0  0
 30 29  1  0  0  0  0
 31 29  1  0  0  0  0
M  END
>  <minimizedAffinity>
-4.91362429

$$$$

 OpenBabel03262521023D

 31 33  0  0  1  0  0  0  0  0999 V2000
   35.7990   19.9580   33.4740 N   0  0  0  0  0  0  0  0  0  0  0  0
   36.6090   20.8170   32.6410 C   0  0  1  0  0  0  0  0  0  0  0  0
   37.5480   20.0050   31.7870 C   0  0  0  0  0  0  0  0  0  0  0  0
   36.7130   19.1030   30.9820 N   0  0  0  0  0  0  0  0  0  0  0  0
   36.1740   18.1360   31.9480 C   0  0  0  0  0  0  0  0  0  0  0  0
   35.1560   18.9080   32.7600 C   0  0  2  0  0  0  0  0  0  0  0  0
   36.3530   19.6030   34.2630 H   0  0  0  0  0  0  0  0  0  0  0  0
   37.1870   21.4600   33.3150 H   0  0  0  0  0  0  0  0  0  0  0  0
   38.0320   20.6860   31.0670 H   0  0  0  0  0  0  0  0  0  0  0  0
   38.2520   19.3960   32.3660 H   0  0  0  0  0  0  0  0  0  0  0  0
   35.9340   19.6150   30.5440 H   0  0  0  0  0  0  0  0  0  0  0  0
   36.9880   17.8080   32.6170 H   0  0  0  0  0  0  0  0  0  0  0  0
   35.6390   17.3140   31.4640 H   0  0  0  0  0  0  0  0  0  0  0  0
   34.7360   18.1990   33.5210 H   0  0  0  0  0  0  0  0  0  0  0  0
   34.1010   19.3830   31.8930 N   0  0  0  0  0  0  0  0  0  0  0  0
   34.0380   18.7910   31.0220 H   0  0  0  0  0  0  0  0  0  0  0  0
   33.1750   19.4540   32.3600 H   0  0  0  0  0  0  0  0  0  0  0  0
   35.5860   21.7810   31.4880 S   0  0  0  0  0  0  0  0  0  0  0  0
   35.6040   25.8140   31.2020 C   0  0  0  0  0  0  0  0  0  0  0  0
   35.2370   24.4980   31.0090 C   0  0  0  0  0  0  0  0  0  0  0  0
   35.9410   23.5100   31.6420 C   0  0  0  0  0  0  0  0  0  0  0  0
   36.9980   23.8770   32.4550 N   0  0  0  0  0  0  0  0  0  0  0  0
   37.3040   25.1680   32.6020 C   0  0  0  0  0  0  0  0  0  0  0  0
   36.6360   26.1460   31.9990 N   0  0  0  0  0  0  0  0  0  0  0  0
   35.0180   26.5810   30.6790 H   0  0  0  0  0  0  0  0  0  0  0  0
   34.4050   24.2230   30.3680 H   0  0  0  0  0  0  0  0  0  0  0  0
   38.4200   25.5240   33.4730 C   0  0  0  0  0  0  0  0  0  0  0  0
   39.4180   24.8030   33.6720 O   0  0  0  0  0  0  0  0  0  0  0  0
   38.4340   26.8190   34.2040 C   0  0  0  0  0  3  0  0  0  0  0  0
   37.9000   26.6720   35.6560 C   0  0  0  0  0  2  0  0  0  0  0  0
   39.3160   27.0730   35.3430 C   0  0  0  0  0  2  0  0  0  0  0  0
  1  7  1  0  0  0  0
  2  8  1  1  0  0  0
  2  1  1  0  0  0  0
  3 10  1  0  0  0  0
  3  2  1  0  0  0  0
  4  3  1  0  0  0  0
  4  5  1  0  0  0  0
  5 12  1  0  0  0  0
  5  6  1  0  0  0  0
  6  1  1  0  0  0  0
  6 14  1  1  0  0  0
  9  3  1  0  0  0  0
 11  4  1  0  0  0  0
 13  5  1  0  0  0  0
 15 17  1  0  0  0  0
 15  6  1  0  0  0  0
 16 15  1  0  0  0  0
 18 21  1  0  0  0  0
 18  2  1  0  0  0  0
 19 24  1  0  0  0  0
 20 19  2  0  0  0  0
 20 21  1  0  0  0  0
 21 22  2  0  0  0  0
 22 23  1  0  0  0  0
 23 27  1  0  0  0  0
 24 23  2  0  0  0  0
 25 19  1  0  0  0  0
 26 20  1  0  0  0  0
 27 28  2  0  0  0  0
 27 29  1  0  0  0  0
 29 31  1  0  0  0  0
 29 30  1  0  0  0  0
 31 30  1  0  0  0  0
M  END
>  <minimizedAffinity>
-4.81968355

$$$$

 OpenBabel03262521023D

 31 33  0  0  1  0  0  0  0  0999 V2000
   36.2800   27.3900   30.2730 N   0  0  0  0  0  0  0  0  0  0  0  0
   37.0750   26.5760   31.1650 C   0  0  1  0  0  0  0  0  0  0  0  0
   38.4890   26.4510   30.6610 C   0  0  0  0  0  0  0  0  0  0  0  0
   39.0210   27.8170   30.5580 N   0  0  0  0  0  0  0  0  0  0  0  0
   38.2880   28.4180   29.4350 C   0  0  0  0  0  0  0  0  0  0  0  0
   36.8810   28.6380   29.9500 C   0  0  2  0  0  0  0  0  0  0  0  0
   36.0300   26.8550   29.4330 H   0  0  0  0  0  0  0  0  0  0  0  0
   36.6060   25.5850   31.1930 H   0  0  0  0  0  0  0  0  0  0  0  0
   39.0890   25.9560   31.4420 H   0  0  0  0  0  0  0  0  0  0  0  0
   38.5640   25.9790   29.6750 H   0  0  0  0  0  0  0  0  0  0  0  0
   38.8270   28.3540   31.4150 H   0  0  0  0  0  0  0  0  0  0  0  0
   38.2540   27.6930   28.6040 H   0  0  0  0  0  0  0  0  0  0  0  0
   38.6820   29.3980   29.1540 H   0  0  0  0  0  0  0  0  0  0  0  0
   36.2890   29.0830   29.1070 H   0  0  0  0  0  0  0  0  0  0  0  0
   36.9100   29.5530   31.0680 N   0  0  0  0  0  0  0  0  0  0  0  0
   37.7750   30.1580   31.0350 H   0  0  0  0  0  0  0  0  0  0  0  0
   36.0550   30.1380   31.1540 H   0  0  0  0  0  0  0  0  0  0  0  0
   37.1920   27.3230   32.8180 S   0  0  0  0  0  0  0  0  0  0  0  0
   40.5340   26.1490   34.7700 C   0  0  0  0  0  0  0  0  0  0  0  0
   39.6820   26.8970   33.9840 C   0  0  0  0  0  0  0  0  0  0  0  0
   38.3950   26.4680   33.7990 C   0  0  0  0  0  0  0  0  0  0  0  0
   38.0020   25.2930   34.4140 N   0  0  0  0  0  0  0  0  0  0  0  0
   38.8740   24.6130   35.1630 C   0  0  0  0  0  0  0  0  0  0  0  0
   40.1280   25.0090   35.3580 N   0  0  0  0  0  0  0  0  0  0  0  0
   41.5580   26.5230   34.8970 H   0  0  0  0  0  0  0  0  0  0  0  0
   40.0020   27.8190   33.5070 H   0  0  0  0  0  0  0  0  0  0  0  0
   38.4270   23.3810   35.8050 C   0  0  0  0  0  0  0  0  0  0  0  0
   38.5590   22.2410   35.3160 O   0  0  0  0  0  0  0  0  0  0  0  0
   37.7610   23.4120   37.1350 C   0  0  0  0  0  3  0  0  0  0  0  0
   38.7820   23.2740   38.2980 C   0  0  0  0  0  2  0  0  0  0  0  0
   37.9480   24.5080   38.0850 C   0  0  0  0  0  2  0  0  0  0  0  0
  1  2  1  0  0  0  0
  2  8  1  1  0  0  0
  2 18  1  0  0  0  0
  3  2  1  0  0  0  0
  3  9  1  0  0  0  0
  4  3  1  0  0  0  0
  4 11  1  0  0  0  0
  5  6  1  0  0  0  0
  5  4  1  0  0  0  0
  6 14  1  6  0  0  0
  6  1  1  0  0  0  0
  6 15  1  0  0  0  0
  7  1  1  0  0  0  0
 10  3  1  0  0  0  0
 12  5  1  0  0  0  0
 13  5  1  0  0  0  0
 15 17  1  0  0  0  0
 16 15  1  0  0  0  0
 18 21  1  0  0  0  0
 19 25  1  0  0  0  0
 19 24  1  0  0  0  0
 20 19  2  0  0  0  0
 21 20  1  0  0  0  0
 21 22  2  0  0  0  0
 22 23  1  0  0  0  0
 23 24  2  0  0  0  0
 23 27  1  0  0  0  0
 26 20  1  0  0  0  0
 27 29  1  0  0  0  0
 28 27  2  0  0  0  0
 29 31  1  0  0  0  0
 29 30  1  0  0  0  0
 31 30  1  0  0  0  0
M  END
>  <minimizedAffinity>
-4.69086409

$$$$

 OpenBabel03262521023D

 31 33  0  0  1  0  0  0  0  0999 V2000
   38.2840   24.3320   36.5480 N   0  0  0  0  0  0  0  0  0  0  0  0
   39.3100   23.5590   35.8850 C   0  0  1  0  0  0  0  0  0  0  0  0
   40.3910   23.1600   36.8540 C   0  0  0  0  0  0  0  0  0  0  0  0
   39.7370   22.3880   37.9200 N   0  0  0  0  0  0  0  0  0  0  0  0
   38.9380   23.3760   38.6570 C   0  0  0  0  0  0  0  0  0  0  0  0
   37.7890   23.7260   37.7350 C   0  0  2  0  0  0  0  0  0  0  0  0
   38.6150   25.2910   36.7150 H   0  0  0  0  0  0  0  0  0  0  0  0
   39.7350   24.2000   35.1030 H   0  0  0  0  0  0  0  0  0  0  0  0
   41.0650   22.4510   36.3430 H   0  0  0  0  0  0  0  0  0  0  0  0
   40.9060   24.0110   37.3130 H   0  0  0  0  0  0  0  0  0  0  0  0
   39.1110   21.6720   37.5250 H   0  0  0  0  0  0  0  0  0  0  0  0
   39.5500   24.2790   38.8210 H   0  0  0  0  0  0  0  0  0  0  0  0
   38.5000   22.9640   39.5700 H   0  0  0  0  0  0  0  0  0  0  0  0
   37.1650   24.4930   38.2650 H   0  0  0  0  0  0  0  0  0  0  0  0
   36.9980   22.5440   37.4740 N   0  0  0  0  0  0  0  0  0  0  0  0
   37.1210   21.8330   38.2440 H   0  0  0  0  0  0  0  0  0  0  0  0
   35.9900   22.7410   37.3120 H   0  0  0  0  0  0  0  0  0  0  0  0
   38.6410   22.0100   35.2090 S   0  0  0  0  0  0  0  0  0  0  0  0
   37.0140   23.6650   31.8980 C   0  0  0  0  0  0  0  0  0  0  0  0
   37.6730   23.5490   33.1040 C   0  0  0  0  0  0  0  0  0  0  0  0
   37.8200   22.3110   33.6680 C   0  0  0  0  0  0  0  0  0  0  0  0
   37.2950   21.2200   32.9970 N   0  0  0  0  0  0  0  0  0  0  0  0
   36.6680   21.3970   31.8330 C   0  0  0  0  0  0  0  0  0  0  0  0
   36.5130   22.5890   31.2650 N   0  0  0  0  0  0  0  0  0  0  0  0
   36.9140   24.6730   31.4740 H   0  0  0  0  0  0  0  0  0  0  0  0
   38.0810   24.4130   33.6200 H   0  0  0  0  0  0  0  0  0  0  0  0
   36.1320   20.2260   31.1450 C   0  0  0  0  0  0  0  0  0  0  0  0
   35.1620   19.5530   31.5480 O   0  0  0  0  0  0  0  0  0  0  0  0
   36.7360   19.7460   29.8730 C   0  0  0  0  0  3  0  0  0  0  0  0
   38.0370   18.9330   30.1180 C   0  0  0  0  0  2  0  0  0  0  0  0
   36.7980   18.3300   29.5140 C   0  0  0  0  0  2  0  0  0  0  0  0
  1  7  1  0  0  0  0
  1  6  1  0  0  0  0
  2  8  1  6  0  0  0
  2  1  1  0  0  0  0
  2  3  1  0  0  0  0
  3 10  1  0  0  0  0
  3  4  1  0  0  0  0
  4  5  1  0  0  0  0
  5 12  1  0  0  0  0
  5 13  1  0  0  0  0
  6 14  1  1  0  0  0
  6  5  1  0  0  0  0
  9  3  1  0  0  0  0
 11  4  1  0  0  0  0
 15  6  1  0  0  0  0
 15 16  1  0  0  0  0
 17 15  1  0  0  0  0
 18  2  1  0  0  0  0
 19 20  1  0  0  0  0
 20 26  1  0  0  0  0
 20 21  2  0  0  0  0
 21 18  1  0  0  0  0
 22 21  1  0  0  0  0
 23 22  2  0  0  0  0
 24 23  1  0  0  0  0
 24 19  2  0  0  0  0
 25 19  1  0  0  0  0
 27 28  2  0  0  0  0
 27 23  1  0  0  0  0
 29 30  1  0  0  0  0
 29 27  1  0  0  0  0
 31 29  1  0  0  0  0
 31 30  1  0  0  0  0
M  END
>  <minimizedAffinity>
-4.66562223

$$$$

 OpenBabel03262521023D

 31 33  0  0  1  0  0  0  0  0999 V2000
   38.3910   22.7080   35.8690 N   0  0  0  0  0  0  0  0  0  0  0  0
   37.7430   23.5240   36.8710 C   0  0  1  0  0  0  0  0  0  0  0  0
   38.1640   23.1070   38.2560 C   0  0  0  0  0  0  0  0  0  0  0  0
   39.6260   23.2430   38.3110 N   0  0  0  0  0  0  0  0  0  0  0  0
   40.1310   22.1720   37.4410 C   0  0  0  0  0  0  0  0  0  0  0  0
   39.8010   22.6140   36.0320 C   0  0  2  0  0  0  0  0  0  0  0  0
   37.9470   21.7830   35.8230 H   0  0  0  0  0  0  0  0  0  0  0  0
   36.6640   23.3740   36.7530 H   0  0  0  0  0  0  0  0  0  0  0  0
   37.7680   23.8470   38.9720 H   0  0  0  0  0  0  0  0  0  0  0  0
   37.9060   22.0700   38.5000 H   0  0  0  0  0  0  0  0  0  0  0  0
   39.9260   24.1540   37.9360 H   0  0  0  0  0  0  0  0  0  0  0  0
   39.5790   21.2430   37.6620 H   0  0  0  0  0  0  0  0  0  0  0  0
   41.2180   22.0650   37.4960 H   0  0  0  0  0  0  0  0  0  0  0  0
   40.1620   21.8070   35.3410 H   0  0  0  0  0  0  0  0  0  0  0  0
   40.4840   23.8540   35.7380 N   0  0  0  0  0  0  0  0  0  0  0  0
   41.3320   23.9700   36.3570 H   0  0  0  0  0  0  0  0  0  0  0  0
   40.7400   23.9650   34.7370 H   0  0  0  0  0  0  0  0  0  0  0  0
   38.2120   25.2730   36.7070 S   0  0  0  0  0  0  0  0  0  0  0  0
   36.8010   27.5040   33.6440 C   0  0  0  0  0  0  0  0  0  0  0  0
   37.1400   27.1200   34.9240 C   0  0  0  0  0  0  0  0  0  0  0  0
   37.7250   25.8980   35.1220 C   0  0  0  0  0  0  0  0  0  0  0  0
   37.9520   25.0950   34.0190 N   0  0  0  0  0  0  0  0  0  0  0  0
   37.6010   25.5230   32.8040 C   0  0  0  0  0  0  0  0  0  0  0  0
   37.0330   26.7050   32.5860 N   0  0  0  0  0  0  0  0  0  0  0  0
   36.3350   28.4900   33.5220 H   0  0  0  0  0  0  0  0  0  0  0  0
   36.9570   27.7600   35.7830 H   0  0  0  0  0  0  0  0  0  0  0  0
   37.8620   24.6560   31.6590 C   0  0  0  0  0  0  0  0  0  0  0  0
   38.9990   24.3130   31.2770 O   0  0  0  0  0  0  0  0  0  0  0  0
   36.7420   24.1080   30.8470 C   0  0  0  0  0  3  0  0  0  0  0  0
   36.2960   22.7060   31.3470 C   0  0  0  0  0  2  0  0  0  0  0  0
   35.3970   23.9130   31.3880 C   0  0  0  0  0  2  0  0  0  0  0  0
  1  6  1  0  0  0  0
  1  2  1  0  0  0  0
  2  8  1  6  0  0  0
  2  3  1  0  0  0  0
  3  4  1  0  0  0  0
  3 10  1  0  0  0  0
  3  9  1  0  0  0  0
  5 13  1  0  0  0  0
  5 12  1  0  0  0  0
  5  4  1  0  0  0  0
  6 14  1  6  0  0  0
  6  5  1  0  0  0  0
  7  1  1  0  0  0  0
 11  4  1  0  0  0  0
 15  6  1  0  0  0  0
 15 16  1  0  0  0  0
 17 15  1  0  0  0  0
 18  2  1  0  0  0  0
 19 20  1  0  0  0  0
 20 21  2  0  0  0  0
 20 26  1  0  0  0  0
 21 18  1  0  0  0  0
 22 21  1  0  0  0  0
 23 22  2  0  0  0  0
 24 23  1  0  0  0  0
 24 19  2  0  0  0  0
 25 19  1  0  0  0  0
 27 23  1  0  0  0  0
 28 27  2  0  0  0  0
 29 30  1  0  0  0  0
 29 31  1  0  0  0  0
 29 27  1  0  0  0  0
 30 31  1  0  0  0  0
M  END
>  <minimizedAffinity>
-4.64990807

$$$$

 OpenBabel03262521023D

 31 33  0  0  1  0  0  0  0  0999 V2000
   36.2160   20.9240   33.5510 N   0  0  0  0  0  0  0  0  0  0  0  0
   36.9560   21.7840   32.6550 C   0  0  1  0  0  0  0  0  0  0  0  0
   37.8570   20.9750   31.7580 C   0  0  0  0  0  0  0  0  0  0  0  0
   36.9920   20.0440   31.0210 N   0  0  0  0  0  0  0  0  0  0  0  0
   36.5330   19.0830   32.0340 C   0  0  0  0  0  0  0  0  0  0  0  0
   35.5520   19.8500   32.8950 C   0  0  2  0  0  0  0  0  0  0  0  0
   36.8250   20.5940   34.3090 H   0  0  0  0  0  0  0  0  0  0  0  0
   37.5610   22.4500   33.2810 H   0  0  0  0  0  0  0  0  0  0  0  0
   38.2820   21.6530   30.9980 H   0  0  0  0  0  0  0  0  0  0  0  0
   38.6080   20.3900   32.3020 H   0  0  0  0  0  0  0  0  0  0  0  0
   36.1770   20.5320   30.6240 H   0  0  0  0  0  0  0  0  0  0  0  0
   37.3940   18.7830   32.6560 H   0  0  0  0  0  0  0  0  0  0  0  0
   35.9860   18.2430   31.5980 H   0  0  0  0  0  0  0  0  0  0  0  0
   35.1930   19.1460   33.6910 H   0  0  0  0  0  0  0  0  0  0  0  0
   34.4360   20.2900   32.0870 N   0  0  0  0  0  0  0  0  0  0  0  0
   34.3310   19.6810   31.2310 H   0  0  0  0  0  0  0  0  0  0  0  0
   33.5400   20.3510   32.6090 H   0  0  0  0  0  0  0  0  0  0  0  0
   35.8440   22.7080   31.5520 S   0  0  0  0  0  0  0  0  0  0  0  0
   35.7040   26.7390   31.2720 C   0  0  0  0  0  0  0  0  0  0  0  0
   35.3650   25.4120   31.1110 C   0  0  0  0  0  0  0  0  0  0  0  0
   36.1550   24.4470   31.6760 C   0  0  0  0  0  0  0  0  0  0  0  0
   37.2690   24.8500   32.3900 N   0  0  0  0  0  0  0  0  0  0  0  0
   37.5450   26.1510   32.5100 C   0  0  0  0  0  0  0  0  0  0  0  0
   36.7930   27.1060   31.9720 N   0  0  0  0  0  0  0  0  0  0  0  0
   35.0480   27.4860   30.8060 H   0  0  0  0  0  0  0  0  0  0  0  0
   34.4870   25.1080   30.5480 H   0  0  0  0  0  0  0  0  0  0  0  0
   38.7230   26.5450   33.2770 C   0  0  0  0  0  0  0  0  0  0  0  0
   39.6690   27.2180   32.8220 O   0  0  0  0  0  0  0  0  0  0  0  0
   38.8720   26.1500   34.7040 C   0  0  0  0  0  3  0  0  0  0  0  0
   38.6630   27.3550   35.6630 C   0  0  0  0  0  2  0  0  0  0  0  0
   37.7520   26.1570   35.6450 C   0  0  0  0  0  2  0  0  0  0  0  0
  1  7  1  0  0  0  0
  2  8  1  1  0  0  0
  2  1  1  0  0  0  0
  3 10  1  0  0  0  0
  3  2  1  0  0  0  0
  4  3  1  0  0  0  0
  4  5  1  0  0  0  0
  5 12  1  0  0  0  0
  5  6  1  0  0  0  0
  6  1  1  0  0  0  0
  6 14  1  1  0  0  0
  9  3  1  0  0  0  0
 11  4  1  0  0  0  0
 13  5  1  0  0  0  0
 15 17  1  0  0  0  0
 15  6  1  0  0  0  0
 16 15  1  0  0  0  0
 18 21  1  0  0  0  0
 18  2  1  0  0  0  0
 19 24  1  0  0  0  0
 20 19  2  0  0  0  0
 20 21  1  0  0  0  0
 21 22  2  0  0  0  0
 22 23  1  0  0  0  0
 23 27  1  0  0  0  0
 24 23  2  0  0  0  0
 25 19  1  0  0  0  0
 26 20  1  0  0  0  0
 27 29  1  0  0  0  0
 28 27  2  0  0  0  0
 29 31  1  0  0  0  0
 29 30  1  0  0  0  0
 31 30  1  0  0  0  0
M  END
>  <minimizedAffinity>
-4.53375387

$$$$

 OpenBabel03262521023D

 31 33  0  0  1  0  0  0  0  0999 V2000
   37.7980   24.4450   36.1480 N   0  0  0  0  0  0  0  0  0  0  0  0
   38.6200   24.6960   34.9860 C   0  0  1  0  0  0  0  0  0  0  0  0
   40.0750   24.4610   35.2960 C   0  0  0  0  0  0  0  0  0  0  0  0
   40.1900   23.0680   35.7480 N   0  0  0  0  0  0  0  0  0  0  0  0
   39.5320   23.0480   37.0620 C   0  0  0  0  0  0  0  0  0  0  0  0
   38.0530   23.1900   36.7690 C   0  0  2  0  0  0  0  0  0  0  0  0
   37.8760   25.2250   36.8120 H   0  0  0  0  0  0  0  0  0  0  0  0
   38.4670   25.7460   34.7090 H   0  0  0  0  0  0  0  0  0  0  0  0
   40.6410   24.5160   34.3500 H   0  0  0  0  0  0  0  0  0  0  0  0
   40.4660   25.1120   36.0870 H   0  0  0  0  0  0  0  0  0  0  0  0
   39.6920   22.4310   35.1100 H   0  0  0  0  0  0  0  0  0  0  0  0
   39.8660   23.9260   37.6410 H   0  0  0  0  0  0  0  0  0  0  0  0
   39.6630   22.0960   37.5820 H   0  0  0  0  0  0  0  0  0  0  0  0
   37.5210   23.1950   37.7570 H   0  0  0  0  0  0  0  0  0  0  0  0
   37.6050   22.0700   35.9730 N   0  0  0  0  0  0  0  0  0  0  0  0
   38.2440   21.2390   36.1030 H   0  0  0  0  0  0  0  0  0  0  0  0
   36.6150   21.8040   36.1440 H   0  0  0  0  0  0  0  0  0  0  0  0
   38.2060   23.5650   33.6240 S   0  0  0  0  0  0  0  0  0  0  0  0
   35.1680   24.3560   31.0750 C   0  0  0  0  0  0  0  0  0  0  0  0
   36.0100   23.6630   31.9200 C   0  0  0  0  0  0  0  0  0  0  0  0
   37.0480   24.3240   32.5190 C   0  0  0  0  0  0  0  0  0  0  0  0
   37.2090   25.6700   32.2470 N   0  0  0  0  0  0  0  0  0  0  0  0
   36.3620   26.2860   31.4200 C   0  0  0  0  0  0  0  0  0  0  0  0
   35.3460   25.6670   30.8270 N   0  0  0  0  0  0  0  0  0  0  0  0
   34.3460   23.7950   30.6120 H   0  0  0  0  0  0  0  0  0  0  0  0
   35.8720   22.6050   32.1250 H   0  0  0  0  0  0  0  0  0  0  0  0
   36.5530   27.7100   31.1600 C   0  0  0  0  0  0  0  0  0  0  0  0
   36.6580   28.2120   30.0230 O   0  0  0  0  0  0  0  0  0  0  0  0
   36.6380   28.6850   32.2800 C   0  0  0  0  0  3  0  0  0  0  0  0
   35.2930   29.4280   32.5050 C   0  0  0  0  0  2  0  0  0  0  0  0
   35.9030   28.5140   33.5330 C   0  0  0  0  0  2  0  0  0  0  0  0
  1  6  1  0  0  0  0
  1  7  1  0  0  0  0
  2  8  1  6  0  0  0
  2  3  1  0  0  0  0
  2  1  1  0  0  0  0
  3  4  1  0  0  0  0
  3 10  1  0  0  0  0
  4  5  1  0  0  0  0
  5 13  1  0  0  0  0
  5 12  1  0  0  0  0
  6  5  1  0  0  0  0
  6 14  1  1  0  0  0
  9  3  1  0  0  0  0
 11  4  1  0  0  0  0
 15 16  1  0  0  0  0
 15 17  1  0  0  0  0
 15  6  1  0  0  0  0
 18  2  1  0  0  0  0
 19 20  1  0  0  0  0
 20 26  1  0  0  0  0
 20 21  2  0  0  0  0
 21 18  1  0  0  0  0
 22 21  1  0  0  0  0
 23 22  2  0  0  0  0
 24 19  2  0  0  0  0
 24 23  1  0  0  0  0
 25 19  1  0  0  0  0
 27 23  1  0  0  0  0
 27 29  1  0  0  0  0
 28 27  2  0  0  0  0
 29 30  1  0  0  0  0
 29 31  1  0  0  0  0
 30 31  1  0  0  0  0
M  END
>  <minimizedAffinity>
-4.49160767

$$$$

 OpenBabel03262521023D

 31 33  0  0  1  0  0  0  0  0999 V2000
   38.1700   25.5320   36.0840 N   0  0  0  0  0  0  0  0  0  0  0  0
   38.2570   26.6690   35.1960 C   0  0  1  0  0  0  0  0  0  0  0  0
   39.6810   26.9060   34.7650 C   0  0  0  0  0  0  0  0  0  0  0  0
   40.1330   25.6720   34.1080 N   0  0  0  0  0  0  0  0  0  0  0  0
   40.2430   24.6910   35.1970 C   0  0  0  0  0  0  0  0  0  0  0  0
   38.8160   24.3670   35.5850 C   0  0  2  0  0  0  0  0  0  0  0  0
   38.5070   25.7870   37.0200 H   0  0  0  0  0  0  0  0  0  0  0  0
   37.8930   27.5390   35.7560 H   0  0  0  0  0  0  0  0  0  0  0  0
   39.6780   27.6790   33.9780 H   0  0  0  0  0  0  0  0  0  0  0  0
   40.3620   27.1210   35.5970 H   0  0  0  0  0  0  0  0  0  0  0  0
   39.4380   25.3420   33.4240 H   0  0  0  0  0  0  0  0  0  0  0  0
   40.7470   25.1660   36.0560 H   0  0  0  0  0  0  0  0  0  0  0  0
   40.7050   23.7540   34.8720 H   0  0  0  0  0  0  0  0  0  0  0  0
   38.8650   23.6280   36.4290 H   0  0  0  0  0  0  0  0  0  0  0  0
   38.1250   23.7810   34.4580 N   0  0  0  0  0  0  0  0  0  0  0  0
   38.8120   23.3470   33.7830 H   0  0  0  0  0  0  0  0  0  0  0  0
   37.3890   23.0980   34.7260 H   0  0  0  0  0  0  0  0  0  0  0  0
   37.3080   26.3940   33.6700 S   0  0  0  0  0  0  0  0  0  0  0  0
   36.2150   29.5310   31.3650 C   0  0  0  0  0  0  0  0  0  0  0  0
   36.7400   28.3110   31.7360 C   0  0  0  0  0  0  0  0  0  0  0  0
   36.6760   27.9280   33.0490 C   0  0  0  0  0  0  0  0  0  0  0  0
   36.0840   28.7900   33.9530 N   0  0  0  0  0  0  0  0  0  0  0  0
   35.5930   29.9590   33.5320 C   0  0  0  0  0  0  0  0  0  0  0  0
   35.6420   30.3520   32.2640 N   0  0  0  0  0  0  0  0  0  0  0  0
   36.2830   29.8060   30.3040 H   0  0  0  0  0  0  0  0  0  0  0  0
   37.2030   27.6430   31.0160 H   0  0  0  0  0  0  0  0  0  0  0  0
   34.9660   30.8430   34.5100 C   0  0  0  0  0  0  0  0  0  0  0  0
   33.8190   31.3210   34.3960 O   0  0  0  0  0  0  0  0  0  0  0  0
   35.6850   31.2420   35.7490 C   0  0  0  0  0  3  0  0  0  0  0  0
   36.2850   32.6710   35.6360 C   0  0  0  0  0  2  0  0  0  0  0  0
   35.2100   32.3120   36.6270 C   0  0  0  0  0  2  0  0  0  0  0  0
  1  7  1  0  0  0  0
  2  8  1  1  0  0  0
  2  1  1  0  0  0  0
  3  2  1  0  0  0  0
  3 10  1  0  0  0  0
  4  3  1  0  0  0  0
  4  5  1  0  0  0  0
  5  6  1  0  0  0  0
  5 12  1  0  0  0  0
  6  1  1  0  0  0  0
  6 14  1  1  0  0  0
  9  3  1  0  0  0  0
 11  4  1  0  0  0  0
 13  5  1  0  0  0  0
 15 17  1  0  0  0  0
 15  6  1  0  0  0  0
 16 15  1  0  0  0  0
 18  2  1  0  0  0  0
 19 20  2  0  0  0  0
 19 24  1  0  0  0  0
 20 21  1  0  0  0  0
 21 18  1  0  0  0  0
 21 22  2  0  0  0  0
 23 22  1  0  0  0  0
 23 27  1  0  0  0  0
 24 23  2  0  0  0  0
 25 19  1  0  0  0  0
 26 20  1  0  0  0  0
 27 29  1  0  0  0  0
 28 27  2  0  0  0  0
 29 31  1  0  0  0  0
 30 29  1  0  0  0  0
 30 31  1  0  0  0  0
M  END
>  <minimizedAffinity>
-4.44360399

$$$$

 OpenBabel03262521023D

 31 33  0  0  1  0  0  0  0  0999 V2000
   37.8230   26.2870   32.1550 N   0  0  0  0  0  0  0  0  0  0  0  0
   36.3800   26.3110   32.0750 C   0  0  1  0  0  0  0  0  0  0  0  0
   35.9030   27.5370   31.3400 C   0  0  0  0  0  0  0  0  0  0  0  0
   36.5180   27.4930   30.0060 N   0  0  0  0  0  0  0  0  0  0  0  0
   37.9450   27.7470   30.2460 C   0  0  0  0  0  0  0  0  0  0  0  0
   38.4690   26.4880   30.9030 C   0  0  2  0  0  0  0  0  0  0  0  0
   38.1500   26.9520   32.8660 H   0  0  0  0  0  0  0  0  0  0  0  0
   36.0050   26.3300   33.1050 H   0  0  0  0  0  0  0  0  0  0  0  0
   34.8180   27.4360   31.1730 H   0  0  0  0  0  0  0  0  0  0  0  0
   36.1940   28.4780   31.8210 H   0  0  0  0  0  0  0  0  0  0  0  0
   36.4060   26.5630   29.5790 H   0  0  0  0  0  0  0  0  0  0  0  0
   38.0440   28.5870   30.9560 H   0  0  0  0  0  0  0  0  0  0  0  0
   38.5090   27.8810   29.3190 H   0  0  0  0  0  0  0  0  0  0  0  0
   39.5580   26.6560   31.1140 H   0  0  0  0  0  0  0  0  0  0  0  0
   38.3090   25.3670   30.0040 N   0  0  0  0  0  0  0  0  0  0  0  0
   38.2550   25.6960   29.0020 H   0  0  0  0  0  0  0  0  0  0  0  0
   39.0380   24.6350   30.1120 H   0  0  0  0  0  0  0  0  0  0  0  0
   35.7430   24.8860   31.1440 S   0  0  0  0  0  0  0  0  0  0  0  0
   35.9400   21.0900   32.5250 C   0  0  0  0  0  0  0  0  0  0  0  0
   35.4820   22.2120   31.8650 C   0  0  0  0  0  0  0  0  0  0  0  0
   36.2080   23.3710   31.9360 C   0  0  0  0  0  0  0  0  0  0  0  0
   37.3780   23.3660   32.6730 N   0  0  0  0  0  0  0  0  0  0  0  0
   37.7690   22.2480   33.2890 C   0  0  0  0  0  0  0  0  0  0  0  0
   37.0830   21.1110   33.2350 N   0  0  0  0  0  0  0  0  0  0  0  0
   35.3330   20.1790   32.4460 H   0  0  0  0  0  0  0  0  0  0  0  0
   34.5610   22.2030   31.2900 H   0  0  0  0  0  0  0  0  0  0  0  0
   39.0130   22.2720   34.0520 C   0  0  0  0  0  0  0  0  0  0  0  0
   40.1530   22.2370   33.5460 O   0  0  0  0  0  0  0  0  0  0  0  0
   38.9950   22.3430   35.5380 C   0  0  0  0  0  3  0  0  0  0  0  0
   39.0470   23.8090   36.0490 C   0  0  0  0  0  2  0  0  0  0  0  0
   37.8710   22.9010   36.2880 C   0  0  0  0  0  2  0  0  0  0  0  0
  1  7  1  0  0  0  0
  2  1  1  0  0  0  0
  2  8  1  1  0  0  0
  3 10  1  0  0  0  0
  3  2  1  0  0  0  0
  4  5  1  0  0  0  0
  4  3  1  0  0  0  0
  5  6  1  0  0  0  0
  5 12  1  0  0  0  0
  6 14  1  1  0  0  0
  6  1  1  0  0  0  0
  9  3  1  0  0  0  0
 11  4  1  0  0  0  0
 13  5  1  0  0  0  0
 15 17  1  0  0  0  0
 15  6  1  0  0  0  0
 16 15  1  0  0  0  0
 18 21  1  0  0  0  0
 18  2  1  0  0  0  0
 19 24  1  0  0  0  0
 20 21  1  0  0  0  0
 20 19  2  0  0  0  0
 21 22  2  0  0  0  0
 22 23  1  0  0  0  0
 23 27  1  0  0  0  0
 24 23  2  0  0  0  0
 25 19  1  0  0  0  0
 26 20  1  0  0  0  0
 27 29  1  0  0  0  0
 28 27  2  0  0  0  0
 29 30  1  0  0  0  0
 29 31  1  0  0  0  0
 30 31  1  0  0  0  0
M  END
>  <minimizedAffinity>
-4.42917204

$$$$
