
 OpenBabel03262521013D

 31 33  0  0  1  0  0  0  0  0999 V2000
   39.6640   32.9520   43.4580 N   0  0  0  0  0  0  0  0  0  0  0  0
   38.7200   32.7670   44.5360 C   0  0  1  0  0  0  0  0  0  0  0  0
   37.4270   32.1870   44.0240 C   0  0  0  0  0  0  0  0  0  0  0  0
   37.7650   30.9120   43.3770 N   0  0  0  0  0  0  0  0  0  0  0  0
   38.4970   31.2950   42.1610 C   0  0  0  0  0  0  0  0  0  0  0  0
   39.8400   31.7970   42.6470 C   0  0  2  0  0  0  0  0  0  0  0  0
   39.4090   33.7770   42.9010 H   0  0  0  0  0  0  0  0  0  0  0  0
   38.5330   33.7570   44.9690 H   0  0  0  0  0  0  0  0  0  0  0  0
   36.8010   31.9240   44.8930 H   0  0  0  0  0  0  0  0  0  0  0  0
   36.9220   32.8230   43.2870 H   0  0  0  0  0  0  0  0  0  0  0  0
   38.3790   30.3450   43.9770 H   0  0  0  0  0  0  0  0  0  0  0  0
   37.9630   32.1260   41.6700 H   0  0  0  0  0  0  0  0  0  0  0  0
   38.6930   30.4430   41.5040 H   0  0  0  0  0  0  0  0  0  0  0  0
   40.4200   32.1130   41.7400 H   0  0  0  0  0  0  0  0  0  0  0  0
   40.5390   30.7320   43.3320 N   0  0  0  0  0  0  0  0  0  0  0  0
   40.1860   29.7890   43.0140 H   0  0  0  0  0  0  0  0  0  0  0  0
   41.5730   30.7870   43.2470 H   0  0  0  0  0  0  0  0  0  0  0  0
   39.3450   31.5900   45.7720 S   0  0  0  0  0  0  0  0  0  0  0  0
   39.0520   33.7340   49.1870 C   0  0  0  0  0  0  0  0  0  0  0  0
   39.3790   33.3890   47.8930 C   0  0  0  0  0  0  0  0  0  0  0  0
   38.9950   32.1670   47.4100 C   0  0  0  0  0  0  0  0  0  0  0  0
   38.2900   31.3240   48.2500 N   0  0  0  0  0  0  0  0  0  0  0  0
   38.0030   31.7150   49.4930 C   0  0  0  0  0  0  0  0  0  0  0  0
   38.3640   32.8960   49.9850 N   0  0  0  0  0  0  0  0  0  0  0  0
   39.3750   34.7220   49.5410 H   0  0  0  0  0  0  0  0  0  0  0  0
   39.9330   34.0600   47.2430 H   0  0  0  0  0  0  0  0  0  0  0  0
   37.2500   30.8070   50.3530 C   0  0  0  0  0  0  0  0  0  0  0  0
   37.6660   30.3540   51.4380 O   0  0  0  0  0  0  0  0  0  0  0  0
   35.8880   30.3480   49.9690 C   0  0  0  0  0  3  0  0  0  0  0  0
   35.9030   28.9090   49.3840 C   0  0  0  0  0  2  0  0  0  0  0  0
   35.1960   29.2630   50.6640 C   0  0  0  0  0  2  0  0  0  0  0  0
  1  2  1  0  0  0  0
  2  8  1  1  0  0  0
  2 18  1  0  0  0  0
  3  2  1  0  0  0  0
  3  9  1  0  0  0  0
  4 11  1  0  0  0  0
  4  3  1  0  0  0  0
  5  6  1  0  0  0  0
  5  4  1  0  0  0  0
  6 14  1  6  0  0  0
  6 15  1  0  0  0  0
  6  1  1  0  0  0  0
  7  1  1  0  0  0  0
 10  3  1  0  0  0  0
 12  5  1  0  0  0  0
 13  5  1  0  0  0  0
 16 15  1  0  0  0  0
 17 15  1  0  0  0  0
 18 21  1  0  0  0  0
 19 25  1  0  0  0  0
 19 24  1  0  0  0  0
 20 19  2  0  0  0  0
 21 20  1  0  0  0  0
 21 22  2  0  0  0  0
 22 23  1  0  0  0  0
 23 24  2  0  0  0  0
 23 27  1  0  0  0  0
 26 20  1  0  0  0  0
 27 28  2  0  0  0  0
 29 27  1  0  0  0  0
 29 31  1  0  0  0  0
 30 29  1  0  0  0  0
 30 31  1  0  0  0  0
M  END
>  <minimizedAffinity>
-5.56338787

>  <minimizedRMSD>
2.73910022

$$$$
