
 OpenBabel03262521013D

 31 33  0  0  1  0  0  0  0  0999 V2000
   39.7940   32.9970   45.9850 N   0  0  0  0  0  0  0  0  0  0  0  0
   38.4570   32.4510   46.0360 C   0  0  1  0  0  0  0  0  0  0  0  0
   37.9370   32.1740   44.6490 C   0  0  0  0  0  0  0  0  0  0  0  0
   38.8810   31.2360   44.0260 N   0  0  0  0  0  0  0  0  0  0  0  0
   40.1000   32.0270   43.8050 C   0  0  0  0  0  0  0  0  0  0  0  0
   40.6910   32.2400   45.1820 C   0  0  2  0  0  0  0  0  0  0  0  0
   39.7640   33.9840   45.7020 H   0  0  0  0  0  0  0  0  0  0  0  0
   37.8250   33.2030   46.5220 H   0  0  0  0  0  0  0  0  0  0  0  0
   36.9860   31.6230   44.7430 H   0  0  0  0  0  0  0  0  0  0  0  0
   37.8740   33.0680   44.0170 H   0  0  0  0  0  0  0  0  0  0  0  0
   39.0950   30.4530   44.6590 H   0  0  0  0  0  0  0  0  0  0  0  0
   39.8180   33.0060   43.3830 H   0  0  0  0  0  0  0  0  0  0  0  0
   40.8480   31.4880   43.2160 H   0  0  0  0  0  0  0  0  0  0  0  0
   41.6190   32.8560   45.0490 H   0  0  0  0  0  0  0  0  0  0  0  0
   41.0290   30.9620   45.7700 N   0  0  0  0  0  0  0  0  0  0  0  0
   41.1750   30.2330   45.0200 H   0  0  0  0  0  0  0  0  0  0  0  0
   41.8450   30.9990   46.4120 H   0  0  0  0  0  0  0  0  0  0  0  0
   38.4220   30.8590   46.9140 S   0  0  0  0  0  0  0  0  0  0  0  0
   35.5120   30.7210   49.7180 C   0  0  0  0  0  0  0  0  0  0  0  0
   36.7500   30.9000   49.1360 C   0  0  0  0  0  0  0  0  0  0  0  0
   36.8960   30.6710   47.7950 C   0  0  0  0  0  0  0  0  0  0  0  0
   35.7870   30.2670   47.0750 N   0  0  0  0  0  0  0  0  0  0  0  0
   34.6150   30.1110   47.6950 C   0  0  0  0  0  0  0  0  0  0  0  0
   34.4470   30.3270   48.9960 N   0  0  0  0  0  0  0  0  0  0  0  0
   35.4300   30.9130   50.7960 H   0  0  0  0  0  0  0  0  0  0  0  0
   37.6140   31.2180   49.7120 H   0  0  0  0  0  0  0  0  0  0  0  0
   33.4600   29.6910   46.9070 C   0  0  0  0  0  0  0  0  0  0  0  0
   33.0360   28.5190   46.8440 O   0  0  0  0  0  0  0  0  0  0  0  0
   32.6900   30.6740   46.0980 C   0  0  0  0  0  3  0  0  0  0  0  0
   33.0960   30.6360   44.5980 C   0  0  0  0  0  2  0  0  0  0  0  0
   31.7180   30.2710   45.0820 C   0  0  0  0  0  2  0  0  0  0  0  0
  1  2  1  0  0  0  0
  2  8  1  1  0  0  0
  2 18  1  0  0  0  0
  3  9  1  0  0  0  0
  3  2  1  0  0  0  0
  4  3  1  0  0  0  0
  4 11  1  0  0  0  0
  5  4  1  0  0  0  0
  5  6  1  0  0  0  0
  6 14  1  6  0  0  0
  6 15  1  0  0  0  0
  6  1  1  0  0  0  0
  7  1  1  0  0  0  0
 10  3  1  0  0  0  0
 12  5  1  0  0  0  0
 13  5  1  0  0  0  0
 15 17  1  0  0  0  0
 16 15  1  0  0  0  0
 18 21  1  0  0  0  0
 19 25  1  0  0  0  0
 20 26  1  0  0  0  0
 20 19  1  0  0  0  0
 21 20  2  0  0  0  0
 22 23  2  0  0  0  0
 22 21  1  0  0  0  0
 23 24  1  0  0  0  0
 24 19  2  0  0  0  0
 27 23  1  0  0  0  0
 28 27  2  0  0  0  0
 29 27  1  0  0  0  0
 30 31  1  0  0  0  0
 30 29  1  0  0  0  0
 31 29  1  0  0  0  0
M  END
>  <minimizedAffinity>
-5.0154376

>  <minimizedRMSD>
3.04196215

$$$$
