
 OpenBabel03262521013D

 31 33  0  0  1  0  0  0  0  0999 V2000
   38.2860   32.9590   44.5340 N   0  0  0  0  0  0  0  0  0  0  0  0
   37.9230   31.5720   44.7160 C   0  0  1  0  0  0  0  0  0  0  0  0
   38.1680   30.7830   43.4560 C   0  0  0  0  0  0  0  0  0  0  0  0
   39.5940   30.9320   43.1370 N   0  0  0  0  0  0  0  0  0  0  0  0
   39.7380   32.3340   42.7200 C   0  0  0  0  0  0  0  0  0  0  0  0
   39.5870   33.1440   43.9900 C   0  0  2  0  0  0  0  0  0  0  0  0
   37.5670   33.4440   43.9830 H   0  0  0  0  0  0  0  0  0  0  0  0
   36.8550   31.5520   44.9610 H   0  0  0  0  0  0  0  0  0  0  0  0
   38.0230   29.7150   43.6860 H   0  0  0  0  0  0  0  0  0  0  0  0
   37.5850   31.1360   42.5970 H   0  0  0  0  0  0  0  0  0  0  0  0
   40.1780   30.7640   43.9680 H   0  0  0  0  0  0  0  0  0  0  0  0
   38.9120   32.5890   42.0350 H   0  0  0  0  0  0  0  0  0  0  0  0
   40.7320   32.5520   42.3190 H   0  0  0  0  0  0  0  0  0  0  0  0
   39.6770   34.2250   43.7030 H   0  0  0  0  0  0  0  0  0  0  0  0
   40.6380   32.7930   44.9190 N   0  0  0  0  0  0  0  0  0  0  0  0
   41.4700   32.3890   44.4080 H   0  0  0  0  0  0  0  0  0  0  0  0
   40.9300   33.5750   45.5380 H   0  0  0  0  0  0  0  0  0  0  0  0
   38.9340   30.7860   46.0070 S   0  0  0  0  0  0  0  0  0  0  0  0
   38.1130   32.8810   49.3660 C   0  0  0  0  0  0  0  0  0  0  0  0
   38.5640   32.5830   48.0970 C   0  0  0  0  0  0  0  0  0  0  0  0
   38.4050   31.3120   47.6130 C   0  0  0  0  0  0  0  0  0  0  0  0
   37.7930   30.3750   48.4260 N   0  0  0  0  0  0  0  0  0  0  0  0
   37.3780   30.7240   49.6460 C   0  0  0  0  0  0  0  0  0  0  0  0
   37.5210   31.9510   50.1380 N   0  0  0  0  0  0  0  0  0  0  0  0
   38.2570   33.9090   49.7220 H   0  0  0  0  0  0  0  0  0  0  0  0
   39.0420   33.3280   47.4690 H   0  0  0  0  0  0  0  0  0  0  0  0
   36.7290   29.7150   50.4760 C   0  0  0  0  0  0  0  0  0  0  0  0
   37.0480   29.4580   51.6550 O   0  0  0  0  0  0  0  0  0  0  0  0
   35.6030   28.8990   49.9460 C   0  0  0  0  0  3  0  0  0  0  0  0
   34.2220   29.5060   50.3170 C   0  0  0  0  0  2  0  0  0  0  0  0
   34.7050   29.3810   48.8980 C   0  0  0  0  0  2  0  0  0  0  0  0
  1  2  1  0  0  0  0
  2  8  1  1  0  0  0
  2 18  1  0  0  0  0
  3  9  1  0  0  0  0
  3  2  1  0  0  0  0
  4  3  1  0  0  0  0
  4 11  1  0  0  0  0
  5  4  1  0  0  0  0
  5  6  1  0  0  0  0
  6 14  1  6  0  0  0
  6  1  1  0  0  0  0
  6 15  1  0  0  0  0
  7  1  1  0  0  0  0
 10  3  1  0  0  0  0
 12  5  1  0  0  0  0
 13  5  1  0  0  0  0
 15 17  1  0  0  0  0
 16 15  1  0  0  0  0
 18 21  1  0  0  0  0
 19 25  1  0  0  0  0
 19 24  1  0  0  0  0
 20 19  2  0  0  0  0
 21 20  1  0  0  0  0
 21 22  2  0  0  0  0
 22 23  1  0  0  0  0
 23 24  2  0  0  0  0
 23 27  1  0  0  0  0
 26 20  1  0  0  0  0
 27 28  2  0  0  0  0
 29 30  1  0  0  0  0
 29 27  1  0  0  0  0
 31 29  1  0  0  0  0
 31 30  1  0  0  0  0
M  END
>  <minimizedAffinity>
-5.83690739

>  <minimizedRMSD>
2.10760164

$$$$
