
 OpenBabel03262521013D

 31 33  0  0  1  0  0  0  0  0999 V2000
   40.0100   32.7860   43.8410 N   0  0  0  0  0  0  0  0  0  0  0  0
   39.0840   32.7090   44.9480 C   0  0  1  0  0  0  0  0  0  0  0  0
   37.7390   32.2080   44.4880 C   0  0  0  0  0  0  0  0  0  0  0  0
   37.9660   30.8900   43.8800 N   0  0  0  0  0  0  0  0  0  0  0  0
   38.6920   31.1750   42.6340 C   0  0  0  0  0  0  0  0  0  0  0  0
   40.0800   31.5930   43.0690 C   0  0  2  0  0  0  0  0  0  0  0  0
   39.8020   33.6070   43.2610 H   0  0  0  0  0  0  0  0  0  0  0  0
   38.9810   33.7240   45.3480 H   0  0  0  0  0  0  0  0  0  0  0  0
   37.1180   32.0220   45.3800 H   0  0  0  0  0  0  0  0  0  0  0  0
   37.2620   32.8530   43.7410 H   0  0  0  0  0  0  0  0  0  0  0  0
   38.5530   30.3000   44.4870 H   0  0  0  0  0  0  0  0  0  0  0  0
   38.2070   32.0250   42.1260 H   0  0  0  0  0  0  0  0  0  0  0  0
   38.8080   30.2890   42.0050 H   0  0  0  0  0  0  0  0  0  0  0  0
   40.6580   31.8340   42.1380 H   0  0  0  0  0  0  0  0  0  0  0  0
   40.7180   30.5040   43.7760 N   0  0  0  0  0  0  0  0  0  0  0  0
   40.2890   29.5790   43.5020 H   0  0  0  0  0  0  0  0  0  0  0  0
   41.7500   30.4800   43.6640 H   0  0  0  0  0  0  0  0  0  0  0  0
   39.6540   31.5320   46.2110 S   0  0  0  0  0  0  0  0  0  0  0  0
   37.7780   32.9720   49.4910 C   0  0  0  0  0  0  0  0  0  0  0  0
   38.5170   32.9350   48.3270 C   0  0  0  0  0  0  0  0  0  0  0  0
   38.7270   31.7320   47.7070 C   0  0  0  0  0  0  0  0  0  0  0  0
   38.1840   30.5970   48.2810 N   0  0  0  0  0  0  0  0  0  0  0  0
   37.4770   30.6980   49.4090 C   0  0  0  0  0  0  0  0  0  0  0  0
   37.2590   31.8530   50.0290 N   0  0  0  0  0  0  0  0  0  0  0  0
   37.6300   33.9530   49.9600 H   0  0  0  0  0  0  0  0  0  0  0  0
   38.9390   33.8330   47.8860 H   0  0  0  0  0  0  0  0  0  0  0  0
   36.9090   29.4830   49.9860 C   0  0  0  0  0  0  0  0  0  0  0  0
   37.4150   28.8470   50.9330 O   0  0  0  0  0  0  0  0  0  0  0  0
   35.6430   28.9080   49.4580 C   0  0  0  0  0  0  0  0  0  0  0  0
   34.3970   29.4860   50.1840 C   0  0  0  0  0  0  0  0  0  0  0  0
   34.6630   29.7030   48.7190 C   0  0  0  0  0  0  0  0  0  0  0  0
  1  2  1  0  0  0  0
  2  8  1  1  0  0  0
  2 18  1  0  0  0  0
  3  2  1  0  0  0  0
  3  9  1  0  0  0  0
  4 11  1  0  0  0  0
  4  3  1  0  0  0  0
  5  6  1  0  0  0  0
  5  4  1  0  0  0  0
  6 14  1  6  0  0  0
  6 15  1  0  0  0  0
  6  1  1  0  0  0  0
  7  1  1  0  0  0  0
 10  3  1  0  0  0  0
 12  5  1  0  0  0  0
 13  5  1  0  0  0  0
 16 15  1  0  0  0  0
 17 15  1  0  0  0  0
 18 21  1  0  0  0  0
 19 25  1  0  0  0  0
 19 24  1  0  0  0  0
 20 19  2  0  0  0  0
 21 22  2  0  0  0  0
 21 20  1  0  0  0  0
 22 23  1  0  0  0  0
 23 27  1  0  0  0  0
 23 24  2  0  0  0  0
 26 20  1  0  0  0  0
 27 28  2  0  0  0  0
 29 27  1  0  0  0  0
 29 30  1  0  0  0  0
 31 29  1  0  0  0  0
 31 30  1  0  0  0  0
M  END
>  <minimizedAffinity>
-5.86694193

>  <minimizedRMSD>
2.17468762

$$$$
