
 OpenBabel03272505353D

 31 34  0  0  1  0  0  0  0  0999 V2000
   37.6010   30.8010   49.4910 C   0  0  0  0  0  0  0  0  0  0  0  0
   37.2900   32.1360   49.7050 C   0  0  0  0  0  0  0  0  0  0  0  0
   37.6070   33.0480   48.6670 C   0  0  0  0  0  0  0  0  0  0  0  0
   38.1930   32.5520   47.5340 N   0  0  0  0  0  0  0  0  0  0  0  0
   38.4650   31.2640   47.3910 C   0  0  0  0  0  0  0  0  0  0  0  0
   38.1750   30.3780   48.3610 N   0  0  0  0  0  0  0  0  0  0  0  0
   39.0810   30.8400   46.1700 N   0  0  0  0  0  0  0  0  0  0  0  0
   40.5170   30.7850   46.0680 C   0  0  0  0  0  0  0  0  0  0  0  0
   40.9990   31.3550   44.7550 C   0  0  0  0  0  0  0  0  0  0  0  0
   40.2650   30.8390   43.6430 N   0  0  0  0  0  0  0  0  0  0  0  0
   39.2290   29.8880   43.9670 C   0  0  0  0  0  0  0  0  0  0  0  0
   38.2960   30.4570   45.0260 C   0  0  2  0  0  0  0  0  0  0  0  0
   36.8260   32.5020   50.6110 H   0  0  0  0  0  0  0  0  0  0  0  0
   37.3870   34.1010   48.7790 H   0  0  0  0  0  0  0  0  0  0  0  0
   41.0350   31.3740   46.8680 H   0  0  0  0  0  0  0  0  0  0  0  0
   40.8280   29.7060   46.1260 H   0  0  0  0  0  0  0  0  0  0  0  0
   42.0650   31.0610   44.6640 H   0  0  0  0  0  0  0  0  0  0  0  0
   40.8550   32.4560   44.8000 H   0  0  0  0  0  0  0  0  0  0  0  0
   39.8520   31.5860   43.0350 H   0  0  0  0  0  0  0  0  0  0  0  0
   38.6420   29.7270   43.0480 H   0  0  0  0  0  0  0  0  0  0  0  0
   39.6600   28.9530   44.3780 H   0  0  0  0  0  0  0  0  0  0  0  0
   37.6210   29.6250   45.3440 H   0  0  0  0  0  0  0  0  0  0  0  0
   37.2740   29.8190   50.5770 C   0  0  0  0  0  0  0  0  0  0  0  0
   35.8820   29.6140   50.6230 F   0  0  0  0  0  0  0  0  0  0  0  0
   37.9930   28.6950   50.3730 F   0  0  0  0  0  0  0  0  0  0  0  0
   37.5860   30.4510   51.7970 F   0  0  0  0  0  0  0  0  0  0  0  0
   37.4520   31.5250   44.4790 C   0  0  1  0  0  3  0  0  0  0  0  0
   37.9360   32.6470   44.2230 O   0  0  0  0  0  0  0  0  0  0  0  0
   36.5120   32.5170   43.9320 C   0  0  0  0  0  0  0  0  0  0  0  0
   35.5230   32.2550   42.8920 C   0  0  0  0  0  2  0  0  0  0  0  0
   36.8080   32.8900   42.4570 C   0  0  0  0  0  2  0  0  0  0  0  0
  1  2  1  0  0  0  0
  1 23  1  0  0  0  0
  2 13  1  0  0  0  0
  3 14  1  0  0  0  0
  3  2  2  0  0  0  0
  4  3  1  0  0  0  0
  5  4  2  0  0  0  0
  5  6  1  0  0  0  0
  6  1  2  0  0  0  0
  7  5  1  0  0  0  0
  8 16  1  0  0  0  0
  8  7  1  0  0  0  0
  8 15  1  0  0  0  0
  9 18  1  0  0  0  0
  9  8  1  0  0  0  0
 10 11  1  0  0  0  0
 10  9  1  0  0  0  0
 11 21  1  0  0  0  0
 11 12  1  0  0  0  0
 12 22  1  1  0  0  0
 12  7  1  0  0  0  0
 17  9  1  0  0  0  0
 19 10  1  0  0  0  0
 20 11  1  0  0  0  0
 23 24  1  0  0  0  0
 23 26  1  0  0  0  0
 25 23  1  0  0  0  0
 27 28  1  6  0  0  0
 27 12  1  0  0  0  0
 29 28  1  0  0  0  0
 29 27  1  0  0  0  0
 30 29  1  0  0  0  0
 31 30  1  0  0  0  0
 31 29  1  0  0  0  0
M  END
>  <minimizedAffinity>
-4.98608255

>  <minimizedRMSD>
0.701283038

$$$$
