
 OpenBabel03272510143D

 34 36  0  0  0  0  0  0  0  0999 V2000
   35.6730   29.1670   34.1290 C   0  0  0  0  0  0  0  0  0  0  0  0
   36.5780   28.2580   34.5590 C   0  0  0  0  0  0  0  0  0  0  0  0
   37.0590   27.2160   33.8120 C   0  0  0  0  0  0  0  0  0  0  0  0
   36.6370   27.0250   32.5400 C   0  0  0  0  0  0  0  0  0  0  0  0
   35.6930   27.9610   32.0710 C   0  0  0  0  0  0  0  0  0  0  0  0
   35.2460   28.9740   32.8400 N   0  0  0  0  0  0  0  0  0  0  0  0
   36.9760   28.3350   35.5760 H   0  0  0  0  0  0  0  0  0  0  0  0
   37.7880   26.4890   34.1680 H   0  0  0  0  0  0  0  0  0  0  0  0
   35.2980   27.8850   31.0620 H   0  0  0  0  0  0  0  0  0  0  0  0
   35.9700   31.1030   35.6610 C   0  0  0  0  0  0  0  0  0  0  0  0
   35.1640   30.2600   34.8990 C   0  0  0  0  0  0  0  0  0  0  0  0
   33.8160   30.5210   34.9120 C   0  0  0  0  0  0  0  0  0  0  0  0
   33.3340   31.5670   35.6510 N   0  0  0  0  0  0  0  0  0  0  0  0
   34.1720   32.3570   36.3750 C   0  0  0  0  0  0  0  0  0  0  0  0
   35.5090   32.1330   36.3890 N   0  0  0  0  0  0  0  0  0  0  0  0
   37.0340   30.9380   35.6830 H   0  0  0  0  0  0  0  0  0  0  0  0
   33.1460   29.8910   34.3340 H   0  0  0  0  0  0  0  0  0  0  0  0
   33.8180   33.1890   36.9670 H   0  0  0  0  0  0  0  0  0  0  0  0
   37.0010   26.0430   31.6390 O   0  0  0  0  0  0  0  0  0  0  0  0
   36.7640   24.6970   31.8510 C   0  0  0  0  0  0  0  0  0  0  0  0
   35.6260   24.2150   31.2050 C   0  0  0  0  0  0  0  0  0  0  0  0
   35.5430   22.8510   31.5280 C   0  0  0  0  0  0  0  0  0  0  0  0
   36.5870   22.5750   32.3200 N   0  0  0  0  0  0  0  0  0  0  0  0
   37.3020   23.6520   32.5110 N   0  0  0  0  0  0  0  0  0  0  0  0
   34.8580   24.6330   30.5620 H   0  0  0  0  0  0  0  0  0  0  0  0
   34.7800   22.1240   31.2070 H   0  0  0  0  0  0  0  0  0  0  0  0
   36.8520   21.2690   32.8650 C   0  0  0  0  0  0  0  0  0  0  0  0
   37.3560   20.6070   32.1620 H   0  0  0  0  0  0  0  0  0  0  0  0
   37.4510   21.4050   33.7950 H   0  0  0  0  0  0  0  0  0  0  0  0
   35.5110   20.6880   33.2800 C   0  0  0  0  0  0  0  0  0  0  0  0
   35.4760   20.6630   34.3910 H   0  0  0  0  0  0  0  0  0  0  0  0
   34.6760   21.2220   32.8240 H   0  0  0  0  0  0  0  0  0  0  0  0
   35.4880   18.9560   32.7130 S   0  0  0  0  0  0  0  0  0  0  0  0
   35.9730   18.1120   33.7320 H   0  0  0  0  0  0  0  0  0  0  0  0
  1  2  1  0  0  0  0
  1 11  1  0  0  0  0
  2  7  1  0  0  0  0
  3  8  1  0  0  0  0
  3  2  2  0  0  0  0
  4  3  1  0  0  0  0
  5  4  2  0  0  0  0
  5  6  1  0  0  0  0
  6  1  2  0  0  0  0
  9  5  1  0  0  0  0
 10 16  1  0  0  0  0
 10 15  1  0  0  0  0
 11 12  1  0  0  0  0
 11 10  2  0  0  0  0
 12 13  2  0  0  0  0
 13 14  1  0  0  0  0
 14 15  2  0  0  0  0
 14 18  1  0  0  0  0
 17 12  1  0  0  0  0
 19 20  1  0  0  0  0
 19  4  1  0  0  0  0
 20 24  2  0  0  0  0
 21 22  2  0  0  0  0
 21 20  1  0  0  0  0
 22 23  1  0  0  0  0
 23 24  1  0  0  0  0
 23 27  1  0  0  0  0
 25 21  1  0  0  0  0
 26 22  1  0  0  0  0
 27 30  1  0  0  0  0
 27 29  1  0  0  0  0
 28 27  1  0  0  0  0
 30 31  1  0  0  0  0
 32 30  1  0  0  0  0
 33 30  1  0  0  0  0
 33 34  1  0  0  0  0
M  END
>  <minimizedAffinity>
-4.8497138

$$$$

 OpenBabel03272510143D

 34 36  0  0  0  0  0  0  0  0999 V2000
   36.2990   23.0270   31.9630 C   0  0  0  0  0  0  0  0  0  0  0  0
   35.5270   23.9320   31.3190 C   0  0  0  0  0  0  0  0  0  0  0  0
   35.7970   25.2720   31.2320 C   0  0  0  0  0  0  0  0  0  0  0  0
   36.9030   25.7940   31.8140 C   0  0  0  0  0  0  0  0  0  0  0  0
   37.7210   24.8670   32.4910 C   0  0  0  0  0  0  0  0  0  0  0  0
   37.4190   23.5550   32.5520 N   0  0  0  0  0  0  0  0  0  0  0  0
   34.6120   23.6000   30.8180 H   0  0  0  0  0  0  0  0  0  0  0  0
   35.1680   25.9940   30.7110 H   0  0  0  0  0  0  0  0  0  0  0  0
   38.6290   25.1970   32.9880 H   0  0  0  0  0  0  0  0  0  0  0  0
   36.1020   20.7530   30.9750 C   0  0  0  0  0  0  0  0  0  0  0  0
   36.0290   21.6260   32.0590 C   0  0  0  0  0  0  0  0  0  0  0  0
   35.6750   21.0760   33.2660 C   0  0  0  0  0  0  0  0  0  0  0  0
   35.4170   19.7350   33.3530 N   0  0  0  0  0  0  0  0  0  0  0  0
   35.5060   18.9330   32.2580 C   0  0  0  0  0  0  0  0  0  0  0  0
   35.8530   19.4360   31.0470 N   0  0  0  0  0  0  0  0  0  0  0  0
   36.3760   21.1370   30.0070 H   0  0  0  0  0  0  0  0  0  0  0  0
   35.6030   21.7150   34.1420 H   0  0  0  0  0  0  0  0  0  0  0  0
   35.3080   17.8710   32.2980 H   0  0  0  0  0  0  0  0  0  0  0  0
   37.3390   27.1040   31.8370 O   0  0  0  0  0  0  0  0  0  0  0  0
   36.6320   28.1260   32.4430 C   0  0  0  0  0  0  0  0  0  0  0  0
   36.4270   29.2360   31.6230 C   0  0  0  0  0  0  0  0  0  0  0  0
   35.7030   30.1610   32.3910 C   0  0  0  0  0  0  0  0  0  0  0  0
   35.5070   29.6000   33.5910 N   0  0  0  0  0  0  0  0  0  0  0  0
   36.0490   28.4110   33.6240 N   0  0  0  0  0  0  0  0  0  0  0  0
   36.6860   29.5120   30.6060 H   0  0  0  0  0  0  0  0  0  0  0  0
   35.3500   31.1610   32.0930 H   0  0  0  0  0  0  0  0  0  0  0  0
   34.7980   30.2420   34.6670 C   0  0  0  0  0  0  0  0  0  0  0  0
   33.9950   30.8930   34.3210 H   0  0  0  0  0  0  0  0  0  0  0  0
   34.4100   29.4450   35.3420 H   0  0  0  0  0  0  0  0  0  0  0  0
   35.8250   31.0350   35.4570 C   0  0  0  0  0  0  0  0  0  0  0  0
   36.4450   30.3140   36.0350 H   0  0  0  0  0  0  0  0  0  0  0  0
   36.4050   31.7020   34.8180 H   0  0  0  0  0  0  0  0  0  0  0  0
   34.9030   32.0310   36.6720 S   0  0  0  0  0  0  0  0  0  0  0  0
   34.7800   31.3170   37.8810 H   0  0  0  0  0  0  0  0  0  0  0  0
  1 11  1  0  0  0  0
  1  6  1  0  0  0  0
  2  1  2  0  0  0  0
  3  2  1  0  0  0  0
  3  4  2  0  0  0  0
  4 19  1  0  0  0  0
  4  5  1  0  0  0  0
  5  6  2  0  0  0  0
  5  9  1  0  0  0  0
  7  2  1  0  0  0  0
  8  3  1  0  0  0  0
 10 15  2  0  0  0  0
 10 11  1  0  0  0  0
 11 12  2  0  0  0  0
 12 13  1  0  0  0  0
 12 17  1  0  0  0  0
 14 18  1  0  0  0  0
 14 13  2  0  0  0  0
 15 14  1  0  0  0  0
 16 10  1  0  0  0  0
 19 20  1  0  0  0  0
 20 24  2  0  0  0  0
 21 22  2  0  0  0  0
 21 20  1  0  0  0  0
 22 23  1  0  0  0  0
 23 24  1  0  0  0  0
 23 27  1  0  0  0  0
 25 21  1  0  0  0  0
 26 22  1  0  0  0  0
 27 29  1  0  0  0  0
 27 30  1  0  0  0  0
 28 27  1  0  0  0  0
 30 31  1  0  0  0  0
 30 33  1  0  0  0  0
 32 30  1  0  0  0  0
 33 34  1  0  0  0  0
M  END
>  <minimizedAffinity>
-4.78611708

$$$$

 OpenBabel03272510143D

 34 36  0  0  0  0  0  0  0  0999 V2000
   38.3130   25.4050   35.3040 C   0  0  0  0  0  0  0  0  0  0  0  0
   38.0720   26.6790   35.6900 C   0  0  0  0  0  0  0  0  0  0  0  0
   37.4080   27.6130   34.9400 C   0  0  0  0  0  0  0  0  0  0  0  0
   36.9320   27.3020   33.7110 C   0  0  0  0  0  0  0  0  0  0  0  0
   37.1740   25.9790   33.2890 C   0  0  0  0  0  0  0  0  0  0  0  0
   37.8320   25.0900   34.0600 N   0  0  0  0  0  0  0  0  0  0  0  0
   38.4190   27.0200   36.6700 H   0  0  0  0  0  0  0  0  0  0  0  0
   37.2180   28.6380   35.2600 H   0  0  0  0  0  0  0  0  0  0  0  0
   36.8290   25.6410   32.3160 H   0  0  0  0  0  0  0  0  0  0  0  0
   40.2150   23.8510   35.6900 C   0  0  0  0  0  0  0  0  0  0  0  0
   39.0040   24.4210   36.0780 C   0  0  0  0  0  0  0  0  0  0  0  0
   38.4790   23.9900   37.2700 C   0  0  0  0  0  0  0  0  0  0  0  0
   39.1440   23.0480   38.0070 N   0  0  0  0  0  0  0  0  0  0  0  0
   40.3240   22.5290   37.5750 C   0  0  0  0  0  0  0  0  0  0  0  0
   40.8780   22.9270   36.4030 N   0  0  0  0  0  0  0  0  0  0  0  0
   40.6690   24.1560   34.7620 H   0  0  0  0  0  0  0  0  0  0  0  0
   37.5350   24.4050   37.6170 H   0  0  0  0  0  0  0  0  0  0  0  0
   40.8710   21.7840   38.1360 H   0  0  0  0  0  0  0  0  0  0  0  0
   36.2460   28.0990   32.8150 O   0  0  0  0  0  0  0  0  0  0  0  0
   35.5080   29.2040   33.1970 C   0  0  0  0  0  0  0  0  0  0  0  0
   35.8550   30.3760   32.5240 C   0  0  0  0  0  0  0  0  0  0  0  0
   35.0160   31.3800   33.0320 C   0  0  0  0  0  0  0  0  0  0  0  0
   34.2310   30.8030   33.9490 N   0  0  0  0  0  0  0  0  0  0  0  0
   34.5160   29.5310   34.0480 N   0  0  0  0  0  0  0  0  0  0  0  0
   36.5730   30.6520   31.7580 H   0  0  0  0  0  0  0  0  0  0  0  0
   34.9870   32.4440   32.7490 H   0  0  0  0  0  0  0  0  0  0  0  0
   33.2270   31.5100   34.7000 C   0  0  0  0  0  0  0  0  0  0  0  0
   33.2900   32.5920   34.5840 H   0  0  0  0  0  0  0  0  0  0  0  0
   32.2310   31.1260   34.3820 H   0  0  0  0  0  0  0  0  0  0  0  0
   33.4120   31.1180   36.1560 C   0  0  0  0  0  0  0  0  0  0  0  0
   32.4860   31.3960   36.7070 H   0  0  0  0  0  0  0  0  0  0  0  0
   33.6910   30.0690   36.2630 H   0  0  0  0  0  0  0  0  0  0  0  0
   34.7520   32.1600   36.8180 S   0  0  0  0  0  0  0  0  0  0  0  0
   34.2120   33.3330   37.3830 H   0  0  0  0  0  0  0  0  0  0  0  0
  1  2  1  0  0  0  0
  1 11  1  0  0  0  0
  2  7  1  0  0  0  0
  3  8  1  0  0  0  0
  3  2  2  0  0  0  0
  4  3  1  0  0  0  0
  5  4  2  0  0  0  0
  5  6  1  0  0  0  0
  6  1  2  0  0  0  0
  9  5  1  0  0  0  0
 10 11  2  0  0  0  0
 10 15  1  0  0  0  0
 11 12  1  0  0  0  0
 12 17  1  0  0  0  0
 12 13  2  0  0  0  0
 14 13  1  0  0  0  0
 14 18  1  0  0  0  0
 15 14  2  0  0  0  0
 16 10  1  0  0  0  0
 19 20  1  0  0  0  0
 19  4  1  0  0  0  0
 20 24  2  0  0  0  0
 21 22  2  0  0  0  0
 21 20  1  0  0  0  0
 22 23  1  0  0  0  0
 23 24  1  0  0  0  0
 23 27  1  0  0  0  0
 25 21  1  0  0  0  0
 26 22  1  0  0  0  0
 27 30  1  0  0  0  0
 28 27  1  0  0  0  0
 29 27  1  0  0  0  0
 30 32  1  0  0  0  0
 30 31  1  0  0  0  0
 30 33  1  0  0  0  0
 33 34  1  0  0  0  0
M  END
>  <minimizedAffinity>
-4.75725937

$$$$

 OpenBabel03272510143D

 34 36  0  0  0  0  0  0  0  0999 V2000
   36.1490   22.8160   31.9410 C   0  0  0  0  0  0  0  0  0  0  0  0
   35.3610   23.6800   31.2600 C   0  0  0  0  0  0  0  0  0  0  0  0
   35.5480   25.0350   31.2050 C   0  0  0  0  0  0  0  0  0  0  0  0
   36.5800   25.6180   31.8600 C   0  0  0  0  0  0  0  0  0  0  0  0
   37.4130   24.7360   32.5780 C   0  0  0  0  0  0  0  0  0  0  0  0
   37.1940   23.4060   32.6050 N   0  0  0  0  0  0  0  0  0  0  0  0
   34.5020   23.2970   30.7000 H   0  0  0  0  0  0  0  0  0  0  0  0
   34.9080   25.7230   30.6530 H   0  0  0  0  0  0  0  0  0  0  0  0
   38.2660   25.1150   33.1340 H   0  0  0  0  0  0  0  0  0  0  0  0
   36.1320   20.5530   30.9120 C   0  0  0  0  0  0  0  0  0  0  0  0
   35.9640   21.3990   32.0060 C   0  0  0  0  0  0  0  0  0  0  0  0
   35.6020   20.8070   33.1900 C   0  0  0  0  0  0  0  0  0  0  0  0
   35.4260   19.4510   33.2470 N   0  0  0  0  0  0  0  0  0  0  0  0
   35.6050   18.6770   32.1440 C   0  0  0  0  0  0  0  0  0  0  0  0
   35.9630   19.2220   30.9550 N   0  0  0  0  0  0  0  0  0  0  0  0
   36.4160   20.9700   29.9610 H   0  0  0  0  0  0  0  0  0  0  0  0
   35.4580   21.4260   34.0730 H   0  0  0  0  0  0  0  0  0  0  0  0
   35.4730   17.6040   32.1600 H   0  0  0  0  0  0  0  0  0  0  0  0
   36.9290   26.9530   31.9240 O   0  0  0  0  0  0  0  0  0  0  0  0
   36.1410   27.9120   32.5340 C   0  0  0  0  0  0  0  0  0  0  0  0
   36.4900   28.1710   33.8600 C   0  0  0  0  0  0  0  0  0  0  0  0
   35.5980   29.1550   34.3140 C   0  0  0  0  0  0  0  0  0  0  0  0
   34.7820   29.4400   33.2910 N   0  0  0  0  0  0  0  0  0  0  0  0
   35.0980   28.7150   32.2500 N   0  0  0  0  0  0  0  0  0  0  0  0
   37.2390   27.8050   34.5550 H   0  0  0  0  0  0  0  0  0  0  0  0
   35.5540   29.6210   35.3100 H   0  0  0  0  0  0  0  0  0  0  0  0
   33.7220   30.4110   33.3620 C   0  0  0  0  0  0  0  0  0  0  0  0
   33.4750   30.7000   34.3840 H   0  0  0  0  0  0  0  0  0  0  0  0
   34.0270   31.2940   32.7540 H   0  0  0  0  0  0  0  0  0  0  0  0
   32.5160   29.7930   32.6760 C   0  0  0  0  0  0  0  0  0  0  0  0
   31.9170   30.6160   32.2270 H   0  0  0  0  0  0  0  0  0  0  0  0
   32.8040   29.0180   31.9640 H   0  0  0  0  0  0  0  0  0  0  0  0
   31.4890   29.0450   33.9820 S   0  0  0  0  0  0  0  0  0  0  0  0
   30.5350   29.9790   34.4350 H   0  0  0  0  0  0  0  0  0  0  0  0
  1 11  1  0  0  0  0
  1  6  1  0  0  0  0
  2  1  2  0  0  0  0
  3  2  1  0  0  0  0
  3  4  2  0  0  0  0
  4 19  1  0  0  0  0
  4  5  1  0  0  0  0
  5  6  2  0  0  0  0
  5  9  1  0  0  0  0
  7  2  1  0  0  0  0
  8  3  1  0  0  0  0
 10 15  2  0  0  0  0
 10 11  1  0  0  0  0
 11 12  2  0  0  0  0
 12 13  1  0  0  0  0
 12 17  1  0  0  0  0
 14 18  1  0  0  0  0
 14 13  2  0  0  0  0
 15 14  1  0  0  0  0
 16 10  1  0  0  0  0
 19 20  1  0  0  0  0
 20 21  1  0  0  0  0
 21 22  2  0  0  0  0
 21 25  1  0  0  0  0
 22 26  1  0  0  0  0
 23 27  1  0  0  0  0
 23 22  1  0  0  0  0
 24 20  2  0  0  0  0
 24 23  1  0  0  0  0
 27 28  1  0  0  0  0
 29 27  1  0  0  0  0
 30 27  1  0  0  0  0
 30 33  1  0  0  0  0
 31 30  1  0  0  0  0
 32 30  1  0  0  0  0
 33 34  1  0  0  0  0
M  END
>  <minimizedAffinity>
-4.7507

$$$$

 OpenBabel03272510143D

 34 36  0  0  0  0  0  0  0  0999 V2000
   35.3080   29.7640   34.2760 C   0  0  0  0  0  0  0  0  0  0  0  0
   36.2030   28.7790   34.5160 C   0  0  0  0  0  0  0  0  0  0  0  0
   36.6990   27.9210   33.5700 C   0  0  0  0  0  0  0  0  0  0  0  0
   36.3010   28.0120   32.2790 C   0  0  0  0  0  0  0  0  0  0  0  0
   35.3670   29.0320   32.0060 C   0  0  0  0  0  0  0  0  0  0  0  0
   34.9050   29.8560   32.9680 N   0  0  0  0  0  0  0  0  0  0  0  0
   36.5810   28.6320   35.5330 H   0  0  0  0  0  0  0  0  0  0  0  0
   37.4200   27.1310   33.7740 H   0  0  0  0  0  0  0  0  0  0  0  0
   34.9920   29.1780   30.9970 H   0  0  0  0  0  0  0  0  0  0  0  0
   33.4270   30.7690   35.5540 C   0  0  0  0  0  0  0  0  0  0  0  0
   34.7840   30.6660   35.2540 C   0  0  0  0  0  0  0  0  0  0  0  0
   35.6310   31.4900   35.9530 C   0  0  0  0  0  0  0  0  0  0  0  0
   35.1240   32.3510   36.8870 N   0  0  0  0  0  0  0  0  0  0  0  0
   33.7890   32.4050   37.1370 C   0  0  0  0  0  0  0  0  0  0  0  0
   32.9180   31.6090   36.4690 N   0  0  0  0  0  0  0  0  0  0  0  0
   32.7220   30.1430   35.0330 H   0  0  0  0  0  0  0  0  0  0  0  0
   36.6980   31.4470   35.7530 H   0  0  0  0  0  0  0  0  0  0  0  0
   33.3620   33.0760   37.8700 H   0  0  0  0  0  0  0  0  0  0  0  0
   36.6820   27.2460   31.1940 O   0  0  0  0  0  0  0  0  0  0  0  0
   36.5600   25.8690   31.1610 C   0  0  0  0  0  0  0  0  0  0  0  0
   35.2420   25.4210   31.0690 C   0  0  0  0  0  0  0  0  0  0  0  0
   35.3080   24.0180   31.0470 C   0  0  0  0  0  0  0  0  0  0  0  0
   36.6040   23.6890   31.1210 N   0  0  0  0  0  0  0  0  0  0  0  0
   37.3380   24.7690   31.1880 N   0  0  0  0  0  0  0  0  0  0  0  0
   34.2630   25.8840   31.0170 H   0  0  0  0  0  0  0  0  0  0  0  0
   34.4740   23.3020   30.9810 H   0  0  0  0  0  0  0  0  0  0  0  0
   37.0840   22.3320   31.1250 C   0  0  0  0  0  0  0  0  0  0  0  0
   37.6570   22.0790   30.2340 H   0  0  0  0  0  0  0  0  0  0  0  0
   37.6890   22.1890   32.0500 H   0  0  0  0  0  0  0  0  0  0  0  0
   35.8620   21.4370   31.2480 C   0  0  0  0  0  0  0  0  0  0  0  0
   34.9570   22.0790   31.1800 H   0  0  0  0  0  0  0  0  0  0  0  0
   35.8810   20.6210   30.5240 H   0  0  0  0  0  0  0  0  0  0  0  0
   35.8880   20.7370   32.9300 S   0  0  0  0  0  0  0  0  0  0  0  0
   35.1530   21.5640   33.8040 H   0  0  0  0  0  0  0  0  0  0  0  0
  1  2  1  0  0  0  0
  1 11  1  0  0  0  0
  2  7  1  0  0  0  0
  3  8  1  0  0  0  0
  3  2  2  0  0  0  0
  4  3  1  0  0  0  0
  5  4  2  0  0  0  0
  5  6  1  0  0  0  0
  6  1  2  0  0  0  0
  9  5  1  0  0  0  0
 10 15  1  0  0  0  0
 11 10  2  0  0  0  0
 11 12  1  0  0  0  0
 12 13  2  0  0  0  0
 13 14  1  0  0  0  0
 14 18  1  0  0  0  0
 15 14  2  0  0  0  0
 16 10  1  0  0  0  0
 17 12  1  0  0  0  0
 19  4  1  0  0  0  0
 20 24  2  0  0  0  0
 20 19  1  0  0  0  0
 21 20  1  0  0  0  0
 22 21  2  0  0  0  0
 22 23  1  0  0  0  0
 23 27  1  0  0  0  0
 23 24  1  0  0  0  0
 25 21  1  0  0  0  0
 26 22  1  0  0  0  0
 27 30  1  0  0  0  0
 27 29  1  0  0  0  0
 28 27  1  0  0  0  0
 30 33  1  0  0  0  0
 31 30  1  0  0  0  0
 32 30  1  0  0  0  0
 33 34  1  0  0  0  0
M  END
>  <minimizedAffinity>
-4.72973251

$$$$

 OpenBabel03272510143D

 34 36  0  0  0  0  0  0  0  0999 V2000
   38.3060   25.5680   35.3710 C   0  0  0  0  0  0  0  0  0  0  0  0
   37.7330   25.4790   34.1500 C   0  0  0  0  0  0  0  0  0  0  0  0
   37.0810   26.5010   33.5130 C   0  0  0  0  0  0  0  0  0  0  0  0
   36.9670   27.7180   34.0960 C   0  0  0  0  0  0  0  0  0  0  0  0
   37.5580   27.8320   35.3710 C   0  0  0  0  0  0  0  0  0  0  0  0
   38.1910   26.8000   35.9630 N   0  0  0  0  0  0  0  0  0  0  0  0
   37.7770   24.5320   33.6020 H   0  0  0  0  0  0  0  0  0  0  0  0
   36.6220   26.4200   32.5280 H   0  0  0  0  0  0  0  0  0  0  0  0
   37.5140   28.7720   35.9140 H   0  0  0  0  0  0  0  0  0  0  0  0
   40.1670   23.9310   35.5750 C   0  0  0  0  0  0  0  0  0  0  0  0
   38.9900   24.5080   36.0460 C   0  0  0  0  0  0  0  0  0  0  0  0
   38.4890   24.0060   37.2220 C   0  0  0  0  0  0  0  0  0  0  0  0
   39.1470   22.9920   37.8630 N   0  0  0  0  0  0  0  0  0  0  0  0
   40.2940   22.4700   37.3530 C   0  0  0  0  0  0  0  0  0  0  0  0
   40.8220   22.9370   36.1950 N   0  0  0  0  0  0  0  0  0  0  0  0
   40.6000   24.2910   34.6560 H   0  0  0  0  0  0  0  0  0  0  0  0
   37.5720   24.4230   37.6300 H   0  0  0  0  0  0  0  0  0  0  0  0
   40.8340   21.6690   37.8390 H   0  0  0  0  0  0  0  0  0  0  0  0
   36.3530   28.8590   33.6180 O   0  0  0  0  0  0  0  0  0  0  0  0
   35.2550   29.4380   34.2260 C   0  0  0  0  0  0  0  0  0  0  0  0
   35.5240   30.6670   34.8280 C   0  0  0  0  0  0  0  0  0  0  0  0
   34.3110   31.1020   35.3870 C   0  0  0  0  0  0  0  0  0  0  0  0
   33.3980   30.1620   35.1130 N   0  0  0  0  0  0  0  0  0  0  0  0
   33.9470   29.1880   34.4340 N   0  0  0  0  0  0  0  0  0  0  0  0
   36.3950   31.3030   34.9470 H   0  0  0  0  0  0  0  0  0  0  0  0
   34.1180   32.0300   35.9470 H   0  0  0  0  0  0  0  0  0  0  0  0
   32.0210   30.2440   35.5220 C   0  0  0  0  0  0  0  0  0  0  0  0
   31.6430   31.2650   35.5510 H   0  0  0  0  0  0  0  0  0  0  0  0
   31.4220   29.6110   34.8260 H   0  0  0  0  0  0  0  0  0  0  0  0
   31.9330   29.6020   36.8960 C   0  0  0  0  0  0  0  0  0  0  0  0
   32.9680   29.4810   37.2850 H   0  0  0  0  0  0  0  0  0  0  0  0
   31.2720   30.1560   37.5640 H   0  0  0  0  0  0  0  0  0  0  0  0
   31.2610   27.9250   36.6540 S   0  0  0  0  0  0  0  0  0  0  0  0
   32.3170   27.0070   36.4840 H   0  0  0  0  0  0  0  0  0  0  0  0
  1  6  1  0  0  0  0
  1 11  1  0  0  0  0
  2  1  2  0  0  0  0
  3  4  2  0  0  0  0
  3  2  1  0  0  0  0
  4  5  1  0  0  0  0
  5  9  1  0  0  0  0
  5  6  2  0  0  0  0
  7  2  1  0  0  0  0
  8  3  1  0  0  0  0
 10 11  2  0  0  0  0
 10 15  1  0  0  0  0
 11 12  1  0  0  0  0
 12 17  1  0  0  0  0
 12 13  2  0  0  0  0
 14 18  1  0  0  0  0
 14 13  1  0  0  0  0
 15 14  2  0  0  0  0
 16 10  1  0  0  0  0
 19  4  1  0  0  0  0
 19 20  1  0  0  0  0
 20 24  2  0  0  0  0
 20 21  1  0  0  0  0
 21 25  1  0  0  0  0
 21 22  2  0  0  0  0
 22 26  1  0  0  0  0
 23 22  1  0  0  0  0
 23 27  1  0  0  0  0
 24 23  1  0  0  0  0
 27 28  1  0  0  0  0
 27 30  1  0  0  0  0
 29 27  1  0  0  0  0
 30 31  1  0  0  0  0
 30 32  1  0  0  0  0
 33 30  1  0  0  0  0
 34 33  1  0  0  0  0
M  END
>  <minimizedAffinity>
-4.59469652

$$$$

 OpenBabel03272510143D

 34 36  0  0  0  0  0  0  0  0999 V2000
   35.8690   29.2280   34.1760 C   0  0  0  0  0  0  0  0  0  0  0  0
   35.7180   28.9040   32.8710 C   0  0  0  0  0  0  0  0  0  0  0  0
   36.3020   27.8280   32.2580 C   0  0  0  0  0  0  0  0  0  0  0  0
   37.1050   26.9870   32.9530 C   0  0  0  0  0  0  0  0  0  0  0  0
   37.2760   27.3070   34.3150 C   0  0  0  0  0  0  0  0  0  0  0  0
   36.6810   28.3770   34.8800 N   0  0  0  0  0  0  0  0  0  0  0  0
   35.0860   29.5280   32.2310 H   0  0  0  0  0  0  0  0  0  0  0  0
   36.1740   27.5750   31.2060 H   0  0  0  0  0  0  0  0  0  0  0  0
   37.9040   26.6890   34.9500 H   0  0  0  0  0  0  0  0  0  0  0  0
   33.9480   30.7480   34.6030 C   0  0  0  0  0  0  0  0  0  0  0  0
   35.2640   30.3480   34.8270 C   0  0  0  0  0  0  0  0  0  0  0  0
   35.9850   31.0930   35.7270 C   0  0  0  0  0  0  0  0  0  0  0  0
   35.4010   32.1630   36.3470 N   0  0  0  0  0  0  0  0  0  0  0  0
   34.1110   32.5040   36.0870 C   0  0  0  0  0  0  0  0  0  0  0  0
   33.3630   31.7950   35.2060 N   0  0  0  0  0  0  0  0  0  0  0  0
   33.3400   30.1950   33.9060 H   0  0  0  0  0  0  0  0  0  0  0  0
   37.0170   30.8210   35.9350 H   0  0  0  0  0  0  0  0  0  0  0  0
   33.6250   33.3440   36.5630 H   0  0  0  0  0  0  0  0  0  0  0  0
   37.7770   25.8620   32.5150 O   0  0  0  0  0  0  0  0  0  0  0  0
   37.8710   24.7010   33.2590 C   0  0  0  0  0  0  0  0  0  0  0  0
   37.3680   23.5720   32.6110 C   0  0  0  0  0  0  0  0  0  0  0  0
   37.5430   22.5010   33.5010 C   0  0  0  0  0  0  0  0  0  0  0  0
   38.1190   23.0010   34.6010 N   0  0  0  0  0  0  0  0  0  0  0  0
   38.3120   24.2860   34.4630 N   0  0  0  0  0  0  0  0  0  0  0  0
   36.9100   23.3650   31.6490 H   0  0  0  0  0  0  0  0  0  0  0  0
   37.2710   21.4440   33.3510 H   0  0  0  0  0  0  0  0  0  0  0  0
   38.4630   22.2080   35.7520 C   0  0  0  0  0  0  0  0  0  0  0  0
   37.5950   21.7780   36.2510 H   0  0  0  0  0  0  0  0  0  0  0  0
   39.1720   21.4150   35.4190 H   0  0  0  0  0  0  0  0  0  0  0  0
   39.2270   23.1190   36.6990 C   0  0  0  0  0  0  0  0  0  0  0  0
   40.0710   22.5370   37.1300 H   0  0  0  0  0  0  0  0  0  0  0  0
   39.5330   24.0460   36.2140 H   0  0  0  0  0  0  0  0  0  0  0  0
   38.1000   23.5120   38.0760 S   0  0  0  0  0  0  0  0  0  0  0  0
   38.2710   22.5770   39.1170 H   0  0  0  0  0  0  0  0  0  0  0  0
  1 11  1  0  0  0  0
  1  6  1  0  0  0  0
  2  1  2  0  0  0  0
  3  2  1  0  0  0  0
  3  4  2  0  0  0  0
  4  5  1  0  0  0  0
  5  6  2  0  0  0  0
  5  9  1  0  0  0  0
  7  2  1  0  0  0  0
  8  3  1  0  0  0  0
 10 11  2  0  0  0  0
 10 15  1  0  0  0  0
 11 12  1  0  0  0  0
 12 17  1  0  0  0  0
 12 13  2  0  0  0  0
 14 13  1  0  0  0  0
 14 18  1  0  0  0  0
 15 14  2  0  0  0  0
 16 10  1  0  0  0  0
 19  4  1  0  0  0  0
 19 20  1  0  0  0  0
 20 24  2  0  0  0  0
 21 20  1  0  0  0  0
 21 22  2  0  0  0  0
 22 23  1  0  0  0  0
 23 27  1  0  0  0  0
 24 23  1  0  0  0  0
 25 21  1  0  0  0  0
 26 22  1  0  0  0  0
 27 28  1  0  0  0  0
 27 30  1  0  0  0  0
 29 27  1  0  0  0  0
 30 31  1  0  0  0  0
 30 33  1  0  0  0  0
 32 30  1  0  0  0  0
 33 34  1  0  0  0  0
M  END
>  <minimizedAffinity>
-4.47147751

$$$$

 OpenBabel03272510143D

 34 36  0  0  0  0  0  0  0  0999 V2000
   36.0200   23.5650   31.6340 C   0  0  0  0  0  0  0  0  0  0  0  0
   35.0960   24.2590   30.9310 C   0  0  0  0  0  0  0  0  0  0  0  0
   34.9960   25.6240   30.8990 C   0  0  0  0  0  0  0  0  0  0  0  0
   35.8570   26.3970   31.6030 C   0  0  0  0  0  0  0  0  0  0  0  0
   36.8290   25.6940   32.3440 C   0  0  0  0  0  0  0  0  0  0  0  0
   36.8930   24.3470   32.3470 N   0  0  0  0  0  0  0  0  0  0  0  0
   34.3580   23.7160   30.3310 H   0  0  0  0  0  0  0  0  0  0  0  0
   34.2470   26.1730   30.3290 H   0  0  0  0  0  0  0  0  0  0  0  0
   37.5610   26.2320   32.9390 H   0  0  0  0  0  0  0  0  0  0  0  0
   37.1920   21.4390   31.0990 C   0  0  0  0  0  0  0  0  0  0  0  0
   36.1350   22.1400   31.6750 C   0  0  0  0  0  0  0  0  0  0  0  0
   35.1720   21.3910   32.3050 C   0  0  0  0  0  0  0  0  0  0  0  0
   35.2870   20.0280   32.3410 N   0  0  0  0  0  0  0  0  0  0  0  0
   36.3430   19.4000   31.7610 C   0  0  0  0  0  0  0  0  0  0  0  0
   37.3160   20.1020   31.1290 N   0  0  0  0  0  0  0  0  0  0  0  0
   37.9730   21.9810   30.5940 H   0  0  0  0  0  0  0  0  0  0  0  0
   34.3270   21.8930   32.7690 H   0  0  0  0  0  0  0  0  0  0  0  0
   36.4580   18.3250   31.7740 H   0  0  0  0  0  0  0  0  0  0  0  0
   35.9150   27.7740   31.6960 O   0  0  0  0  0  0  0  0  0  0  0  0
   36.4600   28.5760   30.7110 C   0  0  0  0  0  0  0  0  0  0  0  0
   36.2470   29.9400   30.9100 C   0  0  0  0  0  0  0  0  0  0  0  0
   36.8610   30.5930   29.8290 C   0  0  0  0  0  0  0  0  0  0  0  0
   37.3970   29.6410   29.0550 N   0  0  0  0  0  0  0  0  0  0  0  0
   37.1650   28.4610   29.5680 N   0  0  0  0  0  0  0  0  0  0  0  0
   35.7510   30.5510   31.6570 H   0  0  0  0  0  0  0  0  0  0  0  0
   36.9090   31.6750   29.6300 H   0  0  0  0  0  0  0  0  0  0  0  0
   38.1190   29.9130   27.8400 C   0  0  0  0  0  0  0  0  0  0  0  0
   37.5160   29.7730   26.9430 H   0  0  0  0  0  0  0  0  0  0  0  0
   38.5120   30.9540   27.9050 H   0  0  0  0  0  0  0  0  0  0  0  0
   39.3200   28.9830   27.8260 C   0  0  0  0  0  0  0  0  0  0  0  0
   39.0330   28.0430   28.3460 H   0  0  0  0  0  0  0  0  0  0  0  0
   39.7050   28.8290   26.8170 H   0  0  0  0  0  0  0  0  0  0  0  0
   40.6120   29.7730   28.8400 S   0  0  0  0  0  0  0  0  0  0  0  0
   40.5070   29.3350   30.1750 H   0  0  0  0  0  0  0  0  0  0  0  0
  1 11  1  0  0  0  0
  1  6  1  0  0  0  0
  2  1  2  0  0  0  0
  3  2  1  0  0  0  0
  3  4  2  0  0  0  0
  4 19  1  0  0  0  0
  4  5  1  0  0  0  0
  5  6  2  0  0  0  0
  5  9  1  0  0  0  0
  7  2  1  0  0  0  0
  8  3  1  0  0  0  0
 10 15  2  0  0  0  0
 10 11  1  0  0  0  0
 11 12  2  0  0  0  0
 12 13  1  0  0  0  0
 12 17  1  0  0  0  0
 14 18  1  0  0  0  0
 14 13  2  0  0  0  0
 15 14  1  0  0  0  0
 16 10  1  0  0  0  0
 20 21  1  0  0  0  0
 20 19  1  0  0  0  0
 21 25  1  0  0  0  0
 22 21  2  0  0  0  0
 23 24  1  0  0  0  0
 23 22  1  0  0  0  0
 24 20  2  0  0  0  0
 26 22  1  0  0  0  0
 27 29  1  0  0  0  0
 27 23  1  0  0  0  0
 28 27  1  0  0  0  0
 30 27  1  0  0  0  0
 30 31  1  0  0  0  0
 30 33  1  0  0  0  0
 32 30  1  0  0  0  0
 33 34  1  0  0  0  0
M  END
>  <minimizedAffinity>
-4.46848726

$$$$

 OpenBabel03272510143D

 34 36  0  0  0  0  0  0  0  0999 V2000
   36.4430   22.8530   32.1790 C   0  0  0  0  0  0  0  0  0  0  0  0
   35.7840   23.8300   31.5140 C   0  0  0  0  0  0  0  0  0  0  0  0
   36.1120   25.1590   31.5460 C   0  0  0  0  0  0  0  0  0  0  0  0
   37.1630   25.5950   32.2800 C   0  0  0  0  0  0  0  0  0  0  0  0
   37.8640   24.5920   32.9810 C   0  0  0  0  0  0  0  0  0  0  0  0
   37.5080   23.2930   32.9220 N   0  0  0  0  0  0  0  0  0  0  0  0
   34.9200   23.5710   30.8940 H   0  0  0  0  0  0  0  0  0  0  0  0
   35.5750   25.9390   31.0070 H   0  0  0  0  0  0  0  0  0  0  0  0
   38.7210   24.8500   33.5970 H   0  0  0  0  0  0  0  0  0  0  0  0
   35.7100   20.7480   33.2800 C   0  0  0  0  0  0  0  0  0  0  0  0
   36.1100   21.4620   32.1530 C   0  0  0  0  0  0  0  0  0  0  0  0
   36.1790   20.7610   30.9750 C   0  0  0  0  0  0  0  0  0  0  0  0
   35.8600   19.4310   30.9560 N   0  0  0  0  0  0  0  0  0  0  0  0
   35.4750   18.7880   32.0900 C   0  0  0  0  0  0  0  0  0  0  0  0
   35.3940   19.4440   33.2740 N   0  0  0  0  0  0  0  0  0  0  0  0
   35.6410   21.2540   34.2280 H   0  0  0  0  0  0  0  0  0  0  0  0
   36.4870   21.2740   30.0670 H   0  0  0  0  0  0  0  0  0  0  0  0
   35.2170   17.7380   32.1030 H   0  0  0  0  0  0  0  0  0  0  0  0
   37.6440   26.8800   32.4370 O   0  0  0  0  0  0  0  0  0  0  0  0
   36.8370   27.9530   32.7680 C   0  0  0  0  0  0  0  0  0  0  0  0
   36.5540   28.0480   34.1310 C   0  0  0  0  0  0  0  0  0  0  0  0
   35.7350   29.1790   34.2820 C   0  0  0  0  0  0  0  0  0  0  0  0
   35.5650   29.7000   33.0600 N   0  0  0  0  0  0  0  0  0  0  0  0
   36.2080   28.9860   32.1740 N   0  0  0  0  0  0  0  0  0  0  0  0
   36.8080   27.4820   35.0210 H   0  0  0  0  0  0  0  0  0  0  0  0
   35.3030   29.5830   35.2100 H   0  0  0  0  0  0  0  0  0  0  0  0
   34.7810   30.8780   32.7970 C   0  0  0  0  0  0  0  0  0  0  0  0
   34.6300   31.0630   31.7340 H   0  0  0  0  0  0  0  0  0  0  0  0
   33.8090   30.7650   33.3310 H   0  0  0  0  0  0  0  0  0  0  0  0
   35.5110   32.0430   33.4430 C   0  0  0  0  0  0  0  0  0  0  0  0
   34.7550   32.8100   33.7220 H   0  0  0  0  0  0  0  0  0  0  0  0
   36.1390   31.7200   34.2750 H   0  0  0  0  0  0  0  0  0  0  0  0
   36.5660   32.7850   32.1560 S   0  0  0  0  0  0  0  0  0  0  0  0
   35.8650   33.8150   31.4970 H   0  0  0  0  0  0  0  0  0  0  0  0
  1  6  1  0  0  0  0
  2  3  1  0  0  0  0
  2  1  2  0  0  0  0
  3  4  2  0  0  0  0
  4 19  1  0  0  0  0
  4  5  1  0  0  0  0
  5  9  1  0  0  0  0
  6  5  2  0  0  0  0
  7  2  1  0  0  0  0
  8  3  1  0  0  0  0
 10 16  1  0  0  0  0
 11  1  1  0  0  0  0
 11 10  2  0  0  0  0
 12 11  1  0  0  0  0
 13 12  2  0  0  0  0
 13 14  1  0  0  0  0
 14 18  1  0  0  0  0
 14 15  2  0  0  0  0
 15 10  1  0  0  0  0
 17 12  1  0  0  0  0
 19 20  1  0  0  0  0
 20 21  1  0  0  0  0
 21 22  2  0  0  0  0
 21 25  1  0  0  0  0
 22 26  1  0  0  0  0
 23 22  1  0  0  0  0
 24 20  2  0  0  0  0
 24 23  1  0  0  0  0
 27 23  1  0  0  0  0
 27 29  1  0  0  0  0
 27 30  1  0  0  0  0
 28 27  1  0  0  0  0
 30 31  1  0  0  0  0
 30 32  1  0  0  0  0
 33 30  1  0  0  0  0
 34 33  1  0  0  0  0
M  END
>  <minimizedAffinity>
-4.43849468

$$$$
