
 OpenBabel03272500323D

 37 39  0  0  1  0  0  0  0  0999 V2000
   36.8100   30.4040   46.5990 Cl  0  0  0  0  0  0  0  0  0  0  0  0
   37.3600   31.4730   47.8620 C   0  0  0  0  0  0  0  0  0  0  0  0
   38.4720   32.2000   47.5320 C   0  0  0  0  0  0  0  0  0  0  0  0
   38.9400   33.1130   48.4710 C   0  0  0  0  0  0  0  0  0  0  0  0
   38.2620   33.2340   49.6720 C   0  0  0  0  0  0  0  0  0  0  0  0
   37.1450   32.4530   49.9120 C   0  0  0  0  0  0  0  0  0  0  0  0
   36.6530   31.5500   49.0270 C   0  0  0  0  0  0  0  0  0  0  0  0
   39.8170   33.7160   48.2650 H   0  0  0  0  0  0  0  0  0  0  0  0
   38.6270   33.9440   50.4020 H   0  0  0  0  0  0  0  0  0  0  0  0
   36.6510   32.5930   50.8780 H   0  0  0  0  0  0  0  0  0  0  0  0
   35.4950   30.6570   49.3000 C   0  0  1  0  0  0  0  0  0  0  0  0
   34.7930   30.3210   48.0810 C   0  0  0  0  0  0  0  0  0  0  0  0
   33.6860   29.3870   48.5930 C   0  0  0  0  0  0  0  0  0  0  0  0
   34.4420   28.0690   48.8240 C   0  0  0  0  0  0  0  0  0  0  0  0
   35.5420   28.1870   49.7830 C   0  0  0  0  0  0  0  0  0  0  0  0
   35.8950   29.5370   50.2400 C   0  0  1  0  0  0  0  0  0  0  0  0
   34.8630   31.2770   49.9920 H   0  0  0  0  0  0  0  0  0  0  0  0
   35.0490   29.5740   47.3600 H   0  0  0  0  0  0  0  0  0  0  0  0
   34.3210   31.2360   47.6480 H   0  0  0  0  0  0  0  0  0  0  0  0
   32.8960   29.2240   47.8490 H   0  0  0  0  0  0  0  0  0  0  0  0
   33.2770   29.7590   49.5410 H   0  0  0  0  0  0  0  0  0  0  0  0
   33.6690   27.3350   49.0330 H   0  0  0  0  0  0  0  0  0  0  0  0
   34.8110   27.8080   47.7850 H   0  0  0  0  0  0  0  0  0  0  0  0
   36.4430   27.6750   49.3280 H   0  0  0  0  0  0  0  0  0  0  0  0
   35.3070   27.5130   50.6510 H   0  0  0  0  0  0  0  0  0  0  0  0
   35.5020   29.6700   51.2620 H   0  0  0  0  0  0  0  0  0  0  0  0
   37.7090   29.6170   50.4390 S   0  0  0  0  0  0  0  0  0  0  0  0
   38.3420   28.4860   49.9020 H   0  0  0  0  0  0  0  0  0  0  0  0
   39.2090   32.6530   43.9840 C   0  0  0  0  0  0  0  0  0  0  0  0
   40.2850   31.8210   43.7280 C   0  0  0  0  0  0  0  0  0  0  0  0
   40.7700   31.0880   44.8210 C   0  0  0  0  0  0  0  0  0  0  0  0
   40.1710   31.2310   46.0440 N   0  0  0  0  0  0  0  0  0  0  0  0
   39.1300   32.0580   46.2200 C   0  0  0  0  0  0  0  0  0  0  0  0
   38.6400   32.7790   45.1860 N   0  0  0  0  0  0  0  0  0  0  0  0
   38.8590   33.2060   43.1200 H   0  0  0  0  0  0  0  0  0  0  0  0
   40.7910   31.6670   42.8040 H   0  0  0  0  0  0  0  0  0  0  0  0
   41.6050   30.3850   44.8150 H   0  0  0  0  0  0  0  0  0  0  0  0
  1  2  1  0  0  0  0
  2  7  1  0  0  0  0
  3  2  2  0  0  0  0
  3  4  1  0  0  0  0
  4  5  2  0  0  0  0
  5  6  1  0  0  0  0
  5  9  1  0  0  0  0
  6 10  1  0  0  0  0
  7 11  1  0  0  0  0
  7  6  2  0  0  0  0
  8  4  1  0  0  0  0
 11 17  1  1  0  0  0
 11 16  1  0  0  0  0
 12 13  1  0  0  0  0
 12 11  1  0  0  0  0
 13 14  1  0  0  0  0
 13 21  1  0  0  0  0
 14 22  1  0  0  0  0
 14 15  1  0  0  0  0
 15 16  1  0  0  0  0
 15 25  1  0  0  0  0
 16 27  1  0  0  0  0
 16 26  1  1  0  0  0
 18 12  1  0  0  0  0
 19 12  1  0  0  0  0
 20 13  1  0  0  0  0
 23 14  1  0  0  0  0
 24 15  1  0  0  0  0
 28 27  1  0  0  0  0
 29 34  1  0  0  0  0
 30 29  2  0  0  0  0
 30 31  1  0  0  0  0
 31 32  2  0  0  0  0
 32 33  1  0  0  0  0
 33  3  1  0  0  0  0
 34 33  2  0  0  0  0
 35 29  1  0  0  0  0
 36 30  1  0  0  0  0
 37 31  1  0  0  0  0
M  END
>  <minimizedAffinity>
-6.55441713

>  <minimizedRMSD>
1.91285729

$$$$
