
 OpenBabel03262523003D

 31 34  0  0  0  0  0  0  0  0999 V2000
   37.9010   25.3050   35.0810 C   0  0  0  0  0  0  0  0  0  0  0  0
   37.9860   24.8920   33.7540 C   0  0  0  0  0  0  0  0  0  0  0  0
   37.4590   25.8840   32.9700 C   0  0  0  0  0  0  0  0  0  0  0  0
   37.0560   26.8900   33.8080 N   0  0  0  0  0  0  0  0  0  0  0  0
   37.3430   26.4910   35.0460 N   0  0  0  0  0  0  0  0  0  0  0  0
   36.5160   28.5120   32.0570 N   0  0  0  0  0  0  0  0  0  0  0  0
   36.4580   28.0870   33.3510 C   0  0  0  0  0  0  0  0  0  0  0  0
   35.7480   29.0170   34.0230 N   0  0  0  0  0  0  0  0  0  0  0  0
   35.3640   30.0030   33.1950 C   0  0  0  0  0  0  0  0  0  0  0  0
   34.6520   31.1740   33.2820 C   0  0  0  0  0  0  0  0  0  0  0  0
   34.4670   31.9300   32.1860 N   0  0  0  0  0  0  0  0  0  0  0  0
   34.9580   31.5810   30.9940 C   0  0  0  0  0  0  0  0  0  0  0  0
   35.6590   30.4470   30.8650 N   0  0  0  0  0  0  0  0  0  0  0  0
   35.8540   29.6810   31.9390 C   0  0  0  0  0  0  0  0  0  0  0  0
   38.4110   23.9310   33.4330 H   0  0  0  0  0  0  0  0  0  0  0  0
   37.3880   25.8490   31.8880 H   0  0  0  0  0  0  0  0  0  0  0  0
   37.0010   28.0170   31.2490 H   0  0  0  0  0  0  0  0  0  0  0  0
   34.8130   32.1860   30.1030 H   0  0  0  0  0  0  0  0  0  0  0  0
   38.1620   23.9860   38.4900 C   0  0  0  0  0  0  0  0  0  0  0  0
   39.2560   23.0570   38.3570 C   0  0  0  0  0  0  0  0  0  0  0  0
   39.8670   22.9140   37.1040 C   0  0  0  0  0  0  0  0  0  0  0  0
   39.3890   23.6650   36.0820 N   0  0  0  0  0  0  0  0  0  0  0  0
   38.3530   24.5380   36.2310 C   0  0  0  0  0  0  0  0  0  0  0  0
   37.7570   24.6870   37.4210 N   0  0  0  0  0  0  0  0  0  0  0  0
   37.6850   24.1020   39.4550 H   0  0  0  0  0  0  0  0  0  0  0  0
   39.5800   22.4920   39.2280 H   0  0  0  0  0  0  0  0  0  0  0  0
   41.2130   21.7750   36.9290 S   0  0  0  0  0  0  0  0  0  0  0  0
   42.4550   22.4240   36.8510 H   0  0  0  0  0  0  0  0  0  0  0  0
   34.1400   31.5180   34.5730 N   0  0  0  0  0  0  0  0  0  0  0  0
   33.3400   31.0530   35.0590 H   0  0  0  0  0  0  0  0  0  0  0  0
   34.6370   32.3200   35.0550 H   0  0  0  0  0  0  0  0  0  0  0  0
  1 23  1  0  0  0  0
  2  1  1  0  0  0  0
  3  2  2  0  0  0  0
  3  4  1  0  0  0  0
  4  5  1  0  0  0  0
  5  1  2  0  0  0  0
  6  7  1  0  0  0  0
  7  4  1  0  0  0  0
  7  8  2  0  0  0  0
  9 10  1  0  0  0  0
  9  8  1  0  0  0  0
 10 29  1  0  0  0  0
 11 10  2  0  0  0  0
 12 11  1  0  0  0  0
 13 12  2  0  0  0  0
 13 14  1  0  0  0  0
 14  6  1  0  0  0  0
 14  9  2  0  0  0  0
 15  2  1  0  0  0  0
 16  3  1  0  0  0  0
 17  6  1  0  0  0  0
 18 12  1  0  0  0  0
 19 25  1  0  0  0  0
 20 19  1  0  0  0  0
 20 26  1  0  0  0  0
 21 20  2  0  0  0  0
 22 23  2  0  0  0  0
 22 21  1  0  0  0  0
 23 24  1  0  0  0  0
 24 19  2  0  0  0  0
 27 21  1  0  0  0  0
 28 27  1  0  0  0  0
 29 31  1  0  0  0  0
 29 30  1  0  0  0  0
M  END
>  <minimizedAffinity>
-5.63622522

$$$$

 OpenBabel03262523003D

 31 34  0  0  0  0  0  0  0  0999 V2000
   36.6490   27.9300   33.8610 C   0  0  0  0  0  0  0  0  0  0  0  0
   37.5210   27.7210   32.7960 C   0  0  0  0  0  0  0  0  0  0  0  0
   38.3450   26.6780   33.1240 C   0  0  0  0  0  0  0  0  0  0  0  0
   37.9820   26.2550   34.3760 N   0  0  0  0  0  0  0  0  0  0  0  0
   36.9730   27.0340   34.7620 N   0  0  0  0  0  0  0  0  0  0  0  0
   39.4100   24.2690   34.4250 N   0  0  0  0  0  0  0  0  0  0  0  0
   38.6180   25.1860   35.0490 C   0  0  0  0  0  0  0  0  0  0  0  0
   38.5990   24.8450   36.3540 N   0  0  0  0  0  0  0  0  0  0  0  0
   39.3490   23.7500   36.5640 C   0  0  0  0  0  0  0  0  0  0  0  0
   39.7030   22.9590   37.6280 C   0  0  0  0  0  0  0  0  0  0  0  0
   40.5090   21.9000   37.4390 N   0  0  0  0  0  0  0  0  0  0  0  0
   40.9870   21.5810   36.2320 C   0  0  0  0  0  0  0  0  0  0  0  0
   40.6650   22.3260   35.1670 N   0  0  0  0  0  0  0  0  0  0  0  0
   39.8670   23.3820   35.3320 C   0  0  0  0  0  0  0  0  0  0  0  0
   37.5150   28.3120   31.8690 H   0  0  0  0  0  0  0  0  0  0  0  0
   39.1310   26.2830   32.4890 H   0  0  0  0  0  0  0  0  0  0  0  0
   39.6470   24.2370   33.3880 H   0  0  0  0  0  0  0  0  0  0  0  0
   41.6390   20.7270   36.0700 H   0  0  0  0  0  0  0  0  0  0  0  0
   33.6990   29.9280   33.0020 C   0  0  0  0  0  0  0  0  0  0  0  0
   33.6860   30.8960   34.0680 C   0  0  0  0  0  0  0  0  0  0  0  0
   34.6880   30.8320   35.0460 C   0  0  0  0  0  0  0  0  0  0  0  0
   35.6190   29.8540   34.9300 N   0  0  0  0  0  0  0  0  0  0  0  0
   35.6120   28.9490   33.9110 C   0  0  0  0  0  0  0  0  0  0  0  0
   34.6620   28.9940   32.9680 N   0  0  0  0  0  0  0  0  0  0  0  0
   32.9280   29.9710   32.2420 H   0  0  0  0  0  0  0  0  0  0  0  0
   32.9030   31.6510   34.0900 H   0  0  0  0  0  0  0  0  0  0  0  0
   34.6810   32.0190   36.3620 S   0  0  0  0  0  0  0  0  0  0  0  0
   35.6680   33.0040   36.1980 H   0  0  0  0  0  0  0  0  0  0  0  0
   39.1740   23.3280   38.9050 N   0  0  0  0  0  0  0  0  0  0  0  0
   39.4740   24.1490   39.4790 H   0  0  0  0  0  0  0  0  0  0  0  0
   38.4110   22.6940   39.2770 H   0  0  0  0  0  0  0  0  0  0  0  0
  1 23  1  0  0  0  0
  1  5  2  0  0  0  0
  2  3  2  0  0  0  0
  2  1  1  0  0  0  0
  3  4  1  0  0  0  0
  4  5  1  0  0  0  0
  4  7  1  0  0  0  0
  6  7  1  0  0  0  0
  6 14  1  0  0  0  0
  7  8  2  0  0  0  0
  8  9  1  0  0  0  0
  9 10  1  0  0  0  0
 10 29  1  0  0  0  0
 11 10  2  0  0  0  0
 12 11  1  0  0  0  0
 13 14  1  0  0  0  0
 13 12  2  0  0  0  0
 14  9  2  0  0  0  0
 15  2  1  0  0  0  0
 16  3  1  0  0  0  0
 17  6  1  0  0  0  0
 18 12  1  0  0  0  0
 19 20  1  0  0  0  0
 20 26  1  0  0  0  0
 20 21  2  0  0  0  0
 21 27  1  0  0  0  0
 22 21  1  0  0  0  0
 23 22  2  0  0  0  0
 24 19  2  0  0  0  0
 24 23  1  0  0  0  0
 25 19  1  0  0  0  0
 28 27  1  0  0  0  0
 29 31  1  0  0  0  0
 29 30  1  0  0  0  0
M  END
>  <minimizedAffinity>
-5.62539959

$$$$

 OpenBabel03262523003D

 31 34  0  0  0  0  0  0  0  0999 V2000
   37.5660   27.4900   33.0270 C   0  0  0  0  0  0  0  0  0  0  0  0
   38.7030   27.3780   32.2320 C   0  0  0  0  0  0  0  0  0  0  0  0
   39.4990   26.4020   32.7700 C   0  0  0  0  0  0  0  0  0  0  0  0
   38.8560   25.9240   33.8810 N   0  0  0  0  0  0  0  0  0  0  0  0
   37.7170   26.6060   33.9840 N   0  0  0  0  0  0  0  0  0  0  0  0
   40.3880   24.0650   34.3130 N   0  0  0  0  0  0  0  0  0  0  0  0
   39.3820   24.8990   34.7020 C   0  0  0  0  0  0  0  0  0  0  0  0
   39.0470   24.5300   35.9550 N   0  0  0  0  0  0  0  0  0  0  0  0
   39.8070   23.4980   36.3590 C   0  0  0  0  0  0  0  0  0  0  0  0
   39.9350   22.7180   37.4820 C   0  0  0  0  0  0  0  0  0  0  0  0
   40.8520   21.7350   37.5160 N   0  0  0  0  0  0  0  0  0  0  0  0
   41.6580   21.4830   36.4800 C   0  0  0  0  0  0  0  0  0  0  0  0
   41.5660   22.2210   35.3660 N   0  0  0  0  0  0  0  0  0  0  0  0
   40.6640   23.2010   35.3110 C   0  0  0  0  0  0  0  0  0  0  0  0
   38.8920   27.9850   31.3350 H   0  0  0  0  0  0  0  0  0  0  0  0
   40.4570   26.0880   32.3680 H   0  0  0  0  0  0  0  0  0  0  0  0
   40.8920   24.0750   33.3760 H   0  0  0  0  0  0  0  0  0  0  0  0
   42.4010   20.6920   36.4990 H   0  0  0  0  0  0  0  0  0  0  0  0
   35.3310   29.8890   31.3890 C   0  0  0  0  0  0  0  0  0  0  0  0
   34.3730   30.1490   32.4330 C   0  0  0  0  0  0  0  0  0  0  0  0
   34.5230   29.4940   33.6630 C   0  0  0  0  0  0  0  0  0  0  0  0
   35.5720   28.6460   33.7990 N   0  0  0  0  0  0  0  0  0  0  0  0
   36.4680   28.4160   32.7980 C   0  0  0  0  0  0  0  0  0  0  0  0
   36.3390   29.0330   31.6160 N   0  0  0  0  0  0  0  0  0  0  0  0
   35.2210   30.3920   30.4360 H   0  0  0  0  0  0  0  0  0  0  0  0
   33.5580   30.8440   32.2430 H   0  0  0  0  0  0  0  0  0  0  0  0
   33.3500   29.8070   34.9530 S   0  0  0  0  0  0  0  0  0  0  0  0
   33.8690   30.6410   35.9560 H   0  0  0  0  0  0  0  0  0  0  0  0
   39.0570   23.0140   38.5720 N   0  0  0  0  0  0  0  0  0  0  0  0
   39.1210   23.8450   39.2020 H   0  0  0  0  0  0  0  0  0  0  0  0
   38.2810   22.3090   38.7290 H   0  0  0  0  0  0  0  0  0  0  0  0
  1  5  2  0  0  0  0
  2  3  2  0  0  0  0
  2  1  1  0  0  0  0
  3  4  1  0  0  0  0
  4  5  1  0  0  0  0
  4  7  1  0  0  0  0
  6  7  1  0  0  0  0
  6 14  1  0  0  0  0
  7  8  2  0  0  0  0
  8  9  1  0  0  0  0
  9 10  1  0  0  0  0
 10 11  2  0  0  0  0
 10 29  1  0  0  0  0
 12 18  1  0  0  0  0
 12 11  1  0  0  0  0
 13 12  2  0  0  0  0
 14 13  1  0  0  0  0
 14  9  2  0  0  0  0
 15  2  1  0  0  0  0
 16  3  1  0  0  0  0
 17  6  1  0  0  0  0
 19 24  2  0  0  0  0
 19 20  1  0  0  0  0
 20 21  2  0  0  0  0
 21 22  1  0  0  0  0
 21 27  1  0  0  0  0
 23  1  1  0  0  0  0
 23 22  2  0  0  0  0
 24 23  1  0  0  0  0
 25 19  1  0  0  0  0
 26 20  1  0  0  0  0
 27 28  1  0  0  0  0
 29 31  1  0  0  0  0
 29 30  1  0  0  0  0
M  END
>  <minimizedAffinity>
-5.51940298

$$$$

 OpenBabel03262523003D

 31 34  0  0  0  0  0  0  0  0999 V2000
   36.5460   28.1810   32.6550 C   0  0  0  0  0  0  0  0  0  0  0  0
   37.6790   27.9280   31.8870 C   0  0  0  0  0  0  0  0  0  0  0  0
   38.4220   26.9760   32.5340 C   0  0  0  0  0  0  0  0  0  0  0  0
   37.7500   26.6520   33.6830 N   0  0  0  0  0  0  0  0  0  0  0  0
   36.6470   27.3980   33.7020 N   0  0  0  0  0  0  0  0  0  0  0  0
   39.1830   24.7750   34.3250 N   0  0  0  0  0  0  0  0  0  0  0  0
   38.2190   25.6960   34.6130 C   0  0  0  0  0  0  0  0  0  0  0  0
   37.8620   25.4800   35.8960 N   0  0  0  0  0  0  0  0  0  0  0  0
   38.5660   24.4600   36.4150 C   0  0  0  0  0  0  0  0  0  0  0  0
   38.6490   23.7990   37.6150 C   0  0  0  0  0  0  0  0  0  0  0  0
   39.5140   22.7810   37.7620 N   0  0  0  0  0  0  0  0  0  0  0  0
   40.3100   22.3790   36.7670 C   0  0  0  0  0  0  0  0  0  0  0  0
   40.2600   22.9960   35.5800 N   0  0  0  0  0  0  0  0  0  0  0  0
   39.4100   24.0100   35.4120 C   0  0  0  0  0  0  0  0  0  0  0  0
   37.9020   28.4250   30.9330 H   0  0  0  0  0  0  0  0  0  0  0  0
   39.3640   26.5720   32.1760 H   0  0  0  0  0  0  0  0  0  0  0  0
   39.6900   24.6590   33.3970 H   0  0  0  0  0  0  0  0  0  0  0  0
   41.0110   21.5570   36.8770 H   0  0  0  0  0  0  0  0  0  0  0  0
   34.7900   31.0260   31.1540 C   0  0  0  0  0  0  0  0  0  0  0  0
   33.4750   30.8880   31.7250 C   0  0  0  0  0  0  0  0  0  0  0  0
   33.2340   29.8250   32.6060 C   0  0  0  0  0  0  0  0  0  0  0  0
   34.2610   28.9810   32.8700 N   0  0  0  0  0  0  0  0  0  0  0  0
   35.4980   29.1320   32.3180 C   0  0  0  0  0  0  0  0  0  0  0  0
   35.7470   30.1420   31.4740 N   0  0  0  0  0  0  0  0  0  0  0  0
   34.9850   31.8460   30.4720 H   0  0  0  0  0  0  0  0  0  0  0  0
   32.7040   31.6080   31.4610 H   0  0  0  0  0  0  0  0  0  0  0  0
   31.6200   29.6450   33.3150 S   0  0  0  0  0  0  0  0  0  0  0  0
   31.5790   30.0480   34.6590 H   0  0  0  0  0  0  0  0  0  0  0  0
   37.7830   24.2550   38.6590 N   0  0  0  0  0  0  0  0  0  0  0  0
   37.8880   25.1440   39.1980 H   0  0  0  0  0  0  0  0  0  0  0  0
   36.9720   23.6110   38.8830 H   0  0  0  0  0  0  0  0  0  0  0  0
  1  5  2  0  0  0  0
  2  3  2  0  0  0  0
  2  1  1  0  0  0  0
  3  4  1  0  0  0  0
  4  5  1  0  0  0  0
  4  7  1  0  0  0  0
  6  7  1  0  0  0  0
  6 14  1  0  0  0  0
  7  8  2  0  0  0  0
  8  9  1  0  0  0  0
  9 10  1  0  0  0  0
 10 11  2  0  0  0  0
 10 29  1  0  0  0  0
 12 18  1  0  0  0  0
 12 11  1  0  0  0  0
 13 12  2  0  0  0  0
 14 13  1  0  0  0  0
 14  9  2  0  0  0  0
 15  2  1  0  0  0  0
 16  3  1  0  0  0  0
 17  6  1  0  0  0  0
 19 24  2  0  0  0  0
 19 20  1  0  0  0  0
 20 21  2  0  0  0  0
 21 22  1  0  0  0  0
 21 27  1  0  0  0  0
 23  1  1  0  0  0  0
 23 22  2  0  0  0  0
 24 23  1  0  0  0  0
 25 19  1  0  0  0  0
 26 20  1  0  0  0  0
 27 28  1  0  0  0  0
 29 31  1  0  0  0  0
 29 30  1  0  0  0  0
M  END
>  <minimizedAffinity>
-5.49940491

$$$$

 OpenBabel03262523003D

 31 34  0  0  0  0  0  0  0  0999 V2000
   37.5090   27.9950   31.8430 C   0  0  0  0  0  0  0  0  0  0  0  0
   36.4920   28.3840   32.7100 C   0  0  0  0  0  0  0  0  0  0  0  0
   36.5870   27.6180   33.8420 C   0  0  0  0  0  0  0  0  0  0  0  0
   37.6490   26.7710   33.6670 N   0  0  0  0  0  0  0  0  0  0  0  0
   38.1570   27.0400   32.4660 N   0  0  0  0  0  0  0  0  0  0  0  0
   37.6630   25.8690   35.9420 N   0  0  0  0  0  0  0  0  0  0  0  0
   38.0540   25.8240   34.6370 C   0  0  0  0  0  0  0  0  0  0  0  0
   38.8520   24.7430   34.5180 N   0  0  0  0  0  0  0  0  0  0  0  0
   38.9730   24.1160   35.7000 C   0  0  0  0  0  0  0  0  0  0  0  0
   39.6200   23.0100   36.1940 C   0  0  0  0  0  0  0  0  0  0  0  0
   39.4940   22.6840   37.4920 N   0  0  0  0  0  0  0  0  0  0  0  0
   38.7510   23.4060   38.3350 C   0  0  0  0  0  0  0  0  0  0  0  0
   38.1030   24.4920   37.8940 N   0  0  0  0  0  0  0  0  0  0  0  0
   38.2130   24.8340   36.6090 C   0  0  0  0  0  0  0  0  0  0  0  0
   35.7600   29.1740   32.4880 H   0  0  0  0  0  0  0  0  0  0  0  0
   35.9270   27.6920   34.7000 H   0  0  0  0  0  0  0  0  0  0  0  0
   37.0260   26.5950   36.3880 H   0  0  0  0  0  0  0  0  0  0  0  0
   38.6440   23.1490   39.3850 H   0  0  0  0  0  0  0  0  0  0  0  0
   37.4320   30.2790   28.9780 C   0  0  0  0  0  0  0  0  0  0  0  0
   38.2660   29.5830   28.0320 C   0  0  0  0  0  0  0  0  0  0  0  0
   38.8270   28.3550   28.4070 C   0  0  0  0  0  0  0  0  0  0  0  0
   38.5490   27.8900   29.6490 N   0  0  0  0  0  0  0  0  0  0  0  0
   37.7570   28.5650   30.5280 C   0  0  0  0  0  0  0  0  0  0  0  0
   37.2130   29.7410   30.1870 N   0  0  0  0  0  0  0  0  0  0  0  0
   36.9950   31.2290   28.6960 H   0  0  0  0  0  0  0  0  0  0  0  0
   38.4400   30.0250   27.0530 H   0  0  0  0  0  0  0  0  0  0  0  0
   39.8530   27.4900   27.2500 S   0  0  0  0  0  0  0  0  0  0  0  0
   39.1980   26.3920   26.6720 H   0  0  0  0  0  0  0  0  0  0  0  0
   40.4070   22.2600   35.2650 N   0  0  0  0  0  0  0  0  0  0  0  0
   40.0370   21.6430   34.5070 H   0  0  0  0  0  0  0  0  0  0  0  0
   41.4560   22.3590   35.3810 H   0  0  0  0  0  0  0  0  0  0  0  0
  1  5  2  0  0  0  0
  1  2  1  0  0  0  0
  2  3  2  0  0  0  0
  3 16  1  0  0  0  0
  4  3  1  0  0  0  0
  4  7  1  0  0  0  0
  5  4  1  0  0  0  0
  6 17  1  0  0  0  0
  6 14  1  0  0  0  0
  7  6  1  0  0  0  0
  8  7  2  0  0  0  0
  8  9  1  0  0  0  0
  9 10  2  0  0  0  0
  9 14  1  0  0  0  0
 10 11  1  0  0  0  0
 11 12  2  0  0  0  0
 12 18  1  0  0  0  0
 13 12  1  0  0  0  0
 14 13  2  0  0  0  0
 15  2  1  0  0  0  0
 19 24  1  0  0  0  0
 20 21  1  0  0  0  0
 20 19  2  0  0  0  0
 21 22  2  0  0  0  0
 22 23  1  0  0  0  0
 23  1  1  0  0  0  0
 24 23  2  0  0  0  0
 25 19  1  0  0  0  0
 26 20  1  0  0  0  0
 27 21  1  0  0  0  0
 28 27  1  0  0  0  0
 29 31  1  0  0  0  0
 29 10  1  0  0  0  0
 30 29  1  0  0  0  0
M  END
>  <minimizedAffinity>
-5.43532133

$$$$

 OpenBabel03262523003D

 31 34  0  0  0  0  0  0  0  0999 V2000
   37.1950   26.4540   34.1460 C   0  0  0  0  0  0  0  0  0  0  0  0
   36.8040   26.6760   32.8280 C   0  0  0  0  0  0  0  0  0  0  0  0
   36.2800   27.9390   32.7500 C   0  0  0  0  0  0  0  0  0  0  0  0
   36.3500   28.4820   34.0060 N   0  0  0  0  0  0  0  0  0  0  0  0
   36.9000   27.5570   34.7910 N   0  0  0  0  0  0  0  0  0  0  0  0
   35.6590   30.7420   33.3720 N   0  0  0  0  0  0  0  0  0  0  0  0
   35.8970   29.7860   34.3140 C   0  0  0  0  0  0  0  0  0  0  0  0
   35.6160   30.3510   35.5060 N   0  0  0  0  0  0  0  0  0  0  0  0
   35.2120   31.6220   35.3400 C   0  0  0  0  0  0  0  0  0  0  0  0
   34.8060   32.6640   36.1360 C   0  0  0  0  0  0  0  0  0  0  0  0
   34.4650   33.8390   35.5810 N   0  0  0  0  0  0  0  0  0  0  0  0
   34.5060   34.0370   34.2600 C   0  0  0  0  0  0  0  0  0  0  0  0
   34.8960   33.0470   33.4480 N   0  0  0  0  0  0  0  0  0  0  0  0
   35.2400   31.8710   33.9770 C   0  0  0  0  0  0  0  0  0  0  0  0
   36.9150   25.9390   32.0190 H   0  0  0  0  0  0  0  0  0  0  0  0
   35.8910   28.3960   31.8470 H   0  0  0  0  0  0  0  0  0  0  0  0
   35.7770   30.6380   32.3200 H   0  0  0  0  0  0  0  0  0  0  0  0
   34.2320   34.9840   33.8030 H   0  0  0  0  0  0  0  0  0  0  0  0
   38.9180   23.2210   34.2510 C   0  0  0  0  0  0  0  0  0  0  0  0
   38.9240   22.9440   35.6650 C   0  0  0  0  0  0  0  0  0  0  0  0
   38.3370   23.8730   36.5350 C   0  0  0  0  0  0  0  0  0  0  0  0
   37.7940   24.9880   35.9900 N   0  0  0  0  0  0  0  0  0  0  0  0
   37.8000   25.2300   34.6480 C   0  0  0  0  0  0  0  0  0  0  0  0
   38.3560   24.3540   33.8030 N   0  0  0  0  0  0  0  0  0  0  0  0
   39.3700   22.5080   33.5730 H   0  0  0  0  0  0  0  0  0  0  0  0
   39.3810   22.0240   36.0230 H   0  0  0  0  0  0  0  0  0  0  0  0
   38.3380   23.5410   38.2750 S   0  0  0  0  0  0  0  0  0  0  0  0
   37.0790   23.1320   38.7420 H   0  0  0  0  0  0  0  0  0  0  0  0
   34.7740   32.4180   37.5450 N   0  0  0  0  0  0  0  0  0  0  0  0
   34.0740   31.8270   38.0480 H   0  0  0  0  0  0  0  0  0  0  0  0
   35.5400   32.8930   38.1020 H   0  0  0  0  0  0  0  0  0  0  0  0
  1 23  1  0  0  0  0
  1  5  2  0  0  0  0
  2  1  1  0  0  0  0
  3  2  2  0  0  0  0
  3  4  1  0  0  0  0
  4  7  1  0  0  0  0
  4  5  1  0  0  0  0
  6 14  1  0  0  0  0
  6  7  1  0  0  0  0
  7  8  2  0  0  0  0
  9  8  1  0  0  0  0
  9 10  1  0  0  0  0
 10 29  1  0  0  0  0
 11 10  2  0  0  0  0
 12 11  1  0  0  0  0
 13 14  1  0  0  0  0
 13 12  2  0  0  0  0
 14  9  2  0  0  0  0
 15  2  1  0  0  0  0
 16  3  1  0  0  0  0
 17  6  1  0  0  0  0
 18 12  1  0  0  0  0
 19 20  1  0  0  0  0
 20 26  1  0  0  0  0
 20 21  2  0  0  0  0
 21 27  1  0  0  0  0
 22 21  1  0  0  0  0
 23 22  2  0  0  0  0
 24 19  2  0  0  0  0
 24 23  1  0  0  0  0
 25 19  1  0  0  0  0
 27 28  1  0  0  0  0
 29 30  1  0  0  0  0
 29 31  1  0  0  0  0
M  END
>  <minimizedAffinity>
-5.33263254

$$$$

 OpenBabel03262523003D

 31 34  0  0  0  0  0  0  0  0999 V2000
   36.5790   28.2470   32.5850 C   0  0  0  0  0  0  0  0  0  0  0  0
   37.6530   27.8930   31.7720 C   0  0  0  0  0  0  0  0  0  0  0  0
   38.3620   26.9130   32.4140 C   0  0  0  0  0  0  0  0  0  0  0  0
   37.7300   26.6720   33.6050 N   0  0  0  0  0  0  0  0  0  0  0  0
   36.6810   27.4910   33.6520 N   0  0  0  0  0  0  0  0  0  0  0  0
   39.0650   24.7220   34.2400 N   0  0  0  0  0  0  0  0  0  0  0  0
   38.1810   25.7140   34.5430 C   0  0  0  0  0  0  0  0  0  0  0  0
   37.8750   25.5630   35.8480 N   0  0  0  0  0  0  0  0  0  0  0  0
   38.5360   24.5130   36.3660 C   0  0  0  0  0  0  0  0  0  0  0  0
   38.6360   23.8850   37.5830 C   0  0  0  0  0  0  0  0  0  0  0  0
   39.4370   22.8150   37.7220 N   0  0  0  0  0  0  0  0  0  0  0  0
   40.1530   22.3300   36.7040 C   0  0  0  0  0  0  0  0  0  0  0  0
   40.0840   22.9130   35.5000 N   0  0  0  0  0  0  0  0  0  0  0  0
   39.2960   23.9770   35.3390 C   0  0  0  0  0  0  0  0  0  0  0  0
   37.8590   28.3450   30.7920 H   0  0  0  0  0  0  0  0  0  0  0  0
   39.2560   26.4360   32.0250 H   0  0  0  0  0  0  0  0  0  0  0  0
   39.5160   24.5430   33.2930 H   0  0  0  0  0  0  0  0  0  0  0  0
   40.8030   21.4660   36.8070 H   0  0  0  0  0  0  0  0  0  0  0  0
   33.3960   30.0570   32.4390 C   0  0  0  0  0  0  0  0  0  0  0  0
   33.7500   31.1970   31.6320 C   0  0  0  0  0  0  0  0  0  0  0  0
   35.0660   31.3080   31.1650 C   0  0  0  0  0  0  0  0  0  0  0  0
   35.9380   30.3270   31.5030 N   0  0  0  0  0  0  0  0  0  0  0  0
   35.5810   29.2560   32.2680 C   0  0  0  0  0  0  0  0  0  0  0  0
   34.3270   29.1350   32.7230 N   0  0  0  0  0  0  0  0  0  0  0  0
   32.3800   29.9650   32.8030 H   0  0  0  0  0  0  0  0  0  0  0  0
   32.9900   31.9420   31.4050 H   0  0  0  0  0  0  0  0  0  0  0  0
   35.5120   32.7060   30.1720 S   0  0  0  0  0  0  0  0  0  0  0  0
   35.6390   32.3770   28.8130 H   0  0  0  0  0  0  0  0  0  0  0  0
   37.8560   24.4300   38.6510 N   0  0  0  0  0  0  0  0  0  0  0  0
   38.0470   25.3260   39.1540 H   0  0  0  0  0  0  0  0  0  0  0  0
   37.0160   23.8510   38.9370 H   0  0  0  0  0  0  0  0  0  0  0  0
  1  5  2  0  0  0  0
  2  3  2  0  0  0  0
  2  1  1  0  0  0  0
  3  4  1  0  0  0  0
  4  5  1  0  0  0  0
  4  7  1  0  0  0  0
  6  7  1  0  0  0  0
  6 14  1  0  0  0  0
  7  8  2  0  0  0  0
  8  9  1  0  0  0  0
  9 10  1  0  0  0  0
 10 11  2  0  0  0  0
 10 29  1  0  0  0  0
 12 18  1  0  0  0  0
 12 11  1  0  0  0  0
 13 12  2  0  0  0  0
 14 13  1  0  0  0  0
 14  9  2  0  0  0  0
 15  2  1  0  0  0  0
 16  3  1  0  0  0  0
 17  6  1  0  0  0  0
 19 24  1  0  0  0  0
 19 25  1  0  0  0  0
 20 19  2  0  0  0  0
 21 22  2  0  0  0  0
 21 20  1  0  0  0  0
 22 23  1  0  0  0  0
 23  1  1  0  0  0  0
 23 24  2  0  0  0  0
 26 20  1  0  0  0  0
 27 21  1  0  0  0  0
 28 27  1  0  0  0  0
 29 31  1  0  0  0  0
 29 30  1  0  0  0  0
M  END
>  <minimizedAffinity>
-5.32069016

$$$$

 OpenBabel03262523003D

 31 34  0  0  0  0  0  0  0  0999 V2000
   36.1860   27.5790   32.0120 C   0  0  0  0  0  0  0  0  0  0  0  0
   36.1450   28.4130   30.8980 C   0  0  0  0  0  0  0  0  0  0  0  0
   36.0060   29.7010   31.3410 C   0  0  0  0  0  0  0  0  0  0  0  0
   35.9630   29.6550   32.7090 N   0  0  0  0  0  0  0  0  0  0  0  0
   36.0730   28.3720   33.0500 N   0  0  0  0  0  0  0  0  0  0  0  0
   36.0470   32.0730   33.0740 N   0  0  0  0  0  0  0  0  0  0  0  0
   35.8240   30.8040   33.5210 C   0  0  0  0  0  0  0  0  0  0  0  0
   35.4690   30.9170   34.8180 N   0  0  0  0  0  0  0  0  0  0  0  0
   35.4640   32.2080   35.1930 C   0  0  0  0  0  0  0  0  0  0  0  0
   35.2000   32.9260   36.3330 C   0  0  0  0  0  0  0  0  0  0  0  0
   35.3060   34.2660   36.3210 N   0  0  0  0  0  0  0  0  0  0  0  0
   35.6660   34.9380   35.2240 C   0  0  0  0  0  0  0  0  0  0  0  0
   35.9330   34.2760   34.0910 N   0  0  0  0  0  0  0  0  0  0  0  0
   35.8330   32.9460   34.0790 C   0  0  0  0  0  0  0  0  0  0  0  0
   36.2150   28.0590   29.8600 H   0  0  0  0  0  0  0  0  0  0  0  0
   35.9450   30.5760   30.7020 H   0  0  0  0  0  0  0  0  0  0  0  0
   36.3440   32.3550   32.0920 H   0  0  0  0  0  0  0  0  0  0  0  0
   35.7540   36.0210   35.2060 H   0  0  0  0  0  0  0  0  0  0  0  0
   35.6290   24.0580   31.1600 C   0  0  0  0  0  0  0  0  0  0  0  0
   36.6440   23.4070   31.9480 C   0  0  0  0  0  0  0  0  0  0  0  0
   37.4860   24.1950   32.7440 C   0  0  0  0  0  0  0  0  0  0  0  0
   37.2930   25.5360   32.7260 N   0  0  0  0  0  0  0  0  0  0  0  0
   36.3250   26.1310   31.9740 C   0  0  0  0  0  0  0  0  0  0  0  0
   35.5120   25.3940   31.2060 N   0  0  0  0  0  0  0  0  0  0  0  0
   34.9740   23.4550   30.5430 H   0  0  0  0  0  0  0  0  0  0  0  0
   36.7340   22.3230   31.9060 H   0  0  0  0  0  0  0  0  0  0  0  0
   38.7380   23.4040   33.7170 S   0  0  0  0  0  0  0  0  0  0  0  0
   38.4040   23.3550   35.0790 H   0  0  0  0  0  0  0  0  0  0  0  0
   34.8170   32.1750   37.4890 N   0  0  0  0  0  0  0  0  0  0  0  0
   33.8980   31.7000   37.6350 H   0  0  0  0  0  0  0  0  0  0  0  0
   35.5540   32.1130   38.2490 H   0  0  0  0  0  0  0  0  0  0  0  0
  1  5  2  0  0  0  0
  2  3  2  0  0  0  0
  2  1  1  0  0  0  0
  3  4  1  0  0  0  0
  4  5  1  0  0  0  0
  4  7  1  0  0  0  0
  6  7  1  0  0  0  0
  6 14  1  0  0  0  0
  7  8  2  0  0  0  0
  8  9  1  0  0  0  0
  9 10  1  0  0  0  0
 10 29  1  0  0  0  0
 11 10  2  0  0  0  0
 12 11  1  0  0  0  0
 13 12  2  0  0  0  0
 14 13  1  0  0  0  0
 14  9  2  0  0  0  0
 15  2  1  0  0  0  0
 16  3  1  0  0  0  0
 17  6  1  0  0  0  0
 18 12  1  0  0  0  0
 19 24  2  0  0  0  0
 19 20  1  0  0  0  0
 20 21  2  0  0  0  0
 21 27  1  0  0  0  0
 22 21  1  0  0  0  0
 23  1  1  0  0  0  0
 23 22  2  0  0  0  0
 24 23  1  0  0  0  0
 25 19  1  0  0  0  0
 26 20  1  0  0  0  0
 27 28  1  0  0  0  0
 29 30  1  0  0  0  0
 29 31  1  0  0  0  0
M  END
>  <minimizedAffinity>
-5.29921913

$$$$

 OpenBabel03262523003D

 31 34  0  0  0  0  0  0  0  0999 V2000
   39.1320   26.8130   32.3410 C   0  0  0  0  0  0  0  0  0  0  0  0
   40.4070   26.6810   31.7980 C   0  0  0  0  0  0  0  0  0  0  0  0
   41.0850   25.7470   32.5350 C   0  0  0  0  0  0  0  0  0  0  0  0
   40.2340   25.3130   33.5170 N   0  0  0  0  0  0  0  0  0  0  0  0
   39.0930   25.9800   33.3530 N   0  0  0  0  0  0  0  0  0  0  0  0
   41.6600   23.5050   34.3440 N   0  0  0  0  0  0  0  0  0  0  0  0
   40.5900   24.3390   34.4790 C   0  0  0  0  0  0  0  0  0  0  0  0
   40.0120   24.0260   35.6570 N   0  0  0  0  0  0  0  0  0  0  0  0
   40.6830   23.0290   36.2580 C   0  0  0  0  0  0  0  0  0  0  0  0
   40.5870   22.3070   37.4230 C   0  0  0  0  0  0  0  0  0  0  0  0
   41.4840   21.3440   37.6910 N   0  0  0  0  0  0  0  0  0  0  0  0
   42.4850   21.0550   36.8530 C   0  0  0  0  0  0  0  0  0  0  0  0
   42.6140   21.7350   35.7070 N   0  0  0  0  0  0  0  0  0  0  0  0
   41.7350   22.6960   35.4200 C   0  0  0  0  0  0  0  0  0  0  0  0
   40.7680   27.2470   30.9280 H   0  0  0  0  0  0  0  0  0  0  0  0
   42.1060   25.4300   32.3510 H   0  0  0  0  0  0  0  0  0  0  0  0
   42.3430   23.4770   33.5290 H   0  0  0  0  0  0  0  0  0  0  0  0
   43.2140   20.2780   37.0620 H   0  0  0  0  0  0  0  0  0  0  0  0
   35.9930   28.6880   32.0920 C   0  0  0  0  0  0  0  0  0  0  0  0
   36.1860   29.4110   30.8620 C   0  0  0  0  0  0  0  0  0  0  0  0
   37.3850   29.2330   30.1580 C   0  0  0  0  0  0  0  0  0  0  0  0
   38.3010   28.3820   30.6820 N   0  0  0  0  0  0  0  0  0  0  0  0
   38.0960   27.7070   31.8480 C   0  0  0  0  0  0  0  0  0  0  0  0
   36.9570   27.8670   32.5340 N   0  0  0  0  0  0  0  0  0  0  0  0
   35.0690   28.8210   32.6420 H   0  0  0  0  0  0  0  0  0  0  0  0
   35.4010   30.0760   30.5080 H   0  0  0  0  0  0  0  0  0  0  0  0
   37.6330   30.1170   28.6430 S   0  0  0  0  0  0  0  0  0  0  0  0
   37.4860   29.2950   27.5140 H   0  0  0  0  0  0  0  0  0  0  0  0
   39.5050   22.6420   38.2970 N   0  0  0  0  0  0  0  0  0  0  0  0
   39.4350   23.5040   38.8840 H   0  0  0  0  0  0  0  0  0  0  0  0
   38.7180   21.9330   38.3310 H   0  0  0  0  0  0  0  0  0  0  0  0
  1  5  2  0  0  0  0
  2  1  1  0  0  0  0
  2  3  2  0  0  0  0
  3  4  1  0  0  0  0
  4  7  1  0  0  0  0
  5  4  1  0  0  0  0
  6  7  1  0  0  0  0
  6 14  1  0  0  0  0
  7  8  2  0  0  0  0
  8  9  1  0  0  0  0
  9 10  1  0  0  0  0
 10 11  2  0  0  0  0
 10 29  1  0  0  0  0
 12 18  1  0  0  0  0
 12 11  1  0  0  0  0
 13 12  2  0  0  0  0
 14 13  1  0  0  0  0
 14  9  2  0  0  0  0
 15  2  1  0  0  0  0
 16  3  1  0  0  0  0
 17  6  1  0  0  0  0
 19 24  1  0  0  0  0
 19 25  1  0  0  0  0
 20 19  2  0  0  0  0
 21 22  2  0  0  0  0
 21 20  1  0  0  0  0
 22 23  1  0  0  0  0
 23  1  1  0  0  0  0
 23 24  2  0  0  0  0
 26 20  1  0  0  0  0
 27 21  1  0  0  0  0
 28 27  1  0  0  0  0
 29 31  1  0  0  0  0
 29 30  1  0  0  0  0
M  END
>  <minimizedAffinity>
-5.26577091

$$$$
