
 OpenBabel03272500523D

 38 42  0  0  1  0  0  0  0  0999 V2000
   37.6770   25.8890   35.7910 C   0  0  1  0  0  0  0  0  0  0  0  0
   38.3730   27.2980   35.9010 C   0  0  0  0  0  0  0  0  0  0  0  0
   38.2100   26.5610   34.6060 C   0  0  2  0  0  0  0  0  0  0  0  0
   36.5790   25.9400   36.0290 H   0  0  0  0  0  0  0  0  0  0  0  0
   37.7040   28.1550   36.0080 H   0  0  0  0  0  0  0  0  0  0  0  0
   39.3730   27.2920   36.3690 H   0  0  0  0  0  0  0  0  0  0  0  0
   39.1490   26.1750   34.1570 H   0  0  0  0  0  0  0  0  0  0  0  0
   39.8470   23.1370   36.5980 C   0  0  0  0  0  0  0  0  0  0  0  0
   39.0480   23.1730   37.7390 C   0  0  0  0  0  0  0  0  0  0  0  0
   38.1200   24.2240   37.5800 C   0  0  0  0  0  0  0  0  0  0  0  0
   38.3780   24.7720   36.3850 N   0  0  0  0  0  0  0  0  0  0  0  0
   39.3780   24.1140   35.8590 N   0  0  0  0  0  0  0  0  0  0  0  0
   39.0980   22.5290   38.6130 H   0  0  0  0  0  0  0  0  0  0  0  0
   37.3540   24.5050   38.3110 H   0  0  0  0  0  0  0  0  0  0  0  0
   41.4380   21.8440   35.1600 C   0  0  0  0  0  0  0  0  0  0  0  0
   40.9000   22.1880   36.4230 C   0  0  0  0  0  0  0  0  0  0  0  0
   41.4530   21.5460   37.5030 C   0  0  0  0  0  0  0  0  0  0  0  0
   42.4480   20.6480   37.3250 N   0  0  0  0  0  0  0  0  0  0  0  0
   42.9310   20.3520   36.0880 C   0  0  0  0  0  0  0  0  0  0  0  0
   42.4160   20.9610   34.9930 N   0  0  0  0  0  0  0  0  0  0  0  0
   41.0240   22.3350   34.2720 H   0  0  0  0  0  0  0  0  0  0  0  0
   41.0600   21.7910   38.4810 H   0  0  0  0  0  0  0  0  0  0  0  0
   43.7170   19.6140   36.1830 H   0  0  0  0  0  0  0  0  0  0  0  0
   37.2640   27.1050   33.5810 C   0  0  0  0  0  0  0  0  0  0  0  0
   37.0910   26.5960   32.2990 C   0  0  0  0  0  0  0  0  0  0  0  0
   36.1390   27.3470   31.6810 N   0  0  0  0  0  0  0  0  0  0  0  0
   35.7160   28.3150   32.5560 C   0  0  0  0  0  0  0  0  0  0  0  0
   36.4030   28.1530   33.6910 N   0  0  0  0  0  0  0  0  0  0  0  0
   37.6040   25.7470   31.8300 H   0  0  0  0  0  0  0  0  0  0  0  0
   35.7810   27.2100   30.6910 H   0  0  0  0  0  0  0  0  0  0  0  0
   34.6750   29.3460   32.2770 C   0  0  0  0  0  0  0  0  0  0  0  0
   34.9600   30.4280   31.4160 C   0  0  0  0  0  0  0  0  0  0  0  0
   33.3750   31.3590   31.4260 S   0  0  0  0  0  0  0  0  0  0  0  0
   32.6050   30.0990   32.6080 C   0  0  0  0  0  0  0  0  0  0  0  0
   33.4580   29.3750   32.7560 N   0  0  0  0  0  0  0  0  0  0  0  0
   35.8800   30.6430   30.8940 H   0  0  0  0  0  0  0  0  0  0  0  0
   30.9040   30.0760   33.3210 S   0  0  0  0  0  0  0  0  0  0  0  0
   30.0520   30.7910   32.4530 H   0  0  0  0  0  0  0  0  0  0  0  0
  1  2  1  0  0  0  0
  1  4  1  1  0  0  0
  1 11  1  0  0  0  0
  2  5  1  0  0  0  0
  2  6  1  0  0  0  0
  3  7  1  6  0  0  0
  3  1  1  0  0  0  0
  3  2  1  0  0  0  0
  8  9  1  0  0  0  0
  9 13  1  0  0  0  0
 10  9  2  0  0  0  0
 10 14  1  0  0  0  0
 11 10  1  0  0  0  0
 12 11  1  0  0  0  0
 12  8  2  0  0  0  0
 15 16  1  0  0  0  0
 16  8  1  0  0  0  0
 16 17  2  0  0  0  0
 17 22  1  0  0  0  0
 18 17  1  0  0  0  0
 19 23  1  0  0  0  0
 19 18  2  0  0  0  0
 20 15  2  0  0  0  0
 20 19  1  0  0  0  0
 21 15  1  0  0  0  0
 24 28  1  0  0  0  0
 24  3  1  0  0  0  0
 25 24  2  0  0  0  0
 26 25  1  0  0  0  0
 26 27  1  0  0  0  0
 27 28  2  0  0  0  0
 29 25  1  0  0  0  0
 30 26  1  0  0  0  0
 31 27  1  0  0  0  0
 31 35  1  0  0  0  0
 32 33  1  0  0  0  0
 32 31  2  0  0  0  0
 33 34  1  0  0  0  0
 34 35  2  0  0  0  0
 34 37  1  0  0  0  0
 36 32  1  0  0  0  0
 38 37  1  0  0  0  0
M  END
>  <minimizedAffinity>
-5.81291008

$$$$

 OpenBabel03272500523D

 38 42  0  0  1  0  0  0  0  0999 V2000
   37.9500   25.5670   35.9340 C   0  0  1  0  0  0  0  0  0  0  0  0
   38.5400   27.0140   36.1280 C   0  0  0  0  0  0  0  0  0  0  0  0
   38.4800   26.3210   34.8000 C   0  0  2  0  0  0  0  0  0  0  0  0
   36.8420   25.5320   36.1260 H   0  0  0  0  0  0  0  0  0  0  0  0
   37.8080   27.8180   36.2380 H   0  0  0  0  0  0  0  0  0  0  0  0
   39.5180   27.0570   36.6380 H   0  0  0  0  0  0  0  0  0  0  0  0
   39.4620   26.0200   34.3760 H   0  0  0  0  0  0  0  0  0  0  0  0
   40.1690   22.8310   36.6600 C   0  0  0  0  0  0  0  0  0  0  0  0
   39.5100   22.9550   37.8820 C   0  0  0  0  0  0  0  0  0  0  0  0
   38.5810   24.0100   37.7640 C   0  0  0  0  0  0  0  0  0  0  0  0
   38.7030   24.4770   36.5140 N   0  0  0  0  0  0  0  0  0  0  0  0
   39.6280   23.7680   35.9190 N   0  0  0  0  0  0  0  0  0  0  0  0
   39.6550   22.3660   38.7840 H   0  0  0  0  0  0  0  0  0  0  0  0
   37.9090   24.3510   38.5590 H   0  0  0  0  0  0  0  0  0  0  0  0
   41.7870   21.0940   37.4580 C   0  0  0  0  0  0  0  0  0  0  0  0
   41.1840   21.8540   36.4260 C   0  0  0  0  0  0  0  0  0  0  0  0
   41.6370   21.6030   35.1560 C   0  0  0  0  0  0  0  0  0  0  0  0
   42.6010   20.6770   34.9470 N   0  0  0  0  0  0  0  0  0  0  0  0
   43.1490   19.9720   35.9730 C   0  0  0  0  0  0  0  0  0  0  0  0
   42.7330   20.1870   37.2450 N   0  0  0  0  0  0  0  0  0  0  0  0
   41.4530   21.2650   38.4860 H   0  0  0  0  0  0  0  0  0  0  0  0
   41.1930   22.1710   34.3490 H   0  0  0  0  0  0  0  0  0  0  0  0
   43.8930   19.2930   35.5780 H   0  0  0  0  0  0  0  0  0  0  0  0
   37.5410   26.8410   33.7560 C   0  0  0  0  0  0  0  0  0  0  0  0
   37.3590   26.2880   32.4940 C   0  0  0  0  0  0  0  0  0  0  0  0
   36.4160   27.0290   31.8500 N   0  0  0  0  0  0  0  0  0  0  0  0
   36.0080   28.0350   32.6900 C   0  0  0  0  0  0  0  0  0  0  0  0
   36.6940   27.9050   33.8290 N   0  0  0  0  0  0  0  0  0  0  0  0
   37.8590   25.4160   32.0550 H   0  0  0  0  0  0  0  0  0  0  0  0
   36.0550   26.8620   30.8660 H   0  0  0  0  0  0  0  0  0  0  0  0
   34.9810   29.0700   32.3750 C   0  0  0  0  0  0  0  0  0  0  0  0
   35.2860   30.1250   31.4890 C   0  0  0  0  0  0  0  0  0  0  0  0
   33.7110   31.0740   31.4610 S   0  0  0  0  0  0  0  0  0  0  0  0
   32.9170   29.8540   32.6690 C   0  0  0  0  0  0  0  0  0  0  0  0
   33.7600   29.1250   32.8430 N   0  0  0  0  0  0  0  0  0  0  0  0
   36.2120   30.3160   30.9690 H   0  0  0  0  0  0  0  0  0  0  0  0
   31.2100   29.8680   33.3670 S   0  0  0  0  0  0  0  0  0  0  0  0
   30.3730   30.5700   32.4730 H   0  0  0  0  0  0  0  0  0  0  0  0
  1  4  1  1  0  0  0
  1  2  1  0  0  0  0
  1 11  1  0  0  0  0
  2  5  1  0  0  0  0
  2  6  1  0  0  0  0
  3  7  1  6  0  0  0
  3  1  1  0  0  0  0
  3  2  1  0  0  0  0
  8  9  1  0  0  0  0
  9 13  1  0  0  0  0
 10  9  2  0  0  0  0
 10 14  1  0  0  0  0
 11 10  1  0  0  0  0
 12 11  1  0  0  0  0
 12  8  2  0  0  0  0
 15 21  1  0  0  0  0
 16  8  1  0  0  0  0
 16 15  2  0  0  0  0
 17 16  1  0  0  0  0
 18 17  2  0  0  0  0
 18 19  1  0  0  0  0
 19 20  2  0  0  0  0
 20 15  1  0  0  0  0
 22 17  1  0  0  0  0
 23 19  1  0  0  0  0
 24 28  1  0  0  0  0
 24  3  1  0  0  0  0
 25 24  2  0  0  0  0
 26 25  1  0  0  0  0
 26 27  1  0  0  0  0
 27 28  2  0  0  0  0
 29 25  1  0  0  0  0
 30 26  1  0  0  0  0
 31 27  1  0  0  0  0
 31 35  1  0  0  0  0
 32 31  2  0  0  0  0
 33 32  1  0  0  0  0
 33 34  1  0  0  0  0
 34 35  2  0  0  0  0
 34 37  1  0  0  0  0
 36 32  1  0  0  0  0
 38 37  1  0  0  0  0
M  END
>  <minimizedAffinity>
-5.57930183

$$$$

 OpenBabel03272500523D

 38 42  0  0  1  0  0  0  0  0999 V2000
   37.2040   26.7350   32.4150 C   0  0  1  0  0  0  0  0  0  0  0  0
   38.7790   26.6910   32.3960 C   0  0  0  0  0  0  0  0  0  0  0  0
   37.9490   26.0070   33.4410 C   0  0  2  0  0  0  0  0  0  0  0  0
   36.7550   26.1870   31.5410 H   0  0  0  0  0  0  0  0  0  0  0  0
   39.2290   26.0060   31.6740 H   0  0  0  0  0  0  0  0  0  0  0  0
   39.2780   27.6340   32.6770 H   0  0  0  0  0  0  0  0  0  0  0  0
   38.0120   26.4450   34.4590 H   0  0  0  0  0  0  0  0  0  0  0  0
   35.6480   29.6230   33.8890 C   0  0  0  0  0  0  0  0  0  0  0  0
   35.7700   30.0470   32.5670 C   0  0  0  0  0  0  0  0  0  0  0  0
   36.3770   29.0040   31.8360 C   0  0  0  0  0  0  0  0  0  0  0  0
   36.5960   28.0130   32.7100 N   0  0  0  0  0  0  0  0  0  0  0  0
   36.1600   28.4160   33.8760 N   0  0  0  0  0  0  0  0  0  0  0  0
   35.4670   30.9990   32.1380 H   0  0  0  0  0  0  0  0  0  0  0  0
   36.6080   29.0360   30.7650 H   0  0  0  0  0  0  0  0  0  0  0  0
   35.8310   31.2950   35.7440 C   0  0  0  0  0  0  0  0  0  0  0  0
   35.0730   30.4380   34.9110 C   0  0  0  0  0  0  0  0  0  0  0  0
   33.7200   30.4240   35.1420 C   0  0  0  0  0  0  0  0  0  0  0  0
   33.1870   31.1970   36.1140 N   0  0  0  0  0  0  0  0  0  0  0  0
   33.9600   32.0060   36.8880 C   0  0  0  0  0  0  0  0  0  0  0  0
   35.3000   32.0520   36.6970 N   0  0  0  0  0  0  0  0  0  0  0  0
   36.9150   31.3350   35.5920 H   0  0  0  0  0  0  0  0  0  0  0  0
   33.1160   29.7760   34.5190 H   0  0  0  0  0  0  0  0  0  0  0  0
   33.3280   32.5290   37.5950 H   0  0  0  0  0  0  0  0  0  0  0  0
   37.9040   24.5100   33.4610 C   0  0  0  0  0  0  0  0  0  0  0  0
   38.7140   23.6940   34.2420 C   0  0  0  0  0  0  0  0  0  0  0  0
   38.3620   22.4030   33.9930 N   0  0  0  0  0  0  0  0  0  0  0  0
   37.3460   22.4010   33.0710 C   0  0  0  0  0  0  0  0  0  0  0  0
   37.0850   23.6760   32.7640 N   0  0  0  0  0  0  0  0  0  0  0  0
   39.5040   23.9910   34.9430 H   0  0  0  0  0  0  0  0  0  0  0  0
   38.7970   21.5410   34.4350 H   0  0  0  0  0  0  0  0  0  0  0  0
   36.6660   21.1910   32.5270 C   0  0  0  0  0  0  0  0  0  0  0  0
   35.6720   20.5340   33.2840 C   0  0  0  0  0  0  0  0  0  0  0  0
   35.1850   19.1550   32.1710 S   0  0  0  0  0  0  0  0  0  0  0  0
   36.4320   19.7250   30.8670 C   0  0  0  0  0  0  0  0  0  0  0  0
   36.8860   20.6280   31.3660 N   0  0  0  0  0  0  0  0  0  0  0  0
   35.3020   20.7870   34.2660 H   0  0  0  0  0  0  0  0  0  0  0  0
   36.7940   18.9850   29.2170 S   0  0  0  0  0  0  0  0  0  0  0  0
   35.6500   18.2780   28.7890 H   0  0  0  0  0  0  0  0  0  0  0  0
  1  4  1  6  0  0  0
  1 11  1  0  0  0  0
  1  3  1  0  0  0  0
  2  1  1  0  0  0  0
  2  6  1  0  0  0  0
  2  3  1  0  0  0  0
  3 24  1  0  0  0  0
  3  7  1  1  0  0  0
  5  2  1  0  0  0  0
  8 16  1  0  0  0  0
  9  8  1  0  0  0  0
 10  9  2  0  0  0  0
 10 11  1  0  0  0  0
 11 12  1  0  0  0  0
 12  8  2  0  0  0  0
 13  9  1  0  0  0  0
 14 10  1  0  0  0  0
 15 20  1  0  0  0  0
 16 17  1  0  0  0  0
 16 15  2  0  0  0  0
 17 18  2  0  0  0  0
 18 19  1  0  0  0  0
 19 23  1  0  0  0  0
 20 19  2  0  0  0  0
 21 15  1  0  0  0  0
 22 17  1  0  0  0  0
 24 25  2  0  0  0  0
 25 29  1  0  0  0  0
 26 25  1  0  0  0  0
 26 30  1  0  0  0  0
 27 26  1  0  0  0  0
 28 27  2  0  0  0  0
 28 24  1  0  0  0  0
 31 27  1  0  0  0  0
 31 32  2  0  0  0  0
 32 36  1  0  0  0  0
 33 32  1  0  0  0  0
 34 35  2  0  0  0  0
 34 33  1  0  0  0  0
 35 31  1  0  0  0  0
 37 34  1  0  0  0  0
 38 37  1  0  0  0  0
M  END
>  <minimizedAffinity>
-5.43778419

$$$$

 OpenBabel03272500523D

 38 42  0  0  1  0  0  0  0  0999 V2000
   38.3070   26.2770   34.5000 C   0  0  1  0  0  0  0  0  0  0  0  0
   38.2390   26.9080   35.9420 C   0  0  0  0  0  0  0  0  0  0  0  0
   37.8630   25.4870   35.6460 C   0  0  2  0  0  0  0  0  0  0  0  0
   39.3640   26.1930   34.1240 H   0  0  0  0  0  0  0  0  0  0  0  0
   39.1930   27.0120   36.4630 H   0  0  0  0  0  0  0  0  0  0  0  0
   37.4190   27.6300   36.1000 H   0  0  0  0  0  0  0  0  0  0  0  0
   36.7820   25.2510   35.7400 H   0  0  0  0  0  0  0  0  0  0  0  0
   35.8720   28.1190   32.5970 C   0  0  0  0  0  0  0  0  0  0  0  0
   36.0600   27.0140   31.7680 C   0  0  0  0  0  0  0  0  0  0  0  0
   37.0090   26.1710   32.3840 C   0  0  0  0  0  0  0  0  0  0  0  0
   37.3550   26.7730   33.5300 N   0  0  0  0  0  0  0  0  0  0  0  0
   36.6750   27.8880   33.6080 N   0  0  0  0  0  0  0  0  0  0  0  0
   35.5830   26.8030   30.8140 H   0  0  0  0  0  0  0  0  0  0  0  0
   37.3680   25.2200   31.9750 H   0  0  0  0  0  0  0  0  0  0  0  0
   33.6690   29.2880   32.8200 C   0  0  0  0  0  0  0  0  0  0  0  0
   34.9720   29.1800   32.2770 C   0  0  0  0  0  0  0  0  0  0  0  0
   35.3390   30.1700   31.4000 C   0  0  0  0  0  0  0  0  0  0  0  0
   34.4770   31.1690   31.1020 N   0  0  0  0  0  0  0  0  0  0  0  0
   33.2340   31.2280   31.6510 C   0  0  0  0  0  0  0  0  0  0  0  0
   32.8290   30.2720   32.5220 N   0  0  0  0  0  0  0  0  0  0  0  0
   33.3390   28.5180   33.5240 H   0  0  0  0  0  0  0  0  0  0  0  0
   36.3300   30.1110   30.9700 H   0  0  0  0  0  0  0  0  0  0  0  0
   32.7220   32.1040   31.2750 H   0  0  0  0  0  0  0  0  0  0  0  0
   38.7380   24.3870   36.1650 C   0  0  0  0  0  0  0  0  0  0  0  0
   38.3950   23.5010   37.1790 C   0  0  0  0  0  0  0  0  0  0  0  0
   39.4390   22.6450   37.3510 N   0  0  0  0  0  0  0  0  0  0  0  0
   40.4270   22.9830   36.4600 C   0  0  0  0  0  0  0  0  0  0  0  0
   39.9860   24.0310   35.7570 N   0  0  0  0  0  0  0  0  0  0  0  0
   37.4660   23.4600   37.7620 H   0  0  0  0  0  0  0  0  0  0  0  0
   39.4860   21.8490   38.0530 H   0  0  0  0  0  0  0  0  0  0  0  0
   41.7400   22.2930   36.3140 C   0  0  0  0  0  0  0  0  0  0  0  0
   42.8670   23.0030   35.8470 C   0  0  0  0  0  0  0  0  0  0  0  0
   44.1740   21.7100   35.8640 S   0  0  0  0  0  0  0  0  0  0  0  0
   42.9420   20.4280   36.5080 C   0  0  0  0  0  0  0  0  0  0  0  0
   41.9960   21.0380   36.5820 N   0  0  0  0  0  0  0  0  0  0  0  0
   42.9310   24.0400   35.5560 H   0  0  0  0  0  0  0  0  0  0  0  0
   43.2300   18.6500   36.9060 S   0  0  0  0  0  0  0  0  0  0  0  0
   44.5970   18.4820   37.2140 H   0  0  0  0  0  0  0  0  0  0  0  0
  1  4  1  6  0  0  0
  1  3  1  0  0  0  0
  1  2  1  0  0  0  0
  2  6  1  0  0  0  0
  2  5  1  0  0  0  0
  3  7  1  1  0  0  0
  3  2  1  0  0  0  0
  3 24  1  0  0  0  0
  8 12  2  0  0  0  0
  9 10  2  0  0  0  0
  9  8  1  0  0  0  0
 10 11  1  0  0  0  0
 11 12  1  0  0  0  0
 11  1  1  0  0  0  0
 13  9  1  0  0  0  0
 14 10  1  0  0  0  0
 15 21  1  0  0  0  0
 16  8  1  0  0  0  0
 16 15  2  0  0  0  0
 17 16  1  0  0  0  0
 18 17  2  0  0  0  0
 18 19  1  0  0  0  0
 19 20  2  0  0  0  0
 20 15  1  0  0  0  0
 22 17  1  0  0  0  0
 23 19  1  0  0  0  0
 24 25  2  0  0  0  0
 25 26  1  0  0  0  0
 25 29  1  0  0  0  0
 26 30  1  0  0  0  0
 27 26  1  0  0  0  0
 28 24  1  0  0  0  0
 28 27  2  0  0  0  0
 31 27  1  0  0  0  0
 31 35  1  0  0  0  0
 32 33  1  0  0  0  0
 32 31  2  0  0  0  0
 33 34  1  0  0  0  0
 34 35  2  0  0  0  0
 34 37  1  0  0  0  0
 36 32  1  0  0  0  0
 37 38  1  0  0  0  0
M  END
>  <minimizedAffinity>
-5.42897844

$$$$

 OpenBabel03272500523D

 38 42  0  0  1  0  0  0  0  0999 V2000
   36.3710   28.1210   31.4960 C   0  0  1  0  0  0  0  0  0  0  0  0
   37.8230   27.5280   31.6360 C   0  0  0  0  0  0  0  0  0  0  0  0
   36.6210   26.9260   32.3000 C   0  0  2  0  0  0  0  0  0  0  0  0
   35.9750   28.0290   30.4470 H   0  0  0  0  0  0  0  0  0  0  0  0
   38.1880   26.9520   30.7830 H   0  0  0  0  0  0  0  0  0  0  0  0
   38.5120   28.1170   32.2650 H   0  0  0  0  0  0  0  0  0  0  0  0
   36.5940   27.0180   33.4070 H   0  0  0  0  0  0  0  0  0  0  0  0
   35.5620   30.8540   33.6900 C   0  0  0  0  0  0  0  0  0  0  0  0
   35.9530   31.5520   32.5480 C   0  0  0  0  0  0  0  0  0  0  0  0
   36.3110   30.6030   31.5670 C   0  0  0  0  0  0  0  0  0  0  0  0
   36.1300   29.4000   32.1270 N   0  0  0  0  0  0  0  0  0  0  0  0
   35.6990   29.5960   33.3470 N   0  0  0  0  0  0  0  0  0  0  0  0
   35.9910   32.6280   32.4010 H   0  0  0  0  0  0  0  0  0  0  0  0
   36.6620   30.8430   30.5570 H   0  0  0  0  0  0  0  0  0  0  0  0
   35.7850   32.6420   35.4290 C   0  0  0  0  0  0  0  0  0  0  0  0
   35.1340   31.5080   34.8850 C   0  0  0  0  0  0  0  0  0  0  0  0
   34.0450   31.0520   35.5840 C   0  0  0  0  0  0  0  0  0  0  0  0
   33.6510   31.6770   36.7170 N   0  0  0  0  0  0  0  0  0  0  0  0
   34.3110   32.7660   37.1980 C   0  0  0  0  0  0  0  0  0  0  0  0
   35.3920   33.2520   36.5410 N   0  0  0  0  0  0  0  0  0  0  0  0
   36.6590   33.0380   34.9010 H   0  0  0  0  0  0  0  0  0  0  0  0
   33.5300   30.1850   35.1900 H   0  0  0  0  0  0  0  0  0  0  0  0
   33.8260   33.1000   38.1060 H   0  0  0  0  0  0  0  0  0  0  0  0
   36.1210   25.5980   31.8220 C   0  0  0  0  0  0  0  0  0  0  0  0
   35.1490   25.4120   30.8460 C   0  0  0  0  0  0  0  0  0  0  0  0
   34.9820   24.0710   30.6800 N   0  0  0  0  0  0  0  0  0  0  0  0
   35.8340   23.4200   31.5360 C   0  0  0  0  0  0  0  0  0  0  0  0
   36.5090   24.3540   32.2130 N   0  0  0  0  0  0  0  0  0  0  0  0
   34.5920   26.1740   30.2860 H   0  0  0  0  0  0  0  0  0  0  0  0
   34.3090   23.6040   30.0040 H   0  0  0  0  0  0  0  0  0  0  0  0
   35.9720   21.9410   31.6690 C   0  0  0  0  0  0  0  0  0  0  0  0
   35.7450   21.3150   32.9130 C   0  0  0  0  0  0  0  0  0  0  0  0
   36.0400   19.5440   32.5170 S   0  0  0  0  0  0  0  0  0  0  0  0
   36.4220   19.9790   30.7160 C   0  0  0  0  0  0  0  0  0  0  0  0
   36.2940   21.0990   30.7200 N   0  0  0  0  0  0  0  0  0  0  0  0
   35.4700   21.7720   33.8510 H   0  0  0  0  0  0  0  0  0  0  0  0
   36.8810   18.8510   29.3300 S   0  0  0  0  0  0  0  0  0  0  0  0
   36.3710   17.5670   29.6190 H   0  0  0  0  0  0  0  0  0  0  0  0
  1  4  1  6  0  0  0
  1  2  1  0  0  0  0
  1 11  1  0  0  0  0
  1  3  1  0  0  0  0
  2  6  1  0  0  0  0
  2  3  1  0  0  0  0
  3  7  1  1  0  0  0
  5  2  1  0  0  0  0
  8 16  1  0  0  0  0
  9  8  1  0  0  0  0
 10 11  1  0  0  0  0
 10  9  2  0  0  0  0
 11 12  1  0  0  0  0
 12  8  2  0  0  0  0
 13  9  1  0  0  0  0
 14 10  1  0  0  0  0
 15 20  1  0  0  0  0
 16 15  2  0  0  0  0
 16 17  1  0  0  0  0
 17 18  2  0  0  0  0
 18 19  1  0  0  0  0
 19 23  1  0  0  0  0
 20 19  2  0  0  0  0
 21 15  1  0  0  0  0
 22 17  1  0  0  0  0
 24 28  1  0  0  0  0
 24  3  1  0  0  0  0
 25 24  2  0  0  0  0
 26 25  1  0  0  0  0
 26 27  1  0  0  0  0
 27 31  1  0  0  0  0
 27 28  2  0  0  0  0
 29 25  1  0  0  0  0
 30 26  1  0  0  0  0
 31 32  2  0  0  0  0
 32 36  1  0  0  0  0
 33 32  1  0  0  0  0
 34 35  2  0  0  0  0
 34 33  1  0  0  0  0
 35 31  1  0  0  0  0
 37 38  1  0  0  0  0
 37 34  1  0  0  0  0
M  END
>  <minimizedAffinity>
-5.22510338

$$$$

 OpenBabel03272500523D

 38 42  0  0  1  0  0  0  0  0999 V2000
   37.0610   27.0450   33.7120 C   0  0  1  0  0  0  0  0  0  0  0  0
   38.4700   27.0870   33.0070 C   0  0  0  0  0  0  0  0  0  0  0  0
   38.2950   27.0040   34.4940 C   0  0  2  0  0  0  0  0  0  0  0  0
   36.5010   26.0970   33.4820 H   0  0  0  0  0  0  0  0  0  0  0  0
   38.8040   26.1520   32.5510 H   0  0  0  0  0  0  0  0  0  0  0  0
   38.7510   28.0650   32.5810 H   0  0  0  0  0  0  0  0  0  0  0  0
   38.5940   27.9120   35.0590 H   0  0  0  0  0  0  0  0  0  0  0  0
   35.3320   30.1440   34.2990 C   0  0  0  0  0  0  0  0  0  0  0  0
   34.9610   29.8910   32.9790 C   0  0  0  0  0  0  0  0  0  0  0  0
   35.5690   28.6800   32.5860 C   0  0  0  0  0  0  0  0  0  0  0  0
   36.2670   28.2520   33.6460 N   0  0  0  0  0  0  0  0  0  0  0  0
   36.1000   29.1250   34.6050 N   0  0  0  0  0  0  0  0  0  0  0  0
   34.3220   30.4910   32.3370 H   0  0  0  0  0  0  0  0  0  0  0  0
   35.4670   28.2150   31.5990 H   0  0  0  0  0  0  0  0  0  0  0  0
   35.3890   31.6560   36.2940 C   0  0  0  0  0  0  0  0  0  0  0  0
   34.8930   31.2960   35.0180 C   0  0  0  0  0  0  0  0  0  0  0  0
   33.9390   32.1310   34.4900 C   0  0  0  0  0  0  0  0  0  0  0  0
   33.5280   33.2180   35.1810 N   0  0  0  0  0  0  0  0  0  0  0  0
   34.0380   33.5210   36.4060 C   0  0  0  0  0  0  0  0  0  0  0  0
   34.9810   32.7260   36.9660 N   0  0  0  0  0  0  0  0  0  0  0  0
   36.1520   31.0160   36.7490 H   0  0  0  0  0  0  0  0  0  0  0  0
   33.5420   31.8780   33.5160 H   0  0  0  0  0  0  0  0  0  0  0  0
   33.5690   34.4260   36.7700 H   0  0  0  0  0  0  0  0  0  0  0  0
   38.6810   25.7380   35.1960 C   0  0  0  0  0  0  0  0  0  0  0  0
   37.8170   24.9330   35.9280 C   0  0  0  0  0  0  0  0  0  0  0  0
   38.5350   23.8740   36.3940 N   0  0  0  0  0  0  0  0  0  0  0  0
   39.8310   24.0060   35.9640 C   0  0  0  0  0  0  0  0  0  0  0  0
   39.8980   25.1320   35.2470 N   0  0  0  0  0  0  0  0  0  0  0  0
   36.7470   25.0820   36.1220 H   0  0  0  0  0  0  0  0  0  0  0  0
   38.1590   23.0780   36.9890 H   0  0  0  0  0  0  0  0  0  0  0  0
   40.9450   23.0570   36.2500 C   0  0  0  0  0  0  0  0  0  0  0  0
   40.6860   21.8370   36.9110 C   0  0  0  0  0  0  0  0  0  0  0  0
   42.3590   21.0810   36.9980 S   0  0  0  0  0  0  0  0  0  0  0  0
   43.1140   22.5720   36.1110 C   0  0  0  0  0  0  0  0  0  0  0  0
   42.2060   23.2200   35.9440 N   0  0  0  0  0  0  0  0  0  0  0  0
   39.7420   21.4590   37.2710 H   0  0  0  0  0  0  0  0  0  0  0  0
   44.8750   22.8690   35.6490 S   0  0  0  0  0  0  0  0  0  0  0  0
   45.5160   21.6180   35.5250 H   0  0  0  0  0  0  0  0  0  0  0  0
  1  4  1  6  0  0  0
  1  3  1  0  0  0  0
  2  1  1  0  0  0  0
  2  3  1  0  0  0  0
  3  7  1  1  0  0  0
  3 24  1  0  0  0  0
  5  2  1  0  0  0  0
  6  2  1  0  0  0  0
  8 12  2  0  0  0  0
  8 16  1  0  0  0  0
  9  8  1  0  0  0  0
 10  9  2  0  0  0  0
 10 11  1  0  0  0  0
 11  1  1  0  0  0  0
 11 12  1  0  0  0  0
 13  9  1  0  0  0  0
 14 10  1  0  0  0  0
 15 21  1  0  0  0  0
 15 20  1  0  0  0  0
 16 15  2  0  0  0  0
 17 16  1  0  0  0  0
 17 18  2  0  0  0  0
 18 19  1  0  0  0  0
 19 23  1  0  0  0  0
 19 20  2  0  0  0  0
 22 17  1  0  0  0  0
 24 28  1  0  0  0  0
 24 25  2  0  0  0  0
 25 29  1  0  0  0  0
 25 26  1  0  0  0  0
 26 30  1  0  0  0  0
 27 31  1  0  0  0  0
 27 26  1  0  0  0  0
 28 27  2  0  0  0  0
 31 32  2  0  0  0  0
 32 33  1  0  0  0  0
 32 36  1  0  0  0  0
 34 33  1  0  0  0  0
 35 34  2  0  0  0  0
 35 31  1  0  0  0  0
 37 34  1  0  0  0  0
 38 37  1  0  0  0  0
M  END
>  <minimizedAffinity>
-5.20908785

$$$$

 OpenBabel03272500523D

 38 42  0  0  1  0  0  0  0  0999 V2000
   34.8390   29.3650   34.0000 C   0  0  1  0  0  0  0  0  0  0  0  0
   34.6550   29.7160   32.4750 C   0  0  0  0  0  0  0  0  0  0  0  0
   35.9250   29.1580   33.0430 C   0  0  2  0  0  0  0  0  0  0  0  0
   34.1880   28.5040   34.3170 H   0  0  0  0  0  0  0  0  0  0  0  0
   34.0830   28.9970   31.8840 H   0  0  0  0  0  0  0  0  0  0  0  0
   34.6320   30.7950   32.2430 H   0  0  0  0  0  0  0  0  0  0  0  0
   36.7870   29.8580   33.0610 H   0  0  0  0  0  0  0  0  0  0  0  0
   34.1310   32.1620   36.1470 C   0  0  0  0  0  0  0  0  0  0  0  0
   35.5040   32.0290   36.3470 C   0  0  0  0  0  0  0  0  0  0  0  0
   35.9500   30.9490   35.5570 C   0  0  0  0  0  0  0  0  0  0  0  0
   34.8690   30.4780   34.9230 N   0  0  0  0  0  0  0  0  0  0  0  0
   33.8480   31.2070   35.2940 N   0  0  0  0  0  0  0  0  0  0  0  0
   36.1480   32.6270   36.9870 H   0  0  0  0  0  0  0  0  0  0  0  0
   36.9860   30.5960   35.4990 H   0  0  0  0  0  0  0  0  0  0  0  0
   31.9480   33.2890   36.6340 C   0  0  0  0  0  0  0  0  0  0  0  0
   33.3490   33.1630   36.7990 C   0  0  0  0  0  0  0  0  0  0  0  0
   33.9370   34.0780   37.6360 C   0  0  0  0  0  0  0  0  0  0  0  0
   33.1870   35.0240   38.2450 N   0  0  0  0  0  0  0  0  0  0  0  0
   31.8420   35.1020   38.0540 C   0  0  0  0  0  0  0  0  0  0  0  0
   31.2180   34.2200   37.2370 N   0  0  0  0  0  0  0  0  0  0  0  0
   31.4410   32.5770   35.9740 H   0  0  0  0  0  0  0  0  0  0  0  0
   35.0070   34.0050   37.7780 H   0  0  0  0  0  0  0  0  0  0  0  0
   31.4500   35.9270   38.6360 H   0  0  0  0  0  0  0  0  0  0  0  0
   36.3270   27.7630   32.6760 C   0  0  0  0  0  0  0  0  0  0  0  0
   36.2280   27.2080   31.4050 C   0  0  0  0  0  0  0  0  0  0  0  0
   36.7060   25.9350   31.4720 N   0  0  0  0  0  0  0  0  0  0  0  0
   37.1010   25.6880   32.7620 C   0  0  0  0  0  0  0  0  0  0  0  0
   36.8660   26.7970   33.4700 N   0  0  0  0  0  0  0  0  0  0  0  0
   35.8430   27.6720   30.4890 H   0  0  0  0  0  0  0  0  0  0  0  0
   36.7650   25.2470   30.6650 H   0  0  0  0  0  0  0  0  0  0  0  0
   37.6890   24.4120   33.2640 C   0  0  0  0  0  0  0  0  0  0  0  0
   37.5950   23.2350   32.4910 C   0  0  0  0  0  0  0  0  0  0  0  0
   38.4600   22.0060   33.5500 S   0  0  0  0  0  0  0  0  0  0  0  0
   38.7960   23.3270   34.8620 C   0  0  0  0  0  0  0  0  0  0  0  0
   38.3200   24.2370   34.3970 N   0  0  0  0  0  0  0  0  0  0  0  0
   37.1290   23.1030   31.5270 H   0  0  0  0  0  0  0  0  0  0  0  0
   39.6750   23.1530   36.4750 S   0  0  0  0  0  0  0  0  0  0  0  0
   40.5630   22.0600   36.3770 H   0  0  0  0  0  0  0  0  0  0  0  0
  1  4  1  1  0  0  0
  1 11  1  0  0  0  0
  2  3  1  0  0  0  0
  2  1  1  0  0  0  0
  3  7  1  1  0  0  0
  3  1  1  0  0  0  0
  5  2  1  0  0  0  0
  6  2  1  0  0  0  0
  8  9  1  0  0  0  0
  8 16  1  0  0  0  0
  9 13  1  0  0  0  0
 10  9  2  0  0  0  0
 11 12  1  0  0  0  0
 11 10  1  0  0  0  0
 12  8  2  0  0  0  0
 14 10  1  0  0  0  0
 15 16  2  0  0  0  0
 15 20  1  0  0  0  0
 16 17  1  0  0  0  0
 17 22  1  0  0  0  0
 17 18  2  0  0  0  0
 19 18  1  0  0  0  0
 19 23  1  0  0  0  0
 20 19  2  0  0  0  0
 21 15  1  0  0  0  0
 24  3  1  0  0  0  0
 24 28  1  0  0  0  0
 25 26  1  0  0  0  0
 25 24  2  0  0  0  0
 26 27  1  0  0  0  0
 27 31  1  0  0  0  0
 27 28  2  0  0  0  0
 29 25  1  0  0  0  0
 30 26  1  0  0  0  0
 31 35  1  0  0  0  0
 32 31  2  0  0  0  0
 32 33  1  0  0  0  0
 33 34  1  0  0  0  0
 34 37  1  0  0  0  0
 35 34  2  0  0  0  0
 36 32  1  0  0  0  0
 38 37  1  0  0  0  0
M  END
>  <minimizedAffinity>
-5.15230656

$$$$

 OpenBabel03272500523D

 38 42  0  0  1  0  0  0  0  0999 V2000
   37.9490   26.4040   33.0600 C   0  0  1  0  0  0  0  0  0  0  0  0
   38.4720   27.0860   31.7400 C   0  0  0  0  0  0  0  0  0  0  0  0
   37.0290   27.0820   32.1480 C   0  0  2  0  0  0  0  0  0  0  0  0
   38.3240   26.9270   33.9830 H   0  0  0  0  0  0  0  0  0  0  0  0
   38.9620   28.0550   31.8640 H   0  0  0  0  0  0  0  0  0  0  0  0
   38.7780   26.3890   30.9410 H   0  0  0  0  0  0  0  0  0  0  0  0
   36.3580   26.4630   31.5160 H   0  0  0  0  0  0  0  0  0  0  0  0
   37.3800   22.8590   32.8470 C   0  0  0  0  0  0  0  0  0  0  0  0
   38.6430   22.8790   33.4360 C   0  0  0  0  0  0  0  0  0  0  0  0
   39.0220   24.2290   33.5940 C   0  0  0  0  0  0  0  0  0  0  0  0
   38.0090   24.9600   33.1110 N   0  0  0  0  0  0  0  0  0  0  0  0
   37.0890   24.1290   32.6930 N   0  0  0  0  0  0  0  0  0  0  0  0
   39.2560   22.0330   33.7350 H   0  0  0  0  0  0  0  0  0  0  0  0
   39.9670   24.5720   34.0300 H   0  0  0  0  0  0  0  0  0  0  0  0
   36.5550   21.1370   31.2270 C   0  0  0  0  0  0  0  0  0  0  0  0
   36.6900   21.6470   32.5410 C   0  0  0  0  0  0  0  0  0  0  0  0
   36.1070   20.9010   33.5350 C   0  0  0  0  0  0  0  0  0  0  0  0
   35.4530   19.7570   33.2320 N   0  0  0  0  0  0  0  0  0  0  0  0
   35.3520   19.3090   31.9520 C   0  0  0  0  0  0  0  0  0  0  0  0
   35.9120   20.0120   30.9380 N   0  0  0  0  0  0  0  0  0  0  0  0
   37.0070   21.7030   30.4060 H   0  0  0  0  0  0  0  0  0  0  0  0
   36.1950   21.2690   34.5490 H   0  0  0  0  0  0  0  0  0  0  0  0
   34.7920   18.3820   31.9450 H   0  0  0  0  0  0  0  0  0  0  0  0
   36.3940   28.3720   32.5670 C   0  0  0  0  0  0  0  0  0  0  0  0
   36.0150   29.3960   31.7060 C   0  0  0  0  0  0  0  0  0  0  0  0
   35.4640   30.3860   32.4600 N   0  0  0  0  0  0  0  0  0  0  0  0
   35.4930   29.9970   33.7750 C   0  0  0  0  0  0  0  0  0  0  0  0
   36.0550   28.7850   33.8180 N   0  0  0  0  0  0  0  0  0  0  0  0
   36.1210   29.4410   30.6150 H   0  0  0  0  0  0  0  0  0  0  0  0
   35.0760   31.3050   32.0960 H   0  0  0  0  0  0  0  0  0  0  0  0
   34.9820   30.7900   34.9290 C   0  0  0  0  0  0  0  0  0  0  0  0
   35.8810   31.4660   35.7810 C   0  0  0  0  0  0  0  0  0  0  0  0
   34.7480   32.2590   36.9920 S   0  0  0  0  0  0  0  0  0  0  0  0
   33.2430   31.5230   36.1130 C   0  0  0  0  0  0  0  0  0  0  0  0
   33.7290   30.9500   35.2710 N   0  0  0  0  0  0  0  0  0  0  0  0
   36.9590   31.4980   35.7250 H   0  0  0  0  0  0  0  0  0  0  0  0
   31.4570   31.7050   36.5370 S   0  0  0  0  0  0  0  0  0  0  0  0
   31.2950   32.9100   37.2540 H   0  0  0  0  0  0  0  0  0  0  0  0
  1 11  1  0  0  0  0
  1  4  1  1  0  0  0
  2  5  1  0  0  0  0
  2  3  1  0  0  0  0
  2  1  1  0  0  0  0
  3  7  1  6  0  0  0
  3 24  1  0  0  0  0
  3  1  1  0  0  0  0
  6  2  1  0  0  0  0
  8  9  1  0  0  0  0
  9 10  2  0  0  0  0
  9 13  1  0  0  0  0
 10 14  1  0  0  0  0
 11 10  1  0  0  0  0
 12  8  2  0  0  0  0
 12 11  1  0  0  0  0
 15 16  1  0  0  0  0
 16  8  1  0  0  0  0
 16 17  2  0  0  0  0
 17 22  1  0  0  0  0
 18 17  1  0  0  0  0
 19 18  2  0  0  0  0
 20 15  2  0  0  0  0
 20 19  1  0  0  0  0
 21 15  1  0  0  0  0
 23 19  1  0  0  0  0
 24 28  1  0  0  0  0
 25 26  1  0  0  0  0
 25 24  2  0  0  0  0
 26 27  1  0  0  0  0
 27 28  2  0  0  0  0
 27 31  1  0  0  0  0
 29 25  1  0  0  0  0
 30 26  1  0  0  0  0
 31 35  1  0  0  0  0
 31 32  2  0  0  0  0
 32 33  1  0  0  0  0
 34 37  1  0  0  0  0
 34 33  1  0  0  0  0
 35 34  2  0  0  0  0
 36 32  1  0  0  0  0
 37 38  1  0  0  0  0
M  END
>  <minimizedAffinity>
-5.1225214

$$$$

 OpenBabel03272500523D

 38 42  0  0  1  0  0  0  0  0999 V2000
   37.4990   25.5250   31.4630 C   0  0  1  0  0  0  0  0  0  0  0  0
   35.9440   25.3990   31.2490 C   0  0  0  0  0  0  0  0  0  0  0  0
   36.6030   26.6320   31.7910 C   0  0  2  0  0  0  0  0  0  0  0  0
   38.0620   25.5180   30.4890 H   0  0  0  0  0  0  0  0  0  0  0  0
   35.5930   25.5040   30.2200 H   0  0  0  0  0  0  0  0  0  0  0  0
   35.4240   24.7420   31.9670 H   0  0  0  0  0  0  0  0  0  0  0  0
   36.3990   26.8490   32.8610 H   0  0  0  0  0  0  0  0  0  0  0  0
   38.5430   23.9870   34.5420 C   0  0  0  0  0  0  0  0  0  0  0  0
   39.1950   23.1730   33.6170 C   0  0  0  0  0  0  0  0  0  0  0  0
   38.8830   23.6520   32.3280 C   0  0  0  0  0  0  0  0  0  0  0  0
   38.0780   24.7080   32.5060 N   0  0  0  0  0  0  0  0  0  0  0  0
   37.9120   24.8610   33.7950 N   0  0  0  0  0  0  0  0  0  0  0  0
   39.8350   22.3160   33.8130 H   0  0  0  0  0  0  0  0  0  0  0  0
   39.2470   23.2200   31.3890 H   0  0  0  0  0  0  0  0  0  0  0  0
   37.7450   24.3600   36.8860 C   0  0  0  0  0  0  0  0  0  0  0  0
   38.6400   23.7840   35.9520 C   0  0  0  0  0  0  0  0  0  0  0  0
   39.6340   23.0010   36.4820 C   0  0  0  0  0  0  0  0  0  0  0  0
   39.7170   22.8180   37.8190 N   0  0  0  0  0  0  0  0  0  0  0  0
   38.8310   23.3940   38.6760 C   0  0  0  0  0  0  0  0  0  0  0  0
   37.8320   24.1750   38.1980 N   0  0  0  0  0  0  0  0  0  0  0  0
   36.9360   24.9920   36.5030 H   0  0  0  0  0  0  0  0  0  0  0  0
   40.3320   22.5480   35.7900 H   0  0  0  0  0  0  0  0  0  0  0  0
   39.0850   23.1140   39.6900 H   0  0  0  0  0  0  0  0  0  0  0  0
   36.6220   27.8700   30.9480 C   0  0  0  0  0  0  0  0  0  0  0  0
   35.7800   28.9630   31.1110 C   0  0  0  0  0  0  0  0  0  0  0  0
   36.1150   29.8870   30.1690 N   0  0  0  0  0  0  0  0  0  0  0  0
   37.1520   29.3870   29.4230 C   0  0  0  0  0  0  0  0  0  0  0  0
   37.4420   28.1750   29.9060 N   0  0  0  0  0  0  0  0  0  0  0  0
   34.9790   29.1020   31.8490 H   0  0  0  0  0  0  0  0  0  0  0  0
   35.6560   30.8350   30.0320 H   0  0  0  0  0  0  0  0  0  0  0  0
   37.8240   30.0840   28.2880 C   0  0  0  0  0  0  0  0  0  0  0  0
   39.0350   29.5840   27.7640 C   0  0  0  0  0  0  0  0  0  0  0  0
   39.4040   30.7870   26.4250 S   0  0  0  0  0  0  0  0  0  0  0  0
   37.8320   31.7610   26.8220 C   0  0  0  0  0  0  0  0  0  0  0  0
   37.4050   31.1640   27.6790 N   0  0  0  0  0  0  0  0  0  0  0  0
   39.5930   28.7160   28.0800 H   0  0  0  0  0  0  0  0  0  0  0  0
   37.1820   33.2850   26.0110 S   0  0  0  0  0  0  0  0  0  0  0  0
   37.6880   33.3330   24.6940 H   0  0  0  0  0  0  0  0  0  0  0  0
  1  4  1  6  0  0  0
  1  3  1  0  0  0  0
  1 11  1  0  0  0  0
  2  1  1  0  0  0  0
  2  3  1  0  0  0  0
  2  6  1  0  0  0  0
  3  7  1  1  0  0  0
  5  2  1  0  0  0  0
  8 16  1  0  0  0  0
  9 13  1  0  0  0  0
  9  8  1  0  0  0  0
 10 11  1  0  0  0  0
 10  9  2  0  0  0  0
 11 12  1  0  0  0  0
 12  8  2  0  0  0  0
 14 10  1  0  0  0  0
 15 20  1  0  0  0  0
 16 17  1  0  0  0  0
 16 15  2  0  0  0  0
 17 18  2  0  0  0  0
 18 19  1  0  0  0  0
 19 23  1  0  0  0  0
 20 19  2  0  0  0  0
 21 15  1  0  0  0  0
 22 17  1  0  0  0  0
 24 25  2  0  0  0  0
 24  3  1  0  0  0  0
 25 29  1  0  0  0  0
 26 25  1  0  0  0  0
 27 28  2  0  0  0  0
 27 26  1  0  0  0  0
 28 24  1  0  0  0  0
 30 26  1  0  0  0  0
 31 27  1  0  0  0  0
 32 36  1  0  0  0  0
 32 31  2  0  0  0  0
 33 34  1  0  0  0  0
 33 32  1  0  0  0  0
 34 35  2  0  0  0  0
 35 31  1  0  0  0  0
 37 34  1  0  0  0  0
 38 37  1  0  0  0  0
M  END
>  <minimizedAffinity>
-5.11879253

$$$$
