
 OpenBabel03272510093D

 20 21  0  0  0  0  0  0  0  0999 V2000
   38.0950   31.1720   48.1380 C   0  0  0  0  0  0  0  0  0  0  0  0
   38.7420   32.3980   48.2200 C   0  0  0  0  0  0  0  0  0  0  0  0
   39.3580   33.0180   47.1590 C   0  0  0  0  0  0  0  0  0  0  0  0
   39.3500   32.4160   45.9260 C   0  0  0  0  0  0  0  0  0  0  0  0
   38.7070   31.2050   45.8610 C   0  0  0  0  0  0  0  0  0  0  0  0
   38.1090   30.6140   46.9110 N   0  0  0  0  0  0  0  0  0  0  0  0
   38.7390   32.8640   49.2090 H   0  0  0  0  0  0  0  0  0  0  0  0
   39.8340   33.9720   47.3290 H   0  0  0  0  0  0  0  0  0  0  0  0
   38.6790   30.6930   44.8990 H   0  0  0  0  0  0  0  0  0  0  0  0
   37.8330   30.7620   50.5980 C   0  0  0  0  0  0  0  0  0  0  0  0
   37.4530   30.5350   49.2650 C   0  0  0  0  0  0  0  0  0  0  0  0
   36.4130   29.6560   49.0240 C   0  0  0  0  0  0  0  0  0  0  0  0
   35.8020   29.0500   50.0850 N   0  0  0  0  0  0  0  0  0  0  0  0
   36.1940   29.2920   51.3560 C   0  0  0  0  0  0  0  0  0  0  0  0
   37.2090   30.1470   51.6220 N   0  0  0  0  0  0  0  0  0  0  0  0
   38.6560   31.4640   50.7100 H   0  0  0  0  0  0  0  0  0  0  0  0
   36.0260   29.3950   48.0550 H   0  0  0  0  0  0  0  0  0  0  0  0
   35.7300   28.8280   52.2190 H   0  0  0  0  0  0  0  0  0  0  0  0
   40.1440   33.2140   44.5540 S   0  0  0  0  0  0  0  0  0  0  0  0
   41.5110   32.8640   44.6140 H   0  0  0  0  0  0  0  0  0  0  0  0
  1  2  1  0  0  0  0
  1 11  1  0  0  0  0
  2  7  1  0  0  0  0
  3  8  1  0  0  0  0
  3  2  2  0  0  0  0
  4  3  1  0  0  0  0
  5  4  2  0  0  0  0
  5  6  1  0  0  0  0
  6  1  2  0  0  0  0
  9  5  1  0  0  0  0
 10 16  1  0  0  0  0
 10 15  1  0  0  0  0
 11 10  2  0  0  0  0
 12 11  1  0  0  0  0
 12 13  2  0  0  0  0
 13 14  1  0  0  0  0
 14 15  2  0  0  0  0
 14 18  1  0  0  0  0
 17 12  1  0  0  0  0
 19 20  1  0  0  0  0
 19  4  1  0  0  0  0
M  END
>  <minimizedAffinity>
-4.73259974

>  <minimizedRMSD>
1.58139169

$$$$
