
 OpenBabel03272509003D

 21 22  0  0  0  0  0  0  0  0999 V2000
   37.9240   23.5820   33.5100 Cl  0  0  0  0  0  0  0  0  0  0  0  0
   37.8060   25.1930   34.1150 C   0  0  0  0  0  0  0  0  0  0  0  0
   38.3880   25.5230   35.3220 C   0  0  0  0  0  0  0  0  0  0  0  0
   38.3240   26.7880   35.8480 C   0  0  0  0  0  0  0  0  0  0  0  0
   37.6560   27.7890   35.1620 C   0  0  0  0  0  0  0  0  0  0  0  0
   37.0590   27.5110   33.9510 C   0  0  0  0  0  0  0  0  0  0  0  0
   36.1820   28.6810   32.9770 Cl  0  0  0  0  0  0  0  0  0  0  0  0
   37.1540   26.2260   33.4720 C   0  0  0  0  0  0  0  0  0  0  0  0
   38.7700   27.0680   36.7890 H   0  0  0  0  0  0  0  0  0  0  0  0
   37.5640   28.8140   35.5150 H   0  0  0  0  0  0  0  0  0  0  0  0
   40.9330   23.0910   36.3700 C   0  0  0  0  0  0  0  0  0  0  0  0
   40.3880   22.5270   37.5240 C   0  0  0  0  0  0  0  0  0  0  0  0
   39.1230   23.0090   37.9290 C   0  0  0  0  0  0  0  0  0  0  0  0
   38.5240   23.9670   37.1920 N   0  0  0  0  0  0  0  0  0  0  0  0
   39.0950   24.4920   36.0650 C   0  0  0  0  0  0  0  0  0  0  0  0
   40.3070   24.0400   35.6680 N   0  0  0  0  0  0  0  0  0  0  0  0
   41.9150   22.6920   36.0880 H   0  0  0  0  0  0  0  0  0  0  0  0
   40.7970   21.7760   38.1500 H   0  0  0  0  0  0  0  0  0  0  0  0
   38.5690   22.6720   38.8020 H   0  0  0  0  0  0  0  0  0  0  0  0
   36.3970   25.7800   31.8900 S   0  0  0  0  0  0  0  0  0  0  0  0
   37.0030   26.6040   30.8960 H   0  0  0  0  0  0  0  0  0  0  0  0
  1  2  1  0  0  0  0
  2  3  1  0  0  0  0
  3  4  2  0  0  0  0
  3 15  1  0  0  0  0
  4  9  1  0  0  0  0
  5 10  1  0  0  0  0
  5  4  1  0  0  0  0
  6  5  2  0  0  0  0
  7  6  1  0  0  0  0
  8  6  1  0  0  0  0
  8  2  2  0  0  0  0
 11 12  1  0  0  0  0
 12 13  2  0  0  0  0
 12 18  1  0  0  0  0
 13 19  1  0  0  0  0
 14 13  1  0  0  0  0
 15 14  2  0  0  0  0
 16 15  1  0  0  0  0
 16 11  2  0  0  0  0
 17 11  1  0  0  0  0
 20  8  1  0  0  0  0
 21 20  1  0  0  0  0
M  END
>  <minimizedAffinity>
-4.57059383

$$$$

 OpenBabel03272509003D

 21 22  0  0  0  0  0  0  0  0999 V2000
   38.8280   24.3750   33.7870 Cl  0  0  0  0  0  0  0  0  0  0  0  0
   37.7480   23.0330   33.6850 C   0  0  0  0  0  0  0  0  0  0  0  0
   37.5110   22.2510   34.7970 C   0  0  0  0  0  0  0  0  0  0  0  0
   36.6620   21.1740   34.7710 C   0  0  0  0  0  0  0  0  0  0  0  0
   36.0080   20.8380   33.5970 C   0  0  0  0  0  0  0  0  0  0  0  0
   36.2110   21.5880   32.4590 C   0  0  0  0  0  0  0  0  0  0  0  0
   35.4480   21.2760   30.9070 Cl  0  0  0  0  0  0  0  0  0  0  0  0
   37.0720   22.6560   32.5420 C   0  0  0  0  0  0  0  0  0  0  0  0
   36.4620   20.5490   35.6270 H   0  0  0  0  0  0  0  0  0  0  0  0
   35.3220   20.0000   33.4990 H   0  0  0  0  0  0  0  0  0  0  0  0
   40.0580   22.5250   37.4290 C   0  0  0  0  0  0  0  0  0  0  0  0
   39.4090   23.2360   38.4370 C   0  0  0  0  0  0  0  0  0  0  0  0
   38.0720   23.6190   38.1830 C   0  0  0  0  0  0  0  0  0  0  0  0
   37.5100   23.2800   37.0060 N   0  0  0  0  0  0  0  0  0  0  0  0
   38.1850   22.5800   36.0430 C   0  0  0  0  0  0  0  0  0  0  0  0
   39.4650   22.2090   36.2730 N   0  0  0  0  0  0  0  0  0  0  0  0
   41.0940   22.2460   37.6620 H   0  0  0  0  0  0  0  0  0  0  0  0
   39.7840   23.5370   39.3830 H   0  0  0  0  0  0  0  0  0  0  0  0
   37.4340   24.1750   38.8660 H   0  0  0  0  0  0  0  0  0  0  0  0
   37.3910   23.6910   31.0930 S   0  0  0  0  0  0  0  0  0  0  0  0
   36.1380   24.2420   30.6950 H   0  0  0  0  0  0  0  0  0  0  0  0
  2  1  1  0  0  0  0
  2  3  1  0  0  0  0
  3 15  1  0  0  0  0
  4  3  2  0  0  0  0
  4  9  1  0  0  0  0
  5  4  1  0  0  0  0
  6  8  1  0  0  0  0
  6  5  2  0  0  0  0
  7  6  1  0  0  0  0
  8  2  2  0  0  0  0
 10  5  1  0  0  0  0
 11 17  1  0  0  0  0
 11 12  1  0  0  0  0
 12 18  1  0  0  0  0
 13 12  2  0  0  0  0
 13 19  1  0  0  0  0
 14 13  1  0  0  0  0
 15 16  1  0  0  0  0
 15 14  2  0  0  0  0
 16 11  2  0  0  0  0
 20  8  1  0  0  0  0
 21 20  1  0  0  0  0
M  END
>  <minimizedAffinity>
-4.37332964

$$$$

 OpenBabel03272509003D

 21 22  0  0  0  0  0  0  0  0999 V2000
   38.1380   23.1580   33.4800 Cl  0  0  0  0  0  0  0  0  0  0  0  0
   37.1350   24.2400   32.5860 C   0  0  0  0  0  0  0  0  0  0  0  0
   36.1660   23.7430   31.7380 C   0  0  0  0  0  0  0  0  0  0  0  0
   35.3420   24.5590   31.0050 C   0  0  0  0  0  0  0  0  0  0  0  0
   35.4690   25.9360   31.1010 C   0  0  0  0  0  0  0  0  0  0  0  0
   36.4210   26.4810   31.9340 C   0  0  0  0  0  0  0  0  0  0  0  0
   36.6900   28.2040   32.1510 Cl  0  0  0  0  0  0  0  0  0  0  0  0
   37.2190   25.6170   32.6450 C   0  0  0  0  0  0  0  0  0  0  0  0
   34.5800   24.1930   30.3360 H   0  0  0  0  0  0  0  0  0  0  0  0
   34.8530   26.6440   30.5510 H   0  0  0  0  0  0  0  0  0  0  0  0
   36.6440   20.2490   30.7140 C   0  0  0  0  0  0  0  0  0  0  0  0
   35.6640   19.5630   31.4320 C   0  0  0  0  0  0  0  0  0  0  0  0
   34.8380   20.3380   32.2770 C   0  0  0  0  0  0  0  0  0  0  0  0
   35.0370   21.6700   32.3400 N   0  0  0  0  0  0  0  0  0  0  0  0
   36.0120   22.3020   31.6170 C   0  0  0  0  0  0  0  0  0  0  0  0
   36.8100   21.5720   30.8060 N   0  0  0  0  0  0  0  0  0  0  0  0
   37.2650   19.6140   30.0700 H   0  0  0  0  0  0  0  0  0  0  0  0
   35.4490   18.5250   31.4330 H   0  0  0  0  0  0  0  0  0  0  0  0
   34.0320   19.9530   32.8990 H   0  0  0  0  0  0  0  0  0  0  0  0
   38.4930   26.2540   33.7610 S   0  0  0  0  0  0  0  0  0  0  0  0
   37.8240   27.0490   34.7390 H   0  0  0  0  0  0  0  0  0  0  0  0
  2  8  1  0  0  0  0
  2  1  1  0  0  0  0
  3  2  2  0  0  0  0
  4  5  2  0  0  0  0
  4  3  1  0  0  0  0
  5  6  1  0  0  0  0
  6  7  1  0  0  0  0
  6  8  2  0  0  0  0
  8 20  1  0  0  0  0
  9  4  1  0  0  0  0
 10  5  1  0  0  0  0
 11 16  2  0  0  0  0
 11 12  1  0  0  0  0
 12 18  1  0  0  0  0
 12 13  2  0  0  0  0
 13 14  1  0  0  0  0
 13 19  1  0  0  0  0
 15  3  1  0  0  0  0
 15 14  2  0  0  0  0
 16 15  1  0  0  0  0
 17 11  1  0  0  0  0
 20 21  1  0  0  0  0
M  END
>  <minimizedAffinity>
-4.25088024

$$$$

 OpenBabel03272509003D

 21 22  0  0  0  0  0  0  0  0999 V2000
   38.3250   26.6670   36.0300 Cl  0  0  0  0  0  0  0  0  0  0  0  0
   37.8810   25.7550   34.6340 C   0  0  0  0  0  0  0  0  0  0  0  0
   38.2600   24.4320   34.5240 C   0  0  0  0  0  0  0  0  0  0  0  0
   37.9330   23.6620   33.4370 C   0  0  0  0  0  0  0  0  0  0  0  0
   37.1980   24.2090   32.3980 C   0  0  0  0  0  0  0  0  0  0  0  0
   36.7950   25.5260   32.4610 C   0  0  0  0  0  0  0  0  0  0  0  0
   35.8610   26.3450   31.2190 Cl  0  0  0  0  0  0  0  0  0  0  0  0
   37.1500   26.2500   33.5730 C   0  0  0  0  0  0  0  0  0  0  0  0
   38.2190   22.6280   33.3290 H   0  0  0  0  0  0  0  0  0  0  0  0
   36.9020   23.6620   31.5060 H   0  0  0  0  0  0  0  0  0  0  0  0
   39.2000   22.9530   37.7520 C   0  0  0  0  0  0  0  0  0  0  0  0
   40.5620   22.6920   37.6050 C   0  0  0  0  0  0  0  0  0  0  0  0
   41.1450   23.0380   36.3650 C   0  0  0  0  0  0  0  0  0  0  0  0
   40.3680   23.5920   35.4120 N   0  0  0  0  0  0  0  0  0  0  0  0
   39.0340   23.8320   35.5990 C   0  0  0  0  0  0  0  0  0  0  0  0
   38.4640   23.5040   36.7820 N   0  0  0  0  0  0  0  0  0  0  0  0
   38.7840   22.6710   38.7270 H   0  0  0  0  0  0  0  0  0  0  0  0
   41.2330   22.2620   38.3050 H   0  0  0  0  0  0  0  0  0  0  0  0
   42.1900   22.8980   36.0970 H   0  0  0  0  0  0  0  0  0  0  0  0
   36.6600   27.9850   33.7320 S   0  0  0  0  0  0  0  0  0  0  0  0
   35.2340   28.0150   33.6960 H   0  0  0  0  0  0  0  0  0  0  0  0
  2  1  1  0  0  0  0
  3  2  1  0  0  0  0
  3 15  1  0  0  0  0
  4  3  2  0  0  0  0
  5  6  2  0  0  0  0
  5  4  1  0  0  0  0
  6  8  1  0  0  0  0
  7  6  1  0  0  0  0
  8 20  1  0  0  0  0
  8  2  2  0  0  0  0
  9  4  1  0  0  0  0
 10  5  1  0  0  0  0
 11 17  1  0  0  0  0
 12 11  1  0  0  0  0
 12 18  1  0  0  0  0
 13 12  2  0  0  0  0
 14 15  2  0  0  0  0
 14 13  1  0  0  0  0
 15 16  1  0  0  0  0
 16 11  2  0  0  0  0
 19 13  1  0  0  0  0
 21 20  1  0  0  0  0
M  END
>  <minimizedAffinity>
-4.23649931

$$$$

 OpenBabel03272509003D

 21 22  0  0  0  0  0  0  0  0999 V2000
   37.8030   23.2660   33.6910 Cl  0  0  0  0  0  0  0  0  0  0  0  0
   38.6930   24.7430   33.6190 C   0  0  0  0  0  0  0  0  0  0  0  0
   39.2470   25.2730   34.7660 C   0  0  0  0  0  0  0  0  0  0  0  0
   39.9630   26.4430   34.7640 C   0  0  0  0  0  0  0  0  0  0  0  0
   40.1510   27.1360   33.5790 C   0  0  0  0  0  0  0  0  0  0  0  0
   39.6180   26.6470   32.4060 C   0  0  0  0  0  0  0  0  0  0  0  0
   39.7800   27.4210   30.8370 Cl  0  0  0  0  0  0  0  0  0  0  0  0
   38.9100   25.4710   32.4660 C   0  0  0  0  0  0  0  0  0  0  0  0
   40.4040   26.8760   35.6480 H   0  0  0  0  0  0  0  0  0  0  0  0
   40.7060   28.0680   33.4990 H   0  0  0  0  0  0  0  0  0  0  0  0
   37.9300   24.2310   38.0330 C   0  0  0  0  0  0  0  0  0  0  0  0
   38.7740   23.1840   38.4040 C   0  0  0  0  0  0  0  0  0  0  0  0
   39.8050   22.8480   37.4980 C   0  0  0  0  0  0  0  0  0  0  0  0
   39.9150   23.5450   36.3490 N   0  0  0  0  0  0  0  0  0  0  0  0
   39.0650   24.5670   36.0240 C   0  0  0  0  0  0  0  0  0  0  0  0
   38.0730   24.8980   36.8830 N   0  0  0  0  0  0  0  0  0  0  0  0
   37.1420   24.4620   38.7610 H   0  0  0  0  0  0  0  0  0  0  0  0
   38.7480   22.5940   39.2850 H   0  0  0  0  0  0  0  0  0  0  0  0
   40.5400   22.0600   37.6420 H   0  0  0  0  0  0  0  0  0  0  0  0
   38.1800   24.7640   30.9700 S   0  0  0  0  0  0  0  0  0  0  0  0
   39.2540   24.5160   30.0650 H   0  0  0  0  0  0  0  0  0  0  0  0
  2  1  1  0  0  0  0
  2  3  1  0  0  0  0
  3 15  1  0  0  0  0
  4  3  2  0  0  0  0
  4  9  1  0  0  0  0
  5  4  1  0  0  0  0
  6  8  1  0  0  0  0
  6  5  2  0  0  0  0
  7  6  1  0  0  0  0
  8  2  2  0  0  0  0
 10  5  1  0  0  0  0
 11 12  1  0  0  0  0
 11 17  1  0  0  0  0
 12 18  1  0  0  0  0
 13 19  1  0  0  0  0
 13 12  2  0  0  0  0
 14 13  1  0  0  0  0
 15 14  2  0  0  0  0
 15 16  1  0  0  0  0
 16 11  2  0  0  0  0
 20  8  1  0  0  0  0
 21 20  1  0  0  0  0
M  END
>  <minimizedAffinity>
-4.19406414

$$$$

 OpenBabel03272509003D

 21 22  0  0  0  0  0  0  0  0999 V2000
   32.8470   29.3650   34.2350 Cl  0  0  0  0  0  0  0  0  0  0  0  0
   33.8320   30.5000   35.0810 C   0  0  0  0  0  0  0  0  0  0  0  0
   35.1990   30.5070   34.8900 C   0  0  0  0  0  0  0  0  0  0  0  0
   36.0280   31.3880   35.5370 C   0  0  0  0  0  0  0  0  0  0  0  0
   35.4970   32.3150   36.4210 C   0  0  0  0  0  0  0  0  0  0  0  0
   34.1380   32.3490   36.6450 C   0  0  0  0  0  0  0  0  0  0  0  0
   33.3340   33.4680   37.7350 Cl  0  0  0  0  0  0  0  0  0  0  0  0
   33.3550   31.4430   35.9700 C   0  0  0  0  0  0  0  0  0  0  0  0
   37.0980   31.4110   35.4040 H   0  0  0  0  0  0  0  0  0  0  0  0
   36.0900   33.0430   36.9690 H   0  0  0  0  0  0  0  0  0  0  0  0
   36.4070   28.8930   31.8200 C   0  0  0  0  0  0  0  0  0  0  0  0
   36.9070   27.6710   32.2710 C   0  0  0  0  0  0  0  0  0  0  0  0
   36.8170   27.4220   33.6590 C   0  0  0  0  0  0  0  0  0  0  0  0
   36.2630   28.3590   34.4550 N   0  0  0  0  0  0  0  0  0  0  0  0
   35.7840   29.5450   33.9700 C   0  0  0  0  0  0  0  0  0  0  0  0
   35.8650   29.7960   32.6430 N   0  0  0  0  0  0  0  0  0  0  0  0
   36.4950   29.0510   30.7380 H   0  0  0  0  0  0  0  0  0  0  0  0
   37.3540   26.8910   31.7080 H   0  0  0  0  0  0  0  0  0  0  0  0
   37.1610   26.5210   34.1620 H   0  0  0  0  0  0  0  0  0  0  0  0
   31.5620   31.4240   36.2100 S   0  0  0  0  0  0  0  0  0  0  0  0
   31.0810   32.7090   35.8210 H   0  0  0  0  0  0  0  0  0  0  0  0
  1  2  1  0  0  0  0
  2  8  1  0  0  0  0
  3  2  2  0  0  0  0
  3  4  1  0  0  0  0
  4  5  2  0  0  0  0
  5  6  1  0  0  0  0
  5 10  1  0  0  0  0
  6  7  1  0  0  0  0
  8 20  1  0  0  0  0
  8  6  2  0  0  0  0
  9  4  1  0  0  0  0
 11 12  2  0  0  0  0
 11 16  1  0  0  0  0
 12 13  1  0  0  0  0
 13 19  1  0  0  0  0
 13 14  2  0  0  0  0
 15 14  1  0  0  0  0
 15  3  1  0  0  0  0
 16 15  2  0  0  0  0
 17 11  1  0  0  0  0
 18 12  1  0  0  0  0
 21 20  1  0  0  0  0
M  END
>  <minimizedAffinity>
-4.16980028

$$$$

 OpenBabel03272509003D

 21 22  0  0  0  0  0  0  0  0999 V2000
   35.2410   31.4110   32.2080 Cl  0  0  0  0  0  0  0  0  0  0  0  0
   35.9430   29.9030   32.6690 C   0  0  0  0  0  0  0  0  0  0  0  0
   35.8420   29.4640   33.9730 C   0  0  0  0  0  0  0  0  0  0  0  0
   36.3810   28.2740   34.3920 C   0  0  0  0  0  0  0  0  0  0  0  0
   37.0590   27.4670   33.4920 C   0  0  0  0  0  0  0  0  0  0  0  0
   37.1870   27.8620   32.1780 C   0  0  0  0  0  0  0  0  0  0  0  0
   38.0170   26.9390   30.9350 Cl  0  0  0  0  0  0  0  0  0  0  0  0
   36.6270   29.0630   31.8140 C   0  0  0  0  0  0  0  0  0  0  0  0
   36.3150   27.9110   35.4060 H   0  0  0  0  0  0  0  0  0  0  0  0
   37.5120   26.5130   33.7510 H   0  0  0  0  0  0  0  0  0  0  0  0
   35.1180   31.9220   36.6040 C   0  0  0  0  0  0  0  0  0  0  0  0
   33.7350   31.8330   36.7610 C   0  0  0  0  0  0  0  0  0  0  0  0
   33.0620   30.9060   35.9340 C   0  0  0  0  0  0  0  0  0  0  0  0
   33.7790   30.1710   35.0600 N   0  0  0  0  0  0  0  0  0  0  0  0
   35.1370   30.2910   34.9400 C   0  0  0  0  0  0  0  0  0  0  0  0
   35.7930   31.1760   35.7240 N   0  0  0  0  0  0  0  0  0  0  0  0
   35.6060   32.6530   37.2620 H   0  0  0  0  0  0  0  0  0  0  0  0
   33.1080   32.3750   37.4230 H   0  0  0  0  0  0  0  0  0  0  0  0
   31.9900   30.7210   35.9360 H   0  0  0  0  0  0  0  0  0  0  0  0
   36.7510   29.6510   30.1070 S   0  0  0  0  0  0  0  0  0  0  0  0
   36.1200   28.6710   29.2860 H   0  0  0  0  0  0  0  0  0  0  0  0
  1  2  1  0  0  0  0
  2  3  1  0  0  0  0
  3  4  2  0  0  0  0
  3 15  1  0  0  0  0
  4  9  1  0  0  0  0
  5 10  1  0  0  0  0
  5  4  1  0  0  0  0
  6  5  2  0  0  0  0
  7  6  1  0  0  0  0
  8  6  1  0  0  0  0
  8  2  2  0  0  0  0
 11 12  1  0  0  0  0
 11 17  1  0  0  0  0
 12 18  1  0  0  0  0
 13 19  1  0  0  0  0
 13 12  2  0  0  0  0
 14 13  1  0  0  0  0
 15 14  2  0  0  0  0
 15 16  1  0  0  0  0
 16 11  2  0  0  0  0
 20  8  1  0  0  0  0
 21 20  1  0  0  0  0
M  END
>  <minimizedAffinity>
-4.13661861

$$$$

 OpenBabel03272509003D

 21 22  0  0  0  0  0  0  0  0999 V2000
   35.3240   30.6980   31.8660 Cl  0  0  0  0  0  0  0  0  0  0  0  0
   36.1160   29.3140   32.5260 C   0  0  0  0  0  0  0  0  0  0  0  0
   36.0350   29.0510   33.8780 C   0  0  0  0  0  0  0  0  0  0  0  0
   36.6450   27.9650   34.4540 C   0  0  0  0  0  0  0  0  0  0  0  0
   37.3760   27.0870   33.6700 C   0  0  0  0  0  0  0  0  0  0  0  0
   37.4880   27.3070   32.3140 C   0  0  0  0  0  0  0  0  0  0  0  0
   38.3810   26.2770   31.2060 Cl  0  0  0  0  0  0  0  0  0  0  0  0
   36.8560   28.4090   31.7910 C   0  0  0  0  0  0  0  0  0  0  0  0
   36.5950   27.7400   35.5070 H   0  0  0  0  0  0  0  0  0  0  0  0
   37.8870   26.2070   34.0550 H   0  0  0  0  0  0  0  0  0  0  0  0
   33.2510   30.7470   35.5700 C   0  0  0  0  0  0  0  0  0  0  0  0
   33.8860   31.7080   36.3570 C   0  0  0  0  0  0  0  0  0  0  0  0
   35.2970   31.7530   36.2880 C   0  0  0  0  0  0  0  0  0  0  0  0
   35.9380   30.8830   35.4810 N   0  0  0  0  0  0  0  0  0  0  0  0
   35.2740   29.9560   34.7250 C   0  0  0  0  0  0  0  0  0  0  0  0
   33.9240   29.9020   34.7830 N   0  0  0  0  0  0  0  0  0  0  0  0
   32.1570   30.7420   35.6500 H   0  0  0  0  0  0  0  0  0  0  0  0
   33.4510   32.4200   37.0110 H   0  0  0  0  0  0  0  0  0  0  0  0
   35.9340   32.4410   36.8380 H   0  0  0  0  0  0  0  0  0  0  0  0
   36.9530   28.7670   30.0200 S   0  0  0  0  0  0  0  0  0  0  0  0
   36.3890   27.6460   29.3420 H   0  0  0  0  0  0  0  0  0  0  0  0
  1  2  1  0  0  0  0
  2  3  1  0  0  0  0
  3  4  2  0  0  0  0
  3 15  1  0  0  0  0
  4  9  1  0  0  0  0
  5 10  1  0  0  0  0
  5  4  1  0  0  0  0
  6  5  2  0  0  0  0
  7  6  1  0  0  0  0
  8  6  1  0  0  0  0
  8  2  2  0  0  0  0
 11 17  1  0  0  0  0
 11 12  1  0  0  0  0
 12 18  1  0  0  0  0
 13 12  2  0  0  0  0
 13 19  1  0  0  0  0
 14 13  1  0  0  0  0
 15 16  1  0  0  0  0
 15 14  2  0  0  0  0
 16 11  2  0  0  0  0
 20  8  1  0  0  0  0
 21 20  1  0  0  0  0
M  END
>  <minimizedAffinity>
-4.11480618

$$$$

 OpenBabel03272509003D

 21 22  0  0  0  0  0  0  0  0999 V2000
   38.3960   26.7840   32.9260 Cl  0  0  0  0  0  0  0  0  0  0  0  0
   37.1910   25.7500   32.2500 C   0  0  0  0  0  0  0  0  0  0  0  0
   36.1700   26.2830   31.4910 C   0  0  0  0  0  0  0  0  0  0  0  0
   35.1880   25.5060   30.9310 C   0  0  0  0  0  0  0  0  0  0  0  0
   35.1990   24.1330   31.1210 C   0  0  0  0  0  0  0  0  0  0  0  0
   36.1990   23.5530   31.8710 C   0  0  0  0  0  0  0  0  0  0  0  0
   36.3360   21.8310   32.1900 Cl  0  0  0  0  0  0  0  0  0  0  0  0
   37.1570   24.3790   32.4080 C   0  0  0  0  0  0  0  0  0  0  0  0
   34.3800   25.9010   30.3360 H   0  0  0  0  0  0  0  0  0  0  0  0
   34.4560   23.4550   30.7090 H   0  0  0  0  0  0  0  0  0  0  0  0
   35.4370   29.8600   31.8880 C   0  0  0  0  0  0  0  0  0  0  0  0
   36.0970   30.4480   30.8100 C   0  0  0  0  0  0  0  0  0  0  0  0
   36.8010   29.5790   29.9460 C   0  0  0  0  0  0  0  0  0  0  0  0
   36.7940   28.2560   30.2060 N   0  0  0  0  0  0  0  0  0  0  0  0
   36.1310   27.7210   31.2760 C   0  0  0  0  0  0  0  0  0  0  0  0
   35.4550   28.5420   32.1120 N   0  0  0  0  0  0  0  0  0  0  0  0
   34.9020   30.5660   32.5360 H   0  0  0  0  0  0  0  0  0  0  0  0
   36.1470   31.4740   30.5440 H   0  0  0  0  0  0  0  0  0  0  0  0
   37.3640   29.8830   29.0660 H   0  0  0  0  0  0  0  0  0  0  0  0
   38.5030   23.6940   33.4040 S   0  0  0  0  0  0  0  0  0  0  0  0
   39.2120   22.7810   32.5680 H   0  0  0  0  0  0  0  0  0  0  0  0
  2  8  1  0  0  0  0
  2  1  1  0  0  0  0
  3  2  2  0  0  0  0
  4  5  2  0  0  0  0
  4  3  1  0  0  0  0
  5  6  1  0  0  0  0
  6  7  1  0  0  0  0
  6  8  2  0  0  0  0
  8 20  1  0  0  0  0
  9  4  1  0  0  0  0
 10  5  1  0  0  0  0
 11 16  1  0  0  0  0
 11 17  1  0  0  0  0
 12 11  2  0  0  0  0
 13 14  2  0  0  0  0
 13 12  1  0  0  0  0
 14 15  1  0  0  0  0
 15  3  1  0  0  0  0
 15 16  2  0  0  0  0
 18 12  1  0  0  0  0
 19 13  1  0  0  0  0
 21 20  1  0  0  0  0
M  END
>  <minimizedAffinity>
-4.0670228

$$$$
