
 OpenBabel03272509393D

 23 24  0  0  0  0  0  0  0  0999 V2000
   38.9430   24.3810   35.7440 C   0  0  0  0  0  0  0  0  0  0  0  0
   38.1280   25.3120   36.3890 C   0  0  0  0  0  0  0  0  0  0  0  0
   38.2850   26.6880   36.2050 C   0  0  0  0  0  0  0  0  0  0  0  0
   39.2830   27.1570   35.3530 C   0  0  0  0  0  0  0  0  0  0  0  0
   40.0840   26.2160   34.7180 C   0  0  0  0  0  0  0  0  0  0  0  0
   39.9170   24.8650   34.9100 C   0  0  0  0  0  0  0  0  0  0  0  0
   37.3250   25.0080   37.0730 H   0  0  0  0  0  0  0  0  0  0  0  0
   37.6540   27.3960   36.7070 H   0  0  0  0  0  0  0  0  0  0  0  0
   39.4370   28.2170   35.1830 H   0  0  0  0  0  0  0  0  0  0  0  0
   40.8680   26.5640   34.0490 H   0  0  0  0  0  0  0  0  0  0  0  0
   38.7010   22.9650   36.0000 C   0  0  0  0  0  0  0  0  0  0  0  0
   39.4730   22.4570   36.8800 O   0  0  0  0  0  0  0  0  0  0  0  0
   35.7580   20.8780   35.6410 C   0  0  0  0  0  0  0  0  0  0  0  0
   35.6750   20.6420   34.2610 C   0  0  0  0  0  0  0  0  0  0  0  0
   36.6380   21.2050   33.4510 C   0  0  0  0  0  0  0  0  0  0  0  0
   37.6300   21.9640   34.0050 N   0  0  0  0  0  0  0  0  0  0  0  0
   37.6790   22.1700   35.3300 C   0  0  0  0  0  0  0  0  0  0  0  0
   36.7450   21.6280   36.1370 N   0  0  0  0  0  0  0  0  0  0  0  0
   34.9720   20.4080   36.2150 H   0  0  0  0  0  0  0  0  0  0  0  0
   34.9490   20.0680   33.7170 H   0  0  0  0  0  0  0  0  0  0  0  0
   36.7370   21.1330   32.3710 H   0  0  0  0  0  0  0  0  0  0  0  0
   40.9680   23.7160   34.0750 S   0  0  0  0  0  0  0  0  0  0  0  0
   40.6100   23.7410   32.7000 H   0  0  0  0  0  0  0  0  0  0  0  0
  1 11  1  0  0  0  0
  1  2  1  0  0  0  0
  2  7  1  0  0  0  0
  3  2  2  0  0  0  0
  3  8  1  0  0  0  0
  4  3  1  0  0  0  0
  5  6  1  0  0  0  0
  5  4  2  0  0  0  0
  6  1  2  0  0  0  0
  9  4  1  0  0  0  0
 10  5  1  0  0  0  0
 11 12  2  0  0  0  0
 13 18  1  0  0  0  0
 13 19  1  0  0  0  0
 14 13  2  0  0  0  0
 15 16  2  0  0  0  0
 15 14  1  0  0  0  0
 16 17  1  0  0  0  0
 17 11  1  0  0  0  0
 17 18  2  0  0  0  0
 20 14  1  0  0  0  0
 21 15  1  0  0  0  0
 22  6  1  0  0  0  0
 23 22  1  0  0  0  0
M  END
>  <minimizedAffinity>
-4.60015011

$$$$

 OpenBabel03272509393D

 23 24  0  0  0  0  0  0  0  0999 V2000
   38.8040   24.2790   35.8410 C   0  0  0  0  0  0  0  0  0  0  0  0
   37.9280   24.7630   36.8130 C   0  0  0  0  0  0  0  0  0  0  0  0
   37.9470   24.2920   38.1290 C   0  0  0  0  0  0  0  0  0  0  0  0
   38.8660   23.3100   38.4940 C   0  0  0  0  0  0  0  0  0  0  0  0
   39.7320   22.8410   37.5130 C   0  0  0  0  0  0  0  0  0  0  0  0
   39.7000   23.3140   36.2230 C   0  0  0  0  0  0  0  0  0  0  0  0
   37.1800   25.5350   36.5900 H   0  0  0  0  0  0  0  0  0  0  0  0
   37.2680   24.6700   38.8690 H   0  0  0  0  0  0  0  0  0  0  0  0
   38.9130   22.9200   39.5040 H   0  0  0  0  0  0  0  0  0  0  0  0
   40.4570   22.0750   37.7790 H   0  0  0  0  0  0  0  0  0  0  0  0
   38.7070   24.8330   34.4950 C   0  0  0  0  0  0  0  0  0  0  0  0
   39.5120   25.7990   34.2720 O   0  0  0  0  0  0  0  0  0  0  0  0
   36.2550   24.9990   31.8290 C   0  0  0  0  0  0  0  0  0  0  0  0
   36.0100   23.6560   31.5090 C   0  0  0  0  0  0  0  0  0  0  0  0
   36.6930   22.6880   32.2150 C   0  0  0  0  0  0  0  0  0  0  0  0
   37.5740   23.0580   33.1920 N   0  0  0  0  0  0  0  0  0  0  0  0
   37.7850   24.3540   33.4720 C   0  0  0  0  0  0  0  0  0  0  0  0
   37.1270   25.3120   32.7910 N   0  0  0  0  0  0  0  0  0  0  0  0
   35.6870   25.7020   31.2370 H   0  0  0  0  0  0  0  0  0  0  0  0
   35.3460   23.2480   30.7700 H   0  0  0  0  0  0  0  0  0  0  0  0
   36.6340   21.6080   32.1090 H   0  0  0  0  0  0  0  0  0  0  0  0
   40.8270   22.6780   35.0190 S   0  0  0  0  0  0  0  0  0  0  0  0
   42.1190   23.1690   35.3510 H   0  0  0  0  0  0  0  0  0  0  0  0
  1  6  2  0  0  0  0
  1  2  1  0  0  0  0
  2  3  2  0  0  0  0
  3  4  1  0  0  0  0
  3  8  1  0  0  0  0
  4  9  1  0  0  0  0
  5 10  1  0  0  0  0
  5  4  2  0  0  0  0
  6  5  1  0  0  0  0
  7  2  1  0  0  0  0
 11  1  1  0  0  0  0
 12 11  2  0  0  0  0
 13 18  1  0  0  0  0
 14 13  2  0  0  0  0
 14 15  1  0  0  0  0
 15 16  2  0  0  0  0
 16 17  1  0  0  0  0
 17 11  1  0  0  0  0
 18 17  2  0  0  0  0
 19 13  1  0  0  0  0
 20 14  1  0  0  0  0
 21 15  1  0  0  0  0
 22 23  1  0  0  0  0
 22  6  1  0  0  0  0
M  END
>  <minimizedAffinity>
-4.40168953

$$$$

 OpenBabel03272509393D

 23 24  0  0  0  0  0  0  0  0999 V2000
   38.7200   24.3310   35.4660 C   0  0  0  0  0  0  0  0  0  0  0  0
   39.0840   25.0290   34.3140 C   0  0  0  0  0  0  0  0  0  0  0  0
   39.0830   26.4260   34.2620 C   0  0  0  0  0  0  0  0  0  0  0  0
   38.7090   27.1550   35.3890 C   0  0  0  0  0  0  0  0  0  0  0  0
   38.3510   26.4430   36.5280 C   0  0  0  0  0  0  0  0  0  0  0  0
   38.3570   25.0690   36.5620 C   0  0  0  0  0  0  0  0  0  0  0  0
   39.3870   24.5150   33.3930 H   0  0  0  0  0  0  0  0  0  0  0  0
   39.3640   26.9530   33.3700 H   0  0  0  0  0  0  0  0  0  0  0  0
   38.6950   28.2380   35.3890 H   0  0  0  0  0  0  0  0  0  0  0  0
   38.0570   26.9950   37.4180 H   0  0  0  0  0  0  0  0  0  0  0  0
   38.7540   22.8730   35.4220 C   0  0  0  0  0  0  0  0  0  0  0  0
   39.8670   22.3690   35.7900 O   0  0  0  0  0  0  0  0  0  0  0  0
   36.5960   21.0210   33.1730 C   0  0  0  0  0  0  0  0  0  0  0  0
   35.6120   20.4810   34.0130 C   0  0  0  0  0  0  0  0  0  0  0  0
   35.6920   20.7570   35.3620 C   0  0  0  0  0  0  0  0  0  0  0  0
   36.7110   21.5360   35.8340 N   0  0  0  0  0  0  0  0  0  0  0  0
   37.6370   22.0360   35.0010 C   0  0  0  0  0  0  0  0  0  0  0  0
   37.5740   21.7760   33.6800 N   0  0  0  0  0  0  0  0  0  0  0  0
   36.4720   20.7650   32.1300 H   0  0  0  0  0  0  0  0  0  0  0  0
   34.7730   19.8630   33.7590 H   0  0  0  0  0  0  0  0  0  0  0  0
   35.0280   20.4300   36.1580 H   0  0  0  0  0  0  0  0  0  0  0  0
   37.8910   24.2200   38.0410 S   0  0  0  0  0  0  0  0  0  0  0  0
   38.9310   24.4210   38.9880 H   0  0  0  0  0  0  0  0  0  0  0  0
  1  6  1  0  0  0  0
  2  1  2  0  0  0  0
  3  2  1  0  0  0  0
  3  4  2  0  0  0  0
  4  9  1  0  0  0  0
  4  5  1  0  0  0  0
  5  6  2  0  0  0  0
  5 10  1  0  0  0  0
  6 22  1  0  0  0  0
  7  2  1  0  0  0  0
  8  3  1  0  0  0  0
 11  1  1  0  0  0  0
 11 12  2  0  0  0  0
 13 18  2  0  0  0  0
 13 14  1  0  0  0  0
 14 15  2  0  0  0  0
 15 16  1  0  0  0  0
 15 21  1  0  0  0  0
 17 11  1  0  0  0  0
 17 16  2  0  0  0  0
 18 17  1  0  0  0  0
 19 13  1  0  0  0  0
 20 14  1  0  0  0  0
 22 23  1  0  0  0  0
M  END
>  <minimizedAffinity>
-4.35112286

$$$$

 OpenBabel03272509393D

 23 24  0  0  0  0  0  0  0  0999 V2000
   38.2100   24.5450   34.8560 C   0  0  0  0  0  0  0  0  0  0  0  0
   38.1750   23.1750   35.1190 C   0  0  0  0  0  0  0  0  0  0  0  0
   38.0860   22.6720   36.4200 C   0  0  0  0  0  0  0  0  0  0  0  0
   38.0300   23.5550   37.4960 C   0  0  0  0  0  0  0  0  0  0  0  0
   38.0650   24.9160   37.2160 C   0  0  0  0  0  0  0  0  0  0  0  0
   38.1530   25.3950   35.9300 C   0  0  0  0  0  0  0  0  0  0  0  0
   38.2170   22.4270   34.3170 H   0  0  0  0  0  0  0  0  0  0  0  0
   38.0610   21.6160   36.6110 H   0  0  0  0  0  0  0  0  0  0  0  0
   37.9610   23.2040   38.5190 H   0  0  0  0  0  0  0  0  0  0  0  0
   38.0210   25.6210   38.0430 H   0  0  0  0  0  0  0  0  0  0  0  0
   38.3030   24.9730   33.4650 C   0  0  0  0  0  0  0  0  0  0  0  0
   39.4870   25.2680   33.0910 O   0  0  0  0  0  0  0  0  0  0  0  0
   35.7320   26.5390   31.4440 C   0  0  0  0  0  0  0  0  0  0  0  0
   35.0500   25.4600   30.8650 C   0  0  0  0  0  0  0  0  0  0  0  0
   35.4780   24.1860   31.1730 C   0  0  0  0  0  0  0  0  0  0  0  0
   36.5370   24.0130   32.0190 N   0  0  0  0  0  0  0  0  0  0  0  0
   37.1670   25.0700   32.5550 C   0  0  0  0  0  0  0  0  0  0  0  0
   36.7620   26.3220   32.2650 N   0  0  0  0  0  0  0  0  0  0  0  0
   35.3450   27.5080   31.1600 H   0  0  0  0  0  0  0  0  0  0  0  0
   34.2130   25.4720   30.1930 H   0  0  0  0  0  0  0  0  0  0  0  0
   35.0780   23.2370   30.8240 H   0  0  0  0  0  0  0  0  0  0  0  0
   38.1930   27.1380   35.6370 S   0  0  0  0  0  0  0  0  0  0  0  0
   36.8960   27.6430   35.9220 H   0  0  0  0  0  0  0  0  0  0  0  0
  1  2  2  0  0  0  0
  1  6  1  0  0  0  0
  2  3  1  0  0  0  0
  3  8  1  0  0  0  0
  3  4  2  0  0  0  0
  4  9  1  0  0  0  0
  5  4  1  0  0  0  0
  5 10  1  0  0  0  0
  6  5  2  0  0  0  0
  7  2  1  0  0  0  0
 11  1  1  0  0  0  0
 12 11  2  0  0  0  0
 13 18  1  0  0  0  0
 14 15  1  0  0  0  0
 14 13  2  0  0  0  0
 15 16  2  0  0  0  0
 16 17  1  0  0  0  0
 17 11  1  0  0  0  0
 18 17  2  0  0  0  0
 19 13  1  0  0  0  0
 20 14  1  0  0  0  0
 21 15  1  0  0  0  0
 22 23  1  0  0  0  0
 22  6  1  0  0  0  0
M  END
>  <minimizedAffinity>
-4.3176918

$$$$

 OpenBabel03272509393D

 23 24  0  0  0  0  0  0  0  0999 V2000
   38.2690   25.0660   35.4950 C   0  0  0  0  0  0  0  0  0  0  0  0
   38.2840   26.2820   36.1790 C   0  0  0  0  0  0  0  0  0  0  0  0
   37.9540   27.4880   35.5550 C   0  0  0  0  0  0  0  0  0  0  0  0
   37.5960   27.4890   34.2090 C   0  0  0  0  0  0  0  0  0  0  0  0
   37.5850   26.2690   33.5430 C   0  0  0  0  0  0  0  0  0  0  0  0
   37.9130   25.0910   34.1720 C   0  0  0  0  0  0  0  0  0  0  0  0
   38.5580   26.3500   37.2400 H   0  0  0  0  0  0  0  0  0  0  0  0
   37.9700   28.4180   36.0900 H   0  0  0  0  0  0  0  0  0  0  0  0
   37.3330   28.4030   33.6890 H   0  0  0  0  0  0  0  0  0  0  0  0
   37.3080   26.2500   32.4920 H   0  0  0  0  0  0  0  0  0  0  0  0
   38.6290   23.8610   36.2340 C   0  0  0  0  0  0  0  0  0  0  0  0
   37.6430   23.2930   36.8130 O   0  0  0  0  0  0  0  0  0  0  0  0
   41.3280   21.7060   37.3360 C   0  0  0  0  0  0  0  0  0  0  0  0
   42.4470   22.1760   36.6350 C   0  0  0  0  0  0  0  0  0  0  0  0
   42.2710   23.2420   35.7780 C   0  0  0  0  0  0  0  0  0  0  0  0
   41.0320   23.8000   35.6380 N   0  0  0  0  0  0  0  0  0  0  0  0
   39.9820   23.3240   36.3250 C   0  0  0  0  0  0  0  0  0  0  0  0
   40.1360   22.2830   37.1660 N   0  0  0  0  0  0  0  0  0  0  0  0
   41.5380   20.8700   37.9890 H   0  0  0  0  0  0  0  0  0  0  0  0
   43.4600   21.8220   36.6640 H   0  0  0  0  0  0  0  0  0  0  0  0
   43.0130   23.7380   35.1570 H   0  0  0  0  0  0  0  0  0  0  0  0
   37.8810   23.5700   33.2720 S   0  0  0  0  0  0  0  0  0  0  0  0
   36.5180   23.2580   33.0210 H   0  0  0  0  0  0  0  0  0  0  0  0
  1  2  1  0  0  0  0
  1 11  1  0  0  0  0
  2  7  1  0  0  0  0
  3  8  1  0  0  0  0
  3  2  2  0  0  0  0
  4  3  1  0  0  0  0
  5  6  1  0  0  0  0
  5  4  2  0  0  0  0
  6  1  2  0  0  0  0
  9  4  1  0  0  0  0
 10  5  1  0  0  0  0
 11 17  1  0  0  0  0
 11 12  2  0  0  0  0
 13 19  1  0  0  0  0
 14 20  1  0  0  0  0
 14 13  2  0  0  0  0
 15 14  1  0  0  0  0
 16 15  2  0  0  0  0
 16 17  1  0  0  0  0
 17 18  2  0  0  0  0
 18 13  1  0  0  0  0
 21 15  1  0  0  0  0
 22  6  1  0  0  0  0
 23 22  1  0  0  0  0
M  END
>  <minimizedAffinity>
-4.28878784

$$$$

 OpenBabel03272509393D

 23 24  0  0  0  0  0  0  0  0999 V2000
   37.6190   22.2450   33.4810 C   0  0  0  0  0  0  0  0  0  0  0  0
   36.7110   21.1870   33.5220 C   0  0  0  0  0  0  0  0  0  0  0  0
   35.5870   21.1430   32.6930 C   0  0  0  0  0  0  0  0  0  0  0  0
   35.3550   22.1810   31.7930 C   0  0  0  0  0  0  0  0  0  0  0  0
   36.2700   23.2260   31.7650 C   0  0  0  0  0  0  0  0  0  0  0  0
   37.3720   23.2550   32.5870 C   0  0  0  0  0  0  0  0  0  0  0  0
   36.8350   20.3400   34.2090 H   0  0  0  0  0  0  0  0  0  0  0  0
   34.8930   20.3240   32.7340 H   0  0  0  0  0  0  0  0  0  0  0  0
   34.4950   22.1830   31.1340 H   0  0  0  0  0  0  0  0  0  0  0  0
   36.1070   24.0450   31.0680 H   0  0  0  0  0  0  0  0  0  0  0  0
   38.7630   22.2020   34.3850 C   0  0  0  0  0  0  0  0  0  0  0  0
   39.8130   21.6920   33.8690 O   0  0  0  0  0  0  0  0  0  0  0  0
   39.9160   22.7390   37.7810 C   0  0  0  0  0  0  0  0  0  0  0  0
   38.8960   23.5010   38.3690 C   0  0  0  0  0  0  0  0  0  0  0  0
   37.8060   23.8310   37.5920 C   0  0  0  0  0  0  0  0  0  0  0  0
   37.7500   23.4130   36.2920 N   0  0  0  0  0  0  0  0  0  0  0  0
   38.7450   22.6860   35.7610 C   0  0  0  0  0  0  0  0  0  0  0  0
   39.8170   22.3550   36.5060 N   0  0  0  0  0  0  0  0  0  0  0  0
   40.7390   22.5180   38.4450 H   0  0  0  0  0  0  0  0  0  0  0  0
   38.8310   23.8820   39.3710 H   0  0  0  0  0  0  0  0  0  0  0  0
   36.9280   24.4080   37.8720 H   0  0  0  0  0  0  0  0  0  0  0  0
   38.5010   24.6120   32.5050 S   0  0  0  0  0  0  0  0  0  0  0  0
   39.2060   24.4990   31.2770 H   0  0  0  0  0  0  0  0  0  0  0  0
  1  2  1  0  0  0  0
  1 11  1  0  0  0  0
  2  7  1  0  0  0  0
  3  8  1  0  0  0  0
  3  2  2  0  0  0  0
  4  3  1  0  0  0  0
  5  4  2  0  0  0  0
  5  6  1  0  0  0  0
  6  1  2  0  0  0  0
  9  4  1  0  0  0  0
 10  5  1  0  0  0  0
 11 17  1  0  0  0  0
 12 11  2  0  0  0  0
 13 14  1  0  0  0  0
 13 19  1  0  0  0  0
 14 20  1  0  0  0  0
 15 21  1  0  0  0  0
 15 14  2  0  0  0  0
 16 15  1  0  0  0  0
 17 16  2  0  0  0  0
 17 18  1  0  0  0  0
 18 13  2  0  0  0  0
 22  6  1  0  0  0  0
 23 22  1  0  0  0  0
M  END
>  <minimizedAffinity>
-4.25525522

$$$$

 OpenBabel03272509393D

 23 24  0  0  0  0  0  0  0  0999 V2000
   38.5080   23.6400   35.9660 C   0  0  0  0  0  0  0  0  0  0  0  0
   37.6330   24.1590   36.9220 C   0  0  0  0  0  0  0  0  0  0  0  0
   37.8740   24.0330   38.2930 C   0  0  0  0  0  0  0  0  0  0  0  0
   39.0190   23.3720   38.7320 C   0  0  0  0  0  0  0  0  0  0  0  0
   39.8800   22.8630   37.7670 C   0  0  0  0  0  0  0  0  0  0  0  0
   39.6290   22.9940   36.4210 C   0  0  0  0  0  0  0  0  0  0  0  0
   36.7140   24.6890   36.6420 H   0  0  0  0  0  0  0  0  0  0  0  0
   37.1950   24.4360   39.0200 H   0  0  0  0  0  0  0  0  0  0  0  0
   39.2420   23.2540   39.7860 H   0  0  0  0  0  0  0  0  0  0  0  0
   40.7790   22.3440   38.0900 H   0  0  0  0  0  0  0  0  0  0  0  0
   38.1710   23.8220   34.5590 C   0  0  0  0  0  0  0  0  0  0  0  0
   37.6600   22.7890   34.0100 O   0  0  0  0  0  0  0  0  0  0  0  0
   37.4450   26.5490   32.2830 C   0  0  0  0  0  0  0  0  0  0  0  0
   38.5950   27.3480   32.3320 C   0  0  0  0  0  0  0  0  0  0  0  0
   39.6270   26.9450   33.1530 C   0  0  0  0  0  0  0  0  0  0  0  0
   39.5020   25.7980   33.8840 N   0  0  0  0  0  0  0  0  0  0  0  0
   38.3850   25.0570   33.8140 C   0  0  0  0  0  0  0  0  0  0  0  0
   37.3670   25.4360   33.0160 N   0  0  0  0  0  0  0  0  0  0  0  0
   36.6770   26.9240   31.6200 H   0  0  0  0  0  0  0  0  0  0  0  0
   38.8060   28.2610   31.8080 H   0  0  0  0  0  0  0  0  0  0  0  0
   40.5860   27.4300   33.3190 H   0  0  0  0  0  0  0  0  0  0  0  0
   40.7610   22.3240   35.2410 S   0  0  0  0  0  0  0  0  0  0  0  0
   41.9320   23.1290   35.2770 H   0  0  0  0  0  0  0  0  0  0  0  0
  1  6  2  0  0  0  0
  1  2  1  0  0  0  0
  2  3  2  0  0  0  0
  3  4  1  0  0  0  0
  3  8  1  0  0  0  0
  4  9  1  0  0  0  0
  5 10  1  0  0  0  0
  5  4  2  0  0  0  0
  6  5  1  0  0  0  0
  7  2  1  0  0  0  0
 11  1  1  0  0  0  0
 12 11  2  0  0  0  0
 13 14  2  0  0  0  0
 13 18  1  0  0  0  0
 14 15  1  0  0  0  0
 15 21  1  0  0  0  0
 15 16  2  0  0  0  0
 17 16  1  0  0  0  0
 17 11  1  0  0  0  0
 18 17  2  0  0  0  0
 19 13  1  0  0  0  0
 20 14  1  0  0  0  0
 22 23  1  0  0  0  0
 22  6  1  0  0  0  0
M  END
>  <minimizedAffinity>
-4.23056078

$$$$

 OpenBabel03272509393D

 23 24  0  0  0  0  0  0  0  0999 V2000
   37.8970   27.2040   34.0610 C   0  0  0  0  0  0  0  0  0  0  0  0
   36.8000   27.8880   34.5870 C   0  0  0  0  0  0  0  0  0  0  0  0
   35.9710   28.6820   33.7910 C   0  0  0  0  0  0  0  0  0  0  0  0
   36.2360   28.8040   32.4290 C   0  0  0  0  0  0  0  0  0  0  0  0
   37.3320   28.1150   31.9220 C   0  0  0  0  0  0  0  0  0  0  0  0
   38.1390   27.3380   32.7180 C   0  0  0  0  0  0  0  0  0  0  0  0
   36.5380   27.8350   35.6510 H   0  0  0  0  0  0  0  0  0  0  0  0
   35.1300   29.2050   34.2060 H   0  0  0  0  0  0  0  0  0  0  0  0
   35.6170   29.4100   31.7780 H   0  0  0  0  0  0  0  0  0  0  0  0
   37.5550   28.1970   30.8600 H   0  0  0  0  0  0  0  0  0  0  0  0
   38.7040   26.4000   34.9720 C   0  0  0  0  0  0  0  0  0  0  0  0
   39.7820   26.9680   35.3510 O   0  0  0  0  0  0  0  0  0  0  0  0
   38.0970   22.8300   34.7890 C   0  0  0  0  0  0  0  0  0  0  0  0
   37.7040   22.4840   36.0900 C   0  0  0  0  0  0  0  0  0  0  0  0
   37.6480   23.4870   37.0350 C   0  0  0  0  0  0  0  0  0  0  0  0
   37.9710   24.7670   36.6840 N   0  0  0  0  0  0  0  0  0  0  0  0
   38.3430   25.0620   35.4280 C   0  0  0  0  0  0  0  0  0  0  0  0
   38.4040   24.0950   34.4920 N   0  0  0  0  0  0  0  0  0  0  0  0
   38.1190   21.9960   34.1010 H   0  0  0  0  0  0  0  0  0  0  0  0
   37.4290   21.5230   36.4790 H   0  0  0  0  0  0  0  0  0  0  0  0
   37.3680   23.4110   38.0830 H   0  0  0  0  0  0  0  0  0  0  0  0
   39.5190   26.4860   32.0140 S   0  0  0  0  0  0  0  0  0  0  0  0
   39.0000   25.4330   31.2140 H   0  0  0  0  0  0  0  0  0  0  0  0
  1  2  1  0  0  0  0
  1 11  1  0  0  0  0
  2  7  1  0  0  0  0
  3  8  1  0  0  0  0
  3  2  2  0  0  0  0
  4  3  1  0  0  0  0
  5  4  2  0  0  0  0
  5  6  1  0  0  0  0
  6  1  2  0  0  0  0
  9  4  1  0  0  0  0
 10  5  1  0  0  0  0
 11 12  2  0  0  0  0
 11 17  1  0  0  0  0
 13 14  1  0  0  0  0
 14 20  1  0  0  0  0
 14 15  2  0  0  0  0
 15 21  1  0  0  0  0
 16 15  1  0  0  0  0
 17 16  2  0  0  0  0
 18 13  2  0  0  0  0
 18 17  1  0  0  0  0
 19 13  1  0  0  0  0
 22  6  1  0  0  0  0
 23 22  1  0  0  0  0
M  END
>  <minimizedAffinity>
-4.19592905

$$$$

 OpenBabel03272509393D

 23 24  0  0  0  0  0  0  0  0999 V2000
   38.7250   25.2630   35.7390 C   0  0  0  0  0  0  0  0  0  0  0  0
   37.9470   24.7560   36.7800 C   0  0  0  0  0  0  0  0  0  0  0  0
   38.2940   23.5870   37.4640 C   0  0  0  0  0  0  0  0  0  0  0  0
   39.4500   22.8980   37.1040 C   0  0  0  0  0  0  0  0  0  0  0  0
   40.2130   23.4180   36.0650 C   0  0  0  0  0  0  0  0  0  0  0  0
   39.8590   24.5690   35.4030 C   0  0  0  0  0  0  0  0  0  0  0  0
   37.0250   25.2500   37.1120 H   0  0  0  0  0  0  0  0  0  0  0  0
   37.6870   23.2050   38.2630 H   0  0  0  0  0  0  0  0  0  0  0  0
   39.7530   21.9880   37.6090 H   0  0  0  0  0  0  0  0  0  0  0  0
   41.1200   22.8940   35.7700 H   0  0  0  0  0  0  0  0  0  0  0  0
   38.2810   26.4900   35.0870 C   0  0  0  0  0  0  0  0  0  0  0  0
   38.6630   27.5570   35.6750 O   0  0  0  0  0  0  0  0  0  0  0  0
   36.2200   27.9090   32.4640 C   0  0  0  0  0  0  0  0  0  0  0  0
   35.9290   26.8180   31.6320 C   0  0  0  0  0  0  0  0  0  0  0  0
   36.4460   25.5870   31.9780 C   0  0  0  0  0  0  0  0  0  0  0  0
   37.2140   25.4660   33.1020 N   0  0  0  0  0  0  0  0  0  0  0  0
   37.4730   26.5330   33.8750 C   0  0  0  0  0  0  0  0  0  0  0  0
   36.9760   27.7430   33.5510 N   0  0  0  0  0  0  0  0  0  0  0  0
   35.7840   28.8410   32.1340 H   0  0  0  0  0  0  0  0  0  0  0  0
   35.3430   26.7910   30.7340 H   0  0  0  0  0  0  0  0  0  0  0  0
   36.3290   24.6370   31.4620 H   0  0  0  0  0  0  0  0  0  0  0  0
   40.8710   25.1810   34.0890 S   0  0  0  0  0  0  0  0  0  0  0  0
   42.0650   25.6810   34.6760 H   0  0  0  0  0  0  0  0  0  0  0  0
  1  2  1  0  0  0  0
  2  7  1  0  0  0  0
  2  3  2  0  0  0  0
  3  8  1  0  0  0  0
  4  3  1  0  0  0  0
  4  9  1  0  0  0  0
  5  4  2  0  0  0  0
  6  1  2  0  0  0  0
  6  5  1  0  0  0  0
 10  5  1  0  0  0  0
 11 12  2  0  0  0  0
 11  1  1  0  0  0  0
 13 18  1  0  0  0  0
 14 15  1  0  0  0  0
 14 13  2  0  0  0  0
 15 16  2  0  0  0  0
 16 17  1  0  0  0  0
 17 11  1  0  0  0  0
 18 17  2  0  0  0  0
 19 13  1  0  0  0  0
 20 14  1  0  0  0  0
 21 15  1  0  0  0  0
 22 23  1  0  0  0  0
 22  6  1  0  0  0  0
M  END
>  <minimizedAffinity>
-4.15870333

$$$$
