
 OpenBabel03262522593D

 31 34  0  0  0  0  0  0  0  0999 V2000
   34.7860   29.0740   48.7680 C   0  0  0  0  0  0  0  0  0  0  0  0
   34.6940   28.5140   47.4970 C   0  0  0  0  0  0  0  0  0  0  0  0
   33.4330   27.9980   47.3540 C   0  0  0  0  0  0  0  0  0  0  0  0
   32.7640   28.2400   48.5250 N   0  0  0  0  0  0  0  0  0  0  0  0
   33.6150   28.8790   49.3250 N   0  0  0  0  0  0  0  0  0  0  0  0
   30.5660   27.4950   47.7480 N   0  0  0  0  0  0  0  0  0  0  0  0
   31.4230   27.8470   48.7480 C   0  0  0  0  0  0  0  0  0  0  0  0
   30.7300   27.7320   49.8990 N   0  0  0  0  0  0  0  0  0  0  0  0
   29.4730   27.3240   49.6520 C   0  0  0  0  0  0  0  0  0  0  0  0
   28.3440   27.0390   50.3780 C   0  0  0  0  0  0  0  0  0  0  0  0
   27.2250   26.6390   49.7500 N   0  0  0  0  0  0  0  0  0  0  0  0
   27.1680   26.5060   48.4210 C   0  0  0  0  0  0  0  0  0  0  0  0
   28.2470   26.7750   47.6760 N   0  0  0  0  0  0  0  0  0  0  0  0
   29.3690   27.1720   48.2780 C   0  0  0  0  0  0  0  0  0  0  0  0
   35.5130   28.5080   46.7640 H   0  0  0  0  0  0  0  0  0  0  0  0
   33.0630   27.4970   46.4660 H   0  0  0  0  0  0  0  0  0  0  0  0
   30.7820   27.4710   46.7070 H   0  0  0  0  0  0  0  0  0  0  0  0
   26.2680   26.1840   47.9060 H   0  0  0  0  0  0  0  0  0  0  0  0
   37.4320   30.0810   51.0950 C   0  0  0  0  0  0  0  0  0  0  0  0
   38.1990   30.9910   50.2830 C   0  0  0  0  0  0  0  0  0  0  0  0
   37.7840   31.2300   48.9660 C   0  0  0  0  0  0  0  0  0  0  0  0
   36.6760   30.5840   48.5290 N   0  0  0  0  0  0  0  0  0  0  0  0
   35.9650   29.7270   49.3160 C   0  0  0  0  0  0  0  0  0  0  0  0
   36.3470   29.4870   50.5760 N   0  0  0  0  0  0  0  0  0  0  0  0
   37.7470   29.8920   52.1140 H   0  0  0  0  0  0  0  0  0  0  0  0
   39.0780   31.4700   50.7090 H   0  0  0  0  0  0  0  0  0  0  0  0
   38.7200   32.3480   47.9590 S   0  0  0  0  0  0  0  0  0  0  0  0
   38.0820   33.5880   47.8030 H   0  0  0  0  0  0  0  0  0  0  0  0
   28.4400   27.1910   51.7970 N   0  0  0  0  0  0  0  0  0  0  0  0
   28.9580   26.5590   52.4480 H   0  0  0  0  0  0  0  0  0  0  0  0
   27.9290   28.0300   52.1950 H   0  0  0  0  0  0  0  0  0  0  0  0
  1 23  1  0  0  0  0
  1  5  2  0  0  0  0
  2  1  1  0  0  0  0
  3  2  2  0  0  0  0
  3  4  1  0  0  0  0
  4  7  1  0  0  0  0
  4  5  1  0  0  0  0
  6 14  1  0  0  0  0
  6  7  1  0  0  0  0
  7  8  2  0  0  0  0
  9  8  1  0  0  0  0
  9 10  1  0  0  0  0
 10 29  1  0  0  0  0
 11 10  2  0  0  0  0
 12 11  1  0  0  0  0
 13 14  1  0  0  0  0
 13 12  2  0  0  0  0
 14  9  2  0  0  0  0
 15  2  1  0  0  0  0
 16  3  1  0  0  0  0
 17  6  1  0  0  0  0
 18 12  1  0  0  0  0
 19 25  1  0  0  0  0
 20 26  1  0  0  0  0
 20 19  2  0  0  0  0
 21 20  1  0  0  0  0
 22 21  2  0  0  0  0
 22 23  1  0  0  0  0
 23 24  2  0  0  0  0
 24 19  1  0  0  0  0
 27 21  1  0  0  0  0
 28 27  1  0  0  0  0
 29 31  1  0  0  0  0
 29 30  1  0  0  0  0
M  END
>  <minimizedAffinity>
-6.70411253

>  <minimizedRMSD>
0.403063506

$$$$
