
 OpenBabel03262522263D

 38 40  0  0  0  0  0  0  0  0999 V2000
   36.9930   25.1930   32.7340 C   0  0  0  0  0  0  0  0  0  0  0  0
   37.7820   25.1960   33.8860 C   0  0  0  0  0  0  0  0  0  0  0  0
   38.0190   26.4160   34.4810 C   0  0  0  0  0  0  0  0  0  0  0  0
   37.4730   27.5270   33.9120 N   0  0  0  0  0  0  0  0  0  0  0  0
   36.7420   27.4840   32.8360 C   0  0  0  0  0  0  0  0  0  0  0  0
   36.4670   26.2960   32.1900 N   0  0  0  0  0  0  0  0  0  0  0  0
   36.7760   24.2540   32.2240 H   0  0  0  0  0  0  0  0  0  0  0  0
   38.6190   26.4810   35.3820 H   0  0  0  0  0  0  0  0  0  0  0  0
   38.2600   24.0150   34.3430 O   0  0  0  0  0  0  0  0  0  0  0  0
   38.4060   23.8190   35.7120 C   0  0  0  0  0  0  0  0  0  0  0  0
   37.5860   24.2740   36.7220 C   0  0  0  0  0  0  0  0  0  0  0  0
   37.8930   23.9800   38.0030 C   0  0  0  0  0  0  0  0  0  0  0  0
   39.0130   23.2370   38.2640 C   0  0  0  0  0  0  0  0  0  0  0  0
   39.8330   22.7830   37.2340 C   0  0  0  0  0  0  0  0  0  0  0  0
   39.5060   23.0910   35.9480 N   0  0  0  0  0  0  0  0  0  0  0  0
   36.7310   24.8580   36.4070 H   0  0  0  0  0  0  0  0  0  0  0  0
   37.2680   24.3240   38.8070 H   0  0  0  0  0  0  0  0  0  0  0  0
   39.3260   22.9600   39.2560 H   0  0  0  0  0  0  0  0  0  0  0  0
   41.0680   21.9650   37.5510 C   0  0  0  0  0  0  0  0  0  0  0  0
   41.2810   21.4030   36.6020 H   0  0  0  0  0  0  0  0  0  0  0  0
   40.8620   21.2190   38.3300 H   0  0  0  0  0  0  0  0  0  0  0  0
   41.9140   22.6270   37.7970 H   0  0  0  0  0  0  0  0  0  0  0  0
   36.1580   29.1140   32.3170 S   0  0  0  0  0  0  0  0  0  0  0  0
   34.5080   29.2670   33.1060 C   0  0  0  0  0  0  0  0  0  0  0  0
   33.8160   29.6840   32.3750 H   0  0  0  0  0  0  0  0  0  0  0  0
   34.1210   28.2620   33.4140 H   0  0  0  0  0  0  0  0  0  0  0  0
   32.2720   30.0550   34.5270 F   0  0  0  0  0  0  0  0  0  0  0  0
   33.5060   30.4860   34.9450 C   0  0  0  0  0  0  0  0  0  0  0  0
   34.6990   30.1490   34.3030 C   0  0  0  0  0  0  0  0  0  0  0  0
   35.8990   30.6080   34.7640 C   0  0  0  0  0  0  0  0  0  0  0  0
   35.9680   31.4310   35.8960 C   0  0  0  0  0  0  0  0  0  0  0  0
   34.7880   31.7740   36.5450 C   0  0  0  0  0  0  0  0  0  0  0  0
   33.5780   31.2950   36.0570 C   0  0  0  0  0  0  0  0  0  0  0  0
   36.7820   30.3160   34.2290 H   0  0  0  0  0  0  0  0  0  0  0  0
   36.9320   31.7820   36.2420 H   0  0  0  0  0  0  0  0  0  0  0  0
   34.7950   32.4060   37.4210 H   0  0  0  0  0  0  0  0  0  0  0  0
   32.0730   31.7510   36.9100 S   0  0  0  0  0  0  0  0  0  0  0  0
   32.2620   33.0230   37.5230 H   0  0  0  0  0  0  0  0  0  0  0  0
  1  2  1  0  0  0  0
  2  9  1  0  0  0  0
  2  3  2  0  0  0  0
  3  8  1  0  0  0  0
  4  3  1  0  0  0  0
  5  4  2  0  0  0  0
  6  1  2  0  0  0  0
  6  5  1  0  0  0  0
  7  1  1  0  0  0  0
  9 10  1  0  0  0  0
 10 15  2  0  0  0  0
 10 11  1  0  0  0  0
 11 12  2  0  0  0  0
 12 13  1  0  0  0  0
 12 17  1  0  0  0  0
 13 18  1  0  0  0  0
 14 19  1  0  0  0  0
 14 13  2  0  0  0  0
 15 14  1  0  0  0  0
 16 11  1  0  0  0  0
 19 22  1  0  0  0  0
 19 21  1  0  0  0  0
 20 19  1  0  0  0  0
 23  5  1  0  0  0  0
 23 24  1  0  0  0  0
 24 26  1  0  0  0  0
 24 29  1  0  0  0  0
 25 24  1  0  0  0  0
 27 28  1  0  0  0  0
 28 33  1  0  0  0  0
 29 30  1  0  0  0  0
 29 28  2  0  0  0  0
 30 31  2  0  0  0  0
 31 35  1  0  0  0  0
 31 32  1  0  0  0  0
 32 36  1  0  0  0  0
 33 32  2  0  0  0  0
 33 37  1  0  0  0  0
 34 30  1  0  0  0  0
 37 38  1  0  0  0  0
M  END
>  <minimizedAffinity>
-6.01893044

$$$$

 OpenBabel03262522263D

 38 40  0  0  0  0  0  0  0  0999 V2000
   35.6640   28.2860   32.2920 C   0  0  0  0  0  0  0  0  0  0  0  0
   35.7170   29.0660   33.4490 C   0  0  0  0  0  0  0  0  0  0  0  0
   36.4140   28.5520   34.5200 C   0  0  0  0  0  0  0  0  0  0  0  0
   36.9990   27.3290   34.3820 N   0  0  0  0  0  0  0  0  0  0  0  0
   36.9270   26.6320   33.2850 C   0  0  0  0  0  0  0  0  0  0  0  0
   36.2460   27.0870   32.1760 N   0  0  0  0  0  0  0  0  0  0  0  0
   35.1250   28.6460   31.4150 H   0  0  0  0  0  0  0  0  0  0  0  0
   36.4960   29.1140   35.4440 H   0  0  0  0  0  0  0  0  0  0  0  0
   35.0890   30.2640   33.4470 O   0  0  0  0  0  0  0  0  0  0  0  0
   34.9460   30.9650   34.6410 C   0  0  0  0  0  0  0  0  0  0  0  0
   35.8280   31.8620   35.2020 C   0  0  0  0  0  0  0  0  0  0  0  0
   35.5140   32.4490   36.3770 C   0  0  0  0  0  0  0  0  0  0  0  0
   34.3250   32.1320   36.9790 C   0  0  0  0  0  0  0  0  0  0  0  0
   33.4430   31.2230   36.4010 C   0  0  0  0  0  0  0  0  0  0  0  0
   33.7790   30.6430   35.2160 N   0  0  0  0  0  0  0  0  0  0  0  0
   36.7400   32.0360   34.6470 H   0  0  0  0  0  0  0  0  0  0  0  0
   36.1860   33.1530   36.8330 H   0  0  0  0  0  0  0  0  0  0  0  0
   34.0010   32.5550   37.9150 H   0  0  0  0  0  0  0  0  0  0  0  0
   32.1360   30.8890   37.0910 C   0  0  0  0  0  0  0  0  0  0  0  0
   31.4760   30.5060   36.2670 H   0  0  0  0  0  0  0  0  0  0  0  0
   31.6580   31.7910   37.4960 H   0  0  0  0  0  0  0  0  0  0  0  0
   32.2920   30.1040   37.8480 H   0  0  0  0  0  0  0  0  0  0  0  0
   37.8010   25.0530   33.3980 S   0  0  0  0  0  0  0  0  0  0  0  0
   39.2900   25.4380   34.3990 C   0  0  0  0  0  0  0  0  0  0  0  0
   40.1710   25.1440   33.8290 H   0  0  0  0  0  0  0  0  0  0  0  0
   39.3590   26.5380   34.6010 H   0  0  0  0  0  0  0  0  0  0  0  0
   41.0880   23.4110   34.9420 F   0  0  0  0  0  0  0  0  0  0  0  0
   40.0970   23.6760   35.8540 C   0  0  0  0  0  0  0  0  0  0  0  0
   39.1390   24.6760   35.6810 C   0  0  0  0  0  0  0  0  0  0  0  0
   38.1740   24.8950   36.6230 C   0  0  0  0  0  0  0  0  0  0  0  0
   38.1200   24.1220   37.7910 C   0  0  0  0  0  0  0  0  0  0  0  0
   39.0700   23.1240   37.9750 C   0  0  0  0  0  0  0  0  0  0  0  0
   40.0410   22.9200   37.0030 C   0  0  0  0  0  0  0  0  0  0  0  0
   37.4640   25.6770   36.4350 H   0  0  0  0  0  0  0  0  0  0  0  0
   37.3470   24.3160   38.5230 H   0  0  0  0  0  0  0  0  0  0  0  0
   39.0650   22.5050   38.8610 H   0  0  0  0  0  0  0  0  0  0  0  0
   41.2510   21.6280   37.2640 S   0  0  0  0  0  0  0  0  0  0  0  0
   40.6640   20.6040   38.0620 H   0  0  0  0  0  0  0  0  0  0  0  0
  1  2  1  0  0  0  0
  2  3  2  0  0  0  0
  3  8  1  0  0  0  0
  4  3  1  0  0  0  0
  5 23  1  0  0  0  0
  5  4  2  0  0  0  0
  6  1  2  0  0  0  0
  6  5  1  0  0  0  0
  7  1  1  0  0  0  0
  9  2  1  0  0  0  0
  9 10  1  0  0  0  0
 10 11  2  0  0  0  0
 10 15  1  0  0  0  0
 11 12  1  0  0  0  0
 12 17  1  0  0  0  0
 12 13  2  0  0  0  0
 13 18  1  0  0  0  0
 14 13  1  0  0  0  0
 14 19  1  0  0  0  0
 15 14  2  0  0  0  0
 16 11  1  0  0  0  0
 19 21  1  0  0  0  0
 19 22  1  0  0  0  0
 20 19  1  0  0  0  0
 23 24  1  0  0  0  0
 24 26  1  0  0  0  0
 24 29  1  0  0  0  0
 25 24  1  0  0  0  0
 27 28  1  0  0  0  0
 28 33  1  0  0  0  0
 29 28  2  0  0  0  0
 29 30  1  0  0  0  0
 30 31  2  0  0  0  0
 31 32  1  0  0  0  0
 31 35  1  0  0  0  0
 32 36  1  0  0  0  0
 33 37  1  0  0  0  0
 33 32  2  0  0  0  0
 34 30  1  0  0  0  0
 37 38  1  0  0  0  0
M  END
>  <minimizedAffinity>
-5.85458565

$$$$

 OpenBabel03262522263D

 38 40  0  0  0  0  0  0  0  0999 V2000
   36.1610   25.1340   31.7650 C   0  0  0  0  0  0  0  0  0  0  0  0
   36.5020   23.9400   31.1270 C   0  0  0  0  0  0  0  0  0  0  0  0
   37.8170   23.7830   30.7500 C   0  0  0  0  0  0  0  0  0  0  0  0
   38.6900   24.7930   31.0210 N   0  0  0  0  0  0  0  0  0  0  0  0
   38.3350   25.8930   31.6190 C   0  0  0  0  0  0  0  0  0  0  0  0
   37.0340   26.1150   32.0230 N   0  0  0  0  0  0  0  0  0  0  0  0
   35.1340   25.3090   32.0850 H   0  0  0  0  0  0  0  0  0  0  0  0
   38.1430   22.8740   30.2560 H   0  0  0  0  0  0  0  0  0  0  0  0
   35.5300   23.0210   30.9210 O   0  0  0  0  0  0  0  0  0  0  0  0
   35.6760   21.7410   31.4450 C   0  0  0  0  0  0  0  0  0  0  0  0
   35.8780   20.5650   30.7560 C   0  0  0  0  0  0  0  0  0  0  0  0
   35.9970   19.4090   31.4440 C   0  0  0  0  0  0  0  0  0  0  0  0
   35.9120   19.4390   32.8100 C   0  0  0  0  0  0  0  0  0  0  0  0
   35.7080   20.6340   33.4950 C   0  0  0  0  0  0  0  0  0  0  0  0
   35.5910   21.7880   32.7820 N   0  0  0  0  0  0  0  0  0  0  0  0
   35.9230   20.6520   29.6780 H   0  0  0  0  0  0  0  0  0  0  0  0
   36.1560   18.4800   30.9270 H   0  0  0  0  0  0  0  0  0  0  0  0
   35.9980   18.5630   33.4310 H   0  0  0  0  0  0  0  0  0  0  0  0
   35.6150   20.6370   35.0060 C   0  0  0  0  0  0  0  0  0  0  0  0
   35.8730   21.6900   35.3000 H   0  0  0  0  0  0  0  0  0  0  0  0
   36.3750   19.9820   35.4530 H   0  0  0  0  0  0  0  0  0  0  0  0
   34.5900   20.3930   35.3280 H   0  0  0  0  0  0  0  0  0  0  0  0
   39.7080   27.0480   31.8430 S   0  0  0  0  0  0  0  0  0  0  0  0
   40.7210   26.2820   33.1680 C   0  0  0  0  0  0  0  0  0  0  0  0
   41.1050   25.3320   32.8000 H   0  0  0  0  0  0  0  0  0  0  0  0
   41.5950   26.9340   33.4250 H   0  0  0  0  0  0  0  0  0  0  0  0
   40.1640   23.7320   34.0750 F   0  0  0  0  0  0  0  0  0  0  0  0
   39.5980   24.8010   34.7240 C   0  0  0  0  0  0  0  0  0  0  0  0
   39.8120   26.1290   34.3510 C   0  0  0  0  0  0  0  0  0  0  0  0
   39.2220   27.1540   35.0340 C   0  0  0  0  0  0  0  0  0  0  0  0
   38.3850   26.9020   36.1290 C   0  0  0  0  0  0  0  0  0  0  0  0
   38.1650   25.5840   36.5110 C   0  0  0  0  0  0  0  0  0  0  0  0
   38.7760   24.5580   35.8010 C   0  0  0  0  0  0  0  0  0  0  0  0
   39.4230   28.1540   34.7010 H   0  0  0  0  0  0  0  0  0  0  0  0
   37.9300   27.7310   36.6540 H   0  0  0  0  0  0  0  0  0  0  0  0
   37.5280   25.3440   37.3500 H   0  0  0  0  0  0  0  0  0  0  0  0
   38.4760   22.8700   36.3120 S   0  0  0  0  0  0  0  0  0  0  0  0
   37.1850   22.7940   36.9110 H   0  0  0  0  0  0  0  0  0  0  0  0
  1  6  1  0  0  0  0
  1  7  1  0  0  0  0
  2  1  2  0  0  0  0
  3  4  2  0  0  0  0
  3  2  1  0  0  0  0
  4  5  1  0  0  0  0
  5 23  1  0  0  0  0
  5  6  2  0  0  0  0
  8  3  1  0  0  0  0
  9  2  1  0  0  0  0
  9 10  1  0  0  0  0
 10 15  1  0  0  0  0
 11 12  1  0  0  0  0
 11 10  2  0  0  0  0
 12 13  2  0  0  0  0
 13 18  1  0  0  0  0
 13 14  1  0  0  0  0
 14 19  1  0  0  0  0
 15 14  2  0  0  0  0
 16 11  1  0  0  0  0
 17 12  1  0  0  0  0
 19 20  1  0  0  0  0
 19 22  1  0  0  0  0
 19 21  1  0  0  0  0
 23 24  1  0  0  0  0
 24 26  1  0  0  0  0
 24 29  1  0  0  0  0
 25 24  1  0  0  0  0
 27 28  1  0  0  0  0
 28 33  1  0  0  0  0
 29 28  2  0  0  0  0
 29 30  1  0  0  0  0
 30 31  2  0  0  0  0
 31 32  1  0  0  0  0
 31 35  1  0  0  0  0
 32 36  1  0  0  0  0
 33 37  1  0  0  0  0
 33 32  2  0  0  0  0
 34 30  1  0  0  0  0
 37 38  1  0  0  0  0
M  END
>  <minimizedAffinity>
-5.56295013

$$$$

 OpenBabel03262522263D

 38 40  0  0  0  0  0  0  0  0999 V2000
   37.6700   25.0720   32.6480 C   0  0  0  0  0  0  0  0  0  0  0  0
   37.0390   24.2330   31.7270 C   0  0  0  0  0  0  0  0  0  0  0  0
   35.9660   24.7530   31.0370 C   0  0  0  0  0  0  0  0  0  0  0  0
   35.5950   26.0390   31.2960 N   0  0  0  0  0  0  0  0  0  0  0  0
   36.2090   26.7910   32.1630 C   0  0  0  0  0  0  0  0  0  0  0  0
   37.2900   26.3320   32.8880 N   0  0  0  0  0  0  0  0  0  0  0  0
   38.5240   24.7090   33.2210 H   0  0  0  0  0  0  0  0  0  0  0  0
   35.4390   24.1520   30.3040 H   0  0  0  0  0  0  0  0  0  0  0  0
   37.5130   22.9760   31.5710 O   0  0  0  0  0  0  0  0  0  0  0  0
   36.7110   21.8930   31.9140 C   0  0  0  0  0  0  0  0  0  0  0  0
   36.0950   20.9980   31.0660 C   0  0  0  0  0  0  0  0  0  0  0  0
   35.3480   20.0010   31.5890 C   0  0  0  0  0  0  0  0  0  0  0  0
   35.2240   19.9090   32.9500 C   0  0  0  0  0  0  0  0  0  0  0  0
   35.8520   20.8200   33.7950 C   0  0  0  0  0  0  0  0  0  0  0  0
   36.6000   21.8170   33.2470 N   0  0  0  0  0  0  0  0  0  0  0  0
   36.2520   21.1650   30.0090 H   0  0  0  0  0  0  0  0  0  0  0  0
   34.8590   19.2910   30.9470 H   0  0  0  0  0  0  0  0  0  0  0  0
   34.6490   19.1450   33.4440 H   0  0  0  0  0  0  0  0  0  0  0  0
   35.6950   20.6960   35.2960 C   0  0  0  0  0  0  0  0  0  0  0  0
   36.5850   21.2370   35.7160 H   0  0  0  0  0  0  0  0  0  0  0  0
   35.7720   19.6490   35.6190 H   0  0  0  0  0  0  0  0  0  0  0  0
   34.7640   21.1840   35.6260 H   0  0  0  0  0  0  0  0  0  0  0  0
   35.4950   28.4460   32.2900 S   0  0  0  0  0  0  0  0  0  0  0  0
   35.9300   28.9890   33.9890 C   0  0  0  0  0  0  0  0  0  0  0  0
   36.1180   28.1040   34.5940 H   0  0  0  0  0  0  0  0  0  0  0  0
   36.8640   29.6080   33.9800 H   0  0  0  0  0  0  0  0  0  0  0  0
   36.4160   31.0400   35.7770 F   0  0  0  0  0  0  0  0  0  0  0  0
   35.1240   30.8060   35.3760 C   0  0  0  0  0  0  0  0  0  0  0  0
   34.7660   29.7990   34.4780 C   0  0  0  0  0  0  0  0  0  0  0  0
   33.4640   29.6110   34.1150 C   0  0  0  0  0  0  0  0  0  0  0  0
   32.4480   30.4260   34.6330 C   0  0  0  0  0  0  0  0  0  0  0  0
   32.7900   31.4330   35.5280 C   0  0  0  0  0  0  0  0  0  0  0  0
   34.1230   31.6040   35.8820 C   0  0  0  0  0  0  0  0  0  0  0  0
   33.2490   28.8210   33.4210 H   0  0  0  0  0  0  0  0  0  0  0  0
   31.4220   30.2580   34.3300 H   0  0  0  0  0  0  0  0  0  0  0  0
   32.0400   32.0830   35.9520 H   0  0  0  0  0  0  0  0  0  0  0  0
   34.5390   32.9060   37.0360 S   0  0  0  0  0  0  0  0  0  0  0  0
   33.4270   33.1240   37.9010 H   0  0  0  0  0  0  0  0  0  0  0  0
  1  6  1  0  0  0  0
  1  7  1  0  0  0  0
  2  1  2  0  0  0  0
  3  4  2  0  0  0  0
  3  2  1  0  0  0  0
  4  5  1  0  0  0  0
  5 23  1  0  0  0  0
  5  6  2  0  0  0  0
  8  3  1  0  0  0  0
  9  2  1  0  0  0  0
  9 10  1  0  0  0  0
 10 15  1  0  0  0  0
 11 12  1  0  0  0  0
 11 10  2  0  0  0  0
 12 13  2  0  0  0  0
 13 18  1  0  0  0  0
 13 14  1  0  0  0  0
 14 19  1  0  0  0  0
 15 14  2  0  0  0  0
 16 11  1  0  0  0  0
 17 12  1  0  0  0  0
 19 21  1  0  0  0  0
 19 22  1  0  0  0  0
 19 20  1  0  0  0  0
 23 24  1  0  0  0  0
 24 29  1  0  0  0  0
 24 25  1  0  0  0  0
 26 24  1  0  0  0  0
 28 27  1  0  0  0  0
 28 33  1  0  0  0  0
 29 28  2  0  0  0  0
 30 29  1  0  0  0  0
 30 31  2  0  0  0  0
 31 32  1  0  0  0  0
 32 33  2  0  0  0  0
 32 36  1  0  0  0  0
 33 37  1  0  0  0  0
 34 30  1  0  0  0  0
 35 31  1  0  0  0  0
 37 38  1  0  0  0  0
M  END
>  <minimizedAffinity>
-5.53696442

$$$$

 OpenBabel03262522263D

 38 40  0  0  0  0  0  0  0  0999 V2000
   36.5660   28.5920   32.4170 C   0  0  0  0  0  0  0  0  0  0  0  0
   35.9520   28.9650   33.6140 C   0  0  0  0  0  0  0  0  0  0  0  0
   36.3420   28.2990   34.7540 C   0  0  0  0  0  0  0  0  0  0  0  0
   37.2920   27.3290   34.6410 N   0  0  0  0  0  0  0  0  0  0  0  0
   37.8430   27.0080   33.5050 C   0  0  0  0  0  0  0  0  0  0  0  0
   37.4980   27.6350   32.3260 N   0  0  0  0  0  0  0  0  0  0  0  0
   36.2940   29.0870   31.4850 H   0  0  0  0  0  0  0  0  0  0  0  0
   35.9060   28.5490   35.7150 H   0  0  0  0  0  0  0  0  0  0  0  0
   35.0220   29.9480   33.5810 O   0  0  0  0  0  0  0  0  0  0  0  0
   34.9670   30.8740   34.6170 C   0  0  0  0  0  0  0  0  0  0  0  0
   34.0530   30.9350   35.6460 C   0  0  0  0  0  0  0  0  0  0  0  0
   34.1610   31.9150   36.5680 C   0  0  0  0  0  0  0  0  0  0  0  0
   35.1780   32.8250   36.4520 C   0  0  0  0  0  0  0  0  0  0  0  0
   36.0960   32.7520   35.4080 C   0  0  0  0  0  0  0  0  0  0  0  0
   35.9680   31.7550   34.4890 N   0  0  0  0  0  0  0  0  0  0  0  0
   33.2850   30.1720   35.6400 H   0  0  0  0  0  0  0  0  0  0  0  0
   33.4590   31.9820   37.3800 H   0  0  0  0  0  0  0  0  0  0  0  0
   35.3340   33.6350   37.1450 H   0  0  0  0  0  0  0  0  0  0  0  0
   37.2090   33.7730   35.3020 C   0  0  0  0  0  0  0  0  0  0  0  0
   37.9960   33.2660   34.6820 H   0  0  0  0  0  0  0  0  0  0  0  0
   37.6550   33.9780   36.2850 H   0  0  0  0  0  0  0  0  0  0  0  0
   36.8500   34.6810   34.7920 H   0  0  0  0  0  0  0  0  0  0  0  0
   39.0680   25.6890   33.6660 S   0  0  0  0  0  0  0  0  0  0  0  0
   38.0760   24.2130   34.1220 C   0  0  0  0  0  0  0  0  0  0  0  0
   37.0230   24.4450   33.9640 H   0  0  0  0  0  0  0  0  0  0  0  0
   38.3400   23.3410   33.4720 H   0  0  0  0  0  0  0  0  0  0  0  0
   40.2280   22.5660   34.6680 F   0  0  0  0  0  0  0  0  0  0  0  0
   39.5050   23.0780   35.7170 C   0  0  0  0  0  0  0  0  0  0  0  0
   38.4030   23.9190   35.5560 C   0  0  0  0  0  0  0  0  0  0  0  0
   37.7210   24.3990   36.6370 C   0  0  0  0  0  0  0  0  0  0  0  0
   38.1100   24.0610   37.9410 C   0  0  0  0  0  0  0  0  0  0  0  0
   39.2060   23.2250   38.1150 C   0  0  0  0  0  0  0  0  0  0  0  0
   39.8840   22.7490   36.9990 C   0  0  0  0  0  0  0  0  0  0  0  0
   36.8820   25.0410   36.4520 H   0  0  0  0  0  0  0  0  0  0  0  0
   37.5540   24.4540   38.7820 H   0  0  0  0  0  0  0  0  0  0  0  0
   39.5400   22.9390   39.1020 H   0  0  0  0  0  0  0  0  0  0  0  0
   41.2920   21.6740   37.2500 S   0  0  0  0  0  0  0  0  0  0  0  0
   41.1070   20.9520   38.4640 H   0  0  0  0  0  0  0  0  0  0  0  0
  1  2  1  0  0  0  0
  2  3  2  0  0  0  0
  3  8  1  0  0  0  0
  4  3  1  0  0  0  0
  5 23  1  0  0  0  0
  5  4  2  0  0  0  0
  6  1  2  0  0  0  0
  6  5  1  0  0  0  0
  7  1  1  0  0  0  0
  9  2  1  0  0  0  0
  9 10  1  0  0  0  0
 10 11  1  0  0  0  0
 11 12  2  0  0  0  0
 12 17  1  0  0  0  0
 13 12  1  0  0  0  0
 13 18  1  0  0  0  0
 14 13  2  0  0  0  0
 15 10  2  0  0  0  0
 15 14  1  0  0  0  0
 16 11  1  0  0  0  0
 19 14  1  0  0  0  0
 19 21  1  0  0  0  0
 20 19  1  0  0  0  0
 22 19  1  0  0  0  0
 23 24  1  0  0  0  0
 24 29  1  0  0  0  0
 25 24  1  0  0  0  0
 26 24  1  0  0  0  0
 27 28  1  0  0  0  0
 28 33  1  0  0  0  0
 29 28  2  0  0  0  0
 29 30  1  0  0  0  0
 30 31  2  0  0  0  0
 31 32  1  0  0  0  0
 31 35  1  0  0  0  0
 32 36  1  0  0  0  0
 33 37  1  0  0  0  0
 33 32  2  0  0  0  0
 34 30  1  0  0  0  0
 37 38  1  0  0  0  0
M  END
>  <minimizedAffinity>
-5.49968195

$$$$

 OpenBabel03262522263D

 38 40  0  0  0  0  0  0  0  0999 V2000
   36.2380   25.5590   31.1800 C   0  0  0  0  0  0  0  0  0  0  0  0
   36.9470   24.4430   31.6280 C   0  0  0  0  0  0  0  0  0  0  0  0
   37.5230   24.5250   32.8770 C   0  0  0  0  0  0  0  0  0  0  0  0
   37.3630   25.6780   33.5860 N   0  0  0  0  0  0  0  0  0  0  0  0
   36.6940   26.6990   33.1330 C   0  0  0  0  0  0  0  0  0  0  0  0
   36.0940   26.6830   31.8910 N   0  0  0  0  0  0  0  0  0  0  0  0
   35.7640   25.5470   30.1980 H   0  0  0  0  0  0  0  0  0  0  0  0
   38.0800   23.6880   33.2820 H   0  0  0  0  0  0  0  0  0  0  0  0
   37.0260   23.3620   30.8180 O   0  0  0  0  0  0  0  0  0  0  0  0
   36.4350   22.1660   31.2130 C   0  0  0  0  0  0  0  0  0  0  0  0
   35.2710   21.9970   31.9310 C   0  0  0  0  0  0  0  0  0  0  0  0
   34.8510   20.7470   32.2220 C   0  0  0  0  0  0  0  0  0  0  0  0
   35.5960   19.6810   31.7950 C   0  0  0  0  0  0  0  0  0  0  0  0
   36.7700   19.8650   31.0700 C   0  0  0  0  0  0  0  0  0  0  0  0
   37.1760   21.1340   30.7870 N   0  0  0  0  0  0  0  0  0  0  0  0
   34.7620   22.9060   32.2250 H   0  0  0  0  0  0  0  0  0  0  0  0
   33.9460   20.5910   32.7800 H   0  0  0  0  0  0  0  0  0  0  0  0
   35.3300   18.6550   31.9850 H   0  0  0  0  0  0  0  0  0  0  0  0
   37.5770   18.6680   30.6130 C   0  0  0  0  0  0  0  0  0  0  0  0
   38.1800   19.0510   29.7460 H   0  0  0  0  0  0  0  0  0  0  0  0
   36.9250   17.8730   30.2260 H   0  0  0  0  0  0  0  0  0  0  0  0
   38.2460   18.3260   31.4180 H   0  0  0  0  0  0  0  0  0  0  0  0
   36.6530   28.0840   34.2940 S   0  0  0  0  0  0  0  0  0  0  0  0
   35.3800   29.2090   33.6000 C   0  0  0  0  0  0  0  0  0  0  0  0
   35.8020   29.7080   32.7280 H   0  0  0  0  0  0  0  0  0  0  0  0
   34.4800   28.6320   33.2670 H   0  0  0  0  0  0  0  0  0  0  0  0
   32.7500   29.3050   34.4420 F   0  0  0  0  0  0  0  0  0  0  0  0
   33.6670   30.1280   35.0480 C   0  0  0  0  0  0  0  0  0  0  0  0
   35.0190   30.1600   34.7020 C   0  0  0  0  0  0  0  0  0  0  0  0
   35.8880   30.9990   35.3390 C   0  0  0  0  0  0  0  0  0  0  0  0
   35.4460   31.8520   36.3600 C   0  0  0  0  0  0  0  0  0  0  0  0
   34.1020   31.8290   36.7140 C   0  0  0  0  0  0  0  0  0  0  0  0
   33.2370   30.9670   36.0510 C   0  0  0  0  0  0  0  0  0  0  0  0
   36.9150   30.9800   35.0310 H   0  0  0  0  0  0  0  0  0  0  0  0
   36.1530   32.5080   36.8500 H   0  0  0  0  0  0  0  0  0  0  0  0
   33.7190   32.4700   37.4950 H   0  0  0  0  0  0  0  0  0  0  0  0
   31.5120   30.9570   36.5250 S   0  0  0  0  0  0  0  0  0  0  0  0
   31.1640   32.2490   37.0130 H   0  0  0  0  0  0  0  0  0  0  0  0
  1  2  2  0  0  0  0
  1  6  1  0  0  0  0
  2  3  1  0  0  0  0
  3  8  1  0  0  0  0
  3  4  2  0  0  0  0
  5  4  1  0  0  0  0
  5 23  1  0  0  0  0
  6  5  2  0  0  0  0
  7  1  1  0  0  0  0
  9 10  1  0  0  0  0
  9  2  1  0  0  0  0
 10 11  1  0  0  0  0
 11 12  2  0  0  0  0
 11 16  1  0  0  0  0
 12 17  1  0  0  0  0
 13 18  1  0  0  0  0
 13 12  1  0  0  0  0
 14 13  2  0  0  0  0
 15 14  1  0  0  0  0
 15 10  2  0  0  0  0
 19 14  1  0  0  0  0
 19 22  1  0  0  0  0
 20 19  1  0  0  0  0
 21 19  1  0  0  0  0
 24 23  1  0  0  0  0
 24 29  1  0  0  0  0
 25 24  1  0  0  0  0
 26 24  1  0  0  0  0
 27 28  1  0  0  0  0
 28 33  1  0  0  0  0
 29 28  2  0  0  0  0
 29 30  1  0  0  0  0
 30 31  2  0  0  0  0
 31 32  1  0  0  0  0
 31 35  1  0  0  0  0
 32 36  1  0  0  0  0
 33 37  1  0  0  0  0
 33 32  2  0  0  0  0
 34 30  1  0  0  0  0
 37 38  1  0  0  0  0
M  END
>  <minimizedAffinity>
-5.49029779

$$$$

 OpenBabel03262522263D

 38 40  0  0  0  0  0  0  0  0999 V2000
   36.4870   28.5310   34.7880 C   0  0  0  0  0  0  0  0  0  0  0  0
   35.8700   28.8550   33.5790 C   0  0  0  0  0  0  0  0  0  0  0  0
   36.2570   28.1420   32.4650 C   0  0  0  0  0  0  0  0  0  0  0  0
   37.2070   27.1770   32.6160 N   0  0  0  0  0  0  0  0  0  0  0  0
   37.7600   26.9030   33.7620 C   0  0  0  0  0  0  0  0  0  0  0  0
   37.4190   27.5790   34.9150 N   0  0  0  0  0  0  0  0  0  0  0  0
   36.2180   29.0640   35.7000 H   0  0  0  0  0  0  0  0  0  0  0  0
   35.8080   28.3440   31.4990 H   0  0  0  0  0  0  0  0  0  0  0  0
   34.9400   29.8380   33.5740 O   0  0  0  0  0  0  0  0  0  0  0  0
   33.6070   29.5210   33.8100 C   0  0  0  0  0  0  0  0  0  0  0  0
   32.6660   29.0990   32.8960 C   0  0  0  0  0  0  0  0  0  0  0  0
   31.4090   28.8370   33.3160 C   0  0  0  0  0  0  0  0  0  0  0  0
   31.1060   29.0000   34.6420 C   0  0  0  0  0  0  0  0  0  0  0  0
   32.0660   29.4270   35.5540 C   0  0  0  0  0  0  0  0  0  0  0  0
   33.3270   29.6870   35.1100 N   0  0  0  0  0  0  0  0  0  0  0  0
   33.0090   29.0090   31.8740 H   0  0  0  0  0  0  0  0  0  0  0  0
   30.6590   28.5050   32.6210 H   0  0  0  0  0  0  0  0  0  0  0  0
   30.1300   28.8120   35.0560 H   0  0  0  0  0  0  0  0  0  0  0  0
   31.7010   29.6030   37.0140 C   0  0  0  0  0  0  0  0  0  0  0  0
   32.6820   29.5310   37.5570 H   0  0  0  0  0  0  0  0  0  0  0  0
   31.0740   28.7750   37.3700 H   0  0  0  0  0  0  0  0  0  0  0  0
   31.2470   30.5930   37.1800 H   0  0  0  0  0  0  0  0  0  0  0  0
   38.9840   25.5770   33.6530 S   0  0  0  0  0  0  0  0  0  0  0  0
   38.0550   24.0730   34.1470 C   0  0  0  0  0  0  0  0  0  0  0  0
   36.9940   24.2540   33.9790 H   0  0  0  0  0  0  0  0  0  0  0  0
   38.3600   23.1950   33.5220 H   0  0  0  0  0  0  0  0  0  0  0  0
   40.2170   22.4580   34.7450 F   0  0  0  0  0  0  0  0  0  0  0  0
   39.4950   23.0040   35.7780 C   0  0  0  0  0  0  0  0  0  0  0  0
   38.3870   23.8330   35.5890 C   0  0  0  0  0  0  0  0  0  0  0  0
   37.7060   24.3480   36.6550 C   0  0  0  0  0  0  0  0  0  0  0  0
   38.1000   24.0590   37.9690 C   0  0  0  0  0  0  0  0  0  0  0  0
   39.2010   23.2360   38.1700 C   0  0  0  0  0  0  0  0  0  0  0  0
   39.8790   22.7240   37.0700 C   0  0  0  0  0  0  0  0  0  0  0  0
   36.8620   24.9780   36.4490 H   0  0  0  0  0  0  0  0  0  0  0  0
   37.5440   24.4800   38.7960 H   0  0  0  0  0  0  0  0  0  0  0  0
   39.5400   22.9880   39.1650 H   0  0  0  0  0  0  0  0  0  0  0  0
   41.2930   21.6660   37.3550 S   0  0  0  0  0  0  0  0  0  0  0  0
   41.1150   20.9870   38.5950 H   0  0  0  0  0  0  0  0  0  0  0  0
  1  6  1  0  0  0  0
  1  7  1  0  0  0  0
  2  1  2  0  0  0  0
  3  4  2  0  0  0  0
  3  2  1  0  0  0  0
  4  5  1  0  0  0  0
  5  6  2  0  0  0  0
  8  3  1  0  0  0  0
  9  2  1  0  0  0  0
  9 10  1  0  0  0  0
 10 15  1  0  0  0  0
 11 12  1  0  0  0  0
 11 10  2  0  0  0  0
 12 13  2  0  0  0  0
 13 18  1  0  0  0  0
 13 14  1  0  0  0  0
 14 19  1  0  0  0  0
 15 14  2  0  0  0  0
 16 11  1  0  0  0  0
 17 12  1  0  0  0  0
 19 22  1  0  0  0  0
 19 21  1  0  0  0  0
 19 20  1  0  0  0  0
 23  5  1  0  0  0  0
 23 24  1  0  0  0  0
 24 29  1  0  0  0  0
 25 24  1  0  0  0  0
 26 24  1  0  0  0  0
 27 28  1  0  0  0  0
 28 33  1  0  0  0  0
 29 28  2  0  0  0  0
 29 30  1  0  0  0  0
 30 31  2  0  0  0  0
 31 32  1  0  0  0  0
 31 35  1  0  0  0  0
 32 36  1  0  0  0  0
 33 37  1  0  0  0  0
 33 32  2  0  0  0  0
 34 30  1  0  0  0  0
 37 38  1  0  0  0  0
M  END
>  <minimizedAffinity>
-5.42056036

$$$$

 OpenBabel03262522263D

 38 40  0  0  0  0  0  0  0  0999 V2000
   37.9340   24.9760   30.7660 C   0  0  0  0  0  0  0  0  0  0  0  0
   36.7930   24.1800   30.8770 C   0  0  0  0  0  0  0  0  0  0  0  0
   35.5830   24.8300   30.9880 C   0  0  0  0  0  0  0  0  0  0  0  0
   35.5800   26.1920   30.9830 N   0  0  0  0  0  0  0  0  0  0  0  0
   36.6670   26.9010   30.8770 C   0  0  0  0  0  0  0  0  0  0  0  0
   37.9100   26.3140   30.7630 N   0  0  0  0  0  0  0  0  0  0  0  0
   38.9170   24.5130   30.6760 H   0  0  0  0  0  0  0  0  0  0  0  0
   34.6600   24.2650   31.0710 H   0  0  0  0  0  0  0  0  0  0  0  0
   36.9420   22.8350   30.8690 O   0  0  0  0  0  0  0  0  0  0  0  0
   36.5300   22.0930   31.9710 C   0  0  0  0  0  0  0  0  0  0  0  0
   35.4840   21.1980   32.0410 C   0  0  0  0  0  0  0  0  0  0  0  0
   35.2340   20.5670   33.2080 C   0  0  0  0  0  0  0  0  0  0  0  0
   36.0290   20.8350   34.2910 C   0  0  0  0  0  0  0  0  0  0  0  0
   37.0820   21.7410   34.2060 C   0  0  0  0  0  0  0  0  0  0  0  0
   37.3170   22.3680   33.0200 N   0  0  0  0  0  0  0  0  0  0  0  0
   34.9160   21.0650   31.1300 H   0  0  0  0  0  0  0  0  0  0  0  0
   34.4240   19.8640   33.2870 H   0  0  0  0  0  0  0  0  0  0  0  0
   35.8960   20.3740   35.2550 H   0  0  0  0  0  0  0  0  0  0  0  0
   37.9430   22.0220   35.4200 C   0  0  0  0  0  0  0  0  0  0  0  0
   38.9050   22.4160   34.9960 H   0  0  0  0  0  0  0  0  0  0  0  0
   38.1830   21.0960   35.9600 H   0  0  0  0  0  0  0  0  0  0  0  0
   37.4690   22.7850   36.0590 H   0  0  0  0  0  0  0  0  0  0  0  0
   36.3510   28.6800   30.8990 S   0  0  0  0  0  0  0  0  0  0  0  0
   35.2890   28.9270   32.3750 C   0  0  0  0  0  0  0  0  0  0  0  0
   34.2500   28.7920   32.0770 H   0  0  0  0  0  0  0  0  0  0  0  0
   35.5240   28.1670   33.1640 H   0  0  0  0  0  0  0  0  0  0  0  0
   34.7130   29.5230   35.0120 F   0  0  0  0  0  0  0  0  0  0  0  0
   35.2520   30.5030   34.2160 C   0  0  0  0  0  0  0  0  0  0  0  0
   35.5820   30.3100   32.8730 C   0  0  0  0  0  0  0  0  0  0  0  0
   36.1170   31.3220   32.1280 C   0  0  0  0  0  0  0  0  0  0  0  0
   36.3510   32.5840   32.6920 C   0  0  0  0  0  0  0  0  0  0  0  0
   36.0270   32.7890   34.0280 C   0  0  0  0  0  0  0  0  0  0  0  0
   35.4840   31.7440   34.7650 C   0  0  0  0  0  0  0  0  0  0  0  0
   36.3490   31.1150   31.1020 H   0  0  0  0  0  0  0  0  0  0  0  0
   36.7760   33.3700   32.0810 H   0  0  0  0  0  0  0  0  0  0  0  0
   36.1910   33.7460   34.5020 H   0  0  0  0  0  0  0  0  0  0  0  0
   35.0760   32.0330   36.4830 S   0  0  0  0  0  0  0  0  0  0  0  0
   34.7490   33.4100   36.6510 H   0  0  0  0  0  0  0  0  0  0  0  0
  1  2  1  0  0  0  0
  2  3  2  0  0  0  0
  3  8  1  0  0  0  0
  4  3  1  0  0  0  0
  5 23  1  0  0  0  0
  5  4  2  0  0  0  0
  6  1  2  0  0  0  0
  6  5  1  0  0  0  0
  7  1  1  0  0  0  0
  9  2  1  0  0  0  0
  9 10  1  0  0  0  0
 10 11  2  0  0  0  0
 10 15  1  0  0  0  0
 11 12  1  0  0  0  0
 12 17  1  0  0  0  0
 12 13  2  0  0  0  0
 13 18  1  0  0  0  0
 14 13  1  0  0  0  0
 14 19  1  0  0  0  0
 15 14  2  0  0  0  0
 16 11  1  0  0  0  0
 19 21  1  0  0  0  0
 19 22  1  0  0  0  0
 20 19  1  0  0  0  0
 23 24  1  0  0  0  0
 24 29  1  0  0  0  0
 24 26  1  0  0  0  0
 25 24  1  0  0  0  0
 28 33  1  0  0  0  0
 28 27  1  0  0  0  0
 29 28  2  0  0  0  0
 30 31  2  0  0  0  0
 30 29  1  0  0  0  0
 31 32  1  0  0  0  0
 32 36  1  0  0  0  0
 32 33  2  0  0  0  0
 33 37  1  0  0  0  0
 34 30  1  0  0  0  0
 35 31  1  0  0  0  0
 37 38  1  0  0  0  0
M  END
>  <minimizedAffinity>
-5.35603237

$$$$

 OpenBabel03262522263D

 38 40  0  0  0  0  0  0  0  0999 V2000
   37.5480   26.3480   35.3550 C   0  0  0  0  0  0  0  0  0  0  0  0
   37.8380   25.2490   34.5440 C   0  0  0  0  0  0  0  0  0  0  0  0
   37.5990   25.3850   33.1940 C   0  0  0  0  0  0  0  0  0  0  0  0
   37.1000   26.5700   32.7430 N   0  0  0  0  0  0  0  0  0  0  0  0
   36.8420   27.5730   33.5320 C   0  0  0  0  0  0  0  0  0  0  0  0
   37.0580   27.5040   34.8920 N   0  0  0  0  0  0  0  0  0  0  0  0
   37.7190   26.2940   36.4300 H   0  0  0  0  0  0  0  0  0  0  0  0
   37.8100   24.5670   32.5130 H   0  0  0  0  0  0  0  0  0  0  0  0
   38.3300   24.1310   35.1260 O   0  0  0  0  0  0  0  0  0  0  0  0
   39.7000   24.0130   35.3340 C   0  0  0  0  0  0  0  0  0  0  0  0
   40.7030   24.8060   34.8180 C   0  0  0  0  0  0  0  0  0  0  0  0
   41.9870   24.5350   35.1350 C   0  0  0  0  0  0  0  0  0  0  0  0
   42.2570   23.4770   35.9620 C   0  0  0  0  0  0  0  0  0  0  0  0
   41.2350   22.6840   36.4760 C   0  0  0  0  0  0  0  0  0  0  0  0
   39.9460   22.9740   36.1430 N   0  0  0  0  0  0  0  0  0  0  0  0
   40.3810   25.6120   34.1710 H   0  0  0  0  0  0  0  0  0  0  0  0
   42.7850   25.1400   34.7450 H   0  0  0  0  0  0  0  0  0  0  0  0
   43.2520   23.1960   36.2620 H   0  0  0  0  0  0  0  0  0  0  0  0
   41.5620   21.5170   37.3850 C   0  0  0  0  0  0  0  0  0  0  0  0
   40.6150   21.3380   37.9610 H   0  0  0  0  0  0  0  0  0  0  0  0
   42.3380   21.7870   38.1140 H   0  0  0  0  0  0  0  0  0  0  0  0
   41.8180   20.6270   36.7890 H   0  0  0  0  0  0  0  0  0  0  0  0
   36.1910   29.0110   32.6500 S   0  0  0  0  0  0  0  0  0  0  0  0
   34.4970   29.2180   33.3260 C   0  0  0  0  0  0  0  0  0  0  0  0
   33.8500   29.5720   32.5240 H   0  0  0  0  0  0  0  0  0  0  0  0
   34.0930   28.2390   33.6910 H   0  0  0  0  0  0  0  0  0  0  0  0
   32.1840   30.0750   34.5710 F   0  0  0  0  0  0  0  0  0  0  0  0
   33.3900   30.5600   35.0130 C   0  0  0  0  0  0  0  0  0  0  0  0
   34.6170   30.1940   34.4580 C   0  0  0  0  0  0  0  0  0  0  0  0
   35.7870   30.7080   34.9390 C   0  0  0  0  0  0  0  0  0  0  0  0
   35.7880   31.6190   36.0050 C   0  0  0  0  0  0  0  0  0  0  0  0
   34.5730   31.9910   36.5670 C   0  0  0  0  0  0  0  0  0  0  0  0
   33.3960   31.4530   36.0600 C   0  0  0  0  0  0  0  0  0  0  0  0
   36.6990   30.3910   34.4720 H   0  0  0  0  0  0  0  0  0  0  0  0
   36.7290   32.0120   36.3680 H   0  0  0  0  0  0  0  0  0  0  0  0
   34.5280   32.6890   37.3900 H   0  0  0  0  0  0  0  0  0  0  0  0
   31.8440   31.9480   36.8000 S   0  0  0  0  0  0  0  0  0  0  0  0
   31.9840   33.2680   37.3210 H   0  0  0  0  0  0  0  0  0  0  0  0
  1  7  1  0  0  0  0
  2  9  1  0  0  0  0
  2  1  2  0  0  0  0
  3  2  1  0  0  0  0
  4  3  2  0  0  0  0
  4  5  1  0  0  0  0
  5  6  2  0  0  0  0
  6  1  1  0  0  0  0
  8  3  1  0  0  0  0
  9 10  1  0  0  0  0
 10 15  1  0  0  0  0
 11 12  1  0  0  0  0
 11 10  2  0  0  0  0
 12 13  2  0  0  0  0
 13 18  1  0  0  0  0
 13 14  1  0  0  0  0
 14 19  1  0  0  0  0
 15 14  2  0  0  0  0
 16 11  1  0  0  0  0
 17 12  1  0  0  0  0
 19 20  1  0  0  0  0
 19 21  1  0  0  0  0
 22 19  1  0  0  0  0
 23 24  1  0  0  0  0
 23  5  1  0  0  0  0
 24 26  1  0  0  0  0
 24 29  1  0  0  0  0
 25 24  1  0  0  0  0
 27 28  1  0  0  0  0
 28 33  1  0  0  0  0
 29 30  1  0  0  0  0
 29 28  2  0  0  0  0
 30 31  2  0  0  0  0
 31 35  1  0  0  0  0
 31 32  1  0  0  0  0
 32 36  1  0  0  0  0
 33 32  2  0  0  0  0
 33 37  1  0  0  0  0
 34 30  1  0  0  0  0
 37 38  1  0  0  0  0
M  END
>  <minimizedAffinity>
-5.34566307

$$$$
