
 OpenBabel03272504363D

 23 24  0  0  0  0  0  0  0  0999 V2000
   38.5370   30.9120   49.7720 Cl  0  0  0  0  0  0  0  0  0  0  0  0
   37.1770   30.4640   48.7880 C   0  0  0  0  0  0  0  0  0  0  0  0
   37.2060   30.7380   47.4380 C   0  0  0  0  0  0  0  0  0  0  0  0
   36.1430   30.3920   46.6350 C   0  0  0  0  0  0  0  0  0  0  0  0
   35.0570   29.7690   47.2130 C   0  0  0  0  0  0  0  0  0  0  0  0
   35.0450   29.5000   48.5760 C   0  0  0  0  0  0  0  0  0  0  0  0
   36.1220   29.8460   49.4170 C   0  0  0  0  0  0  0  0  0  0  0  0
   36.0910   30.5700   45.5780 H   0  0  0  0  0  0  0  0  0  0  0  0
   34.1910   29.4700   46.6420 H   0  0  0  0  0  0  0  0  0  0  0  0
   34.1980   29.0090   49.0540 H   0  0  0  0  0  0  0  0  0  0  0  0
   39.7960   33.2240   46.5810 C   0  0  0  0  0  0  0  0  0  0  0  0
   40.5560   32.5120   45.6180 C   0  0  0  0  0  0  0  0  0  0  0  0
   40.1460   31.2030   45.3030 C   0  0  0  0  0  0  0  0  0  0  0  0
   39.0570   30.6960   45.9280 N   0  0  0  0  0  0  0  0  0  0  0  0
   38.3580   31.3970   46.8360 C   0  0  0  0  0  0  0  0  0  0  0  0
   38.7330   32.6450   47.1500 N   0  0  0  0  0  0  0  0  0  0  0  0
   40.0450   34.2240   46.8730 H   0  0  0  0  0  0  0  0  0  0  0  0
   41.4030   33.0330   45.1940 H   0  0  0  0  0  0  0  0  0  0  0  0
   40.9250   30.5210   44.3410 N   0  0  0  0  0  0  0  0  0  0  0  0
   41.9360   30.3290   44.5830 H   0  0  0  0  0  0  0  0  0  0  0  0
   40.4270   30.2560   43.4500 H   0  0  0  0  0  0  0  0  0  0  0  0
   36.1140   29.5070   51.1560 S   0  0  0  0  0  0  0  0  0  0  0  0
   35.5830   30.5770   51.8990 H   0  0  0  0  0  0  0  0  0  0  0  0
  2  7  1  0  0  0  0
  2  1  1  0  0  0  0
  3  2  2  0  0  0  0
  4  5  2  0  0  0  0
  4  3  1  0  0  0  0
  5  6  1  0  0  0  0
  6 10  1  0  0  0  0
  6  7  2  0  0  0  0
  7 22  1  0  0  0  0
  8  4  1  0  0  0  0
  9  5  1  0  0  0  0
 11 17  1  0  0  0  0
 11 16  1  0  0  0  0
 12 11  2  0  0  0  0
 13 12  1  0  0  0  0
 13 14  2  0  0  0  0
 14 15  1  0  0  0  0
 15 16  2  0  0  0  0
 15  3  1  0  0  0  0
 18 12  1  0  0  0  0
 19 20  1  0  0  0  0
 19 13  1  0  0  0  0
 21 19  1  0  0  0  0
 22 23  1  0  0  0  0
M  END
>  <minimizedAffinity>
-5.31310987

>  <minimizedRMSD>
2.5403707

$$$$
