
 OpenBabel03272503283D

 26 27  0  0  1  0  0  0  0  0999 V2000
   36.4650   29.8880   48.6810 N   0  0  0  0  0  0  0  0  0  0  0  0
   37.5890   30.6520   48.2330 C   0  0  0  0  0  0  0  0  0  0  0  0
   38.0970   31.2940   49.5200 C   0  0  2  0  0  0  0  0  0  0  0  0
   37.1090   30.8980   50.5980 C   0  0  0  0  0  0  0  0  0  0  0  0
   36.7400   29.5230   50.0500 C   0  0  0  0  0  0  0  0  0  0  0  0
   38.3660   30.0590   47.7150 H   0  0  0  0  0  0  0  0  0  0  0  0
   37.2980   31.4930   47.5490 H   0  0  0  0  0  0  0  0  0  0  0  0
   39.0510   30.7960   49.7790 H   0  0  0  0  0  0  0  0  0  0  0  0
   36.2280   31.5360   50.6640 H   0  0  0  0  0  0  0  0  0  0  0  0
   37.6590   30.7820   51.5610 H   0  0  0  0  0  0  0  0  0  0  0  0
   35.7990   29.1800   50.5210 H   0  0  0  0  0  0  0  0  0  0  0  0
   37.5890   28.8250   50.1720 H   0  0  0  0  0  0  0  0  0  0  0  0
   35.2900   29.5410   47.9330 C   0  0  0  0  0  0  0  0  0  0  0  0
   35.2330   30.0030   46.6100 C   0  0  0  0  0  0  0  0  0  0  0  0
   34.0960   29.6720   45.8740 C   0  0  0  0  0  0  0  0  0  0  0  0
   33.1290   28.9270   46.5000 N   0  0  0  0  0  0  0  0  0  0  0  0
   33.2130   28.5020   47.7610 C   0  0  0  0  0  0  0  0  0  0  0  0
   34.3100   28.8160   48.4830 N   0  0  0  0  0  0  0  0  0  0  0  0
   35.9850   30.5830   46.1250 H   0  0  0  0  0  0  0  0  0  0  0  0
   34.0100   30.0070   44.8540 H   0  0  0  0  0  0  0  0  0  0  0  0
   31.9300   27.5390   48.5200 S   0  0  0  0  0  0  0  0  0  0  0  0
   32.0530   27.5420   49.9030 H   0  0  0  0  0  0  0  0  0  0  0  0
   38.2660   32.7770   49.4020 C   0  0  0  0  0  0  0  0  0  0  0  0
   37.0980   33.3430   49.8910 F   0  0  0  0  0  0  0  0  0  0  0  0
   38.3100   33.0820   48.0580 F   0  0  0  0  0  0  0  0  0  0  0  0
   39.3740   33.2570   50.0300 F   0  0  0  0  0  0  0  0  0  0  0  0
  1  5  1  0  0  0  0
  2  1  1  0  0  0  0
  2  3  1  0  0  0  0
  3  8  1  1  0  0  0
  3  4  1  0  0  0  0
  4  9  1  0  0  0  0
  4 10  1  0  0  0  0
  5 12  1  0  0  0  0
  5 11  1  0  0  0  0
  5  4  1  0  0  0  0
  6  2  1  0  0  0  0
  7  2  1  0  0  0  0
 13 18  1  0  0  0  0
 13  1  1  0  0  0  0
 14 13  2  0  0  0  0
 15 16  2  0  0  0  0
 15 14  1  0  0  0  0
 16 17  1  0  0  0  0
 17 18  2  0  0  0  0
 17 21  1  0  0  0  0
 19 14  1  0  0  0  0
 20 15  1  0  0  0  0
 21 22  1  0  0  0  0
 23  3  1  0  0  0  0
 23 24  1  0  0  0  0
 23 26  1  0  0  0  0
 25 23  1  0  0  0  0
M  END
>  <minimizedAffinity>
-5.4187007

>  <minimizedRMSD>
0.814353943

$$$$
