
 OpenBabel03272509173D

 23 24  0  0  0  0  0  0  0  0999 V2000
   38.6300   23.5890   36.7320 C   0  0  0  0  0  0  0  0  0  0  0  0
   39.1280   23.9710   35.5110 C   0  0  0  0  0  0  0  0  0  0  0  0
   40.4930   23.6970   35.3210 C   0  0  0  0  0  0  0  0  0  0  0  0
   41.2600   23.0780   36.3220 C   0  0  0  0  0  0  0  0  0  0  0  0
   40.6610   22.7290   37.5230 C   0  0  0  0  0  0  0  0  0  0  0  0
   39.3200   22.9880   37.7350 C   0  0  0  0  0  0  0  0  0  0  0  0
   40.9890   23.9590   34.3900 H   0  0  0  0  0  0  0  0  0  0  0  0
   42.3110   22.8770   36.1510 H   0  0  0  0  0  0  0  0  0  0  0  0
   41.2910   22.2520   38.2680 H   0  0  0  0  0  0  0  0  0  0  0  0
   37.8210   23.8290   33.4420 C   0  0  0  0  0  0  0  0  0  0  0  0
   38.3460   24.6040   34.4900 C   0  0  0  0  0  0  0  0  0  0  0  0
   38.0750   25.9660   34.4820 C   0  0  0  0  0  0  0  0  0  0  0  0
   37.3240   26.4790   33.4720 N   0  0  0  0  0  0  0  0  0  0  0  0
   36.8330   25.6990   32.4770 C   0  0  0  0  0  0  0  0  0  0  0  0
   37.0820   24.3720   32.4610 N   0  0  0  0  0  0  0  0  0  0  0  0
   38.0460   22.7630   33.4680 H   0  0  0  0  0  0  0  0  0  0  0  0
   36.2340   26.1310   31.6780 H   0  0  0  0  0  0  0  0  0  0  0  0
   38.7080   27.0050   35.7740 S   0  0  0  0  0  0  0  0  0  0  0  0
   37.7370   27.0870   36.8180 H   0  0  0  0  0  0  0  0  0  0  0  0
   37.2720   23.8210   37.0180 O   0  0  0  0  0  0  0  0  0  0  0  0
   36.6100   23.2700   36.4870 H   0  0  0  0  0  0  0  0  0  0  0  0
   38.7680   22.6200   38.9520 O   0  0  0  0  0  0  0  0  0  0  0  0
   37.8380   22.8410   39.2470 H   0  0  0  0  0  0  0  0  0  0  0  0
  1 20  1  0  0  0  0
  1  6  1  0  0  0  0
  2  1  2  0  0  0  0
  3  2  1  0  0  0  0
  3  4  2  0  0  0  0
  4  5  1  0  0  0  0
  5  6  2  0  0  0  0
  5  9  1  0  0  0  0
  6 22  1  0  0  0  0
  7  3  1  0  0  0  0
  8  4  1  0  0  0  0
 10 16  1  0  0  0  0
 10 11  1  0  0  0  0
 11  2  1  0  0  0  0
 12 11  2  0  0  0  0
 12 18  1  0  0  0  0
 13 12  1  0  0  0  0
 14 13  2  0  0  0  0
 15 14  1  0  0  0  0
 15 10  2  0  0  0  0
 17 14  1  0  0  0  0
 18 19  1  0  0  0  0
 21 20  1  0  0  0  0
 22 23  1  0  0  0  0
M  END
>  <minimizedAffinity>
-4.93186283

$$$$

 OpenBabel03272509173D

 23 24  0  0  0  0  0  0  0  0999 V2000
   39.5850   23.1020   36.2020 C   0  0  0  0  0  0  0  0  0  0  0  0
   38.7370   24.0560   35.6950 C   0  0  0  0  0  0  0  0  0  0  0  0
   37.9110   24.6760   36.6470 C   0  0  0  0  0  0  0  0  0  0  0  0
   37.9730   24.3250   38.0060 C   0  0  0  0  0  0  0  0  0  0  0  0
   38.8650   23.3480   38.4190 C   0  0  0  0  0  0  0  0  0  0  0  0
   39.6890   22.7220   37.5020 C   0  0  0  0  0  0  0  0  0  0  0  0
   37.2030   25.4460   36.3520 H   0  0  0  0  0  0  0  0  0  0  0  0
   37.3250   24.8190   38.7210 H   0  0  0  0  0  0  0  0  0  0  0  0
   38.8790   23.1080   39.4780 H   0  0  0  0  0  0  0  0  0  0  0  0
   37.8310   23.6940   33.4460 C   0  0  0  0  0  0  0  0  0  0  0  0
   38.6740   24.4140   34.3080 C   0  0  0  0  0  0  0  0  0  0  0  0
   39.4150   25.4550   33.7640 C   0  0  0  0  0  0  0  0  0  0  0  0
   39.2920   25.7230   32.4360 N   0  0  0  0  0  0  0  0  0  0  0  0
   38.4670   25.0050   31.6340 C   0  0  0  0  0  0  0  0  0  0  0  0
   37.7360   23.9880   32.1400 N   0  0  0  0  0  0  0  0  0  0  0  0
   37.2590   22.8810   33.8940 H   0  0  0  0  0  0  0  0  0  0  0  0
   38.3830   25.2370   30.5750 H   0  0  0  0  0  0  0  0  0  0  0  0
   40.5010   26.4070   34.7950 S   0  0  0  0  0  0  0  0  0  0  0  0
   39.7860   27.5340   35.3010 H   0  0  0  0  0  0  0  0  0  0  0  0
   40.4520   22.4240   35.3270 O   0  0  0  0  0  0  0  0  0  0  0  0
   41.1940   22.9810   34.9230 H   0  0  0  0  0  0  0  0  0  0  0  0
   40.5630   21.7520   37.9640 O   0  0  0  0  0  0  0  0  0  0  0  0
   41.1350   21.1740   37.3820 H   0  0  0  0  0  0  0  0  0  0  0  0
  1  6  1  0  0  0  0
  2  1  2  0  0  0  0
  2  3  1  0  0  0  0
  3  4  2  0  0  0  0
  4  5  1  0  0  0  0
  4  8  1  0  0  0  0
  5  9  1  0  0  0  0
  6 22  1  0  0  0  0
  6  5  2  0  0  0  0
  7  3  1  0  0  0  0
 10 16  1  0  0  0  0
 10 11  1  0  0  0  0
 11  2  1  0  0  0  0
 12 11  2  0  0  0  0
 12 18  1  0  0  0  0
 13 12  1  0  0  0  0
 14 15  1  0  0  0  0
 14 13  2  0  0  0  0
 15 10  2  0  0  0  0
 17 14  1  0  0  0  0
 18 19  1  0  0  0  0
 20  1  1  0  0  0  0
 21 20  1  0  0  0  0
 23 22  1  0  0  0  0
M  END
>  <minimizedAffinity>
-4.77984381

$$$$

 OpenBabel03272509173D

 23 24  0  0  0  0  0  0  0  0999 V2000
   39.9440   23.5270   36.3850 C   0  0  0  0  0  0  0  0  0  0  0  0
   39.1990   24.5980   35.9560 C   0  0  0  0  0  0  0  0  0  0  0  0
   38.1350   24.9500   36.8030 C   0  0  0  0  0  0  0  0  0  0  0  0
   37.8810   24.2440   37.9890 C   0  0  0  0  0  0  0  0  0  0  0  0
   38.6940   23.1750   38.3350 C   0  0  0  0  0  0  0  0  0  0  0  0
   39.7470   22.8070   37.5200 C   0  0  0  0  0  0  0  0  0  0  0  0
   37.4820   25.7840   36.5580 H   0  0  0  0  0  0  0  0  0  0  0  0
   37.0530   24.5360   38.6260 H   0  0  0  0  0  0  0  0  0  0  0  0
   38.4610   22.6570   39.2610 H   0  0  0  0  0  0  0  0  0  0  0  0
   40.2460   26.4820   34.7870 C   0  0  0  0  0  0  0  0  0  0  0  0
   39.4580   25.3200   34.7450 C   0  0  0  0  0  0  0  0  0  0  0  0
   38.9630   24.9220   33.5100 C   0  0  0  0  0  0  0  0  0  0  0  0
   39.2600   25.6690   32.4130 N   0  0  0  0  0  0  0  0  0  0  0  0
   40.0250   26.7860   32.4930 C   0  0  0  0  0  0  0  0  0  0  0  0
   40.5180   27.1940   33.6830 N   0  0  0  0  0  0  0  0  0  0  0  0
   40.6240   26.7750   35.7670 H   0  0  0  0  0  0  0  0  0  0  0  0
   40.2500   27.3690   31.6030 H   0  0  0  0  0  0  0  0  0  0  0  0
   37.9600   23.4640   33.3820 S   0  0  0  0  0  0  0  0  0  0  0  0
   38.8030   22.3450   33.1060 H   0  0  0  0  0  0  0  0  0  0  0  0
   41.0320   23.0970   35.6050 O   0  0  0  0  0  0  0  0  0  0  0  0
   41.8210   23.7290   35.5630 H   0  0  0  0  0  0  0  0  0  0  0  0
   40.5310   21.7330   37.9080 O   0  0  0  0  0  0  0  0  0  0  0  0
   41.2560   21.3250   37.3540 H   0  0  0  0  0  0  0  0  0  0  0  0
  1  6  1  0  0  0  0
  2  1  2  0  0  0  0
  2  3  1  0  0  0  0
  3  4  2  0  0  0  0
  4  5  1  0  0  0  0
  4  8  1  0  0  0  0
  5  9  1  0  0  0  0
  6 22  1  0  0  0  0
  6  5  2  0  0  0  0
  7  3  1  0  0  0  0
 10 16  1  0  0  0  0
 11 10  1  0  0  0  0
 11  2  1  0  0  0  0
 12 11  2  0  0  0  0
 13 14  2  0  0  0  0
 13 12  1  0  0  0  0
 14 15  1  0  0  0  0
 15 10  2  0  0  0  0
 17 14  1  0  0  0  0
 18 12  1  0  0  0  0
 19 18  1  0  0  0  0
 20  1  1  0  0  0  0
 21 20  1  0  0  0  0
 23 22  1  0  0  0  0
M  END
>  <minimizedAffinity>
-4.77881527

$$$$

 OpenBabel03272509173D

 23 24  0  0  0  0  0  0  0  0999 V2000
   38.7270   23.7590   36.8490 C   0  0  0  0  0  0  0  0  0  0  0  0
   39.3080   24.1830   35.6790 C   0  0  0  0  0  0  0  0  0  0  0  0
   40.6340   23.7570   35.4930 C   0  0  0  0  0  0  0  0  0  0  0  0
   41.2860   22.9600   36.4480 C   0  0  0  0  0  0  0  0  0  0  0  0
   40.6100   22.5840   37.5990 C   0  0  0  0  0  0  0  0  0  0  0  0
   39.3060   22.9890   37.8070 C   0  0  0  0  0  0  0  0  0  0  0  0
   41.1880   24.0360   34.6000 H   0  0  0  0  0  0  0  0  0  0  0  0
   42.3090   22.6440   36.2810 H   0  0  0  0  0  0  0  0  0  0  0  0
   41.1520   21.9670   38.3100 H   0  0  0  0  0  0  0  0  0  0  0  0
   38.7140   26.3960   34.8070 C   0  0  0  0  0  0  0  0  0  0  0  0
   38.6430   24.9970   34.7040 C   0  0  0  0  0  0  0  0  0  0  0  0
   37.9210   24.4650   33.6440 C   0  0  0  0  0  0  0  0  0  0  0  0
   37.3220   25.3140   32.7670 N   0  0  0  0  0  0  0  0  0  0  0  0
   37.4130   26.6610   32.8990 C   0  0  0  0  0  0  0  0  0  0  0  0
   38.1100   27.2030   33.9220 N   0  0  0  0  0  0  0  0  0  0  0  0
   39.2860   26.7910   35.6470 H   0  0  0  0  0  0  0  0  0  0  0  0
   36.9260   27.3220   32.1860 H   0  0  0  0  0  0  0  0  0  0  0  0
   37.7890   22.7060   33.4520 S   0  0  0  0  0  0  0  0  0  0  0  0
   38.8490   22.2520   32.6110 H   0  0  0  0  0  0  0  0  0  0  0  0
   37.4000   24.1340   37.1270 O   0  0  0  0  0  0  0  0  0  0  0  0
   36.6920   23.7200   36.5340 H   0  0  0  0  0  0  0  0  0  0  0  0
   38.6740   22.5870   38.9720 O   0  0  0  0  0  0  0  0  0  0  0  0
   37.7690   22.8960   39.2680 H   0  0  0  0  0  0  0  0  0  0  0  0
  1 20  1  0  0  0  0
  1  6  1  0  0  0  0
  2  1  2  0  0  0  0
  3  2  1  0  0  0  0
  3  4  2  0  0  0  0
  4  5  1  0  0  0  0
  5  6  2  0  0  0  0
  5  9  1  0  0  0  0
  6 22  1  0  0  0  0
  7  3  1  0  0  0  0
  8  4  1  0  0  0  0
 10 16  1  0  0  0  0
 11 10  1  0  0  0  0
 11  2  1  0  0  0  0
 12 11  2  0  0  0  0
 13 14  2  0  0  0  0
 13 12  1  0  0  0  0
 14 15  1  0  0  0  0
 15 10  2  0  0  0  0
 17 14  1  0  0  0  0
 18 12  1  0  0  0  0
 19 18  1  0  0  0  0
 21 20  1  0  0  0  0
 22 23  1  0  0  0  0
M  END
>  <minimizedAffinity>
-4.73209381

$$$$

 OpenBabel03272509173D

 23 24  0  0  0  0  0  0  0  0999 V2000
   39.6760   22.8540   37.3650 C   0  0  0  0  0  0  0  0  0  0  0  0
   40.0830   23.5060   36.2270 C   0  0  0  0  0  0  0  0  0  0  0  0
   39.2710   24.5880   35.8470 C   0  0  0  0  0  0  0  0  0  0  0  0
   38.1400   24.9500   36.5950 C   0  0  0  0  0  0  0  0  0  0  0  0
   37.8130   24.2270   37.7320 C   0  0  0  0  0  0  0  0  0  0  0  0
   38.5940   23.1580   38.1280 C   0  0  0  0  0  0  0  0  0  0  0  0
   39.5040   25.1730   34.9610 H   0  0  0  0  0  0  0  0  0  0  0  0
   37.5300   25.7890   36.2810 H   0  0  0  0  0  0  0  0  0  0  0  0
   36.9300   24.5410   38.2800 H   0  0  0  0  0  0  0  0  0  0  0  0
   42.5110   23.5560   35.8860 C   0  0  0  0  0  0  0  0  0  0  0  0
   41.2390   23.1370   35.4630 C   0  0  0  0  0  0  0  0  0  0  0  0
   41.1650   22.3720   34.3060 C   0  0  0  0  0  0  0  0  0  0  0  0
   42.3140   22.0690   33.6450 N   0  0  0  0  0  0  0  0  0  0  0  0
   43.5250   22.4920   34.0850 C   0  0  0  0  0  0  0  0  0  0  0  0
   43.6240   23.2380   35.2070 N   0  0  0  0  0  0  0  0  0  0  0  0
   42.5450   24.1550   36.7960 H   0  0  0  0  0  0  0  0  0  0  0  0
   44.4320   22.2390   33.5410 H   0  0  0  0  0  0  0  0  0  0  0  0
   39.5900   21.8080   33.7130 S   0  0  0  0  0  0  0  0  0  0  0  0
   39.3230   20.5190   34.2650 H   0  0  0  0  0  0  0  0  0  0  0  0
   40.4240   21.7560   37.8270 O   0  0  0  0  0  0  0  0  0  0  0  0
   41.3460   21.9710   38.1850 H   0  0  0  0  0  0  0  0  0  0  0  0
   38.2260   22.4660   39.2710 O   0  0  0  0  0  0  0  0  0  0  0  0
   38.6620   21.6270   39.5960 H   0  0  0  0  0  0  0  0  0  0  0  0
  1 20  1  0  0  0  0
  1  6  1  0  0  0  0
  2  1  2  0  0  0  0
  3  2  1  0  0  0  0
  3  4  2  0  0  0  0
  4  5  1  0  0  0  0
  5  6  2  0  0  0  0
  5  9  1  0  0  0  0
  6 22  1  0  0  0  0
  7  3  1  0  0  0  0
  8  4  1  0  0  0  0
 10 16  1  0  0  0  0
 11 10  1  0  0  0  0
 11  2  1  0  0  0  0
 12 11  2  0  0  0  0
 13 14  2  0  0  0  0
 13 12  1  0  0  0  0
 14 15  1  0  0  0  0
 15 10  2  0  0  0  0
 17 14  1  0  0  0  0
 18 19  1  0  0  0  0
 18 12  1  0  0  0  0
 20 21  1  0  0  0  0
 22 23  1  0  0  0  0
M  END
>  <minimizedAffinity>
-4.73195934

$$$$

 OpenBabel03272509173D

 23 24  0  0  0  0  0  0  0  0999 V2000
   38.0090   26.7280   34.3960 C   0  0  0  0  0  0  0  0  0  0  0  0
   38.1510   26.2250   33.1260 C   0  0  0  0  0  0  0  0  0  0  0  0
   39.4760   26.1560   32.6650 C   0  0  0  0  0  0  0  0  0  0  0  0
   40.5510   26.5730   33.4670 C   0  0  0  0  0  0  0  0  0  0  0  0
   40.3020   27.0660   34.7390 C   0  0  0  0  0  0  0  0  0  0  0  0
   39.0080   27.1460   35.2160 C   0  0  0  0  0  0  0  0  0  0  0  0
   39.7010   25.7730   31.6730 H   0  0  0  0  0  0  0  0  0  0  0  0
   41.5650   26.5090   33.0890 H   0  0  0  0  0  0  0  0  0  0  0  0
   41.1620   27.3780   35.3240 H   0  0  0  0  0  0  0  0  0  0  0  0
   36.7020   24.4390   32.2760 C   0  0  0  0  0  0  0  0  0  0  0  0
   37.0540   25.7990   32.3070 C   0  0  0  0  0  0  0  0  0  0  0  0
   36.3080   26.6750   31.5300 C   0  0  0  0  0  0  0  0  0  0  0  0
   35.2850   26.1810   30.7830 N   0  0  0  0  0  0  0  0  0  0  0  0
   34.9740   24.8600   30.7790 C   0  0  0  0  0  0  0  0  0  0  0  0
   35.6840   23.9880   31.5260 N   0  0  0  0  0  0  0  0  0  0  0  0
   37.3010   23.7700   32.8940 H   0  0  0  0  0  0  0  0  0  0  0  0
   34.1510   24.4870   30.1740 H   0  0  0  0  0  0  0  0  0  0  0  0
   36.6980   28.4060   31.5190 S   0  0  0  0  0  0  0  0  0  0  0  0
   35.9240   29.0590   32.5250 H   0  0  0  0  0  0  0  0  0  0  0  0
   36.7190   26.8380   34.9460 O   0  0  0  0  0  0  0  0  0  0  0  0
   36.2540   25.9630   35.1550 H   0  0  0  0  0  0  0  0  0  0  0  0
   38.8110   27.6460   36.4940 O   0  0  0  0  0  0  0  0  0  0  0  0
   37.9170   27.8330   36.9020 H   0  0  0  0  0  0  0  0  0  0  0  0
  1 20  1  0  0  0  0
  1  6  1  0  0  0  0
  2  1  2  0  0  0  0
  3  2  1  0  0  0  0
  3  4  2  0  0  0  0
  4  5  1  0  0  0  0
  5  6  2  0  0  0  0
  5  9  1  0  0  0  0
  6 22  1  0  0  0  0
  7  3  1  0  0  0  0
  8  4  1  0  0  0  0
 10 11  1  0  0  0  0
 10 16  1  0  0  0  0
 11  2  1  0  0  0  0
 12 11  2  0  0  0  0
 13 12  1  0  0  0  0
 14 13  2  0  0  0  0
 14 15  1  0  0  0  0
 15 10  2  0  0  0  0
 17 14  1  0  0  0  0
 18 12  1  0  0  0  0
 18 19  1  0  0  0  0
 20 21  1  0  0  0  0
 22 23  1  0  0  0  0
M  END
>  <minimizedAffinity>
-4.48000622

$$$$

 OpenBabel03272509173D

 23 24  0  0  0  0  0  0  0  0999 V2000
   38.6910   22.8750   36.6370 C   0  0  0  0  0  0  0  0  0  0  0  0
   39.0840   22.6850   35.3350 C   0  0  0  0  0  0  0  0  0  0  0  0
   40.4320   22.3230   35.1740 C   0  0  0  0  0  0  0  0  0  0  0  0
   41.2840   22.1740   36.2800 C   0  0  0  0  0  0  0  0  0  0  0  0
   40.7900   22.3890   37.5570 C   0  0  0  0  0  0  0  0  0  0  0  0
   39.4680   22.7460   37.7430 C   0  0  0  0  0  0  0  0  0  0  0  0
   40.8460   22.1480   34.1850 H   0  0  0  0  0  0  0  0  0  0  0  0
   42.3210   21.8940   36.1290 H   0  0  0  0  0  0  0  0  0  0  0  0
   41.4840   22.2630   38.3820 H   0  0  0  0  0  0  0  0  0  0  0  0
   37.4940   21.7270   33.7330 C   0  0  0  0  0  0  0  0  0  0  0  0
   38.2130   22.8370   34.2060 C   0  0  0  0  0  0  0  0  0  0  0  0
   38.0410   24.0450   33.5440 C   0  0  0  0  0  0  0  0  0  0  0  0
   37.1940   24.0960   32.4810 N   0  0  0  0  0  0  0  0  0  0  0  0
   36.5150   23.0030   32.0540 C   0  0  0  0  0  0  0  0  0  0  0  0
   36.6660   21.8150   32.6800 N   0  0  0  0  0  0  0  0  0  0  0  0
   37.6440   20.7890   34.2680 H   0  0  0  0  0  0  0  0  0  0  0  0
   35.8430   23.0660   31.2010 H   0  0  0  0  0  0  0  0  0  0  0  0
   38.9190   25.4890   34.0870 S   0  0  0  0  0  0  0  0  0  0  0  0
   38.1110   26.1940   35.0290 H   0  0  0  0  0  0  0  0  0  0  0  0
   37.3590   23.2410   36.9010 O   0  0  0  0  0  0  0  0  0  0  0  0
   36.6620   22.5310   36.7120 H   0  0  0  0  0  0  0  0  0  0  0  0
   39.0210   22.9490   39.0390 O   0  0  0  0  0  0  0  0  0  0  0  0
   38.1160   23.2970   39.2830 H   0  0  0  0  0  0  0  0  0  0  0  0
  1 20  1  0  0  0  0
  1  6  1  0  0  0  0
  2  1  2  0  0  0  0
  3  2  1  0  0  0  0
  3  4  2  0  0  0  0
  4  5  1  0  0  0  0
  5  6  2  0  0  0  0
  5  9  1  0  0  0  0
  6 22  1  0  0  0  0
  7  3  1  0  0  0  0
  8  4  1  0  0  0  0
 10 11  1  0  0  0  0
 10 16  1  0  0  0  0
 11  2  1  0  0  0  0
 12 18  1  0  0  0  0
 12 11  2  0  0  0  0
 13 12  1  0  0  0  0
 14 13  2  0  0  0  0
 14 15  1  0  0  0  0
 15 10  2  0  0  0  0
 17 14  1  0  0  0  0
 18 19  1  0  0  0  0
 21 20  1  0  0  0  0
 22 23  1  0  0  0  0
M  END
>  <minimizedAffinity>
-4.39263725

$$$$

 OpenBabel03272509173D

 23 24  0  0  0  0  0  0  0  0999 V2000
   38.0390   25.2110   34.0790 C   0  0  0  0  0  0  0  0  0  0  0  0
   38.8100   25.3190   35.2100 C   0  0  0  0  0  0  0  0  0  0  0  0
   38.7050   26.5500   35.8790 C   0  0  0  0  0  0  0  0  0  0  0  0
   37.8650   27.5700   35.4030 C   0  0  0  0  0  0  0  0  0  0  0  0
   37.1250   27.3620   34.2500 C   0  0  0  0  0  0  0  0  0  0  0  0
   37.2100   26.1610   33.5720 C   0  0  0  0  0  0  0  0  0  0  0  0
   39.2730   26.7400   36.7860 H   0  0  0  0  0  0  0  0  0  0  0  0
   37.8010   28.5100   35.9380 H   0  0  0  0  0  0  0  0  0  0  0  0
   36.4890   28.1770   33.9180 H   0  0  0  0  0  0  0  0  0  0  0  0
   40.9960   24.2090   35.2450 C   0  0  0  0  0  0  0  0  0  0  0  0
   39.6680   24.2780   35.6960 C   0  0  0  0  0  0  0  0  0  0  0  0
   39.2460   23.3170   36.6060 C   0  0  0  0  0  0  0  0  0  0  0  0
   40.1290   22.3660   37.0120 N   0  0  0  0  0  0  0  0  0  0  0  0
   41.4050   22.3320   36.5540 C   0  0  0  0  0  0  0  0  0  0  0  0
   41.8400   23.2550   35.6680 N   0  0  0  0  0  0  0  0  0  0  0  0
   41.3060   24.9730   34.5320 H   0  0  0  0  0  0  0  0  0  0  0  0
   42.0950   21.5620   36.8920 H   0  0  0  0  0  0  0  0  0  0  0  0
   37.5800   23.3430   37.2180 S   0  0  0  0  0  0  0  0  0  0  0  0
   37.5410   24.1140   38.4180 H   0  0  0  0  0  0  0  0  0  0  0  0
   38.0760   24.0160   33.3390 O   0  0  0  0  0  0  0  0  0  0  0  0
   37.6680   23.2060   33.7890 H   0  0  0  0  0  0  0  0  0  0  0  0
   36.4500   26.0010   32.4240 O   0  0  0  0  0  0  0  0  0  0  0  0
   36.5040   25.2150   31.8090 H   0  0  0  0  0  0  0  0  0  0  0  0
  1  2  1  0  0  0  0
  2 11  1  0  0  0  0
  2  3  2  0  0  0  0
  3  7  1  0  0  0  0
  4  3  1  0  0  0  0
  4  8  1  0  0  0  0
  5  4  2  0  0  0  0
  6  1  2  0  0  0  0
  6  5  1  0  0  0  0
  9  5  1  0  0  0  0
 10 15  2  0  0  0  0
 10 11  1  0  0  0  0
 11 12  2  0  0  0  0
 12 13  1  0  0  0  0
 12 18  1  0  0  0  0
 14 17  1  0  0  0  0
 14 13  2  0  0  0  0
 15 14  1  0  0  0  0
 16 10  1  0  0  0  0
 18 19  1  0  0  0  0
 20 21  1  0  0  0  0
 20  1  1  0  0  0  0
 22  6  1  0  0  0  0
 23 22  1  0  0  0  0
M  END
>  <minimizedAffinity>
-4.38728666

$$$$

 OpenBabel03272509173D

 23 24  0  0  0  0  0  0  0  0999 V2000
   37.8690   25.2880   34.1980 C   0  0  0  0  0  0  0  0  0  0  0  0
   38.5860   25.4370   35.3600 C   0  0  0  0  0  0  0  0  0  0  0  0
   38.5320   26.7230   35.9230 C   0  0  0  0  0  0  0  0  0  0  0  0
   37.7910   27.7530   35.3220 C   0  0  0  0  0  0  0  0  0  0  0  0
   37.0990   27.5000   34.1470 C   0  0  0  0  0  0  0  0  0  0  0  0
   37.1360   26.2450   33.5710 C   0  0  0  0  0  0  0  0  0  0  0  0
   39.0630   26.9490   36.8440 H   0  0  0  0  0  0  0  0  0  0  0  0
   37.7650   28.7360   35.7760 H   0  0  0  0  0  0  0  0  0  0  0  0
   36.5400   28.3260   33.7160 H   0  0  0  0  0  0  0  0  0  0  0  0
   38.7740   23.6500   37.0280 C   0  0  0  0  0  0  0  0  0  0  0  0
   39.3420   24.3850   35.9740 C   0  0  0  0  0  0  0  0  0  0  0  0
   40.6280   24.0480   35.5740 C   0  0  0  0  0  0  0  0  0  0  0  0
   41.2700   23.0360   36.2150 N   0  0  0  0  0  0  0  0  0  0  0  0
   40.6890   22.3480   37.2290 C   0  0  0  0  0  0  0  0  0  0  0  0
   39.4380   22.6560   37.6370 N   0  0  0  0  0  0  0  0  0  0  0  0
   37.7630   23.9310   37.3250 H   0  0  0  0  0  0  0  0  0  0  0  0
   41.2210   21.5410   37.7280 H   0  0  0  0  0  0  0  0  0  0  0  0
   41.4080   24.9350   34.2490 S   0  0  0  0  0  0  0  0  0  0  0  0
   41.1350   24.2630   33.0200 H   0  0  0  0  0  0  0  0  0  0  0  0
   37.8610   24.0360   33.5570 O   0  0  0  0  0  0  0  0  0  0  0  0
   37.3750   23.2940   34.0440 H   0  0  0  0  0  0  0  0  0  0  0  0
   36.4280   26.0420   32.3980 O   0  0  0  0  0  0  0  0  0  0  0  0
   36.4580   25.2060   31.8490 H   0  0  0  0  0  0  0  0  0  0  0  0
  1  2  1  0  0  0  0
  2  3  2  0  0  0  0
  2 11  1  0  0  0  0
  3  7  1  0  0  0  0
  4  8  1  0  0  0  0
  4  3  1  0  0  0  0
  5  4  2  0  0  0  0
  6  5  1  0  0  0  0
  6  1  2  0  0  0  0
  9  5  1  0  0  0  0
 10 16  1  0  0  0  0
 10 15  1  0  0  0  0
 11 10  2  0  0  0  0
 12 11  1  0  0  0  0
 12 13  2  0  0  0  0
 13 14  1  0  0  0  0
 14 15  2  0  0  0  0
 14 17  1  0  0  0  0
 18 12  1  0  0  0  0
 19 18  1  0  0  0  0
 20 21  1  0  0  0  0
 20  1  1  0  0  0  0
 22  6  1  0  0  0  0
 23 22  1  0  0  0  0
M  END
>  <minimizedAffinity>
-4.37712049

$$$$
