
 OpenBabel03272506293D

 27 28  0  0  1  0  0  0  0  0999 V2000
   34.0110   29.1910   48.4330 C   0  0  1  0  0  0  0  0  0  0  0  0
   33.7200   29.6060   47.0470 C   0  0  0  0  0  0  0  0  0  0  0  0
   34.0190   28.6110   45.9670 C   0  0  0  0  0  0  0  0  0  0  0  0
   33.7370   27.1980   46.3110 C   0  0  0  0  0  0  0  0  0  0  0  0
   34.0230   26.7590   47.7050 C   0  0  0  0  0  0  0  0  0  0  0  0
   33.5970   27.7910   48.7130 C   0  0  2  0  0  0  0  0  0  0  0  0
   33.3390   29.8120   49.1120 H   0  0  0  0  0  0  0  0  0  0  0  0
   34.0080   30.6000   46.7410 H   0  0  0  0  0  0  0  0  0  0  0  0
   32.5840   29.6550   47.0030 H   0  0  0  0  0  0  0  0  0  0  0  0
   33.4330   28.8800   45.0630 H   0  0  0  0  0  0  0  0  0  0  0  0
   35.0830   28.7470   45.6790 H   0  0  0  0  0  0  0  0  0  0  0  0
   32.6590   26.9460   46.1000 H   0  0  0  0  0  0  0  0  0  0  0  0
   34.3110   26.5360   45.6230 H   0  0  0  0  0  0  0  0  0  0  0  0
   35.1020   26.5840   47.8340 H   0  0  0  0  0  0  0  0  0  0  0  0
   33.4820   25.8340   47.9200 H   0  0  0  0  0  0  0  0  0  0  0  0
   33.7950   27.4360   49.7190 H   0  0  0  0  0  0  0  0  0  0  0  0
   36.2240   30.4250   48.2730 C   0  0  0  0  0  0  0  0  0  0  0  0
   35.3620   29.5310   48.9340 C   0  0  0  0  0  0  0  0  0  0  0  0
   35.8220   28.9680   50.1110 C   0  0  0  0  0  0  0  0  0  0  0  0
   37.0590   29.2890   50.5780 N   0  0  0  0  0  0  0  0  0  0  0  0
   37.8570   30.1590   49.9040 C   0  0  0  0  0  0  0  0  0  0  0  0
   37.4430   30.7300   48.7510 N   0  0  0  0  0  0  0  0  0  0  0  0
   35.9170   30.8830   47.3690 H   0  0  0  0  0  0  0  0  0  0  0  0
   35.3030   28.2740   50.7420 H   0  0  0  0  0  0  0  0  0  0  0  0
   38.8510   30.4330   50.2560 H   0  0  0  0  0  0  0  0  0  0  0  0
   31.7540   27.8090   48.5970 S   0  0  0  0  0  0  0  0  0  0  0  0
   31.2850   29.0330   48.1120 H   0  0  0  0  0  0  0  0  0  0  0  0
  1  6  1  0  0  0  0
  1 18  1  0  0  0  0
  1  7  1  1  0  0  0
  2  1  1  0  0  0  0
  3  4  1  0  0  0  0
  3  2  1  0  0  0  0
  4  5  1  0  0  0  0
  5 14  1  0  0  0  0
  5 15  1  0  0  0  0
  5  6  1  0  0  0  0
  6 16  1  1  0  0  0
  8  2  1  0  0  0  0
  9  2  1  0  0  0  0
 10  3  1  0  0  0  0
 11  3  1  0  0  0  0
 12  4  1  0  0  0  0
 13  4  1  0  0  0  0
 17 22  2  0  0  0  0
 17 18  1  0  0  0  0
 18 19  2  0  0  0  0
 19 20  1  0  0  0  0
 19 24  1  0  0  0  0
 21 25  1  0  0  0  0
 21 20  2  0  0  0  0
 22 21  1  0  0  0  0
 23 17  1  0  0  0  0
 26  6  1  0  0  0  0
 27 26  1  0  0  0  0
M  END
>  <minimizedAffinity>
-3.9506743

>  <minimizedRMSD>
1.24779701

$$$$
