
 OpenBabel03272507373D

 12 12  0  0  0  0  0  0  0  0999 V2000
   39.6600   22.7450   37.7260 C   0  0  0  0  0  0  0  0  0  0  0  0
   39.6610   23.1510   36.3900 C   0  0  0  0  0  0  0  0  0  0  0  0
   38.7890   24.1660   36.0110 C   0  0  0  0  0  0  0  0  0  0  0  0
   37.9780   24.7130   36.9610 N   0  0  0  0  0  0  0  0  0  0  0  0
   38.0020   24.2940   38.2570 C   0  0  0  0  0  0  0  0  0  0  0  0
   38.8350   23.3230   38.6180 N   0  0  0  0  0  0  0  0  0  0  0  0
   38.7480   24.5220   34.9830 H   0  0  0  0  0  0  0  0  0  0  0  0
   37.3290   24.7760   38.9520 H   0  0  0  0  0  0  0  0  0  0  0  0
   40.5680   21.7330   37.9700 O   0  0  0  0  0  0  0  0  0  0  0  0
   41.2870   21.7340   38.6720 H   0  0  0  0  0  0  0  0  0  0  0  0
   40.6930   22.4670   35.1380 S   0  0  0  0  0  0  0  0  0  0  0  0
   40.0300   21.3230   34.6030 H   0  0  0  0  0  0  0  0  0  0  0  0
  1  9  1  0  0  0  0
  1  6  1  0  0  0  0
  2  1  2  0  0  0  0
  3  2  1  0  0  0  0
  3  4  2  0  0  0  0
  4  5  1  0  0  0  0
  5  6  2  0  0  0  0
  5  8  1  0  0  0  0
  7  3  1  0  0  0  0
  9 10  1  0  0  0  0
 11  2  1  0  0  0  0
 12 11  1  0  0  0  0
M  END
>  <minimizedAffinity>
-3.35203505

$$$$

 OpenBabel03272507373D

 12 12  0  0  0  0  0  0  0  0999 V2000
   38.7160   23.3640   37.7710 C   0  0  0  0  0  0  0  0  0  0  0  0
   39.7830   23.0570   36.9240 C   0  0  0  0  0  0  0  0  0  0  0  0
   39.8790   23.7390   35.7150 C   0  0  0  0  0  0  0  0  0  0  0  0
   38.9290   24.6720   35.4190 N   0  0  0  0  0  0  0  0  0  0  0  0
   37.9010   24.9480   36.2690 C   0  0  0  0  0  0  0  0  0  0  0  0
   37.8100   24.2950   37.4230 N   0  0  0  0  0  0  0  0  0  0  0  0
   40.6900   23.5400   35.0160 H   0  0  0  0  0  0  0  0  0  0  0  0
   37.1880   25.7010   35.9640 H   0  0  0  0  0  0  0  0  0  0  0  0
   38.7360   22.6190   38.9340 O   0  0  0  0  0  0  0  0  0  0  0  0
   38.7070   22.9770   39.8720 H   0  0  0  0  0  0  0  0  0  0  0  0
   41.0250   21.8590   37.2730 S   0  0  0  0  0  0  0  0  0  0  0  0
   40.5440   20.5890   36.8330 H   0  0  0  0  0  0  0  0  0  0  0  0
  1  9  1  0  0  0  0
  2 11  1  0  0  0  0
  2  1  2  0  0  0  0
  3  2  1  0  0  0  0
  4  3  2  0  0  0  0
  4  5  1  0  0  0  0
  5  6  2  0  0  0  0
  6  1  1  0  0  0  0
  7  3  1  0  0  0  0
  8  5  1  0  0  0  0
  9 10  1  0  0  0  0
 12 11  1  0  0  0  0
M  END
>  <minimizedAffinity>
-3.27196407

$$$$

 OpenBabel03272507373D

 12 12  0  0  0  0  0  0  0  0999 V2000
   39.8420   22.6520   37.6800 C   0  0  0  0  0  0  0  0  0  0  0  0
   39.4010   23.4360   36.6110 C   0  0  0  0  0  0  0  0  0  0  0  0
   40.1270   23.3980   35.4250 C   0  0  0  0  0  0  0  0  0  0  0  0
   41.2310   22.5990   35.3660 N   0  0  0  0  0  0  0  0  0  0  0  0
   41.6340   21.8460   36.4270 C   0  0  0  0  0  0  0  0  0  0  0  0
   40.9400   21.8840   37.5600 N   0  0  0  0  0  0  0  0  0  0  0  0
   39.8290   23.9880   34.5600 H   0  0  0  0  0  0  0  0  0  0  0  0
   42.5190   21.2390   36.3020 H   0  0  0  0  0  0  0  0  0  0  0  0
   39.0370   22.7800   38.7950 O   0  0  0  0  0  0  0  0  0  0  0  0
   38.5990   22.0330   39.3030 H   0  0  0  0  0  0  0  0  0  0  0  0
   37.9830   24.4780   36.6530 S   0  0  0  0  0  0  0  0  0  0  0  0
   38.3850   25.7420   37.1800 H   0  0  0  0  0  0  0  0  0  0  0  0
  1  9  1  0  0  0  0
  2 11  1  0  0  0  0
  2  1  2  0  0  0  0
  3  2  1  0  0  0  0
  4  3  2  0  0  0  0
  4  5  1  0  0  0  0
  5  6  2  0  0  0  0
  6  1  1  0  0  0  0
  7  3  1  0  0  0  0
  8  5  1  0  0  0  0
  9 10  1  0  0  0  0
 11 12  1  0  0  0  0
M  END
>  <minimizedAffinity>
-3.01015925

$$$$

 OpenBabel03272507373D

 12 12  0  0  0  0  0  0  0  0999 V2000
   38.3280   23.7140   36.0580 C   0  0  0  0  0  0  0  0  0  0  0  0
   39.4900   22.9970   36.3470 C   0  0  0  0  0  0  0  0  0  0  0  0
   39.8290   22.8040   37.6830 C   0  0  0  0  0  0  0  0  0  0  0  0
   39.0090   23.3250   38.6410 N   0  0  0  0  0  0  0  0  0  0  0  0
   37.8810   24.0200   38.3240 C   0  0  0  0  0  0  0  0  0  0  0  0
   37.5600   24.2030   37.0470 N   0  0  0  0  0  0  0  0  0  0  0  0
   40.7230   22.2520   37.9660 H   0  0  0  0  0  0  0  0  0  0  0  0
   37.2830   24.4010   39.1390 H   0  0  0  0  0  0  0  0  0  0  0  0
   38.1070   23.8340   34.6990 O   0  0  0  0  0  0  0  0  0  0  0  0
   37.2690   23.5810   34.2070 H   0  0  0  0  0  0  0  0  0  0  0  0
   40.5710   22.3120   35.1370 S   0  0  0  0  0  0  0  0  0  0  0  0
   41.5030   23.3250   34.7610 H   0  0  0  0  0  0  0  0  0  0  0  0
  1  2  2  0  0  0  0
  1  6  1  0  0  0  0
  2  3  1  0  0  0  0
  3  7  1  0  0  0  0
  3  4  2  0  0  0  0
  5  4  1  0  0  0  0
  5  8  1  0  0  0  0
  6  5  2  0  0  0  0
  9  1  1  0  0  0  0
 10  9  1  0  0  0  0
 11  2  1  0  0  0  0
 12 11  1  0  0  0  0
M  END
>  <minimizedAffinity>
-2.7742455

$$$$

 OpenBabel03272507373D

 12 12  0  0  0  0  0  0  0  0999 V2000
   38.1420   27.5690   35.1730 C   0  0  0  0  0  0  0  0  0  0  0  0
   39.0570   27.0440   34.2590 C   0  0  0  0  0  0  0  0  0  0  0  0
   38.6730   26.9490   32.9250 C   0  0  0  0  0  0  0  0  0  0  0  0
   37.4230   27.3720   32.5790 N   0  0  0  0  0  0  0  0  0  0  0  0
   36.5540   27.8810   33.4960 C   0  0  0  0  0  0  0  0  0  0  0  0
   36.9230   27.9700   34.7700 N   0  0  0  0  0  0  0  0  0  0  0  0
   39.3460   26.5480   32.1690 H   0  0  0  0  0  0  0  0  0  0  0  0
   35.5820   28.1950   33.1440 H   0  0  0  0  0  0  0  0  0  0  0  0
   38.6450   27.6080   36.4590 O   0  0  0  0  0  0  0  0  0  0  0  0
   38.6840   28.4120   37.0600 H   0  0  0  0  0  0  0  0  0  0  0  0
   40.6760   26.4870   34.6710 S   0  0  0  0  0  0  0  0  0  0  0  0
   40.5780   25.1240   35.0820 H   0  0  0  0  0  0  0  0  0  0  0  0
  1  9  1  0  0  0  0
  2 11  1  0  0  0  0
  2  1  2  0  0  0  0
  3  2  1  0  0  0  0
  4  3  2  0  0  0  0
  4  5  1  0  0  0  0
  5  6  2  0  0  0  0
  6  1  1  0  0  0  0
  7  3  1  0  0  0  0
  8  5  1  0  0  0  0
  9 10  1  0  0  0  0
 11 12  1  0  0  0  0
M  END
>  <minimizedAffinity>
-2.75805712

$$$$

 OpenBabel03272507373D

 12 12  0  0  0  0  0  0  0  0999 V2000
   38.2090   24.6410   36.5860 C   0  0  0  0  0  0  0  0  0  0  0  0
   39.2660   24.0240   35.9140 C   0  0  0  0  0  0  0  0  0  0  0  0
   40.0260   23.0860   36.6050 C   0  0  0  0  0  0  0  0  0  0  0  0
   39.7010   22.8180   37.9030 N   0  0  0  0  0  0  0  0  0  0  0  0
   38.6630   23.4390   38.5290 C   0  0  0  0  0  0  0  0  0  0  0  0
   37.9380   24.3340   37.8670 N   0  0  0  0  0  0  0  0  0  0  0  0
   40.8620   22.5730   36.1320 H   0  0  0  0  0  0  0  0  0  0  0  0
   38.4680   23.1720   39.5580 H   0  0  0  0  0  0  0  0  0  0  0  0
   37.5380   25.5490   35.7900 O   0  0  0  0  0  0  0  0  0  0  0  0
   36.5490   25.5670   35.6110 H   0  0  0  0  0  0  0  0  0  0  0  0
   39.7140   24.3460   34.2420 S   0  0  0  0  0  0  0  0  0  0  0  0
   40.5990   25.4650   34.2340 H   0  0  0  0  0  0  0  0  0  0  0  0
  1  6  1  0  0  0  0
  2  1  2  0  0  0  0
  2  3  1  0  0  0  0
  3  4  2  0  0  0  0
  4  5  1  0  0  0  0
  5  8  1  0  0  0  0
  6  5  2  0  0  0  0
  7  3  1  0  0  0  0
  9  1  1  0  0  0  0
 10  9  1  0  0  0  0
 11  2  1  0  0  0  0
 12 11  1  0  0  0  0
M  END
>  <minimizedAffinity>
-2.71955395

$$$$

 OpenBabel03272507373D

 12 12  0  0  0  0  0  0  0  0999 V2000
   38.4960   26.2680   36.0440 C   0  0  0  0  0  0  0  0  0  0  0  0
   38.7320   25.8740   34.7260 C   0  0  0  0  0  0  0  0  0  0  0  0
   38.5200   24.5400   34.3910 C   0  0  0  0  0  0  0  0  0  0  0  0
   38.0920   23.6870   35.3650 N   0  0  0  0  0  0  0  0  0  0  0  0
   37.8700   24.1050   36.6430 C   0  0  0  0  0  0  0  0  0  0  0  0
   38.0740   25.3790   36.9610 N   0  0  0  0  0  0  0  0  0  0  0  0
   38.6880   24.1770   33.3780 H   0  0  0  0  0  0  0  0  0  0  0  0
   37.5320   23.3690   37.3580 H   0  0  0  0  0  0  0  0  0  0  0  0
   38.7450   27.6120   36.2450 O   0  0  0  0  0  0  0  0  0  0  0  0
   38.1100   28.2830   36.6400 H   0  0  0  0  0  0  0  0  0  0  0  0
   39.2850   26.9470   33.4440 S   0  0  0  0  0  0  0  0  0  0  0  0
   40.7100   26.9920   33.4970 H   0  0  0  0  0  0  0  0  0  0  0  0
  1  9  1  0  0  0  0
  1  6  1  0  0  0  0
  2  1  2  0  0  0  0
  3  2  1  0  0  0  0
  3  4  2  0  0  0  0
  4  5  1  0  0  0  0
  5  6  2  0  0  0  0
  5  8  1  0  0  0  0
  7  3  1  0  0  0  0
  9 10  1  0  0  0  0
 11 12  1  0  0  0  0
 11  2  1  0  0  0  0
M  END
>  <minimizedAffinity>
-2.70012212

$$$$

 OpenBabel03272507373D

 12 12  0  0  0  0  0  0  0  0999 V2000
   39.6340   22.9520   36.5350 C   0  0  0  0  0  0  0  0  0  0  0  0
   38.6420   23.7330   35.9400 C   0  0  0  0  0  0  0  0  0  0  0  0
   37.7250   24.3730   36.7670 C   0  0  0  0  0  0  0  0  0  0  0  0
   37.8420   24.2070   38.1160 N   0  0  0  0  0  0  0  0  0  0  0  0
   38.8240   23.4370   38.6650 C   0  0  0  0  0  0  0  0  0  0  0  0
   39.6980   22.8260   37.8730 N   0  0  0  0  0  0  0  0  0  0  0  0
   36.9310   24.9950   36.3580 H   0  0  0  0  0  0  0  0  0  0  0  0
   38.8510   23.3550   39.7420 H   0  0  0  0  0  0  0  0  0  0  0  0
   40.4770   22.3720   35.6060 O   0  0  0  0  0  0  0  0  0  0  0  0
   41.4790   22.4350   35.5900 H   0  0  0  0  0  0  0  0  0  0  0  0
   38.4610   23.9690   34.2050 S   0  0  0  0  0  0  0  0  0  0  0  0
   37.6690   22.8950   33.6980 H   0  0  0  0  0  0  0  0  0  0  0  0
  1  6  1  0  0  0  0
  2  1  2  0  0  0  0
  2  3  1  0  0  0  0
  3  4  2  0  0  0  0
  4  5  1  0  0  0  0
  5  8  1  0  0  0  0
  6  5  2  0  0  0  0
  7  3  1  0  0  0  0
  9  1  1  0  0  0  0
 10  9  1  0  0  0  0
 11  2  1  0  0  0  0
 12 11  1  0  0  0  0
M  END
>  <minimizedAffinity>
-2.69795728

$$$$

 OpenBabel03272507373D

 12 12  0  0  0  0  0  0  0  0999 V2000
   35.7690   26.4090   31.2720 C   0  0  0  0  0  0  0  0  0  0  0  0
   36.4700   25.4310   31.9800 C   0  0  0  0  0  0  0  0  0  0  0  0
   37.1370   25.8100   33.1410 C   0  0  0  0  0  0  0  0  0  0  0  0
   37.0730   27.1170   33.5280 N   0  0  0  0  0  0  0  0  0  0  0  0
   36.3800   28.0470   32.8130 C   0  0  0  0  0  0  0  0  0  0  0  0
   35.7440   27.6820   31.7050 N   0  0  0  0  0  0  0  0  0  0  0  0
   37.6990   25.0890   33.7320 H   0  0  0  0  0  0  0  0  0  0  0  0
   36.3760   29.0620   33.1850 H   0  0  0  0  0  0  0  0  0  0  0  0
   35.1540   25.9040   30.1430 O   0  0  0  0  0  0  0  0  0  0  0  0
   34.1830   25.9910   29.9040 H   0  0  0  0  0  0  0  0  0  0  0  0
   36.5750   23.7370   31.5100 S   0  0  0  0  0  0  0  0  0  0  0  0
   37.6650   23.6030   30.5980 H   0  0  0  0  0  0  0  0  0  0  0  0
  1  6  2  0  0  0  0
  1  2  1  0  0  0  0
  2  3  2  0  0  0  0
  3  4  1  0  0  0  0
  3  7  1  0  0  0  0
  5  8  1  0  0  0  0
  5  4  2  0  0  0  0
  6  5  1  0  0  0  0
  9  1  1  0  0  0  0
 10  9  1  0  0  0  0
 11  2  1  0  0  0  0
 12 11  1  0  0  0  0
M  END
>  <minimizedAffinity>
-2.62496352

$$$$
