
 OpenBabel03262521493D

 25 26  0  0  1  0  0  0  0  0999 V2000
   37.1790   29.2470   50.4040 C   0  0  0  0  0  0  0  0  0  0  0  0
   37.3200   30.5970   50.7530 C   0  0  0  0  0  0  0  0  0  0  0  0
   36.5360   31.5180   50.0310 C   0  0  0  0  0  0  0  0  0  0  0  0
   35.7070   31.0460   49.0570 N   0  0  0  0  0  0  0  0  0  0  0  0
   35.6160   29.7410   48.7690 C   0  0  0  0  0  0  0  0  0  0  0  0
   36.3510   28.8140   49.4350 N   0  0  0  0  0  0  0  0  0  0  0  0
   34.7390   29.3070   47.7480 N   0  0  0  0  0  0  0  0  0  0  0  0
   34.1080   27.9840   47.7770 C   0  0  0  0  0  0  0  0  0  0  0  0
   32.6380   28.1380   47.6450 C   0  0  0  0  0  0  0  0  0  0  0  0
   32.1600   29.3600   47.1710 N   0  0  0  0  0  0  0  0  0  0  0  0
   32.9890   30.2090   46.3970 C   0  0  0  0  0  0  0  0  0  0  0  0
   34.4370   30.1800   46.6220 C   0  0  2  0  0  0  0  0  0  0  0  0
   37.7740   28.5080   50.9470 H   0  0  0  0  0  0  0  0  0  0  0  0
   37.9900   30.9240   51.5330 H   0  0  0  0  0  0  0  0  0  0  0  0
   36.6220   32.5630   50.2760 H   0  0  0  0  0  0  0  0  0  0  0  0
   34.5640   27.3330   46.9930 H   0  0  0  0  0  0  0  0  0  0  0  0
   34.3690   27.4980   48.7540 H   0  0  0  0  0  0  0  0  0  0  0  0
   32.2920   27.3300   46.9340 H   0  0  0  0  0  0  0  0  0  0  0  0
   32.1470   27.8950   48.6100 H   0  0  0  0  0  0  0  0  0  0  0  0
   31.2310   29.2830   46.7080 H   0  0  0  0  0  0  0  0  0  0  0  0
   32.7860   30.0030   45.3040 H   0  0  0  0  0  0  0  0  0  0  0  0
   32.6150   31.2650   46.5320 H   0  0  0  0  0  0  0  0  0  0  0  0
   34.8480   31.2000   46.8370 H   0  0  0  0  0  0  0  0  0  0  0  0
   35.3960   29.6000   45.1820 S   0  0  0  0  0  0  0  0  0  0  0  0
   36.7790   29.7850   45.4270 H   0  0  0  0  0  0  0  0  0  0  0  0
  1  2  1  0  0  0  0
  1 13  1  0  0  0  0
  2 14  1  0  0  0  0
  3 15  1  0  0  0  0
  3  2  2  0  0  0  0
  4  3  1  0  0  0  0
  5  4  2  0  0  0  0
  5  6  1  0  0  0  0
  6  1  2  0  0  0  0
  7  8  1  0  0  0  0
  7  5  1  0  0  0  0
  8 17  1  0  0  0  0
  9  8  1  0  0  0  0
  9 19  1  0  0  0  0
 10  9  1  0  0  0  0
 11 22  1  0  0  0  0
 11 12  1  0  0  0  0
 11 10  1  0  0  0  0
 12 23  1  1  0  0  0
 12  7  1  0  0  0  0
 16  8  1  0  0  0  0
 18  9  1  0  0  0  0
 20 10  1  0  0  0  0
 21 11  1  0  0  0  0
 24 25  1  0  0  0  0
 24 12  1  0  0  0  0
M  END
>  <minimizedAffinity>
-3.9548769

>  <minimizedRMSD>
0.6001634

$$$$
