
 OpenBabel03272509293D

 27 28  0  0  1  0  0  0  0  0999 V2000
   35.4490   30.2750   48.9670 C   0  0  2  0  0  0  0  0  0  0  0  0
   36.5280   30.9760   48.1720 C   0  0  0  0  0  0  0  0  0  0  0  0
   37.9150   30.5370   48.5440 C   0  0  0  0  0  0  0  0  0  0  0  0
   38.1980   30.6800   50.0120 C   0  0  0  0  0  0  0  0  0  0  0  0
   37.0690   30.1750   50.8820 C   0  0  0  0  0  0  0  0  0  0  0  0
   35.9740   29.4920   50.1150 C   0  0  1  0  0  0  0  0  0  0  0  0
   34.7040   31.0260   49.2980 H   0  0  0  0  0  0  0  0  0  0  0  0
   36.3880   30.8310   47.0900 H   0  0  0  0  0  0  0  0  0  0  0  0
   36.4650   32.0900   48.3380 H   0  0  0  0  0  0  0  0  0  0  0  0
   38.0320   29.4920   48.1740 H   0  0  0  0  0  0  0  0  0  0  0  0
   38.6340   31.1430   47.9960 H   0  0  0  0  0  0  0  0  0  0  0  0
   39.1710   30.2130   50.2360 H   0  0  0  0  0  0  0  0  0  0  0  0
   38.2880   31.7730   50.2110 H   0  0  0  0  0  0  0  0  0  0  0  0
   36.6360   30.9570   51.5360 H   0  0  0  0  0  0  0  0  0  0  0  0
   37.5220   29.3950   51.5480 H   0  0  0  0  0  0  0  0  0  0  0  0
   36.2470   28.4340   49.8560 H   0  0  0  0  0  0  0  0  0  0  0  0
   34.7120   29.3190   48.0800 C   0  0  0  0  0  0  0  0  0  0  0  0
   34.1550   29.8700   46.9030 C   0  0  0  0  0  0  0  0  0  0  0  0
   33.4620   29.0100   46.0630 C   0  0  0  0  0  0  0  0  0  0  0  0
   33.3470   27.6760   46.4020 N   0  0  0  0  0  0  0  0  0  0  0  0
   33.9050   27.1890   47.5540 C   0  0  0  0  0  0  0  0  0  0  0  0
   34.5710   28.0030   48.3670 N   0  0  0  0  0  0  0  0  0  0  0  0
   34.2010   30.8860   46.5810 H   0  0  0  0  0  0  0  0  0  0  0  0
   33.0130   29.3460   45.1560 H   0  0  0  0  0  0  0  0  0  0  0  0
   33.8020   26.1410   47.7990 H   0  0  0  0  0  0  0  0  0  0  0  0
   34.5880   29.3240   51.3100 S   0  0  0  0  0  0  0  0  0  0  0  0
   35.1610   29.4960   52.6040 H   0  0  0  0  0  0  0  0  0  0  0  0
  1  7  1  1  0  0  0
  1  6  1  0  0  0  0
  2  9  1  0  0  0  0
  2  3  1  0  0  0  0
  2  1  1  0  0  0  0
  3  4  1  0  0  0  0
  4 13  1  0  0  0  0
  4 12  1  0  0  0  0
  4  5  1  0  0  0  0
  5 14  1  0  0  0  0
  5 15  1  0  0  0  0
  6 16  1  6  0  0  0
  6  5  1  0  0  0  0
  6 26  1  0  0  0  0
  8  2  1  0  0  0  0
 10  3  1  0  0  0  0
 11  3  1  0  0  0  0
 17 22  1  0  0  0  0
 17  1  1  0  0  0  0
 18 17  2  0  0  0  0
 19 20  2  0  0  0  0
 19 18  1  0  0  0  0
 20 21  1  0  0  0  0
 21 25  1  0  0  0  0
 21 22  2  0  0  0  0
 23 18  1  0  0  0  0
 24 19  1  0  0  0  0
 26 27  1  0  0  0  0
M  END
>  <minimizedAffinity>
-3.93781972

>  <minimizedRMSD>
0.717975616

$$$$
