
 OpenBabel03262522543D

 21 22  0  0  0  0  0  0  0  0999 V2000
   38.2380   33.3560   49.4610 Cl  0  0  0  0  0  0  0  0  0  0  0  0
   38.6370   32.4360   48.0240 C   0  0  0  0  0  0  0  0  0  0  0  0
   38.2470   31.1070   47.9010 C   0  0  0  0  0  0  0  0  0  0  0  0
   38.6020   30.4670   46.7440 C   0  0  0  0  0  0  0  0  0  0  0  0
   39.3070   31.0700   45.7320 C   0  0  0  0  0  0  0  0  0  0  0  0
   39.6770   32.3990   45.8950 C   0  0  0  0  0  0  0  0  0  0  0  0
   40.5740   33.1660   44.6040 Cl  0  0  0  0  0  0  0  0  0  0  0  0
   39.3520   33.1010   47.0330 C   0  0  0  0  0  0  0  0  0  0  0  0
   38.2960   29.4290   46.6520 H   0  0  0  0  0  0  0  0  0  0  0  0
   39.5470   30.4870   44.8480 H   0  0  0  0  0  0  0  0  0  0  0  0
   39.6410   34.1450   47.1640 H   0  0  0  0  0  0  0  0  0  0  0  0
   37.3000   29.9590   51.3770 C   0  0  0  0  0  0  0  0  0  0  0  0
   38.0160   30.5190   50.3090 C   0  0  0  0  0  0  0  0  0  0  0  0
   37.5060   30.5280   49.0050 C   0  0  0  0  0  0  0  0  0  0  0  0
   36.2910   29.9670   48.8490 N   0  0  0  0  0  0  0  0  0  0  0  0
   35.6110   29.4330   49.8780 C   0  0  0  0  0  0  0  0  0  0  0  0
   36.1080   29.4290   51.1220 N   0  0  0  0  0  0  0  0  0  0  0  0
   37.8060   30.0200   52.3190 H   0  0  0  0  0  0  0  0  0  0  0  0
   39.0050   30.9740   50.4420 H   0  0  0  0  0  0  0  0  0  0  0  0
   33.9960   28.7130   49.5370 S   0  0  0  0  0  0  0  0  0  0  0  0
   34.1020   27.9320   48.3940 H   0  0  0  0  0  0  0  0  0  0  0  0
  2  1  1  0  0  0  0
  3  2  1  0  0  0  0
  3 14  1  0  0  0  0
  4  3  2  0  0  0  0
  5  6  2  0  0  0  0
  5  4  1  0  0  0  0
  6  8  1  0  0  0  0
  7  6  1  0  0  0  0
  8 11  1  0  0  0  0
  8  2  2  0  0  0  0
  9  4  1  0  0  0  0
 10  5  1  0  0  0  0
 12 18  1  0  0  0  0
 13 19  1  0  0  0  0
 13 12  2  0  0  0  0
 14 13  1  0  0  0  0
 15 14  2  0  0  0  0
 15 16  1  0  0  0  0
 16 17  2  0  0  0  0
 17 12  1  0  0  0  0
 20 16  1  0  0  0  0
 21 20  1  0  0  0  0
M  END
>  <minimizedAffinity>
-5.85805941

>  <minimizedRMSD>
0.599877179

$$$$
