
 OpenBabel03272510103D

 20 21  0  0  0  0  0  0  0  0999 V2000
   38.1160   25.4120   35.1580 C   0  0  0  0  0  0  0  0  0  0  0  0
   37.7970   26.7140   35.5220 C   0  0  0  0  0  0  0  0  0  0  0  0
   37.1650   27.6130   34.6970 C   0  0  0  0  0  0  0  0  0  0  0  0
   36.8150   27.2350   33.4260 C   0  0  0  0  0  0  0  0  0  0  0  0
   37.1380   25.9460   33.0790 C   0  0  0  0  0  0  0  0  0  0  0  0
   37.7550   25.0790   33.9020 N   0  0  0  0  0  0  0  0  0  0  0  0
   38.0830   26.9980   36.5390 H   0  0  0  0  0  0  0  0  0  0  0  0
   36.9620   28.6030   35.0780 H   0  0  0  0  0  0  0  0  0  0  0  0
   36.8760   25.6070   32.0770 H   0  0  0  0  0  0  0  0  0  0  0  0
   38.2660   24.1030   37.2900 C   0  0  0  0  0  0  0  0  0  0  0  0
   38.7800   24.4800   36.0390 C   0  0  0  0  0  0  0  0  0  0  0  0
   39.9830   23.9280   35.6350 C   0  0  0  0  0  0  0  0  0  0  0  0
   40.6150   23.0460   36.4640 N   0  0  0  0  0  0  0  0  0  0  0  0
   40.0910   22.7050   37.6630 C   0  0  0  0  0  0  0  0  0  0  0  0
   38.9170   23.2290   38.0850 N   0  0  0  0  0  0  0  0  0  0  0  0
   37.3200   24.5750   37.5410 H   0  0  0  0  0  0  0  0  0  0  0  0
   40.4830   24.1310   34.7050 H   0  0  0  0  0  0  0  0  0  0  0  0
   40.5680   22.0090   38.3430 H   0  0  0  0  0  0  0  0  0  0  0  0
   36.0000   28.3940   32.3580 S   0  0  0  0  0  0  0  0  0  0  0  0
   37.0120   29.1680   31.7490 H   0  0  0  0  0  0  0  0  0  0  0  0
  1  2  1  0  0  0  0
  1 11  1  0  0  0  0
  2  7  1  0  0  0  0
  3  8  1  0  0  0  0
  3  2  2  0  0  0  0
  4  3  1  0  0  0  0
  5  4  2  0  0  0  0
  5  6  1  0  0  0  0
  6  1  2  0  0  0  0
  9  5  1  0  0  0  0
 10 16  1  0  0  0  0
 10 15  1  0  0  0  0
 11 10  2  0  0  0  0
 12 11  1  0  0  0  0
 12 13  2  0  0  0  0
 13 14  1  0  0  0  0
 14 15  2  0  0  0  0
 14 18  1  0  0  0  0
 17 12  1  0  0  0  0
 19  4  1  0  0  0  0
 20 19  1  0  0  0  0
M  END
>  <minimizedAffinity>
-4.03147745

$$$$

 OpenBabel03272510103D

 20 21  0  0  0  0  0  0  0  0999 V2000
   38.3130   25.3720   35.2860 C   0  0  0  0  0  0  0  0  0  0  0  0
   38.0650   26.6660   35.7250 C   0  0  0  0  0  0  0  0  0  0  0  0
   37.4020   27.6170   34.9860 C   0  0  0  0  0  0  0  0  0  0  0  0
   36.9430   27.3020   33.7330 C   0  0  0  0  0  0  0  0  0  0  0  0
   37.1960   26.0200   33.3130 C   0  0  0  0  0  0  0  0  0  0  0  0
   37.8460   25.1010   34.0500 N   0  0  0  0  0  0  0  0  0  0  0  0
   38.4380   26.9000   36.7260 H   0  0  0  0  0  0  0  0  0  0  0  0
   37.2610   28.5960   35.4200 H   0  0  0  0  0  0  0  0  0  0  0  0
   36.8470   25.7290   32.3220 H   0  0  0  0  0  0  0  0  0  0  0  0
   40.2060   23.7720   35.6630 C   0  0  0  0  0  0  0  0  0  0  0  0
   39.0110   24.3840   36.0760 C   0  0  0  0  0  0  0  0  0  0  0  0
   38.4810   24.0200   37.3010 C   0  0  0  0  0  0  0  0  0  0  0  0
   39.1380   23.0870   38.0520 N   0  0  0  0  0  0  0  0  0  0  0  0
   40.2870   22.5170   37.6230 C   0  0  0  0  0  0  0  0  0  0  0  0
   40.8280   22.8530   36.4290 N   0  0  0  0  0  0  0  0  0  0  0  0
   40.5630   24.1070   34.6920 H   0  0  0  0  0  0  0  0  0  0  0  0
   37.5780   24.4110   37.7320 H   0  0  0  0  0  0  0  0  0  0  0  0
   40.8300   21.7750   38.1950 H   0  0  0  0  0  0  0  0  0  0  0  0
   36.0870   28.5280   32.7770 S   0  0  0  0  0  0  0  0  0  0  0  0
   37.0740   29.2950   32.1210 H   0  0  0  0  0  0  0  0  0  0  0  0
  1  2  1  0  0  0  0
  1 11  1  0  0  0  0
  2  7  1  0  0  0  0
  3  8  1  0  0  0  0
  3  2  2  0  0  0  0
  4  3  1  0  0  0  0
  5  4  2  0  0  0  0
  5  6  1  0  0  0  0
  6  1  2  0  0  0  0
  9  5  1  0  0  0  0
 10 11  2  0  0  0  0
 10 15  1  0  0  0  0
 11 12  1  0  0  0  0
 12 17  1  0  0  0  0
 12 13  2  0  0  0  0
 14 13  1  0  0  0  0
 14 18  1  0  0  0  0
 15 14  2  0  0  0  0
 16 10  1  0  0  0  0
 19  4  1  0  0  0  0
 20 19  1  0  0  0  0
M  END
>  <minimizedAffinity>
-4.00941467

$$$$

 OpenBabel03272510103D

 20 21  0  0  0  0  0  0  0  0999 V2000
   36.1970   22.8640   31.9690 C   0  0  0  0  0  0  0  0  0  0  0  0
   35.3990   23.7290   31.2320 C   0  0  0  0  0  0  0  0  0  0  0  0
   35.5700   25.0930   31.1940 C   0  0  0  0  0  0  0  0  0  0  0  0
   36.5830   25.6680   31.9180 C   0  0  0  0  0  0  0  0  0  0  0  0
   37.3620   24.8010   32.6420 C   0  0  0  0  0  0  0  0  0  0  0  0
   37.1800   23.4680   32.6670 N   0  0  0  0  0  0  0  0  0  0  0  0
   34.5970   23.2540   30.6610 H   0  0  0  0  0  0  0  0  0  0  0  0
   34.8930   25.6770   30.5880 H   0  0  0  0  0  0  0  0  0  0  0  0
   38.1780   25.2180   33.2320 H   0  0  0  0  0  0  0  0  0  0  0  0
   36.1580   20.6110   30.8690 C   0  0  0  0  0  0  0  0  0  0  0  0
   36.0020   21.4320   31.9980 C   0  0  0  0  0  0  0  0  0  0  0  0
   35.6450   20.8370   33.1940 C   0  0  0  0  0  0  0  0  0  0  0  0
   35.4600   19.4840   33.2260 N   0  0  0  0  0  0  0  0  0  0  0  0
   35.6180   18.7230   32.1200 C   0  0  0  0  0  0  0  0  0  0  0  0
   35.9670   19.2780   30.9360 N   0  0  0  0  0  0  0  0  0  0  0  0
   36.4390   21.1480   29.9660 H   0  0  0  0  0  0  0  0  0  0  0  0
   35.4950   21.3480   34.1270 H   0  0  0  0  0  0  0  0  0  0  0  0
   35.4790   17.6480   32.1130 H   0  0  0  0  0  0  0  0  0  0  0  0
   36.8060   27.4280   31.8710 S   0  0  0  0  0  0  0  0  0  0  0  0
   35.9300   27.9750   32.8350 H   0  0  0  0  0  0  0  0  0  0  0  0
  1 11  1  0  0  0  0
  1  6  1  0  0  0  0
  2  1  2  0  0  0  0
  3  2  1  0  0  0  0
  3  4  2  0  0  0  0
  4  5  1  0  0  0  0
  5  6  2  0  0  0  0
  5  9  1  0  0  0  0
  7  2  1  0  0  0  0
  8  3  1  0  0  0  0
 10 15  2  0  0  0  0
 10 11  1  0  0  0  0
 11 12  2  0  0  0  0
 12 13  1  0  0  0  0
 12 17  1  0  0  0  0
 14 13  2  0  0  0  0
 15 14  1  0  0  0  0
 16 10  1  0  0  0  0
 18 14  1  0  0  0  0
 19  4  1  0  0  0  0
 19 20  1  0  0  0  0
M  END
>  <minimizedAffinity>
-3.79228711

$$$$

 OpenBabel03272510103D

 20 21  0  0  0  0  0  0  0  0999 V2000
   35.5780   29.1730   34.0540 C   0  0  0  0  0  0  0  0  0  0  0  0
   36.5260   28.2300   34.4290 C   0  0  0  0  0  0  0  0  0  0  0  0
   36.9930   27.2350   33.6040 C   0  0  0  0  0  0  0  0  0  0  0  0
   36.5120   27.1380   32.3220 C   0  0  0  0  0  0  0  0  0  0  0  0
   35.5750   28.0760   31.9670 C   0  0  0  0  0  0  0  0  0  0  0  0
   35.1310   29.0440   32.7890 N   0  0  0  0  0  0  0  0  0  0  0  0
   36.8980   28.3230   35.4530 H   0  0  0  0  0  0  0  0  0  0  0  0
   37.7320   26.5510   33.9930 H   0  0  0  0  0  0  0  0  0  0  0  0
   35.1680   28.0330   30.9570 H   0  0  0  0  0  0  0  0  0  0  0  0
   35.9510   31.0650   35.6580 C   0  0  0  0  0  0  0  0  0  0  0  0
   35.0980   30.2130   34.9360 C   0  0  0  0  0  0  0  0  0  0  0  0
   33.7330   30.3820   35.0790 C   0  0  0  0  0  0  0  0  0  0  0  0
   33.2750   31.3640   35.9110 N   0  0  0  0  0  0  0  0  0  0  0  0
   34.1240   32.1660   36.5920 C   0  0  0  0  0  0  0  0  0  0  0  0
   35.4640   32.0230   36.4710 N   0  0  0  0  0  0  0  0  0  0  0  0
   37.0090   30.8740   35.4950 H   0  0  0  0  0  0  0  0  0  0  0  0
   32.9760   29.8000   34.5860 H   0  0  0  0  0  0  0  0  0  0  0  0
   33.7920   32.9530   37.2580 H   0  0  0  0  0  0  0  0  0  0  0  0
   37.1120   25.8540   31.2550 S   0  0  0  0  0  0  0  0  0  0  0  0
   36.3440   24.7020   31.5310 H   0  0  0  0  0  0  0  0  0  0  0  0
  1  2  1  0  0  0  0
  1 11  1  0  0  0  0
  2  7  1  0  0  0  0
  3  8  1  0  0  0  0
  3  2  2  0  0  0  0
  4  3  1  0  0  0  0
  5  4  2  0  0  0  0
  5  6  1  0  0  0  0
  6  1  2  0  0  0  0
  9  5  1  0  0  0  0
 10 15  1  0  0  0  0
 11 12  1  0  0  0  0
 11 10  2  0  0  0  0
 12 13  2  0  0  0  0
 13 14  1  0  0  0  0
 14 18  1  0  0  0  0
 15 14  2  0  0  0  0
 16 10  1  0  0  0  0
 17 12  1  0  0  0  0
 19 20  1  0  0  0  0
 19  4  1  0  0  0  0
M  END
>  <minimizedAffinity>
-3.65253067

$$$$

 OpenBabel03272510103D

 20 21  0  0  0  0  0  0  0  0999 V2000
   35.5540   29.1880   34.0560 C   0  0  0  0  0  0  0  0  0  0  0  0
   36.5090   28.2560   34.4420 C   0  0  0  0  0  0  0  0  0  0  0  0
   37.0030   27.2710   33.6190 C   0  0  0  0  0  0  0  0  0  0  0  0
   36.5450   27.1750   32.3300 C   0  0  0  0  0  0  0  0  0  0  0  0
   35.6020   28.1020   31.9630 C   0  0  0  0  0  0  0  0  0  0  0  0
   35.1300   29.0590   32.7820 N   0  0  0  0  0  0  0  0  0  0  0  0
   36.8620   28.3470   35.4730 H   0  0  0  0  0  0  0  0  0  0  0  0
   37.7440   26.5960   34.0180 H   0  0  0  0  0  0  0  0  0  0  0  0
   35.2120   28.0590   30.9460 H   0  0  0  0  0  0  0  0  0  0  0  0
   33.6760   30.4500   35.1360 C   0  0  0  0  0  0  0  0  0  0  0  0
   35.0460   30.2160   34.9350 C   0  0  0  0  0  0  0  0  0  0  0  0
   35.9500   31.0130   35.6130 C   0  0  0  0  0  0  0  0  0  0  0  0
   35.4750   31.9870   36.4450 N   0  0  0  0  0  0  0  0  0  0  0  0
   34.1480   32.1850   36.6150 C   0  0  0  0  0  0  0  0  0  0  0  0
   33.2410   31.4210   35.9640 N   0  0  0  0  0  0  0  0  0  0  0  0
   33.0260   29.7860   34.5710 H   0  0  0  0  0  0  0  0  0  0  0  0
   37.0200   30.9390   35.5490 H   0  0  0  0  0  0  0  0  0  0  0  0
   33.7400   32.9480   37.2670 H   0  0  0  0  0  0  0  0  0  0  0  0
   37.1810   25.9050   31.2660 S   0  0  0  0  0  0  0  0  0  0  0  0
   36.4240   24.7410   31.5230 H   0  0  0  0  0  0  0  0  0  0  0  0
  1  2  1  0  0  0  0
  1 11  1  0  0  0  0
  2  7  1  0  0  0  0
  3  8  1  0  0  0  0
  3  2  2  0  0  0  0
  4  3  1  0  0  0  0
  5  4  2  0  0  0  0
  5  6  1  0  0  0  0
  6  1  2  0  0  0  0
  9  5  1  0  0  0  0
 10 15  1  0  0  0  0
 11 10  2  0  0  0  0
 11 12  1  0  0  0  0
 12 13  2  0  0  0  0
 13 14  1  0  0  0  0
 14 18  1  0  0  0  0
 15 14  2  0  0  0  0
 16 10  1  0  0  0  0
 17 12  1  0  0  0  0
 19 20  1  0  0  0  0
 19  4  1  0  0  0  0
M  END
>  <minimizedAffinity>
-3.63846302

$$$$

 OpenBabel03272510103D

 20 21  0  0  0  0  0  0  0  0999 V2000
   35.6260   29.8040   34.0730 C   0  0  0  0  0  0  0  0  0  0  0  0
   35.7180   30.2140   32.7500 C   0  0  0  0  0  0  0  0  0  0  0  0
   36.3180   29.4800   31.7540 C   0  0  0  0  0  0  0  0  0  0  0  0
   36.8710   28.2600   32.0530 C   0  0  0  0  0  0  0  0  0  0  0  0
   36.7730   27.8690   33.3650 C   0  0  0  0  0  0  0  0  0  0  0  0
   36.1800   28.6010   34.3250 N   0  0  0  0  0  0  0  0  0  0  0  0
   35.2720   31.1880   32.5300 H   0  0  0  0  0  0  0  0  0  0  0  0
   36.3370   29.8910   30.7560 H   0  0  0  0  0  0  0  0  0  0  0  0
   37.2000   26.9060   33.6430 H   0  0  0  0  0  0  0  0  0  0  0  0
   35.6980   31.4430   35.9690 C   0  0  0  0  0  0  0  0  0  0  0  0
   34.9910   30.5890   35.1070 C   0  0  0  0  0  0  0  0  0  0  0  0
   33.6200   30.4970   35.2600 C   0  0  0  0  0  0  0  0  0  0  0  0
   33.0140   31.2370   36.2360 N   0  0  0  0  0  0  0  0  0  0  0  0
   33.7260   32.0500   37.0490 C   0  0  0  0  0  0  0  0  0  0  0  0
   35.0690   32.1590   36.9230 N   0  0  0  0  0  0  0  0  0  0  0  0
   36.7700   31.4640   35.7910 H   0  0  0  0  0  0  0  0  0  0  0  0
   32.9640   29.8830   34.6690 H   0  0  0  0  0  0  0  0  0  0  0  0
   33.2760   32.6490   37.8320 H   0  0  0  0  0  0  0  0  0  0  0  0
   37.6460   27.3110   30.7700 S   0  0  0  0  0  0  0  0  0  0  0  0
   38.9730   27.7820   30.6600 H   0  0  0  0  0  0  0  0  0  0  0  0
  1  6  1  0  0  0  0
  1 11  1  0  0  0  0
  2  1  2  0  0  0  0
  3  4  2  0  0  0  0
  3  2  1  0  0  0  0
  4  5  1  0  0  0  0
  5  9  1  0  0  0  0
  5  6  2  0  0  0  0
  7  2  1  0  0  0  0
  8  3  1  0  0  0  0
 10 15  1  0  0  0  0
 11 12  1  0  0  0  0
 11 10  2  0  0  0  0
 12 13  2  0  0  0  0
 13 14  1  0  0  0  0
 14 18  1  0  0  0  0
 15 14  2  0  0  0  0
 16 10  1  0  0  0  0
 17 12  1  0  0  0  0
 19  4  1  0  0  0  0
 20 19  1  0  0  0  0
M  END
>  <minimizedAffinity>
-3.6361053

$$$$

 OpenBabel03272510103D

 20 21  0  0  0  0  0  0  0  0999 V2000
   38.1270   25.3570   34.9450 C   0  0  0  0  0  0  0  0  0  0  0  0
   39.2720   24.7320   34.4700 C   0  0  0  0  0  0  0  0  0  0  0  0
   39.9980   23.8070   35.1820 C   0  0  0  0  0  0  0  0  0  0  0  0
   39.5930   23.4550   36.4450 C   0  0  0  0  0  0  0  0  0  0  0  0
   38.4600   24.0820   36.9010 C   0  0  0  0  0  0  0  0  0  0  0  0
   37.7620   24.9850   36.1890 N   0  0  0  0  0  0  0  0  0  0  0  0
   39.5810   25.0240   33.4630 H   0  0  0  0  0  0  0  0  0  0  0  0
   40.8760   23.3790   34.7210 H   0  0  0  0  0  0  0  0  0  0  0  0
   38.1040   23.8300   37.9000 H   0  0  0  0  0  0  0  0  0  0  0  0
   36.9710   27.5690   34.7010 C   0  0  0  0  0  0  0  0  0  0  0  0
   37.3760   26.3280   34.1830 C   0  0  0  0  0  0  0  0  0  0  0  0
   37.0360   26.0250   32.8770 C   0  0  0  0  0  0  0  0  0  0  0  0
   36.3260   26.9390   32.1510 N   0  0  0  0  0  0  0  0  0  0  0  0
   35.9520   28.1250   32.6830 C   0  0  0  0  0  0  0  0  0  0  0  0
   36.2710   28.4480   33.9570 N   0  0  0  0  0  0  0  0  0  0  0  0
   37.2730   27.7380   35.7320 H   0  0  0  0  0  0  0  0  0  0  0  0
   37.2830   25.1140   32.3610 H   0  0  0  0  0  0  0  0  0  0  0  0
   35.3890   28.8700   32.1330 H   0  0  0  0  0  0  0  0  0  0  0  0
   40.5280   22.2610   37.3660 S   0  0  0  0  0  0  0  0  0  0  0  0
   41.5760   22.9650   37.9990 H   0  0  0  0  0  0  0  0  0  0  0  0
  1  6  1  0  0  0  0
  2  1  2  0  0  0  0
  2  3  1  0  0  0  0
  3  4  2  0  0  0  0
  4  5  1  0  0  0  0
  4 19  1  0  0  0  0
  5  9  1  0  0  0  0
  6  5  2  0  0  0  0
  7  2  1  0  0  0  0
  8  3  1  0  0  0  0
 10 16  1  0  0  0  0
 11 10  1  0  0  0  0
 11  1  1  0  0  0  0
 12 11  2  0  0  0  0
 13 14  2  0  0  0  0
 13 12  1  0  0  0  0
 14 15  1  0  0  0  0
 15 10  2  0  0  0  0
 17 12  1  0  0  0  0
 18 14  1  0  0  0  0
 19 20  1  0  0  0  0
M  END
>  <minimizedAffinity>
-3.62426639

$$$$

 OpenBabel03272510103D

 20 21  0  0  0  0  0  0  0  0999 V2000
   36.0890   23.5550   31.6670 C   0  0  0  0  0  0  0  0  0  0  0  0
   37.0540   24.2410   32.3930 C   0  0  0  0  0  0  0  0  0  0  0  0
   37.1540   25.6110   32.4420 C   0  0  0  0  0  0  0  0  0  0  0  0
   36.2600   26.3800   31.7410 C   0  0  0  0  0  0  0  0  0  0  0  0
   35.3130   25.6880   31.0280 C   0  0  0  0  0  0  0  0  0  0  0  0
   35.2300   24.3450   30.9920 N   0  0  0  0  0  0  0  0  0  0  0  0
   37.7580   23.6120   32.9450 H   0  0  0  0  0  0  0  0  0  0  0  0
   37.9420   26.0450   33.0370 H   0  0  0  0  0  0  0  0  0  0  0  0
   34.5830   26.2620   30.4570 H   0  0  0  0  0  0  0  0  0  0  0  0
   34.9850   21.3860   32.2720 C   0  0  0  0  0  0  0  0  0  0  0  0
   35.9990   22.1130   31.6270 C   0  0  0  0  0  0  0  0  0  0  0  0
   36.9570   21.4090   30.9200 C   0  0  0  0  0  0  0  0  0  0  0  0
   36.8770   20.0460   30.8780 N   0  0  0  0  0  0  0  0  0  0  0  0
   35.8860   19.3780   31.5120 C   0  0  0  0  0  0  0  0  0  0  0  0
   34.9360   20.0400   32.2110 N   0  0  0  0  0  0  0  0  0  0  0  0
   34.2690   22.0050   32.8070 H   0  0  0  0  0  0  0  0  0  0  0  0
   37.7820   21.8420   30.3840 H   0  0  0  0  0  0  0  0  0  0  0  0
   35.7950   18.2980   31.4980 H   0  0  0  0  0  0  0  0  0  0  0  0
   36.3860   28.1480   31.8020 S   0  0  0  0  0  0  0  0  0  0  0  0
   37.3340   28.5230   30.8240 H   0  0  0  0  0  0  0  0  0  0  0  0
  1  2  1  0  0  0  0
  2  3  2  0  0  0  0
  2  7  1  0  0  0  0
  3  8  1  0  0  0  0
  4 19  1  0  0  0  0
  4  3  1  0  0  0  0
  5  4  2  0  0  0  0
  6  5  1  0  0  0  0
  6  1  2  0  0  0  0
  9  5  1  0  0  0  0
 10 16  1  0  0  0  0
 11  1  1  0  0  0  0
 11 10  2  0  0  0  0
 12 11  1  0  0  0  0
 13 12  2  0  0  0  0
 13 14  1  0  0  0  0
 14 15  2  0  0  0  0
 15 10  1  0  0  0  0
 17 12  1  0  0  0  0
 18 14  1  0  0  0  0
 20 19  1  0  0  0  0
M  END
>  <minimizedAffinity>
-3.61682558

$$$$

 OpenBabel03272510103D

 20 21  0  0  0  0  0  0  0  0999 V2000
   35.1610   30.1280   34.7560 C   0  0  0  0  0  0  0  0  0  0  0  0
   33.8220   30.4670   34.9010 C   0  0  0  0  0  0  0  0  0  0  0  0
   33.3670   31.4860   35.7030 C   0  0  0  0  0  0  0  0  0  0  0  0
   34.2650   32.2370   36.4180 C   0  0  0  0  0  0  0  0  0  0  0  0
   35.5840   31.8900   36.2650 C   0  0  0  0  0  0  0  0  0  0  0  0
   36.0110   30.8890   35.4750 N   0  0  0  0  0  0  0  0  0  0  0  0
   33.1200   29.8580   34.3240 H   0  0  0  0  0  0  0  0  0  0  0  0
   32.3030   31.6680   35.7460 H   0  0  0  0  0  0  0  0  0  0  0  0
   36.3300   32.4620   36.8170 H   0  0  0  0  0  0  0  0  0  0  0  0
   35.1920   28.8780   32.5830 C   0  0  0  0  0  0  0  0  0  0  0  0
   35.6220   29.0520   33.9080 C   0  0  0  0  0  0  0  0  0  0  0  0
   36.5310   28.1470   34.4230 C   0  0  0  0  0  0  0  0  0  0  0  0
   36.9700   27.1280   33.6270 N   0  0  0  0  0  0  0  0  0  0  0  0
   36.5350   26.9890   32.3540 C   0  0  0  0  0  0  0  0  0  0  0  0
   35.6450   27.8600   31.8240 N   0  0  0  0  0  0  0  0  0  0  0  0
   34.4780   29.6260   32.2460 H   0  0  0  0  0  0  0  0  0  0  0  0
   36.9390   28.1670   35.4180 H   0  0  0  0  0  0  0  0  0  0  0  0
   36.8640   26.1920   31.6980 H   0  0  0  0  0  0  0  0  0  0  0  0
   33.6800   33.5540   37.4540 S   0  0  0  0  0  0  0  0  0  0  0  0
   33.3230   32.9720   38.6900 H   0  0  0  0  0  0  0  0  0  0  0  0
  1  2  2  0  0  0  0
  1  6  1  0  0  0  0
  2  3  1  0  0  0  0
  3  8  1  0  0  0  0
  3  4  2  0  0  0  0
  4 19  1  0  0  0  0
  5  4  1  0  0  0  0
  5  9  1  0  0  0  0
  6  5  2  0  0  0  0
  7  2  1  0  0  0  0
 10 11  1  0  0  0  0
 11 12  2  0  0  0  0
 11  1  1  0  0  0  0
 12 17  1  0  0  0  0
 13 12  1  0  0  0  0
 14 13  2  0  0  0  0
 15 14  1  0  0  0  0
 15 10  2  0  0  0  0
 16 10  1  0  0  0  0
 18 14  1  0  0  0  0
 19 20  1  0  0  0  0
M  END
>  <minimizedAffinity>
-3.61241388

$$$$
