
 OpenBabel03272509573D

 39 41  0  0  0  0  0  0  0  0999 V2000
   35.0020   28.3540   49.4530 O   0  0  0  0  0  0  0  0  0  0  0  0
   37.3460   30.1870   51.5110 C   0  0  0  0  0  0  0  0  0  0  0  0
   38.0710   30.8680   50.5170 C   0  0  0  0  0  0  0  0  0  0  0  0
   37.7120   30.6560   49.1930 C   0  0  0  0  0  0  0  0  0  0  0  0
   36.6680   29.7900   48.9830 N   0  0  0  0  0  0  0  0  0  0  0  0
   35.9920   29.1560   49.9300 C   0  0  0  0  0  0  0  0  0  0  0  0
   36.3430   29.3620   51.2280 N   0  0  0  0  0  0  0  0  0  0  0  0
   37.6600   30.3810   52.5380 H   0  0  0  0  0  0  0  0  0  0  0  0
   38.8900   31.5450   50.7010 H   0  0  0  0  0  0  0  0  0  0  0  0
   38.9420   33.2700   49.0040 F   0  0  0  0  0  0  0  0  0  0  0  0
   38.9170   32.4770   47.9390 C   0  0  0  0  0  0  0  0  0  0  0  0
   38.3400   31.2640   48.0490 C   0  0  0  0  0  0  0  0  0  0  0  0
   38.3740   30.5230   46.8700 C   0  0  0  0  0  0  0  0  0  0  0  0
   38.9370   30.9800   45.7150 C   0  0  0  0  0  0  0  0  0  0  0  0
   39.5150   32.2260   45.6540 C   0  0  0  0  0  0  0  0  0  0  0  0
   39.4980   32.9720   46.7850 C   0  0  0  0  0  0  0  0  0  0  0  0
   37.9440   29.5130   46.7990 H   0  0  0  0  0  0  0  0  0  0  0  0
   38.9520   30.3800   44.7990 H   0  0  0  0  0  0  0  0  0  0  0  0
   39.9550   32.5680   44.7270 H   0  0  0  0  0  0  0  0  0  0  0  0
   39.9480   33.9640   46.7660 H   0  0  0  0  0  0  0  0  0  0  0  0
   34.4560   28.6400   48.1770 C   0  0  0  0  0  0  0  0  0  0  0  0
   33.8860   29.6070   48.3010 H   0  0  0  0  0  0  0  0  0  0  0  0
   35.2550   28.8240   47.4310 H   0  0  0  0  0  0  0  0  0  0  0  0
   33.5790   27.5230   47.7070 C   0  0  0  0  0  0  0  0  0  0  0  0
   33.7610   26.6460   48.3300 H   0  0  0  0  0  0  0  0  0  0  0  0
   33.8770   27.2070   46.6650 H   0  0  0  0  0  0  0  0  0  0  0  0
   32.1360   27.8730   47.7370 C   0  0  0  0  0  0  0  0  0  0  0  0
   31.3770   27.4210   48.8060 C   0  0  0  0  0  0  0  0  0  0  0  0
   30.0430   27.6980   48.9090 C   0  0  0  0  0  0  0  0  0  0  0  0
   29.4490   28.4240   47.9600 N   0  0  0  0  0  0  0  0  0  0  0  0
   30.2000   28.8680   46.9100 C   0  0  0  0  0  0  0  0  0  0  0  0
   31.5110   28.6070   46.7880 N   0  0  0  0  0  0  0  0  0  0  0  0
   31.7820   26.8260   49.6170 H   0  0  0  0  0  0  0  0  0  0  0  0
   29.4070   27.3720   49.7160 H   0  0  0  0  0  0  0  0  0  0  0  0
   29.5040   29.6780   45.8660 C   0  0  0  0  0  0  0  0  0  0  0  0
   28.6330   30.2130   46.3340 H   0  0  0  0  0  0  0  0  0  0  0  0
   30.1460   30.3850   45.3430 H   0  0  0  0  0  0  0  0  0  0  0  0
   28.7320   28.5270   44.6660 S   0  0  0  0  0  0  0  0  0  0  0  0
   28.5570   27.2600   45.2510 H   0  0  0  0  0  0  0  0  0  0  0  0
  1  6  1  0  0  0  0
  2  8  1  0  0  0  0
  3  9  1  0  0  0  0
  3  2  2  0  0  0  0
  4  3  1  0  0  0  0
  5  4  2  0  0  0  0
  5  6  1  0  0  0  0
  6  7  2  0  0  0  0
  7  2  1  0  0  0  0
 11 12  1  0  0  0  0
 11 10  1  0  0  0  0
 12  4  1  0  0  0  0
 13 12  2  0  0  0  0
 14 13  1  0  0  0  0
 15 14  2  0  0  0  0
 15 16  1  0  0  0  0
 16 11  2  0  0  0  0
 17 13  1  0  0  0  0
 18 14  1  0  0  0  0
 19 15  1  0  0  0  0
 20 16  1  0  0  0  0
 21 22  1  0  0  0  0
 21  1  1  0  0  0  0
 23 21  1  0  0  0  0
 24 27  1  0  0  0  0
 24 21  1  0  0  0  0
 24 25  1  0  0  0  0
 26 24  1  0  0  0  0
 27 28  1  0  0  0  0
 28 29  2  0  0  0  0
 28 33  1  0  0  0  0
 29 34  1  0  0  0  0
 30 29  1  0  0  0  0
 31 30  2  0  0  0  0
 32 31  1  0  0  0  0
 32 27  2  0  0  0  0
 35 36  1  0  0  0  0
 35 31  1  0  0  0  0
 37 35  1  0  0  0  0
 38 39  1  0  0  0  0
 38 35  1  0  0  0  0
M  END
>  <minimizedAffinity>
-6.17440939

>  <minimizedRMSD>
0.0410026684

$$$$
