
 OpenBabel03272505033D

 26 28  0  0  0  0  0  0  0  0999 V2000
   38.5280   23.0400   32.9800 Cl  0  0  0  0  0  0  0  0  0  0  0  0
   37.2100   23.8530   32.1760 C   0  0  0  0  0  0  0  0  0  0  0  0
   36.1290   23.1200   31.7690 C   0  0  0  0  0  0  0  0  0  0  0  0
   35.1130   23.8220   31.1350 C   0  0  0  0  0  0  0  0  0  0  0  0
   35.2290   25.1920   30.9470 C   0  0  0  0  0  0  0  0  0  0  0  0
   36.3370   25.8820   31.3760 C   0  0  0  0  0  0  0  0  0  0  0  0
   37.3490   25.1930   32.0050 C   0  0  0  0  0  0  0  0  0  0  0  0
   34.2570   23.2400   30.8130 H   0  0  0  0  0  0  0  0  0  0  0  0
   34.3730   25.6180   30.4440 H   0  0  0  0  0  0  0  0  0  0  0  0
   36.2810   26.9220   31.1610 H   0  0  0  0  0  0  0  0  0  0  0  0
   35.6050   21.1340   33.2030 C   0  0  0  0  0  0  0  0  0  0  0  0
   35.9960   21.6720   31.9660 C   0  0  0  0  0  0  0  0  0  0  0  0
   36.2530   20.7850   30.9390 C   0  0  0  0  0  0  0  0  0  0  0  0
   36.1120   19.4580   31.1820 N   0  0  0  0  0  0  0  0  0  0  0  0
   35.7400   18.9760   32.3620 C   0  0  0  0  0  0  0  0  0  0  0  0
   35.4830   19.8050   33.3810 N   0  0  0  0  0  0  0  0  0  0  0  0
   35.3990   21.8010   34.0170 H   0  0  0  0  0  0  0  0  0  0  0  0
   36.5540   21.2150   29.9930 H   0  0  0  0  0  0  0  0  0  0  0  0
   35.6810   17.8940   32.3720 H   0  0  0  0  0  0  0  0  0  0  0  0
   38.4480   25.9070   32.4270 O   0  0  0  0  0  0  0  0  0  0  0  0
   38.4890   27.1270   33.0750 C   0  0  0  0  0  3  0  0  0  0  0  0
   39.7740   27.1450   33.9060 C   0  0  0  0  0  2  0  0  0  0  0  0
   39.6460   26.1400   35.0340 C   0  0  0  0  0  2  0  0  0  0  0  0
   38.6540   26.6030   36.0790 C   0  0  0  0  0  2  0  0  0  0  0  0
   37.7760   27.6550   35.4290 C   0  0  0  0  0  2  0  0  0  0  0  0
   37.3340   27.1320   34.0820 C   0  0  0  0  0  2  0  0  0  0  0  0
  2  1  1  0  0  0  0
  3 12  1  0  0  0  0
  3  2  2  0  0  0  0
  4  3  1  0  0  0  0
  5  4  2  0  0  0  0
  5  6  1  0  0  0  0
  6  7  2  0  0  0  0
  7  2  1  0  0  0  0
  7 20  1  0  0  0  0
  8  4  1  0  0  0  0
  9  5  1  0  0  0  0
 10  6  1  0  0  0  0
 11 16  1  0  0  0  0
 11 17  1  0  0  0  0
 12 11  2  0  0  0  0
 13 14  2  0  0  0  0
 13 12  1  0  0  0  0
 14 15  1  0  0  0  0
 15 19  1  0  0  0  0
 15 16  2  0  0  0  0
 18 13  1  0  0  0  0
 20 21  1  0  0  0  0
 21 22  1  0  0  0  0
 21 26  1  0  0  0  0
 22 23  1  0  0  0  0
 23 24  1  0  0  0  0
 25 24  1  0  0  0  0
 26 25  1  0  0  0  0
M  END
>  <minimizedAffinity>
-5.36365318

$$$$

 OpenBabel03272505033D

 26 28  0  0  0  0  0  0  0  0999 V2000
   38.2560   27.0930   36.0280 Cl  0  0  0  0  0  0  0  0  0  0  0  0
   37.8170   26.1650   34.6180 C   0  0  0  0  0  0  0  0  0  0  0  0
   38.1380   24.8360   34.5740 C   0  0  0  0  0  0  0  0  0  0  0  0
   37.7640   24.1500   33.4270 C   0  0  0  0  0  0  0  0  0  0  0  0
   37.1010   24.8160   32.4050 C   0  0  0  0  0  0  0  0  0  0  0  0
   36.8010   26.1530   32.5000 C   0  0  0  0  0  0  0  0  0  0  0  0
   37.1690   26.8410   33.6350 C   0  0  0  0  0  0  0  0  0  0  0  0
   38.0200   23.0970   33.3920 H   0  0  0  0  0  0  0  0  0  0  0  0
   36.8650   24.1720   31.5710 H   0  0  0  0  0  0  0  0  0  0  0  0
   36.2920   26.5210   31.6420 H   0  0  0  0  0  0  0  0  0  0  0  0
   38.1830   23.7700   36.8400 C   0  0  0  0  0  0  0  0  0  0  0  0
   38.8370   24.1230   35.6490 C   0  0  0  0  0  0  0  0  0  0  0  0
   40.1680   23.7730   35.5260 C   0  0  0  0  0  0  0  0  0  0  0  0
   40.7590   23.1140   36.5550 N   0  0  0  0  0  0  0  0  0  0  0  0
   40.1160   22.7930   37.6710 C   0  0  0  0  0  0  0  0  0  0  0  0
   38.8270   23.1150   37.8250 N   0  0  0  0  0  0  0  0  0  0  0  0
   37.1500   24.0300   36.9600 H   0  0  0  0  0  0  0  0  0  0  0  0
   40.6580   24.0520   34.6030 H   0  0  0  0  0  0  0  0  0  0  0  0
   40.7460   22.2700   38.3810 H   0  0  0  0  0  0  0  0  0  0  0  0
   36.8550   28.1790   33.7060 O   0  0  0  0  0  0  0  0  0  0  0  0
   35.6340   28.7670   33.9740 C   0  0  0  0  0  3  0  0  0  0  0  0
   35.0920   29.2920   32.6420 C   0  0  0  0  0  2  0  0  0  0  0  0
   35.9570   30.4470   32.1780 C   0  0  0  0  0  2  0  0  0  0  0  0
   35.7540   31.6730   33.0420 C   0  0  0  0  0  2  0  0  0  0  0  0
   35.1380   31.2050   34.3470 C   0  0  0  0  0  2  0  0  0  0  0  0
   35.9180   30.0050   34.8310 C   0  0  0  0  0  2  0  0  0  0  0  0
  2  1  1  0  0  0  0
  3  2  1  0  0  0  0
  3 12  1  0  0  0  0
  4  3  2  0  0  0  0
  5  6  2  0  0  0  0
  5  4  1  0  0  0  0
  6  7  1  0  0  0  0
  7 20  1  0  0  0  0
  7  2  2  0  0  0  0
  8  4  1  0  0  0  0
  9  5  1  0  0  0  0
 10  6  1  0  0  0  0
 11 17  1  0  0  0  0
 11 16  1  0  0  0  0
 12 11  2  0  0  0  0
 13 12  1  0  0  0  0
 13 14  2  0  0  0  0
 14 15  1  0  0  0  0
 15 16  2  0  0  0  0
 15 19  1  0  0  0  0
 18 13  1  0  0  0  0
 20 21  1  0  0  0  0
 21 26  1  0  0  0  0
 22 21  1  0  0  0  0
 23 22  1  0  0  0  0
 23 24  1  0  0  0  0
 24 25  1  0  0  0  0
 25 26  1  0  0  0  0
M  END
>  <minimizedAffinity>
-5.05850697

$$$$

 OpenBabel03272505033D

 26 28  0  0  0  0  0  0  0  0999 V2000
   37.9460   27.2900   34.4910 Cl  0  0  0  0  0  0  0  0  0  0  0  0
   37.5270   26.0160   33.3760 C   0  0  0  0  0  0  0  0  0  0  0  0
   36.9170   26.3430   32.1960 C   0  0  0  0  0  0  0  0  0  0  0  0
   36.6070   25.2870   31.3500 C   0  0  0  0  0  0  0  0  0  0  0  0
   36.9190   23.9860   31.7200 C   0  0  0  0  0  0  0  0  0  0  0  0
   37.5330   23.7120   32.9180 C   0  0  0  0  0  0  0  0  0  0  0  0
   37.8430   24.7530   33.7630 C   0  0  0  0  0  0  0  0  0  0  0  0
   36.1230   25.5470   30.4160 H   0  0  0  0  0  0  0  0  0  0  0  0
   36.6270   23.2590   30.9770 H   0  0  0  0  0  0  0  0  0  0  0  0
   37.7070   22.6720   33.0610 H   0  0  0  0  0  0  0  0  0  0  0  0
   37.4610   28.4790   31.0070 C   0  0  0  0  0  0  0  0  0  0  0  0
   36.5860   27.7150   31.7940 C   0  0  0  0  0  0  0  0  0  0  0  0
   35.3960   28.3040   32.1790 C   0  0  0  0  0  0  0  0  0  0  0  0
   35.1470   29.5750   31.7750 N   0  0  0  0  0  0  0  0  0  0  0  0
   35.9940   30.2750   31.0300 C   0  0  0  0  0  0  0  0  0  0  0  0
   37.1550   29.7380   30.6390 N   0  0  0  0  0  0  0  0  0  0  0  0
   38.3910   28.0450   30.6950 H   0  0  0  0  0  0  0  0  0  0  0  0
   34.7330   27.7020   32.7850 H   0  0  0  0  0  0  0  0  0  0  0  0
   35.6280   31.2700   30.8050 H   0  0  0  0  0  0  0  0  0  0  0  0
   38.4600   24.4520   34.9560 O   0  0  0  0  0  0  0  0  0  0  0  0
   38.7750   23.2120   35.4780 C   0  0  0  0  0  3  0  0  0  0  0  0
   37.6650   22.8530   36.4690 C   0  0  0  0  0  2  0  0  0  0  0  0
   37.7510   23.7820   37.6640 C   0  0  0  0  0  2  0  0  0  0  0  0
   38.9650   23.4790   38.5150 C   0  0  0  0  0  2  0  0  0  0  0  0
   39.9340   22.6950   37.6500 C   0  0  0  0  0  2  0  0  0  0  0  0
   40.0450   23.3940   36.3150 C   0  0  0  0  0  2  0  0  0  0  0  0
  2  7  1  0  0  0  0
  2  1  1  0  0  0  0
  3  2  2  0  0  0  0
  4  5  2  0  0  0  0
  4  3  1  0  0  0  0
  5  6  1  0  0  0  0
  6 10  1  0  0  0  0
  6  7  2  0  0  0  0
  7 20  1  0  0  0  0
  8  4  1  0  0  0  0
  9  5  1  0  0  0  0
 11 12  1  0  0  0  0
 12 13  2  0  0  0  0
 12  3  1  0  0  0  0
 13 18  1  0  0  0  0
 14 13  1  0  0  0  0
 15 14  2  0  0  0  0
 16 11  2  0  0  0  0
 16 15  1  0  0  0  0
 17 11  1  0  0  0  0
 19 15  1  0  0  0  0
 20 21  1  0  0  0  0
 21 26  1  0  0  0  0
 21 22  1  0  0  0  0
 22 23  1  0  0  0  0
 23 24  1  0  0  0  0
 25 24  1  0  0  0  0
 26 25  1  0  0  0  0
M  END
>  <minimizedAffinity>
-5.05440617

$$$$

 OpenBabel03272505033D

 26 28  0  0  0  0  0  0  0  0999 V2000
   37.7030   27.8380   35.6190 Cl  0  0  0  0  0  0  0  0  0  0  0  0
   37.4110   27.7520   33.9010 C   0  0  0  0  0  0  0  0  0  0  0  0
   38.3340   27.1340   33.1030 C   0  0  0  0  0  0  0  0  0  0  0  0
   38.0480   27.0970   31.7450 C   0  0  0  0  0  0  0  0  0  0  0  0
   36.8770   27.6690   31.2670 C   0  0  0  0  0  0  0  0  0  0  0  0
   35.9820   28.2790   32.1130 C   0  0  0  0  0  0  0  0  0  0  0  0
   36.2590   28.3190   33.4610 C   0  0  0  0  0  0  0  0  0  0  0  0
   38.7800   26.6080   31.1130 H   0  0  0  0  0  0  0  0  0  0  0  0
   36.7720   27.5740   30.1960 H   0  0  0  0  0  0  0  0  0  0  0  0
   35.1340   28.6690   31.6020 H   0  0  0  0  0  0  0  0  0  0  0  0
   40.7740   27.2500   33.6580 C   0  0  0  0  0  0  0  0  0  0  0  0
   39.5730   26.5240   33.5990 C   0  0  0  0  0  0  0  0  0  0  0  0
   39.6010   25.2110   34.0260 C   0  0  0  0  0  0  0  0  0  0  0  0
   40.7780   24.7040   34.4740 N   0  0  0  0  0  0  0  0  0  0  0  0
   41.8990   25.4130   34.5190 C   0  0  0  0  0  0  0  0  0  0  0  0
   41.9100   26.6880   34.1130 N   0  0  0  0  0  0  0  0  0  0  0  0
   40.7790   28.2710   33.3320 H   0  0  0  0  0  0  0  0  0  0  0  0
   38.6690   24.6650   33.9750 H   0  0  0  0  0  0  0  0  0  0  0  0
   42.7380   24.8450   34.9040 H   0  0  0  0  0  0  0  0  0  0  0  0
   35.3450   28.9330   34.2880 O   0  0  0  0  0  0  0  0  0  0  0  0
   34.6550   30.1130   34.0880 C   0  0  0  0  0  3  0  0  0  0  0  0
   35.6520   31.2540   34.3070 C   0  0  0  0  0  2  0  0  0  0  0  0
   36.0330   31.3000   35.7730 C   0  0  0  0  0  2  0  0  0  0  0  0
   34.8860   31.7910   36.6290 C   0  0  0  0  0  2  0  0  0  0  0  0
   33.6150   31.6120   35.8210 C   0  0  0  0  0  2  0  0  0  0  0  0
   33.6310   30.2240   35.2220 C   0  0  0  0  0  2  0  0  0  0  0  0
  2  1  1  0  0  0  0
  3 12  1  0  0  0  0
  3  2  2  0  0  0  0
  4  3  1  0  0  0  0
  5  4  2  0  0  0  0
  5  6  1  0  0  0  0
  6  7  2  0  0  0  0
  7  2  1  0  0  0  0
  7 20  1  0  0  0  0
  8  4  1  0  0  0  0
  9  5  1  0  0  0  0
 10  6  1  0  0  0  0
 11 16  1  0  0  0  0
 12 11  2  0  0  0  0
 12 13  1  0  0  0  0
 13 14  2  0  0  0  0
 14 15  1  0  0  0  0
 15 19  1  0  0  0  0
 16 15  2  0  0  0  0
 17 11  1  0  0  0  0
 18 13  1  0  0  0  0
 21 20  1  0  0  0  0
 21 22  1  0  0  0  0
 21 26  1  0  0  0  0
 22 23  1  0  0  0  0
 23 24  1  0  0  0  0
 25 24  1  0  0  0  0
 26 25  1  0  0  0  0
M  END
>  <minimizedAffinity>
-4.93052721

$$$$

 OpenBabel03272505033D

 26 28  0  0  0  0  0  0  0  0999 V2000
   36.5350   27.9100   34.9210 Cl  0  0  0  0  0  0  0  0  0  0  0  0
   36.2140   28.7230   33.4110 C   0  0  0  0  0  0  0  0  0  0  0  0
   35.5440   29.9150   33.4290 C   0  0  0  0  0  0  0  0  0  0  0  0
   35.3180   30.5140   32.1980 C   0  0  0  0  0  0  0  0  0  0  0  0
   35.7650   29.9010   31.0350 C   0  0  0  0  0  0  0  0  0  0  0  0
   36.4340   28.7020   31.0720 C   0  0  0  0  0  0  0  0  0  0  0  0
   36.6620   28.1010   32.2890 C   0  0  0  0  0  0  0  0  0  0  0  0
   34.7860   31.4580   32.2140 H   0  0  0  0  0  0  0  0  0  0  0  0
   35.5270   30.4670   30.1470 H   0  0  0  0  0  0  0  0  0  0  0  0
   36.7130   28.3590   30.1040 H   0  0  0  0  0  0  0  0  0  0  0  0
   33.7460   30.4260   35.0970 C   0  0  0  0  0  0  0  0  0  0  0  0
   35.0690   30.5730   34.6530 C   0  0  0  0  0  0  0  0  0  0  0  0
   35.9120   31.3610   35.4120 C   0  0  0  0  0  0  0  0  0  0  0  0
   35.4150   31.9420   36.5340 N   0  0  0  0  0  0  0  0  0  0  0  0
   34.1570   31.7860   36.9300 C   0  0  0  0  0  0  0  0  0  0  0  0
   33.3130   31.0300   36.2200 N   0  0  0  0  0  0  0  0  0  0  0  0
   33.0720   29.8190   34.5250 H   0  0  0  0  0  0  0  0  0  0  0  0
   36.9280   31.4640   35.0570 H   0  0  0  0  0  0  0  0  0  0  0  0
   33.9380   32.3230   37.8450 H   0  0  0  0  0  0  0  0  0  0  0  0
   37.3370   26.9020   32.2990 O   0  0  0  0  0  0  0  0  0  0  0  0
   36.8520   25.6390   32.5780 C   0  0  0  0  0  3  0  0  0  0  0  0
   38.0650   24.7180   32.7250 C   0  0  0  0  0  2  0  0  0  0  0  0
   38.7310   24.5600   31.3720 C   0  0  0  0  0  2  0  0  0  0  0  0
   37.8870   23.7270   30.4330 C   0  0  0  0  0  2  0  0  0  0  0  0
   36.4700   23.7370   30.9750 C   0  0  0  0  0  2  0  0  0  0  0  0
   36.1110   25.1630   31.3240 C   0  0  0  0  0  2  0  0  0  0  0  0
  2  3  1  0  0  0  0
  2  1  1  0  0  0  0
  3 12  1  0  0  0  0
  4  8  1  0  0  0  0
  4  3  2  0  0  0  0
  5  6  2  0  0  0  0
  5  4  1  0  0  0  0
  6  7  1  0  0  0  0
  7 20  1  0  0  0  0
  7  2  2  0  0  0  0
  9  5  1  0  0  0  0
 10  6  1  0  0  0  0
 11 16  1  0  0  0  0
 12 11  2  0  0  0  0
 12 13  1  0  0  0  0
 13 14  2  0  0  0  0
 14 15  1  0  0  0  0
 15 19  1  0  0  0  0
 16 15  2  0  0  0  0
 17 11  1  0  0  0  0
 18 13  1  0  0  0  0
 20 21  1  0  0  0  0
 21 22  1  0  0  0  0
 23 22  1  0  0  0  0
 24 25  1  0  0  0  0
 24 23  1  0  0  0  0
 25 26  1  0  0  0  0
 26 21  1  0  0  0  0
M  END
>  <minimizedAffinity>
-4.89015293

$$$$

 OpenBabel03272505033D

 26 28  0  0  0  0  0  0  0  0999 V2000
   38.2260   26.9510   33.2430 Cl  0  0  0  0  0  0  0  0  0  0  0  0
   37.1160   25.8890   32.4160 C   0  0  0  0  0  0  0  0  0  0  0  0
   36.1520   26.4330   31.6140 C   0  0  0  0  0  0  0  0  0  0  0  0
   35.2980   25.5390   30.9830 C   0  0  0  0  0  0  0  0  0  0  0  0
   35.4520   24.1740   31.1840 C   0  0  0  0  0  0  0  0  0  0  0  0
   36.4390   23.6780   32.0010 C   0  0  0  0  0  0  0  0  0  0  0  0
   37.2890   24.5590   32.6300 C   0  0  0  0  0  0  0  0  0  0  0  0
   34.5340   25.9710   30.3480 H   0  0  0  0  0  0  0  0  0  0  0  0
   34.7280   23.5870   30.6380 H   0  0  0  0  0  0  0  0  0  0  0  0
   36.4310   22.6160   32.0550 H   0  0  0  0  0  0  0  0  0  0  0  0
   35.1630   28.6520   32.2270 C   0  0  0  0  0  0  0  0  0  0  0  0
   35.9830   27.8740   31.3930 C   0  0  0  0  0  0  0  0  0  0  0  0
   36.6270   28.5180   30.3540 C   0  0  0  0  0  0  0  0  0  0  0  0
   36.4310   29.8520   30.2020 N   0  0  0  0  0  0  0  0  0  0  0  0
   35.6500   30.5630   31.0050 C   0  0  0  0  0  0  0  0  0  0  0  0
   35.0100   29.9740   32.0220 N   0  0  0  0  0  0  0  0  0  0  0  0
   34.6520   28.1760   33.0410 H   0  0  0  0  0  0  0  0  0  0  0  0
   37.2550   27.9050   29.7210 H   0  0  0  0  0  0  0  0  0  0  0  0
   35.6130   31.6110   30.7330 H   0  0  0  0  0  0  0  0  0  0  0  0
   38.2710   24.0370   33.4420 O   0  0  0  0  0  0  0  0  0  0  0  0
   38.1560   23.5300   34.7220 C   0  0  0  0  0  3  0  0  0  0  0  0
   38.8620   24.5160   35.6550 C   0  0  0  0  0  2  0  0  0  0  0  0
   40.3530   24.4730   35.3810 C   0  0  0  0  0  2  0  0  0  0  0  0
   40.9680   23.1760   35.8610 C   0  0  0  0  0  2  0  0  0  0  0  0
   39.8390   22.1730   36.0080 C   0  0  0  0  0  2  0  0  0  0  0  0
   38.9840   22.2420   34.7640 C   0  0  0  0  0  2  0  0  0  0  0  0
  2  7  1  0  0  0  0
  2  1  1  0  0  0  0
  3  2  2  0  0  0  0
  4  5  2  0  0  0  0
  4  3  1  0  0  0  0
  5  6  1  0  0  0  0
  6 10  1  0  0  0  0
  6  7  2  0  0  0  0
  7 20  1  0  0  0  0
  8  4  1  0  0  0  0
  9  5  1  0  0  0  0
 11 17  1  0  0  0  0
 12  3  1  0  0  0  0
 12 11  2  0  0  0  0
 13 12  1  0  0  0  0
 14 13  2  0  0  0  0
 14 15  1  0  0  0  0
 15 16  2  0  0  0  0
 16 11  1  0  0  0  0
 18 13  1  0  0  0  0
 19 15  1  0  0  0  0
 20 21  1  0  0  0  0
 21 26  1  0  0  0  0
 21 22  1  0  0  0  0
 23 22  1  0  0  0  0
 23 24  1  0  0  0  0
 24 25  1  0  0  0  0
 26 25  1  0  0  0  0
M  END
>  <minimizedAffinity>
-4.84886026

$$$$

 OpenBabel03272505033D

 26 28  0  0  0  0  0  0  0  0999 V2000
   35.3910   28.9580   34.2720 Cl  0  0  0  0  0  0  0  0  0  0  0  0
   35.8930   29.6900   32.7700 C   0  0  0  0  0  0  0  0  0  0  0  0
   36.4040   28.8930   31.7830 C   0  0  0  0  0  0  0  0  0  0  0  0
   36.7870   29.5320   30.6120 C   0  0  0  0  0  0  0  0  0  0  0  0
   36.6410   30.9070   30.4920 C   0  0  0  0  0  0  0  0  0  0  0  0
   36.1210   31.6630   31.5150 C   0  0  0  0  0  0  0  0  0  0  0  0
   35.7390   31.0360   32.6800 C   0  0  0  0  0  0  0  0  0  0  0  0
   37.1930   28.8990   29.8310 H   0  0  0  0  0  0  0  0  0  0  0  0
   36.9740   31.2810   29.5350 H   0  0  0  0  0  0  0  0  0  0  0  0
   36.0700   32.6980   31.2750 H   0  0  0  0  0  0  0  0  0  0  0  0
   37.6650   26.8700   32.5540 C   0  0  0  0  0  0  0  0  0  0  0  0
   36.5600   27.4380   31.8990 C   0  0  0  0  0  0  0  0  0  0  0  0
   35.6230   26.5750   31.3670 C   0  0  0  0  0  0  0  0  0  0  0  0
   35.8220   25.2400   31.5070 N   0  0  0  0  0  0  0  0  0  0  0  0
   36.8770   24.7300   32.1310 C   0  0  0  0  0  0  0  0  0  0  0  0
   37.8060   25.5350   32.6590 N   0  0  0  0  0  0  0  0  0  0  0  0
   38.4070   27.5190   32.9760 H   0  0  0  0  0  0  0  0  0  0  0  0
   34.7780   27.0280   30.8650 H   0  0  0  0  0  0  0  0  0  0  0  0
   36.8700   23.6460   32.1460 H   0  0  0  0  0  0  0  0  0  0  0  0
   35.2190   31.8150   33.6880 O   0  0  0  0  0  0  0  0  0  0  0  0
   35.8430   32.7990   34.4310 C   0  0  0  0  0  3  0  0  0  0  0  0
   36.3080   32.1450   35.7340 C   0  0  0  0  0  2  0  0  0  0  0  0
   35.0930   31.7810   36.5640 C   0  0  0  0  0  2  0  0  0  0  0  0
   34.4130   33.0120   37.1210 C   0  0  0  0  0  2  0  0  0  0  0  0
   34.8690   34.1930   36.2850 C   0  0  0  0  0  2  0  0  0  0  0  0
   34.7600   33.8080   34.8280 C   0  0  0  0  0  2  0  0  0  0  0  0
  2  1  1  0  0  0  0
  3 12  1  0  0  0  0
  3  2  2  0  0  0  0
  4  3  1  0  0  0  0
  5  4  2  0  0  0  0
  5  6  1  0  0  0  0
  6  7  2  0  0  0  0
  7  2  1  0  0  0  0
  7 20  1  0  0  0  0
  8  4  1  0  0  0  0
  9  5  1  0  0  0  0
 10  6  1  0  0  0  0
 11 16  1  0  0  0  0
 11 17  1  0  0  0  0
 12 11  2  0  0  0  0
 13 14  2  0  0  0  0
 13 12  1  0  0  0  0
 14 15  1  0  0  0  0
 15 19  1  0  0  0  0
 15 16  2  0  0  0  0
 18 13  1  0  0  0  0
 20 21  1  0  0  0  0
 21 26  1  0  0  0  0
 21 22  1  0  0  0  0
 22 23  1  0  0  0  0
 23 24  1  0  0  0  0
 25 24  1  0  0  0  0
 26 25  1  0  0  0  0
M  END
>  <minimizedAffinity>
-4.8054986

$$$$

 OpenBabel03272505033D

 26 28  0  0  0  0  0  0  0  0999 V2000
   35.2600   25.5080   30.8990 Cl  0  0  0  0  0  0  0  0  0  0  0  0
   36.5770   25.6550   32.0350 C   0  0  0  0  0  0  0  0  0  0  0  0
   36.9480   26.9010   32.4610 C   0  0  0  0  0  0  0  0  0  0  0  0
   38.0010   26.9550   33.3630 C   0  0  0  0  0  0  0  0  0  0  0  0
   38.6160   25.7830   33.7830 C   0  0  0  0  0  0  0  0  0  0  0  0
   38.2040   24.5560   33.3240 C   0  0  0  0  0  0  0  0  0  0  0  0
   37.1600   24.4940   32.4290 C   0  0  0  0  0  0  0  0  0  0  0  0
   38.2950   27.9420   33.6990 H   0  0  0  0  0  0  0  0  0  0  0  0
   39.4190   25.9610   34.4830 H   0  0  0  0  0  0  0  0  0  0  0  0
   38.7690   23.7540   33.7350 H   0  0  0  0  0  0  0  0  0  0  0  0
   36.7180   28.8180   30.8640 C   0  0  0  0  0  0  0  0  0  0  0  0
   36.3030   28.1450   32.0240 C   0  0  0  0  0  0  0  0  0  0  0  0
   35.2610   28.6990   32.7430 C   0  0  0  0  0  0  0  0  0  0  0  0
   34.7050   29.8510   32.2890 N   0  0  0  0  0  0  0  0  0  0  0  0
   35.1190   30.4660   31.1870 C   0  0  0  0  0  0  0  0  0  0  0  0
   36.1250   29.9590   30.4660 N   0  0  0  0  0  0  0  0  0  0  0  0
   37.5250   28.4080   30.2880 H   0  0  0  0  0  0  0  0  0  0  0  0
   34.9530   28.1700   33.6340 H   0  0  0  0  0  0  0  0  0  0  0  0
   34.5600   31.3710   30.9790 H   0  0  0  0  0  0  0  0  0  0  0  0
   36.7640   23.2520   31.9860 O   0  0  0  0  0  0  0  0  0  0  0  0
   36.5400   22.1030   32.7200 C   0  0  0  0  0  3  0  0  0  0  0  0
   37.5790   21.0760   32.2670 C   0  0  0  0  0  2  0  0  0  0  0  0
   37.2720   20.6600   30.8410 C   0  0  0  0  0  2  0  0  0  0  0  0
   36.0210   19.8130   30.7680 C   0  0  0  0  0  2  0  0  0  0  0  0
   35.2360   20.0610   32.0420 C   0  0  0  0  0  2  0  0  0  0  0  0
   35.1800   21.5530   32.2760 C   0  0  0  0  0  2  0  0  0  0  0  0
  1  2  1  0  0  0  0
  2  7  2  0  0  0  0
  2  3  1  0  0  0  0
  3  4  2  0  0  0  0
  4  8  1  0  0  0  0
  4  5  1  0  0  0  0
  5  9  1  0  0  0  0
  6 10  1  0  0  0  0
  6  5  2  0  0  0  0
  7  6  1  0  0  0  0
 11 12  1  0  0  0  0
 12  3  1  0  0  0  0
 12 13  2  0  0  0  0
 13 18  1  0  0  0  0
 14 13  1  0  0  0  0
 15 14  2  0  0  0  0
 16 11  2  0  0  0  0
 16 15  1  0  0  0  0
 17 11  1  0  0  0  0
 19 15  1  0  0  0  0
 20  7  1  0  0  0  0
 20 21  1  0  0  0  0
 22 21  1  0  0  0  0
 23 22  1  0  0  0  0
 24 23  1  0  0  0  0
 24 25  1  0  0  0  0
 25 26  1  0  0  0  0
 26 21  1  0  0  0  0
M  END
>  <minimizedAffinity>
-4.79248714

$$$$

 OpenBabel03272505033D

 26 28  0  0  0  0  0  0  0  0999 V2000
   39.0370   23.0330   32.4790 Cl  0  0  0  0  0  0  0  0  0  0  0  0
   37.7440   24.0970   31.9900 C   0  0  0  0  0  0  0  0  0  0  0  0
   37.8620   25.4380   32.2310 C   0  0  0  0  0  0  0  0  0  0  0  0
   36.8010   26.2340   31.8200 C   0  0  0  0  0  0  0  0  0  0  0  0
   35.7000   25.6570   31.2030 C   0  0  0  0  0  0  0  0  0  0  0  0
   35.6300   24.3020   30.9840 C   0  0  0  0  0  0  0  0  0  0  0  0
   36.6790   23.5070   31.3890 C   0  0  0  0  0  0  0  0  0  0  0  0
   36.8960   27.2960   32.0120 H   0  0  0  0  0  0  0  0  0  0  0  0
   34.9460   26.3810   30.9320 H   0  0  0  0  0  0  0  0  0  0  0  0
   34.7280   24.0100   30.5020 H   0  0  0  0  0  0  0  0  0  0  0  0
   40.1050   26.5500   32.1330 C   0  0  0  0  0  0  0  0  0  0  0  0
   39.0230   26.0570   32.8810 C   0  0  0  0  0  0  0  0  0  0  0  0
   39.0920   26.1770   34.2550 C   0  0  0  0  0  0  0  0  0  0  0  0
   40.1910   26.7590   34.7970 N   0  0  0  0  0  0  0  0  0  0  0  0
   41.2010   27.2170   34.0660 C   0  0  0  0  0  0  0  0  0  0  0  0
   41.1690   27.1180   32.7320 N   0  0  0  0  0  0  0  0  0  0  0  0
   40.0750   26.4700   31.0640 H   0  0  0  0  0  0  0  0  0  0  0  0
   38.2510   25.7920   34.8170 H   0  0  0  0  0  0  0  0  0  0  0  0
   41.9910   27.6480   34.6680 H   0  0  0  0  0  0  0  0  0  0  0  0
   36.5860   22.1530   31.1560 O   0  0  0  0  0  0  0  0  0  0  0  0
   35.4560   21.3590   31.1080 C   0  0  0  0  0  3  0  0  0  0  0  0
   34.8110   21.4190   32.4950 C   0  0  0  0  0  2  0  0  0  0  0  0
   35.7110   20.7100   33.4880 C   0  0  0  0  0  2  0  0  0  0  0  0
   35.7090   19.2130   33.2660 C   0  0  0  0  0  2  0  0  0  0  0  0
   35.2080   18.9700   31.8540 C   0  0  0  0  0  2  0  0  0  0  0  0
   35.9360   19.9160   30.9280 C   0  0  0  0  0  2  0  0  0  0  0  0
  2  3  1  0  0  0  0
  2  1  1  0  0  0  0
  3 12  1  0  0  0  0
  4  8  1  0  0  0  0
  4  3  2  0  0  0  0
  5  4  1  0  0  0  0
  6  5  2  0  0  0  0
  6  7  1  0  0  0  0
  7  2  2  0  0  0  0
  9  5  1  0  0  0  0
 10  6  1  0  0  0  0
 11 16  2  0  0  0  0
 11 12  1  0  0  0  0
 12 13  2  0  0  0  0
 13 14  1  0  0  0  0
 13 18  1  0  0  0  0
 15 19  1  0  0  0  0
 15 14  2  0  0  0  0
 16 15  1  0  0  0  0
 17 11  1  0  0  0  0
 20  7  1  0  0  0  0
 21 20  1  0  0  0  0
 21 22  1  0  0  0  0
 22 23  1  0  0  0  0
 24 23  1  0  0  0  0
 25 24  1  0  0  0  0
 26 21  1  0  0  0  0
 26 25  1  0  0  0  0
M  END
>  <minimizedAffinity>
-4.67202473

$$$$
