
 OpenBabel03262521303D

 28 30  0  0  1  0  0  0  0  0999 V2000
   38.3970   26.9590   34.9900 C   0  0  1  0  0  0  0  0  0  0  0  0
   38.6380   25.5070   34.7000 C   0  0  2  0  0  0  0  0  0  0  0  0
   37.6250   25.0430   33.8880 O   0  0  0  0  0  0  0  0  0  0  0  0
   37.0820   26.1580   33.2470 C   0  0  0  0  0  0  0  0  0  0  0  0
   37.0330   27.1630   34.3830 C   0  0  2  0  0  0  0  0  0  0  0  0
   39.0920   27.5900   34.3680 H   0  0  0  0  0  0  0  0  0  0  0  0
   39.5960   25.4150   34.1500 H   0  0  0  0  0  0  0  0  0  0  0  0
   36.0950   25.9230   32.8460 H   0  0  0  0  0  0  0  0  0  0  0  0
   37.7900   26.5450   32.4950 H   0  0  0  0  0  0  0  0  0  0  0  0
   36.2610   26.8610   35.1280 H   0  0  0  0  0  0  0  0  0  0  0  0
   39.9530   23.0170   37.2230 C   0  0  0  0  0  0  0  0  0  0  0  0
   39.8940   23.8060   36.0510 C   0  0  0  0  0  0  0  0  0  0  0  0
   38.7820   24.6550   35.8990 C   0  0  0  0  0  0  0  0  0  0  0  0
   37.8280   24.6800   36.8690 N   0  0  0  0  0  0  0  0  0  0  0  0
   37.9190   23.9100   37.9740 C   0  0  0  0  0  0  0  0  0  0  0  0
   38.9660   23.0930   38.1450 N   0  0  0  0  0  0  0  0  0  0  0  0
   40.7880   22.3510   37.3810 H   0  0  0  0  0  0  0  0  0  0  0  0
   40.6700   23.7620   35.3010 H   0  0  0  0  0  0  0  0  0  0  0  0
   37.0840   24.0410   38.6520 H   0  0  0  0  0  0  0  0  0  0  0  0
   38.5110   27.3230   36.2890 O   0  0  0  0  0  0  0  0  0  0  0  0
   37.7230   27.0160   36.8270 H   0  0  0  0  0  0  0  0  0  0  0  0
   36.8310   28.4450   33.9360 O   0  0  0  0  0  0  0  0  0  0  0  0
   35.5540   28.9250   34.1880 C   0  0  0  0  0  3  0  0  0  0  0  0
   35.6890   30.2810   34.8290 C   0  0  0  0  0  2  0  0  0  0  0  0
   35.3800   31.4000   33.8490 C   0  0  0  0  0  2  0  0  0  0  0  0
   33.9420   31.3280   33.3690 C   0  0  0  0  0  2  0  0  0  0  0  0
   33.5910   29.9170   32.9990 C   0  0  0  0  0  2  0  0  0  0  0  0
   34.8600   29.1030   32.8620 C   0  0  0  0  0  2  0  0  0  0  0  0
  1  6  1  6  0  0  0
  1 20  1  0  0  0  0
  2  7  1  6  0  0  0
  2  1  1  0  0  0  0
  2 13  1  0  0  0  0
  3  2  1  0  0  0  0
  4  3  1  0  0  0  0
  4  5  1  0  0  0  0
  5  1  1  0  0  0  0
  5 10  1  1  0  0  0
  8  4  1  0  0  0  0
  9  4  1  0  0  0  0
 11 17  1  0  0  0  0
 11 16  1  0  0  0  0
 12 11  2  0  0  0  0
 13 12  1  0  0  0  0
 13 14  2  0  0  0  0
 14 15  1  0  0  0  0
 15 16  2  0  0  0  0
 15 19  1  0  0  0  0
 18 12  1  0  0  0  0
 20 21  1  0  0  0  0
 22 23  1  0  0  0  0
 22  5  1  0  0  0  0
 23 24  1  0  0  0  0
 25 24  1  0  0  0  0
 26 25  1  0  0  0  0
 27 26  1  0  0  0  0
 28 27  1  0  0  0  0
 28 23  1  0  0  0  0
M  END
>  <minimizedAffinity>
-4.9095006

$$$$

 OpenBabel03262521303D

 28 30  0  0  1  0  0  0  0  0999 V2000
   36.8370   28.1280   33.0040 C   0  0  1  0  0  0  0  0  0  0  0  0
   36.9700   27.3920   31.7030 C   0  0  2  0  0  0  0  0  0  0  0  0
   36.1220   27.9680   30.7800 O   0  0  0  0  0  0  0  0  0  0  0  0
   35.8710   29.2680   31.2220 C   0  0  0  0  0  0  0  0  0  0  0  0
   35.6800   29.0470   32.7110 C   0  0  2  0  0  0  0  0  0  0  0  0
   37.7230   28.8070   33.1470 H   0  0  0  0  0  0  0  0  0  0  0  0
   38.0110   27.5090   31.3400 H   0  0  0  0  0  0  0  0  0  0  0  0
   34.9820   29.6700   30.7350 H   0  0  0  0  0  0  0  0  0  0  0  0
   36.7710   29.8920   31.0940 H   0  0  0  0  0  0  0  0  0  0  0  0
   34.7300   28.4960   32.8970 H   0  0  0  0  0  0  0  0  0  0  0  0
   35.4580   23.9470   31.3270 C   0  0  0  0  0  0  0  0  0  0  0  0
   35.6120   25.3460   31.1890 C   0  0  0  0  0  0  0  0  0  0  0  0
   36.7380   25.9350   31.7920 C   0  0  0  0  0  0  0  0  0  0  0  0
   37.6160   25.1470   32.4700 N   0  0  0  0  0  0  0  0  0  0  0  0
   37.4340   23.8150   32.5800 C   0  0  0  0  0  0  0  0  0  0  0  0
   36.3720   23.2270   32.0170 N   0  0  0  0  0  0  0  0  0  0  0  0
   34.6080   23.4530   30.8800 H   0  0  0  0  0  0  0  0  0  0  0  0
   34.8940   25.9420   30.6420 H   0  0  0  0  0  0  0  0  0  0  0  0
   38.2170   23.3260   33.1490 H   0  0  0  0  0  0  0  0  0  0  0  0
   36.6930   27.3500   34.1030 O   0  0  0  0  0  0  0  0  0  0  0  0
   35.7740   26.9550   34.1550 H   0  0  0  0  0  0  0  0  0  0  0  0
   35.7330   30.2190   33.4230 O   0  0  0  0  0  0  0  0  0  0  0  0
   35.1910   30.1200   34.6960 C   0  0  0  0  0  3  0  0  0  0  0  0
   36.1440   30.7810   35.6560 C   0  0  0  0  0  2  0  0  0  0  0  0
   35.6490   32.1500   36.0890 C   0  0  0  0  0  2  0  0  0  0  0  0
   34.3340   32.0460   36.8410 C   0  0  0  0  0  2  0  0  0  0  0  0
   33.3960   31.1260   36.1170 C   0  0  0  0  0  2  0  0  0  0  0  0
   33.9010   30.9010   34.7070 C   0  0  0  0  0  2  0  0  0  0  0  0
  1  6  1  1  0  0  0
  1 20  1  0  0  0  0
  2  7  1  6  0  0  0
  2 13  1  0  0  0  0
  2  1  1  0  0  0  0
  3  4  1  0  0  0  0
  3  2  1  0  0  0  0
  4  5  1  0  0  0  0
  5 10  1  1  0  0  0
  5  1  1  0  0  0  0
  5 22  1  0  0  0  0
  8  4  1  0  0  0  0
  9  4  1  0  0  0  0
 11 16  1  0  0  0  0
 12 11  2  0  0  0  0
 12 13  1  0  0  0  0
 13 14  2  0  0  0  0
 14 15  1  0  0  0  0
 15 19  1  0  0  0  0
 16 15  2  0  0  0  0
 17 11  1  0  0  0  0
 18 12  1  0  0  0  0
 20 21  1  0  0  0  0
 22 23  1  0  0  0  0
 23 28  1  0  0  0  0
 23 24  1  0  0  0  0
 24 25  1  0  0  0  0
 25 26  1  0  0  0  0
 27 26  1  0  0  0  0
 28 27  1  0  0  0  0
M  END
>  <minimizedAffinity>
-4.82962036

$$$$

 OpenBabel03262521303D

 28 30  0  0  1  0  0  0  0  0999 V2000
   38.8600   26.2570   34.5170 C   0  0  1  0  0  0  0  0  0  0  0  0
   38.8680   24.7600   34.6160 C   0  0  2  0  0  0  0  0  0  0  0  0
   37.7820   24.2640   33.9250 O   0  0  0  0  0  0  0  0  0  0  0  0
   37.4090   25.2470   33.0060 C   0  0  0  0  0  0  0  0  0  0  0  0
   37.5350   26.5050   33.8450 C   0  0  2  0  0  0  0  0  0  0  0  0
   39.6350   26.5910   33.7710 H   0  0  0  0  0  0  0  0  0  0  0  0
   39.7910   24.3820   34.1310 H   0  0  0  0  0  0  0  0  0  0  0  0
   36.3900   25.0710   32.6550 H   0  0  0  0  0  0  0  0  0  0  0  0
   38.1550   25.3130   32.1980 H   0  0  0  0  0  0  0  0  0  0  0  0
   36.7380   26.5280   34.6230 H   0  0  0  0  0  0  0  0  0  0  0  0
   39.8430   22.8590   37.7350 C   0  0  0  0  0  0  0  0  0  0  0  0
   39.8900   23.3210   36.4000 C   0  0  0  0  0  0  0  0  0  0  0  0
   38.8970   24.2330   35.9970 C   0  0  0  0  0  0  0  0  0  0  0  0
   37.9510   24.6240   36.8930 N   0  0  0  0  0  0  0  0  0  0  0  0
   37.9390   24.1590   38.1600 C   0  0  0  0  0  0  0  0  0  0  0  0
   38.8710   23.2900   38.5710 N   0  0  0  0  0  0  0  0  0  0  0  0
   40.5850   22.1580   38.0870 H   0  0  0  0  0  0  0  0  0  0  0  0
   40.6570   22.9900   35.7140 H   0  0  0  0  0  0  0  0  0  0  0  0
   37.1250   24.5620   38.7520 H   0  0  0  0  0  0  0  0  0  0  0  0
   39.0510   26.9210   35.6820 O   0  0  0  0  0  0  0  0  0  0  0  0
   38.2340   26.8880   36.2610 H   0  0  0  0  0  0  0  0  0  0  0  0
   37.5270   27.6440   33.0790 O   0  0  0  0  0  0  0  0  0  0  0  0
   37.3870   27.3990   31.7210 C   0  0  0  0  0  3  0  0  0  0  0  0
   36.2120   28.1990   31.2260 C   0  0  0  0  0  2  0  0  0  0  0  0
   36.6540   29.4300   30.4540 C   0  0  0  0  0  2  0  0  0  0  0  0
   37.4290   29.0470   29.2060 C   0  0  0  0  0  2  0  0  0  0  0  0
   38.4400   27.9870   29.5300 C   0  0  0  0  0  2  0  0  0  0  0  0
   38.6250   27.9120   31.0310 C   0  0  0  0  0  2  0  0  0  0  0  0
  1  6  1  6  0  0  0
  1  2  1  0  0  0  0
  1 20  1  0  0  0  0
  2  7  1  6  0  0  0
  2 13  1  0  0  0  0
  3  2  1  0  0  0  0
  4  5  1  0  0  0  0
  4  3  1  0  0  0  0
  5  1  1  0  0  0  0
  5 10  1  1  0  0  0
  8  4  1  0  0  0  0
  9  4  1  0  0  0  0
 11 17  1  0  0  0  0
 11 16  1  0  0  0  0
 12 11  2  0  0  0  0
 13 12  1  0  0  0  0
 13 14  2  0  0  0  0
 14 15  1  0  0  0  0
 15 16  2  0  0  0  0
 15 19  1  0  0  0  0
 18 12  1  0  0  0  0
 20 21  1  0  0  0  0
 22  5  1  0  0  0  0
 23 22  1  0  0  0  0
 24 23  1  0  0  0  0
 25 24  1  0  0  0  0
 26 27  1  0  0  0  0
 26 25  1  0  0  0  0
 27 28  1  0  0  0  0
 28 23  1  0  0  0  0
M  END
>  <minimizedAffinity>
-4.82721567

$$$$

 OpenBabel03262521303D

 28 30  0  0  1  0  0  0  0  0999 V2000
   36.8680   28.0030   33.9660 C   0  0  1  0  0  0  0  0  0  0  0  0
   36.8710   27.7610   32.4850 C   0  0  2  0  0  0  0  0  0  0  0  0
   36.0350   28.6790   31.8840 O   0  0  0  0  0  0  0  0  0  0  0  0
   35.9230   29.7560   32.7660 C   0  0  0  0  0  0  0  0  0  0  0  0
   35.7850   29.0420   34.0970 C   0  0  2  0  0  0  0  0  0  0  0  0
   37.8170   28.5280   34.2660 H   0  0  0  0  0  0  0  0  0  0  0  0
   37.9000   27.9280   32.1060 H   0  0  0  0  0  0  0  0  0  0  0  0
   35.0500   30.3620   32.5160 H   0  0  0  0  0  0  0  0  0  0  0  0
   36.8680   30.3240   32.7920 H   0  0  0  0  0  0  0  0  0  0  0  0
   34.7990   28.5260   34.1540 H   0  0  0  0  0  0  0  0  0  0  0  0
   35.1000   24.7890   30.9610 C   0  0  0  0  0  0  0  0  0  0  0  0
   35.3760   26.1350   31.2950 C   0  0  0  0  0  0  0  0  0  0  0  0
   36.5140   26.3840   32.0840 C   0  0  0  0  0  0  0  0  0  0  0  0
   37.2860   25.3380   32.4850 N   0  0  0  0  0  0  0  0  0  0  0  0
   36.9880   24.0660   32.1460 C   0  0  0  0  0  0  0  0  0  0  0  0
   35.9120   23.7990   31.3960 N   0  0  0  0  0  0  0  0  0  0  0  0
   34.2360   24.5520   30.3560 H   0  0  0  0  0  0  0  0  0  0  0  0
   34.7410   26.9430   30.9580 H   0  0  0  0  0  0  0  0  0  0  0  0
   37.6950   23.3460   32.5410 H   0  0  0  0  0  0  0  0  0  0  0  0
   36.7080   26.9010   34.7370 O   0  0  0  0  0  0  0  0  0  0  0  0
   35.7600   26.5760   34.7200 H   0  0  0  0  0  0  0  0  0  0  0  0
   35.9780   29.8850   35.1630 O   0  0  0  0  0  0  0  0  0  0  0  0
   35.3990   31.1340   34.9940 C   0  0  0  0  0  3  0  0  0  0  0  0
   34.0660   31.1240   35.6940 C   0  0  0  0  0  2  0  0  0  0  0  0
   34.1170   31.8750   37.0130 C   0  0  0  0  0  2  0  0  0  0  0  0
   34.4440   33.3420   36.7980 C   0  0  0  0  0  2  0  0  0  0  0  0
   35.5850   33.4820   35.8350 C   0  0  0  0  0  2  0  0  0  0  0  0
   36.2800   32.1460   35.6820 C   0  0  0  0  0  2  0  0  0  0  0  0
  1  5  1  0  0  0  0
  1  6  1  1  0  0  0
  1 20  1  0  0  0  0
  2  7  1  6  0  0  0
  2  1  1  0  0  0  0
  3  2  1  0  0  0  0
  3  4  1  0  0  0  0
  4  9  1  0  0  0  0
  4  5  1  0  0  0  0
  5 10  1  1  0  0  0
  5 22  1  0  0  0  0
  8  4  1  0  0  0  0
 11 12  2  0  0  0  0
 11 16  1  0  0  0  0
 12 13  1  0  0  0  0
 13  2  1  0  0  0  0
 13 14  2  0  0  0  0
 15 14  1  0  0  0  0
 15 19  1  0  0  0  0
 16 15  2  0  0  0  0
 17 11  1  0  0  0  0
 18 12  1  0  0  0  0
 21 20  1  0  0  0  0
 23 22  1  0  0  0  0
 23 28  1  0  0  0  0
 23 24  1  0  0  0  0
 24 25  1  0  0  0  0
 26 25  1  0  0  0  0
 27 26  1  0  0  0  0
 28 27  1  0  0  0  0
M  END
>  <minimizedAffinity>
-4.82561636

$$$$

 OpenBabel03262521303D

 28 30  0  0  1  0  0  0  0  0999 V2000
   36.3650   25.0360   30.8030 C   0  0  1  0  0  0  0  0  0  0  0  0
   37.3080   25.9330   31.5500 C   0  0  2  0  0  0  0  0  0  0  0  0
   37.7020   25.2960   32.7080 O   0  0  0  0  0  0  0  0  0  0  0  0
   37.5070   23.9290   32.5000 C   0  0  0  0  0  0  0  0  0  0  0  0
   36.1620   23.9220   31.7960 C   0  0  2  0  0  0  0  0  0  0  0  0
   36.9010   24.5620   29.9350 H   0  0  0  0  0  0  0  0  0  0  0  0
   38.2050   26.0980   30.9200 H   0  0  0  0  0  0  0  0  0  0  0  0
   37.4900   23.3980   33.4530 H   0  0  0  0  0  0  0  0  0  0  0  0
   38.2540   23.5440   31.7860 H   0  0  0  0  0  0  0  0  0  0  0  0
   35.3570   24.2180   32.5070 H   0  0  0  0  0  0  0  0  0  0  0  0
   35.9970   28.9770   33.3700 C   0  0  0  0  0  0  0  0  0  0  0  0
   36.5150   27.6760   33.1720 C   0  0  0  0  0  0  0  0  0  0  0  0
   36.7740   27.2790   31.8470 C   0  0  0  0  0  0  0  0  0  0  0  0
   36.5200   28.1490   30.8320 N   0  0  0  0  0  0  0  0  0  0  0  0
   36.0250   29.3830   31.0620 C   0  0  0  0  0  0  0  0  0  0  0  0
   35.7690   29.7870   32.3120 N   0  0  0  0  0  0  0  0  0  0  0  0
   35.7830   29.3220   34.3710 H   0  0  0  0  0  0  0  0  0  0  0  0
   36.7050   27.0100   34.0020 H   0  0  0  0  0  0  0  0  0  0  0  0
   35.8770   29.9560   30.1540 H   0  0  0  0  0  0  0  0  0  0  0  0
   35.2300   25.6250   30.3560 O   0  0  0  0  0  0  0  0  0  0  0  0
   34.5840   25.7930   31.1040 H   0  0  0  0  0  0  0  0  0  0  0  0
   35.8930   22.7150   31.2010 O   0  0  0  0  0  0  0  0  0  0  0  0
   36.3140   21.6230   31.9450 C   0  0  0  0  0  3  0  0  0  0  0  0
   35.1280   21.0990   32.7090 C   0  0  0  0  0  2  0  0  0  0  0  0
   34.5700   19.8320   32.0850 C   0  0  0  0  0  2  0  0  0  0  0  0
   35.5900   18.7090   32.1160 C   0  0  0  0  0  2  0  0  0  0  0  0
   36.9290   19.2150   31.6670 C   0  0  0  0  0  2  0  0  0  0  0  0
   36.7560   20.5520   30.9790 C   0  0  0  0  0  2  0  0  0  0  0  0
  1  6  1  6  0  0  0
  1  2  1  0  0  0  0
  1  5  1  0  0  0  0
  2  7  1  6  0  0  0
  2 13  1  0  0  0  0
  2  3  1  0  0  0  0
  4  3  1  0  0  0  0
  4  8  1  0  0  0  0
  5  4  1  0  0  0  0
  5 10  1  1  0  0  0
  9  4  1  0  0  0  0
 11 17  1  0  0  0  0
 12 11  1  0  0  0  0
 12 18  1  0  0  0  0
 13 12  2  0  0  0  0
 14 15  2  0  0  0  0
 14 13  1  0  0  0  0
 15 16  1  0  0  0  0
 16 11  2  0  0  0  0
 19 15  1  0  0  0  0
 20  1  1  0  0  0  0
 20 21  1  0  0  0  0
 22  5  1  0  0  0  0
 22 23  1  0  0  0  0
 23 24  1  0  0  0  0
 25 26  1  0  0  0  0
 25 24  1  0  0  0  0
 27 26  1  0  0  0  0
 28 27  1  0  0  0  0
 28 23  1  0  0  0  0
M  END
>  <minimizedAffinity>
-4.81044626

$$$$

 OpenBabel03262521303D

 28 30  0  0  1  0  0  0  0  0999 V2000
   38.3540   25.3820   32.8040 C   0  0  1  0  0  0  0  0  0  0  0  0
   38.7650   26.7500   32.3440 C   0  0  2  0  0  0  0  0  0  0  0  0
   39.6560   27.2760   33.2560 O   0  0  0  0  0  0  0  0  0  0  0  0
   40.2140   26.1940   33.9400 C   0  0  0  0  0  0  0  0  0  0  0  0
   38.9940   25.3210   34.1660 C   0  0  2  0  0  0  0  0  0  0  0  0
   38.8880   24.6010   32.1930 H   0  0  0  0  0  0  0  0  0  0  0  0
   39.2830   26.6490   31.3690 H   0  0  0  0  0  0  0  0  0  0  0  0
   40.6740   26.5300   34.8710 H   0  0  0  0  0  0  0  0  0  0  0  0
   40.8990   25.6390   33.2770 H   0  0  0  0  0  0  0  0  0  0  0  0
   38.3110   25.8010   34.9040 H   0  0  0  0  0  0  0  0  0  0  0  0
   36.3270   29.1190   30.6890 C   0  0  0  0  0  0  0  0  0  0  0  0
   37.4160   28.2270   30.8300 C   0  0  0  0  0  0  0  0  0  0  0  0
   37.6440   27.6840   32.1070 C   0  0  0  0  0  0  0  0  0  0  0  0
   36.8220   28.0330   33.1340 N   0  0  0  0  0  0  0  0  0  0  0  0
   35.7940   28.8900   32.9590 C   0  0  0  0  0  0  0  0  0  0  0  0
   35.5530   29.4220   31.7550 N   0  0  0  0  0  0  0  0  0  0  0  0
   36.1160   29.5600   29.7250 H   0  0  0  0  0  0  0  0  0  0  0  0
   38.0480   27.9710   29.9910 H   0  0  0  0  0  0  0  0  0  0  0  0
   35.2330   29.0690   33.8690 H   0  0  0  0  0  0  0  0  0  0  0  0
   37.0240   25.1320   32.7790 O   0  0  0  0  0  0  0  0  0  0  0  0
   36.5480   25.6000   33.5270 H   0  0  0  0  0  0  0  0  0  0  0  0
   39.3300   24.0450   34.5440 O   0  0  0  0  0  0  0  0  0  0  0  0
   38.5440   23.5450   35.5710 C   0  0  0  0  0  3  0  0  0  0  0  0
   39.3160   22.4450   36.2500 C   0  0  0  0  0  2  0  0  0  0  0  0
   39.8920   22.8990   37.5800 C   0  0  0  0  0  2  0  0  0  0  0  0
   38.7930   23.2760   38.5560 C   0  0  0  0  0  2  0  0  0  0  0  0
   37.7670   24.1330   37.8750 C   0  0  0  0  0  2  0  0  0  0  0  0
   38.3350   24.6540   36.5710 C   0  0  0  0  0  2  0  0  0  0  0  0
  1  6  1  6  0  0  0
  1  5  1  0  0  0  0
  2  7  1  6  0  0  0
  2  1  1  0  0  0  0
  2  3  1  0  0  0  0
  3  4  1  0  0  0  0
  4  5  1  0  0  0  0
  4  8  1  0  0  0  0
  5 22  1  0  0  0  0
  5 10  1  1  0  0  0
  9  4  1  0  0  0  0
 11 12  2  0  0  0  0
 11 16  1  0  0  0  0
 12 13  1  0  0  0  0
 13  2  1  0  0  0  0
 13 14  2  0  0  0  0
 15 14  1  0  0  0  0
 15 19  1  0  0  0  0
 16 15  2  0  0  0  0
 17 11  1  0  0  0  0
 18 12  1  0  0  0  0
 20  1  1  0  0  0  0
 20 21  1  0  0  0  0
 22 23  1  0  0  0  0
 23 24  1  0  0  0  0
 23 28  1  0  0  0  0
 24 25  1  0  0  0  0
 25 26  1  0  0  0  0
 27 26  1  0  0  0  0
 28 27  1  0  0  0  0
M  END
>  <minimizedAffinity>
-4.79496098

$$$$

 OpenBabel03262521303D

 28 30  0  0  1  0  0  0  0  0999 V2000
   37.0900   25.2660   32.9400 C   0  0  1  0  0  0  0  0  0  0  0  0
   37.3130   25.3030   31.4580 C   0  0  2  0  0  0  0  0  0  0  0  0
   38.3380   24.4370   31.1410 O   0  0  0  0  0  0  0  0  0  0  0  0
   38.4190   23.5130   32.1850 C   0  0  0  0  0  0  0  0  0  0  0  0
   38.2450   24.4120   33.3950 C   0  0  2  0  0  0  0  0  0  0  0  0
   36.1690   24.6600   33.1700 H   0  0  0  0  0  0  0  0  0  0  0  0
   36.3890   24.9480   30.9570 H   0  0  0  0  0  0  0  0  0  0  0  0
   39.3840   23.0050   32.1690 H   0  0  0  0  0  0  0  0  0  0  0  0
   37.5530   22.8300   32.1540 H   0  0  0  0  0  0  0  0  0  0  0  0
   39.1420   25.0610   33.5210 H   0  0  0  0  0  0  0  0  0  0  0  0
   39.0520   28.3690   30.0880 C   0  0  0  0  0  0  0  0  0  0  0  0
   38.8850   27.0630   30.6040 C   0  0  0  0  0  0  0  0  0  0  0  0
   37.5750   26.6500   30.9070 C   0  0  0  0  0  0  0  0  0  0  0  0
   36.5420   27.5100   30.6950 N   0  0  0  0  0  0  0  0  0  0  0  0
   36.7420   28.7510   30.2020 C   0  0  0  0  0  0  0  0  0  0  0  0
   37.9780   29.1700   29.9050 N   0  0  0  0  0  0  0  0  0  0  0  0
   40.0410   28.7270   29.8420 H   0  0  0  0  0  0  0  0  0  0  0  0
   39.7290   26.4050   30.7590 H   0  0  0  0  0  0  0  0  0  0  0  0
   35.8240   29.3150   30.0900 H   0  0  0  0  0  0  0  0  0  0  0  0
   36.9900   26.4730   33.5470 O   0  0  0  0  0  0  0  0  0  0  0  0
   37.8830   26.9190   33.6250 H   0  0  0  0  0  0  0  0  0  0  0  0
   37.9700   23.7010   34.5360 O   0  0  0  0  0  0  0  0  0  0  0  0
   38.8630   23.9440   35.5700 C   0  0  0  0  0  3  0  0  0  0  0  0
   38.1690   24.8140   36.5850 C   0  0  0  0  0  2  0  0  0  0  0  0
   37.7390   24.0200   37.8060 C   0  0  0  0  0  2  0  0  0  0  0  0
   38.9370   23.4370   38.5330 C   0  0  0  0  0  2  0  0  0  0  0  0
   39.8830   22.8100   37.5520 C   0  0  0  0  0  2  0  0  0  0  0  0
   39.1780   22.6230   36.2250 C   0  0  0  0  0  2  0  0  0  0  0  0
  1  6  1  1  0  0  0
  1  5  1  0  0  0  0
  1 20  1  0  0  0  0
  2  7  1  6  0  0  0
  2  1  1  0  0  0  0
  3  2  1  0  0  0  0
  3  4  1  0  0  0  0
  4  5  1  0  0  0  0
  5 10  1  1  0  0  0
  5 22  1  0  0  0  0
  8  4  1  0  0  0  0
  9  4  1  0  0  0  0
 11 12  1  0  0  0  0
 12 18  1  0  0  0  0
 12 13  2  0  0  0  0
 13  2  1  0  0  0  0
 14 13  1  0  0  0  0
 15 14  2  0  0  0  0
 16 11  2  0  0  0  0
 16 15  1  0  0  0  0
 17 11  1  0  0  0  0
 19 15  1  0  0  0  0
 20 21  1  0  0  0  0
 22 23  1  0  0  0  0
 23 28  1  0  0  0  0
 23 24  1  0  0  0  0
 24 25  1  0  0  0  0
 25 26  1  0  0  0  0
 27 26  1  0  0  0  0
 28 27  1  0  0  0  0
M  END
>  <minimizedAffinity>
-4.61820459

$$$$

 OpenBabel03262521303D

 28 30  0  0  1  0  0  0  0  0999 V2000
   39.4080   25.8220   34.2080 C   0  0  1  0  0  0  0  0  0  0  0  0
   38.9560   24.4070   34.4190 C   0  0  2  0  0  0  0  0  0  0  0  0
   37.7140   24.2480   33.8400 O   0  0  0  0  0  0  0  0  0  0  0  0
   37.5900   25.2500   32.8760 C   0  0  0  0  0  0  0  0  0  0  0  0
   38.1750   26.4440   33.6070 C   0  0  2  0  0  0  0  0  0  0  0  0
   40.1820   25.8550   33.3910 H   0  0  0  0  0  0  0  0  0  0  0  0
   39.6690   23.7320   33.9050 H   0  0  0  0  0  0  0  0  0  0  0  0
   36.5420   25.3890   32.6060 H   0  0  0  0  0  0  0  0  0  0  0  0
   38.2480   25.0340   32.0180 H   0  0  0  0  0  0  0  0  0  0  0  0
   37.4950   26.7580   34.4320 H   0  0  0  0  0  0  0  0  0  0  0  0
   37.8790   23.7660   37.9860 C   0  0  0  0  0  0  0  0  0  0  0  0
   37.8140   24.2090   36.6450 C   0  0  0  0  0  0  0  0  0  0  0  0
   38.9370   23.9700   35.8310 C   0  0  0  0  0  0  0  0  0  0  0  0
   40.0170   23.3340   36.3600 N   0  0  0  0  0  0  0  0  0  0  0  0
   40.0410   22.9270   37.6470 C   0  0  0  0  0  0  0  0  0  0  0  0
   38.9880   23.1410   38.4440 N   0  0  0  0  0  0  0  0  0  0  0  0
   37.0400   23.9280   38.6470 H   0  0  0  0  0  0  0  0  0  0  0  0
   36.9390   24.7100   36.2570 H   0  0  0  0  0  0  0  0  0  0  0  0
   40.9690   22.4380   37.9190 H   0  0  0  0  0  0  0  0  0  0  0  0
   39.8960   26.4490   35.3050 O   0  0  0  0  0  0  0  0  0  0  0  0
   39.1620   26.7070   35.9370 H   0  0  0  0  0  0  0  0  0  0  0  0
   38.4580   27.4860   32.7600 O   0  0  0  0  0  0  0  0  0  0  0  0
   37.5410   27.6280   31.7290 C   0  0  0  0  0  3  0  0  0  0  0  0
   36.4880   28.6050   32.1790 C   0  0  0  0  0  2  0  0  0  0  0  0
   36.6740   29.9690   31.5370 C   0  0  0  0  0  2  0  0  0  0  0  0
   36.5270   29.8910   30.0280 C   0  0  0  0  0  2  0  0  0  0  0  0
   37.2990   28.7210   29.4930 C   0  0  0  0  0  2  0  0  0  0  0  0
   38.2640   28.2300   30.5510 C   0  0  0  0  0  2  0  0  0  0  0  0
  1  6  1  6  0  0  0
  1  2  1  0  0  0  0
  1 20  1  0  0  0  0
  2  7  1  6  0  0  0
  2 13  1  0  0  0  0
  3  2  1  0  0  0  0
  4  5  1  0  0  0  0
  4  3  1  0  0  0  0
  5  1  1  0  0  0  0
  5 10  1  1  0  0  0
  8  4  1  0  0  0  0
  9  4  1  0  0  0  0
 11 16  1  0  0  0  0
 11 17  1  0  0  0  0
 12 11  2  0  0  0  0
 13 14  2  0  0  0  0
 13 12  1  0  0  0  0
 14 15  1  0  0  0  0
 15 19  1  0  0  0  0
 15 16  2  0  0  0  0
 18 12  1  0  0  0  0
 20 21  1  0  0  0  0
 22  5  1  0  0  0  0
 23 24  1  0  0  0  0
 23 22  1  0  0  0  0
 25 24  1  0  0  0  0
 26 25  1  0  0  0  0
 27 26  1  0  0  0  0
 27 28  1  0  0  0  0
 28 23  1  0  0  0  0
M  END
>  <minimizedAffinity>
-4.5651474

$$$$

 OpenBabel03262521303D

 28 30  0  0  1  0  0  0  0  0999 V2000
   38.4740   24.7870   30.9300 C   0  0  1  0  0  0  0  0  0  0  0  0
   38.5930   26.1830   31.4660 C   0  0  2  0  0  0  0  0  0  0  0  0
   37.8160   26.2900   32.6010 O   0  0  0  0  0  0  0  0  0  0  0  0
   37.6450   24.9950   33.0930 C   0  0  0  0  0  0  0  0  0  0  0  0
   37.3950   24.2180   31.8140 C   0  0  2  0  0  0  0  0  0  0  0  0
   39.4020   24.2030   31.1860 H   0  0  0  0  0  0  0  0  0  0  0  0
   39.6500   26.3600   31.7500 H   0  0  0  0  0  0  0  0  0  0  0  0
   36.8010   24.9590   33.7830 H   0  0  0  0  0  0  0  0  0  0  0  0
   38.5910   24.6250   33.5230 H   0  0  0  0  0  0  0  0  0  0  0  0
   36.4030   24.4920   31.3870 H   0  0  0  0  0  0  0  0  0  0  0  0
   36.9110   29.1010   29.7470 C   0  0  0  0  0  0  0  0  0  0  0  0
   37.1730   28.1160   30.7270 C   0  0  0  0  0  0  0  0  0  0  0  0
   38.2550   27.2470   30.4960 C   0  0  0  0  0  0  0  0  0  0  0  0
   38.9910   27.3890   29.3600 N   0  0  0  0  0  0  0  0  0  0  0  0
   38.7080   28.3420   28.4480 C   0  0  0  0  0  0  0  0  0  0  0  0
   37.6840   29.1830   28.6410 N   0  0  0  0  0  0  0  0  0  0  0  0
   36.0890   29.7890   29.8830 H   0  0  0  0  0  0  0  0  0  0  0  0
   36.5680   28.0310   31.6190 H   0  0  0  0  0  0  0  0  0  0  0  0
   39.3820   28.3290   27.5990 H   0  0  0  0  0  0  0  0  0  0  0  0
   38.2430   24.6890   29.5990 O   0  0  0  0  0  0  0  0  0  0  0  0
   37.2960   24.9280   29.3730 H   0  0  0  0  0  0  0  0  0  0  0  0
   37.5100   22.8630   31.9960 O   0  0  0  0  0  0  0  0  0  0  0  0
   36.3430   22.2620   32.4430 C   0  0  0  0  0  3  0  0  0  0  0  0
   35.7530   21.4870   31.2950 C   0  0  0  0  0  2  0  0  0  0  0  0
   35.9910   19.9940   31.4420 C   0  0  0  0  0  2  0  0  0  0  0  0
   35.3090   19.4480   32.6830 C   0  0  0  0  0  2  0  0  0  0  0  0
   35.5710   20.3470   33.8550 C   0  0  0  0  0  2  0  0  0  0  0  0
   36.7170   21.2800   33.5250 C   0  0  0  0  0  2  0  0  0  0  0  0
  1  6  1  1  0  0  0
  1  2  1  0  0  0  0
  1  5  1  0  0  0  0
  2  7  1  1  0  0  0
  2  3  1  0  0  0  0
  3  4  1  0  0  0  0
  4  9  1  0  0  0  0
  4  8  1  0  0  0  0
  5 10  1  6  0  0  0
  5 22  1  0  0  0  0
  5  4  1  0  0  0  0
 11 17  1  0  0  0  0
 11 12  1  0  0  0  0
 12 18  1  0  0  0  0
 13 12  2  0  0  0  0
 13  2  1  0  0  0  0
 14 13  1  0  0  0  0
 15 16  1  0  0  0  0
 15 14  2  0  0  0  0
 16 11  2  0  0  0  0
 19 15  1  0  0  0  0
 20  1  1  0  0  0  0
 21 20  1  0  0  0  0
 22 23  1  0  0  0  0
 23 28  1  0  0  0  0
 24 25  1  0  0  0  0
 24 23  1  0  0  0  0
 25 26  1  0  0  0  0
 26 27  1  0  0  0  0
 28 27  1  0  0  0  0
M  END
>  <minimizedAffinity>
-4.51505709

$$$$
