
 OpenBabel03272503503D

 34 36  0  0  1  0  0  0  0  0999 V2000
   33.2070   27.2920   45.8610 C   0  0  1  0  0  0  0  0  0  0  0  0
   33.9100   27.4520   47.2280 C   0  0  2  0  0  0  0  0  0  0  0  0
   33.7460   26.2330   47.8050 O   0  0  0  0  0  0  0  0  0  0  0  0
   34.0630   25.3270   46.8070 C   0  0  0  0  0  0  0  0  0  0  0  0
   33.5910   25.8880   45.5010 C   0  0  2  0  0  0  0  0  0  0  0  0
   33.6910   27.9920   45.1630 H   0  0  0  0  0  0  0  0  0  0  0  0
   34.9640   27.7550   46.9980 H   0  0  0  0  0  0  0  0  0  0  0  0
   33.4800   24.4020   47.0150 H   0  0  0  0  0  0  0  0  0  0  0  0
   35.1600   25.1780   46.8500 H   0  0  0  0  0  0  0  0  0  0  0  0
   32.7520   25.3050   45.0740 H   0  0  0  0  0  0  0  0  0  0  0  0
   31.8490   27.5040   45.9930 O   0  0  0  0  0  0  0  0  0  0  0  0
   31.5450   28.0320   45.1970 H   0  0  0  0  0  0  0  0  0  0  0  0
   33.2820   28.5110   47.8180 O   0  0  0  0  0  0  0  0  0  0  0  0
   35.3460   29.7950   46.7880 O   0  0  0  0  0  0  0  0  0  0  0  0
   34.0830   29.9780   47.6170 P   0  0  1  0  0  0  0  0  0  0  0  0
   33.1210   31.0460   46.7210 O   0  0  0  0  0  0  0  0  0  0  0  0
   32.1640   30.9050   46.9720 H   0  0  0  0  0  0  0  0  0  0  0  0
   34.3760   30.5950   49.1800 O   0  0  0  0  0  0  0  0  0  0  0  0
   35.6160   30.4890   49.7890 C   0  0  0  0  0  0  0  0  0  0  0  0
   35.9620   29.4760   50.7110 C   0  0  0  0  0  0  0  0  0  0  0  0
   37.2440   29.4940   51.2430 C   0  0  0  0  0  0  0  0  0  0  0  0
   38.1020   30.4820   50.8550 N   0  0  0  0  0  0  0  0  0  0  0  0
   37.7430   31.4450   49.9670 C   0  0  0  0  0  0  0  0  0  0  0  0
   36.4880   31.4460   49.4310 N   0  0  0  0  0  0  0  0  0  0  0  0
   35.2020   28.7440   50.9460 H   0  0  0  0  0  0  0  0  0  0  0  0
   37.5170   28.7220   51.9490 H   0  0  0  0  0  0  0  0  0  0  0  0
   38.4690   32.2010   49.6990 H   0  0  0  0  0  0  0  0  0  0  0  0
   34.6340   25.9050   44.5730 O   0  0  0  0  0  0  0  0  0  0  0  0
   34.9250   24.6530   44.0720 C   0  0  0  0  0  3  0  0  0  0  0  0
   34.5000   24.5040   42.6240 C   0  0  0  0  0  2  0  0  0  0  0  0
   35.5060   25.2400   41.7530 C   0  0  0  0  0  2  0  0  0  0  0  0
   36.8510   24.5770   41.7520 C   0  0  0  0  0  2  0  0  0  0  0  0
   36.8780   23.5870   42.9040 C   0  0  0  0  0  2  0  0  0  0  0  0
   36.4160   24.3760   44.1200 C   0  0  0  0  0  2  0  0  0  0  0  0
  1  6  1  6  0  0  0
  1 11  1  0  0  0  0
  1  2  1  0  0  0  0
  2  7  1  6  0  0  0
  2  3  1  0  0  0  0
  2 13  1  0  0  0  0
  4  9  1  0  0  0  0
  4  8  1  0  0  0  0
  4  3  1  0  0  0  0
  5 10  1  6  0  0  0
  5  1  1  0  0  0  0
  5  4  1  0  0  0  0
 12 11  1  0  0  0  0
 15 14  2  6  0  0  0
 15 13  1  0  0  0  0
 15 18  1  0  0  0  0
 16 17  1  0  0  0  0
 16 15  1  0  0  0  0
 18 19  1  0  0  0  0
 19 20  1  0  0  0  0
 20 25  1  0  0  0  0
 20 21  2  0  0  0  0
 21 26  1  0  0  0  0
 22 21  1  0  0  0  0
 23 22  2  0  0  0  0
 24 19  2  0  0  0  0
 24 23  1  0  0  0  0
 27 23  1  0  0  0  0
 28  5  1  0  0  0  0
 29 34  1  0  0  0  0
 29 28  1  0  0  0  0
 30 29  1  0  0  0  0
 31 30  1  0  0  0  0
 32 31  1  0  0  0  0
 32 33  1  0  0  0  0
 33 34  1  0  0  0  0
M  END
>  <minimizedAffinity>
-4.15899324

>  <minimizedRMSD>
1.00070083

$$$$
