
 OpenBabel03272509183D

 30 32  0  0  0  0  0  0  0  0999 V2000
   37.3000   31.3400   47.4910 C   0  0  0  0  0  0  0  0  0  0  0  0
   37.1130   31.4370   48.8660 C   0  0  0  0  0  0  0  0  0  0  0  0
   37.9430   32.3740   49.5170 C   0  0  0  0  0  0  0  0  0  0  0  0
   38.8720   33.1270   48.7800 C   0  0  0  0  0  0  0  0  0  0  0  0
   38.9800   32.9540   47.4080 C   0  0  0  0  0  0  0  0  0  0  0  0
   38.1860   32.0490   46.7490 C   0  0  0  0  0  0  0  0  0  0  0  0
   37.7900   32.4430   50.5830 H   0  0  0  0  0  0  0  0  0  0  0  0
   39.4120   33.7810   49.4210 H   0  0  0  0  0  0  0  0  0  0  0  0
   39.7420   33.6220   47.0610 H   0  0  0  0  0  0  0  0  0  0  0  0
   34.7850   30.8490   49.3820 C   0  0  0  0  0  0  0  0  0  0  0  0
   36.1590   30.6600   49.6000 C   0  0  0  0  0  0  0  0  0  0  0  0
   36.5430   29.7060   50.5380 C   0  0  0  0  0  0  0  0  0  0  0  0
   35.5750   29.0090   51.1940 N   0  0  0  0  0  0  0  0  0  0  0  0
   34.2500   29.2230   50.9550 C   0  0  0  0  0  0  0  0  0  0  0  0
   33.8610   30.1400   50.0510 N   0  0  0  0  0  0  0  0  0  0  0  0
   34.4890   31.5900   48.6530 H   0  0  0  0  0  0  0  0  0  0  0  0
   33.4990   28.6540   51.4920 H   0  0  0  0  0  0  0  0  0  0  0  0
   37.9670   29.4610   50.8080 C   0  0  0  0  0  0  0  0  0  0  0  0
   38.4800   30.4320   51.0000 H   0  0  0  0  0  0  0  0  0  0  0  0
   38.0470   28.8320   51.7230 H   0  0  0  0  0  0  0  0  0  0  0  0
   38.4740   28.8790   50.0100 H   0  0  0  0  0  0  0  0  0  0  0  0
   36.5120   30.4290   46.7790 O   0  0  0  0  0  0  0  0  0  0  0  0
   35.7100   30.7040   46.2350 H   0  0  0  0  0  0  0  0  0  0  0  0
   38.3190   31.9080   45.3940 O   0  0  0  0  0  0  0  0  0  0  0  0
   39.5120   31.7690   44.7050 C   0  0  0  0  0  3  0  0  0  0  0  0
   39.7260   32.8300   43.6530 C   0  0  0  0  0  2  0  0  0  0  0  0
   39.5210   32.3450   42.2550 C   0  0  0  0  0  2  0  0  0  0  0  0
   40.2630   31.0880   41.9190 C   0  0  0  0  0  2  0  0  0  0  0  0
   40.6300   30.2370   43.0790 C   0  0  0  0  0  2  0  0  0  0  0  0
   39.5650   30.3730   44.1200 C   0  0  0  0  0  2  0  0  0  0  0  0
  1  2  1  0  0  0  0
  2  3  2  0  0  0  0
  2 11  1  0  0  0  0
  3  7  1  0  0  0  0
  4  8  1  0  0  0  0
  4  3  1  0  0  0  0
  5  4  2  0  0  0  0
  6  5  1  0  0  0  0
  6  1  2  0  0  0  0
  9  5  1  0  0  0  0
 10 11  2  0  0  0  0
 10 15  1  0  0  0  0
 11 12  1  0  0  0  0
 12 18  1  0  0  0  0
 12 13  2  0  0  0  0
 14 13  1  0  0  0  0
 14 17  1  0  0  0  0
 15 14  2  0  0  0  0
 16 10  1  0  0  0  0
 18 19  1  0  0  0  0
 18 20  1  0  0  0  0
 21 18  1  0  0  0  0
 22  1  1  0  0  0  0
 23 22  1  0  0  0  0
 24  6  1  0  0  0  0
 25 24  1  0  0  0  0
 26 25  1  0  0  0  0
 27 26  1  0  0  0  0
 28 27  1  0  0  0  0
 28 29  1  0  0  0  0
 29 30  1  0  0  0  0
 30 25  1  0  0  0  0
M  END
>  <minimizedAffinity>
-5.67657137

>  <minimizedRMSD>
3.07319164

$$$$
