
 OpenBabel03272504223D

 36 38  0  0  1  0  0  0  0  0999 V2000
   36.7980   31.5720   48.7170 O   0  0  0  0  0  0  0  0  0  0  0  0
   38.7790   32.3500   47.7780 C   0  0  2  0  0  0  0  0  0  0  0  0
   38.1580   31.3540   48.7370 C   0  0  1  0  0  0  0  0  0  0  0  0
   38.7500   31.9040   50.0420 C   0  0  0  0  0  0  0  0  0  0  0  0
   38.4310   33.2460   49.9270 O   0  0  0  0  0  0  0  0  0  0  0  0
   38.6440   33.6160   48.6160 C   0  0  0  0  0  0  0  0  0  0  0  0
   39.8510   32.1550   47.6050 H   0  0  0  0  0  0  0  0  0  0  0  0
   38.4650   30.3190   48.5630 H   0  0  0  0  0  0  0  0  0  0  0  0
   39.8270   31.7140   50.0210 H   0  0  0  0  0  0  0  0  0  0  0  0
   38.2060   31.4090   50.8720 H   0  0  0  0  0  0  0  0  0  0  0  0
   39.5120   34.2790   48.4710 H   0  0  0  0  0  0  0  0  0  0  0  0
   37.7540   34.2240   48.3100 H   0  0  0  0  0  0  0  0  0  0  0  0
   38.0050   32.3910   46.6300 O   0  0  0  0  0  0  0  0  0  0  0  0
   38.8010   31.9980   45.5610 C   0  0  0  0  0  3  0  0  0  0  0  0
   39.2160   33.1240   44.6790 C   0  0  0  0  0  2  0  0  0  0  0  0
   39.6500   32.5580   43.3410 C   0  0  0  0  0  2  0  0  0  0  0  0
   40.3470   31.2560   43.5410 C   0  0  0  0  0  2  0  0  0  0  0  0
   41.0170   31.1420   44.8940 C   0  0  0  0  0  2  0  0  0  0  0  0
   40.0770   31.3040   46.0480 C   0  0  0  0  0  2  0  0  0  0  0  0
   35.8300   29.8550   47.0210 O   0  0  0  0  0  0  0  0  0  0  0  0
   35.9080   30.1620   48.4860 P   0  0  1  0  0  0  0  0  0  0  0  0
   36.7100   28.8460   49.2560 O   0  0  0  0  0  0  0  0  0  0  0  0
   37.4360   29.2020   49.8450 H   0  0  0  0  0  0  0  0  0  0  0  0
   34.3580   30.3310   49.1500 O   0  0  0  0  0  0  0  0  0  0  0  0
   34.0910   29.1720   49.8600 C   0  0  0  0  0  0  0  0  0  0  0  0
   33.5800   29.4010   50.8400 H   0  0  0  0  0  0  0  0  0  0  0  0
   34.9990   28.6050   50.1610 H   0  0  0  0  0  0  0  0  0  0  0  0
   33.2290   28.2220   49.1230 C   0  0  0  0  0  0  0  0  0  0  0  0
   33.8610   27.3350   48.2820 C   0  0  0  0  0  0  0  0  0  0  0  0
   33.1040   26.4110   47.5570 C   0  0  0  0  0  0  0  0  0  0  0  0
   31.7530   26.4510   47.7340 N   0  0  0  0  0  0  0  0  0  0  0  0
   31.1550   27.3290   48.5630 C   0  0  0  0  0  0  0  0  0  0  0  0
   31.8920   28.2190   49.2600 N   0  0  0  0  0  0  0  0  0  0  0  0
   34.9140   27.2290   48.0800 H   0  0  0  0  0  0  0  0  0  0  0  0
   33.5220   25.6790   46.8740 H   0  0  0  0  0  0  0  0  0  0  0  0
   30.0700   27.3010   48.6530 H   0  0  0  0  0  0  0  0  0  0  0  0
  1  3  1  0  0  0  0
  2  7  1  6  0  0  0
  2  6  1  0  0  0  0
  2  3  1  0  0  0  0
  3  8  1  6  0  0  0
  3  4  1  0  0  0  0
  4 10  1  0  0  0  0
  5  4  1  0  0  0  0
  6  5  1  0  0  0  0
  9  4  1  0  0  0  0
 11  6  1  0  0  0  0
 12  6  1  0  0  0  0
 13  2  1  0  0  0  0
 14 19  1  0  0  0  0
 14 13  1  0  0  0  0
 15 14  1  0  0  0  0
 16 17  1  0  0  0  0
 16 15  1  0  0  0  0
 17 18  1  0  0  0  0
 18 19  1  0  0  0  0
 21 20  2  6  0  0  0
 21  1  1  0  0  0  0
 21 24  1  0  0  0  0
 21 22  1  0  0  0  0
 22 23  1  0  0  0  0
 24 25  1  0  0  0  0
 25 27  1  0  0  0  0
 25 26  1  0  0  0  0
 28 33  1  0  0  0  0
 28 25  1  0  0  0  0
 29 28  2  0  0  0  0
 30 31  2  0  0  0  0
 30 29  1  0  0  0  0
 31 32  1  0  0  0  0
 32 36  1  0  0  0  0
 32 33  2  0  0  0  0
 34 29  1  0  0  0  0
 35 30  1  0  0  0  0
M  END
>  <minimizedAffinity>
-5.03868341

>  <minimizedRMSD>
0.335480958

$$$$
