
 OpenBabel03272508573D

 37 40  0  0  1  0  0  0  0  0999 V2000
   38.3550   31.9010   44.5000 C   0  0  0  0  0  0  0  0  0  0  0  0
   37.2590   32.4600   44.4090 O   0  0  0  0  0  0  0  0  0  0  0  0
   38.9210   31.6130   45.8050 N   0  0  0  0  0  0  0  0  0  0  0  0
   39.8930   31.3400   45.9680 H   0  0  0  0  0  0  0  0  0  0  0  0
   39.1310   31.5030   43.3120 C   0  0  0  0  0  0  0  0  0  0  0  0
   40.1180   30.5560   43.4600 C   0  0  0  0  0  0  0  0  0  0  0  0
   40.8360   30.1990   42.3260 C   0  0  0  0  0  0  0  0  0  0  0  0
   40.5260   30.8030   41.1430 C   0  0  0  0  0  0  0  0  0  0  0  0
   39.5390   31.7520   40.9850 C   0  0  0  0  0  0  0  0  0  0  0  0
   38.8570   32.0760   42.1150 N   0  0  0  0  0  0  0  0  0  0  0  0
   40.3470   30.0860   44.4150 H   0  0  0  0  0  0  0  0  0  0  0  0
   41.6010   29.4580   42.4690 H   0  0  0  0  0  0  0  0  0  0  0  0
   41.1450   30.4430   40.3430 H   0  0  0  0  0  0  0  0  0  0  0  0
   39.1980   32.3790   39.6970 C   0  0  2  0  0  3  0  0  0  0  0  0
   38.7030   33.5660   39.7590 O   0  0  0  0  0  1  0  0  0  0  0  0
   39.3100   31.8910   38.2980 C   0  0  0  0  0  3  0  0  0  0  0  0
   38.1980   32.4120   37.4860 C   0  0  0  0  0  2  0  0  0  0  0  0
   38.6720   32.5610   36.0350 C   0  0  0  0  0  2  0  0  0  0  0  0
   39.6430   33.7390   36.0910 C   0  0  0  0  0  2  0  0  0  0  0  0
   40.8420   33.4060   36.9370 C   0  0  0  0  0  2  0  0  0  0  0  0
   40.6880   32.1570   37.7370 C   0  0  0  0  0  2  0  0  0  0  0  0
   38.4310   31.0930   48.1890 C   0  0  2  0  0  0  0  0  0  0  0  0
   38.6730   32.5570   48.1050 C   0  0  0  0  0  0  0  0  0  0  0  0
   38.0650   31.7190   46.9610 C   0  0  1  0  0  0  0  0  0  0  0  0
   39.3600   30.4950   48.2830 H   0  0  0  0  0  0  0  0  0  0  0  0
   39.6890   32.9250   47.9800 H   0  0  0  0  0  0  0  0  0  0  0  0
   38.0110   33.1930   48.7080 H   0  0  0  0  0  0  0  0  0  0  0  0
   36.9950   31.9860   46.7870 H   0  0  0  0  0  0  0  0  0  0  0  0
   35.0650   30.2350   49.5170 C   0  0  0  0  0  0  0  0  0  0  0  0
   35.3980   29.5420   50.7320 C   0  0  0  0  0  0  0  0  0  0  0  0
   36.7970   29.3990   51.0660 C   0  0  0  0  0  0  0  0  0  0  0  0
   37.7570   29.9170   50.2300 N   0  0  0  0  0  0  0  0  0  0  0  0
   37.3460   30.5600   49.0940 C   0  0  0  0  0  0  0  0  0  0  0  0
   36.0220   30.7360   48.7080 N   0  0  0  0  0  0  0  0  0  0  0  0
   34.0270   30.3270   49.2930 H   0  0  0  0  0  0  0  0  0  0  0  0
   34.6570   29.1410   51.3800 H   0  0  0  0  0  0  0  0  0  0  0  0
   37.0470   28.8860   51.9670 H   0  0  0  0  0  0  0  0  0  0  0  0
  1  3  1  0  0  0  0
  2  1  2  0  0  0  0
  3  4  1  0  0  0  0
  3 24  1  0  0  0  0
  5  6  1  0  0  0  0
  5  1  1  0  0  0  0
  6 11  1  0  0  0  0
  7 12  1  0  0  0  0
  7  6  2  0  0  0  0
  8  7  1  0  0  0  0
  9  8  2  0  0  0  0
  9 10  1  0  0  0  0
 10  5  2  0  0  0  0
 13  8  1  0  0  0  0
 14 15  1  1  0  0  0
 14  9  1  0  0  0  0
 16 14  1  0  0  0  0
 17 16  1  0  0  0  0
 18 19  1  0  0  0  0
 18 17  1  0  0  0  0
 19 20  1  0  0  0  0
 20 21  1  0  0  0  0
 21 16  1  0  0  0  0
 22 25  1  6  0  0  0
 22 33  1  0  0  0  0
 23 22  1  0  0  0  0
 23 27  1  0  0  0  0
 24 28  1  6  0  0  0
 24 23  1  0  0  0  0
 24 22  1  0  0  0  0
 26 23  1  0  0  0  0
 29 30  1  0  0  0  0
 30 31  2  0  0  0  0
 30 36  1  0  0  0  0
 31 37  1  0  0  0  0
 32 31  1  0  0  0  0
 33 32  2  0  0  0  0
 34 33  1  0  0  0  0
 34 29  2  0  0  0  0
 35 29  1  0  0  0  0
M  END
>  <minimizedAffinity>
-4.98559856

>  <minimizedRMSD>
0.517905712

$$$$
