
 OpenBabel03272507313D

 26 28  0  0  0  0  0  0  0  0999 V2000
   36.6780   25.7830   32.5290 C   0  0  0  0  0  0  0  0  0  0  0  0
   36.6740   27.1360   32.6720 C   0  0  0  0  0  0  0  0  0  0  0  0
   37.2070   27.4190   33.9400 C   0  0  0  0  0  0  0  0  0  0  0  0
   37.5090   26.1700   34.4980 C   0  0  0  0  0  0  0  0  0  0  0  0
   37.1780   25.2750   33.6280 O   0  0  0  0  0  0  0  0  0  0  0  0
   36.3550   27.9490   32.0270 H   0  0  0  0  0  0  0  0  0  0  0  0
   37.3630   28.3830   34.4080 H   0  0  0  0  0  0  0  0  0  0  0  0
   36.1960   25.1230   31.3380 C   0  0  0  0  0  0  0  0  0  0  0  0
   35.4400   25.7620   30.5740 O   0  0  0  0  0  0  0  0  0  0  0  0
   36.6160   23.7610   31.0980 C   0  0  0  0  0  0  0  0  0  0  0  0
   35.6850   22.7580   31.3250 C   0  0  0  0  0  0  0  0  0  0  0  0
   36.0670   21.4430   31.1020 C   0  0  0  0  0  0  0  0  0  0  0  0
   37.3320   21.2000   30.6740 N   0  0  0  0  0  0  0  0  0  0  0  0
   38.2190   22.1880   30.4610 C   0  0  0  0  0  0  0  0  0  0  0  0
   37.8600   23.4590   30.6730 N   0  0  0  0  0  0  0  0  0  0  0  0
   34.6650   22.8970   31.6660 H   0  0  0  0  0  0  0  0  0  0  0  0
   35.3590   20.6330   31.2700 H   0  0  0  0  0  0  0  0  0  0  0  0
   39.2340   22.0210   30.1190 H   0  0  0  0  0  0  0  0  0  0  0  0
   38.0940   25.9760   35.8300 C   0  0  0  0  0  0  0  0  0  0  0  0
   38.5150   26.9790   36.4850 O   0  0  0  0  0  0  0  0  0  0  0  0
   38.1720   24.5910   36.3660 C   0  0  0  0  0  3  0  0  0  0  0  0
   38.0470   24.6070   37.8620 C   0  0  0  0  0  2  0  0  0  0  0  0
   38.5570   23.3540   38.5200 C   0  0  0  0  0  2  0  0  0  0  0  0
   39.8960   22.9170   37.9950 C   0  0  0  0  0  2  0  0  0  0  0  0
   39.6710   22.6250   36.5140 C   0  0  0  0  0  2  0  0  0  0  0  0
   39.4280   23.9780   35.8610 C   0  0  0  0  0  2  0  0  0  0  0  0
  1  2  2  0  0  0  0
  1  5  1  0  0  0  0
  2  3  1  0  0  0  0
  3  7  1  0  0  0  0
  3  4  2  0  0  0  0
  4 19  1  0  0  0  0
  5  4  1  0  0  0  0
  6  2  1  0  0  0  0
  8  1  1  0  0  0  0
  9  8  2  0  0  0  0
 10 11  1  0  0  0  0
 10  8  1  0  0  0  0
 11 16  1  0  0  0  0
 12 17  1  0  0  0  0
 12 11  2  0  0  0  0
 13 12  1  0  0  0  0
 14 15  1  0  0  0  0
 14 13  2  0  0  0  0
 15 10  2  0  0  0  0
 18 14  1  0  0  0  0
 19 21  1  0  0  0  0
 19 20  2  0  0  0  0
 21 22  1  0  0  0  0
 22 23  1  0  0  0  0
 24 23  1  0  0  0  0
 25 24  1  0  0  0  0
 26 21  1  0  0  0  0
 26 25  1  0  0  0  0
M  END
>  <minimizedAffinity>
-5.63170338

$$$$

 OpenBabel03272507313D

 26 28  0  0  0  0  0  0  0  0999 V2000
   37.6150   26.5970   34.2840 C   0  0  0  0  0  0  0  0  0  0  0  0
   38.0210   27.5430   35.1750 C   0  0  0  0  0  0  0  0  0  0  0  0
   38.3930   26.8700   36.3500 C   0  0  0  0  0  0  0  0  0  0  0  0
   38.1780   25.5120   36.0800 C   0  0  0  0  0  0  0  0  0  0  0  0
   37.7290   25.4320   34.8710 O   0  0  0  0  0  0  0  0  0  0  0  0
   38.0960   28.6250   35.1260 H   0  0  0  0  0  0  0  0  0  0  0  0
   38.7680   27.2860   37.2770 H   0  0  0  0  0  0  0  0  0  0  0  0
   37.1570   26.9250   32.9540 C   0  0  0  0  0  0  0  0  0  0  0  0
   37.3210   28.0950   32.5440 O   0  0  0  0  0  0  0  0  0  0  0  0
   36.5360   25.8800   32.1730 C   0  0  0  0  0  0  0  0  0  0  0  0
   35.3960   26.2130   31.4540 C   0  0  0  0  0  0  0  0  0  0  0  0
   34.7840   25.2250   30.6980 C   0  0  0  0  0  0  0  0  0  0  0  0
   35.3250   23.9800   30.6960 N   0  0  0  0  0  0  0  0  0  0  0  0
   36.4300   23.6790   31.4010 C   0  0  0  0  0  0  0  0  0  0  0  0
   37.0290   24.6250   32.1340 N   0  0  0  0  0  0  0  0  0  0  0  0
   34.9240   27.1890   31.4210 H   0  0  0  0  0  0  0  0  0  0  0  0
   33.8880   25.4560   30.1220 H   0  0  0  0  0  0  0  0  0  0  0  0
   36.8830   22.6940   31.4170 H   0  0  0  0  0  0  0  0  0  0  0  0
   38.4330   24.4260   37.0330 C   0  0  0  0  0  0  0  0  0  0  0  0
   37.8900   24.4540   38.1800 O   0  0  0  0  0  0  0  0  0  0  0  0
   39.3320   23.3190   36.6100 C   0  0  0  0  0  3  0  0  0  0  0  0
   39.9230   22.6440   37.8120 C   0  0  0  0  0  2  0  0  0  0  0  0
   41.1580   21.8420   37.5040 C   0  0  0  0  0  2  0  0  0  0  0  0
   42.1390   22.5830   36.6390 C   0  0  0  0  0  2  0  0  0  0  0  0
   41.4000   22.8500   35.3310 C   0  0  0  0  0  2  0  0  0  0  0  0
   40.3330   23.8820   35.6670 C   0  0  0  0  0  2  0  0  0  0  0  0
  1  5  1  0  0  0  0
  1  2  2  0  0  0  0
  2  3  1  0  0  0  0
  3  7  1  0  0  0  0
  4  3  2  0  0  0  0
  4 19  1  0  0  0  0
  5  4  1  0  0  0  0
  6  2  1  0  0  0  0
  8  1  1  0  0  0  0
  9  8  2  0  0  0  0
 10  8  1  0  0  0  0
 11 10  2  0  0  0  0
 12 11  1  0  0  0  0
 13 12  2  0  0  0  0
 13 14  1  0  0  0  0
 14 18  1  0  0  0  0
 14 15  2  0  0  0  0
 15 10  1  0  0  0  0
 16 11  1  0  0  0  0
 17 12  1  0  0  0  0
 19 20  2  0  0  0  0
 21 19  1  0  0  0  0
 21 22  1  0  0  0  0
 23 22  1  0  0  0  0
 24 23  1  0  0  0  0
 25 26  1  0  0  0  0
 25 24  1  0  0  0  0
 26 21  1  0  0  0  0
M  END
>  <minimizedAffinity>
-5.58926487

$$$$

 OpenBabel03272507313D

 26 28  0  0  0  0  0  0  0  0999 V2000
   37.3590   26.7510   34.3960 C   0  0  0  0  0  0  0  0  0  0  0  0
   38.0380   27.6230   35.1910 C   0  0  0  0  0  0  0  0  0  0  0  0
   38.5060   26.8960   36.2970 C   0  0  0  0  0  0  0  0  0  0  0  0
   38.0620   25.5840   36.0890 C   0  0  0  0  0  0  0  0  0  0  0  0
   37.4090   25.5760   34.9730 O   0  0  0  0  0  0  0  0  0  0  0  0
   38.2520   28.6850   35.1120 H   0  0  0  0  0  0  0  0  0  0  0  0
   39.0860   27.2480   37.1410 H   0  0  0  0  0  0  0  0  0  0  0  0
   36.7330   27.1490   33.1570 C   0  0  0  0  0  0  0  0  0  0  0  0
   36.7180   26.3290   32.2120 O   0  0  0  0  0  0  0  0  0  0  0  0
   36.1600   28.4730   33.0810 C   0  0  0  0  0  0  0  0  0  0  0  0
   36.5210   29.2630   31.9980 C   0  0  0  0  0  0  0  0  0  0  0  0
   35.9830   30.5370   31.9050 C   0  0  0  0  0  0  0  0  0  0  0  0
   35.1310   30.9540   32.8760 N   0  0  0  0  0  0  0  0  0  0  0  0
   34.7950   30.1720   33.9170 C   0  0  0  0  0  0  0  0  0  0  0  0
   35.3080   28.9410   34.0160 N   0  0  0  0  0  0  0  0  0  0  0  0
   37.1950   28.9800   31.1970 H   0  0  0  0  0  0  0  0  0  0  0  0
   36.2470   31.1810   31.0660 H   0  0  0  0  0  0  0  0  0  0  0  0
   34.1170   30.4800   34.7050 H   0  0  0  0  0  0  0  0  0  0  0  0
   38.3210   24.4650   37.0010 C   0  0  0  0  0  0  0  0  0  0  0  0
   37.7640   24.4410   38.1420 O   0  0  0  0  0  0  0  0  0  0  0  0
   39.2420   23.3880   36.5480 C   0  0  0  0  0  3  0  0  0  0  0  0
   39.8530   22.6970   37.7300 C   0  0  0  0  0  2  0  0  0  0  0  0
   41.1040   21.9290   37.3970 C   0  0  0  0  0  2  0  0  0  0  0  0
   42.0640   22.7120   36.5460 C   0  0  0  0  0  2  0  0  0  0  0  0
   41.3130   22.9950   35.2480 C   0  0  0  0  0  2  0  0  0  0  0  0
   40.2260   23.9950   35.6140 C   0  0  0  0  0  2  0  0  0  0  0  0
  1  5  1  0  0  0  0
  1  2  2  0  0  0  0
  2  3  1  0  0  0  0
  3  7  1  0  0  0  0
  4  3  2  0  0  0  0
  4 19  1  0  0  0  0
  5  4  1  0  0  0  0
  6  2  1  0  0  0  0
  8  1  1  0  0  0  0
  9  8  2  0  0  0  0
 10  8  1  0  0  0  0
 10 15  1  0  0  0  0
 11 10  2  0  0  0  0
 12 11  1  0  0  0  0
 12 13  2  0  0  0  0
 13 14  1  0  0  0  0
 14 15  2  0  0  0  0
 14 18  1  0  0  0  0
 16 11  1  0  0  0  0
 17 12  1  0  0  0  0
 19 20  2  0  0  0  0
 21 19  1  0  0  0  0
 21 22  1  0  0  0  0
 23 22  1  0  0  0  0
 24 23  1  0  0  0  0
 25 26  1  0  0  0  0
 25 24  1  0  0  0  0
 26 21  1  0  0  0  0
M  END
>  <minimizedAffinity>
-5.38038921

$$$$

 OpenBabel03272507313D

 26 28  0  0  0  0  0  0  0  0999 V2000
   35.8620   28.6160   33.7880 C   0  0  0  0  0  0  0  0  0  0  0  0
   36.4370   28.1840   32.6310 C   0  0  0  0  0  0  0  0  0  0  0  0
   37.5110   27.3540   32.9890 C   0  0  0  0  0  0  0  0  0  0  0  0
   37.5140   27.3400   34.3900 C   0  0  0  0  0  0  0  0  0  0  0  0
   36.5360   28.0890   34.7800 O   0  0  0  0  0  0  0  0  0  0  0  0
   36.2170   28.3620   31.5830 H   0  0  0  0  0  0  0  0  0  0  0  0
   38.2020   26.8270   32.3430 H   0  0  0  0  0  0  0  0  0  0  0  0
   34.7180   29.4970   33.8080 C   0  0  0  0  0  0  0  0  0  0  0  0
   33.8970   29.4210   32.8670 O   0  0  0  0  0  0  0  0  0  0  0  0
   34.5880   30.4150   34.9170 C   0  0  0  0  0  0  0  0  0  0  0  0
   35.6750   31.2310   35.1990 C   0  0  0  0  0  0  0  0  0  0  0  0
   35.5720   32.1190   36.2590 C   0  0  0  0  0  0  0  0  0  0  0  0
   34.4150   32.1500   36.9700 N   0  0  0  0  0  0  0  0  0  0  0  0
   33.3740   31.3500   36.6770 C   0  0  0  0  0  0  0  0  0  0  0  0
   33.4630   30.4900   35.6580 N   0  0  0  0  0  0  0  0  0  0  0  0
   36.6180   31.2460   34.6650 H   0  0  0  0  0  0  0  0  0  0  0  0
   36.4070   32.7730   36.5060 H   0  0  0  0  0  0  0  0  0  0  0  0
   32.4400   31.3550   37.2280 H   0  0  0  0  0  0  0  0  0  0  0  0
   38.4740   26.5940   35.2100 C   0  0  0  0  0  0  0  0  0  0  0  0
   39.5840   27.1260   35.5220 O   0  0  0  0  0  0  0  0  0  0  0  0
   38.1040   25.2210   35.6490 C   0  0  0  0  0  3  0  0  0  0  0  0
   37.9440   25.1800   37.1400 C   0  0  0  0  0  2  0  0  0  0  0  0
   38.0210   23.7910   37.7140 C   0  0  0  0  0  2  0  0  0  0  0  0
   39.1760   22.9950   37.1720 C   0  0  0  0  0  2  0  0  0  0  0  0
   38.9180   22.8820   35.6720 C   0  0  0  0  0  2  0  0  0  0  0  0
   39.1250   24.2820   35.1140 C   0  0  0  0  0  2  0  0  0  0  0  0
  1  8  1  0  0  0  0
  1  5  1  0  0  0  0
  2  3  1  0  0  0  0
  2  1  2  0  0  0  0
  3  4  2  0  0  0  0
  4  5  1  0  0  0  0
  4 19  1  0  0  0  0
  6  2  1  0  0  0  0
  7  3  1  0  0  0  0
  8 10  1  0  0  0  0
  9  8  2  0  0  0  0
 10 11  2  0  0  0  0
 10 15  1  0  0  0  0
 11 12  1  0  0  0  0
 12 17  1  0  0  0  0
 12 13  2  0  0  0  0
 14 13  1  0  0  0  0
 14 18  1  0  0  0  0
 15 14  2  0  0  0  0
 16 11  1  0  0  0  0
 19 20  2  0  0  0  0
 19 21  1  0  0  0  0
 21 22  1  0  0  0  0
 22 23  1  0  0  0  0
 24 23  1  0  0  0  0
 25 24  1  0  0  0  0
 26 21  1  0  0  0  0
 26 25  1  0  0  0  0
M  END
>  <minimizedAffinity>
-5.30960703

$$$$

 OpenBabel03272507313D

 26 28  0  0  0  0  0  0  0  0999 V2000
   38.4140   25.0610   33.6720 C   0  0  0  0  0  0  0  0  0  0  0  0
   38.1990   25.9410   32.6560 C   0  0  0  0  0  0  0  0  0  0  0  0
   37.3360   25.3160   31.7430 C   0  0  0  0  0  0  0  0  0  0  0  0
   37.0770   24.0520   32.2890 C   0  0  0  0  0  0  0  0  0  0  0  0
   37.7310   23.9770   33.4000 O   0  0  0  0  0  0  0  0  0  0  0  0
   38.5550   26.9490   32.4600 H   0  0  0  0  0  0  0  0  0  0  0  0
   36.9400   25.7030   30.8130 H   0  0  0  0  0  0  0  0  0  0  0  0
   39.2610   25.3660   34.8020 C   0  0  0  0  0  0  0  0  0  0  0  0
   40.0750   26.3090   34.6930 O   0  0  0  0  0  0  0  0  0  0  0  0
   39.1170   24.5620   35.9940 C   0  0  0  0  0  0  0  0  0  0  0  0
   38.0650   24.8690   36.8460 C   0  0  0  0  0  0  0  0  0  0  0  0
   37.9080   24.1110   37.9970 C   0  0  0  0  0  0  0  0  0  0  0  0
   38.7890   23.1060   38.2360 N   0  0  0  0  0  0  0  0  0  0  0  0
   39.8010   22.8260   37.3960 C   0  0  0  0  0  0  0  0  0  0  0  0
   39.9610   23.5510   36.2840 N   0  0  0  0  0  0  0  0  0  0  0  0
   37.3350   25.6590   36.7030 H   0  0  0  0  0  0  0  0  0  0  0  0
   37.0920   24.3270   38.6860 H   0  0  0  0  0  0  0  0  0  0  0  0
   40.5170   22.0300   37.5630 H   0  0  0  0  0  0  0  0  0  0  0  0
   36.2130   23.0420   31.6690 C   0  0  0  0  0  0  0  0  0  0  0  0
   35.3040   23.4010   30.8580 O   0  0  0  0  0  0  0  0  0  0  0  0
   36.4380   21.6140   32.0220 C   0  0  0  0  0  3  0  0  0  0  0  0
   36.3410   20.7550   30.7960 C   0  0  0  0  0  2  0  0  0  0  0  0
   36.1020   19.3010   31.0980 C   0  0  0  0  0  2  0  0  0  0  0  0
   35.0190   19.0830   32.1180 C   0  0  0  0  0  2  0  0  0  0  0  0
   35.5220   19.7620   33.3890 C   0  0  0  0  0  2  0  0  0  0  0  0
   35.4790   21.2560   33.1000 C   0  0  0  0  0  2  0  0  0  0  0  0
  1  8  1  0  0  0  0
  2  1  2  0  0  0  0
  3  4  2  0  0  0  0
  3  2  1  0  0  0  0
  4  5  1  0  0  0  0
  5  1  1  0  0  0  0
  6  2  1  0  0  0  0
  7  3  1  0  0  0  0
  8 10  1  0  0  0  0
  9  8  2  0  0  0  0
 10 15  2  0  0  0  0
 10 11  1  0  0  0  0
 11 12  2  0  0  0  0
 12 13  1  0  0  0  0
 12 17  1  0  0  0  0
 14 18  1  0  0  0  0
 14 13  2  0  0  0  0
 15 14  1  0  0  0  0
 16 11  1  0  0  0  0
 19 21  1  0  0  0  0
 19  4  1  0  0  0  0
 20 19  2  0  0  0  0
 21 26  1  0  0  0  0
 22 23  1  0  0  0  0
 22 21  1  0  0  0  0
 23 24  1  0  0  0  0
 24 25  1  0  0  0  0
 26 25  1  0  0  0  0
M  END
>  <minimizedAffinity>
-5.28812408

$$$$

 OpenBabel03272507313D

 26 28  0  0  0  0  0  0  0  0999 V2000
   37.9150   27.1310   34.2600 C   0  0  0  0  0  0  0  0  0  0  0  0
   37.9870   27.2320   32.9050 C   0  0  0  0  0  0  0  0  0  0  0  0
   36.9340   28.0650   32.4960 C   0  0  0  0  0  0  0  0  0  0  0  0
   36.2690   28.4230   33.6760 C   0  0  0  0  0  0  0  0  0  0  0  0
   36.8910   27.8490   34.6520 O   0  0  0  0  0  0  0  0  0  0  0  0
   38.6630   26.8140   32.1650 H   0  0  0  0  0  0  0  0  0  0  0  0
   36.6690   28.3780   31.4940 H   0  0  0  0  0  0  0  0  0  0  0  0
   38.8480   26.3460   35.0350 C   0  0  0  0  0  0  0  0  0  0  0  0
   39.9600   26.8510   35.3080 O   0  0  0  0  0  0  0  0  0  0  0  0
   38.4420   25.0230   35.4500 C   0  0  0  0  0  0  0  0  0  0  0  0
   38.0350   24.8650   36.7670 C   0  0  0  0  0  0  0  0  0  0  0  0
   37.6410   23.6040   37.1870 C   0  0  0  0  0  0  0  0  0  0  0  0
   37.6730   22.5830   36.2920 N   0  0  0  0  0  0  0  0  0  0  0  0
   38.0720   22.7590   35.0200 C   0  0  0  0  0  0  0  0  0  0  0  0
   38.4540   23.9720   34.6050 N   0  0  0  0  0  0  0  0  0  0  0  0
   37.9910   25.6440   37.5210 H   0  0  0  0  0  0  0  0  0  0  0  0
   37.3160   23.4480   38.2150 H   0  0  0  0  0  0  0  0  0  0  0  0
   38.1070   21.9620   34.2860 H   0  0  0  0  0  0  0  0  0  0  0  0
   35.0910   29.2950   33.7340 C   0  0  0  0  0  0  0  0  0  0  0  0
   34.3850   29.4690   32.6930 O   0  0  0  0  0  0  0  0  0  0  0  0
   34.7660   29.9520   35.0280 C   0  0  0  0  0  3  0  0  0  0  0  0
   33.3170   30.3390   35.0640 C   0  0  0  0  0  2  0  0  0  0  0  0
   33.0000   31.3840   36.0990 C   0  0  0  0  0  2  0  0  0  0  0  0
   33.9680   32.5330   36.0890 C   0  0  0  0  0  2  0  0  0  0  0  0
   35.3240   31.9200   36.4250 C   0  0  0  0  0  2  0  0  0  0  0  0
   35.7090   31.0860   35.2120 C   0  0  0  0  0  2  0  0  0  0  0  0
  1  5  1  0  0  0  0
  1  8  1  0  0  0  0
  2  1  2  0  0  0  0
  3  2  1  0  0  0  0
  3  4  2  0  0  0  0
  4 19  1  0  0  0  0
  4  5  1  0  0  0  0
  6  2  1  0  0  0  0
  7  3  1  0  0  0  0
  8  9  2  0  0  0  0
  8 10  1  0  0  0  0
 10 11  1  0  0  0  0
 11 12  2  0  0  0  0
 11 16  1  0  0  0  0
 12 17  1  0  0  0  0
 13 12  1  0  0  0  0
 14 13  2  0  0  0  0
 15 14  1  0  0  0  0
 15 10  2  0  0  0  0
 18 14  1  0  0  0  0
 19 21  1  0  0  0  0
 20 19  2  0  0  0  0
 21 22  1  0  0  0  0
 21 26  1  0  0  0  0
 22 23  1  0  0  0  0
 24 23  1  0  0  0  0
 24 25  1  0  0  0  0
 26 25  1  0  0  0  0
M  END
>  <minimizedAffinity>
-5.22879028

$$$$

 OpenBabel03272507313D

 26 28  0  0  0  0  0  0  0  0999 V2000
   37.9310   25.5010   35.8980 C   0  0  0  0  0  0  0  0  0  0  0  0
   38.4520   26.6320   36.4460 C   0  0  0  0  0  0  0  0  0  0  0  0
   38.0590   27.7050   35.6310 C   0  0  0  0  0  0  0  0  0  0  0  0
   37.2980   27.1280   34.6060 C   0  0  0  0  0  0  0  0  0  0  0  0
   37.2670   25.8550   34.8260 O   0  0  0  0  0  0  0  0  0  0  0  0
   39.0620   26.8180   37.3250 H   0  0  0  0  0  0  0  0  0  0  0  0
   38.2810   28.7590   35.7460 H   0  0  0  0  0  0  0  0  0  0  0  0
   38.1320   24.1910   36.4740 C   0  0  0  0  0  0  0  0  0  0  0  0
   37.1740   23.6560   37.0740 O   0  0  0  0  0  0  0  0  0  0  0  0
   39.4300   23.5750   36.3220 C   0  0  0  0  0  0  0  0  0  0  0  0
   39.8870   22.7860   37.3690 C   0  0  0  0  0  0  0  0  0  0  0  0
   41.1300   22.1850   37.2440 C   0  0  0  0  0  0  0  0  0  0  0  0
   41.8420   22.3950   36.1070 N   0  0  0  0  0  0  0  0  0  0  0  0
   41.3790   23.1640   35.1050 C   0  0  0  0  0  0  0  0  0  0  0  0
   40.1810   23.7480   35.2150 N   0  0  0  0  0  0  0  0  0  0  0  0
   39.3610   22.5850   38.2950 H   0  0  0  0  0  0  0  0  0  0  0  0
   41.5170   21.5590   38.0480 H   0  0  0  0  0  0  0  0  0  0  0  0
   41.9260   23.3480   34.1880 H   0  0  0  0  0  0  0  0  0  0  0  0
   36.6750   27.8790   33.5110 C   0  0  0  0  0  0  0  0  0  0  0  0
   35.8070   28.7690   33.7720 O   0  0  0  0  0  0  0  0  0  0  0  0
   37.0900   27.5640   32.1180 C   0  0  0  0  0  3  0  0  0  0  0  0
   38.5830   27.4430   32.0360 C   0  0  0  0  0  2  0  0  0  0  0  0
   39.1210   27.5790   30.6380 C   0  0  0  0  0  2  0  0  0  0  0  0
   38.5320   28.7430   29.8920 C   0  0  0  0  0  2  0  0  0  0  0  0
   37.0370   28.4500   29.8050 C   0  0  0  0  0  2  0  0  0  0  0  0
   36.5070   28.5990   31.2240 C   0  0  0  0  0  2  0  0  0  0  0  0
  1  2  2  0  0  0  0
  1  8  1  0  0  0  0
  2  6  1  0  0  0  0
  3  7  1  0  0  0  0
  3  2  1  0  0  0  0
  4  5  1  0  0  0  0
  4  3  2  0  0  0  0
  5  1  1  0  0  0  0
  8  9  2  0  0  0  0
 10  8  1  0  0  0  0
 10 11  1  0  0  0  0
 11 16  1  0  0  0  0
 12 11  2  0  0  0  0
 12 17  1  0  0  0  0
 13 12  1  0  0  0  0
 14 15  1  0  0  0  0
 14 13  2  0  0  0  0
 15 10  2  0  0  0  0
 18 14  1  0  0  0  0
 19 20  2  0  0  0  0
 19  4  1  0  0  0  0
 21 19  1  0  0  0  0
 22 21  1  0  0  0  0
 23 22  1  0  0  0  0
 24 23  1  0  0  0  0
 25 24  1  0  0  0  0
 25 26  1  0  0  0  0
 26 21  1  0  0  0  0
M  END
>  <minimizedAffinity>
-5.22769356

$$$$

 OpenBabel03272507313D

 26 28  0  0  0  0  0  0  0  0999 V2000
   41.6690   25.5410   34.7640 C   0  0  0  0  0  0  0  0  0  0  0  0
   42.9620   25.3490   35.1460 C   0  0  0  0  0  0  0  0  0  0  0  0
   43.0330   24.0760   35.7350 C   0  0  0  0  0  0  0  0  0  0  0  0
   41.7300   23.5660   35.6670 C   0  0  0  0  0  0  0  0  0  0  0  0
   41.0000   24.4650   35.0950 O   0  0  0  0  0  0  0  0  0  0  0  0
   43.8550   25.9610   35.0740 H   0  0  0  0  0  0  0  0  0  0  0  0
   43.8950   23.5740   36.1570 H   0  0  0  0  0  0  0  0  0  0  0  0
   41.2190   26.7510   34.1160 C   0  0  0  0  0  0  0  0  0  0  0  0
   42.0790   27.4970   33.5960 O   0  0  0  0  0  0  0  0  0  0  0  0
   39.8020   27.0290   34.1050 C   0  0  0  0  0  0  0  0  0  0  0  0
   39.1730   27.1850   35.3330 C   0  0  0  0  0  0  0  0  0  0  0  0
   37.8130   27.4510   35.3460 C   0  0  0  0  0  0  0  0  0  0  0  0
   37.1590   27.5470   34.1590 N   0  0  0  0  0  0  0  0  0  0  0  0
   37.7880   27.3920   32.9810 C   0  0  0  0  0  0  0  0  0  0  0  0
   39.1000   27.1340   32.9570 N   0  0  0  0  0  0  0  0  0  0  0  0
   39.6470   27.1190   36.3060 H   0  0  0  0  0  0  0  0  0  0  0  0
   37.2910   27.5790   36.2940 H   0  0  0  0  0  0  0  0  0  0  0  0
   37.2900   27.4630   32.0210 H   0  0  0  0  0  0  0  0  0  0  0  0
   41.3280   22.2480   36.1690 C   0  0  0  0  0  0  0  0  0  0  0  0
   42.1070   21.2560   36.0270 O   0  0  0  0  0  0  0  0  0  0  0  0
   40.0020   22.1240   36.8320 C   0  0  0  0  0  3  0  0  0  0  0  0
   38.9020   22.2460   35.8190 C   0  0  0  0  0  2  0  0  0  0  0  0
   37.5660   22.5860   36.4210 C   0  0  0  0  0  2  0  0  0  0  0  0
   37.6400   23.7050   37.4220 C   0  0  0  0  0  2  0  0  0  0  0  0
   38.5520   23.1910   38.5330 C   0  0  0  0  0  2  0  0  0  0  0  0
   39.9450   23.1300   37.9250 C   0  0  0  0  0  2  0  0  0  0  0  0
  1  5  1  0  0  0  0
  1  2  2  0  0  0  0
  2  3  1  0  0  0  0
  3  7  1  0  0  0  0
  4  3  2  0  0  0  0
  4 19  1  0  0  0  0
  5  4  1  0  0  0  0
  6  2  1  0  0  0  0
  8  1  1  0  0  0  0
  9  8  2  0  0  0  0
 10  8  1  0  0  0  0
 10 11  1  0  0  0  0
 11 12  2  0  0  0  0
 11 16  1  0  0  0  0
 12 17  1  0  0  0  0
 13 12  1  0  0  0  0
 14 13  2  0  0  0  0
 15 14  1  0  0  0  0
 15 10  2  0  0  0  0
 18 14  1  0  0  0  0
 19 21  1  0  0  0  0
 20 19  2  0  0  0  0
 21 26  1  0  0  0  0
 22 23  1  0  0  0  0
 22 21  1  0  0  0  0
 23 24  1  0  0  0  0
 24 25  1  0  0  0  0
 26 25  1  0  0  0  0
M  END
>  <minimizedAffinity>
-5.1779542

$$$$

 OpenBabel03272507313D

 26 28  0  0  0  0  0  0  0  0999 V2000
   36.4570   26.2490   31.4060 C   0  0  0  0  0  0  0  0  0  0  0  0
   35.2650   25.8470   30.8850 C   0  0  0  0  0  0  0  0  0  0  0  0
   35.1580   24.4660   31.1180 C   0  0  0  0  0  0  0  0  0  0  0  0
   36.3370   24.1140   31.7880 C   0  0  0  0  0  0  0  0  0  0  0  0
   37.0360   25.1920   31.9190 O   0  0  0  0  0  0  0  0  0  0  0  0
   34.4660   26.3710   30.3710 H   0  0  0  0  0  0  0  0  0  0  0  0
   34.3510   23.7960   30.8480 H   0  0  0  0  0  0  0  0  0  0  0  0
   36.9090   27.6200   31.3510 C   0  0  0  0  0  0  0  0  0  0  0  0
   37.9040   27.8850   30.6410 O   0  0  0  0  0  0  0  0  0  0  0  0
   36.1840   28.6050   32.1200 C   0  0  0  0  0  0  0  0  0  0  0  0
   36.1950   28.4700   33.5010 C   0  0  0  0  0  0  0  0  0  0  0  0
   35.5050   29.4050   34.2580 C   0  0  0  0  0  0  0  0  0  0  0  0
   34.8520   30.4070   33.6150 N   0  0  0  0  0  0  0  0  0  0  0  0
   34.8560   30.5180   32.2750 C   0  0  0  0  0  0  0  0  0  0  0  0
   35.5180   29.6220   31.5350 N   0  0  0  0  0  0  0  0  0  0  0  0
   36.6980   27.6910   34.0630 H   0  0  0  0  0  0  0  0  0  0  0  0
   35.4940   29.3260   35.3450 H   0  0  0  0  0  0  0  0  0  0  0  0
   34.3440   31.3080   31.7370 H   0  0  0  0  0  0  0  0  0  0  0  0
   36.6620   22.7550   32.2350 C   0  0  0  0  0  0  0  0  0  0  0  0
   37.4980   22.5850   33.1760 O   0  0  0  0  0  0  0  0  0  0  0  0
   35.9920   21.6140   31.5570 C   0  0  0  0  0  3  0  0  0  0  0  0
   35.1380   20.8600   32.5340 C   0  0  0  0  0  2  0  0  0  0  0  0
   34.7920   19.4670   32.0800 C   0  0  0  0  0  2  0  0  0  0  0  0
   35.9780   18.7110   31.5500 C   0  0  0  0  0  2  0  0  0  0  0  0
   36.4550   19.5080   30.3380 C   0  0  0  0  0  2  0  0  0  0  0  0
   37.0420   20.7940   30.8990 C   0  0  0  0  0  2  0  0  0  0  0  0
  1  5  1  0  0  0  0
  2  3  1  0  0  0  0
  2  1  2  0  0  0  0
  3  4  2  0  0  0  0
  4  5  1  0  0  0  0
  4 19  1  0  0  0  0
  6  2  1  0  0  0  0
  7  3  1  0  0  0  0
  8  1  1  0  0  0  0
  8 10  1  0  0  0  0
  9  8  2  0  0  0  0
 10 11  1  0  0  0  0
 11 16  1  0  0  0  0
 11 12  2  0  0  0  0
 12 17  1  0  0  0  0
 13 12  1  0  0  0  0
 14 13  2  0  0  0  0
 15 10  2  0  0  0  0
 15 14  1  0  0  0  0
 18 14  1  0  0  0  0
 19 20  2  0  0  0  0
 21 19  1  0  0  0  0
 21 22  1  0  0  0  0
 23 22  1  0  0  0  0
 24 23  1  0  0  0  0
 25 26  1  0  0  0  0
 25 24  1  0  0  0  0
 26 21  1  0  0  0  0
M  END
>  <minimizedAffinity>
-5.1484642

$$$$
