
 OpenBabel03272509263D

 22 23  0  0  0  0  0  0  0  0999 V2000
   35.4980   29.1910   47.2210 C   0  0  0  0  0  0  0  0  0  0  0  0
   36.3010   28.4870   46.9260 H   0  0  0  0  0  0  0  0  0  0  0  0
   34.5210   28.9210   46.7710 H   0  0  0  0  0  0  0  0  0  0  0  0
   36.3790   29.2650   50.8810 C   0  0  0  0  0  0  0  0  0  0  0  0
   36.5490   29.1960   49.4990 C   0  0  0  0  0  0  0  0  0  0  0  0
   35.4380   29.2540   48.6830 C   0  0  0  0  0  0  0  0  0  0  0  0
   34.2070   29.3800   49.2980 N   0  0  0  0  0  0  0  0  0  0  0  0
   34.0910   29.4420   50.6240 C   0  0  0  0  0  0  0  0  0  0  0  0
   35.1530   29.3880   51.4390 N   0  0  0  0  0  0  0  0  0  0  0  0
   37.2890   29.2140   51.4680 H   0  0  0  0  0  0  0  0  0  0  0  0
   37.5200   29.1020   49.0860 H   0  0  0  0  0  0  0  0  0  0  0  0
   33.1220   29.5410   51.1060 H   0  0  0  0  0  0  0  0  0  0  0  0
   35.8480   30.5610   46.6410 C   0  0  0  0  0  0  0  0  0  0  0  0
   35.2800   30.8320   45.7540 H   0  0  0  0  0  0  0  0  0  0  0  0
   35.4810   31.2680   47.4460 H   0  0  0  0  0  0  0  0  0  0  0  0
   37.6200   30.7900   46.5660 S   0  0  0  0  0  0  0  0  0  0  0  0
   38.1820   32.3610   47.2460 C   0  0  0  0  0  3  0  0  0  0  0  0
   39.3660   32.8390   46.4420 C   0  0  0  0  0  2  0  0  0  0  0  0
   40.3380   33.6020   47.3300 C   0  0  0  0  0  2  0  0  0  0  0  0
   39.5670   34.3450   48.3950 C   0  0  0  0  0  2  0  0  0  0  0  0
   38.9340   33.4060   49.3890 C   0  0  0  0  0  2  0  0  0  0  0  0
   38.6170   32.1120   48.6750 C   0  0  0  0  0  2  0  0  0  0  0  0
  1  6  1  0  0  0  0
  2  1  1  0  0  0  0
  3  1  1  0  0  0  0
  4  9  1  0  0  0  0
  4 10  1  0  0  0  0
  5  4  2  0  0  0  0
  6  7  2  0  0  0  0
  6  5  1  0  0  0  0
  7  8  1  0  0  0  0
  8 12  1  0  0  0  0
  8  9  2  0  0  0  0
 11  5  1  0  0  0  0
 13  1  1  0  0  0  0
 13 15  1  0  0  0  0
 14 13  1  0  0  0  0
 16 13  1  0  0  0  0
 16 17  1  0  0  0  0
 17 22  1  0  0  0  0
 18 17  1  0  0  0  0
 18 19  1  0  0  0  0
 19 20  1  0  0  0  0
 20 21  1  0  0  0  0
 22 21  1  0  0  0  0
M  END
>  <minimizedAffinity>
-3.46387887

>  <minimizedRMSD>
2.67644048

$$$$
