
 OpenBabel03272506393D

 34 36  0  0  1  0  0  0  0  0999 V2000
   34.3960   29.2490   50.0830 O   0  0  0  0  0  0  0  0  0  0  0  0
   34.2430   29.3610   48.8600 C   0  0  0  0  0  0  0  0  0  0  0  0
   35.0660   30.2510   48.0680 C   0  0  2  0  0  0  0  0  0  0  0  0
   34.6200   29.8600   46.6180 C   0  0  0  0  0  0  0  0  0  0  0  0
   33.2060   29.3870   46.8340 C   0  0  0  0  0  0  0  0  0  0  0  0
   33.2650   28.6460   48.0880 N   0  0  0  0  0  0  0  0  0  0  0  0
   34.8290   31.3230   48.1850 H   0  0  0  0  0  0  0  0  0  0  0  0
   34.7160   30.7130   45.9420 H   0  0  0  0  0  0  0  0  0  0  0  0
   35.2200   28.9860   46.3380 H   0  0  0  0  0  0  0  0  0  0  0  0
   32.8460   28.7590   46.0030 H   0  0  0  0  0  0  0  0  0  0  0  0
   32.5460   30.2560   47.0260 H   0  0  0  0  0  0  0  0  0  0  0  0
   32.4970   27.4590   48.4410 C   0  0  0  0  0  0  0  0  0  0  0  0
   32.7810   27.0760   49.4430 H   0  0  0  0  0  0  0  0  0  0  0  0
   32.7230   26.6980   47.6810 H   0  0  0  0  0  0  0  0  0  0  0  0
   31.0260   27.7330   48.3740 C   0  0  0  0  0  3  0  0  0  0  0  0
   30.3710   26.5110   47.7170 C   0  0  0  0  0  2  0  0  0  0  0  0
   28.9370   26.7460   47.3770 C   0  0  0  0  0  2  0  0  0  0  0  0
   28.4080   27.8920   48.2000 C   0  0  0  0  0  2  0  0  0  0  0  0
   28.8800   27.7380   49.6380 C   0  0  0  0  0  2  0  0  0  0  0  0
   30.3790   27.8640   49.7380 C   0  0  0  0  0  2  0  0  0  0  0  0
   36.4620   29.9680   48.1200 O   0  0  0  0  0  0  0  0  0  0  0  0
   37.3350   31.0480   48.2320 C   0  0  0  0  0  0  0  0  0  0  0  0
   37.5060   31.5810   49.4980 C   0  0  0  0  0  0  0  0  0  0  0  0
   38.3690   32.6580   49.6430 C   0  0  0  0  0  0  0  0  0  0  0  0
   39.0050   33.1410   48.5420 N   0  0  0  0  0  0  0  0  0  0  0  0
   38.8280   32.6140   47.3210 C   0  0  0  0  0  0  0  0  0  0  0  0
   38.0010   31.5810   47.1840 N   0  0  0  0  0  0  0  0  0  0  0  0
   40.3440   32.1820   45.5470 C   0  0  0  0  0  0  0  0  0  0  0  0
   40.5350   30.9810   45.8680 O   0  0  0  0  0  0  0  0  0  0  0  0
   39.5080   33.1450   46.1840 N   0  0  0  0  0  0  0  0  0  0  0  0
   37.0340   31.2440   50.3970 H   0  0  0  0  0  0  0  0  0  0  0  0
   38.5380   33.1070   50.5980 H   0  0  0  0  0  0  0  0  0  0  0  0
   40.9590   32.3380   44.6690 H   0  0  0  0  0  0  0  0  0  0  0  0
   39.4860   34.0980   45.7600 H   0  0  0  0  0  0  0  0  0  0  0  0
  2  1  2  0  0  0  0
  3 21  1  0  0  0  0
  3  7  1  1  0  0  0
  3  2  1  0  0  0  0
  4  5  1  0  0  0  0
  4  3  1  0  0  0  0
  5 11  1  0  0  0  0
  5  6  1  0  0  0  0
  6 12  1  0  0  0  0
  6  2  1  0  0  0  0
  8  4  1  0  0  0  0
  9  4  1  0  0  0  0
 10  5  1  0  0  0  0
 12 13  1  0  0  0  0
 14 12  1  0  0  0  0
 15 12  1  0  0  0  0
 15 20  1  0  0  0  0
 16 15  1  0  0  0  0
 17 16  1  0  0  0  0
 17 18  1  0  0  0  0
 18 19  1  0  0  0  0
 19 20  1  0  0  0  0
 21 22  1  0  0  0  0
 22 23  1  0  0  0  0
 23 24  2  0  0  0  0
 23 31  1  0  0  0  0
 24 32  1  0  0  0  0
 25 24  1  0  0  0  0
 26 25  2  0  0  0  0
 27 26  1  0  0  0  0
 27 22  2  0  0  0  0
 28 29  2  0  0  0  0
 28 30  1  0  0  0  0
 30 26  1  0  0  0  0
 33 28  1  0  0  0  0
 34 30  1  0  0  0  0
M  END
>  <minimizedAffinity>
-6.20645761

>  <minimizedRMSD>
1.36412907

$$$$
