
 OpenBabel03272500593D

 32 34  0  0  0  0  0  0  0  0999 V2000
   39.9290   25.3960   34.4170 C   0  0  0  0  0  0  0  0  0  0  0  0
   40.6600   26.5030   34.7250 C   0  0  0  0  0  0  0  0  0  0  0  0
   41.1700   27.3620   33.7540 C   0  0  0  0  0  0  0  0  0  0  0  0
   40.8980   27.0400   32.3670 C   0  0  0  0  0  0  0  0  0  0  0  0
   40.1640   25.9230   32.1250 C   0  0  0  0  0  0  0  0  0  0  0  0
   39.6810   25.1050   33.0620 C   0  0  0  0  0  0  0  0  0  0  0  0
   40.8860   26.7800   35.7570 H   0  0  0  0  0  0  0  0  0  0  0  0
   41.7540   28.2410   34.0650 H   0  0  0  0  0  0  0  0  0  0  0  0
   41.3460   27.7800   31.7280 H   0  0  0  0  0  0  0  0  0  0  0  0
   40.0640   25.8960   31.0510 H   0  0  0  0  0  0  0  0  0  0  0  0
   38.2450   25.0520   36.1550 C   0  0  0  0  0  0  0  0  0  0  0  0
   39.4480   24.6220   35.5380 C   0  0  0  0  0  0  0  0  0  0  0  0
   39.9980   23.4980   36.0960 C   0  0  0  0  0  0  0  0  0  0  0  0
   39.4190   22.8840   37.1350 N   0  0  0  0  0  0  0  0  0  0  0  0
   38.3000   23.2950   37.6970 C   0  0  0  0  0  0  0  0  0  0  0  0
   37.7240   24.3780   37.1990 N   0  0  0  0  0  0  0  0  0  0  0  0
   37.7540   25.9420   35.7590 H   0  0  0  0  0  0  0  0  0  0  0  0
   40.9120   23.1610   35.6360 H   0  0  0  0  0  0  0  0  0  0  0  0
   37.7640   22.8770   38.5250 H   0  0  0  0  0  0  0  0  0  0  0  0
   37.5650   24.2380   32.5160 C   0  0  0  0  0  0  0  0  0  0  0  0
   37.1410   25.4520   32.6680 O   0  0  0  0  0  0  0  0  0  0  0  0
   38.9670   23.9790   32.7460 N   0  0  0  0  0  0  0  0  0  0  0  0
   39.3670   23.0440   32.6780 H   0  0  0  0  0  0  0  0  0  0  0  0
   36.6690   23.2750   32.1500 O   0  0  0  0  0  0  0  0  0  0  0  0
   36.4150   22.1070   32.8600 C   0  0  0  0  0  0  0  0  0  0  0  0
   37.1840   21.7150   33.8540 O   0  0  0  0  0  0  0  0  0  0  0  0
   35.2920   21.1530   32.6680 C   0  0  0  0  0  3  0  0  0  0  0  0
   35.1780   20.7880   31.2320 C   0  0  0  0  0  2  0  0  0  0  0  0
   36.2410   19.8590   30.7370 C   0  0  0  0  0  2  0  0  0  0  0  0
   36.7390   18.9070   31.7950 C   0  0  0  0  0  2  0  0  0  0  0  0
   35.5890   18.7100   32.7790 C   0  0  0  0  0  2  0  0  0  0  0  0
   35.4750   19.9720   33.5880 C   0  0  0  0  0  2  0  0  0  0  0  0
  1  2  1  0  0  0  0
  1 12  1  0  0  0  0
  2  7  1  0  0  0  0
  3  8  1  0  0  0  0
  3  2  2  0  0  0  0
  4  3  1  0  0  0  0
  5  4  2  0  0  0  0
  5  6  1  0  0  0  0
  6  1  2  0  0  0  0
  9  4  1  0  0  0  0
 10  5  1  0  0  0  0
 11 16  1  0  0  0  0
 12 13  1  0  0  0  0
 12 11  2  0  0  0  0
 13 14  2  0  0  0  0
 14 15  1  0  0  0  0
 15 19  1  0  0  0  0
 16 15  2  0  0  0  0
 17 11  1  0  0  0  0
 18 13  1  0  0  0  0
 20 21  2  0  0  0  0
 20 22  1  0  0  0  0
 22  6  1  0  0  0  0
 23 22  1  0  0  0  0
 24 20  1  0  0  0  0
 24 25  1  0  0  0  0
 25 26  2  0  0  0  0
 27 25  1  0  0  0  0
 27 32  1  0  0  0  0
 28 27  1  0  0  0  0
 29 28  1  0  0  0  0
 29 30  1  0  0  0  0
 30 31  1  0  0  0  0
 31 32  1  0  0  0  0
M  END
>  <minimizedAffinity>
-5.52473307

$$$$

 OpenBabel03272500593D

 32 34  0  0  0  0  0  0  0  0999 V2000
   38.4260   24.7040   35.7530 C   0  0  0  0  0  0  0  0  0  0  0  0
   38.1060   25.3350   36.9160 C   0  0  0  0  0  0  0  0  0  0  0  0
   38.1680   24.7040   38.1570 C   0  0  0  0  0  0  0  0  0  0  0  0
   38.5930   23.3190   38.1820 C   0  0  0  0  0  0  0  0  0  0  0  0
   38.8980   22.7450   36.9890 C   0  0  0  0  0  0  0  0  0  0  0  0
   38.8350   23.3570   35.8050 C   0  0  0  0  0  0  0  0  0  0  0  0
   37.7820   26.3780   36.9390 H   0  0  0  0  0  0  0  0  0  0  0  0
   37.8950   25.2680   39.0610 H   0  0  0  0  0  0  0  0  0  0  0  0
   38.5960   22.9580   39.1950 H   0  0  0  0  0  0  0  0  0  0  0  0
   39.2090   21.7440   37.2460 H   0  0  0  0  0  0  0  0  0  0  0  0
   39.4420   26.3390   34.2460 C   0  0  0  0  0  0  0  0  0  0  0  0
   38.3380   25.5030   34.5520 C   0  0  0  0  0  0  0  0  0  0  0  0
   37.3170   25.5590   33.6400 C   0  0  0  0  0  0  0  0  0  0  0  0
   37.3920   26.3500   32.5620 N   0  0  0  0  0  0  0  0  0  0  0  0
   38.4260   27.1210   32.2910 C   0  0  0  0  0  0  0  0  0  0  0  0
   39.4420   27.1070   33.1390 N   0  0  0  0  0  0  0  0  0  0  0  0
   40.2910   26.3410   34.9320 H   0  0  0  0  0  0  0  0  0  0  0  0
   36.4720   24.9280   33.8620 H   0  0  0  0  0  0  0  0  0  0  0  0
   38.5780   27.7830   31.4630 H   0  0  0  0  0  0  0  0  0  0  0  0
   38.0850   21.8230   34.1890 C   0  0  0  0  0  0  0  0  0  0  0  0
   37.0320   21.7090   34.9350 O   0  0  0  0  0  0  0  0  0  0  0  0
   39.1350   22.7100   34.6350 N   0  0  0  0  0  0  0  0  0  0  0  0
   40.0050   22.8260   34.1190 H   0  0  0  0  0  0  0  0  0  0  0  0
   38.1450   21.1040   33.0300 O   0  0  0  0  0  0  0  0  0  0  0  0
   37.7480   21.5660   31.7810 C   0  0  0  0  0  0  0  0  0  0  0  0
   38.5020   22.3710   31.0630 O   0  0  0  0  0  0  0  0  0  0  0  0
   36.4950   21.2440   31.0500 C   0  0  0  0  0  3  0  0  0  0  0  0
   36.5730   19.8700   30.4910 C   0  0  0  0  0  2  0  0  0  0  0  0
   36.4340   18.7750   31.5010 C   0  0  0  0  0  2  0  0  0  0  0  0
   35.5460   19.1460   32.6620 C   0  0  0  0  0  2  0  0  0  0  0  0
   34.5560   20.1820   32.1380 C   0  0  0  0  0  2  0  0  0  0  0  0
   35.3130   21.4690   31.9590 C   0  0  0  0  0  2  0  0  0  0  0  0
  1  6  2  0  0  0  0
  1  2  1  0  0  0  0
  2  7  1  0  0  0  0
  2  3  2  0  0  0  0
  3  4  1  0  0  0  0
  3  8  1  0  0  0  0
  4  9  1  0  0  0  0
  5 10  1  0  0  0  0
  5  4  2  0  0  0  0
  6  5  1  0  0  0  0
 11 12  1  0  0  0  0
 11 17  1  0  0  0  0
 12  1  1  0  0  0  0
 13 18  1  0  0  0  0
 13 12  2  0  0  0  0
 14 13  1  0  0  0  0
 15 14  2  0  0  0  0
 15 16  1  0  0  0  0
 16 11  2  0  0  0  0
 19 15  1  0  0  0  0
 20 22  1  0  0  0  0
 20 21  2  0  0  0  0
 22  6  1  0  0  0  0
 23 22  1  0  0  0  0
 24 20  1  0  0  0  0
 25 24  1  0  0  0  0
 26 25  2  0  0  0  0
 27 25  1  0  0  0  0
 27 32  1  0  0  0  0
 28 27  1  0  0  0  0
 28 29  1  0  0  0  0
 29 30  1  0  0  0  0
 31 30  1  0  0  0  0
 32 31  1  0  0  0  0
M  END
>  <minimizedAffinity>
-5.49918938

$$$$

 OpenBabel03272500593D

 32 34  0  0  0  0  0  0  0  0999 V2000
   36.5830   27.4430   32.5120 C   0  0  0  0  0  0  0  0  0  0  0  0
   36.1330   28.4650   31.7320 C   0  0  0  0  0  0  0  0  0  0  0  0
   35.6960   29.6790   32.2590 C   0  0  0  0  0  0  0  0  0  0  0  0
   35.7330   29.8340   33.7000 C   0  0  0  0  0  0  0  0  0  0  0  0
   36.1920   28.7790   34.4230 C   0  0  0  0  0  0  0  0  0  0  0  0
   36.6060   27.6190   33.9090 C   0  0  0  0  0  0  0  0  0  0  0  0
   36.0900   28.3870   30.6430 H   0  0  0  0  0  0  0  0  0  0  0  0
   35.3440   30.4660   31.5770 H   0  0  0  0  0  0  0  0  0  0  0  0
   35.3720   30.8100   33.9690 H   0  0  0  0  0  0  0  0  0  0  0  0
   36.1570   29.1210   35.4460 H   0  0  0  0  0  0  0  0  0  0  0  0
   36.0540   25.2640   31.5390 C   0  0  0  0  0  0  0  0  0  0  0  0
   37.0260   26.2590   31.8130 C   0  0  0  0  0  0  0  0  0  0  0  0
   38.2840   25.9610   31.3580 C   0  0  0  0  0  0  0  0  0  0  0  0
   38.5350   24.8150   30.7120 N   0  0  0  0  0  0  0  0  0  0  0  0
   37.6200   23.9010   30.4640 C   0  0  0  0  0  0  0  0  0  0  0  0
   36.3860   24.1360   30.8810 N   0  0  0  0  0  0  0  0  0  0  0  0
   35.0310   25.4390   31.8740 H   0  0  0  0  0  0  0  0  0  0  0  0
   39.0320   26.7090   31.5610 H   0  0  0  0  0  0  0  0  0  0  0  0
   37.7210   22.9600   29.9590 H   0  0  0  0  0  0  0  0  0  0  0  0
   38.4540   26.6210   34.9650 C   0  0  0  0  0  0  0  0  0  0  0  0
   39.1490   27.5650   34.4150 O   0  0  0  0  0  0  0  0  0  0  0  0
   37.0340   26.5860   34.7000 N   0  0  0  0  0  0  0  0  0  0  0  0
   36.4290   25.8550   35.0710 H   0  0  0  0  0  0  0  0  0  0  0  0
   39.0970   25.7160   35.7600 O   0  0  0  0  0  0  0  0  0  0  0  0
   39.3140   24.3820   35.4390 C   0  0  0  0  0  0  0  0  0  0  0  0
   40.2380   24.0130   34.5770 O   0  0  0  0  0  0  0  0  0  0  0  0
   38.6120   23.1900   35.9850 C   0  0  0  0  0  3  0  0  0  0  0  0
   39.5950   22.2620   36.6010 C   0  0  0  0  0  2  0  0  0  0  0  0
   40.1460   22.7170   37.9150 C   0  0  0  0  0  2  0  0  0  0  0  0
   39.1690   23.5390   38.7180 C   0  0  0  0  0  2  0  0  0  0  0  0
   37.7730   23.0850   38.2990 C   0  0  0  0  0  2  0  0  0  0  0  0
   37.5210   23.6390   36.9230 C   0  0  0  0  0  2  0  0  0  0  0  0
  1  6  1  0  0  0  0
  2  3  1  0  0  0  0
  2  1  2  0  0  0  0
  3  4  2  0  0  0  0
  4  9  1  0  0  0  0
  4  5  1  0  0  0  0
  5 10  1  0  0  0  0
  6  5  2  0  0  0  0
  6 22  1  0  0  0  0
  7  2  1  0  0  0  0
  8  3  1  0  0  0  0
 11 12  1  0  0  0  0
 11 17  1  0  0  0  0
 12  1  1  0  0  0  0
 13 18  1  0  0  0  0
 13 12  2  0  0  0  0
 14 13  1  0  0  0  0
 15 14  2  0  0  0  0
 15 16  1  0  0  0  0
 16 11  2  0  0  0  0
 19 15  1  0  0  0  0
 20 24  1  0  0  0  0
 21 20  2  0  0  0  0
 22 20  1  0  0  0  0
 22 23  1  0  0  0  0
 25 24  1  0  0  0  0
 25 27  1  0  0  0  0
 26 25  2  0  0  0  0
 27 28  1  0  0  0  0
 27 32  1  0  0  0  0
 28 29  1  0  0  0  0
 29 30  1  0  0  0  0
 31 30  1  0  0  0  0
 32 31  1  0  0  0  0
M  END
>  <minimizedAffinity>
-5.36180162

$$$$

 OpenBabel03272500593D

 32 34  0  0  0  0  0  0  0  0999 V2000
   38.5590   24.7570   35.9690 C   0  0  0  0  0  0  0  0  0  0  0  0
   38.0050   25.2240   37.1220 C   0  0  0  0  0  0  0  0  0  0  0  0
   38.0760   24.5280   38.3280 C   0  0  0  0  0  0  0  0  0  0  0  0
   38.7740   23.2580   38.3250 C   0  0  0  0  0  0  0  0  0  0  0  0
   39.3040   22.8460   37.1440 C   0  0  0  0  0  0  0  0  0  0  0  0
   39.2300   23.5200   35.9950 C   0  0  0  0  0  0  0  0  0  0  0  0
   37.4720   26.1760   37.1650 H   0  0  0  0  0  0  0  0  0  0  0  0
   37.6080   24.9580   39.2250 H   0  0  0  0  0  0  0  0  0  0  0  0
   38.7530   22.8310   39.3120 H   0  0  0  0  0  0  0  0  0  0  0  0
   39.7890   21.9120   37.3800 H   0  0  0  0  0  0  0  0  0  0  0  0
   37.2220   26.3520   34.6870 C   0  0  0  0  0  0  0  0  0  0  0  0
   38.4240   25.6090   34.8100 C   0  0  0  0  0  0  0  0  0  0  0  0
   39.3210   25.8130   33.7940 C   0  0  0  0  0  0  0  0  0  0  0  0
   39.0490   26.6510   32.7860 N   0  0  0  0  0  0  0  0  0  0  0  0
   37.9270   27.3350   32.6860 C   0  0  0  0  0  0  0  0  0  0  0  0
   37.0230   27.1780   33.6400 N   0  0  0  0  0  0  0  0  0  0  0  0
   36.4640   26.2370   35.4630 H   0  0  0  0  0  0  0  0  0  0  0  0
   40.2380   25.2540   33.8770 H   0  0  0  0  0  0  0  0  0  0  0  0
   37.6190   28.0240   31.9250 H   0  0  0  0  0  0  0  0  0  0  0  0
   38.9000   22.1030   34.1480 C   0  0  0  0  0  0  0  0  0  0  0  0
   37.7690   21.8070   34.7060 O   0  0  0  0  0  0  0  0  0  0  0  0
   39.7680   23.0330   34.8320 N   0  0  0  0  0  0  0  0  0  0  0  0
   40.6860   23.2880   34.4710 H   0  0  0  0  0  0  0  0  0  0  0  0
   39.2090   21.5210   32.9520 O   0  0  0  0  0  0  0  0  0  0  0  0
   38.2870   20.9790   32.0640 C   0  0  0  0  0  0  0  0  0  0  0  0
   37.7760   19.7780   32.2360 O   0  0  0  0  0  0  0  0  0  0  0  0
   37.7170   21.6130   30.8470 C   0  0  0  0  0  3  0  0  0  0  0  0
   36.2340   21.6350   30.9340 C   0  0  0  0  0  2  0  0  0  0  0  0
   35.6790   22.6410   31.8920 C   0  0  0  0  0  2  0  0  0  0  0  0
   36.5330   23.8780   32.0180 C   0  0  0  0  0  2  0  0  0  0  0  0
   37.2720   24.0310   30.6910 C   0  0  0  0  0  2  0  0  0  0  0  0
   38.3400   22.9730   30.6530 C   0  0  0  0  0  2  0  0  0  0  0  0
  1  6  2  0  0  0  0
  1  2  1  0  0  0  0
  2  7  1  0  0  0  0
  2  3  2  0  0  0  0
  3  8  1  0  0  0  0
  4  3  1  0  0  0  0
  4  9  1  0  0  0  0
  5 10  1  0  0  0  0
  5  4  2  0  0  0  0
  6  5  1  0  0  0  0
 11 12  1  0  0  0  0
 11 17  1  0  0  0  0
 12  1  1  0  0  0  0
 13 18  1  0  0  0  0
 13 12  2  0  0  0  0
 14 13  1  0  0  0  0
 15 14  2  0  0  0  0
 15 16  1  0  0  0  0
 16 11  2  0  0  0  0
 19 15  1  0  0  0  0
 20 21  2  0  0  0  0
 20 22  1  0  0  0  0
 22  6  1  0  0  0  0
 23 22  1  0  0  0  0
 24 20  1  0  0  0  0
 25 26  2  0  0  0  0
 25 24  1  0  0  0  0
 27 28  1  0  0  0  0
 27 25  1  0  0  0  0
 28 29  1  0  0  0  0
 29 30  1  0  0  0  0
 31 30  1  0  0  0  0
 32 31  1  0  0  0  0
 32 27  1  0  0  0  0
M  END
>  <minimizedAffinity>
-5.22831011

$$$$

 OpenBabel03272500593D

 32 34  0  0  0  0  0  0  0  0999 V2000
   35.8820   29.7060   31.3180 C   0  0  0  0  0  0  0  0  0  0  0  0
   36.1980   30.8780   30.7000 C   0  0  0  0  0  0  0  0  0  0  0  0
   36.9810   30.9360   29.5490 C   0  0  0  0  0  0  0  0  0  0  0  0
   37.4670   29.6820   29.0090 C   0  0  0  0  0  0  0  0  0  0  0  0
   37.1180   28.5470   29.6700 C   0  0  0  0  0  0  0  0  0  0  0  0
   36.3690   28.5020   30.7730 C   0  0  0  0  0  0  0  0  0  0  0  0
   35.8510   31.8430   31.0770 H   0  0  0  0  0  0  0  0  0  0  0  0
   37.2020   31.9130   29.0970 H   0  0  0  0  0  0  0  0  0  0  0  0
   38.0530   29.8700   28.1270 H   0  0  0  0  0  0  0  0  0  0  0  0
   37.5580   27.7520   29.0870 H   0  0  0  0  0  0  0  0  0  0  0  0
   35.6690   30.1150   33.7180 C   0  0  0  0  0  0  0  0  0  0  0  0
   35.0380   29.8110   32.4860 C   0  0  0  0  0  0  0  0  0  0  0  0
   33.6780   29.6650   32.5690 C   0  0  0  0  0  0  0  0  0  0  0  0
   33.0340   29.8050   33.7340 N   0  0  0  0  0  0  0  0  0  0  0  0
   33.6350   30.0890   34.8720 C   0  0  0  0  0  0  0  0  0  0  0  0
   34.9500   30.2420   34.8510 N   0  0  0  0  0  0  0  0  0  0  0  0
   36.7520   30.2460   33.7230 H   0  0  0  0  0  0  0  0  0  0  0  0
   33.1860   29.4330   31.6380 H   0  0  0  0  0  0  0  0  0  0  0  0
   33.2120   30.2200   35.8480 H   0  0  0  0  0  0  0  0  0  0  0  0
   37.1500   26.8390   32.2390 C   0  0  0  0  0  0  0  0  0  0  0  0
   38.2490   27.5250   32.2680 O   0  0  0  0  0  0  0  0  0  0  0  0
   36.0750   27.3220   31.4040 N   0  0  0  0  0  0  0  0  0  0  0  0
   35.1950   26.8190   31.3040 H   0  0  0  0  0  0  0  0  0  0  0  0
   37.0700   25.7040   32.9930 O   0  0  0  0  0  0  0  0  0  0  0  0
   38.1510   24.9160   33.3700 C   0  0  0  0  0  0  0  0  0  0  0  0
   38.8870   24.2740   32.4880 O   0  0  0  0  0  0  0  0  0  0  0  0
   38.6680   24.6800   34.7440 C   0  0  0  0  0  3  0  0  0  0  0  0
   40.0170   25.2830   34.8880 C   0  0  0  0  0  2  0  0  0  0  0  0
   40.0280   26.7760   34.9860 C   0  0  0  0  0  2  0  0  0  0  0  0
   38.7960   27.3370   35.6520 C   0  0  0  0  0  2  0  0  0  0  0  0
   38.2830   26.2560   36.5990 C   0  0  0  0  0  2  0  0  0  0  0  0
   37.6620   25.1810   35.7500 C   0  0  0  0  0  2  0  0  0  0  0  0
  1 12  1  0  0  0  0
  2  7  1  0  0  0  0
  2  1  2  0  0  0  0
  3  2  1  0  0  0  0
  4  3  2  0  0  0  0
  4  5  1  0  0  0  0
  5  6  2  0  0  0  0
  6  1  1  0  0  0  0
  6 22  1  0  0  0  0
  8  3  1  0  0  0  0
  9  4  1  0  0  0  0
 10  5  1  0  0  0  0
 11 17  1  0  0  0  0
 11 16  1  0  0  0  0
 12 13  1  0  0  0  0
 12 11  2  0  0  0  0
 13 14  2  0  0  0  0
 14 15  1  0  0  0  0
 15 19  1  0  0  0  0
 16 15  2  0  0  0  0
 18 13  1  0  0  0  0
 20 21  2  0  0  0  0
 20 24  1  0  0  0  0
 22 20  1  0  0  0  0
 23 22  1  0  0  0  0
 24 25  1  0  0  0  0
 25 27  1  0  0  0  0
 26 25  2  0  0  0  0
 27 28  1  0  0  0  0
 27 32  1  0  0  0  0
 28 29  1  0  0  0  0
 29 30  1  0  0  0  0
 30 31  1  0  0  0  0
 32 31  1  0  0  0  0
M  END
>  <minimizedAffinity>
-5.20166826

$$$$

 OpenBabel03272500593D

 32 34  0  0  0  0  0  0  0  0999 V2000
   38.5070   25.5440   35.3140 C   0  0  0  0  0  0  0  0  0  0  0  0
   38.6830   26.6960   36.0180 C   0  0  0  0  0  0  0  0  0  0  0  0
   38.0420   27.8880   35.6860 C   0  0  0  0  0  0  0  0  0  0  0  0
   37.1570   27.8730   34.5380 C   0  0  0  0  0  0  0  0  0  0  0  0
   37.0240   26.6930   33.8760 C   0  0  0  0  0  0  0  0  0  0  0  0
   37.6430   25.5580   34.2020 C   0  0  0  0  0  0  0  0  0  0  0  0
   39.3410   26.7480   36.8890 H   0  0  0  0  0  0  0  0  0  0  0  0
   38.2260   28.7850   36.2940 H   0  0  0  0  0  0  0  0  0  0  0  0
   36.7320   28.8500   34.3950 H   0  0  0  0  0  0  0  0  0  0  0  0
   36.3120   26.9060   33.0930 H   0  0  0  0  0  0  0  0  0  0  0  0
   40.5100   24.1440   35.2640 C   0  0  0  0  0  0  0  0  0  0  0  0
   39.2210   24.3870   35.8020 C   0  0  0  0  0  0  0  0  0  0  0  0
   38.8200   23.4740   36.7420 C   0  0  0  0  0  0  0  0  0  0  0  0
   39.6090   22.4520   37.0980 N   0  0  0  0  0  0  0  0  0  0  0  0
   40.8050   22.2410   36.5890 C   0  0  0  0  0  0  0  0  0  0  0  0
   41.2450   23.0910   35.6750 N   0  0  0  0  0  0  0  0  0  0  0  0
   40.8910   24.8340   34.5100 H   0  0  0  0  0  0  0  0  0  0  0  0
   37.8420   23.6470   37.1580 H   0  0  0  0  0  0  0  0  0  0  0  0
   41.5060   21.4590   36.8060 H   0  0  0  0  0  0  0  0  0  0  0  0
   38.2490   24.3940   32.2510 C   0  0  0  0  0  0  0  0  0  0  0  0
   38.9490   25.4460   31.9640 O   0  0  0  0  0  0  0  0  0  0  0  0
   37.4810   24.4080   33.4750 N   0  0  0  0  0  0  0  0  0  0  0  0
   36.8820   23.6310   33.7500 H   0  0  0  0  0  0  0  0  0  0  0  0
   38.2750   23.3370   31.3870 O   0  0  0  0  0  0  0  0  0  0  0  0
   37.2200   22.4600   31.1650 C   0  0  0  0  0  0  0  0  0  0  0  0
   36.0290   22.8810   30.7950 O   0  0  0  0  0  0  0  0  0  0  0  0
   37.2340   20.9770   31.2690 C   0  0  0  0  0  3  0  0  0  0  0  0
   37.6110   20.5710   32.6470 C   0  0  0  0  0  2  0  0  0  0  0  0
   36.5430   20.7760   33.6740 C   0  0  0  0  0  2  0  0  0  0  0  0
   35.1480   20.6260   33.1210 C   0  0  0  0  0  2  0  0  0  0  0  0
   35.2520   19.6720   31.9340 C   0  0  0  0  0  2  0  0  0  0  0  0
   35.9050   20.4310   30.8110 C   0  0  0  0  0  2  0  0  0  0  0  0
  1 12  1  0  0  0  0
  1  2  1  0  0  0  0
  2  7  1  0  0  0  0
  3  2  2  0  0  0  0
  3  8  1  0  0  0  0
  4  3  1  0  0  0  0
  5  6  1  0  0  0  0
  5  4  2  0  0  0  0
  6  1  2  0  0  0  0
  9  4  1  0  0  0  0
 10  5  1  0  0  0  0
 11 16  2  0  0  0  0
 11 12  1  0  0  0  0
 12 13  2  0  0  0  0
 13 14  1  0  0  0  0
 13 18  1  0  0  0  0
 15 19  1  0  0  0  0
 15 14  2  0  0  0  0
 16 15  1  0  0  0  0
 17 11  1  0  0  0  0
 20 22  1  0  0  0  0
 21 20  2  0  0  0  0
 22 23  1  0  0  0  0
 22  6  1  0  0  0  0
 24 20  1  0  0  0  0
 25 27  1  0  0  0  0
 25 24  1  0  0  0  0
 26 25  2  0  0  0  0
 27 28  1  0  0  0  0
 28 29  1  0  0  0  0
 30 29  1  0  0  0  0
 31 30  1  0  0  0  0
 32 27  1  0  0  0  0
 32 31  1  0  0  0  0
M  END
>  <minimizedAffinity>
-5.1032238

$$$$

 OpenBabel03272500593D

 32 34  0  0  0  0  0  0  0  0999 V2000
   39.5450   23.9830   35.6950 C   0  0  0  0  0  0  0  0  0  0  0  0
   40.1740   23.1840   36.6010 C   0  0  0  0  0  0  0  0  0  0  0  0
   39.6220   22.8750   37.8430 C   0  0  0  0  0  0  0  0  0  0  0  0
   38.3250   23.4400   38.1570 C   0  0  0  0  0  0  0  0  0  0  0  0
   37.7490   24.2280   37.2110 C   0  0  0  0  0  0  0  0  0  0  0  0
   38.2870   24.5200   36.0260 C   0  0  0  0  0  0  0  0  0  0  0  0
   41.1520   22.7390   36.4020 H   0  0  0  0  0  0  0  0  0  0  0  0
   40.1800   22.2250   38.5320 H   0  0  0  0  0  0  0  0  0  0  0  0
   38.0190   23.1240   39.1370 H   0  0  0  0  0  0  0  0  0  0  0  0
   36.8000   24.5090   37.6400 H   0  0  0  0  0  0  0  0  0  0  0  0
   41.1180   25.2920   34.3580 C   0  0  0  0  0  0  0  0  0  0  0  0
   40.2360   24.1850   34.4420 C   0  0  0  0  0  0  0  0  0  0  0  0
   40.1630   23.4330   33.2990 C   0  0  0  0  0  0  0  0  0  0  0  0
   40.8810   23.7480   32.2130 N   0  0  0  0  0  0  0  0  0  0  0  0
   41.6970   24.7800   32.1510 C   0  0  0  0  0  0  0  0  0  0  0  0
   41.8080   25.5430   33.2270 N   0  0  0  0  0  0  0  0  0  0  0  0
   41.2240   25.9330   35.2340 H   0  0  0  0  0  0  0  0  0  0  0  0
   39.4950   22.5890   33.3490 H   0  0  0  0  0  0  0  0  0  0  0  0
   42.3090   25.1120   31.3360 H   0  0  0  0  0  0  0  0  0  0  0  0
   37.7820   26.7450   35.4580 C   0  0  0  0  0  0  0  0  0  0  0  0
   38.4090   27.0570   36.5470 O   0  0  0  0  0  0  0  0  0  0  0  0
   37.6610   25.3440   35.1270 N   0  0  0  0  0  0  0  0  0  0  0  0
   37.1530   25.0200   34.3050 H   0  0  0  0  0  0  0  0  0  0  0  0
   37.2720   27.7500   34.6870 O   0  0  0  0  0  0  0  0  0  0  0  0
   37.1740   27.7230   33.3010 C   0  0  0  0  0  0  0  0  0  0  0  0
   38.2030   27.4300   32.5340 O   0  0  0  0  0  0  0  0  0  0  0  0
   35.9670   27.9770   32.4710 C   0  0  0  0  0  3  0  0  0  0  0  0
   35.1240   29.0210   33.1090 C   0  0  0  0  0  2  0  0  0  0  0  0
   35.6660   30.4120   33.0040 C   0  0  0  0  0  2  0  0  0  0  0  0
   36.4610   30.6480   31.7440 C   0  0  0  0  0  2  0  0  0  0  0  0
   35.9090   29.6850   30.6960 C   0  0  0  0  0  2  0  0  0  0  0  0
   36.3890   28.3080   31.0620 C   0  0  0  0  0  2  0  0  0  0  0  0
  1  6  2  0  0  0  0
  1  2  1  0  0  0  0
  2  3  2  0  0  0  0
  3  4  1  0  0  0  0
  3  8  1  0  0  0  0
  4  9  1  0  0  0  0
  5 10  1  0  0  0  0
  5  4  2  0  0  0  0
  6  5  1  0  0  0  0
  7  2  1  0  0  0  0
 11 12  1  0  0  0  0
 11 17  1  0  0  0  0
 12  1  1  0  0  0  0
 13 18  1  0  0  0  0
 13 12  2  0  0  0  0
 14 13  1  0  0  0  0
 15 14  2  0  0  0  0
 15 16  1  0  0  0  0
 16 11  2  0  0  0  0
 19 15  1  0  0  0  0
 20 21  2  0  0  0  0
 22 20  1  0  0  0  0
 22  6  1  0  0  0  0
 23 22  1  0  0  0  0
 24 20  1  0  0  0  0
 25 24  1  0  0  0  0
 26 25  2  0  0  0  0
 27 28  1  0  0  0  0
 27 25  1  0  0  0  0
 29 28  1  0  0  0  0
 30 29  1  0  0  0  0
 31 32  1  0  0  0  0
 31 30  1  0  0  0  0
 32 27  1  0  0  0  0
M  END
>  <minimizedAffinity>
-5.09353828

$$$$

 OpenBabel03272500593D

 32 34  0  0  0  0  0  0  0  0999 V2000
   40.0330   23.3240   36.5300 C   0  0  0  0  0  0  0  0  0  0  0  0
   39.9050   22.8750   37.8090 C   0  0  0  0  0  0  0  0  0  0  0  0
   38.8450   23.2450   38.6350 C   0  0  0  0  0  0  0  0  0  0  0  0
   37.8520   24.1460   38.0840 C   0  0  0  0  0  0  0  0  0  0  0  0
   38.0360   24.5590   36.8030 C   0  0  0  0  0  0  0  0  0  0  0  0
   39.0550   24.2000   36.0210 C   0  0  0  0  0  0  0  0  0  0  0  0
   40.6310   22.1950   38.2600 H   0  0  0  0  0  0  0  0  0  0  0  0
   38.7970   22.8480   39.6590 H   0  0  0  0  0  0  0  0  0  0  0  0
   37.0960   24.3470   38.8220 H   0  0  0  0  0  0  0  0  0  0  0  0
   37.1820   25.1860   36.5990 H   0  0  0  0  0  0  0  0  0  0  0  0
   42.4210   23.4560   36.0270 C   0  0  0  0  0  0  0  0  0  0  0  0
   41.1720   22.8270   35.7940 C   0  0  0  0  0  0  0  0  0  0  0  0
   41.2180   21.7990   34.8880 C   0  0  0  0  0  0  0  0  0  0  0  0
   42.3650   21.4490   34.2930 N   0  0  0  0  0  0  0  0  0  0  0  0
   43.5180   22.0440   34.5210 C   0  0  0  0  0  0  0  0  0  0  0  0
   43.5340   23.0440   35.3880 N   0  0  0  0  0  0  0  0  0  0  0  0
   42.4560   24.2830   36.7380 H   0  0  0  0  0  0  0  0  0  0  0  0
   40.2750   21.3130   34.7030 H   0  0  0  0  0  0  0  0  0  0  0  0
   44.4820   21.8390   34.0990 H   0  0  0  0  0  0  0  0  0  0  0  0
   38.4110   23.9410   33.7750 C   0  0  0  0  0  0  0  0  0  0  0  0
   37.7240   22.9270   34.1950 O   0  0  0  0  0  0  0  0  0  0  0  0
   39.1920   24.6750   34.7430 N   0  0  0  0  0  0  0  0  0  0  0  0
   39.7830   25.4630   34.4810 H   0  0  0  0  0  0  0  0  0  0  0  0
   38.3600   24.2580   32.4480 O   0  0  0  0  0  0  0  0  0  0  0  0
   37.3900   25.0560   31.8530 C   0  0  0  0  0  0  0  0  0  0  0  0
   36.6930   24.6480   30.8140 O   0  0  0  0  0  0  0  0  0  0  0  0
   36.9610   26.4200   32.2600 C   0  0  0  0  0  3  0  0  0  0  0  0
   38.1510   27.2860   32.4610 C   0  0  0  0  0  2  0  0  0  0  0  0
   38.8290   27.7200   31.1990 C   0  0  0  0  0  2  0  0  0  0  0  0
   37.8800   27.8750   30.0370 C   0  0  0  0  0  2  0  0  0  0  0  0
   36.5170   28.2150   30.6320 C   0  0  0  0  0  2  0  0  0  0  0  0
   35.9760   26.9570   31.2520 C   0  0  0  0  0  2  0  0  0  0  0  0
  1  2  1  0  0  0  0
  2  7  1  0  0  0  0
  2  3  2  0  0  0  0
  3  8  1  0  0  0  0
  4  3  1  0  0  0  0
  4  9  1  0  0  0  0
  5  4  2  0  0  0  0
  6  1  2  0  0  0  0
  6  5  1  0  0  0  0
 10  5  1  0  0  0  0
 11 17  1  0  0  0  0
 12 11  1  0  0  0  0
 12  1  1  0  0  0  0
 13 12  2  0  0  0  0
 14 15  2  0  0  0  0
 14 13  1  0  0  0  0
 15 16  1  0  0  0  0
 16 11  2  0  0  0  0
 18 13  1  0  0  0  0
 19 15  1  0  0  0  0
 20 21  2  0  0  0  0
 20 22  1  0  0  0  0
 22  6  1  0  0  0  0
 23 22  1  0  0  0  0
 24 20  1  0  0  0  0
 25 27  1  0  0  0  0
 25 24  1  0  0  0  0
 26 25  2  0  0  0  0
 27 28  1  0  0  0  0
 29 28  1  0  0  0  0
 30 31  1  0  0  0  0
 30 29  1  0  0  0  0
 31 32  1  0  0  0  0
 32 27  1  0  0  0  0
M  END
>  <minimizedAffinity>
-5.07997131

$$$$

 OpenBabel03272500593D

 32 34  0  0  0  0  0  0  0  0999 V2000
   37.7360   26.0880   34.1610 C   0  0  0  0  0  0  0  0  0  0  0  0
   37.3360   27.1240   34.9490 C   0  0  0  0  0  0  0  0  0  0  0  0
   36.6390   28.2230   34.4520 C   0  0  0  0  0  0  0  0  0  0  0  0
   36.3400   28.2390   33.0340 C   0  0  0  0  0  0  0  0  0  0  0  0
   36.7660   27.1770   32.3010 C   0  0  0  0  0  0  0  0  0  0  0  0
   37.4350   26.1300   32.7870 C   0  0  0  0  0  0  0  0  0  0  0  0
   37.5420   27.1490   36.0220 H   0  0  0  0  0  0  0  0  0  0  0  0
   36.3430   29.0290   35.1400 H   0  0  0  0  0  0  0  0  0  0  0  0
   35.8030   29.1360   32.7860 H   0  0  0  0  0  0  0  0  0  0  0  0
   36.4170   27.3850   31.3010 H   0  0  0  0  0  0  0  0  0  0  0  0
   39.8390   25.0910   34.9090 C   0  0  0  0  0  0  0  0  0  0  0  0
   38.4250   25.0100   34.8320 C   0  0  0  0  0  0  0  0  0  0  0  0
   37.8900   23.8980   35.4280 C   0  0  0  0  0  0  0  0  0  0  0  0
   38.6690   22.9870   36.0240 N   0  0  0  0  0  0  0  0  0  0  0  0
   39.9820   23.0770   36.0880 C   0  0  0  0  0  0  0  0  0  0  0  0
   40.5540   24.1310   35.5280 N   0  0  0  0  0  0  0  0  0  0  0  0
   40.3310   25.9520   34.4540 H   0  0  0  0  0  0  0  0  0  0  0  0
   36.8170   23.8250   35.3770 H   0  0  0  0  0  0  0  0  0  0  0  0
   40.6860   22.4050   36.5370 H   0  0  0  0  0  0  0  0  0  0  0  0
   36.7770   24.2660   31.5140 C   0  0  0  0  0  0  0  0  0  0  0  0
   35.5780   24.5410   31.9180 O   0  0  0  0  0  0  0  0  0  0  0  0
   37.8570   25.1020   31.9840 N   0  0  0  0  0  0  0  0  0  0  0  0
   38.8290   24.9260   31.7360 H   0  0  0  0  0  0  0  0  0  0  0  0
   36.9540   23.2060   30.6710 O   0  0  0  0  0  0  0  0  0  0  0  0
   37.8390   22.1550   30.8830 C   0  0  0  0  0  0  0  0  0  0  0  0
   39.1430   22.3230   30.8480 O   0  0  0  0  0  0  0  0  0  0  0  0
   37.5090   20.7390   31.1950 C   0  0  0  0  0  3  0  0  0  0  0  0
   37.5810   20.5130   32.6610 C   0  0  0  0  0  2  0  0  0  0  0  0
   36.4470   21.0990   33.4410 C   0  0  0  0  0  2  0  0  0  0  0  0
   35.1490   21.1300   32.6720 C   0  0  0  0  0  2  0  0  0  0  0  0
   35.2120   19.9820   31.6680 C   0  0  0  0  0  2  0  0  0  0  0  0
   36.1740   20.3910   30.5870 C   0  0  0  0  0  2  0  0  0  0  0  0
  1 12  1  0  0  0  0
  1  2  1  0  0  0  0
  2  7  1  0  0  0  0
  3  2  2  0  0  0  0
  3  8  1  0  0  0  0
  4  3  1  0  0  0  0
  5  6  1  0  0  0  0
  5  4  2  0  0  0  0
  6  1  2  0  0  0  0
  9  4  1  0  0  0  0
 10  5  1  0  0  0  0
 11 16  1  0  0  0  0
 12 11  2  0  0  0  0
 12 13  1  0  0  0  0
 13 14  2  0  0  0  0
 14 15  1  0  0  0  0
 15 19  1  0  0  0  0
 16 15  2  0  0  0  0
 17 11  1  0  0  0  0
 18 13  1  0  0  0  0
 20 21  2  0  0  0  0
 20 22  1  0  0  0  0
 22  6  1  0  0  0  0
 23 22  1  0  0  0  0
 24 25  1  0  0  0  0
 24 20  1  0  0  0  0
 25 27  1  0  0  0  0
 26 25  2  0  0  0  0
 27 28  1  0  0  0  0
 28 29  1  0  0  0  0
 30 29  1  0  0  0  0
 31 30  1  0  0  0  0
 32 27  1  0  0  0  0
 32 31  1  0  0  0  0
M  END
>  <minimizedAffinity>
-5.0159111

$$$$
