
 OpenBabel03272503503D

 34 36  0  0  1  0  0  0  0  0999 V2000
   33.1280   27.3070   45.9060 C   0  0  1  0  0  0  0  0  0  0  0  0
   33.9120   27.4730   47.2270 C   0  0  2  0  0  0  0  0  0  0  0  0
   33.7970   26.2500   47.8100 O   0  0  0  0  0  0  0  0  0  0  0  0
   34.0620   25.3500   46.7920 C   0  0  0  0  0  0  0  0  0  0  0  0
   33.5040   25.9080   45.5190 C   0  0  2  0  0  0  0  0  0  0  0  0
   33.5600   28.0140   45.1810 H   0  0  0  0  0  0  0  0  0  0  0  0
   34.9470   27.7880   46.9330 H   0  0  0  0  0  0  0  0  0  0  0  0
   33.5030   24.4180   47.0340 H   0  0  0  0  0  0  0  0  0  0  0  0
   35.1610   25.2130   46.7670 H   0  0  0  0  0  0  0  0  0  0  0  0
   32.6460   25.3160   45.1440 H   0  0  0  0  0  0  0  0  0  0  0  0
   31.7780   27.5040   46.1230 O   0  0  0  0  0  0  0  0  0  0  0  0
   31.4190   28.0290   45.3480 H   0  0  0  0  0  0  0  0  0  0  0  0
   33.3100   28.5230   47.8570 O   0  0  0  0  0  0  0  0  0  0  0  0
   35.3390   29.8180   46.7730 O   0  0  0  0  0  0  0  0  0  0  0  0
   34.0880   29.9970   47.6220 P   0  0  1  0  0  0  0  0  0  0  0  0
   33.0970   31.0390   46.7270 O   0  0  0  0  0  0  0  0  0  0  0  0
   32.1460   30.8900   46.9970 H   0  0  0  0  0  0  0  0  0  0  0  0
   34.4010   30.6410   49.1710 O   0  0  0  0  0  0  0  0  0  0  0  0
   35.6380   30.5160   49.7800 C   0  0  0  0  0  0  0  0  0  0  0  0
   35.9710   29.4940   50.6960 C   0  0  0  0  0  0  0  0  0  0  0  0
   37.2520   29.4920   51.2300 C   0  0  0  0  0  0  0  0  0  0  0  0
   38.1230   30.4710   50.8480 N   0  0  0  0  0  0  0  0  0  0  0  0
   37.7780   31.4440   49.9650 C   0  0  0  0  0  0  0  0  0  0  0  0
   36.5230   31.4640   49.4280 N   0  0  0  0  0  0  0  0  0  0  0  0
   35.2020   28.7700   50.9270 H   0  0  0  0  0  0  0  0  0  0  0  0
   37.5140   28.7130   51.9320 H   0  0  0  0  0  0  0  0  0  0  0  0
   38.5130   32.1920   49.7010 H   0  0  0  0  0  0  0  0  0  0  0  0
   34.4860   25.9380   44.5280 O   0  0  0  0  0  0  0  0  0  0  0  0
   34.0800   25.3380   43.3540 C   0  0  0  0  0  3  0  0  0  0  0  0
   35.1450   24.4220   42.7840 C   0  0  0  0  0  2  0  0  0  0  0  0
   35.1570   23.1390   43.5980 C   0  0  0  0  0  2  0  0  0  0  0  0
   33.9110   22.3280   43.4020 C   0  0  0  0  0  2  0  0  0  0  0  0
   32.8810   23.2200   42.7300 C   0  0  0  0  0  2  0  0  0  0  0  0
   32.8430   24.4890   43.5710 C   0  0  0  0  0  2  0  0  0  0  0  0
  1  6  1  6  0  0  0
  1 11  1  0  0  0  0
  1  2  1  0  0  0  0
  2  7  1  6  0  0  0
  2  3  1  0  0  0  0
  2 13  1  0  0  0  0
  4  8  1  0  0  0  0
  4  3  1  0  0  0  0
  5 10  1  6  0  0  0
  5  1  1  0  0  0  0
  5  4  1  0  0  0  0
  9  4  1  0  0  0  0
 12 11  1  0  0  0  0
 15 14  2  6  0  0  0
 15 13  1  0  0  0  0
 15 18  1  0  0  0  0
 16 17  1  0  0  0  0
 16 15  1  0  0  0  0
 18 19  1  0  0  0  0
 19 20  1  0  0  0  0
 20 25  1  0  0  0  0
 20 21  2  0  0  0  0
 21 26  1  0  0  0  0
 22 21  1  0  0  0  0
 23 22  2  0  0  0  0
 24 19  2  0  0  0  0
 24 23  1  0  0  0  0
 27 23  1  0  0  0  0
 28  5  1  0  0  0  0
 29 34  1  0  0  0  0
 29 28  1  0  0  0  0
 30 29  1  0  0  0  0
 30 31  1  0  0  0  0
 32 31  1  0  0  0  0
 33 32  1  0  0  0  0
 33 34  1  0  0  0  0
M  END
>  <minimizedAffinity>
-3.93602967

>  <minimizedRMSD>
0.075022392

$$$$
