
 OpenBabel03272504223D

 36 38  0  0  1  0  0  0  0  0999 V2000
   36.7970   31.5730   48.7190 O   0  0  0  0  0  0  0  0  0  0  0  0
   38.7790   32.3490   47.7780 C   0  0  2  0  0  0  0  0  0  0  0  0
   38.1570   31.3540   48.7390 C   0  0  1  0  0  0  0  0  0  0  0  0
   38.7500   31.9060   50.0430 C   0  0  0  0  0  0  0  0  0  0  0  0
   38.4320   33.2480   49.9260 O   0  0  0  0  0  0  0  0  0  0  0  0
   38.6450   33.6160   48.6140 C   0  0  0  0  0  0  0  0  0  0  0  0
   39.8500   32.1520   47.6050 H   0  0  0  0  0  0  0  0  0  0  0  0
   38.4630   30.3190   48.5670 H   0  0  0  0  0  0  0  0  0  0  0  0
   39.8270   31.7150   50.0220 H   0  0  0  0  0  0  0  0  0  0  0  0
   38.2060   31.4130   50.8740 H   0  0  0  0  0  0  0  0  0  0  0  0
   39.5130   34.2780   48.4680 H   0  0  0  0  0  0  0  0  0  0  0  0
   37.7550   34.2240   48.3080 H   0  0  0  0  0  0  0  0  0  0  0  0
   38.0040   32.3880   46.6310 O   0  0  0  0  0  0  0  0  0  0  0  0
   38.8010   31.9960   45.5620 C   0  0  0  0  0  0  0  0  0  0  0  0
   39.2150   33.1230   44.6800 C   0  0  0  0  0  0  0  0  0  0  0  0
   39.6490   32.5580   43.3420 C   0  0  0  0  0  0  0  0  0  0  0  0
   40.3480   31.2560   43.5410 C   0  0  0  0  0  0  0  0  0  0  0  0
   41.0190   31.1430   44.8940 C   0  0  0  0  0  0  0  0  0  0  0  0
   40.0770   31.3030   46.0480 C   0  0  0  0  0  0  0  0  0  0  0  0
   35.8240   29.8600   47.0220 O   0  0  0  0  0  0  0  0  0  0  0  0
   35.9070   30.1640   48.4870 P   0  0  1  0  0  0  0  0  0  0  0  0
   36.7100   28.8460   49.2530 O   0  0  0  0  0  0  0  0  0  0  0  0
   37.4380   29.2010   49.8400 H   0  0  0  0  0  0  0  0  0  0  0  0
   34.3580   30.3320   49.1560 O   0  0  0  0  0  0  0  0  0  0  0  0
   34.0920   29.1710   49.8630 C   0  0  0  0  0  0  0  0  0  0  0  0
   33.5820   29.3980   50.8440 H   0  0  0  0  0  0  0  0  0  0  0  0
   35.0010   28.6040   50.1630 H   0  0  0  0  0  0  0  0  0  0  0  0
   33.2300   28.2230   49.1250 C   0  0  0  0  0  0  0  0  0  0  0  0
   33.8620   27.3340   48.2860 C   0  0  0  0  0  0  0  0  0  0  0  0
   33.1050   26.4110   47.5590 C   0  0  0  0  0  0  0  0  0  0  0  0
   31.7530   26.4540   47.7340 N   0  0  0  0  0  0  0  0  0  0  0  0
   31.1560   27.3340   48.5610 C   0  0  0  0  0  0  0  0  0  0  0  0
   31.8930   28.2230   49.2600 N   0  0  0  0  0  0  0  0  0  0  0  0
   34.9150   27.2260   48.0860 H   0  0  0  0  0  0  0  0  0  0  0  0
   33.5230   25.6780   46.8770 H   0  0  0  0  0  0  0  0  0  0  0  0
   30.0700   27.3070   48.6480 H   0  0  0  0  0  0  0  0  0  0  0  0
  1  3  1  0  0  0  0
  2  7  1  6  0  0  0
  2  6  1  0  0  0  0
  2  3  1  0  0  0  0
  3  8  1  6  0  0  0
  3  4  1  0  0  0  0
  4 10  1  0  0  0  0
  5  4  1  0  0  0  0
  6  5  1  0  0  0  0
  9  4  1  0  0  0  0
 11  6  1  0  0  0  0
 12  6  1  0  0  0  0
 13  2  1  0  0  0  0
 14 19  1  0  0  0  0
 14 13  1  0  0  0  0
 15 14  1  0  0  0  0
 16 17  1  0  0  0  0
 16 15  1  0  0  0  0
 17 18  1  0  0  0  0
 18 19  1  0  0  0  0
 21 20  2  6  0  0  0
 21  1  1  0  0  0  0
 21 24  1  0  0  0  0
 21 22  1  0  0  0  0
 22 23  1  0  0  0  0
 24 25  1  0  0  0  0
 25 27  1  0  0  0  0
 25 26  1  0  0  0  0
 28 33  1  0  0  0  0
 28 25  1  0  0  0  0
 29 28  2  0  0  0  0
 30 31  2  0  0  0  0
 30 29  1  0  0  0  0
 31 32  1  0  0  0  0
 32 36  1  0  0  0  0
 32 33  2  0  0  0  0
 34 29  1  0  0  0  0
 35 30  1  0  0  0  0
M  END
>  <minimizedAffinity>
-5.04237795

>  <minimizedRMSD>
0.284807324

$$$$
