
 OpenBabel03272509313D

 35 37  0  0  1  0  0  0  0  0999 V2000
   36.3730   30.7010   49.0030 C   0  0  2  0  0  0  0  0  0  0  0  0
   37.2650   31.6270   49.7700 C   0  0  0  0  0  0  0  0  0  0  0  0
   38.1630   30.9060   50.7500 C   0  0  0  0  0  0  0  0  0  0  0  0
   37.3420   30.0570   51.7130 C   0  0  0  0  0  0  0  0  0  0  0  0
   36.1430   29.4010   51.0830 C   0  0  0  0  0  0  0  0  0  0  0  0
   36.3660   29.3200   49.5650 C   0  0  1  0  0  0  0  0  0  0  0  0
   35.2920   31.0580   48.9630 H   0  0  0  0  0  0  0  0  0  0  0  0
   36.5540   32.2090   50.4490 H   0  0  0  0  0  0  0  0  0  0  0  0
   37.7900   32.3840   49.2190 H   0  0  0  0  0  0  0  0  0  0  0  0
   38.6340   31.6890   51.3860 H   0  0  0  0  0  0  0  0  0  0  0  0
   38.9470   30.3090   50.2910 H   0  0  0  0  0  0  0  0  0  0  0  0
   36.9770   30.6660   52.5780 H   0  0  0  0  0  0  0  0  0  0  0  0
   38.0250   29.2980   52.1510 H   0  0  0  0  0  0  0  0  0  0  0  0
   35.1970   29.9310   51.2170 H   0  0  0  0  0  0  0  0  0  0  0  0
   36.0720   28.3560   51.4390 H   0  0  0  0  0  0  0  0  0  0  0  0
   37.3360   28.8860   49.5230 H   0  0  0  0  0  0  0  0  0  0  0  0
   36.7790   30.6320   47.5720 C   0  0  0  0  0  0  0  0  0  0  0  0
   38.1440   30.8040   47.3180 C   0  0  0  0  0  0  0  0  0  0  0  0
   38.5440   30.7370   45.9770 C   0  0  0  0  0  0  0  0  0  0  0  0
   37.5940   30.5080   45.0080 N   0  0  0  0  0  0  0  0  0  0  0  0
   36.2680   30.3440   45.3150 C   0  0  0  0  0  0  0  0  0  0  0  0
   35.8800   30.4110   46.6000 N   0  0  0  0  0  0  0  0  0  0  0  0
   38.9750   30.9770   47.9710 H   0  0  0  0  0  0  0  0  0  0  0  0
   39.5550   30.8520   45.6440 H   0  0  0  0  0  0  0  0  0  0  0  0
   35.5920   30.1700   44.5010 H   0  0  0  0  0  0  0  0  0  0  0  0
   34.1350   28.2510   49.0290 C   0  0  0  0  0  0  0  0  0  0  0  0
   33.2800   28.9070   49.6930 O   0  0  0  0  0  0  0  0  0  0  0  0
   35.5400   28.3870   48.8920 N   0  0  0  0  0  0  0  0  0  0  0  0
   35.8540   27.6530   48.1850 H   0  0  0  0  0  0  0  0  0  0  0  0
   33.2490   27.2410   48.3880 C   0  0  0  0  0  3  0  0  0  0  0  0
   31.8330   27.6780   48.7040 C   0  0  0  0  0  2  0  0  0  0  0  0
   30.8910   26.7020   48.0380 C   0  0  0  0  0  2  0  0  0  0  0  0
   31.6330   25.4860   47.5360 C   0  0  0  0  0  2  0  0  0  0  0  0
   32.6830   25.8560   46.5040 C   0  0  0  0  0  2  0  0  0  0  0  0
   33.3980   27.1500   46.9050 C   0  0  0  0  0  2  0  0  0  0  0  0
  1  7  1  1  0  0  0
  1  6  1  0  0  0  0
  1  2  1  0  0  0  0
  2  8  1  0  0  0  0
  2  3  1  0  0  0  0
  3 10  1  0  0  0  0
  3  4  1  0  0  0  0
  4 13  1  0  0  0  0
  4 12  1  0  0  0  0
  5 14  1  0  0  0  0
  5 15  1  0  0  0  0
  5  4  1  0  0  0  0
  6 16  1  6  0  0  0
  6  5  1  0  0  0  0
  9  2  1  0  0  0  0
 11  3  1  0  0  0  0
 17  1  1  0  0  0  0
 18 17  1  0  0  0  0
 18 23  1  0  0  0  0
 19 18  2  0  0  0  0
 20 21  2  0  0  0  0
 20 19  1  0  0  0  0
 21 22  1  0  0  0  0
 22 17  2  0  0  0  0
 24 19  1  0  0  0  0
 25 21  1  0  0  0  0
 26 27  2  0  0  0  0
 28 26  1  0  0  0  0
 28  6  1  0  0  0  0
 29 28  1  0  0  0  0
 30 31  1  0  0  0  0
 30 26  1  0  0  0  0
 32 31  1  0  0  0  0
 33 32  1  0  0  0  0
 34 35  1  0  0  0  0
 34 33  1  0  0  0  0
 35 30  1  0  0  0  0
M  END
>  <minimizedAffinity>
-6.14825726

>  <minimizedRMSD>
0.672651172

$$$$
