
 OpenBabel03262521443D

 43 46  0  0  1  0  0  0  0  0999 V2000
   38.2110   30.3910   45.0200 C   0  0  2  0  0  0  0  0  0  0  0  0
   38.7060   31.1180   46.2550 C   0  0  2  0  0  0  0  0  0  0  0  0
   40.1980   31.1390   46.2100 C   0  0  0  0  0  0  0  0  0  0  0  0
   40.6570   31.1980   44.9280 O   0  0  0  0  0  0  0  0  0  0  0  0
   39.8590   32.0570   44.1880 C   0  0  0  0  0  0  0  0  0  0  0  0
   38.5820   31.3310   43.8410 C   0  0  2  0  0  0  0  0  0  0  0  0
   38.8220   29.4770   44.8940 H   0  0  0  0  0  0  0  0  0  0  0  0
   38.3860   32.1280   45.9480 H   0  0  0  0  0  0  0  0  0  0  0  0
   40.6270   32.0050   46.7990 H   0  0  0  0  0  0  0  0  0  0  0  0
   40.6520   30.2480   46.7340 H   0  0  0  0  0  0  0  0  0  0  0  0
   40.4480   32.2220   43.2570 H   0  0  0  0  0  0  0  0  0  0  0  0
   39.7040   33.0410   44.6230 H   0  0  0  0  0  0  0  0  0  0  0  0
   38.7350   30.7120   42.9600 H   0  0  0  0  0  0  0  0  0  0  0  0
   36.8740   30.2010   44.9170 O   0  0  0  0  0  0  0  0  0  0  0  0
   36.6940   29.3860   44.3870 H   0  0  0  0  0  0  0  0  0  0  0  0
   38.2070   30.6990   47.4500 O   0  0  0  0  0  0  0  0  0  0  0  0
   37.4870   31.6500   48.0510 C   0  0  1  0  0  0  0  0  0  0  0  0
   36.6130   31.1640   49.1810 C   0  0  2  0  0  0  0  0  0  0  0  0
   37.7320   30.6320   50.0870 C   0  0  0  0  0  0  0  0  0  0  0  0
   38.7470   31.5570   50.0450 O   0  0  0  0  0  0  0  0  0  0  0  0
   38.5140   32.3550   48.9950 C   0  0  0  0  0  0  0  0  0  0  0  0
   37.2370   32.5700   47.4730 H   0  0  0  0  0  0  0  0  0  0  0  0
   36.1080   32.0410   49.5980 H   0  0  0  0  0  0  0  0  0  0  0  0
   38.0610   29.6780   49.6450 H   0  0  0  0  0  0  0  0  0  0  0  0
   37.2750   30.5200   51.0950 H   0  0  0  0  0  0  0  0  0  0  0  0
   39.1150   33.1170   48.6480 H   0  0  0  0  0  0  0  0  0  0  0  0
   37.7250   33.0500   49.4980 H   0  0  0  0  0  0  0  0  0  0  0  0
   35.7000   30.0960   48.7550 C   0  0  0  0  0  0  0  0  0  0  0  0
   34.8910   30.3330   47.6440 C   0  0  0  0  0  0  0  0  0  0  0  0
   34.0070   29.2850   47.2690 C   0  0  0  0  0  0  0  0  0  0  0  0
   34.0010   28.1270   48.0050 N   0  0  0  0  0  0  0  0  0  0  0  0
   34.8070   27.9450   49.0770 C   0  0  0  0  0  0  0  0  0  0  0  0
   35.6500   28.9310   49.4440 N   0  0  0  0  0  0  0  0  0  0  0  0
   34.8990   31.2390   47.0720 H   0  0  0  0  0  0  0  0  0  0  0  0
   33.3400   29.3710   46.4220 H   0  0  0  0  0  0  0  0  0  0  0  0
   34.7850   27.0300   49.6410 H   0  0  0  0  0  0  0  0  0  0  0  0
   37.6030   32.3130   43.7080 O   0  0  0  0  0  0  0  0  0  0  0  0
   37.0480   32.4400   42.4480 C   0  0  2  0  0  0  0  0  0  0  0  0
   38.0020   32.8140   41.3750 C   0  0  0  0  0  0  0  0  0  0  0  0
   37.6980   34.1260   40.6870 C   0  0  0  0  0  0  0  0  0  0  0  0
   36.2700   33.9410   40.1540 C   0  0  0  0  0  0  0  0  0  0  0  0
   35.4520   34.1360   41.4100 C   0  0  0  0  0  0  0  0  0  0  0  0
   35.7830   33.2330   42.5300 C   0  0  0  0  0  0  0  0  0  0  0  0
  1  7  1  6  0  0  0
  1  2  1  0  0  0  0
  2  8  1  6  0  0  0
  2 16  1  0  0  0  0
  3  2  1  0  0  0  0
  3 10  1  0  0  0  0
  3  9  1  0  0  0  0
  4  3  1  0  0  0  0
  5 12  1  0  0  0  0
  5  4  1  0  0  0  0
  6 13  1  6  0  0  0
  6  5  1  0  0  0  0
  6  1  1  0  0  0  0
 11  5  1  0  0  0  0
 14  1  1  0  0  0  0
 15 14  1  0  0  0  0
 16 17  1  0  0  0  0
 17 22  1  6  0  0  0
 17 21  1  0  0  0  0
 17 18  1  0  0  0  0
 18 23  1  1  0  0  0
 18 19  1  0  0  0  0
 19 25  1  0  0  0  0
 20 19  1  0  0  0  0
 21 27  1  0  0  0  0
 21 20  1  0  0  0  0
 24 19  1  0  0  0  0
 26 21  1  0  0  0  0
 28 18  1  0  0  0  0
 28 33  1  0  0  0  0
 29 28  2  0  0  0  0
 30 29  1  0  0  0  0
 30 31  2  0  0  0  0
 31 32  1  0  0  0  0
 32 33  2  0  0  0  0
 32 36  1  0  0  0  0
 34 29  1  0  0  0  0
 35 30  1  0  0  0  0
 37  6  1  0  0  0  0
 38 43  1  0  0  0  0
 38 37  1  1  0  0  0
 39 38  1  0  0  0  0
 40 39  1  0  0  0  0
 41 40  1  0  0  0  0
 41 42  1  0  0  0  0
 42 43  2  0  0  0  0
M  END
>  <minimizedAffinity>
-5.6404686

>  <minimizedRMSD>
2.37888575

$$$$
