
 OpenBabel03272508573D

 37 40  0  0  1  0  0  0  0  0999 V2000
   38.3080   31.9300   44.4810 C   0  0  0  0  0  0  0  0  0  0  0  0
   37.1930   32.4530   44.4030 O   0  0  0  0  0  0  0  0  0  0  0  0
   38.9050   31.6750   45.7780 N   0  0  0  0  0  0  0  0  0  0  0  0
   39.8880   31.4330   45.9270 H   0  0  0  0  0  0  0  0  0  0  0  0
   39.0750   31.5440   43.2830 C   0  0  0  0  0  0  0  0  0  0  0  0
   40.1340   30.6790   43.4330 C   0  0  0  0  0  0  0  0  0  0  0  0
   40.8430   30.3320   42.2900 C   0  0  0  0  0  0  0  0  0  0  0  0
   40.4520   30.8640   41.0960 C   0  0  0  0  0  0  0  0  0  0  0  0
   39.3930   31.7310   40.9360 C   0  0  0  0  0  0  0  0  0  0  0  0
   38.7230   32.0480   42.0750 N   0  0  0  0  0  0  0  0  0  0  0  0
   40.4270   30.2650   44.3960 H   0  0  0  0  0  0  0  0  0  0  0  0
   41.6660   29.6560   42.4340 H   0  0  0  0  0  0  0  0  0  0  0  0
   41.0720   30.5200   40.2910 H   0  0  0  0  0  0  0  0  0  0  0  0
   38.9660   32.2800   39.6380 C   0  0  2  0  0  3  0  0  0  0  0  0
   39.1110   33.5500   39.4860 O   0  0  0  0  0  1  0  0  0  0  0  0
   38.3780   31.6340   38.4360 C   0  0  0  0  0  3  0  0  0  0  0  0
   37.5530   30.4800   38.8340 C   0  0  0  0  0  2  0  0  0  0  0  0
   36.4250   30.3030   37.8080 C   0  0  0  0  0  2  0  0  0  0  0  0
   35.5050   31.4940   38.0710 C   0  0  0  0  0  2  0  0  0  0  0  0
   36.2070   32.7890   37.7660 C   0  0  0  0  0  2  0  0  0  0  0  0
   37.6780   32.6460   37.5600 C   0  0  0  0  0  2  0  0  0  0  0  0
   38.4400   31.1050   48.1560 C   0  0  2  0  0  0  0  0  0  0  0  0
   38.7030   32.5670   48.1030 C   0  0  0  0  0  0  0  0  0  0  0  0
   38.0670   31.7650   46.9480 C   0  0  1  0  0  0  0  0  0  0  0  0
   39.3610   30.4920   48.2230 H   0  0  0  0  0  0  0  0  0  0  0  0
   39.7220   32.9230   47.9730 H   0  0  0  0  0  0  0  0  0  0  0  0
   38.0580   33.1980   48.7300 H   0  0  0  0  0  0  0  0  0  0  0  0
   36.9990   32.0520   46.7950 H   0  0  0  0  0  0  0  0  0  0  0  0
   35.0800   30.2310   49.4900 C   0  0  0  0  0  0  0  0  0  0  0  0
   35.4200   29.5400   50.7050 C   0  0  0  0  0  0  0  0  0  0  0  0
   36.8200   29.4030   51.0370 C   0  0  0  0  0  0  0  0  0  0  0  0
   37.7750   29.9260   50.1980 N   0  0  0  0  0  0  0  0  0  0  0  0
   37.3590   30.5670   49.0630 C   0  0  0  0  0  0  0  0  0  0  0  0
   36.0340   30.7370   48.6800 N   0  0  0  0  0  0  0  0  0  0  0  0
   34.0420   30.3170   49.2690 H   0  0  0  0  0  0  0  0  0  0  0  0
   34.6820   29.1350   51.3540 H   0  0  0  0  0  0  0  0  0  0  0  0
   37.0740   28.8910   51.9360 H   0  0  0  0  0  0  0  0  0  0  0  0
  1  3  1  0  0  0  0
  2  1  2  0  0  0  0
  3  4  1  0  0  0  0
  3 24  1  0  0  0  0
  5  6  1  0  0  0  0
  5  1  1  0  0  0  0
  6 11  1  0  0  0  0
  7 12  1  0  0  0  0
  7  6  2  0  0  0  0
  8  7  1  0  0  0  0
  9  8  2  0  0  0  0
  9 10  1  0  0  0  0
 10  5  2  0  0  0  0
 13  8  1  0  0  0  0
 14 15  1  1  0  0  0
 14  9  1  0  0  0  0
 16 17  1  0  0  0  0
 16 14  1  0  0  0  0
 18 19  1  0  0  0  0
 18 17  1  0  0  0  0
 20 19  1  0  0  0  0
 21 20  1  0  0  0  0
 21 16  1  0  0  0  0
 22 25  1  6  0  0  0
 22 33  1  0  0  0  0
 23 22  1  0  0  0  0
 23 27  1  0  0  0  0
 24 28  1  6  0  0  0
 24 23  1  0  0  0  0
 24 22  1  0  0  0  0
 26 23  1  0  0  0  0
 29 30  1  0  0  0  0
 30 31  2  0  0  0  0
 30 36  1  0  0  0  0
 31 37  1  0  0  0  0
 32 31  1  0  0  0  0
 33 32  2  0  0  0  0
 34 33  1  0  0  0  0
 34 29  2  0  0  0  0
 35 29  1  0  0  0  0
M  END
>  <minimizedAffinity>
-4.8386879

>  <minimizedRMSD>
0.671877265

$$$$
