
 OpenBabel03272506433D

 29 31  0  0  1  0  0  0  0  0999 V2000
   32.4520   28.4150   47.5020 C   0  0  2  0  0  0  0  0  0  0  0  0
   33.6640   28.5100   48.4040 C   0  0  1  0  0  0  0  0  0  0  0  0
   34.2330   27.2630   48.4680 O   0  0  0  0  0  0  0  0  0  0  0  0
   33.6420   26.4440   47.5320 C   0  0  0  0  0  0  0  0  0  0  0  0
   32.9280   27.3610   46.5410 C   0  0  1  0  0  0  0  0  0  0  0  0
   31.5530   28.0790   48.0590 H   0  0  0  0  0  0  0  0  0  0  0  0
   33.3580   28.9060   49.3900 H   0  0  0  0  0  0  0  0  0  0  0  0
   32.9160   25.7300   47.9620 H   0  0  0  0  0  0  0  0  0  0  0  0
   34.4650   25.9630   46.9620 H   0  0  0  0  0  0  0  0  0  0  0  0
   33.6120   27.8080   45.8050 H   0  0  0  0  0  0  0  0  0  0  0  0
   32.2120   29.6330   46.8480 O   0  0  0  0  0  0  0  0  0  0  0  0
   32.1440   30.3570   47.5180 H   0  0  0  0  0  0  0  0  0  0  0  0
   34.8420   29.6180   47.5670 S   0  0  0  0  0  0  0  0  0  0  0  0
   37.5010   29.5250   50.4920 C   0  0  0  0  0  0  0  0  0  0  0  0
   38.0900   30.7810   50.5030 C   0  0  0  0  0  0  0  0  0  0  0  0
   37.6420   31.7100   49.5550 C   0  0  0  0  0  0  0  0  0  0  0  0
   36.6610   31.3370   48.6790 N   0  0  0  0  0  0  0  0  0  0  0  0
   36.1170   30.1040   48.7060 C   0  0  0  0  0  0  0  0  0  0  0  0
   36.5340   29.1850   49.6160 N   0  0  0  0  0  0  0  0  0  0  0  0
   37.8570   28.8230   51.2280 H   0  0  0  0  0  0  0  0  0  0  0  0
   38.8620   31.0940   51.1820 H   0  0  0  0  0  0  0  0  0  0  0  0
   38.0170   32.7220   49.4560 H   0  0  0  0  0  0  0  0  0  0  0  0
   31.8920   26.6910   45.9070 O   0  0  0  0  0  0  0  0  0  0  0  0
   32.0890   26.5400   44.5460 C   0  0  0  0  0  3  0  0  0  0  0  0
   33.2220   27.4250   44.0490 C   0  0  0  0  0  2  0  0  0  0  0  0
   34.1380   26.7050   43.0990 C   0  0  0  0  0  2  0  0  0  0  0  0
   33.3890   25.8740   42.0860 C   0  0  0  0  0  2  0  0  0  0  0  0
   32.3110   25.0150   42.6790 C   0  0  0  0  0  2  0  0  0  0  0  0
   32.4580   25.1120   44.2010 C   0  0  0  0  0  2  0  0  0  0  0  0
  1  6  1  1  0  0  0
  1  2  1  0  0  0  0
  2  3  1  0  0  0  0
  2  7  1  1  0  0  0
  4  8  1  0  0  0  0
  4  3  1  0  0  0  0
  5 10  1  6  0  0  0
  5  1  1  0  0  0  0
  5  4  1  0  0  0  0
  9  4  1  0  0  0  0
 11  1  1  0  0  0  0
 11 12  1  0  0  0  0
 13  2  1  0  0  0  0
 13 18  1  0  0  0  0
 14 15  1  0  0  0  0
 14 20  1  0  0  0  0
 15 21  1  0  0  0  0
 16 15  2  0  0  0  0
 17 18  2  0  0  0  0
 17 16  1  0  0  0  0
 18 19  1  0  0  0  0
 19 14  2  0  0  0  0
 22 16  1  0  0  0  0
 23  5  1  0  0  0  0
 24 23  1  0  0  0  0
 25 24  1  0  0  0  0
 26 25  1  0  0  0  0
 27 28  1  0  0  0  0
 27 26  1  0  0  0  0
 28 29  1  0  0  0  0
 29 24  1  0  0  0  0
M  END
>  <minimizedAffinity>
-3.77019501

>  <minimizedRMSD>
0.467293561

$$$$
