
 OpenBabel03262521103D

 21 22  0  0  0  0  0  0  0  0999 V2000
   35.5440   30.0970   46.4220 O   0  0  0  0  0  0  0  0  0  0  0  0
   34.3570   29.8130   47.3190 P   0  0  1  0  0  0  0  0  0  0  0  0
   34.2440   28.1440   47.6610 O   0  0  0  0  0  0  0  0  0  0  0  0
   33.3120   27.8360   47.7060 H   0  0  0  0  0  0  0  0  0  0  0  0
   34.5040   30.5710   48.8600 O   0  0  0  0  0  0  0  0  0  0  0  0
   35.6660   30.4770   49.6210 C   0  0  0  0  0  0  0  0  0  0  0  0
   35.8920   29.5240   50.6340 C   0  0  0  0  0  0  0  0  0  0  0  0
   37.1060   29.5670   51.2990 C   0  0  0  0  0  0  0  0  0  0  0  0
   38.0190   30.5120   50.9550 N   0  0  0  0  0  0  0  0  0  0  0  0
   37.7690   31.4170   49.9730 C   0  0  0  0  0  0  0  0  0  0  0  0
   36.5880   31.3950   49.3080 N   0  0  0  0  0  0  0  0  0  0  0  0
   35.0760   28.8270   50.8040 H   0  0  0  0  0  0  0  0  0  0  0  0
   37.2370   28.8320   52.0540 H   0  0  0  0  0  0  0  0  0  0  0  0
   38.5390   32.1520   49.7410 H   0  0  0  0  0  0  0  0  0  0  0  0
   32.9880   30.3800   46.5490 O   0  0  0  0  0  0  0  0  0  0  0  0
   32.1680   29.4390   45.9850 C   0  0  0  0  0  0  0  0  0  0  0  0
   32.5830   29.0950   44.5970 C   0  0  0  0  0  0  0  0  0  0  0  0
   31.4640   28.8390   43.6360 C   0  0  0  0  0  0  0  0  0  0  0  0
   30.2240   28.2710   44.2120 C   0  0  0  0  0  0  0  0  0  0  0  0
   29.9920   28.5030   45.6690 C   0  0  0  0  0  0  0  0  0  0  0  0
   30.7090   29.8250   45.9830 C   0  0  0  0  0  0  0  0  0  0  0  0
  2  1  2  6  0  0  0
  2  3  1  0  0  0  0
  2  5  1  0  0  0  0
  3  4  1  0  0  0  0
  5  6  1  0  0  0  0
  6  7  1  0  0  0  0
  7 12  1  0  0  0  0
  7  8  2  0  0  0  0
  8 13  1  0  0  0  0
  9  8  1  0  0  0  0
 10  9  2  0  0  0  0
 11  6  2  0  0  0  0
 11 10  1  0  0  0  0
 14 10  1  0  0  0  0
 15  2  1  0  0  0  0
 16 15  1  0  0  0  0
 17 16  1  0  0  0  0
 18 19  1  0  0  0  0
 18 17  1  0  0  0  0
 19 20  1  0  0  0  0
 20 21  1  0  0  0  0
 21 16  1  0  0  0  0
M  END
>  <minimizedAffinity>
-3.76488566

>  <minimizedRMSD>
2.38875461

$$$$
