
 OpenBabel03262523563D

 35 37  0  0  1  0  0  0  0  0999 V2000
   36.0650   31.0580   43.2020 C   0  0  1  0  0  0  0  0  0  0  0  0
   35.3910   32.3290   42.9880 C   0  0  0  0  0  0  0  0  0  0  0  0
   36.1450   33.1170   41.9630 C   0  0  0  0  0  0  0  0  0  0  0  0
   37.6140   32.9940   42.1580 C   0  0  0  0  0  0  0  0  0  0  0  0
   38.0410   32.5630   43.5040 C   0  0  0  0  0  0  0  0  0  0  0  0
   37.3250   31.3210   44.0330 C   0  0  1  0  0  0  0  0  0  0  0  0
   36.4410   30.6140   42.2430 H   0  0  0  0  0  0  0  0  0  0  0  0
   34.3300   32.1680   42.7020 H   0  0  0  0  0  0  0  0  0  0  0  0
   35.3470   32.9440   43.9110 H   0  0  0  0  0  0  0  0  0  0  0  0
   35.8160   34.1710   42.0690 H   0  0  0  0  0  0  0  0  0  0  0  0
   35.7870   32.7790   40.9590 H   0  0  0  0  0  0  0  0  0  0  0  0
   38.0010   32.3140   41.3710 H   0  0  0  0  0  0  0  0  0  0  0  0
   38.0600   33.9880   41.9690 H   0  0  0  0  0  0  0  0  0  0  0  0
   37.8980   33.3620   44.2600 H   0  0  0  0  0  0  0  0  0  0  0  0
   39.1300   32.3570   43.4930 H   0  0  0  0  0  0  0  0  0  0  0  0
   38.0010   30.4510   43.8570 H   0  0  0  0  0  0  0  0  0  0  0  0
   34.7590   27.7220   44.1740 C   0  0  0  0  0  0  0  0  0  0  0  0
   35.5060   28.7180   43.4850 C   0  0  0  0  0  0  0  0  0  0  0  0
   35.3110   30.0210   43.9250 C   0  0  0  0  0  0  0  0  0  0  0  0
   34.4400   30.3050   44.9670 N   0  0  0  0  0  0  0  0  0  0  0  0
   33.7620   29.3210   45.5790 C   0  0  0  0  0  0  0  0  0  0  0  0
   33.9120   28.0170   45.1910 N   0  0  0  0  0  0  0  0  0  0  0  0
   34.8890   26.6990   43.8560 H   0  0  0  0  0  0  0  0  0  0  0  0
   36.1700   28.4660   42.6850 H   0  0  0  0  0  0  0  0  0  0  0  0
   33.0770   29.5120   46.3940 H   0  0  0  0  0  0  0  0  0  0  0  0
   37.8070   31.0640   46.5980 C   0  0  0  0  0  0  0  0  0  0  0  0
   38.9110   30.5830   46.3230 O   0  0  0  0  0  0  0  0  0  0  0  0
   37.0760   31.4450   45.4390 N   0  0  0  0  0  0  0  0  0  0  0  0
   36.1300   31.9340   45.5300 H   0  0  0  0  0  0  0  0  0  0  0  0
   37.1570   31.2920   47.8850 C   0  0  0  0  0  0  0  0  0  0  0  0
   38.0680   31.9380   48.8720 C   0  0  0  0  0  0  0  0  0  0  0  0
   38.2810   31.0790   50.1010 C   0  0  0  0  0  0  0  0  0  0  0  0
   37.0010   30.6510   50.7440 C   0  0  0  0  0  0  0  0  0  0  0  0
   35.8670   30.4520   49.7560 C   0  0  0  0  0  0  0  0  0  0  0  0
   36.5150   30.0630   48.4230 C   0  0  0  0  0  0  0  0  0  0  0  0
  1  7  1  6  0  0  0
  1 19  1  0  0  0  0
  1  6  1  0  0  0  0
  2  1  1  0  0  0  0
  2  9  1  0  0  0  0
  3 10  1  0  0  0  0
  3  4  1  0  0  0  0
  3  2  1  0  0  0  0
  4  5  1  0  0  0  0
  5  6  1  0  0  0  0
  5 14  1  0  0  0  0
  6 16  1  6  0  0  0
  6 28  1  0  0  0  0
  8  2  1  0  0  0  0
 11  3  1  0  0  0  0
 12  4  1  0  0  0  0
 13  4  1  0  0  0  0
 15  5  1  0  0  0  0
 17 22  1  0  0  0  0
 18 19  1  0  0  0  0
 18 17  2  0  0  0  0
 19 20  2  0  0  0  0
 20 21  1  0  0  0  0
 21 25  1  0  0  0  0
 22 21  2  0  0  0  0
 23 17  1  0  0  0  0
 24 18  1  0  0  0  0
 26 30  1  0  0  0  0
 27 26  2  0  0  0  0
 28 29  1  0  0  0  0
 28 26  1  0  0  0  0
 30 35  1  0  0  0  0
 30 31  1  0  0  0  0
 31 32  1  0  0  0  0
 32 33  1  0  0  0  0
 34 33  1  0  0  0  0
 35 34  1  0  0  0  0
M  END
>  <minimizedAffinity>
-5.21841288

>  <minimizedRMSD>
4.69825602

$$$$
