
 OpenBabel03272506433D

 29 31  0  0  1  0  0  0  0  0999 V2000
   32.3280   28.1880   47.6770 C   0  0  2  0  0  0  0  0  0  0  0  0
   33.6200   28.2380   48.4640 C   0  0  1  0  0  0  0  0  0  0  0  0
   34.2120   27.0040   48.3720 O   0  0  0  0  0  0  0  0  0  0  0  0
   33.5460   26.2490   47.4320 C   0  0  0  0  0  0  0  0  0  0  0  0
   32.7260   27.2270   46.5920 C   0  0  1  0  0  0  0  0  0  0  0  0
   31.4920   27.7870   48.2870 H   0  0  0  0  0  0  0  0  0  0  0  0
   33.4040   28.5460   49.5050 H   0  0  0  0  0  0  0  0  0  0  0  0
   32.8760   25.4860   47.8680 H   0  0  0  0  0  0  0  0  0  0  0  0
   34.3180   25.8360   46.7490 H   0  0  0  0  0  0  0  0  0  0  0  0
   33.3280   27.7470   45.8340 H   0  0  0  0  0  0  0  0  0  0  0  0
   32.0060   29.4480   47.1520 O   0  0  0  0  0  0  0  0  0  0  0  0
   31.9920   30.1150   47.8830 H   0  0  0  0  0  0  0  0  0  0  0  0
   34.6930   29.4380   47.6150 S   0  0  0  0  0  0  0  0  0  0  0  0
   37.3800   29.4750   50.5160 C   0  0  0  0  0  0  0  0  0  0  0  0
   37.9750   30.7260   50.4600 C   0  0  0  0  0  0  0  0  0  0  0  0
   37.5240   31.6090   49.4710 C   0  0  0  0  0  0  0  0  0  0  0  0
   36.5320   31.1990   48.6230 N   0  0  0  0  0  0  0  0  0  0  0  0
   35.9820   29.9720   48.7170 C   0  0  0  0  0  0  0  0  0  0  0  0
   36.4020   29.0970   49.6670 N   0  0  0  0  0  0  0  0  0  0  0  0
   37.7380   28.8080   51.2830 H   0  0  0  0  0  0  0  0  0  0  0  0
   38.7550   31.0680   51.1160 H   0  0  0  0  0  0  0  0  0  0  0  0
   37.9030   32.6130   49.3180 H   0  0  0  0  0  0  0  0  0  0  0  0
   31.6440   26.5850   46.0060 O   0  0  0  0  0  0  0  0  0  0  0  0
   31.4780   26.9010   44.6690 C   0  0  0  0  0  3  0  0  0  0  0  0
   31.2770   25.6520   43.8260 C   0  0  0  0  0  2  0  0  0  0  0  0
   30.1750   25.8110   42.8170 C   0  0  0  0  0  2  0  0  0  0  0  0
   30.2190   27.1430   42.1110 C   0  0  0  0  0  2  0  0  0  0  0  0
   30.3900   28.3170   43.0320 C   0  0  0  0  0  2  0  0  0  0  0  0
   30.2590   27.7770   44.4610 C   0  0  0  0  0  2  0  0  0  0  0  0
  1  6  1  1  0  0  0
  1  2  1  0  0  0  0
  2  7  1  1  0  0  0
  3  2  1  0  0  0  0
  4  8  1  0  0  0  0
  4  3  1  0  0  0  0
  5 10  1  6  0  0  0
  5  4  1  0  0  0  0
  5  1  1  0  0  0  0
  9  4  1  0  0  0  0
 11  1  1  0  0  0  0
 11 12  1  0  0  0  0
 13  2  1  0  0  0  0
 13 18  1  0  0  0  0
 14 20  1  0  0  0  0
 15 14  1  0  0  0  0
 15 21  1  0  0  0  0
 16 15  2  0  0  0  0
 17 18  2  0  0  0  0
 17 16  1  0  0  0  0
 18 19  1  0  0  0  0
 19 14  2  0  0  0  0
 22 16  1  0  0  0  0
 23  5  1  0  0  0  0
 24 23  1  0  0  0  0
 25 24  1  0  0  0  0
 26 25  1  0  0  0  0
 27 26  1  0  0  0  0
 27 28  1  0  0  0  0
 28 29  1  0  0  0  0
 29 24  1  0  0  0  0
M  END
>  <minimizedAffinity>
-3.7130115

>  <minimizedRMSD>
0.484691888

$$$$
