
 OpenBabel03272508023D

 25 27  0  0  0  0  0  0  0  0999 V2000
   34.9180   29.4540   46.3230 C   0  0  0  0  0  0  0  0  0  0  0  0
   35.6780   30.2180   45.4650 C   0  0  0  0  0  0  0  0  0  0  0  0
   35.3250   29.9180   44.1350 C   0  0  0  0  0  0  0  0  0  0  0  0
   34.3460   28.9630   44.2570 N   0  0  0  0  0  0  0  0  0  0  0  0
   34.1170   28.7030   45.5320 N   0  0  0  0  0  0  0  0  0  0  0  0
   36.4320   30.9430   45.7130 H   0  0  0  0  0  0  0  0  0  0  0  0
   35.7320   30.3400   43.2180 H   0  0  0  0  0  0  0  0  0  0  0  0
   34.9620   29.4520   47.7740 C   0  0  0  0  0  0  0  0  0  0  0  0
   36.0140   30.1660   48.4100 C   0  0  0  0  0  0  0  0  0  0  0  0
   36.0590   30.1660   49.7960 C   0  0  0  0  0  0  0  0  0  0  0  0
   35.0970   29.4830   50.4700 N   0  0  0  0  0  0  0  0  0  0  0  0
   34.1100   28.8120   49.8530 C   0  0  0  0  0  0  0  0  0  0  0  0
   34.0580   28.8070   48.4970 N   0  0  0  0  0  0  0  0  0  0  0  0
   36.7550   30.6950   47.8030 H   0  0  0  0  0  0  0  0  0  0  0  0
   33.3620   28.2800   50.4190 H   0  0  0  0  0  0  0  0  0  0  0  0
   37.1560   30.9120   50.4790 C   0  0  0  0  0  0  0  0  0  0  0  0
   37.1170   30.4860   51.8010 F   0  0  0  0  0  0  0  0  0  0  0  0
   38.3980   30.6110   49.9760 F   0  0  0  0  0  0  0  0  0  0  0  0
   36.9410   32.2800   50.4760 F   0  0  0  0  0  0  0  0  0  0  0  0
   33.7170   28.3900   43.1040 C   0  0  0  0  0  3  0  0  0  0  0  0
   32.7790   27.2970   43.4950 C   0  0  0  0  0  2  0  0  0  0  0  0
   32.4850   26.3350   42.3720 C   0  0  0  0  0  2  0  0  0  0  0  0
   32.7020   26.8880   41.0020 C   0  0  0  0  0  2  0  0  0  0  0  0
   34.0070   27.6150   40.8150 C   0  0  0  0  0  2  0  0  0  0  0  0
   34.7360   27.7950   42.1340 C   0  0  0  0  0  2  0  0  0  0  0  0
  1  8  1  0  0  0  0
  2  6  1  0  0  0  0
  2  1  1  0  0  0  0
  3  4  1  0  0  0  0
  3  2  2  0  0  0  0
  4  5  1  0  0  0  0
  5  1  2  0  0  0  0
  7  3  1  0  0  0  0
  8  9  2  0  0  0  0
  8 13  1  0  0  0  0
  9 10  1  0  0  0  0
 10 11  2  0  0  0  0
 10 16  1  0  0  0  0
 12 15  1  0  0  0  0
 12 11  1  0  0  0  0
 13 12  2  0  0  0  0
 14  9  1  0  0  0  0
 16 17  1  0  0  0  0
 18 16  1  0  0  0  0
 19 16  1  0  0  0  0
 20 21  1  0  0  0  0
 20  4  1  0  0  0  0
 22 21  1  0  0  0  0
 23 22  1  0  0  0  0
 24 23  1  0  0  0  0
 24 25  1  0  0  0  0
 25 20  1  0  0  0  0
M  END
>  <minimizedAffinity>
-4.31090355

>  <minimizedRMSD>
5.8836503

$$$$
