
 OpenBabel03272506433D

 29 31  0  0  1  0  0  0  0  0999 V2000
   32.3720   28.3580   47.5730 C   0  0  2  0  0  0  0  0  0  0  0  0
   33.6550   28.3390   48.3760 C   0  0  1  0  0  0  0  0  0  0  0  0
   34.1880   27.0780   48.2770 O   0  0  0  0  0  0  0  0  0  0  0  0
   33.4990   26.3660   47.3210 C   0  0  0  0  0  0  0  0  0  0  0  0
   32.7370   27.3910   46.4820 C   0  0  1  0  0  0  0  0  0  0  0  0
   31.5110   27.9920   48.1680 H   0  0  0  0  0  0  0  0  0  0  0  0
   33.4410   28.6460   49.4170 H   0  0  0  0  0  0  0  0  0  0  0  0
   32.7880   25.6320   47.7410 H   0  0  0  0  0  0  0  0  0  0  0  0
   34.2590   25.9240   46.6430 H   0  0  0  0  0  0  0  0  0  0  0  0
   33.3740   27.8900   45.7370 H   0  0  0  0  0  0  0  0  0  0  0  0
   32.1180   29.6380   47.0580 O   0  0  0  0  0  0  0  0  0  0  0  0
   32.1260   30.2970   47.7950 H   0  0  0  0  0  0  0  0  0  0  0  0
   34.7950   29.4940   47.5530 S   0  0  0  0  0  0  0  0  0  0  0  0
   37.3900   29.4890   50.5370 C   0  0  0  0  0  0  0  0  0  0  0  0
   37.9970   30.7360   50.5080 C   0  0  0  0  0  0  0  0  0  0  0  0
   37.5830   31.6290   49.5120 C   0  0  0  0  0  0  0  0  0  0  0  0
   36.6150   31.2340   48.6310 N   0  0  0  0  0  0  0  0  0  0  0  0
   36.0530   30.0110   48.6980 C   0  0  0  0  0  0  0  0  0  0  0  0
   36.4370   29.1250   49.6540 N   0  0  0  0  0  0  0  0  0  0  0  0
   37.7200   28.8140   51.3090 H   0  0  0  0  0  0  0  0  0  0  0  0
   38.7580   31.0660   51.1900 H   0  0  0  0  0  0  0  0  0  0  0  0
   37.9750   32.6320   49.3780 H   0  0  0  0  0  0  0  0  0  0  0  0
   31.6330   26.8080   45.8760 O   0  0  0  0  0  0  0  0  0  0  0  0
   31.4740   27.1820   44.5530 C   0  0  0  0  0  3  0  0  0  0  0  0
   30.3540   28.1980   44.3970 C   0  0  0  0  0  2  0  0  0  0  0  0
   30.7250   29.3250   43.4730 C   0  0  0  0  0  2  0  0  0  0  0  0
   31.4290   28.8480   42.2280 C   0  0  0  0  0  2  0  0  0  0  0  0
   32.5380   27.8700   42.4900 C   0  0  0  0  0  2  0  0  0  0  0  0
   32.7340   27.8240   44.0100 C   0  0  0  0  0  2  0  0  0  0  0  0
  1  6  1  1  0  0  0
  1  2  1  0  0  0  0
  2  7  1  1  0  0  0
  3  2  1  0  0  0  0
  4  8  1  0  0  0  0
  4  3  1  0  0  0  0
  5 10  1  6  0  0  0
  5  4  1  0  0  0  0
  5  1  1  0  0  0  0
  9  4  1  0  0  0  0
 11  1  1  0  0  0  0
 11 12  1  0  0  0  0
 13  2  1  0  0  0  0
 13 18  1  0  0  0  0
 14 20  1  0  0  0  0
 15 14  1  0  0  0  0
 15 21  1  0  0  0  0
 16 15  2  0  0  0  0
 17 18  2  0  0  0  0
 17 16  1  0  0  0  0
 18 19  1  0  0  0  0
 19 14  2  0  0  0  0
 22 16  1  0  0  0  0
 23  5  1  0  0  0  0
 24 23  1  0  0  0  0
 25 24  1  0  0  0  0
 26 25  1  0  0  0  0
 27 28  1  0  0  0  0
 27 26  1  0  0  0  0
 28 29  1  0  0  0  0
 29 24  1  0  0  0  0
M  END
>  <minimizedAffinity>
-3.75547791

>  <minimizedRMSD>
0.633847594

$$$$
