
 OpenBabel03272509313D

 35 37  0  0  1  0  0  0  0  0999 V2000
   36.5010   30.8110   48.8480 C   0  0  2  0  0  0  0  0  0  0  0  0
   37.4440   31.5290   49.7640 C   0  0  0  0  0  0  0  0  0  0  0  0
   38.1130   30.6100   50.7610 C   0  0  0  0  0  0  0  0  0  0  0  0
   37.0750   29.8480   51.5760 C   0  0  0  0  0  0  0  0  0  0  0  0
   35.8590   29.4380   50.7910 C   0  0  0  0  0  0  0  0  0  0  0  0
   36.2200   29.4170   49.2980 C   0  0  1  0  0  0  0  0  0  0  0  0
   35.5000   31.3420   48.7390 H   0  0  0  0  0  0  0  0  0  0  0  0
   36.7670   32.1750   50.4190 H   0  0  0  0  0  0  0  0  0  0  0  0
   38.1350   32.2220   49.3240 H   0  0  0  0  0  0  0  0  0  0  0  0
   38.6340   31.2630   51.4970 H   0  0  0  0  0  0  0  0  0  0  0  0
   38.8360   29.9220   50.3300 H   0  0  0  0  0  0  0  0  0  0  0  0
   36.7240   30.4530   52.4490 H   0  0  0  0  0  0  0  0  0  0  0  0
   37.5820   28.9610   52.0130 H   0  0  0  0  0  0  0  0  0  0  0  0
   34.9990   30.1070   50.8790 H   0  0  0  0  0  0  0  0  0  0  0  0
   35.5880   28.3990   51.0550 H   0  0  0  0  0  0  0  0  0  0  0  0
   37.1090   28.8340   49.3090 H   0  0  0  0  0  0  0  0  0  0  0  0
   37.0350   30.7660   47.4590 C   0  0  0  0  0  0  0  0  0  0  0  0
   38.4140   30.9650   47.3310 C   0  0  0  0  0  0  0  0  0  0  0  0
   38.9340   30.9210   46.0310 C   0  0  0  0  0  0  0  0  0  0  0  0
   38.0800   30.6880   44.9780 N   0  0  0  0  0  0  0  0  0  0  0  0
   36.7340   30.4980   45.1630 C   0  0  0  0  0  0  0  0  0  0  0  0
   36.2320   30.5420   46.4070 N   0  0  0  0  0  0  0  0  0  0  0  0
   39.1800   31.1440   48.0590 H   0  0  0  0  0  0  0  0  0  0  0  0
   39.9690   31.0580   45.7920 H   0  0  0  0  0  0  0  0  0  0  0  0
   36.1380   30.3230   44.2890 H   0  0  0  0  0  0  0  0  0  0  0  0
   33.9570   28.4310   48.7350 C   0  0  0  0  0  0  0  0  0  0  0  0
   33.1840   28.8180   49.6590 O   0  0  0  0  0  0  0  0  0  0  0  0
   35.3310   28.6770   48.4810 N   0  0  0  0  0  0  0  0  0  0  0  0
   35.5640   28.1970   47.5570 H   0  0  0  0  0  0  0  0  0  0  0  0
   33.0140   27.6040   47.9340 C   0  0  0  0  0  3  0  0  0  0  0  0
   33.7250   26.2860   47.6970 C   0  0  0  0  0  2  0  0  0  0  0  0
   32.7870   25.3920   46.9190 C   0  0  0  0  0  2  0  0  0  0  0  0
   31.6040   26.1690   46.3930 C   0  0  0  0  0  2  0  0  0  0  0  0
   30.7910   26.7820   47.5190 C   0  0  0  0  0  2  0  0  0  0  0  0
   31.7150   27.3260   48.6140 C   0  0  0  0  0  2  0  0  0  0  0  0
  1  7  1  6  0  0  0
  1  6  1  0  0  0  0
  1  2  1  0  0  0  0
  2  8  1  0  0  0  0
  2  3  1  0  0  0  0
  3 10  1  0  0  0  0
  3  4  1  0  0  0  0
  4 13  1  0  0  0  0
  4 12  1  0  0  0  0
  5 14  1  0  0  0  0
  5 15  1  0  0  0  0
  5  4  1  0  0  0  0
  6 16  1  6  0  0  0
  6  5  1  0  0  0  0
  9  2  1  0  0  0  0
 11  3  1  0  0  0  0
 17  1  1  0  0  0  0
 18 17  1  0  0  0  0
 18 23  1  0  0  0  0
 19 18  2  0  0  0  0
 20 21  2  0  0  0  0
 20 19  1  0  0  0  0
 21 22  1  0  0  0  0
 22 17  2  0  0  0  0
 24 19  1  0  0  0  0
 25 21  1  0  0  0  0
 26 27  2  0  0  0  0
 28 26  1  0  0  0  0
 28  6  1  0  0  0  0
 29 28  1  0  0  0  0
 30 35  1  0  0  0  0
 30 26  1  0  0  0  0
 31 30  1  0  0  0  0
 32 31  1  0  0  0  0
 33 32  1  0  0  0  0
 33 34  1  0  0  0  0
 34 35  1  0  0  0  0
M  END
>  <minimizedAffinity>
-6.1095624

>  <minimizedRMSD>
0.90078938

$$$$
