
 OpenBabel03272500553D

 29 31  0  0  0  0  0  0  0  0999 V2000
   39.3270   25.4840   34.5060 C   0  0  0  0  0  0  0  0  0  0  0  0
   40.3480   26.4270   34.6110 C   0  0  0  0  0  0  0  0  0  0  0  0
   40.7120   27.2410   33.5510 C   0  0  0  0  0  0  0  0  0  0  0  0
   40.0200   27.1080   32.3150 C   0  0  0  0  0  0  0  0  0  0  0  0
   39.0240   26.1720   32.2550 C   0  0  0  0  0  0  0  0  0  0  0  0
   38.6600   25.3740   33.2910 C   0  0  0  0  0  0  0  0  0  0  0  0
   40.8900   26.5390   35.5540 H   0  0  0  0  0  0  0  0  0  0  0  0
   41.5330   27.9540   33.7420 H   0  0  0  0  0  0  0  0  0  0  0  0
   40.4270   27.8080   31.6120 H   0  0  0  0  0  0  0  0  0  0  0  0
   38.7000   26.2280   31.2380 H   0  0  0  0  0  0  0  0  0  0  0  0
   38.1810   25.1650   36.6170 C   0  0  0  0  0  0  0  0  0  0  0  0
   39.1070   24.6700   35.6850 C   0  0  0  0  0  0  0  0  0  0  0  0
   39.7150   23.4460   35.9940 C   0  0  0  0  0  0  0  0  0  0  0  0
   39.4060   22.8070   37.1320 N   0  0  0  0  0  0  0  0  0  0  0  0
   38.5210   23.2910   38.0120 C   0  0  0  0  0  0  0  0  0  0  0  0
   37.9190   24.4650   37.7440 N   0  0  0  0  0  0  0  0  0  0  0  0
   37.6340   26.1040   36.5040 H   0  0  0  0  0  0  0  0  0  0  0  0
   40.4210   23.1040   35.2480 H   0  0  0  0  0  0  0  0  0  0  0  0
   38.3030   22.7490   38.9100 H   0  0  0  0  0  0  0  0  0  0  0  0
   38.0440   23.2030   32.6300 C   0  0  0  0  0  0  0  0  0  0  0  0
   39.2380   23.1340   32.1680 O   0  0  0  0  0  0  0  0  0  0  0  0
   37.6230   24.4470   33.2200 N   0  0  0  0  0  0  0  0  0  0  0  0
   36.6880   24.6320   33.5470 H   0  0  0  0  0  0  0  0  0  0  0  0
   37.0760   22.0530   32.5850 C   0  0  0  0  0  3  0  0  0  0  0  0
   35.7850   22.3760   31.9210 C   0  0  0  0  0  2  0  0  0  0  0  0
   35.2430   20.9990   31.5210 C   0  0  0  0  0  2  0  0  0  0  0  0
   35.2100   20.0420   32.6510 C   0  0  0  0  0  2  0  0  0  0  0  0
   35.7340   20.5010   33.9580 C   0  0  0  0  0  2  0  0  0  0  0  0
   36.7410   21.5700   33.9660 C   0  0  0  0  0  2  0  0  0  0  0  0
  1  2  1  0  0  0  0
  1 12  1  0  0  0  0
  2  7  1  0  0  0  0
  3  8  1  0  0  0  0
  3  2  2  0  0  0  0
  4  3  1  0  0  0  0
  5  4  2  0  0  0  0
  5  6  1  0  0  0  0
  6  1  2  0  0  0  0
  9  4  1  0  0  0  0
 10  5  1  0  0  0  0
 11 16  1  0  0  0  0
 12 13  1  0  0  0  0
 12 11  2  0  0  0  0
 13 14  2  0  0  0  0
 14 15  1  0  0  0  0
 15 19  1  0  0  0  0
 16 15  2  0  0  0  0
 17 11  1  0  0  0  0
 18 13  1  0  0  0  0
 20 22  1  0  0  0  0
 21 20  2  0  0  0  0
 22  6  1  0  0  0  0
 22 23  1  0  0  0  0
 24 20  1  0  0  0  0
 24 29  1  0  0  0  0
 25 24  1  0  0  0  0
 26 25  1  0  0  0  0
 26 27  1  0  0  0  0
 27 28  1  0  0  0  0
 28 29  1  0  0  0  0
M  END
>  <minimizedAffinity>
-5.52200651

$$$$

 OpenBabel03272500553D

 29 31  0  0  0  0  0  0  0  0999 V2000
   39.3790   25.6240   34.5620 C   0  0  0  0  0  0  0  0  0  0  0  0
   40.4910   26.4560   34.6840 C   0  0  0  0  0  0  0  0  0  0  0  0
   40.9610   27.2200   33.6290 C   0  0  0  0  0  0  0  0  0  0  0  0
   40.2850   27.1520   32.3780 C   0  0  0  0  0  0  0  0  0  0  0  0
   39.1990   26.3240   32.3010 C   0  0  0  0  0  0  0  0  0  0  0  0
   38.7310   25.5750   33.3320 C   0  0  0  0  0  0  0  0  0  0  0  0
   41.0210   26.5170   35.6380 H   0  0  0  0  0  0  0  0  0  0  0  0
   41.8470   27.8450   33.8350 H   0  0  0  0  0  0  0  0  0  0  0  0
   40.7780   27.8000   31.6810 H   0  0  0  0  0  0  0  0  0  0  0  0
   38.9040   26.4070   31.2760 H   0  0  0  0  0  0  0  0  0  0  0  0
   39.8030   23.6760   35.9390 C   0  0  0  0  0  0  0  0  0  0  0  0
   39.0510   24.8450   35.7390 C   0  0  0  0  0  0  0  0  0  0  0  0
   38.0680   25.1300   36.6960 C   0  0  0  0  0  0  0  0  0  0  0  0
   37.8810   24.3060   37.7370 N   0  0  0  0  0  0  0  0  0  0  0  0
   38.6050   23.1950   37.9160 C   0  0  0  0  0  0  0  0  0  0  0  0
   39.5580   22.8930   37.0140 N   0  0  0  0  0  0  0  0  0  0  0  0
   40.5990   23.3340   35.2730 H   0  0  0  0  0  0  0  0  0  0  0  0
   37.5130   26.0390   36.5010 H   0  0  0  0  0  0  0  0  0  0  0  0
   38.4240   22.5630   38.7610 H   0  0  0  0  0  0  0  0  0  0  0  0
   37.9010   23.4860   32.6430 C   0  0  0  0  0  0  0  0  0  0  0  0
   39.0860   23.2990   32.1910 O   0  0  0  0  0  0  0  0  0  0  0  0
   37.6040   24.7610   33.2430 N   0  0  0  0  0  0  0  0  0  0  0  0
   36.6910   25.0390   33.5640 H   0  0  0  0  0  0  0  0  0  0  0  0
   36.8200   22.4420   32.5780 C   0  0  0  0  0  3  0  0  0  0  0  0
   37.0040   21.3210   33.5380 C   0  0  0  0  0  2  0  0  0  0  0  0
   35.5920   20.7380   33.6680 C   0  0  0  0  0  2  0  0  0  0  0  0
   34.9760   20.4220   32.3580 C   0  0  0  0  0  2  0  0  0  0  0  0
   35.7480   20.7480   31.1360 C   0  0  0  0  0  2  0  0  0  0  0  0
   36.7400   21.8280   31.2100 C   0  0  0  0  0  2  0  0  0  0  0  0
  1  2  1  0  0  0  0
  1 12  1  0  0  0  0
  2  7  1  0  0  0  0
  3  8  1  0  0  0  0
  3  2  2  0  0  0  0
  4  3  1  0  0  0  0
  5  4  2  0  0  0  0
  5  6  1  0  0  0  0
  6  1  2  0  0  0  0
  9  4  1  0  0  0  0
 10  5  1  0  0  0  0
 11 16  1  0  0  0  0
 12 11  2  0  0  0  0
 12 13  1  0  0  0  0
 13 14  2  0  0  0  0
 14 15  1  0  0  0  0
 15 19  1  0  0  0  0
 16 15  2  0  0  0  0
 17 11  1  0  0  0  0
 18 13  1  0  0  0  0
 20 22  1  0  0  0  0
 21 20  2  0  0  0  0
 22  6  1  0  0  0  0
 22 23  1  0  0  0  0
 24 20  1  0  0  0  0
 24 25  1  0  0  0  0
 25 26  1  0  0  0  0
 27 26  1  0  0  0  0
 28 29  1  0  0  0  0
 28 27  1  0  0  0  0
 29 24  1  0  0  0  0
M  END
>  <minimizedAffinity>
-5.51040411

$$$$

 OpenBabel03272500553D

 29 31  0  0  0  0  0  0  0  0999 V2000
   39.6340   25.1580   34.5650 C   0  0  0  0  0  0  0  0  0  0  0  0
   40.2690   26.3900   34.7070 C   0  0  0  0  0  0  0  0  0  0  0  0
   40.6780   27.1410   33.6180 C   0  0  0  0  0  0  0  0  0  0  0  0
   40.4420   26.6340   32.3090 C   0  0  0  0  0  0  0  0  0  0  0  0
   39.8160   25.4220   32.2130 C   0  0  0  0  0  0  0  0  0  0  0  0
   39.4090   24.6830   33.2770 C   0  0  0  0  0  0  0  0  0  0  0  0
   40.4590   26.7910   35.7070 H   0  0  0  0  0  0  0  0  0  0  0  0
   41.1700   28.1020   33.8440 H   0  0  0  0  0  0  0  0  0  0  0  0
   40.8190   27.3360   31.5920 H   0  0  0  0  0  0  0  0  0  0  0  0
   39.7980   25.2420   31.1590 H   0  0  0  0  0  0  0  0  0  0  0  0
   38.1760   24.9080   36.4830 C   0  0  0  0  0  0  0  0  0  0  0  0
   39.3220   24.4690   35.8010 C   0  0  0  0  0  0  0  0  0  0  0  0
   40.0370   23.4160   36.3880 C   0  0  0  0  0  0  0  0  0  0  0  0
   39.6200   22.8790   37.5440 N   0  0  0  0  0  0  0  0  0  0  0  0
   38.5260   23.3070   38.1840 C   0  0  0  0  0  0  0  0  0  0  0  0
   37.8160   24.3170   37.6460 N   0  0  0  0  0  0  0  0  0  0  0  0
   37.5260   25.7170   36.1410 H   0  0  0  0  0  0  0  0  0  0  0  0
   40.9120   23.1120   35.8280 H   0  0  0  0  0  0  0  0  0  0  0  0
   38.2270   22.8510   39.1060 H   0  0  0  0  0  0  0  0  0  0  0  0
   37.3640   23.6330   32.7820 C   0  0  0  0  0  0  0  0  0  0  0  0
   36.9060   24.8270   32.7050 O   0  0  0  0  0  0  0  0  0  0  0  0
   38.7440   23.4650   33.1580 N   0  0  0  0  0  0  0  0  0  0  0  0
   39.1850   22.5730   33.3180 H   0  0  0  0  0  0  0  0  0  0  0  0
   36.5330   22.4120   32.4970 C   0  0  0  0  0  3  0  0  0  0  0  0
   36.7480   21.2970   33.4590 C   0  0  0  0  0  2  0  0  0  0  0  0
   35.4740   20.4580   33.3100 C   0  0  0  0  0  2  0  0  0  0  0  0
   35.1800   20.1000   31.9030 C   0  0  0  0  0  2  0  0  0  0  0  0
   36.0860   20.6240   30.8550 C   0  0  0  0  0  2  0  0  0  0  0  0
   36.8230   21.8640   31.1300 C   0  0  0  0  0  2  0  0  0  0  0  0
  1  2  1  0  0  0  0
  1 12  1  0  0  0  0
  2  7  1  0  0  0  0
  3  8  1  0  0  0  0
  3  2  2  0  0  0  0
  4  3  1  0  0  0  0
  5  4  2  0  0  0  0
  5  6  1  0  0  0  0
  6  1  2  0  0  0  0
  9  4  1  0  0  0  0
 10  5  1  0  0  0  0
 11 16  1  0  0  0  0
 12 13  1  0  0  0  0
 12 11  2  0  0  0  0
 13 14  2  0  0  0  0
 14 15  1  0  0  0  0
 15 19  1  0  0  0  0
 16 15  2  0  0  0  0
 17 11  1  0  0  0  0
 18 13  1  0  0  0  0
 20 22  1  0  0  0  0
 21 20  2  0  0  0  0
 22  6  1  0  0  0  0
 22 23  1  0  0  0  0
 24 20  1  0  0  0  0
 24 25  1  0  0  0  0
 26 25  1  0  0  0  0
 27 26  1  0  0  0  0
 28 29  1  0  0  0  0
 28 27  1  0  0  0  0
 29 24  1  0  0  0  0
M  END
>  <minimizedAffinity>
-5.45320606

$$$$

 OpenBabel03272500553D

 29 31  0  0  0  0  0  0  0  0999 V2000
   37.3210   27.1630   32.4640 C   0  0  0  0  0  0  0  0  0  0  0  0
   36.9640   28.3270   31.7860 C   0  0  0  0  0  0  0  0  0  0  0  0
   36.2760   29.3590   32.4030 C   0  0  0  0  0  0  0  0  0  0  0  0
   35.9240   29.2250   33.7750 C   0  0  0  0  0  0  0  0  0  0  0  0
   36.2940   28.0680   34.4040 C   0  0  0  0  0  0  0  0  0  0  0  0
   36.9710   27.0540   33.8050 C   0  0  0  0  0  0  0  0  0  0  0  0
   37.2260   28.4430   30.7310 H   0  0  0  0  0  0  0  0  0  0  0  0
   36.0440   30.2360   31.7740 H   0  0  0  0  0  0  0  0  0  0  0  0
   35.4020   30.1070   34.0870 H   0  0  0  0  0  0  0  0  0  0  0  0
   35.8840   28.1830   35.3840 H   0  0  0  0  0  0  0  0  0  0  0  0
   37.1570   25.1650   31.1040 C   0  0  0  0  0  0  0  0  0  0  0  0
   37.9830   26.1530   31.6630 C   0  0  0  0  0  0  0  0  0  0  0  0
   39.3530   26.0550   31.3860 C   0  0  0  0  0  0  0  0  0  0  0  0
   39.8180   25.0540   30.6240 N   0  0  0  0  0  0  0  0  0  0  0  0
   39.0190   24.1190   30.0970 C   0  0  0  0  0  0  0  0  0  0  0  0
   37.6970   24.1850   30.3440 N   0  0  0  0  0  0  0  0  0  0  0  0
   36.0730   25.1190   31.2380 H   0  0  0  0  0  0  0  0  0  0  0  0
   39.9510   26.8360   31.8380 H   0  0  0  0  0  0  0  0  0  0  0  0
   39.4300   23.3360   29.4930 H   0  0  0  0  0  0  0  0  0  0  0  0
   38.4580   26.1370   35.3790 C   0  0  0  0  0  0  0  0  0  0  0  0
   38.9780   27.3080   35.3920 O   0  0  0  0  0  0  0  0  0  0  0  0
   37.3670   25.8960   34.4710 N   0  0  0  0  0  0  0  0  0  0  0  0
   36.9350   24.9970   34.3280 H   0  0  0  0  0  0  0  0  0  0  0  0
   38.9310   25.0160   36.2640 C   0  0  0  0  0  3  0  0  0  0  0  0
   39.1550   23.7330   35.5450 C   0  0  0  0  0  2  0  0  0  0  0  0
   40.1050   22.9720   36.4770 C   0  0  0  0  0  2  0  0  0  0  0  0
   39.6090   22.8970   37.8710 C   0  0  0  0  0  2  0  0  0  0  0  0
   38.3360   23.5870   38.1870 C   0  0  0  0  0  2  0  0  0  0  0  0
   37.9410   24.7310   37.3560 C   0  0  0  0  0  2  0  0  0  0  0  0
  1  6  1  0  0  0  0
  2  3  1  0  0  0  0
  2  1  2  0  0  0  0
  3  4  2  0  0  0  0
  4  9  1  0  0  0  0
  4  5  1  0  0  0  0
  5 10  1  0  0  0  0
  6  5  2  0  0  0  0
  6 22  1  0  0  0  0
  7  2  1  0  0  0  0
  8  3  1  0  0  0  0
 11 17  1  0  0  0  0
 11 12  1  0  0  0  0
 12  1  1  0  0  0  0
 13 12  2  0  0  0  0
 13 18  1  0  0  0  0
 14 13  1  0  0  0  0
 15 16  1  0  0  0  0
 15 14  2  0  0  0  0
 16 11  2  0  0  0  0
 19 15  1  0  0  0  0
 20 21  2  0  0  0  0
 20 24  1  0  0  0  0
 22 20  1  0  0  0  0
 23 22  1  0  0  0  0
 24 29  1  0  0  0  0
 25 24  1  0  0  0  0
 25 26  1  0  0  0  0
 26 27  1  0  0  0  0
 27 28  1  0  0  0  0
 29 28  1  0  0  0  0
M  END
>  <minimizedAffinity>
-5.29860783

$$$$

 OpenBabel03272500553D

 29 31  0  0  0  0  0  0  0  0999 V2000
   37.2210   27.9000   32.7780 C   0  0  0  0  0  0  0  0  0  0  0  0
   38.0820   27.7380   31.6940 C   0  0  0  0  0  0  0  0  0  0  0  0
   37.8300   28.3100   30.4590 C   0  0  0  0  0  0  0  0  0  0  0  0
   36.6510   29.0910   30.2930 C   0  0  0  0  0  0  0  0  0  0  0  0
   35.8340   29.2260   31.3810 C   0  0  0  0  0  0  0  0  0  0  0  0
   36.0780   28.6690   32.5960 C   0  0  0  0  0  0  0  0  0  0  0  0
   38.9900   27.1390   31.8070 H   0  0  0  0  0  0  0  0  0  0  0  0
   38.5770   28.1190   29.6700 H   0  0  0  0  0  0  0  0  0  0  0  0
   36.6140   29.4530   29.2850 H   0  0  0  0  0  0  0  0  0  0  0  0
   35.0150   29.7970   31.0000 H   0  0  0  0  0  0  0  0  0  0  0  0
   37.5480   25.7860   33.9170 C   0  0  0  0  0  0  0  0  0  0  0  0
   37.5950   27.1880   33.9840 C   0  0  0  0  0  0  0  0  0  0  0  0
   37.9980   27.7440   35.2050 C   0  0  0  0  0  0  0  0  0  0  0  0
   38.3140   26.9480   36.2380 N   0  0  0  0  0  0  0  0  0  0  0  0
   38.2640   25.6130   36.1600 C   0  0  0  0  0  0  0  0  0  0  0  0
   37.8810   25.0470   34.9990 N   0  0  0  0  0  0  0  0  0  0  0  0
   37.2520   25.2220   33.0290 H   0  0  0  0  0  0  0  0  0  0  0  0
   38.0190   28.8260   35.2120 H   0  0  0  0  0  0  0  0  0  0  0  0
   38.5240   25.0130   37.0080 H   0  0  0  0  0  0  0  0  0  0  0  0
   35.2720   30.1990   34.1900 C   0  0  0  0  0  0  0  0  0  0  0  0
   36.0900   31.0190   33.6400 O   0  0  0  0  0  0  0  0  0  0  0  0
   35.2490   28.8440   33.7020 N   0  0  0  0  0  0  0  0  0  0  0  0
   34.6990   28.1040   34.1080 H   0  0  0  0  0  0  0  0  0  0  0  0
   34.3440   30.5870   35.3080 C   0  0  0  0  0  3  0  0  0  0  0  0
   33.0130   31.0660   34.8490 C   0  0  0  0  0  2  0  0  0  0  0  0
   32.1260   30.8670   36.0840 C   0  0  0  0  0  2  0  0  0  0  0  0
   32.6910   31.4850   37.3060 C   0  0  0  0  0  2  0  0  0  0  0  0
   34.0150   32.1420   37.1970 C   0  0  0  0  0  2  0  0  0  0  0  0
   34.9320   31.6850   36.1460 C   0  0  0  0  0  2  0  0  0  0  0  0
  1 12  1  0  0  0  0
  2  7  1  0  0  0  0
  2  1  2  0  0  0  0
  3  2  1  0  0  0  0
  4  3  2  0  0  0  0
  4  5  1  0  0  0  0
  5  6  2  0  0  0  0
  6  1  1  0  0  0  0
  6 22  1  0  0  0  0
  8  3  1  0  0  0  0
  9  4  1  0  0  0  0
 10  5  1  0  0  0  0
 11 12  2  0  0  0  0
 11 16  1  0  0  0  0
 12 13  1  0  0  0  0
 13 18  1  0  0  0  0
 13 14  2  0  0  0  0
 15 14  1  0  0  0  0
 15 19  1  0  0  0  0
 16 15  2  0  0  0  0
 17 11  1  0  0  0  0
 20 24  1  0  0  0  0
 21 20  2  0  0  0  0
 22 23  1  0  0  0  0
 22 20  1  0  0  0  0
 24 29  1  0  0  0  0
 25 24  1  0  0  0  0
 25 26  1  0  0  0  0
 26 27  1  0  0  0  0
 28 27  1  0  0  0  0
 29 28  1  0  0  0  0
M  END
>  <minimizedAffinity>
-5.25334692

$$$$

 OpenBabel03272500553D

 29 31  0  0  0  0  0  0  0  0999 V2000
   37.0040   25.6870   32.0040 C   0  0  0  0  0  0  0  0  0  0  0  0
   36.8480   26.5160   30.8950 C   0  0  0  0  0  0  0  0  0  0  0  0
   36.7920   27.8950   31.0060 C   0  0  0  0  0  0  0  0  0  0  0  0
   36.8970   28.4840   32.2980 C   0  0  0  0  0  0  0  0  0  0  0  0
   37.0500   27.6350   33.3600 C   0  0  0  0  0  0  0  0  0  0  0  0
   37.1090   26.2820   33.2560 C   0  0  0  0  0  0  0  0  0  0  0  0
   36.7630   26.0770   29.8970 H   0  0  0  0  0  0  0  0  0  0  0  0
   36.6670   28.4560   30.0640 H   0  0  0  0  0  0  0  0  0  0  0  0
   36.8340   29.5490   32.2000 H   0  0  0  0  0  0  0  0  0  0  0  0
   37.0550   28.2970   34.1990 H   0  0  0  0  0  0  0  0  0  0  0  0
   35.7170   23.6870   31.5380 C   0  0  0  0  0  0  0  0  0  0  0  0
   36.9840   24.2640   31.7280 C   0  0  0  0  0  0  0  0  0  0  0  0
   38.0860   23.4040   31.6300 C   0  0  0  0  0  0  0  0  0  0  0  0
   37.9040   22.1020   31.3680 N   0  0  0  0  0  0  0  0  0  0  0  0
   36.6910   21.5650   31.1890 C   0  0  0  0  0  0  0  0  0  0  0  0
   35.6110   22.3650   31.2760 N   0  0  0  0  0  0  0  0  0  0  0  0
   34.7750   24.2390   31.5860 H   0  0  0  0  0  0  0  0  0  0  0  0
   39.0400   23.8910   31.7840 H   0  0  0  0  0  0  0  0  0  0  0  0
   36.5890   20.5190   30.9810 H   0  0  0  0  0  0  0  0  0  0  0  0
   38.6830   25.3350   34.7250 C   0  0  0  0  0  0  0  0  0  0  0  0
   39.5490   25.9260   33.9860 O   0  0  0  0  0  0  0  0  0  0  0  0
   37.2970   25.4360   34.3470 N   0  0  0  0  0  0  0  0  0  0  0  0
   36.5450   24.9530   34.8120 H   0  0  0  0  0  0  0  0  0  0  0  0
   39.0480   24.5530   35.9560 C   0  0  0  0  0  3  0  0  0  0  0  0
   39.4380   23.1430   35.6820 C   0  0  0  0  0  2  0  0  0  0  0  0
   40.2510   22.7590   36.9240 C   0  0  0  0  0  2  0  0  0  0  0  0
   39.5350   23.0360   38.1910 C   0  0  0  0  0  2  0  0  0  0  0  0
   38.2010   23.6750   38.1030 C   0  0  0  0  0  2  0  0  0  0  0  0
   37.9030   24.5020   36.9270 C   0  0  0  0  0  2  0  0  0  0  0  0
  1  6  1  0  0  0  0
  2  3  1  0  0  0  0
  2  1  2  0  0  0  0
  3  4  2  0  0  0  0
  4  5  1  0  0  0  0
  5 10  1  0  0  0  0
  6  5  2  0  0  0  0
  6 22  1  0  0  0  0
  7  2  1  0  0  0  0
  8  3  1  0  0  0  0
  9  4  1  0  0  0  0
 11 17  1  0  0  0  0
 11 12  1  0  0  0  0
 12  1  1  0  0  0  0
 13 12  2  0  0  0  0
 13 18  1  0  0  0  0
 14 13  1  0  0  0  0
 15 16  1  0  0  0  0
 15 14  2  0  0  0  0
 16 11  2  0  0  0  0
 19 15  1  0  0  0  0
 20 24  1  0  0  0  0
 21 20  2  0  0  0  0
 22 20  1  0  0  0  0
 22 23  1  0  0  0  0
 24 29  1  0  0  0  0
 25 24  1  0  0  0  0
 25 26  1  0  0  0  0
 26 27  1  0  0  0  0
 28 27  1  0  0  0  0
 29 28  1  0  0  0  0
M  END
>  <minimizedAffinity>
-5.15394735

$$$$

 OpenBabel03272500553D

 29 31  0  0  0  0  0  0  0  0999 V2000
   38.9970   26.3780   33.7940 C   0  0  0  0  0  0  0  0  0  0  0  0
   40.1560   27.1480   33.8680 C   0  0  0  0  0  0  0  0  0  0  0  0
   41.3500   26.6400   34.3540 C   0  0  0  0  0  0  0  0  0  0  0  0
   41.3920   25.2880   34.7930 C   0  0  0  0  0  0  0  0  0  0  0  0
   40.2330   24.5670   34.7040 C   0  0  0  0  0  0  0  0  0  0  0  0
   39.0600   25.0570   34.2250 C   0  0  0  0  0  0  0  0  0  0  0  0
   40.1390   28.1890   33.5360 H   0  0  0  0  0  0  0  0  0  0  0  0
   42.2070   27.3360   34.3670 H   0  0  0  0  0  0  0  0  0  0  0  0
   42.3830   25.0640   35.1350 H   0  0  0  0  0  0  0  0  0  0  0  0
   40.5010   23.6230   35.1290 H   0  0  0  0  0  0  0  0  0  0  0  0
   37.0880   27.7870   34.2830 C   0  0  0  0  0  0  0  0  0  0  0  0
   37.8160   27.0710   33.3190 C   0  0  0  0  0  0  0  0  0  0  0  0
   37.3250   27.1060   32.0080 C   0  0  0  0  0  0  0  0  0  0  0  0
   36.2110   27.7960   31.7220 N   0  0  0  0  0  0  0  0  0  0  0  0
   35.5260   28.4740   32.6500 C   0  0  0  0  0  0  0  0  0  0  0  0
   35.9720   28.4620   33.9210 N   0  0  0  0  0  0  0  0  0  0  0  0
   37.3560   27.8470   35.3400 H   0  0  0  0  0  0  0  0  0  0  0  0
   37.9170   26.5400   31.3000 H   0  0  0  0  0  0  0  0  0  0  0  0
   34.6410   29.0130   32.3810 H   0  0  0  0  0  0  0  0  0  0  0  0
   37.9010   23.4700   32.9350 C   0  0  0  0  0  0  0  0  0  0  0  0
   38.8780   23.5990   32.1150 O   0  0  0  0  0  0  0  0  0  0  0  0
   37.8980   24.2980   34.1130 N   0  0  0  0  0  0  0  0  0  0  0  0
   37.1460   24.3290   34.7830 H   0  0  0  0  0  0  0  0  0  0  0  0
   36.7710   22.5000   32.7220 C   0  0  0  0  0  3  0  0  0  0  0  0
   36.9690   21.1860   33.3910 C   0  0  0  0  0  2  0  0  0  0  0  0
   35.5450   20.6300   33.4970 C   0  0  0  0  0  2  0  0  0  0  0  0
   34.8250   20.6370   32.2010 C   0  0  0  0  0  2  0  0  0  0  0  0
   35.5250   21.2080   31.0270 C   0  0  0  0  0  2  0  0  0  0  0  0
   36.5680   22.2140   31.2620 C   0  0  0  0  0  2  0  0  0  0  0  0
  1  2  2  0  0  0  0
  1  6  1  0  0  0  0
  2  3  1  0  0  0  0
  3  8  1  0  0  0  0
  3  4  2  0  0  0  0
  4  9  1  0  0  0  0
  5  4  1  0  0  0  0
  5 10  1  0  0  0  0
  6  5  2  0  0  0  0
  7  2  1  0  0  0  0
 11 17  1  0  0  0  0
 12  1  1  0  0  0  0
 12 11  2  0  0  0  0
 13 12  1  0  0  0  0
 14 13  2  0  0  0  0
 14 15  1  0  0  0  0
 15 16  2  0  0  0  0
 16 11  1  0  0  0  0
 18 13  1  0  0  0  0
 19 15  1  0  0  0  0
 20 22  1  0  0  0  0
 21 20  2  0  0  0  0
 22  6  1  0  0  0  0
 22 23  1  0  0  0  0
 24 20  1  0  0  0  0
 24 25  1  0  0  0  0
 25 26  1  0  0  0  0
 27 26  1  0  0  0  0
 28 29  1  0  0  0  0
 28 27  1  0  0  0  0
 29 24  1  0  0  0  0
M  END
>  <minimizedAffinity>
-5.08385277

$$$$

 OpenBabel03272500553D

 29 31  0  0  0  0  0  0  0  0999 V2000
   39.4810   23.9620   35.7030 C   0  0  0  0  0  0  0  0  0  0  0  0
   40.1290   23.1750   36.6540 C   0  0  0  0  0  0  0  0  0  0  0  0
   39.6150   22.9820   37.9260 C   0  0  0  0  0  0  0  0  0  0  0  0
   38.3860   23.6100   38.2710 C   0  0  0  0  0  0  0  0  0  0  0  0
   37.7830   24.3730   37.3090 C   0  0  0  0  0  0  0  0  0  0  0  0
   38.2790   24.5630   36.0600 C   0  0  0  0  0  0  0  0  0  0  0  0
   41.0750   22.6890   36.4030 H   0  0  0  0  0  0  0  0  0  0  0  0
   40.2080   22.3400   38.5990 H   0  0  0  0  0  0  0  0  0  0  0  0
   38.1390   23.3560   39.2830 H   0  0  0  0  0  0  0  0  0  0  0  0
   36.9260   24.7650   37.8140 H   0  0  0  0  0  0  0  0  0  0  0  0
   41.2030   25.0720   34.4090 C   0  0  0  0  0  0  0  0  0  0  0  0
   40.1770   24.1140   34.4410 C   0  0  0  0  0  0  0  0  0  0  0  0
   39.9390   23.4110   33.2520 C   0  0  0  0  0  0  0  0  0  0  0  0
   40.6710   23.6670   32.1580 N   0  0  0  0  0  0  0  0  0  0  0  0
   41.6460   24.5830   32.1420 C   0  0  0  0  0  0  0  0  0  0  0  0
   41.9010   25.2760   33.2690 N   0  0  0  0  0  0  0  0  0  0  0  0
   41.4950   25.6910   35.2620 H   0  0  0  0  0  0  0  0  0  0  0  0
   39.1400   22.6840   33.3230 H   0  0  0  0  0  0  0  0  0  0  0  0
   42.2090   24.7570   31.2480 H   0  0  0  0  0  0  0  0  0  0  0  0
   37.9340   26.7230   35.1970 C   0  0  0  0  0  0  0  0  0  0  0  0
   38.6400   27.1050   36.1960 O   0  0  0  0  0  0  0  0  0  0  0  0
   37.6350   25.3190   35.0830 N   0  0  0  0  0  0  0  0  0  0  0  0
   37.0310   24.9220   34.3810 H   0  0  0  0  0  0  0  0  0  0  0  0
   37.4120   27.6670   34.1490 C   0  0  0  0  0  3  0  0  0  0  0  0
   36.0370   28.1670   34.4180 C   0  0  0  0  0  2  0  0  0  0  0  0
   35.9620   29.4500   33.5810 C   0  0  0  0  0  2  0  0  0  0  0  0
   36.3490   29.2380   32.1660 C   0  0  0  0  0  2  0  0  0  0  0  0
   36.7930   27.8820   31.7680 C   0  0  0  0  0  2  0  0  0  0  0  0
   37.3760   27.0120   32.7980 C   0  0  0  0  0  2  0  0  0  0  0  0
  1  6  2  0  0  0  0
  1  2  1  0  0  0  0
  2  3  2  0  0  0  0
  3  4  1  0  0  0  0
  3  8  1  0  0  0  0
  4  9  1  0  0  0  0
  5 10  1  0  0  0  0
  5  4  2  0  0  0  0
  6  5  1  0  0  0  0
  7  2  1  0  0  0  0
 11 12  1  0  0  0  0
 11 17  1  0  0  0  0
 12  1  1  0  0  0  0
 13 18  1  0  0  0  0
 13 12  2  0  0  0  0
 14 13  1  0  0  0  0
 15 14  2  0  0  0  0
 15 16  1  0  0  0  0
 16 11  2  0  0  0  0
 19 15  1  0  0  0  0
 20 21  2  0  0  0  0
 22 20  1  0  0  0  0
 22  6  1  0  0  0  0
 23 22  1  0  0  0  0
 24 25  1  0  0  0  0
 24 20  1  0  0  0  0
 26 25  1  0  0  0  0
 27 26  1  0  0  0  0
 28 27  1  0  0  0  0
 28 29  1  0  0  0  0
 29 24  1  0  0  0  0
M  END
>  <minimizedAffinity>
-5.04835653

$$$$

 OpenBabel03272500553D

 29 31  0  0  0  0  0  0  0  0999 V2000
   38.1290   25.7010   33.6870 C   0  0  0  0  0  0  0  0  0  0  0  0
   37.0370   26.5440   33.4890 C   0  0  0  0  0  0  0  0  0  0  0  0
   36.7850   27.6310   34.3090 C   0  0  0  0  0  0  0  0  0  0  0  0
   37.6730   27.8940   35.3900 C   0  0  0  0  0  0  0  0  0  0  0  0
   38.7320   27.0430   35.5490 C   0  0  0  0  0  0  0  0  0  0  0  0
   38.9860   25.9780   34.7460 C   0  0  0  0  0  0  0  0  0  0  0  0
   36.3450   26.3530   32.6640 H   0  0  0  0  0  0  0  0  0  0  0  0
   35.8940   28.2330   34.0630 H   0  0  0  0  0  0  0  0  0  0  0  0
   37.3320   28.7630   35.9160 H   0  0  0  0  0  0  0  0  0  0  0  0
   39.2090   27.4120   36.4320 H   0  0  0  0  0  0  0  0  0  0  0  0
   38.8380   24.8200   31.5440 C   0  0  0  0  0  0  0  0  0  0  0  0
   38.2190   24.5730   32.7800 C   0  0  0  0  0  0  0  0  0  0  0  0
   37.7580   23.2690   33.0020 C   0  0  0  0  0  0  0  0  0  0  0  0
   37.9150   22.3280   32.0590 N   0  0  0  0  0  0  0  0  0  0  0  0
   38.5070   22.5770   30.8850 C   0  0  0  0  0  0  0  0  0  0  0  0
   38.9620   23.8210   30.6410 N   0  0  0  0  0  0  0  0  0  0  0  0
   39.2430   25.7880   31.2390 H   0  0  0  0  0  0  0  0  0  0  0  0
   37.2880   23.1260   33.9660 H   0  0  0  0  0  0  0  0  0  0  0  0
   38.6130   21.7970   30.1580 H   0  0  0  0  0  0  0  0  0  0  0  0
   39.8640   24.1320   35.9080 C   0  0  0  0  0  0  0  0  0  0  0  0
   38.7720   24.1850   36.5760 O   0  0  0  0  0  0  0  0  0  0  0  0
   40.0880   25.1400   34.9040 N   0  0  0  0  0  0  0  0  0  0  0  0
   40.9390   25.2350   34.3740 H   0  0  0  0  0  0  0  0  0  0  0  0
   40.9100   23.0730   36.1220 C   0  0  0  0  0  3  0  0  0  0  0  0
   40.9060   22.4880   37.4900 C   0  0  0  0  0  2  0  0  0  0  0  0
   41.6170   21.1440   37.2980 C   0  0  0  0  0  2  0  0  0  0  0  0
   42.9260   21.2760   36.6140 C   0  0  0  0  0  2  0  0  0  0  0  0
   43.3380   22.6280   36.1720 C   0  0  0  0  0  2  0  0  0  0  0  0
   42.2900   23.6170   35.8910 C   0  0  0  0  0  2  0  0  0  0  0  0
  1  6  1  0  0  0  0
  2  1  2  0  0  0  0
  2  3  1  0  0  0  0
  3  4  2  0  0  0  0
  4  5  1  0  0  0  0
  4  9  1  0  0  0  0
  5 10  1  0  0  0  0
  6 22  1  0  0  0  0
  6  5  2  0  0  0  0
  7  2  1  0  0  0  0
  8  3  1  0  0  0  0
 11 12  1  0  0  0  0
 12 13  2  0  0  0  0
 12  1  1  0  0  0  0
 13 18  1  0  0  0  0
 14 13  1  0  0  0  0
 15 14  2  0  0  0  0
 16 15  1  0  0  0  0
 16 11  2  0  0  0  0
 17 11  1  0  0  0  0
 19 15  1  0  0  0  0
 20 24  1  0  0  0  0
 20 21  2  0  0  0  0
 22 20  1  0  0  0  0
 23 22  1  0  0  0  0
 24 25  1  0  0  0  0
 26 25  1  0  0  0  0
 27 26  1  0  0  0  0
 28 27  1  0  0  0  0
 29 24  1  0  0  0  0
 29 28  1  0  0  0  0
M  END
>  <minimizedAffinity>
-5.02582169

$$$$
