
 OpenBabel03272503393D

 26 28  0  0  0  0  0  0  0  0999 V2000
   35.4550   29.8820   49.8110 C   0  0  0  0  0  0  0  0  0  0  0  0
   35.8280   30.2840   48.5410 C   0  0  0  0  0  0  0  0  0  0  0  0
   35.1880   29.7740   47.4240 C   0  0  0  0  0  0  0  0  0  0  0  0
   34.1940   28.8740   47.6460 N   0  0  0  0  0  0  0  0  0  0  0  0
   33.8400   28.4890   48.8980 C   0  0  0  0  0  0  0  0  0  0  0  0
   34.4640   28.9880   49.9670 N   0  0  0  0  0  0  0  0  0  0  0  0
   36.6110   30.9970   48.3080 H   0  0  0  0  0  0  0  0  0  0  0  0
   33.0410   27.7690   49.0100 H   0  0  0  0  0  0  0  0  0  0  0  0
   35.5350   30.1580   46.0820 C   0  0  0  0  0  0  0  0  0  0  0  0
   34.7320   30.0140   44.9790 C   0  0  0  0  0  0  0  0  0  0  0  0
   35.4750   30.5130   43.9270 C   0  0  0  0  0  0  0  0  0  0  0  0
   36.6670   30.9390   44.3680 N   0  0  0  0  0  0  0  0  0  0  0  0
   36.6880   30.7130   45.6970 N   0  0  0  0  0  0  0  0  0  0  0  0
   33.7300   29.5940   44.9650 H   0  0  0  0  0  0  0  0  0  0  0  0
   35.0990   30.5330   42.9160 H   0  0  0  0  0  0  0  0  0  0  0  0
   37.7470   31.5330   43.5830 C   0  0  0  0  0  0  0  0  0  0  0  0
   38.3030   32.7380   44.2360 C   0  0  0  0  0  0  0  0  0  0  0  0
   39.5390   32.5800   45.0330 C   0  0  0  0  0  0  0  0  0  0  0  0
   40.5270   31.7160   44.3050 C   0  0  0  0  0  0  0  0  0  0  0  0
   39.8770   30.3410   44.1880 C   0  0  0  0  0  0  0  0  0  0  0  0
   38.7600   30.4930   43.1920 C   0  0  0  0  0  0  0  0  0  0  0  0
   36.2060   30.4970   50.8060 O   0  0  0  0  0  0  0  0  0  0  0  0
   37.4710   30.0480   51.2270 C   0  0  0  0  0  0  0  0  0  0  0  0
   37.5660   30.0030   52.6070 F   0  0  0  0  0  0  0  0  0  0  0  0
   38.4340   30.8730   50.7020 F   0  0  0  0  0  0  0  0  0  0  0  0
   37.6650   28.7800   50.7100 F   0  0  0  0  0  0  0  0  0  0  0  0
  1  6  1  0  0  0  0
  1 22  1  0  0  0  0
  2  1  2  0  0  0  0
  3  4  2  0  0  0  0
  3  2  1  0  0  0  0
  4  5  1  0  0  0  0
  5  8  1  0  0  0  0
  5  6  2  0  0  0  0
  7  2  1  0  0  0  0
  9  3  1  0  0  0  0
 10  9  1  0  0  0  0
 11 12  1  0  0  0  0
 11 10  2  0  0  0  0
 12 13  1  0  0  0  0
 13  9  2  0  0  0  0
 14 10  1  0  0  0  0
 15 11  1  0  0  0  0
 16 17  1  0  0  0  0
 16 12  1  0  0  0  0
 17 18  1  0  0  0  0
 19 18  1  0  0  0  0
 20 19  1  0  0  0  0
 21 16  1  0  0  0  0
 21 20  1  0  0  0  0
 22 23  1  0  0  0  0
 23 24  1  0  0  0  0
 25 23  1  0  0  0  0
 26 23  1  0  0  0  0
M  END
>  <minimizedAffinity>
-5.81196499

>  <minimizedRMSD>
3.68034172

$$$$
