
 OpenBabel03272508513D

 26 28  0  0  1  0  0  0  0  0999 V2000
   38.1180   30.8960   44.0460 C   0  0  2  0  0  0  0  0  0  0  0  0
   37.7320   32.1960   44.5790 C   0  0  0  0  0  0  0  0  0  0  0  0
   38.6050   31.2150   45.3830 C   0  0  1  0  0  0  0  0  0  0  0  0
   37.4270   29.9860   44.0400 H   0  0  0  0  0  0  0  0  0  0  0  0
   36.7340   32.3330   45.0050 H   0  0  0  0  0  0  0  0  0  0  0  0
   38.2270   33.0900   44.1550 H   0  0  0  0  0  0  0  0  0  0  0  0
   39.5530   31.6910   45.6490 H   0  0  0  0  0  0  0  0  0  0  0  0
   41.0250   29.7390   42.0700 C   0  0  0  0  0  0  0  0  0  0  0  0
   40.9030   30.4880   40.8690 C   0  0  0  0  0  0  0  0  0  0  0  0
   39.7930   31.3940   40.7720 C   0  0  0  0  0  0  0  0  0  0  0  0
   38.9260   31.4940   41.8080 N   0  0  0  0  0  0  0  0  0  0  0  0
   39.1030   30.7460   42.9310 C   0  0  0  0  0  0  0  0  0  0  0  0
   40.1380   29.8640   43.0890 N   0  0  0  0  0  0  0  0  0  0  0  0
   41.8880   29.0880   42.0510 H   0  0  0  0  0  0  0  0  0  0  0  0
   41.5890   30.4010   40.0630 H   0  0  0  0  0  0  0  0  0  0  0  0
   39.6400   31.9910   39.8940 H   0  0  0  0  0  0  0  0  0  0  0  0
   38.2710   31.0540   47.8230 C   0  0  0  0  0  0  0  0  0  0  0  0
   39.0800   32.0050   47.9730 O   0  0  0  0  0  0  0  0  0  0  0  0
   37.8990   30.5950   46.5100 N   0  0  0  0  0  0  0  0  0  0  0  0
   37.1730   29.8700   46.3920 H   0  0  0  0  0  0  0  0  0  0  0  0
   37.6450   30.3400   48.9620 C   0  0  0  0  0  0  0  0  0  0  0  0
   37.6350   31.1670   50.2390 C   0  0  0  0  0  0  0  0  0  0  0  0
   37.3910   30.1860   51.3680 C   0  0  0  0  0  0  0  0  0  0  0  0
   36.0960   29.4550   51.1800 C   0  0  0  0  0  0  0  0  0  0  0  0
   35.8400   28.9590   49.7980 C   0  0  0  0  0  0  0  0  0  0  0  0
   36.1900   29.9810   48.7110 C   0  0  0  0  0  0  0  0  0  0  0  0
  1  4  1  6  0  0  0
  1  2  1  0  0  0  0
  1  3  1  0  0  0  0
  2  5  1  0  0  0  0
  2  3  1  0  0  0  0
  3  7  1  1  0  0  0
  3 19  1  0  0  0  0
  6  2  1  0  0  0  0
  8 13  1  0  0  0  0
  9  8  2  0  0  0  0
 10  9  1  0  0  0  0
 10 11  2  0  0  0  0
 11 12  1  0  0  0  0
 12 13  2  0  0  0  0
 12  1  1  0  0  0  0
 14  8  1  0  0  0  0
 15  9  1  0  0  0  0
 16 10  1  0  0  0  0
 17 18  2  0  0  0  0
 17 21  1  0  0  0  0
 19 17  1  0  0  0  0
 20 19  1  0  0  0  0
 21 22  1  0  0  0  0
 22 23  1  0  0  0  0
 24 23  1  0  0  0  0
 25 24  1  0  0  0  0
 26 21  1  0  0  0  0
 26 25  1  0  0  0  0
M  END
>  <minimizedAffinity>
-5.6306777

>  <minimizedRMSD>
3.60322213

$$$$
