
 OpenBabel03272504223D

 36 38  0  0  1  0  0  0  0  0999 V2000
   36.7640   31.5590   48.6860 O   0  0  0  0  0  0  0  0  0  0  0  0
   38.7790   32.2810   47.7750 C   0  0  2  0  0  0  0  0  0  0  0  0
   38.1170   31.3060   48.7290 C   0  0  1  0  0  0  0  0  0  0  0  0
   38.7020   31.8470   50.0410 C   0  0  0  0  0  0  0  0  0  0  0  0
   38.4210   33.1960   49.9140 O   0  0  0  0  0  0  0  0  0  0  0  0
   38.6630   33.5540   48.6050 C   0  0  0  0  0  0  0  0  0  0  0  0
   39.8470   32.0570   47.6200 H   0  0  0  0  0  0  0  0  0  0  0  0
   38.3990   30.2620   48.5650 H   0  0  0  0  0  0  0  0  0  0  0  0
   39.7740   31.6290   50.0380 H   0  0  0  0  0  0  0  0  0  0  0  0
   38.1330   31.3710   50.8650 H   0  0  0  0  0  0  0  0  0  0  0  0
   39.5510   34.1930   48.4700 H   0  0  0  0  0  0  0  0  0  0  0  0
   37.7940   34.1840   48.2820 H   0  0  0  0  0  0  0  0  0  0  0  0
   38.0240   32.3350   46.6150 O   0  0  0  0  0  0  0  0  0  0  0  0
   38.7860   31.8030   45.5820 C   0  0  0  0  0  3  0  0  0  0  0  0
   40.1930   31.5020   45.9700 C   0  0  0  0  0  2  0  0  0  0  0  0
   41.0310   31.3920   44.7120 C   0  0  0  0  0  2  0  0  0  0  0  0
   40.2330   30.7600   43.6220 C   0  0  0  0  0  2  0  0  0  0  0  0
   39.1500   29.8350   44.1380 C   0  0  0  0  0  2  0  0  0  0  0  0
   38.1710   30.5060   45.0520 C   0  0  0  0  0  2  0  0  0  0  0  0
   35.6540   29.8580   47.0620 O   0  0  0  0  0  0  0  0  0  0  0  0
   35.8370   30.1640   48.5180 P   0  0  1  0  0  0  0  0  0  0  0  0
   36.6680   28.8350   49.2340 O   0  0  0  0  0  0  0  0  0  0  0  0
   37.4380   29.1800   49.7710 H   0  0  0  0  0  0  0  0  0  0  0  0
   34.3380   30.3590   49.2870 O   0  0  0  0  0  0  0  0  0  0  0  0
   34.0700   29.1780   49.9590 C   0  0  0  0  0  0  0  0  0  0  0  0
   33.6200   29.3790   50.9740 H   0  0  0  0  0  0  0  0  0  0  0  0
   34.9730   28.5690   50.1860 H   0  0  0  0  0  0  0  0  0  0  0  0
   33.1380   28.2900   49.2290 C   0  0  0  0  0  0  0  0  0  0  0  0
   33.6970   27.3910   48.3520 C   0  0  0  0  0  0  0  0  0  0  0  0
   32.8720   26.5230   47.6310 C   0  0  0  0  0  0  0  0  0  0  0  0
   31.5310   26.6290   47.8520 N   0  0  0  0  0  0  0  0  0  0  0  0
   31.0050   27.5180   48.7160 C   0  0  0  0  0  0  0  0  0  0  0  0
   31.8080   28.3530   49.4090 N   0  0  0  0  0  0  0  0  0  0  0  0
   34.7370   27.2350   48.1150 H   0  0  0  0  0  0  0  0  0  0  0  0
   33.2310   25.7860   46.9200 H   0  0  0  0  0  0  0  0  0  0  0  0
   29.9220   27.5430   48.8390 H   0  0  0  0  0  0  0  0  0  0  0  0
  1  3  1  0  0  0  0
  2  7  1  6  0  0  0
  2  6  1  0  0  0  0
  2  3  1  0  0  0  0
  3  8  1  6  0  0  0
  3  4  1  0  0  0  0
  4 10  1  0  0  0  0
  5  4  1  0  0  0  0
  6  5  1  0  0  0  0
  9  4  1  0  0  0  0
 11  6  1  0  0  0  0
 12  6  1  0  0  0  0
 13  2  1  0  0  0  0
 14 15  1  0  0  0  0
 14 13  1  0  0  0  0
 16 15  1  0  0  0  0
 17 18  1  0  0  0  0
 17 16  1  0  0  0  0
 18 19  1  0  0  0  0
 19 14  1  0  0  0  0
 21 20  2  6  0  0  0
 21  1  1  0  0  0  0
 21 22  1  0  0  0  0
 21 24  1  0  0  0  0
 22 23  1  0  0  0  0
 24 25  1  0  0  0  0
 25 27  1  0  0  0  0
 25 26  1  0  0  0  0
 28 33  1  0  0  0  0
 28 25  1  0  0  0  0
 29 28  2  0  0  0  0
 30 31  2  0  0  0  0
 30 29  1  0  0  0  0
 31 32  1  0  0  0  0
 32 36  1  0  0  0  0
 32 33  2  0  0  0  0
 34 29  1  0  0  0  0
 35 30  1  0  0  0  0
M  END
>  <minimizedAffinity>
-4.90133047

>  <minimizedRMSD>
0.526835382

$$$$
