
 OpenBabel03272506433D

 29 31  0  0  1  0  0  0  0  0999 V2000
   32.4610   28.4280   47.5030 C   0  0  2  0  0  0  0  0  0  0  0  0
   33.6680   28.5310   48.4130 C   0  0  1  0  0  0  0  0  0  0  0  0
   34.2380   27.2850   48.4880 O   0  0  0  0  0  0  0  0  0  0  0  0
   33.6550   26.4600   47.5530 C   0  0  0  0  0  0  0  0  0  0  0  0
   32.9460   27.3710   46.5520 C   0  0  1  0  0  0  0  0  0  0  0  0
   31.5600   28.0950   48.0560 H   0  0  0  0  0  0  0  0  0  0  0  0
   33.3540   28.9320   49.3950 H   0  0  0  0  0  0  0  0  0  0  0  0
   32.9270   25.7470   47.9810 H   0  0  0  0  0  0  0  0  0  0  0  0
   34.4820   25.9780   46.9910 H   0  0  0  0  0  0  0  0  0  0  0  0
   33.6340   27.8150   45.8180 H   0  0  0  0  0  0  0  0  0  0  0  0
   32.2240   29.6420   46.8410 O   0  0  0  0  0  0  0  0  0  0  0  0
   32.1500   30.3710   47.5070 H   0  0  0  0  0  0  0  0  0  0  0  0
   34.8490   29.6360   47.5780 S   0  0  0  0  0  0  0  0  0  0  0  0
   37.5130   29.5280   50.4980 C   0  0  0  0  0  0  0  0  0  0  0  0
   38.1010   30.7840   50.5170 C   0  0  0  0  0  0  0  0  0  0  0  0
   37.6500   31.7180   49.5750 C   0  0  0  0  0  0  0  0  0  0  0  0
   36.6680   31.3500   48.6980 N   0  0  0  0  0  0  0  0  0  0  0  0
   36.1260   30.1170   48.7190 C   0  0  0  0  0  0  0  0  0  0  0  0
   36.5450   29.1920   49.6210 N   0  0  0  0  0  0  0  0  0  0  0  0
   37.8710   28.8210   51.2290 H   0  0  0  0  0  0  0  0  0  0  0  0
   38.8730   31.0930   51.1970 H   0  0  0  0  0  0  0  0  0  0  0  0
   38.0240   32.7320   49.4820 H   0  0  0  0  0  0  0  0  0  0  0  0
   31.9150   26.6950   45.9140 O   0  0  0  0  0  0  0  0  0  0  0  0
   32.1290   26.5240   44.5580 C   0  0  0  0  0  3  0  0  0  0  0  0
   33.2790   27.3880   44.0660 C   0  0  0  0  0  2  0  0  0  0  0  0
   34.2000   26.6460   43.1370 C   0  0  0  0  0  2  0  0  0  0  0  0
   33.4550   25.8120   42.1250 C   0  0  0  0  0  2  0  0  0  0  0  0
   32.3580   24.9710   42.7130 C   0  0  0  0  0  2  0  0  0  0  0  0
   32.4860   25.0860   44.2360 C   0  0  0  0  0  2  0  0  0  0  0  0
  1  6  1  1  0  0  0
  1  2  1  0  0  0  0
  2  3  1  0  0  0  0
  2  7  1  1  0  0  0
  4  8  1  0  0  0  0
  4  3  1  0  0  0  0
  5 10  1  6  0  0  0
  5  1  1  0  0  0  0
  5  4  1  0  0  0  0
  9  4  1  0  0  0  0
 11  1  1  0  0  0  0
 11 12  1  0  0  0  0
 13  2  1  0  0  0  0
 13 18  1  0  0  0  0
 14 15  1  0  0  0  0
 14 20  1  0  0  0  0
 15 21  1  0  0  0  0
 16 15  2  0  0  0  0
 17 18  2  0  0  0  0
 17 16  1  0  0  0  0
 18 19  1  0  0  0  0
 19 14  2  0  0  0  0
 22 16  1  0  0  0  0
 23  5  1  0  0  0  0
 24 23  1  0  0  0  0
 25 24  1  0  0  0  0
 26 25  1  0  0  0  0
 27 28  1  0  0  0  0
 27 26  1  0  0  0  0
 28 29  1  0  0  0  0
 29 24  1  0  0  0  0
M  END
>  <minimizedAffinity>
-3.77543473

>  <minimizedRMSD>
0.469534963

$$$$
