
 OpenBabel03272509183D

 30 32  0  0  0  0  0  0  0  0999 V2000
   37.2130   31.3740   47.1010 C   0  0  0  0  0  0  0  0  0  0  0  0
   36.8730   30.9710   48.3890 C   0  0  0  0  0  0  0  0  0  0  0  0
   37.6260   31.5690   49.4200 C   0  0  0  0  0  0  0  0  0  0  0  0
   38.6340   32.4990   49.1120 C   0  0  0  0  0  0  0  0  0  0  0  0
   38.8960   32.8330   47.7910 C   0  0  0  0  0  0  0  0  0  0  0  0
   38.1780   32.2660   46.7680 C   0  0  0  0  0  0  0  0  0  0  0  0
   37.3540   31.2510   50.4150 H   0  0  0  0  0  0  0  0  0  0  0  0
   39.1010   32.8490   50.0000 H   0  0  0  0  0  0  0  0  0  0  0  0
   39.6930   33.5480   47.7960 H   0  0  0  0  0  0  0  0  0  0  0  0
   34.6300   30.0620   47.9740 C   0  0  0  0  0  0  0  0  0  0  0  0
   35.8410   30.0230   48.6820 C   0  0  0  0  0  0  0  0  0  0  0  0
   35.9890   29.0420   49.6600 C   0  0  0  0  0  0  0  0  0  0  0  0
   34.9610   28.1780   49.8800 N   0  0  0  0  0  0  0  0  0  0  0  0
   33.7990   28.2510   49.1710 C   0  0  0  0  0  0  0  0  0  0  0  0
   33.6390   29.1900   48.2220 N   0  0  0  0  0  0  0  0  0  0  0  0
   34.5160   30.8240   47.2150 H   0  0  0  0  0  0  0  0  0  0  0  0
   32.9950   27.5500   49.3660 H   0  0  0  0  0  0  0  0  0  0  0  0
   37.2350   28.9480   50.4340 C   0  0  0  0  0  0  0  0  0  0  0  0
   37.4960   29.9540   50.8390 H   0  0  0  0  0  0  0  0  0  0  0  0
   37.0660   28.2560   51.2880 H   0  0  0  0  0  0  0  0  0  0  0  0
   38.0780   28.5050   49.8620 H   0  0  0  0  0  0  0  0  0  0  0  0
   36.5080   30.8210   46.0270 O   0  0  0  0  0  0  0  0  0  0  0  0
   35.7720   31.3100   45.5420 H   0  0  0  0  0  0  0  0  0  0  0  0
   38.4620   32.6240   45.4770 O   0  0  0  0  0  0  0  0  0  0  0  0
   39.6270   32.3250   44.7900 C   0  0  0  0  0  3  0  0  0  0  0  0
   39.7950   33.1220   43.5190 C   0  0  0  0  0  2  0  0  0  0  0  0
   39.5340   32.3390   42.2740 C   0  0  0  0  0  2  0  0  0  0  0  0
   40.2650   31.0340   42.1980 C   0  0  0  0  0  2  0  0  0  0  0  0
   40.6800   30.4600   43.5040 C   0  0  0  0  0  2  0  0  0  0  0  0
   39.6580   30.8330   44.5300 C   0  0  0  0  0  2  0  0  0  0  0  0
  1  2  1  0  0  0  0
  2 11  1  0  0  0  0
  2  3  2  0  0  0  0
  3  7  1  0  0  0  0
  4  3  1  0  0  0  0
  4  8  1  0  0  0  0
  5  9  1  0  0  0  0
  5  4  2  0  0  0  0
  6  1  2  0  0  0  0
  6  5  1  0  0  0  0
 10 15  2  0  0  0  0
 10 11  1  0  0  0  0
 11 12  2  0  0  0  0
 12 13  1  0  0  0  0
 12 18  1  0  0  0  0
 14 17  1  0  0  0  0
 14 13  2  0  0  0  0
 15 14  1  0  0  0  0
 16 10  1  0  0  0  0
 18 19  1  0  0  0  0
 18 20  1  0  0  0  0
 21 18  1  0  0  0  0
 22  1  1  0  0  0  0
 23 22  1  0  0  0  0
 24  6  1  0  0  0  0
 25 24  1  0  0  0  0
 26 25  1  0  0  0  0
 27 26  1  0  0  0  0
 28 27  1  0  0  0  0
 28 29  1  0  0  0  0
 29 30  1  0  0  0  0
 30 25  1  0  0  0  0
M  END
>  <minimizedAffinity>
-6.30870771

>  <minimizedRMSD>
2.58021688

$$$$
