
 OpenBabel03272506433D

 29 31  0  0  1  0  0  0  0  0999 V2000
   32.2400   28.1710   47.5280 C   0  0  2  0  0  0  0  0  0  0  0  0
   33.4990   28.1370   48.3670 C   0  0  1  0  0  0  0  0  0  0  0  0
   34.0810   26.9060   48.1930 O   0  0  0  0  0  0  0  0  0  0  0  0
   33.4470   26.2430   47.1670 C   0  0  0  0  0  0  0  0  0  0  0  0
   32.6720   27.2990   46.3820 C   0  0  1  0  0  0  0  0  0  0  0  0
   31.3760   27.7320   48.0680 H   0  0  0  0  0  0  0  0  0  0  0  0
   33.2450   28.3590   49.4210 H   0  0  0  0  0  0  0  0  0  0  0  0
   32.7520   25.4550   47.5110 H   0  0  0  0  0  0  0  0  0  0  0  0
   34.2410   25.8780   46.4830 H   0  0  0  0  0  0  0  0  0  0  0  0
   33.3100   27.8740   45.6950 H   0  0  0  0  0  0  0  0  0  0  0  0
   31.9530   29.4750   47.0990 O   0  0  0  0  0  0  0  0  0  0  0  0
   31.9170   30.0780   47.8830 H   0  0  0  0  0  0  0  0  0  0  0  0
   34.6190   29.3880   47.6660 S   0  0  0  0  0  0  0  0  0  0  0  0
   37.2230   29.2610   50.6390 C   0  0  0  0  0  0  0  0  0  0  0  0
   37.6550   30.5670   50.8150 C   0  0  0  0  0  0  0  0  0  0  0  0
   37.1130   31.5430   49.9700 C   0  0  0  0  0  0  0  0  0  0  0  0
   36.1990   31.1650   49.0260 N   0  0  0  0  0  0  0  0  0  0  0  0
   35.8080   29.8820   48.8920 C   0  0  0  0  0  0  0  0  0  0  0  0
   36.3180   28.9160   49.6990 N   0  0  0  0  0  0  0  0  0  0  0  0
   37.6490   28.5220   51.2980 H   0  0  0  0  0  0  0  0  0  0  0  0
   38.3720   30.8850   51.5500 H   0  0  0  0  0  0  0  0  0  0  0  0
   37.3640   32.5970   50.0010 H   0  0  0  0  0  0  0  0  0  0  0  0
   31.6070   26.7250   45.7010 O   0  0  0  0  0  0  0  0  0  0  0  0
   31.4900   27.1670   44.3950 C   0  0  0  0  0  3  0  0  0  0  0  0
   30.3400   28.1500   44.2450 C   0  0  0  0  0  2  0  0  0  0  0  0
   30.7060   29.3390   43.4020 C   0  0  0  0  0  2  0  0  0  0  0  0
   31.4810   28.9600   42.1650 C   0  0  0  0  0  2  0  0  0  0  0  0
   32.6140   28.0080   42.4220 C   0  0  0  0  0  2  0  0  0  0  0  0
   32.7460   27.8830   43.9430 C   0  0  0  0  0  2  0  0  0  0  0  0
  1  6  1  1  0  0  0
  1  2  1  0  0  0  0
  2  7  1  1  0  0  0
  3  2  1  0  0  0  0
  4  8  1  0  0  0  0
  4  3  1  0  0  0  0
  5 10  1  6  0  0  0
  5  4  1  0  0  0  0
  5  1  1  0  0  0  0
  9  4  1  0  0  0  0
 11  1  1  0  0  0  0
 11 12  1  0  0  0  0
 13  2  1  0  0  0  0
 13 18  1  0  0  0  0
 14 15  1  0  0  0  0
 14 20  1  0  0  0  0
 15 21  1  0  0  0  0
 16 22  1  0  0  0  0
 16 15  2  0  0  0  0
 17 16  1  0  0  0  0
 18 17  2  0  0  0  0
 18 19  1  0  0  0  0
 19 14  2  0  0  0  0
 23  5  1  0  0  0  0
 24 23  1  0  0  0  0
 25 24  1  0  0  0  0
 26 25  1  0  0  0  0
 27 28  1  0  0  0  0
 27 26  1  0  0  0  0
 28 29  1  0  0  0  0
 29 24  1  0  0  0  0
M  END
>  <minimizedAffinity>
-3.76276898

>  <minimizedRMSD>
0.84938103

$$$$
