
 OpenBabel03272503493D

 34 36  0  0  1  0  0  0  0  0999 V2000
   33.1270   27.3070   45.9050 C   0  0  1  0  0  0  0  0  0  0  0  0
   33.9120   27.4730   47.2260 C   0  0  2  0  0  0  0  0  0  0  0  0
   33.7980   26.2510   47.8090 O   0  0  0  0  0  0  0  0  0  0  0  0
   34.0620   25.3500   46.7910 C   0  0  0  0  0  0  0  0  0  0  0  0
   33.5030   25.9080   45.5180 C   0  0  2  0  0  0  0  0  0  0  0  0
   33.5580   28.0140   45.1810 H   0  0  0  0  0  0  0  0  0  0  0  0
   34.9460   27.7880   46.9310 H   0  0  0  0  0  0  0  0  0  0  0  0
   33.5030   24.4180   47.0330 H   0  0  0  0  0  0  0  0  0  0  0  0
   35.1610   25.2140   46.7650 H   0  0  0  0  0  0  0  0  0  0  0  0
   32.6450   25.3170   45.1440 H   0  0  0  0  0  0  0  0  0  0  0  0
   31.7780   27.5040   46.1230 O   0  0  0  0  0  0  0  0  0  0  0  0
   31.4180   28.0290   45.3490 H   0  0  0  0  0  0  0  0  0  0  0  0
   33.3110   28.5230   47.8570 O   0  0  0  0  0  0  0  0  0  0  0  0
   35.3390   29.8190   46.7730 O   0  0  0  0  0  0  0  0  0  0  0  0
   34.0880   29.9970   47.6220 P   0  0  1  0  0  0  0  0  0  0  0  0
   33.0970   31.0400   46.7270 O   0  0  0  0  0  0  0  0  0  0  0  0
   32.1460   30.8900   46.9970 H   0  0  0  0  0  0  0  0  0  0  0  0
   34.4010   30.6410   49.1700 O   0  0  0  0  0  0  0  0  0  0  0  0
   35.6380   30.5160   49.7800 C   0  0  0  0  0  0  0  0  0  0  0  0
   35.9710   29.4930   50.6960 C   0  0  0  0  0  0  0  0  0  0  0  0
   37.2520   29.4920   51.2300 C   0  0  0  0  0  0  0  0  0  0  0  0
   38.1230   30.4710   50.8480 N   0  0  0  0  0  0  0  0  0  0  0  0
   37.7780   31.4440   49.9650 C   0  0  0  0  0  0  0  0  0  0  0  0
   36.5230   31.4640   49.4280 N   0  0  0  0  0  0  0  0  0  0  0  0
   35.2020   28.7690   50.9260 H   0  0  0  0  0  0  0  0  0  0  0  0
   37.5150   28.7120   51.9310 H   0  0  0  0  0  0  0  0  0  0  0  0
   38.5120   32.1920   49.7010 H   0  0  0  0  0  0  0  0  0  0  0  0
   34.4850   25.9390   44.5270 O   0  0  0  0  0  0  0  0  0  0  0  0
   34.0790   25.3380   43.3530 C   0  0  0  0  0  3  0  0  0  0  0  0
   35.1430   24.4220   42.7840 C   0  0  0  0  0  2  0  0  0  0  0  0
   35.1560   23.1390   43.5980 C   0  0  0  0  0  2  0  0  0  0  0  0
   33.9100   22.3280   43.4030 C   0  0  0  0  0  2  0  0  0  0  0  0
   32.8800   23.2190   42.7320 C   0  0  0  0  0  2  0  0  0  0  0  0
   32.8410   24.4880   43.5710 C   0  0  0  0  0  2  0  0  0  0  0  0
  1  6  1  6  0  0  0
  1 11  1  0  0  0  0
  1  2  1  0  0  0  0
  2  7  1  6  0  0  0
  2  3  1  0  0  0  0
  2 13  1  0  0  0  0
  4  8  1  0  0  0  0
  4  3  1  0  0  0  0
  5 10  1  6  0  0  0
  5  1  1  0  0  0  0
  5  4  1  0  0  0  0
  9  4  1  0  0  0  0
 12 11  1  0  0  0  0
 15 14  2  6  0  0  0
 15 13  1  0  0  0  0
 15 18  1  0  0  0  0
 16 17  1  0  0  0  0
 16 15  1  0  0  0  0
 18 19  1  0  0  0  0
 19 20  1  0  0  0  0
 20 25  1  0  0  0  0
 20 21  2  0  0  0  0
 21 26  1  0  0  0  0
 22 21  1  0  0  0  0
 23 22  2  0  0  0  0
 24 19  2  0  0  0  0
 24 23  1  0  0  0  0
 27 23  1  0  0  0  0
 28  5  1  0  0  0  0
 29 34  1  0  0  0  0
 29 28  1  0  0  0  0
 30 29  1  0  0  0  0
 30 31  1  0  0  0  0
 32 31  1  0  0  0  0
 33 32  1  0  0  0  0
 33 34  1  0  0  0  0
M  END
>  <minimizedAffinity>
-3.93616247

>  <minimizedRMSD>
0.674880743

$$$$
