
 OpenBabel03272506433D

 29 31  0  0  1  0  0  0  0  0999 V2000
   32.4250   28.4010   47.5190 C   0  0  2  0  0  0  0  0  0  0  0  0
   33.6540   28.4670   48.4010 C   0  0  1  0  0  0  0  0  0  0  0  0
   34.1960   27.2070   48.4520 O   0  0  0  0  0  0  0  0  0  0  0  0
   33.5720   26.4040   47.5240 C   0  0  0  0  0  0  0  0  0  0  0  0
   32.8620   27.3410   46.5480 C   0  0  1  0  0  0  0  0  0  0  0  0
   31.5290   28.0840   48.0900 H   0  0  0  0  0  0  0  0  0  0  0  0
   33.3730   28.8660   49.3940 H   0  0  0  0  0  0  0  0  0  0  0  0
   32.8380   25.7060   47.9640 H   0  0  0  0  0  0  0  0  0  0  0  0
   34.3750   25.9080   46.9390 H   0  0  0  0  0  0  0  0  0  0  0  0
   33.5440   27.7750   45.8020 H   0  0  0  0  0  0  0  0  0  0  0  0
   32.2010   29.6260   46.8740 O   0  0  0  0  0  0  0  0  0  0  0  0
   32.1600   30.3500   47.5470 H   0  0  0  0  0  0  0  0  0  0  0  0
   34.8410   29.5520   47.5490 S   0  0  0  0  0  0  0  0  0  0  0  0
   37.4870   29.5190   50.4880 C   0  0  0  0  0  0  0  0  0  0  0  0
   38.0680   30.7780   50.4830 C   0  0  0  0  0  0  0  0  0  0  0  0
   37.6200   31.6890   49.5190 C   0  0  0  0  0  0  0  0  0  0  0  0
   36.6450   31.2980   48.6440 N   0  0  0  0  0  0  0  0  0  0  0  0
   36.1090   30.0620   48.6870 C   0  0  0  0  0  0  0  0  0  0  0  0
   36.5260   29.1600   49.6120 N   0  0  0  0  0  0  0  0  0  0  0  0
   37.8430   28.8290   51.2360 H   0  0  0  0  0  0  0  0  0  0  0  0
   38.8340   31.1050   51.1620 H   0  0  0  0  0  0  0  0  0  0  0  0
   37.9880   32.7030   49.4060 H   0  0  0  0  0  0  0  0  0  0  0  0
   31.8010   26.6950   45.9290 O   0  0  0  0  0  0  0  0  0  0  0  0
   31.9230   26.6380   44.5520 C   0  0  0  0  0  3  0  0  0  0  0  0
   33.1760   27.3540   44.0770 C   0  0  0  0  0  2  0  0  0  0  0  0
   33.9190   26.5770   43.0250 C   0  0  0  0  0  2  0  0  0  0  0  0
   33.0020   25.9850   41.9840 C   0  0  0  0  0  2  0  0  0  0  0  0
   31.8100   25.2740   42.5540 C   0  0  0  0  0  2  0  0  0  0  0  0
   32.0230   25.2040   44.0710 C   0  0  0  0  0  2  0  0  0  0  0  0
  1  6  1  1  0  0  0
  1  2  1  0  0  0  0
  2  3  1  0  0  0  0
  2  7  1  1  0  0  0
  4  8  1  0  0  0  0
  4  3  1  0  0  0  0
  5 10  1  6  0  0  0
  5  1  1  0  0  0  0
  5  4  1  0  0  0  0
  9  4  1  0  0  0  0
 11  1  1  0  0  0  0
 11 12  1  0  0  0  0
 13  2  1  0  0  0  0
 13 18  1  0  0  0  0
 14 20  1  0  0  0  0
 15 14  1  0  0  0  0
 15 21  1  0  0  0  0
 16 15  2  0  0  0  0
 17 18  2  0  0  0  0
 17 16  1  0  0  0  0
 18 19  1  0  0  0  0
 19 14  2  0  0  0  0
 22 16  1  0  0  0  0
 23  5  1  0  0  0  0
 24 23  1  0  0  0  0
 25 24  1  0  0  0  0
 26 25  1  0  0  0  0
 27 28  1  0  0  0  0
 27 26  1  0  0  0  0
 28 29  1  0  0  0  0
 29 24  1  0  0  0  0
M  END
>  <minimizedAffinity>
-3.73934698

>  <minimizedRMSD>
0.250201643

$$$$
