
 OpenBabel03272509313D

 35 37  0  0  1  0  0  0  0  0999 V2000
   36.3320   30.7280   48.9790 C   0  0  2  0  0  0  0  0  0  0  0  0
   37.2250   31.6640   49.7340 C   0  0  0  0  0  0  0  0  0  0  0  0
   38.1520   30.9510   50.6920 C   0  0  0  0  0  0  0  0  0  0  0  0
   37.3630   30.0850   51.6660 C   0  0  0  0  0  0  0  0  0  0  0  0
   36.1620   29.4140   51.0560 C   0  0  0  0  0  0  0  0  0  0  0  0
   36.3570   29.3440   49.5340 C   0  0  1  0  0  0  0  0  0  0  0  0
   35.2460   31.0680   48.9610 H   0  0  0  0  0  0  0  0  0  0  0  0
   36.5170   32.2310   50.4290 H   0  0  0  0  0  0  0  0  0  0  0  0
   37.7280   32.4310   49.1770 H   0  0  0  0  0  0  0  0  0  0  0  0
   38.6230   31.7380   51.3240 H   0  0  0  0  0  0  0  0  0  0  0  0
   38.9360   30.3680   50.2160 H   0  0  0  0  0  0  0  0  0  0  0  0
   37.0040   30.6840   52.5410 H   0  0  0  0  0  0  0  0  0  0  0  0
   38.0650   29.3350   52.0870 H   0  0  0  0  0  0  0  0  0  0  0  0
   35.2110   29.9290   51.2100 H   0  0  0  0  0  0  0  0  0  0  0  0
   36.1130   28.3670   51.4070 H   0  0  0  0  0  0  0  0  0  0  0  0
   37.3320   28.9250   49.4700 H   0  0  0  0  0  0  0  0  0  0  0  0
   36.7120   30.6720   47.5400 C   0  0  0  0  0  0  0  0  0  0  0  0
   38.0540   30.9460   47.2530 C   0  0  0  0  0  0  0  0  0  0  0  0
   38.4290   30.8920   45.9060 C   0  0  0  0  0  0  0  0  0  0  0  0
   37.4800   30.5790   44.9600 N   0  0  0  0  0  0  0  0  0  0  0  0
   36.1770   30.3170   45.2980 C   0  0  0  0  0  0  0  0  0  0  0  0
   35.8130   30.3700   46.5900 N   0  0  0  0  0  0  0  0  0  0  0  0
   38.8830   31.1910   47.8870 H   0  0  0  0  0  0  0  0  0  0  0  0
   39.4210   31.0820   45.5490 H   0  0  0  0  0  0  0  0  0  0  0  0
   35.5000   30.0810   44.5010 H   0  0  0  0  0  0  0  0  0  0  0  0
   34.1300   28.2530   49.0230 C   0  0  0  0  0  0  0  0  0  0  0  0
   33.2770   28.9020   49.6960 O   0  0  0  0  0  0  0  0  0  0  0  0
   35.5320   28.4020   48.8710 N   0  0  0  0  0  0  0  0  0  0  0  0
   35.8460   27.6690   48.1620 H   0  0  0  0  0  0  0  0  0  0  0  0
   33.2470   27.2330   48.3950 C   0  0  0  0  0  3  0  0  0  0  0  0
   31.8300   27.6760   48.7000 C   0  0  0  0  0  2  0  0  0  0  0  0
   30.8910   26.6890   48.0430 C   0  0  0  0  0  2  0  0  0  0  0  0
   31.6350   25.4670   47.5610 C   0  0  0  0  0  2  0  0  0  0  0  0
   32.6880   25.8220   46.5280 C   0  0  0  0  0  2  0  0  0  0  0  0
   33.4020   27.1210   46.9140 C   0  0  0  0  0  2  0  0  0  0  0  0
  1  7  1  1  0  0  0
  1  6  1  0  0  0  0
  1  2  1  0  0  0  0
  2  8  1  0  0  0  0
  2  3  1  0  0  0  0
  3 10  1  0  0  0  0
  3  4  1  0  0  0  0
  4 13  1  0  0  0  0
  4 12  1  0  0  0  0
  5 14  1  0  0  0  0
  5 15  1  0  0  0  0
  5  4  1  0  0  0  0
  6 16  1  6  0  0  0
  6  5  1  0  0  0  0
  9  2  1  0  0  0  0
 11  3  1  0  0  0  0
 17  1  1  0  0  0  0
 18 17  1  0  0  0  0
 18 23  1  0  0  0  0
 19 18  2  0  0  0  0
 20 21  2  0  0  0  0
 20 19  1  0  0  0  0
 21 22  1  0  0  0  0
 22 17  2  0  0  0  0
 24 19  1  0  0  0  0
 25 21  1  0  0  0  0
 26 27  2  0  0  0  0
 28 26  1  0  0  0  0
 28  6  1  0  0  0  0
 29 28  1  0  0  0  0
 30 31  1  0  0  0  0
 30 26  1  0  0  0  0
 32 31  1  0  0  0  0
 33 32  1  0  0  0  0
 34 35  1  0  0  0  0
 34 33  1  0  0  0  0
 35 30  1  0  0  0  0
M  END
>  <minimizedAffinity>
-6.14282894

>  <minimizedRMSD>
0.417470068

$$$$
