
 OpenBabel03272503503D

 34 36  0  0  1  0  0  0  0  0999 V2000
   33.1010   27.3180   45.9150 C   0  0  1  0  0  0  0  0  0  0  0  0
   33.9070   27.4790   47.2240 C   0  0  2  0  0  0  0  0  0  0  0  0
   33.7990   26.2550   47.8050 O   0  0  0  0  0  0  0  0  0  0  0  0
   34.0450   25.3570   46.7810 C   0  0  0  0  0  0  0  0  0  0  0  0
   33.4680   25.9190   45.5190 C   0  0  2  0  0  0  0  0  0  0  0  0
   33.5230   28.0260   45.1860 H   0  0  0  0  0  0  0  0  0  0  0  0
   34.9370   27.7920   46.9140 H   0  0  0  0  0  0  0  0  0  0  0  0
   33.4870   24.4250   47.0300 H   0  0  0  0  0  0  0  0  0  0  0  0
   35.1430   25.2170   46.7380 H   0  0  0  0  0  0  0  0  0  0  0  0
   32.6030   25.3310   45.1560 H   0  0  0  0  0  0  0  0  0  0  0  0
   31.7560   27.5180   46.1540 O   0  0  0  0  0  0  0  0  0  0  0  0
   31.3860   28.0460   45.3870 H   0  0  0  0  0  0  0  0  0  0  0  0
   33.3180   28.5280   47.8670 O   0  0  0  0  0  0  0  0  0  0  0  0
   35.3400   29.8200   46.7660 O   0  0  0  0  0  0  0  0  0  0  0  0
   34.0940   30.0020   47.6200 P   0  0  1  0  0  0  0  0  0  0  0  0
   33.0980   31.0400   46.7270 O   0  0  0  0  0  0  0  0  0  0  0  0
   32.1480   30.8910   47.0020 H   0  0  0  0  0  0  0  0  0  0  0  0
   34.4140   30.6530   49.1650 O   0  0  0  0  0  0  0  0  0  0  0  0
   35.6520   30.5220   49.7730 C   0  0  0  0  0  0  0  0  0  0  0  0
   35.9830   29.4960   50.6840 C   0  0  0  0  0  0  0  0  0  0  0  0
   37.2650   29.4890   51.2170 C   0  0  0  0  0  0  0  0  0  0  0  0
   38.1380   30.4670   50.8380 N   0  0  0  0  0  0  0  0  0  0  0  0
   37.7940   31.4440   49.9590 C   0  0  0  0  0  0  0  0  0  0  0  0
   36.5390   31.4690   49.4230 N   0  0  0  0  0  0  0  0  0  0  0  0
   35.2120   28.7730   50.9130 H   0  0  0  0  0  0  0  0  0  0  0  0
   37.5250   28.7060   51.9160 H   0  0  0  0  0  0  0  0  0  0  0  0
   38.5310   32.1910   49.6970 H   0  0  0  0  0  0  0  0  0  0  0  0
   34.4340   25.9500   44.5120 O   0  0  0  0  0  0  0  0  0  0  0  0
   34.0340   25.2950   43.3660 C   0  0  0  0  0  3  0  0  0  0  0  0
   35.0410   24.2530   42.9240 C   0  0  0  0  0  2  0  0  0  0  0  0
   34.9060   23.0400   43.8310 C   0  0  0  0  0  2  0  0  0  0  0  0
   33.6060   22.3220   43.6300 C   0  0  0  0  0  2  0  0  0  0  0  0
   32.6890   23.2390   42.8400 C   0  0  0  0  0  2  0  0  0  0  0  0
   32.7190   24.5690   43.5800 C   0  0  0  0  0  2  0  0  0  0  0  0
  1  6  1  6  0  0  0
  1 11  1  0  0  0  0
  1  2  1  0  0  0  0
  2  7  1  6  0  0  0
  2  3  1  0  0  0  0
  2 13  1  0  0  0  0
  4  8  1  0  0  0  0
  4  3  1  0  0  0  0
  5 10  1  6  0  0  0
  5  1  1  0  0  0  0
  5  4  1  0  0  0  0
  9  4  1  0  0  0  0
 12 11  1  0  0  0  0
 15 14  2  6  0  0  0
 15 13  1  0  0  0  0
 15 18  1  0  0  0  0
 16 17  1  0  0  0  0
 16 15  1  0  0  0  0
 18 19  1  0  0  0  0
 19 20  1  0  0  0  0
 20 25  1  0  0  0  0
 20 21  2  0  0  0  0
 21 26  1  0  0  0  0
 22 21  1  0  0  0  0
 23 22  2  0  0  0  0
 24 19  2  0  0  0  0
 24 23  1  0  0  0  0
 27 23  1  0  0  0  0
 28  5  1  0  0  0  0
 29 34  1  0  0  0  0
 29 28  1  0  0  0  0
 30 29  1  0  0  0  0
 30 31  1  0  0  0  0
 32 31  1  0  0  0  0
 33 34  1  0  0  0  0
 33 32  1  0  0  0  0
M  END
>  <minimizedAffinity>
-3.92833686

>  <minimizedRMSD>
0.339505881

$$$$
