
 OpenBabel03272507303D

 26 28  0  0  0  0  0  0  0  0999 V2000
   35.8800   29.2240   49.7720 C   0  0  0  0  0  0  0  0  0  0  0  0
   34.8230   29.7820   50.4240 C   0  0  0  0  0  0  0  0  0  0  0  0
   33.6630   29.1570   49.9390 C   0  0  0  0  0  0  0  0  0  0  0  0
   34.1130   28.2300   48.9910 C   0  0  0  0  0  0  0  0  0  0  0  0
   35.4010   28.3240   48.9490 O   0  0  0  0  0  0  0  0  0  0  0  0
   34.7440   30.5550   51.1830 H   0  0  0  0  0  0  0  0  0  0  0  0
   32.6320   29.3350   50.2200 H   0  0  0  0  0  0  0  0  0  0  0  0
   37.2460   29.6230   50.0170 C   0  0  0  0  0  0  0  0  0  0  0  0
   37.8680   29.0600   50.9450 O   0  0  0  0  0  0  0  0  0  0  0  0
   37.8150   30.6490   49.1740 C   0  0  0  0  0  0  0  0  0  0  0  0
   38.1330   31.8610   49.7730 C   0  0  0  0  0  0  0  0  0  0  0  0
   38.6810   32.8600   48.9830 C   0  0  0  0  0  0  0  0  0  0  0  0
   38.8790   32.6090   47.6630 N   0  0  0  0  0  0  0  0  0  0  0  0
   38.5620   31.4270   47.1040 C   0  0  0  0  0  0  0  0  0  0  0  0
   38.0340   30.4560   47.8580 N   0  0  0  0  0  0  0  0  0  0  0  0
   37.9970   32.1130   50.8180 H   0  0  0  0  0  0  0  0  0  0  0  0
   38.9420   33.8220   49.4220 H   0  0  0  0  0  0  0  0  0  0  0  0
   38.7100   31.2000   46.0550 H   0  0  0  0  0  0  0  0  0  0  0  0
   33.2380   27.3410   48.2190 C   0  0  0  0  0  0  0  0  0  0  0  0
   31.9860   27.3500   48.4300 O   0  0  0  0  0  0  0  0  0  0  0  0
   33.8630   26.4480   47.2060 C   0  0  0  0  0  3  0  0  0  0  0  0
   33.7650   27.0650   45.8420 C   0  0  0  0  0  2  0  0  0  0  0  0
   33.9450   26.0780   44.7210 C   0  0  0  0  0  2  0  0  0  0  0  0
   33.1430   24.8200   44.9130 C   0  0  0  0  0  2  0  0  0  0  0  0
   33.6800   24.1930   46.1970 C   0  0  0  0  0  2  0  0  0  0  0  0
   33.2230   25.1120   47.3220 C   0  0  0  0  0  2  0  0  0  0  0  0
  1  8  1  0  0  0  0
  1  2  2  0  0  0  0
  2  6  1  0  0  0  0
  3  7  1  0  0  0  0
  3  2  1  0  0  0  0
  4  3  2  0  0  0  0
  5  4  1  0  0  0  0
  5  1  1  0  0  0  0
  8  9  2  0  0  0  0
 10 11  1  0  0  0  0
 10  8  1  0  0  0  0
 11 16  1  0  0  0  0
 12 17  1  0  0  0  0
 12 11  2  0  0  0  0
 13 12  1  0  0  0  0
 14 13  2  0  0  0  0
 14 15  1  0  0  0  0
 15 10  2  0  0  0  0
 18 14  1  0  0  0  0
 19 20  2  0  0  0  0
 19  4  1  0  0  0  0
 21 26  1  0  0  0  0
 21 19  1  0  0  0  0
 22 21  1  0  0  0  0
 23 24  1  0  0  0  0
 23 22  1  0  0  0  0
 24 25  1  0  0  0  0
 25 26  1  0  0  0  0
M  END
>  <minimizedAffinity>
-5.21604586

>  <minimizedRMSD>
0.922926188

$$$$
