
 OpenBabel03272508573D

 37 40  0  0  1  0  0  0  0  0999 V2000
   38.3740   31.8600   44.4910 C   0  0  0  0  0  0  0  0  0  0  0  0
   37.2980   32.4570   44.3980 O   0  0  0  0  0  0  0  0  0  0  0  0
   38.9230   31.5440   45.7960 N   0  0  0  0  0  0  0  0  0  0  0  0
   39.8830   31.2360   45.9620 H   0  0  0  0  0  0  0  0  0  0  0  0
   39.1430   31.4460   43.3030 C   0  0  0  0  0  0  0  0  0  0  0  0
   40.2460   30.6450   43.4830 C   0  0  0  0  0  0  0  0  0  0  0  0
   40.9550   30.2700   42.3490 C   0  0  0  0  0  0  0  0  0  0  0  0
   40.5210   30.7140   41.1350 C   0  0  0  0  0  0  0  0  0  0  0  0
   39.4170   31.5160   40.9450 C   0  0  0  0  0  0  0  0  0  0  0  0
   38.7480   31.8640   42.0760 N   0  0  0  0  0  0  0  0  0  0  0  0
   40.5730   30.3010   44.4630 H   0  0  0  0  0  0  0  0  0  0  0  0
   41.8130   29.6450   42.5170 H   0  0  0  0  0  0  0  0  0  0  0  0
   41.1460   30.3560   40.3390 H   0  0  0  0  0  0  0  0  0  0  0  0
   38.9450   31.9690   39.6260 C   0  0  2  0  0  3  0  0  0  0  0  0
   39.1940   33.1970   39.3260 O   0  0  0  0  0  1  0  0  0  0  0  0
   38.2090   31.2660   38.5430 C   0  0  0  0  0  3  0  0  0  0  0  0
   37.6150   30.0190   39.0610 C   0  0  0  0  0  2  0  0  0  0  0  0
   36.3350   29.7180   38.2690 C   0  0  0  0  0  2  0  0  0  0  0  0
   35.3560   30.7910   38.7410 C   0  0  0  0  0  2  0  0  0  0  0  0
   35.8320   32.1620   38.3430 C   0  0  0  0  0  2  0  0  0  0  0  0
   37.2390   32.1940   37.8490 C   0  0  0  0  0  2  0  0  0  0  0  0
   38.4270   31.0610   48.1870 C   0  0  2  0  0  0  0  0  0  0  0  0
   38.6710   32.5240   48.0810 C   0  0  0  0  0  0  0  0  0  0  0  0
   38.0650   31.6690   46.9480 C   0  0  1  0  0  0  0  0  0  0  0  0
   39.3550   30.4640   48.2920 H   0  0  0  0  0  0  0  0  0  0  0  0
   39.6870   32.8890   47.9520 H   0  0  0  0  0  0  0  0  0  0  0  0
   38.0080   33.1690   48.6720 H   0  0  0  0  0  0  0  0  0  0  0  0
   36.9950   31.9340   46.7680 H   0  0  0  0  0  0  0  0  0  0  0  0
   35.0560   30.2410   49.5270 C   0  0  0  0  0  0  0  0  0  0  0  0
   35.3860   29.5540   50.7470 C   0  0  0  0  0  0  0  0  0  0  0  0
   36.7840   29.4020   51.0800 C   0  0  0  0  0  0  0  0  0  0  0  0
   37.7460   29.9060   50.2370 N   0  0  0  0  0  0  0  0  0  0  0  0
   37.3390   30.5440   49.0980 C   0  0  0  0  0  0  0  0  0  0  0  0
   36.0160   30.7280   48.7130 N   0  0  0  0  0  0  0  0  0  0  0  0
   34.0190   30.3390   49.3050 H   0  0  0  0  0  0  0  0  0  0  0  0
   34.6430   29.1640   51.3990 H   0  0  0  0  0  0  0  0  0  0  0  0
   37.0310   28.8940   51.9840 H   0  0  0  0  0  0  0  0  0  0  0  0
  1  3  1  0  0  0  0
  2  1  2  0  0  0  0
  3  4  1  0  0  0  0
  3 24  1  0  0  0  0
  5  6  1  0  0  0  0
  5  1  1  0  0  0  0
  6 11  1  0  0  0  0
  7 12  1  0  0  0  0
  7  6  2  0  0  0  0
  8  7  1  0  0  0  0
  9  8  2  0  0  0  0
  9 10  1  0  0  0  0
 10  5  2  0  0  0  0
 13  8  1  0  0  0  0
 14 15  1  1  0  0  0
 14  9  1  0  0  0  0
 16 17  1  0  0  0  0
 16 14  1  0  0  0  0
 18 19  1  0  0  0  0
 18 17  1  0  0  0  0
 20 19  1  0  0  0  0
 21 20  1  0  0  0  0
 21 16  1  0  0  0  0
 22 25  1  6  0  0  0
 22 33  1  0  0  0  0
 23 22  1  0  0  0  0
 23 27  1  0  0  0  0
 24 28  1  6  0  0  0
 24 23  1  0  0  0  0
 24 22  1  0  0  0  0
 26 23  1  0  0  0  0
 29 30  1  0  0  0  0
 30 31  2  0  0  0  0
 30 36  1  0  0  0  0
 31 37  1  0  0  0  0
 32 31  1  0  0  0  0
 33 32  2  0  0  0  0
 34 33  1  0  0  0  0
 34 29  2  0  0  0  0
 35 29  1  0  0  0  0
M  END
>  <minimizedAffinity>
-4.81794596

>  <minimizedRMSD>
0.832142413

$$$$
