
 OpenBabel03272509263D

 22 23  0  0  0  0  0  0  0  0999 V2000
   35.4990   29.1910   47.2220 C   0  0  0  0  0  0  0  0  0  0  0  0
   36.3030   28.4870   46.9280 H   0  0  0  0  0  0  0  0  0  0  0  0
   34.5230   28.9190   46.7720 H   0  0  0  0  0  0  0  0  0  0  0  0
   36.3790   29.2660   50.8820 C   0  0  0  0  0  0  0  0  0  0  0  0
   36.5490   29.1960   49.5000 C   0  0  0  0  0  0  0  0  0  0  0  0
   35.4380   29.2540   48.6840 C   0  0  0  0  0  0  0  0  0  0  0  0
   34.2080   29.3800   49.2990 N   0  0  0  0  0  0  0  0  0  0  0  0
   34.0910   29.4430   50.6240 C   0  0  0  0  0  0  0  0  0  0  0  0
   35.1530   29.3880   51.4400 N   0  0  0  0  0  0  0  0  0  0  0  0
   37.2880   29.2150   51.4690 H   0  0  0  0  0  0  0  0  0  0  0  0
   37.5200   29.1020   49.0880 H   0  0  0  0  0  0  0  0  0  0  0  0
   33.1220   29.5410   51.1060 H   0  0  0  0  0  0  0  0  0  0  0  0
   35.8480   30.5600   46.6410 C   0  0  0  0  0  0  0  0  0  0  0  0
   35.2800   30.8310   45.7550 H   0  0  0  0  0  0  0  0  0  0  0  0
   35.4810   31.2670   47.4460 H   0  0  0  0  0  0  0  0  0  0  0  0
   37.6200   30.7910   46.5660 S   0  0  0  0  0  0  0  0  0  0  0  0
   38.1820   32.3610   47.2470 C   0  0  0  0  0  3  0  0  0  0  0  0
   39.3650   32.8400   46.4430 C   0  0  0  0  0  2  0  0  0  0  0  0
   40.3380   33.6030   47.3320 C   0  0  0  0  0  2  0  0  0  0  0  0
   39.5660   34.3450   48.3970 C   0  0  0  0  0  2  0  0  0  0  0  0
   38.9340   33.4040   49.3900 C   0  0  0  0  0  2  0  0  0  0  0  0
   38.6170   32.1110   48.6750 C   0  0  0  0  0  2  0  0  0  0  0  0
  1  6  1  0  0  0  0
  2  1  1  0  0  0  0
  3  1  1  0  0  0  0
  4  9  1  0  0  0  0
  4 10  1  0  0  0  0
  5  4  2  0  0  0  0
  6  7  2  0  0  0  0
  6  5  1  0  0  0  0
  7  8  1  0  0  0  0
  8 12  1  0  0  0  0
  8  9  2  0  0  0  0
 11  5  1  0  0  0  0
 13  1  1  0  0  0  0
 13 15  1  0  0  0  0
 14 13  1  0  0  0  0
 16 13  1  0  0  0  0
 16 17  1  0  0  0  0
 17 22  1  0  0  0  0
 18 17  1  0  0  0  0
 18 19  1  0  0  0  0
 19 20  1  0  0  0  0
 20 21  1  0  0  0  0
 22 21  1  0  0  0  0
M  END
>  <minimizedAffinity>
-3.46242428

>  <minimizedRMSD>
2.7315433

$$$$
