
 OpenBabel03272501303D

 17 18  0  0  0  0  0  0  0  0999 V2000
   37.5090   30.0300   51.2080 C   0  0  0  0  0  0  0  0  0  0  0  0
   38.1470   31.0090   50.4100 C   0  0  0  0  0  0  0  0  0  0  0  0
   37.8440   31.0290   49.0550 C   0  0  0  0  0  0  0  0  0  0  0  0
   36.9560   30.1200   48.5560 N   0  0  0  0  0  0  0  0  0  0  0  0
   36.3740   29.2050   49.3620 C   0  0  0  0  0  0  0  0  0  0  0  0
   36.6420   29.1570   50.6670 N   0  0  0  0  0  0  0  0  0  0  0  0
   37.6960   29.9560   52.2620 H   0  0  0  0  0  0  0  0  0  0  0  0
   38.8420   31.7030   50.8650 H   0  0  0  0  0  0  0  0  0  0  0  0
   35.6760   28.5170   48.8750 H   0  0  0  0  0  0  0  0  0  0  0  0
   38.4760   32.0150   48.2070 C   0  0  0  0  0  0  0  0  0  0  0  0
   38.5150   33.2580   48.4390 O   0  0  0  0  0  0  0  0  0  0  0  0
   39.1300   31.5690   46.9810 C   0  0  0  0  0  0  0  0  0  0  0  0
   39.8770   32.6620   46.2360 C   0  0  0  0  0  0  0  0  0  0  0  0
   40.8760   31.9200   45.3570 C   0  0  0  0  0  0  0  0  0  0  0  0
   40.2100   30.9400   44.4620 C   0  0  0  0  0  0  0  0  0  0  0  0
   39.0810   30.1590   45.0260 C   0  0  0  0  0  0  0  0  0  0  0  0
   38.2080   30.9410   45.9790 C   0  0  0  0  0  0  0  0  0  0  0  0
  1  7  1  0  0  0  0
  2  8  1  0  0  0  0
  2  1  2  0  0  0  0
  3  2  1  0  0  0  0
  4  3  2  0  0  0  0
  4  5  1  0  0  0  0
  5  6  2  0  0  0  0
  6  1  1  0  0  0  0
  9  5  1  0  0  0  0
 10 11  2  0  0  0  0
 10  3  1  0  0  0  0
 12 10  1  0  0  0  0
 13 12  1  0  0  0  0
 14 13  1  0  0  0  0
 15 16  1  0  0  0  0
 15 14  1  0  0  0  0
 16 17  1  0  0  0  0
 17 12  1  0  0  0  0
M  END
>  <minimizedAffinity>
-5.31755495

>  <minimizedRMSD>
2.01115918

$$$$
