
 OpenBabel03272503493D

 34 36  0  0  1  0  0  0  0  0999 V2000
   33.1680   27.3370   45.8450 C   0  0  1  0  0  0  0  0  0  0  0  0
   33.9260   27.4730   47.1840 C   0  0  2  0  0  0  0  0  0  0  0  0
   33.7970   26.2400   47.7400 O   0  0  0  0  0  0  0  0  0  0  0  0
   34.0800   25.3590   46.7100 C   0  0  0  0  0  0  0  0  0  0  0  0
   33.5490   25.9440   45.4380 C   0  0  2  0  0  0  0  0  0  0  0  0
   33.6170   28.0560   45.1440 H   0  0  0  0  0  0  0  0  0  0  0  0
   34.9680   27.7910   46.9180 H   0  0  0  0  0  0  0  0  0  0  0  0
   33.5130   24.4240   46.9220 H   0  0  0  0  0  0  0  0  0  0  0  0
   35.1790   25.2200   46.7040 H   0  0  0  0  0  0  0  0  0  0  0  0
   32.6970   25.3630   45.0340 H   0  0  0  0  0  0  0  0  0  0  0  0
   31.8150   27.5330   46.0390 O   0  0  0  0  0  0  0  0  0  0  0  0
   31.4730   28.0750   45.2680 H   0  0  0  0  0  0  0  0  0  0  0  0
   33.3150   28.5120   47.8240 O   0  0  0  0  0  0  0  0  0  0  0  0
   35.3480   29.8310   46.7760 O   0  0  0  0  0  0  0  0  0  0  0  0
   34.0900   29.9920   47.6170 P   0  0  1  0  0  0  0  0  0  0  0  0
   33.1030   31.0440   46.7290 O   0  0  0  0  0  0  0  0  0  0  0  0
   32.1500   30.8880   46.9880 H   0  0  0  0  0  0  0  0  0  0  0  0
   34.3860   30.6150   49.1770 O   0  0  0  0  0  0  0  0  0  0  0  0
   35.6240   30.5010   49.7880 C   0  0  0  0  0  0  0  0  0  0  0  0
   35.9630   29.4840   50.7080 C   0  0  0  0  0  0  0  0  0  0  0  0
   37.2440   29.4930   51.2430 C   0  0  0  0  0  0  0  0  0  0  0  0
   38.1080   30.4780   50.8580 N   0  0  0  0  0  0  0  0  0  0  0  0
   37.7570   31.4450   49.9720 C   0  0  0  0  0  0  0  0  0  0  0  0
   36.5020   31.4540   49.4340 N   0  0  0  0  0  0  0  0  0  0  0  0
   35.1990   28.7550   50.9400 H   0  0  0  0  0  0  0  0  0  0  0  0
   37.5120   28.7190   51.9470 H   0  0  0  0  0  0  0  0  0  0  0  0
   38.4860   32.1980   49.7060 H   0  0  0  0  0  0  0  0  0  0  0  0
   34.5510   25.9920   44.4680 O   0  0  0  0  0  0  0  0  0  0  0  0
   34.1290   25.5260   43.2400 C   0  0  0  0  0  3  0  0  0  0  0  0
   35.1970   24.7050   42.5440 C   0  0  0  0  0  2  0  0  0  0  0  0
   35.2520   23.3360   43.2000 C   0  0  0  0  0  2  0  0  0  0  0  0
   34.0170   22.5270   42.9360 C   0  0  0  0  0  2  0  0  0  0  0  0
   32.9550   23.4700   42.3960 C   0  0  0  0  0  2  0  0  0  0  0  0
   32.9130   24.6310   43.3810 C   0  0  0  0  0  2  0  0  0  0  0  0
  1  6  1  6  0  0  0
  1 11  1  0  0  0  0
  1  2  1  0  0  0  0
  2  7  1  6  0  0  0
  2  3  1  0  0  0  0
  2 13  1  0  0  0  0
  4  8  1  0  0  0  0
  4  3  1  0  0  0  0
  5 10  1  6  0  0  0
  5  1  1  0  0  0  0
  5  4  1  0  0  0  0
  9  4  1  0  0  0  0
 12 11  1  0  0  0  0
 15 14  2  6  0  0  0
 15 13  1  0  0  0  0
 15 18  1  0  0  0  0
 16 17  1  0  0  0  0
 16 15  1  0  0  0  0
 18 19  1  0  0  0  0
 19 20  1  0  0  0  0
 20 25  1  0  0  0  0
 20 21  2  0  0  0  0
 21 26  1  0  0  0  0
 22 21  1  0  0  0  0
 23 22  2  0  0  0  0
 24 19  2  0  0  0  0
 24 23  1  0  0  0  0
 27 23  1  0  0  0  0
 28  5  1  0  0  0  0
 29 34  1  0  0  0  0
 29 28  1  0  0  0  0
 30 31  1  0  0  0  0
 30 29  1  0  0  0  0
 32 31  1  0  0  0  0
 33 32  1  0  0  0  0
 33 34  1  0  0  0  0
M  END
>  <minimizedAffinity>
-3.93528962

>  <minimizedRMSD>
0.261263371

$$$$
