
 OpenBabel03272509183D

 30 32  0  0  0  0  0  0  0  0999 V2000
   37.9560   31.3070   48.1160 C   0  0  0  0  0  0  0  0  0  0  0  0
   37.1890   31.5970   49.2400 C   0  0  0  0  0  0  0  0  0  0  0  0
   37.4640   32.8410   49.8450 C   0  0  0  0  0  0  0  0  0  0  0  0
   38.4510   33.6860   49.3090 C   0  0  0  0  0  0  0  0  0  0  0  0
   39.1620   33.3010   48.1820 C   0  0  0  0  0  0  0  0  0  0  0  0
   38.9160   32.0960   47.5730 C   0  0  0  0  0  0  0  0  0  0  0  0
   36.8630   33.0590   50.7150 H   0  0  0  0  0  0  0  0  0  0  0  0
   38.5300   34.5770   49.8830 H   0  0  0  0  0  0  0  0  0  0  0  0
   39.8520   34.0880   47.9570 H   0  0  0  0  0  0  0  0  0  0  0  0
   34.9340   30.6290   49.1410 C   0  0  0  0  0  0  0  0  0  0  0  0
   36.1860   30.7230   49.7700 C   0  0  0  0  0  0  0  0  0  0  0  0
   36.4030   29.9460   50.9040 C   0  0  0  0  0  0  0  0  0  0  0  0
   35.3980   29.1410   51.3460 N   0  0  0  0  0  0  0  0  0  0  0  0
   34.1950   29.0790   50.7080 C   0  0  0  0  0  0  0  0  0  0  0  0
   33.9690   29.8210   49.6100 N   0  0  0  0  0  0  0  0  0  0  0  0
   34.7670   31.2330   48.2600 H   0  0  0  0  0  0  0  0  0  0  0  0
   33.4120   28.4290   51.0810 H   0  0  0  0  0  0  0  0  0  0  0  0
   37.6940   30.0000   51.6050 C   0  0  0  0  0  0  0  0  0  0  0  0
   37.9680   31.0630   51.7970 H   0  0  0  0  0  0  0  0  0  0  0  0
   37.5830   29.4820   52.5840 H   0  0  0  0  0  0  0  0  0  0  0  0
   38.5050   29.4550   51.0780 H   0  0  0  0  0  0  0  0  0  0  0  0
   37.7390   30.0880   47.4630 O   0  0  0  0  0  0  0  0  0  0  0  0
   37.2060   30.0080   46.6120 H   0  0  0  0  0  0  0  0  0  0  0  0
   39.6360   31.7520   46.4600 O   0  0  0  0  0  0  0  0  0  0  0  0
   39.1090   31.4280   45.2210 C   0  0  0  0  0  3  0  0  0  0  0  0
   40.1460   31.3630   44.1260 C   0  0  0  0  0  2  0  0  0  0  0  0
   40.1210   32.5340   43.1990 C   0  0  0  0  0  2  0  0  0  0  0  0
   38.7670   32.8590   42.6470 C   0  0  0  0  0  2  0  0  0  0  0  0
   37.6180   32.3780   43.4560 C   0  0  0  0  0  2  0  0  0  0  0  0
   38.0070   32.4180   44.8990 C   0  0  0  0  0  2  0  0  0  0  0  0
  1  2  1  0  0  0  0
  2 11  1  0  0  0  0
  2  3  2  0  0  0  0
  3  7  1  0  0  0  0
  4  3  1  0  0  0  0
  4  8  1  0  0  0  0
  5  4  2  0  0  0  0
  6  1  2  0  0  0  0
  6  5  1  0  0  0  0
  9  5  1  0  0  0  0
 10 15  2  0  0  0  0
 10 11  1  0  0  0  0
 11 12  2  0  0  0  0
 12 13  1  0  0  0  0
 12 18  1  0  0  0  0
 14 17  1  0  0  0  0
 14 13  2  0  0  0  0
 15 14  1  0  0  0  0
 16 10  1  0  0  0  0
 18 19  1  0  0  0  0
 18 20  1  0  0  0  0
 21 18  1  0  0  0  0
 22  1  1  0  0  0  0
 23 22  1  0  0  0  0
 24  6  1  0  0  0  0
 25 24  1  0  0  0  0
 26 25  1  0  0  0  0
 27 26  1  0  0  0  0
 28 27  1  0  0  0  0
 28 29  1  0  0  0  0
 29 30  1  0  0  0  0
 30 25  1  0  0  0  0
M  END
>  <minimizedAffinity>
-6.08864069

>  <minimizedRMSD>
2.72412968

$$$$
