
 OpenBabel03272508023D

 25 27  0  0  0  0  0  0  0  0999 V2000
   38.8920   30.9180   45.8370 C   0  0  0  0  0  0  0  0  0  0  0  0
   40.0610   31.5900   46.1180 C   0  0  0  0  0  0  0  0  0  0  0  0
   40.9160   31.5310   45.0000 C   0  0  0  0  0  0  0  0  0  0  0  0
   40.2040   30.8070   44.0750 N   0  0  0  0  0  0  0  0  0  0  0  0
   39.0310   30.4580   44.5720 N   0  0  0  0  0  0  0  0  0  0  0  0
   40.3320   32.0970   47.0270 H   0  0  0  0  0  0  0  0  0  0  0  0
   41.9110   31.9570   44.8890 H   0  0  0  0  0  0  0  0  0  0  0  0
   37.7470   30.7380   46.7100 C   0  0  0  0  0  0  0  0  0  0  0  0
   37.9390   30.9230   48.1070 C   0  0  0  0  0  0  0  0  0  0  0  0
   36.8470   30.7520   48.9450 C   0  0  0  0  0  0  0  0  0  0  0  0
   35.6550   30.4160   48.3860 N   0  0  0  0  0  0  0  0  0  0  0  0
   35.4910   30.2440   47.0630 C   0  0  0  0  0  0  0  0  0  0  0  0
   36.5550   30.4100   46.2360 N   0  0  0  0  0  0  0  0  0  0  0  0
   38.9280   31.1930   48.4880 H   0  0  0  0  0  0  0  0  0  0  0  0
   34.5300   29.9780   46.6520 H   0  0  0  0  0  0  0  0  0  0  0  0
   37.0310   30.9420   50.4120 C   0  0  0  0  0  0  0  0  0  0  0  0
   36.5330   32.2120   50.6800 F   0  0  0  0  0  0  0  0  0  0  0  0
   36.3140   30.0420   51.1610 F   0  0  0  0  0  0  0  0  0  0  0  0
   38.3670   30.9330   50.7790 F   0  0  0  0  0  0  0  0  0  0  0  0
   40.7430   30.5240   42.7780 C   0  0  0  0  0  3  0  0  0  0  0  0
   40.0690   31.3440   41.7270 C   0  0  0  0  0  2  0  0  0  0  0  0
   40.1990   30.7600   40.3440 C   0  0  0  0  0  2  0  0  0  0  0  0
   41.3600   29.8400   40.1590 C   0  0  0  0  0  2  0  0  0  0  0  0
   41.5220   28.8050   41.2400 C   0  0  0  0  0  2  0  0  0  0  0  0
   40.5690   29.0550   42.3960 C   0  0  0  0  0  2  0  0  0  0  0  0
  1  2  1  0  0  0  0
  1  8  1  0  0  0  0
  2  6  1  0  0  0  0
  3  2  2  0  0  0  0
  4  5  1  0  0  0  0
  4  3  1  0  0  0  0
  5  1  2  0  0  0  0
  7  3  1  0  0  0  0
  8  9  1  0  0  0  0
  9 14  1  0  0  0  0
  9 10  2  0  0  0  0
 10 16  1  0  0  0  0
 11 10  1  0  0  0  0
 12 11  2  0  0  0  0
 13  8  2  0  0  0  0
 13 12  1  0  0  0  0
 15 12  1  0  0  0  0
 16 17  1  0  0  0  0
 16 19  1  0  0  0  0
 16 18  1  0  0  0  0
 20  4  1  0  0  0  0
 21 20  1  0  0  0  0
 22 21  1  0  0  0  0
 23 22  1  0  0  0  0
 23 24  1  0  0  0  0
 24 25  1  0  0  0  0
 25 20  1  0  0  0  0
M  END
>  <minimizedAffinity>
-6.06990719

>  <minimizedRMSD>
0.845581353

$$$$
