
 OpenBabel03262520423D

 18 19  0  0  0  0  0  0  0  0999 V2000
   37.5460   30.4060   51.0230 C   0  0  0  0  0  0  0  0  0  0  0  0
   38.2460   31.1630   50.0520 C   0  0  0  0  0  0  0  0  0  0  0  0
   37.9450   30.8980   48.7050 C   0  0  0  0  0  0  0  0  0  0  0  0
   37.0240   29.9550   48.3990 N   0  0  0  0  0  0  0  0  0  0  0  0
   36.3830   29.2590   49.3630 C   0  0  0  0  0  0  0  0  0  0  0  0
   36.6500   29.4910   50.6670 N   0  0  0  0  0  0  0  0  0  0  0  0
   37.7500   30.5820   52.0770 H   0  0  0  0  0  0  0  0  0  0  0  0
   38.9550   31.8850   50.3840 H   0  0  0  0  0  0  0  0  0  0  0  0
   35.6580   28.5220   49.0160 H   0  0  0  0  0  0  0  0  0  0  0  0
   38.6830   31.6940   47.6950 C   0  0  0  0  0  0  0  0  0  0  0  0
   38.0960   32.6320   47.5820 H   0  0  0  0  0  0  0  0  0  0  0  0
   39.6730   32.0010   48.0530 H   0  0  0  0  0  0  0  0  0  0  0  0
   38.8620   31.0080   46.3790 C   0  0  0  0  0  3  0  0  0  0  0  0
   40.3230   31.2110   45.9860 C   0  0  0  0  0  2  0  0  0  0  0  0
   40.4920   31.2050   44.4920 C   0  0  0  0  0  2  0  0  0  0  0  0
   39.8420   32.4590   43.9440 C   0  0  0  0  0  2  0  0  0  0  0  0
   38.5100   32.7320   44.5920 C   0  0  0  0  0  2  0  0  0  0  0  0
   37.9530   31.5100   45.2910 C   0  0  0  0  0  2  0  0  0  0  0  0
  1  7  1  0  0  0  0
  2  8  1  0  0  0  0
  2  1  2  0  0  0  0
  3  2  1  0  0  0  0
  4  3  2  0  0  0  0
  4  5  1  0  0  0  0
  5  6  2  0  0  0  0
  6  1  1  0  0  0  0
  9  5  1  0  0  0  0
 10 12  1  0  0  0  0
 10  3  1  0  0  0  0
 11 10  1  0  0  0  0
 13 10  1  0  0  0  0
 14 13  1  0  0  0  0
 15 14  1  0  0  0  0
 16 15  1  0  0  0  0
 16 17  1  0  0  0  0
 17 18  1  0  0  0  0
 18 13  1  0  0  0  0
M  END
>  <minimizedAffinity>
-4.92497158

>  <minimizedRMSD>
1.68627048

$$$$
