
 OpenBabel03262521353D

 34 37  0  0  1  0  0  0  0  0999 V2000
   38.5020   31.4780   45.3590 C   0  0  1  0  0  0  0  0  0  0  0  0
   38.8160   32.4630   46.3860 C   0  0  2  0  0  0  0  0  0  0  0  0
   40.2850   32.8280   46.0580 C   0  0  0  0  0  0  0  0  0  0  0  0
   40.8060   31.6240   45.7030 O   0  0  0  0  0  0  0  0  0  0  0  0
   39.8760   30.8630   45.0390 C   0  0  0  0  0  0  0  0  0  0  0  0
   38.1010   31.9550   44.4380 H   0  0  0  0  0  0  0  0  0  0  0  0
   38.2550   33.4100   46.2530 H   0  0  0  0  0  0  0  0  0  0  0  0
   40.3150   33.6090   45.2810 H   0  0  0  0  0  0  0  0  0  0  0  0
   40.7290   33.1600   47.0190 H   0  0  0  0  0  0  0  0  0  0  0  0
   39.8960   29.7970   45.3260 H   0  0  0  0  0  0  0  0  0  0  0  0
   40.0470   30.9870   43.9520 H   0  0  0  0  0  0  0  0  0  0  0  0
   37.5610   32.3710   48.6700 C   0  0  1  0  0  0  0  0  0  0  0  0
   38.7700   33.1360   48.8330 C   0  0  0  0  0  0  0  0  0  0  0  0
   38.7690   31.9710   47.8220 C   0  0  2  0  0  0  0  0  0  0  0  0
   36.6970   32.7860   48.0970 H   0  0  0  0  0  0  0  0  0  0  0  0
   38.9320   34.1540   48.4770 H   0  0  0  0  0  0  0  0  0  0  0  0
   39.3740   32.9130   49.7620 H   0  0  0  0  0  0  0  0  0  0  0  0
   39.3450   31.0790   48.0690 H   0  0  0  0  0  0  0  0  0  0  0  0
   35.5800   29.6710   50.3720 C   0  0  0  0  0  0  0  0  0  0  0  0
   35.9590   30.6520   49.4500 C   0  0  0  0  0  0  0  0  0  0  0  0
   37.1580   31.3230   49.6170 C   0  0  0  0  0  0  0  0  0  0  0  0
   37.9190   30.9690   50.7080 N   0  0  0  0  0  0  0  0  0  0  0  0
   37.5450   30.0210   51.5910 C   0  0  0  0  0  0  0  0  0  0  0  0
   36.3640   29.3640   51.4250 N   0  0  0  0  0  0  0  0  0  0  0  0
   34.6450   29.1250   50.2710 H   0  0  0  0  0  0  0  0  0  0  0  0
   35.2770   30.8250   48.6590 H   0  0  0  0  0  0  0  0  0  0  0  0
   38.2010   29.7950   52.4330 H   0  0  0  0  0  0  0  0  0  0  0  0
   37.6140   30.4650   45.7570 O   0  0  0  0  0  0  0  0  0  0  0  0
   36.4600   30.5190   44.9810 C   0  0  0  0  0  0  0  0  0  0  0  0
   35.2980   29.9820   45.7600 C   0  0  0  0  0  0  0  0  0  0  0  0
   33.9920   30.1650   44.9840 C   0  0  0  0  0  0  0  0  0  0  0  0
   34.1020   29.2620   43.7470 C   0  0  0  0  0  0  0  0  0  0  0  0
   35.2750   29.7520   42.9560 C   0  0  0  0  0  0  0  0  0  0  0  0
   36.5870   29.7030   43.7080 C   0  0  0  0  0  0  0  0  0  0  0  0
  1  6  1  6  0  0  0
  1 28  1  0  0  0  0
  1  2  1  0  0  0  0
  2  7  1  6  0  0  0
  2 14  1  0  0  0  0
  3  2  1  0  0  0  0
  3  9  1  0  0  0  0
  4  3  1  0  0  0  0
  5 10  1  0  0  0  0
  5  1  1  0  0  0  0
  5  4  1  0  0  0  0
  8  3  1  0  0  0  0
 11  5  1  0  0  0  0
 12 15  1  6  0  0  0
 12 13  1  0  0  0  0
 12 21  1  0  0  0  0
 13 17  1  0  0  0  0
 14 18  1  1  0  0  0
 14 12  1  0  0  0  0
 14 13  1  0  0  0  0
 16 13  1  0  0  0  0
 19 24  1  0  0  0  0
 20 21  1  0  0  0  0
 20 19  2  0  0  0  0
 21 22  2  0  0  0  0
 22 23  1  0  0  0  0
 23 27  1  0  0  0  0
 24 23  2  0  0  0  0
 25 19  1  0  0  0  0
 26 20  1  0  0  0  0
 29 28  1  0  0  0  0
 29 30  1  0  0  0  0
 31 30  1  0  0  0  0
 32 31  1  0  0  0  0
 33 34  1  0  0  0  0
 33 32  1  0  0  0  0
 34 29  1  0  0  0  0
M  END
>  <minimizedAffinity>
-5.46375513

>  <minimizedRMSD>
1.07929564

$$$$
