
 OpenBabel03272509313D

 35 37  0  0  1  0  0  0  0  0999 V2000
   36.3100   30.6940   48.9800 C   0  0  2  0  0  0  0  0  0  0  0  0
   37.2420   31.5940   49.7310 C   0  0  0  0  0  0  0  0  0  0  0  0
   38.1370   30.8460   50.6940 C   0  0  0  0  0  0  0  0  0  0  0  0
   37.3100   30.0200   51.6710 C   0  0  0  0  0  0  0  0  0  0  0  0
   36.0810   29.3990   51.0630 C   0  0  0  0  0  0  0  0  0  0  0  0
   36.2740   29.3130   49.5420 C   0  0  1  0  0  0  0  0  0  0  0  0
   35.2400   31.0820   48.9600 H   0  0  0  0  0  0  0  0  0  0  0  0
   36.5600   32.1950   50.4230 H   0  0  0  0  0  0  0  0  0  0  0  0
   37.7790   32.3360   49.1710 H   0  0  0  0  0  0  0  0  0  0  0  0
   38.6420   31.6140   51.3220 H   0  0  0  0  0  0  0  0  0  0  0  0
   38.8950   30.2270   50.2210 H   0  0  0  0  0  0  0  0  0  0  0  0
   36.9780   30.6380   52.5430 H   0  0  0  0  0  0  0  0  0  0  0  0
   37.9780   29.2410   52.0970 H   0  0  0  0  0  0  0  0  0  0  0  0
   35.1530   29.9560   51.2140 H   0  0  0  0  0  0  0  0  0  0  0  0
   35.9860   28.3570   51.4190 H   0  0  0  0  0  0  0  0  0  0  0  0
   37.2300   28.8510   49.4810 H   0  0  0  0  0  0  0  0  0  0  0  0
   36.6880   30.6150   47.5410 C   0  0  0  0  0  0  0  0  0  0  0  0
   38.0460   30.7960   47.2580 C   0  0  0  0  0  0  0  0  0  0  0  0
   38.4200   30.7190   45.9110 C   0  0  0  0  0  0  0  0  0  0  0  0
   37.4530   30.4740   44.9630 N   0  0  0  0  0  0  0  0  0  0  0  0
   36.1340   30.3020   45.2980 C   0  0  0  0  0  0  0  0  0  0  0  0
   35.7720   30.3770   46.5900 N   0  0  0  0  0  0  0  0  0  0  0  0
   38.8890   30.9820   47.8940 H   0  0  0  0  0  0  0  0  0  0  0  0
   39.4230   30.8400   45.5570 H   0  0  0  0  0  0  0  0  0  0  0  0
   35.4440   30.1140   44.4990 H   0  0  0  0  0  0  0  0  0  0  0  0
   34.0050   28.3010   49.0550 C   0  0  0  0  0  0  0  0  0  0  0  0
   33.1840   28.9720   49.7450 O   0  0  0  0  0  0  0  0  0  0  0  0
   35.4090   28.4060   48.8830 N   0  0  0  0  0  0  0  0  0  0  0  0
   35.6880   27.6690   48.1630 H   0  0  0  0  0  0  0  0  0  0  0  0
   33.0790   27.3170   48.4300 C   0  0  0  0  0  3  0  0  0  0  0  0
   32.1170   28.1350   47.5910 C   0  0  0  0  0  2  0  0  0  0  0  0
   31.1790   27.1720   46.9000 C   0  0  0  0  0  2  0  0  0  0  0  0
   31.3080   25.7810   47.4710 C   0  0  0  0  0  2  0  0  0  0  0  0
   32.7100   25.2290   47.2940 C   0  0  0  0  0  2  0  0  0  0  0  0
   33.7540   26.3220   47.5430 C   0  0  0  0  0  2  0  0  0  0  0  0
  1  7  1  1  0  0  0
  1  6  1  0  0  0  0
  1  2  1  0  0  0  0
  2  8  1  0  0  0  0
  2  3  1  0  0  0  0
  3 10  1  0  0  0  0
  3  4  1  0  0  0  0
  4 13  1  0  0  0  0
  4 12  1  0  0  0  0
  5 14  1  0  0  0  0
  5 15  1  0  0  0  0
  5  4  1  0  0  0  0
  6 16  1  6  0  0  0
  6  5  1  0  0  0  0
  9  2  1  0  0  0  0
 11  3  1  0  0  0  0
 17  1  1  0  0  0  0
 18 17  1  0  0  0  0
 18 23  1  0  0  0  0
 19 18  2  0  0  0  0
 20 21  2  0  0  0  0
 20 19  1  0  0  0  0
 21 22  1  0  0  0  0
 22 17  2  0  0  0  0
 24 19  1  0  0  0  0
 25 21  1  0  0  0  0
 26 27  2  0  0  0  0
 28 26  1  0  0  0  0
 28  6  1  0  0  0  0
 29 28  1  0  0  0  0
 30 26  1  0  0  0  0
 31 30  1  0  0  0  0
 32 33  1  0  0  0  0
 32 31  1  0  0  0  0
 34 33  1  0  0  0  0
 34 35  1  0  0  0  0
 35 30  1  0  0  0  0
M  END
>  <minimizedAffinity>
-6.08893442

>  <minimizedRMSD>
0.602056921

$$$$
