
 OpenBabel03272503503D

 34 36  0  0  1  0  0  0  0  0999 V2000
   33.0830   27.3770   45.9190 C   0  0  1  0  0  0  0  0  0  0  0  0
   33.9280   27.5030   47.2070 C   0  0  2  0  0  0  0  0  0  0  0  0
   33.8310   26.2660   47.7620 O   0  0  0  0  0  0  0  0  0  0  0  0
   34.0430   25.3920   46.7090 C   0  0  0  0  0  0  0  0  0  0  0  0
   33.4310   25.9870   45.4780 C   0  0  2  0  0  0  0  0  0  0  0  0
   33.4870   28.1010   45.1950 H   0  0  0  0  0  0  0  0  0  0  0  0
   34.9500   27.8190   46.8750 H   0  0  0  0  0  0  0  0  0  0  0  0
   33.4880   24.4570   46.9510 H   0  0  0  0  0  0  0  0  0  0  0  0
   35.1380   25.2490   46.6300 H   0  0  0  0  0  0  0  0  0  0  0  0
   32.5530   25.4110   45.1280 H   0  0  0  0  0  0  0  0  0  0  0  0
   31.7460   27.5760   46.2030 O   0  0  0  0  0  0  0  0  0  0  0  0
   31.3560   28.1250   45.4600 H   0  0  0  0  0  0  0  0  0  0  0  0
   33.3630   28.5390   47.8920 O   0  0  0  0  0  0  0  0  0  0  0  0
   35.3520   29.8540   46.7580 O   0  0  0  0  0  0  0  0  0  0  0  0
   34.1150   30.0220   47.6280 P   0  0  1  0  0  0  0  0  0  0  0  0
   33.0920   31.0410   46.7430 O   0  0  0  0  0  0  0  0  0  0  0  0
   32.1480   30.8810   47.0320 H   0  0  0  0  0  0  0  0  0  0  0  0
   34.4470   30.6850   49.1650 O   0  0  0  0  0  0  0  0  0  0  0  0
   35.6810   30.5380   49.7750 C   0  0  0  0  0  0  0  0  0  0  0  0
   35.9960   29.5060   50.6870 C   0  0  0  0  0  0  0  0  0  0  0  0
   37.2770   29.4820   51.2230 C   0  0  0  0  0  0  0  0  0  0  0  0
   38.1640   30.4490   50.8460 N   0  0  0  0  0  0  0  0  0  0  0  0
   37.8340   31.4320   49.9670 C   0  0  0  0  0  0  0  0  0  0  0  0
   36.5810   31.4740   49.4290 N   0  0  0  0  0  0  0  0  0  0  0  0
   35.2160   28.7930   50.9140 H   0  0  0  0  0  0  0  0  0  0  0  0
   37.5260   28.6960   51.9210 H   0  0  0  0  0  0  0  0  0  0  0  0
   38.5810   32.1690   49.7080 H   0  0  0  0  0  0  0  0  0  0  0  0
   34.3680   26.0390   44.4450 O   0  0  0  0  0  0  0  0  0  0  0  0
   33.8690   25.5680   43.2470 C   0  0  0  0  0  3  0  0  0  0  0  0
   33.0830   24.2850   43.4220 C   0  0  0  0  0  2  0  0  0  0  0  0
   31.7250   24.6310   44.0110 C   0  0  0  0  0  2  0  0  0  0  0  0
   30.8650   25.3940   43.0490 C   0  0  0  0  0  2  0  0  0  0  0  0
   31.7580   25.8870   41.9220 C   0  0  0  0  0  2  0  0  0  0  0  0
   32.9280   26.5750   42.6120 C   0  0  0  0  0  2  0  0  0  0  0  0
  1  6  1  6  0  0  0
  1 11  1  0  0  0  0
  1  2  1  0  0  0  0
  2  7  1  6  0  0  0
  2  3  1  0  0  0  0
  2 13  1  0  0  0  0
  4  8  1  0  0  0  0
  4  3  1  0  0  0  0
  5 10  1  6  0  0  0
  5  1  1  0  0  0  0
  5  4  1  0  0  0  0
  9  4  1  0  0  0  0
 12 11  1  0  0  0  0
 15 14  2  6  0  0  0
 15 13  1  0  0  0  0
 15 18  1  0  0  0  0
 16 17  1  0  0  0  0
 16 15  1  0  0  0  0
 18 19  1  0  0  0  0
 19 20  1  0  0  0  0
 20 25  1  0  0  0  0
 20 21  2  0  0  0  0
 21 26  1  0  0  0  0
 22 21  1  0  0  0  0
 23 22  2  0  0  0  0
 24 19  2  0  0  0  0
 24 23  1  0  0  0  0
 27 23  1  0  0  0  0
 28  5  1  0  0  0  0
 29 30  1  0  0  0  0
 29 28  1  0  0  0  0
 30 31  1  0  0  0  0
 32 31  1  0  0  0  0
 33 34  1  0  0  0  0
 33 32  1  0  0  0  0
 34 29  1  0  0  0  0
M  END
>  <minimizedAffinity>
-3.89427471

>  <minimizedRMSD>
0.273837268

$$$$
