
 OpenBabel03272503493D

 34 36  0  0  1  0  0  0  0  0999 V2000
   33.2460   27.2710   45.8590 C   0  0  1  0  0  0  0  0  0  0  0  0
   33.9000   27.4470   47.2480 C   0  0  2  0  0  0  0  0  0  0  0  0
   33.7110   26.2350   47.8340 O   0  0  0  0  0  0  0  0  0  0  0  0
   34.0600   25.3160   46.8600 C   0  0  0  0  0  0  0  0  0  0  0  0
   33.6380   25.8610   45.5310 C   0  0  2  0  0  0  0  0  0  0  0  0
   33.7570   27.9610   45.1700 H   0  0  0  0  0  0  0  0  0  0  0  0
   34.9630   27.7430   47.0530 H   0  0  0  0  0  0  0  0  0  0  0  0
   33.4660   24.3950   47.0590 H   0  0  0  0  0  0  0  0  0  0  0  0
   35.1540   25.1640   46.9440 H   0  0  0  0  0  0  0  0  0  0  0  0
   32.8120   25.2750   45.0820 H   0  0  0  0  0  0  0  0  0  0  0  0
   31.8850   27.4890   45.9390 O   0  0  0  0  0  0  0  0  0  0  0  0
   31.6110   28.0080   45.1260 H   0  0  0  0  0  0  0  0  0  0  0  0
   33.2550   28.5140   47.8020 O   0  0  0  0  0  0  0  0  0  0  0  0
   35.3340   29.7880   46.7890 O   0  0  0  0  0  0  0  0  0  0  0  0
   34.0700   29.9750   47.6150 P   0  0  1  0  0  0  0  0  0  0  0  0
   33.1210   31.0590   46.7240 O   0  0  0  0  0  0  0  0  0  0  0  0
   32.1610   30.9260   46.9700 H   0  0  0  0  0  0  0  0  0  0  0  0
   34.3630   30.5780   49.1840 O   0  0  0  0  0  0  0  0  0  0  0  0
   35.6050   30.4770   49.7880 C   0  0  0  0  0  0  0  0  0  0  0  0
   35.9620   29.4620   50.7020 C   0  0  0  0  0  0  0  0  0  0  0  0
   37.2460   29.4850   51.2300 C   0  0  0  0  0  0  0  0  0  0  0  0
   38.0960   30.4810   50.8430 N   0  0  0  0  0  0  0  0  0  0  0  0
   37.7280   31.4460   49.9610 C   0  0  0  0  0  0  0  0  0  0  0  0
   36.4700   31.4420   49.4310 N   0  0  0  0  0  0  0  0  0  0  0  0
   35.2080   28.7240   50.9370 H   0  0  0  0  0  0  0  0  0  0  0  0
   37.5270   28.7120   51.9310 H   0  0  0  0  0  0  0  0  0  0  0  0
   38.4470   32.2080   49.6940 H   0  0  0  0  0  0  0  0  0  0  0  0
   34.7130   25.8640   44.6410 O   0  0  0  0  0  0  0  0  0  0  0  0
   34.9600   24.6200   44.0970 C   0  0  0  0  0  0  0  0  0  0  0  0
   34.7630   24.6050   42.5940 C   0  0  0  0  0  0  0  0  0  0  0  0
   35.9620   25.2800   41.9480 C   0  0  0  0  0  0  0  0  0  0  0  0
   37.2190   24.4780   42.1050 C   0  0  0  0  0  0  0  0  0  0  0  0
   36.9640   23.4220   43.1670 C   0  0  0  0  0  0  0  0  0  0  0  0
   36.3890   24.1820   44.3550 C   0  0  0  0  0  0  0  0  0  0  0  0
  1  6  1  6  0  0  0
  1 11  1  0  0  0  0
  1  2  1  0  0  0  0
  2  7  1  6  0  0  0
  2 13  1  0  0  0  0
  2  3  1  0  0  0  0
  4  9  1  0  0  0  0
  4  8  1  0  0  0  0
  4  3  1  0  0  0  0
  5 10  1  6  0  0  0
  5  1  1  0  0  0  0
  5  4  1  0  0  0  0
 12 11  1  0  0  0  0
 15 14  2  6  0  0  0
 15 13  1  0  0  0  0
 15 18  1  0  0  0  0
 16 17  1  0  0  0  0
 16 15  1  0  0  0  0
 18 19  1  0  0  0  0
 19 20  1  0  0  0  0
 20 25  1  0  0  0  0
 20 21  2  0  0  0  0
 21 26  1  0  0  0  0
 22 21  1  0  0  0  0
 23 22  2  0  0  0  0
 24 19  2  0  0  0  0
 24 23  1  0  0  0  0
 27 23  1  0  0  0  0
 28  5  1  0  0  0  0
 29 34  1  0  0  0  0
 29 28  1  0  0  0  0
 30 29  1  0  0  0  0
 31 32  1  0  0  0  0
 31 30  1  0  0  0  0
 32 33  1  0  0  0  0
 33 34  1  0  0  0  0
M  END
>  <minimizedAffinity>
-4.18006611

>  <minimizedRMSD>
0.966731548

$$$$
