
 OpenBabel03272506383D

 34 36  0  0  1  0  0  0  0  0999 V2000
   35.2000   28.4300   49.8240 O   0  0  0  0  0  0  0  0  0  0  0  0
   35.0580   28.8950   48.6860 C   0  0  0  0  0  0  0  0  0  0  0  0
   35.7580   30.0880   48.2600 C   0  0  2  0  0  0  0  0  0  0  0  0
   35.4050   30.1130   46.7330 C   0  0  0  0  0  0  0  0  0  0  0  0
   34.0720   29.4120   46.7010 C   0  0  0  0  0  0  0  0  0  0  0  0
   34.2120   28.3330   47.6710 N   0  0  0  0  0  0  0  0  0  0  0  0
   35.3640   31.0300   48.6830 H   0  0  0  0  0  0  0  0  0  0  0  0
   35.3890   31.1390   46.3580 H   0  0  0  0  0  0  0  0  0  0  0  0
   36.1330   29.4580   46.2400 H   0  0  0  0  0  0  0  0  0  0  0  0
   33.8260   29.0320   45.6970 H   0  0  0  0  0  0  0  0  0  0  0  0
   33.2880   30.0820   47.1050 H   0  0  0  0  0  0  0  0  0  0  0  0
   33.6200   27.0040   47.5930 C   0  0  0  0  0  0  0  0  0  0  0  0
   34.0530   26.3220   48.3550 H   0  0  0  0  0  0  0  0  0  0  0  0
   33.8420   26.6160   46.5890 H   0  0  0  0  0  0  0  0  0  0  0  0
   32.1300   27.0720   47.7270 C   0  0  0  0  0  3  0  0  0  0  0  0
   31.8320   27.7950   49.0470 C   0  0  0  0  0  2  0  0  0  0  0  0
   30.3870   27.7310   49.4200 C   0  0  0  0  0  2  0  0  0  0  0  0
   29.5670   27.4230   48.1950 C   0  0  0  0  0  2  0  0  0  0  0  0
   30.0600   28.2720   47.0350 C   0  0  0  0  0  2  0  0  0  0  0  0
   31.4700   27.9030   46.6450 C   0  0  0  0  0  2  0  0  0  0  0  0
   37.1790   29.9920   48.3150 O   0  0  0  0  0  0  0  0  0  0  0  0
   37.9080   31.1800   48.2740 C   0  0  0  0  0  0  0  0  0  0  0  0
   38.0550   31.8600   49.4700 C   0  0  0  0  0  0  0  0  0  0  0  0
   38.7750   33.0460   49.4640 C   0  0  0  0  0  0  0  0  0  0  0  0
   39.3010   33.4860   48.2900 N   0  0  0  0  0  0  0  0  0  0  0  0
   39.1490   32.8170   47.1380 C   0  0  0  0  0  0  0  0  0  0  0  0
   38.4580   31.6780   47.1460 N   0  0  0  0  0  0  0  0  0  0  0  0
   40.6400   32.3950   45.3410 C   0  0  0  0  0  0  0  0  0  0  0  0
   40.9980   31.2670   45.7690 O   0  0  0  0  0  0  0  0  0  0  0  0
   39.7100   33.3060   45.9210 N   0  0  0  0  0  0  0  0  0  0  0  0
   37.6650   31.5620   50.4220 H   0  0  0  0  0  0  0  0  0  0  0  0
   38.9200   33.6100   50.3600 H   0  0  0  0  0  0  0  0  0  0  0  0
   41.1960   32.5330   44.4220 H   0  0  0  0  0  0  0  0  0  0  0  0
   39.5480   34.1990   45.4060 H   0  0  0  0  0  0  0  0  0  0  0  0
  2  1  2  0  0  0  0
  3 21  1  0  0  0  0
  3  7  1  1  0  0  0
  3  2  1  0  0  0  0
  4  3  1  0  0  0  0
  5  4  1  0  0  0  0
  5 11  1  0  0  0  0
  5  6  1  0  0  0  0
  6  2  1  0  0  0  0
  8  4  1  0  0  0  0
  9  4  1  0  0  0  0
 10  5  1  0  0  0  0
 12  6  1  0  0  0  0
 12 15  1  0  0  0  0
 12 13  1  0  0  0  0
 14 12  1  0  0  0  0
 15 16  1  0  0  0  0
 16 17  1  0  0  0  0
 18 17  1  0  0  0  0
 19 18  1  0  0  0  0
 20 19  1  0  0  0  0
 20 15  1  0  0  0  0
 22 21  1  0  0  0  0
 22 23  1  0  0  0  0
 23 31  1  0  0  0  0
 24 23  2  0  0  0  0
 24 32  1  0  0  0  0
 25 24  1  0  0  0  0
 26 27  1  0  0  0  0
 26 25  2  0  0  0  0
 27 22  2  0  0  0  0
 28 29  2  0  0  0  0
 28 30  1  0  0  0  0
 30 26  1  0  0  0  0
 33 28  1  0  0  0  0
 34 30  1  0  0  0  0
M  END
>  <minimizedAffinity>
-6.04922009

>  <minimizedRMSD>
0.967362344

$$$$
