
 OpenBabel03262523593D

 26 28  0  0  0  0  0  0  0  0999 V2000
   34.4700   29.0770   48.2480 C   0  0  0  0  0  0  0  0  0  0  0  0
   35.3720   29.7750   47.4020 C   0  0  0  0  0  0  0  0  0  0  0  0
   34.9780   29.9410   46.0880 C   0  0  0  0  0  0  0  0  0  0  0  0
   33.7820   29.4450   45.6800 N   0  0  0  0  0  0  0  0  0  0  0  0
   32.9490   28.7890   46.5030 C   0  0  0  0  0  0  0  0  0  0  0  0
   33.2890   28.5960   47.8140 N   0  0  0  0  0  0  0  0  0  0  0  0
   34.7190   28.9110   49.2960 H   0  0  0  0  0  0  0  0  0  0  0  0
   35.6500   30.4700   45.4260 H   0  0  0  0  0  0  0  0  0  0  0  0
   33.1250   25.8660   45.3930 Br  0  0  0  0  0  0  0  0  0  0  0  0
   31.5760   26.9750   45.5460 C   0  0  0  0  0  0  0  0  0  0  0  0
   31.6670   28.2550   46.0640 C   0  0  0  0  0  0  0  0  0  0  0  0
   30.5100   28.9970   46.1440 C   0  0  0  0  0  0  0  0  0  0  0  0
   29.2740   28.5340   45.7400 C   0  0  0  0  0  0  0  0  0  0  0  0
   29.2270   27.2380   45.2240 C   0  0  0  0  0  0  0  0  0  0  0  0
   30.3810   26.4720   45.1340 C   0  0  0  0  0  0  0  0  0  0  0  0
   30.5460   30.0040   46.5440 H   0  0  0  0  0  0  0  0  0  0  0  0
   28.3900   29.1480   45.8200 H   0  0  0  0  0  0  0  0  0  0  0  0
   28.2660   26.8540   44.9010 H   0  0  0  0  0  0  0  0  0  0  0  0
   30.2470   25.4790   44.7210 H   0  0  0  0  0  0  0  0  0  0  0  0
   36.5310   30.2090   47.9620 O   0  0  0  0  0  0  0  0  0  0  0  0
   36.8710   31.4210   48.5280 C   0  0  0  0  0  3  0  0  0  0  0  0
   36.2180   31.6210   49.9040 C   0  0  0  0  0  2  0  0  0  0  0  0
   36.7250   30.5890   50.8860 C   0  0  0  0  0  2  0  0  0  0  0  0
   38.2150   30.4990   50.7710 C   0  0  0  0  0  2  0  0  0  0  0  0
   38.7960   31.6720   50.0200 C   0  0  0  0  0  2  0  0  0  0  0  0
   38.3370   31.7020   48.5770 C   0  0  0  0  0  2  0  0  0  0  0  0
  1  7  1  0  0  0  0
  2 20  1  0  0  0  0
  2  1  2  0  0  0  0
  3  2  1  0  0  0  0
  4  3  2  0  0  0  0
  4  5  1  0  0  0  0
  5  6  2  0  0  0  0
  6  1  1  0  0  0  0
  8  3  1  0  0  0  0
  9 10  1  0  0  0  0
 10 11  1  0  0  0  0
 11 12  2  0  0  0  0
 11  5  1  0  0  0  0
 12 16  1  0  0  0  0
 13 17  1  0  0  0  0
 13 12  1  0  0  0  0
 14 13  2  0  0  0  0
 15 14  1  0  0  0  0
 15 10  2  0  0  0  0
 18 14  1  0  0  0  0
 19 15  1  0  0  0  0
 20 21  1  0  0  0  0
 21 26  1  0  0  0  0
 21 22  1  0  0  0  0
 22 23  1  0  0  0  0
 24 23  1  0  0  0  0
 25 24  1  0  0  0  0
 26 25  1  0  0  0  0
M  END
>  <minimizedAffinity>
-4.24983644

>  <minimizedRMSD>
6.00528765

$$$$
