
 OpenBabel03272509183D

 30 32  0  0  0  0  0  0  0  0999 V2000
   38.1570   31.3660   47.8960 C   0  0  0  0  0  0  0  0  0  0  0  0
   37.2870   31.5860   48.9600 C   0  0  0  0  0  0  0  0  0  0  0  0
   37.4790   32.8030   49.6450 C   0  0  0  0  0  0  0  0  0  0  0  0
   38.4890   33.6920   49.2390 C   0  0  0  0  0  0  0  0  0  0  0  0
   39.3050   33.3780   48.1630 C   0  0  0  0  0  0  0  0  0  0  0  0
   39.1410   32.1990   47.4780 C   0  0  0  0  0  0  0  0  0  0  0  0
   36.7990   32.9660   50.4680 H   0  0  0  0  0  0  0  0  0  0  0  0
   38.4950   34.5550   49.8600 H   0  0  0  0  0  0  0  0  0  0  0  0
   39.9930   34.1890   48.0370 H   0  0  0  0  0  0  0  0  0  0  0  0
   35.1440   30.4660   48.5330 C   0  0  0  0  0  0  0  0  0  0  0  0
   36.2630   30.6670   49.3570 C   0  0  0  0  0  0  0  0  0  0  0  0
   36.3300   29.9500   50.5480 C   0  0  0  0  0  0  0  0  0  0  0  0
   35.3150   29.0960   50.8540 N   0  0  0  0  0  0  0  0  0  0  0  0
   34.2440   28.9300   50.0290 C   0  0  0  0  0  0  0  0  0  0  0  0
   34.1630   29.6130   48.8730 N   0  0  0  0  0  0  0  0  0  0  0  0
   35.0930   31.0230   47.6080 H   0  0  0  0  0  0  0  0  0  0  0  0
   33.4490   28.2430   50.2970 H   0  0  0  0  0  0  0  0  0  0  0  0
   37.4780   30.1160   51.4510 C   0  0  0  0  0  0  0  0  0  0  0  0
   37.6520   31.2020   51.6330 H   0  0  0  0  0  0  0  0  0  0  0  0
   37.2340   29.6290   52.4210 H   0  0  0  0  0  0  0  0  0  0  0  0
   38.3990   29.6070   51.0930 H   0  0  0  0  0  0  0  0  0  0  0  0
   38.0270   30.1770   47.1690 O   0  0  0  0  0  0  0  0  0  0  0  0
   37.5730   30.1280   46.2720 H   0  0  0  0  0  0  0  0  0  0  0  0
   39.9630   31.9250   46.4180 O   0  0  0  0  0  0  0  0  0  0  0  0
   39.7980   32.3860   45.1230 C   0  0  0  0  0  3  0  0  0  0  0  0
   38.3560   32.6220   44.7490 C   0  0  0  0  0  2  0  0  0  0  0  0
   37.7860   31.5770   43.8450 C   0  0  0  0  0  2  0  0  0  0  0  0
   38.6190   31.2830   42.6360 C   0  0  0  0  0  2  0  0  0  0  0  0
   40.0600   31.6210   42.7590 C   0  0  0  0  0  2  0  0  0  0  0  0
   40.4740   31.4120   44.1800 C   0  0  0  0  0  2  0  0  0  0  0  0
  1  2  1  0  0  0  0
  2 11  1  0  0  0  0
  2  3  2  0  0  0  0
  3  7  1  0  0  0  0
  4  3  1  0  0  0  0
  4  8  1  0  0  0  0
  5  4  2  0  0  0  0
  6  1  2  0  0  0  0
  6  5  1  0  0  0  0
  9  5  1  0  0  0  0
 10 15  2  0  0  0  0
 10 11  1  0  0  0  0
 11 12  2  0  0  0  0
 12 13  1  0  0  0  0
 12 18  1  0  0  0  0
 14 17  1  0  0  0  0
 14 13  2  0  0  0  0
 15 14  1  0  0  0  0
 16 10  1  0  0  0  0
 18 19  1  0  0  0  0
 18 20  1  0  0  0  0
 21 18  1  0  0  0  0
 22  1  1  0  0  0  0
 23 22  1  0  0  0  0
 24  6  1  0  0  0  0
 25 24  1  0  0  0  0
 26 25  1  0  0  0  0
 27 26  1  0  0  0  0
 28 29  1  0  0  0  0
 28 27  1  0  0  0  0
 29 30  1  0  0  0  0
 30 25  1  0  0  0  0
M  END
>  <minimizedAffinity>
-6.62345123

>  <minimizedRMSD>
2.17185235

$$$$
