
 OpenBabel03272503503D

 34 36  0  0  1  0  0  0  0  0999 V2000
   33.2060   27.3380   45.8500 C   0  0  1  0  0  0  0  0  0  0  0  0
   33.9300   27.4660   47.2090 C   0  0  2  0  0  0  0  0  0  0  0  0
   33.7730   26.2340   47.7610 O   0  0  0  0  0  0  0  0  0  0  0  0
   34.0740   25.3510   46.7380 C   0  0  0  0  0  0  0  0  0  0  0  0
   33.5830   25.9410   45.4520 C   0  0  2  0  0  0  0  0  0  0  0  0
   33.6800   28.0530   45.1610 H   0  0  0  0  0  0  0  0  0  0  0  0
   34.9810   27.7740   46.9700 H   0  0  0  0  0  0  0  0  0  0  0  0
   33.4930   24.4220   46.9350 H   0  0  0  0  0  0  0  0  0  0  0  0
   35.1720   25.2000   46.7610 H   0  0  0  0  0  0  0  0  0  0  0  0
   32.7370   25.3690   45.0260 H   0  0  0  0  0  0  0  0  0  0  0  0
   31.8510   27.5480   46.0070 O   0  0  0  0  0  0  0  0  0  0  0  0
   31.5350   28.0930   45.2280 H   0  0  0  0  0  0  0  0  0  0  0  0
   33.3120   28.5110   47.8320 O   0  0  0  0  0  0  0  0  0  0  0  0
   35.3490   29.8220   46.7820 O   0  0  0  0  0  0  0  0  0  0  0  0
   34.0900   29.9890   47.6200 P   0  0  1  0  0  0  0  0  0  0  0  0
   33.1060   31.0400   46.7280 O   0  0  0  0  0  0  0  0  0  0  0  0
   32.1520   30.8870   46.9870 H   0  0  0  0  0  0  0  0  0  0  0  0
   34.3870   30.6170   49.1790 O   0  0  0  0  0  0  0  0  0  0  0  0
   35.6230   30.5010   49.7920 C   0  0  0  0  0  0  0  0  0  0  0  0
   35.9600   29.4850   50.7130 C   0  0  0  0  0  0  0  0  0  0  0  0
   37.2400   29.4930   51.2500 C   0  0  0  0  0  0  0  0  0  0  0  0
   38.1060   30.4760   50.8660 N   0  0  0  0  0  0  0  0  0  0  0  0
   37.7570   31.4430   49.9780 C   0  0  0  0  0  0  0  0  0  0  0  0
   36.5030   31.4530   49.4380 N   0  0  0  0  0  0  0  0  0  0  0  0
   35.1940   28.7570   50.9450 H   0  0  0  0  0  0  0  0  0  0  0  0
   37.5050   28.7180   51.9550 H   0  0  0  0  0  0  0  0  0  0  0  0
   38.4880   32.1940   49.7140 H   0  0  0  0  0  0  0  0  0  0  0  0
   34.6110   25.9790   44.5090 O   0  0  0  0  0  0  0  0  0  0  0  0
   34.3020   25.2930   43.3530 C   0  0  0  0  0  3  0  0  0  0  0  0
   33.8620   26.2230   42.2380 C   0  0  0  0  0  2  0  0  0  0  0  0
   35.0960   26.9050   41.6700 C   0  0  0  0  0  2  0  0  0  0  0  0
   35.9910   25.9470   40.9410 C   0  0  0  0  0  2  0  0  0  0  0  0
   35.5580   24.5390   41.3120 C   0  0  0  0  0  2  0  0  0  0  0  0
   35.5020   24.5250   42.8320 C   0  0  0  0  0  2  0  0  0  0  0  0
  1  6  1  6  0  0  0
  1 11  1  0  0  0  0
  1  2  1  0  0  0  0
  2  7  1  6  0  0  0
  2  3  1  0  0  0  0
  2 13  1  0  0  0  0
  4  9  1  0  0  0  0
  4  8  1  0  0  0  0
  4  3  1  0  0  0  0
  5 10  1  6  0  0  0
  5  1  1  0  0  0  0
  5  4  1  0  0  0  0
 12 11  1  0  0  0  0
 15 14  2  6  0  0  0
 15 13  1  0  0  0  0
 15 18  1  0  0  0  0
 16 17  1  0  0  0  0
 16 15  1  0  0  0  0
 18 19  1  0  0  0  0
 19 20  1  0  0  0  0
 20 25  1  0  0  0  0
 20 21  2  0  0  0  0
 21 26  1  0  0  0  0
 22 21  1  0  0  0  0
 23 22  2  0  0  0  0
 24 19  2  0  0  0  0
 24 23  1  0  0  0  0
 27 23  1  0  0  0  0
 28  5  1  0  0  0  0
 29 28  1  0  0  0  0
 30 29  1  0  0  0  0
 31 30  1  0  0  0  0
 32 33  1  0  0  0  0
 32 31  1  0  0  0  0
 33 34  1  0  0  0  0
 34 29  1  0  0  0  0
M  END
>  <minimizedAffinity>
-3.98211622

>  <minimizedRMSD>
0.363129467

$$$$
