
 OpenBabel03272503503D

 34 36  0  0  1  0  0  0  0  0999 V2000
   32.9300   27.3950   46.0320 C   0  0  1  0  0  0  0  0  0  0  0  0
   33.9020   27.5320   47.2250 C   0  0  2  0  0  0  0  0  0  0  0  0
   33.8750   26.2960   47.7900 O   0  0  0  0  0  0  0  0  0  0  0  0
   33.9850   25.4200   46.7230 C   0  0  0  0  0  0  0  0  0  0  0  0
   33.2440   26.0070   45.5610 C   0  0  2  0  0  0  0  0  0  0  0  0
   33.2500   28.1200   45.2690 H   0  0  0  0  0  0  0  0  0  0  0  0
   34.8820   27.8570   46.7880 H   0  0  0  0  0  0  0  0  0  0  0  0
   33.4670   24.4810   47.0230 H   0  0  0  0  0  0  0  0  0  0  0  0
   35.0670   25.2870   46.5310 H   0  0  0  0  0  0  0  0  0  0  0  0
   32.3390   25.4220   45.3030 H   0  0  0  0  0  0  0  0  0  0  0  0
   31.6280   27.5830   46.4520 O   0  0  0  0  0  0  0  0  0  0  0  0
   31.1590   28.1260   45.7520 H   0  0  0  0  0  0  0  0  0  0  0  0
   33.4020   28.5650   47.9630 O   0  0  0  0  0  0  0  0  0  0  0  0
   35.3490   29.8700   46.7490 O   0  0  0  0  0  0  0  0  0  0  0  0
   34.1320   30.0480   47.6440 P   0  0  1  0  0  0  0  0  0  0  0  0
   33.0770   31.0340   46.7570 O   0  0  0  0  0  0  0  0  0  0  0  0
   32.1430   30.8720   47.0730 H   0  0  0  0  0  0  0  0  0  0  0  0
   34.4930   30.7540   49.1540 O   0  0  0  0  0  0  0  0  0  0  0  0
   35.7190   30.5740   49.7730 C   0  0  0  0  0  0  0  0  0  0  0  0
   35.9990   29.5400   50.6930 C   0  0  0  0  0  0  0  0  0  0  0  0
   37.2750   29.4820   51.2360 C   0  0  0  0  0  0  0  0  0  0  0  0
   38.1920   30.4190   50.8580 N   0  0  0  0  0  0  0  0  0  0  0  0
   37.8970   31.4050   49.9700 C   0  0  0  0  0  0  0  0  0  0  0  0
   36.6480   31.4800   49.4250 N   0  0  0  0  0  0  0  0  0  0  0  0
   35.1960   28.8530   50.9200 H   0  0  0  0  0  0  0  0  0  0  0  0
   37.4970   28.6930   51.9410 H   0  0  0  0  0  0  0  0  0  0  0  0
   38.6670   32.1180   49.7100 H   0  0  0  0  0  0  0  0  0  0  0  0
   34.0680   26.0640   44.4360 O   0  0  0  0  0  0  0  0  0  0  0  0
   33.5030   25.4660   43.3280 C   0  0  0  0  0  3  0  0  0  0  0  0
   34.4580   24.5050   42.6490 C   0  0  0  0  0  2  0  0  0  0  0  0
   34.5240   23.2310   43.4750 C   0  0  0  0  0  2  0  0  0  0  0  0
   33.2350   22.4640   43.4430 C   0  0  0  0  0  2  0  0  0  0  0  0
   32.1630   23.3860   42.8870 C   0  0  0  0  0  2  0  0  0  0  0  0
   32.2710   24.6640   43.7060 C   0  0  0  0  0  2  0  0  0  0  0  0
  1  6  1  6  0  0  0
  1 11  1  0  0  0  0
  1  2  1  0  0  0  0
  2  7  1  6  0  0  0
  2  3  1  0  0  0  0
  2 13  1  0  0  0  0
  4  8  1  0  0  0  0
  4  3  1  0  0  0  0
  5 10  1  6  0  0  0
  5  1  1  0  0  0  0
  5  4  1  0  0  0  0
  9  4  1  0  0  0  0
 12 11  1  0  0  0  0
 15 14  2  6  0  0  0
 15 13  1  0  0  0  0
 15 18  1  0  0  0  0
 16 17  1  0  0  0  0
 16 15  1  0  0  0  0
 18 19  1  0  0  0  0
 19 20  1  0  0  0  0
 20 25  1  0  0  0  0
 20 21  2  0  0  0  0
 21 26  1  0  0  0  0
 22 21  1  0  0  0  0
 23 22  2  0  0  0  0
 24 19  2  0  0  0  0
 24 23  1  0  0  0  0
 27 23  1  0  0  0  0
 28  5  1  0  0  0  0
 29 34  1  0  0  0  0
 29 28  1  0  0  0  0
 30 29  1  0  0  0  0
 30 31  1  0  0  0  0
 32 31  1  0  0  0  0
 33 32  1  0  0  0  0
 33 34  1  0  0  0  0
M  END
>  <minimizedAffinity>
-3.89384437

>  <minimizedRMSD>
0.913693666

$$$$
