
 OpenBabel03272508193D

 28 30  0  0  0  0  0  0  0  0999 V2000
   36.6830   26.2200   32.2290 C   0  0  0  0  0  0  0  0  0  0  0  0
   37.3300   25.0950   32.7410 C   0  0  0  0  0  0  0  0  0  0  0  0
   36.8070   23.9040   32.2980 C   0  0  0  0  0  0  0  0  0  0  0  0
   35.7600   23.8570   31.4490 N   0  0  0  0  0  0  0  0  0  0  0  0
   35.1540   24.9490   30.9730 C   0  0  0  0  0  0  0  0  0  0  0  0
   35.6170   26.1290   31.3650 N   0  0  0  0  0  0  0  0  0  0  0  0
   37.2410   22.9720   32.6380 H   0  0  0  0  0  0  0  0  0  0  0  0
   34.3230   25.0170   30.3010 H   0  0  0  0  0  0  0  0  0  0  0  0
   37.2840   27.5710   32.5930 C   0  0  0  0  0  0  0  0  0  0  0  0
   36.6500   28.7880   32.2540 C   0  0  0  0  0  0  0  0  0  0  0  0
   36.3400   28.2600   33.6440 C   0  0  0  0  0  0  0  0  0  0  0  0
   38.3180   27.5330   33.0350 H   0  0  0  0  0  0  0  0  0  0  0  0
   35.8310   28.7750   31.4810 H   0  0  0  0  0  0  0  0  0  0  0  0
   37.2180   29.7280   32.2030 H   0  0  0  0  0  0  0  0  0  0  0  0
   36.8050   28.7840   34.4810 H   0  0  0  0  0  0  0  0  0  0  0  0
   35.3250   27.8950   33.7410 H   0  0  0  0  0  0  0  0  0  0  0  0
   38.4470   25.1960   33.6940 C   0  0  0  0  0  0  0  0  0  0  0  0
   39.2370   24.4390   33.4890 H   0  0  0  0  0  0  0  0  0  0  0  0
   38.9270   26.1860   33.5370 H   0  0  0  0  0  0  0  0  0  0  0  0
   38.0970   25.0640   35.1220 C   0  0  0  0  0  0  0  0  0  0  0  0
   38.7210   25.7960   35.7070 H   0  0  0  0  0  0  0  0  0  0  0  0
   37.0310   25.3810   35.2820 H   0  0  0  0  0  0  0  0  0  0  0  0
   38.3240   23.7130   35.7080 C   0  0  0  0  0  3  0  0  0  0  0  0
   37.3850   23.5770   36.9060 C   0  0  0  0  0  2  0  0  0  0  0  0
   38.0220   24.2090   38.1400 C   0  0  0  0  0  2  0  0  0  0  0  0
   39.1400   23.2760   38.5520 C   0  0  0  0  0  2  0  0  0  0  0  0
   39.9460   22.7830   37.3820 C   0  0  0  0  0  2  0  0  0  0  0  0
   39.7700   23.6250   36.1420 C   0  0  0  0  0  2  0  0  0  0  0  0
  1  9  1  0  0  0  0
  1  2  1  0  0  0  0
  2 17  1  0  0  0  0
  3  7  1  0  0  0  0
  3  2  2  0  0  0  0
  4  3  1  0  0  0  0
  5  6  1  0  0  0  0
  5  4  2  0  0  0  0
  6  1  2  0  0  0  0
  8  5  1  0  0  0  0
  9 12  1  0  0  0  0
  9 11  1  0  0  0  0
 10  9  1  0  0  0  0
 10 11  1  0  0  0  0
 11 16  1  0  0  0  0
 11 15  1  0  0  0  0
 13 10  1  0  0  0  0
 14 10  1  0  0  0  0
 17 20  1  0  0  0  0
 18 17  1  0  0  0  0
 19 17  1  0  0  0  0
 20 22  1  0  0  0  0
 20 21  1  0  0  0  0
 20 23  1  0  0  0  0
 23 28  1  0  0  0  0
 23 24  1  0  0  0  0
 24 25  1  0  0  0  0
 25 26  1  0  0  0  0
 27 26  1  0  0  0  0
 28 27  1  0  0  0  0
M  END
>  <minimizedAffinity>
-4.80929279

$$$$

 OpenBabel03272508193D

 28 30  0  0  0  0  0  0  0  0999 V2000
   36.3470   23.8560   31.9610 C   0  0  0  0  0  0  0  0  0  0  0  0
   37.2250   24.7300   32.6020 C   0  0  0  0  0  0  0  0  0  0  0  0
   36.9660   26.0580   32.3550 C   0  0  0  0  0  0  0  0  0  0  0  0
   35.9510   26.4500   31.5590 N   0  0  0  0  0  0  0  0  0  0  0  0
   35.1230   25.5930   30.9540 C   0  0  0  0  0  0  0  0  0  0  0  0
   35.3230   24.2970   31.1560 N   0  0  0  0  0  0  0  0  0  0  0  0
   37.5930   26.8160   32.8090 H   0  0  0  0  0  0  0  0  0  0  0  0
   34.2940   25.8030   30.3070 H   0  0  0  0  0  0  0  0  0  0  0  0
   36.5110   22.3770   32.2810 C   0  0  0  0  0  0  0  0  0  0  0  0
   35.7580   21.3800   31.6180 C   0  0  0  0  0  0  0  0  0  0  0  0
   37.1250   21.6680   31.0200 C   0  0  0  0  0  0  0  0  0  0  0  0
   37.1740   22.1460   33.1600 H   0  0  0  0  0  0  0  0  0  0  0  0
   34.8440   21.6880   31.0380 H   0  0  0  0  0  0  0  0  0  0  0  0
   35.6200   20.3840   32.0640 H   0  0  0  0  0  0  0  0  0  0  0  0
   37.8980   20.9160   31.1830 H   0  0  0  0  0  0  0  0  0  0  0  0
   37.0690   22.1760   30.0660 H   0  0  0  0  0  0  0  0  0  0  0  0
   38.3410   24.2540   33.4330 C   0  0  0  0  0  0  0  0  0  0  0  0
   38.5390   23.1680   33.2800 H   0  0  0  0  0  0  0  0  0  0  0  0
   39.2580   24.7800   33.0900 H   0  0  0  0  0  0  0  0  0  0  0  0
   38.2010   24.4540   34.8890 C   0  0  0  0  0  0  0  0  0  0  0  0
   38.9350   25.2460   35.2080 H   0  0  0  0  0  0  0  0  0  0  0  0
   37.1850   24.8750   35.1180 H   0  0  0  0  0  0  0  0  0  0  0  0
   38.4540   23.2450   35.7240 C   0  0  0  0  0  3  0  0  0  0  0  0
   37.3990   23.2310   36.8290 C   0  0  0  0  0  2  0  0  0  0  0  0
   37.8490   24.1140   37.9890 C   0  0  0  0  0  2  0  0  0  0  0  0
   38.9760   23.3650   38.6660 C   0  0  0  0  0  2  0  0  0  0  0  0
   39.9410   22.7540   37.6860 C   0  0  0  0  0  2  0  0  0  0  0  0
   39.8460   23.3580   36.3050 C   0  0  0  0  0  2  0  0  0  0  0  0
  1  9  1  0  0  0  0
  1  2  1  0  0  0  0
  2 17  1  0  0  0  0
  3  2  2  0  0  0  0
  3  7  1  0  0  0  0
  4  3  1  0  0  0  0
  5  6  1  0  0  0  0
  5  4  2  0  0  0  0
  6  1  2  0  0  0  0
  8  5  1  0  0  0  0
  9 12  1  0  0  0  0
 10 14  1  0  0  0  0
 10  9  1  0  0  0  0
 11 15  1  0  0  0  0
 11 10  1  0  0  0  0
 11  9  1  0  0  0  0
 13 10  1  0  0  0  0
 16 11  1  0  0  0  0
 17 20  1  0  0  0  0
 18 17  1  0  0  0  0
 19 17  1  0  0  0  0
 20 22  1  0  0  0  0
 20 21  1  0  0  0  0
 20 23  1  0  0  0  0
 23 28  1  0  0  0  0
 23 24  1  0  0  0  0
 24 25  1  0  0  0  0
 25 26  1  0  0  0  0
 27 26  1  0  0  0  0
 28 27  1  0  0  0  0
M  END
>  <minimizedAffinity>
-4.79075003

$$$$

 OpenBabel03272508193D

 28 30  0  0  0  0  0  0  0  0999 V2000
   38.2370   24.9930   36.0470 C   0  0  0  0  0  0  0  0  0  0  0  0
   38.3960   23.7200   35.4980 C   0  0  0  0  0  0  0  0  0  0  0  0
   38.3400   22.7040   36.4220 C   0  0  0  0  0  0  0  0  0  0  0  0
   38.1510   22.9460   37.7360 N   0  0  0  0  0  0  0  0  0  0  0  0
   38.0030   24.1750   38.2400 C   0  0  0  0  0  0  0  0  0  0  0  0
   38.0470   25.1970   37.3940 N   0  0  0  0  0  0  0  0  0  0  0  0
   38.4510   21.6780   36.0950 H   0  0  0  0  0  0  0  0  0  0  0  0
   37.8490   24.4700   39.2590 H   0  0  0  0  0  0  0  0  0  0  0  0
   38.1800   26.1520   35.0620 C   0  0  0  0  0  0  0  0  0  0  0  0
   38.1690   27.4990   35.4930 C   0  0  0  0  0  0  0  0  0  0  0  0
   39.5380   26.9370   35.1500 C   0  0  0  0  0  0  0  0  0  0  0  0
   38.0200   25.8620   33.9870 H   0  0  0  0  0  0  0  0  0  0  0  0
   37.9360   27.7210   36.5720 H   0  0  0  0  0  0  0  0  0  0  0  0
   37.7920   28.3000   34.8400 H   0  0  0  0  0  0  0  0  0  0  0  0
   39.9890   27.2820   34.2180 H   0  0  0  0  0  0  0  0  0  0  0  0
   40.1640   26.7880   36.0210 H   0  0  0  0  0  0  0  0  0  0  0  0
   38.6360   23.5090   34.0620 C   0  0  0  0  0  0  0  0  0  0  0  0
   39.0510   24.4190   33.5720 H   0  0  0  0  0  0  0  0  0  0  0  0
   39.4230   22.7300   33.9690 H   0  0  0  0  0  0  0  0  0  0  0  0
   37.4680   23.0950   33.2600 C   0  0  0  0  0  0  0  0  0  0  0  0
   36.5350   23.4050   33.8090 H   0  0  0  0  0  0  0  0  0  0  0  0
   37.4510   23.6640   32.2920 H   0  0  0  0  0  0  0  0  0  0  0  0
   37.3660   21.6310   32.9950 C   0  0  0  0  0  3  0  0  0  0  0  0
   37.0100   21.4630   31.5190 C   0  0  0  0  0  2  0  0  0  0  0  0
   35.5020   21.5920   31.3300 C   0  0  0  0  0  2  0  0  0  0  0  0
   34.9030   20.3290   31.9100 C   0  0  0  0  0  2  0  0  0  0  0  0
   35.5280   19.9370   33.2200 C   0  0  0  0  0  2  0  0  0  0  0  0
   36.2780   21.0680   33.8820 C   0  0  0  0  0  2  0  0  0  0  0  0
  1  6  1  0  0  0  0
  2  1  2  0  0  0  0
  2  3  1  0  0  0  0
  3  4  2  0  0  0  0
  4  5  1  0  0  0  0
  5  8  1  0  0  0  0
  6  5  2  0  0  0  0
  7  3  1  0  0  0  0
  9 11  1  0  0  0  0
  9 10  1  0  0  0  0
  9  1  1  0  0  0  0
 10 13  1  0  0  0  0
 11 10  1  0  0  0  0
 11 16  1  0  0  0  0
 12  9  1  0  0  0  0
 14 10  1  0  0  0  0
 15 11  1  0  0  0  0
 17  2  1  0  0  0  0
 18 17  1  0  0  0  0
 19 17  1  0  0  0  0
 20 21  1  0  0  0  0
 20 17  1  0  0  0  0
 22 20  1  0  0  0  0
 23 20  1  0  0  0  0
 23 28  1  0  0  0  0
 24 23  1  0  0  0  0
 25 24  1  0  0  0  0
 25 26  1  0  0  0  0
 26 27  1  0  0  0  0
 27 28  1  0  0  0  0
M  END
>  <minimizedAffinity>
-4.78782988

$$$$

 OpenBabel03272508193D

 28 30  0  0  0  0  0  0  0  0999 V2000
   37.0680   27.0570   33.8140 C   0  0  0  0  0  0  0  0  0  0  0  0
   36.2980   28.1890   33.5440 C   0  0  0  0  0  0  0  0  0  0  0  0
   35.9020   28.2930   32.2310 C   0  0  0  0  0  0  0  0  0  0  0  0
   36.2440   27.3700   31.3090 N   0  0  0  0  0  0  0  0  0  0  0  0
   36.9840   26.2930   31.5910 C   0  0  0  0  0  0  0  0  0  0  0  0
   37.3950   26.1400   32.8430 N   0  0  0  0  0  0  0  0  0  0  0  0
   35.2990   29.1370   31.9210 H   0  0  0  0  0  0  0  0  0  0  0  0
   37.3070   25.5090   30.9350 H   0  0  0  0  0  0  0  0  0  0  0  0
   37.4450   26.8270   35.2710 C   0  0  0  0  0  0  0  0  0  0  0  0
   38.3540   25.8150   35.6560 C   0  0  0  0  0  0  0  0  0  0  0  0
   38.9630   27.1910   35.4460 C   0  0  0  0  0  0  0  0  0  0  0  0
   36.8590   27.4290   36.0190 H   0  0  0  0  0  0  0  0  0  0  0  0
   38.6030   25.0010   34.9200 H   0  0  0  0  0  0  0  0  0  0  0  0
   38.3660   25.4270   36.6850 H   0  0  0  0  0  0  0  0  0  0  0  0
   39.2560   27.7380   36.3430 H   0  0  0  0  0  0  0  0  0  0  0  0
   39.5850   27.2470   34.5620 H   0  0  0  0  0  0  0  0  0  0  0  0
   35.9800   29.1880   34.5770 C   0  0  0  0  0  0  0  0  0  0  0  0
   35.9520   28.7370   35.5950 H   0  0  0  0  0  0  0  0  0  0  0  0
   36.8140   29.9230   34.5940 H   0  0  0  0  0  0  0  0  0  0  0  0
   34.7110   29.9210   34.4050 C   0  0  0  0  0  0  0  0  0  0  0  0
   34.4710   29.9580   33.3060 H   0  0  0  0  0  0  0  0  0  0  0  0
   33.8720   29.3420   34.8770 H   0  0  0  0  0  0  0  0  0  0  0  0
   34.7140   31.3230   34.9120 C   0  0  0  0  0  3  0  0  0  0  0  0
   34.6290   32.2430   33.6950 C   0  0  0  0  0  2  0  0  0  0  0  0
   36.0200   32.4610   33.1090 C   0  0  0  0  0  2  0  0  0  0  0  0
   36.7450   33.3570   34.0890 C   0  0  0  0  0  2  0  0  0  0  0  0
   36.5180   32.9580   35.5210 C   0  0  0  0  0  2  0  0  0  0  0  0
   36.0040   31.5460   35.6690 C   0  0  0  0  0  2  0  0  0  0  0  0
  1  9  1  0  0  0  0
  2  1  1  0  0  0  0
  2 17  1  0  0  0  0
  3  2  2  0  0  0  0
  4  5  2  0  0  0  0
  4  3  1  0  0  0  0
  5  6  1  0  0  0  0
  6  1  2  0  0  0  0
  7  3  1  0  0  0  0
  8  5  1  0  0  0  0
  9 11  1  0  0  0  0
  9 10  1  0  0  0  0
  9 12  1  0  0  0  0
 10 14  1  0  0  0  0
 11 10  1  0  0  0  0
 11 15  1  0  0  0  0
 13 10  1  0  0  0  0
 16 11  1  0  0  0  0
 17 19  1  0  0  0  0
 17 18  1  0  0  0  0
 20 17  1  0  0  0  0
 20 22  1  0  0  0  0
 20 23  1  0  0  0  0
 21 20  1  0  0  0  0
 23 28  1  0  0  0  0
 24 23  1  0  0  0  0
 25 24  1  0  0  0  0
 25 26  1  0  0  0  0
 26 27  1  0  0  0  0
 27 28  1  0  0  0  0
M  END
>  <minimizedAffinity>
-4.63053989

$$$$

 OpenBabel03272508193D

 28 30  0  0  0  0  0  0  0  0999 V2000
   38.9120   24.5020   36.0150 C   0  0  0  0  0  0  0  0  0  0  0  0
   39.1620   25.8230   35.6410 C   0  0  0  0  0  0  0  0  0  0  0  0
   40.2430   25.9690   34.8040 C   0  0  0  0  0  0  0  0  0  0  0  0
   40.9780   24.9130   34.3990 N   0  0  0  0  0  0  0  0  0  0  0  0
   40.7200   23.6560   34.7720 C   0  0  0  0  0  0  0  0  0  0  0  0
   39.6870   23.4530   35.5800 N   0  0  0  0  0  0  0  0  0  0  0  0
   40.5190   26.9570   34.4560 H   0  0  0  0  0  0  0  0  0  0  0  0
   41.2400   22.7560   34.5080 H   0  0  0  0  0  0  0  0  0  0  0  0
   37.6640   24.2610   36.8520 C   0  0  0  0  0  0  0  0  0  0  0  0
   37.4130   23.0190   37.4810 C   0  0  0  0  0  0  0  0  0  0  0  0
   38.1080   24.0570   38.3460 C   0  0  0  0  0  0  0  0  0  0  0  0
   36.9040   25.0900   36.8310 H   0  0  0  0  0  0  0  0  0  0  0  0
   38.0010   22.1170   37.1510 H   0  0  0  0  0  0  0  0  0  0  0  0
   36.3960   22.7330   37.7830 H   0  0  0  0  0  0  0  0  0  0  0  0
   37.5060   24.5260   39.1250 H   0  0  0  0  0  0  0  0  0  0  0  0
   39.1440   23.8150   38.5460 H   0  0  0  0  0  0  0  0  0  0  0  0
   38.3530   26.9470   36.1380 C   0  0  0  0  0  0  0  0  0  0  0  0
   37.4220   26.5980   36.6390 H   0  0  0  0  0  0  0  0  0  0  0  0
   38.9470   27.4600   36.9240 H   0  0  0  0  0  0  0  0  0  0  0  0
   37.9410   27.9470   35.1320 C   0  0  0  0  0  0  0  0  0  0  0  0
   37.8630   28.9470   35.6420 H   0  0  0  0  0  0  0  0  0  0  0  0
   38.7480   28.0630   34.3600 H   0  0  0  0  0  0  0  0  0  0  0  0
   36.6330   27.6770   34.4700 C   0  0  0  0  0  3  0  0  0  0  0  0
   36.9360   27.0510   33.1100 C   0  0  0  0  0  2  0  0  0  0  0  0
   37.2190   28.1460   32.0850 C   0  0  0  0  0  2  0  0  0  0  0  0
   35.8850   28.8010   31.8020 C   0  0  0  0  0  2  0  0  0  0  0  0
   35.0790   29.0430   33.0480 C   0  0  0  0  0  2  0  0  0  0  0  0
   35.9070   28.9950   34.3100 C   0  0  0  0  0  2  0  0  0  0  0  0
  1  9  1  0  0  0  0
  2  1  1  0  0  0  0
  2 17  1  0  0  0  0
  3  2  2  0  0  0  0
  4  5  2  0  0  0  0
  4  3  1  0  0  0  0
  5  6  1  0  0  0  0
  6  1  2  0  0  0  0
  7  3  1  0  0  0  0
  8  5  1  0  0  0  0
  9 10  1  0  0  0  0
  9 11  1  0  0  0  0
 10 14  1  0  0  0  0
 10 11  1  0  0  0  0
 11 16  1  0  0  0  0
 11 15  1  0  0  0  0
 12  9  1  0  0  0  0
 13 10  1  0  0  0  0
 17 18  1  0  0  0  0
 17 19  1  0  0  0  0
 20 21  1  0  0  0  0
 20 17  1  0  0  0  0
 22 20  1  0  0  0  0
 23 20  1  0  0  0  0
 24 23  1  0  0  0  0
 25 24  1  0  0  0  0
 26 25  1  0  0  0  0
 26 27  1  0  0  0  0
 27 28  1  0  0  0  0
 28 23  1  0  0  0  0
M  END
>  <minimizedAffinity>
-4.61367941

$$$$

 OpenBabel03272508193D

 28 30  0  0  0  0  0  0  0  0999 V2000
   39.8500   22.9050   36.6420 C   0  0  0  0  0  0  0  0  0  0  0  0
   38.6790   22.8990   35.8840 C   0  0  0  0  0  0  0  0  0  0  0  0
   37.5370   23.0940   36.6250 C   0  0  0  0  0  0  0  0  0  0  0  0
   37.5750   23.2700   37.9610 N   0  0  0  0  0  0  0  0  0  0  0  0
   38.7110   23.2700   38.6670 C   0  0  0  0  0  0  0  0  0  0  0  0
   39.8460   23.0880   38.0050 N   0  0  0  0  0  0  0  0  0  0  0  0
   36.5750   23.1070   36.1270 H   0  0  0  0  0  0  0  0  0  0  0  0
   38.8460   23.4010   39.7220 H   0  0  0  0  0  0  0  0  0  0  0  0
   41.1570   22.8040   35.8680 C   0  0  0  0  0  0  0  0  0  0  0  0
   42.4140   22.8380   36.5150 C   0  0  0  0  0  0  0  0  0  0  0  0
   41.8530   21.4500   36.2570 C   0  0  0  0  0  0  0  0  0  0  0  0
   41.0550   22.8280   34.7480 H   0  0  0  0  0  0  0  0  0  0  0  0
   42.4670   23.2050   37.5790 H   0  0  0  0  0  0  0  0  0  0  0  0
   43.3280   23.1060   35.9650 H   0  0  0  0  0  0  0  0  0  0  0  0
   42.3250   20.8720   35.4610 H   0  0  0  0  0  0  0  0  0  0  0  0
   41.5340   20.9480   37.1620 H   0  0  0  0  0  0  0  0  0  0  0  0
   38.6840   22.6660   34.4320 C   0  0  0  0  0  0  0  0  0  0  0  0
   38.2790   23.5390   33.8700 H   0  0  0  0  0  0  0  0  0  0  0  0
   39.7450   22.5690   34.1160 H   0  0  0  0  0  0  0  0  0  0  0  0
   37.9420   21.4810   33.9590 C   0  0  0  0  0  0  0  0  0  0  0  0
   38.5290   21.0070   33.1240 H   0  0  0  0  0  0  0  0  0  0  0  0
   37.9000   20.7100   34.7750 H   0  0  0  0  0  0  0  0  0  0  0  0
   36.5700   21.7560   33.4430 C   0  0  0  0  0  3  0  0  0  0  0  0
   35.6360   20.7240   34.0730 C   0  0  0  0  0  2  0  0  0  0  0  0
   35.6710   19.4300   33.2660 C   0  0  0  0  0  2  0  0  0  0  0  0
   34.9350   19.7260   31.9780 C   0  0  0  0  0  2  0  0  0  0  0  0
   35.3030   21.0610   31.3910 C   0  0  0  0  0  2  0  0  0  0  0  0
   36.5980   21.6130   31.9370 C   0  0  0  0  0  2  0  0  0  0  0  0
  1  6  1  0  0  0  0
  2  3  1  0  0  0  0
  2  1  2  0  0  0  0
  3  4  2  0  0  0  0
  4  5  1  0  0  0  0
  5  8  1  0  0  0  0
  6  5  2  0  0  0  0
  7  3  1  0  0  0  0
  9 11  1  0  0  0  0
  9 10  1  0  0  0  0
  9  1  1  0  0  0  0
 10 13  1  0  0  0  0
 11 10  1  0  0  0  0
 11 16  1  0  0  0  0
 12  9  1  0  0  0  0
 14 10  1  0  0  0  0
 15 11  1  0  0  0  0
 17  2  1  0  0  0  0
 18 17  1  0  0  0  0
 19 17  1  0  0  0  0
 20 17  1  0  0  0  0
 20 22  1  0  0  0  0
 21 20  1  0  0  0  0
 23 20  1  0  0  0  0
 23 24  1  0  0  0  0
 25 24  1  0  0  0  0
 26 25  1  0  0  0  0
 27 28  1  0  0  0  0
 27 26  1  0  0  0  0
 28 23  1  0  0  0  0
M  END
>  <minimizedAffinity>
-4.53559875

$$$$

 OpenBabel03272508193D

 28 30  0  0  0  0  0  0  0  0999 V2000
   39.4070   22.8090   36.5630 C   0  0  0  0  0  0  0  0  0  0  0  0
   39.7200   22.8780   35.2050 C   0  0  0  0  0  0  0  0  0  0  0  0
   40.9620   22.3740   34.8950 C   0  0  0  0  0  0  0  0  0  0  0  0
   41.7810   21.8680   35.8390 N   0  0  0  0  0  0  0  0  0  0  0  0
   41.4590   21.8150   37.1350 C   0  0  0  0  0  0  0  0  0  0  0  0
   40.2720   22.2860   37.4940 N   0  0  0  0  0  0  0  0  0  0  0  0
   41.2980   22.3810   33.8660 H   0  0  0  0  0  0  0  0  0  0  0  0
   42.0360   21.4360   37.9560 H   0  0  0  0  0  0  0  0  0  0  0  0
   38.0030   23.2500   36.9560 C   0  0  0  0  0  0  0  0  0  0  0  0
   37.5800   23.2820   38.3050 C   0  0  0  0  0  0  0  0  0  0  0  0
   38.1200   24.5940   37.7610 C   0  0  0  0  0  0  0  0  0  0  0  0
   37.2960   23.4230   36.0980 H   0  0  0  0  0  0  0  0  0  0  0  0
   38.1880   22.7320   39.0770 H   0  0  0  0  0  0  0  0  0  0  0  0
   36.5120   23.2630   38.5640 H   0  0  0  0  0  0  0  0  0  0  0  0
   37.3870   25.3760   37.5550 H   0  0  0  0  0  0  0  0  0  0  0  0
   39.0810   24.8620   38.1800 H   0  0  0  0  0  0  0  0  0  0  0  0
   38.8070   23.4720   34.2160 C   0  0  0  0  0  0  0  0  0  0  0  0
   38.3180   22.6960   33.5840 H   0  0  0  0  0  0  0  0  0  0  0  0
   37.9860   23.9660   34.7790 H   0  0  0  0  0  0  0  0  0  0  0  0
   39.4010   24.4560   33.2900 C   0  0  0  0  0  0  0  0  0  0  0  0
   40.4680   24.6340   33.6010 H   0  0  0  0  0  0  0  0  0  0  0  0
   39.4570   24.0180   32.2570 H   0  0  0  0  0  0  0  0  0  0  0  0
   38.7190   25.7810   33.2490 C   0  0  0  0  0  3  0  0  0  0  0  0
   39.7170   26.8180   33.7610 C   0  0  0  0  0  2  0  0  0  0  0  0
   39.6870   26.8610   35.2850 C   0  0  0  0  0  2  0  0  0  0  0  0
   38.3770   27.5230   35.6550 C   0  0  0  0  0  2  0  0  0  0  0  0
   37.2210   27.0260   34.8320 C   0  0  0  0  0  2  0  0  0  0  0  0
   37.5030   25.7110   34.1450 C   0  0  0  0  0  2  0  0  0  0  0  0
  1  9  1  0  0  0  0
  1  6  1  0  0  0  0
  2  1  2  0  0  0  0
  3  2  1  0  0  0  0
  3  4  2  0  0  0  0
  4  5  1  0  0  0  0
  5  6  2  0  0  0  0
  5  8  1  0  0  0  0
  7  3  1  0  0  0  0
  9 11  1  0  0  0  0
  9 10  1  0  0  0  0
 10 14  1  0  0  0  0
 10 13  1  0  0  0  0
 11 16  1  0  0  0  0
 11 10  1  0  0  0  0
 12  9  1  0  0  0  0
 15 11  1  0  0  0  0
 17 19  1  0  0  0  0
 17  2  1  0  0  0  0
 18 17  1  0  0  0  0
 20 21  1  0  0  0  0
 20 17  1  0  0  0  0
 22 20  1  0  0  0  0
 23 20  1  0  0  0  0
 23 24  1  0  0  0  0
 23 28  1  0  0  0  0
 24 25  1  0  0  0  0
 25 26  1  0  0  0  0
 27 26  1  0  0  0  0
 28 27  1  0  0  0  0
M  END
>  <minimizedAffinity>
-4.52501965

$$$$

 OpenBabel03272508193D

 28 30  0  0  0  0  0  0  0  0999 V2000
   37.6200   26.1160   33.4800 C   0  0  0  0  0  0  0  0  0  0  0  0
   37.3150   24.9110   32.8470 C   0  0  0  0  0  0  0  0  0  0  0  0
   36.3960   25.0340   31.8310 C   0  0  0  0  0  0  0  0  0  0  0  0
   35.8530   26.2230   31.5020 N   0  0  0  0  0  0  0  0  0  0  0  0
   36.1600   27.3650   32.1240 C   0  0  0  0  0  0  0  0  0  0  0  0
   37.0430   27.3090   33.1130 N   0  0  0  0  0  0  0  0  0  0  0  0
   36.0940   24.1540   31.2770 H   0  0  0  0  0  0  0  0  0  0  0  0
   35.7870   28.3530   31.9390 H   0  0  0  0  0  0  0  0  0  0  0  0
   38.7130   26.0670   34.5390 C   0  0  0  0  0  0  0  0  0  0  0  0
   39.0080   27.1790   35.3610 C   0  0  0  0  0  0  0  0  0  0  0  0
   38.0310   26.1760   35.9510 C   0  0  0  0  0  0  0  0  0  0  0  0
   39.3440   25.1350   34.5350 H   0  0  0  0  0  0  0  0  0  0  0  0
   38.6210   28.1930   35.0610 H   0  0  0  0  0  0  0  0  0  0  0  0
   39.9820   27.2670   35.8650 H   0  0  0  0  0  0  0  0  0  0  0  0
   38.4090   25.5380   36.7510 H   0  0  0  0  0  0  0  0  0  0  0  0
   37.0190   26.5560   36.0060 H   0  0  0  0  0  0  0  0  0  0  0  0
   37.9080   23.6310   33.2660 C   0  0  0  0  0  0  0  0  0  0  0  0
   38.8550   23.7790   33.8330 H   0  0  0  0  0  0  0  0  0  0  0  0
   37.1990   23.1560   33.9770 H   0  0  0  0  0  0  0  0  0  0  0  0
   38.2080   22.6690   32.1880 C   0  0  0  0  0  0  0  0  0  0  0  0
   37.7680   23.0630   31.2300 H   0  0  0  0  0  0  0  0  0  0  0  0
   39.3180   22.6270   32.0160 H   0  0  0  0  0  0  0  0  0  0  0  0
   37.6700   21.2940   32.3960 C   0  0  0  0  0  3  0  0  0  0  0  0
   36.9120   20.9100   31.1270 C   0  0  0  0  0  2  0  0  0  0  0  0
   35.4920   21.4640   31.1810 C   0  0  0  0  0  2  0  0  0  0  0  0
   34.7610   20.6290   32.2090 C   0  0  0  0  0  2  0  0  0  0  0  0
   35.5830   20.3740   33.4430 C   0  0  0  0  0  2  0  0  0  0  0  0
   36.7430   21.3290   33.5910 C   0  0  0  0  0  2  0  0  0  0  0  0
  1  9  1  0  0  0  0
  2 17  1  0  0  0  0
  2  1  2  0  0  0  0
  3  2  1  0  0  0  0
  4  3  2  0  0  0  0
  4  5  1  0  0  0  0
  5  6  2  0  0  0  0
  6  1  1  0  0  0  0
  7  3  1  0  0  0  0
  8  5  1  0  0  0  0
  9 10  1  0  0  0  0
  9 11  1  0  0  0  0
 10 14  1  0  0  0  0
 10 11  1  0  0  0  0
 11 16  1  0  0  0  0
 11 15  1  0  0  0  0
 12  9  1  0  0  0  0
 13 10  1  0  0  0  0
 17 18  1  0  0  0  0
 17 19  1  0  0  0  0
 20 23  1  0  0  0  0
 20 17  1  0  0  0  0
 21 20  1  0  0  0  0
 22 20  1  0  0  0  0
 23 28  1  0  0  0  0
 24 25  1  0  0  0  0
 24 23  1  0  0  0  0
 25 26  1  0  0  0  0
 26 27  1  0  0  0  0
 27 28  1  0  0  0  0
M  END
>  <minimizedAffinity>
-4.39246702

$$$$

 OpenBabel03272508193D

 28 30  0  0  0  0  0  0  0  0999 V2000
   38.2030   24.2040   33.9550 C   0  0  0  0  0  0  0  0  0  0  0  0
   37.7630   22.9470   33.5410 C   0  0  0  0  0  0  0  0  0  0  0  0
   37.7940   21.9930   34.5310 C   0  0  0  0  0  0  0  0  0  0  0  0
   38.2180   22.2760   35.7790 N   0  0  0  0  0  0  0  0  0  0  0  0
   38.6360   23.4890   36.1530 C   0  0  0  0  0  0  0  0  0  0  0  0
   38.6280   24.4510   35.2390 N   0  0  0  0  0  0  0  0  0  0  0  0
   37.4710   20.9840   34.3090 H   0  0  0  0  0  0  0  0  0  0  0  0
   38.9890   23.8130   37.1120 H   0  0  0  0  0  0  0  0  0  0  0  0
   38.0900   25.3300   32.9360 C   0  0  0  0  0  0  0  0  0  0  0  0
   37.0050   26.2370   32.9410 C   0  0  0  0  0  0  0  0  0  0  0  0
   38.2400   26.6960   33.6970 C   0  0  0  0  0  0  0  0  0  0  0  0
   38.8560   25.3110   32.1120 H   0  0  0  0  0  0  0  0  0  0  0  0
   36.0820   25.9740   33.5300 H   0  0  0  0  0  0  0  0  0  0  0  0
   36.7420   26.8100   32.0400 H   0  0  0  0  0  0  0  0  0  0  0  0
   38.8380   27.4790   33.2280 H   0  0  0  0  0  0  0  0  0  0  0  0
   38.0980   26.7060   34.7700 H   0  0  0  0  0  0  0  0  0  0  0  0
   37.3440   22.6770   32.1560 C   0  0  0  0  0  0  0  0  0  0  0  0
   37.6870   23.4740   31.4570 H   0  0  0  0  0  0  0  0  0  0  0  0
   37.8570   21.7470   31.8300 H   0  0  0  0  0  0  0  0  0  0  0  0
   35.8930   22.5180   31.9350 C   0  0  0  0  0  0  0  0  0  0  0  0
   35.3880   22.4610   32.9390 H   0  0  0  0  0  0  0  0  0  0  0  0
   35.4820   23.4390   31.4410 H   0  0  0  0  0  0  0  0  0  0  0  0
   35.4990   21.3030   31.1650 C   0  0  0  0  0  3  0  0  0  0  0  0
   34.6270   20.4500   32.0840 C   0  0  0  0  0  2  0  0  0  0  0  0
   35.5070   19.5850   32.9800 C   0  0  0  0  0  2  0  0  0  0  0  0
   36.0930   18.5190   32.0800 C   0  0  0  0  0  2  0  0  0  0  0  0
   36.5650   19.0670   30.7610 C   0  0  0  0  0  2  0  0  0  0  0  0
   36.7600   20.5640   30.7760 C   0  0  0  0  0  2  0  0  0  0  0  0
  1  6  1  0  0  0  0
  2  1  2  0  0  0  0
  2  3  1  0  0  0  0
  3  4  2  0  0  0  0
  4  5  1  0  0  0  0
  5  8  1  0  0  0  0
  6  5  2  0  0  0  0
  7  3  1  0  0  0  0
  9 10  1  0  0  0  0
  9 11  1  0  0  0  0
  9  1  1  0  0  0  0
 10 13  1  0  0  0  0
 10 11  1  0  0  0  0
 11 16  1  0  0  0  0
 12  9  1  0  0  0  0
 14 10  1  0  0  0  0
 15 11  1  0  0  0  0
 17  2  1  0  0  0  0
 18 17  1  0  0  0  0
 19 17  1  0  0  0  0
 20 17  1  0  0  0  0
 20 21  1  0  0  0  0
 22 20  1  0  0  0  0
 23 20  1  0  0  0  0
 23 24  1  0  0  0  0
 24 25  1  0  0  0  0
 26 25  1  0  0  0  0
 27 28  1  0  0  0  0
 27 26  1  0  0  0  0
 28 23  1  0  0  0  0
M  END
>  <minimizedAffinity>
-4.35070133

$$$$
