
 OpenBabel03272503503D

 34 36  0  0  1  0  0  0  0  0999 V2000
   33.2250   27.3040   45.8460 C   0  0  1  0  0  0  0  0  0  0  0  0
   33.9160   27.4570   47.2190 C   0  0  2  0  0  0  0  0  0  0  0  0
   33.7500   26.2330   47.7870 O   0  0  0  0  0  0  0  0  0  0  0  0
   34.0780   25.3350   46.7860 C   0  0  0  0  0  0  0  0  0  0  0  0
   33.6160   25.9030   45.4800 C   0  0  2  0  0  0  0  0  0  0  0  0
   33.7130   28.0100   45.1570 H   0  0  0  0  0  0  0  0  0  0  0  0
   34.9720   27.7640   47.0000 H   0  0  0  0  0  0  0  0  0  0  0  0
   33.4950   24.4070   46.9840 H   0  0  0  0  0  0  0  0  0  0  0  0
   35.1750   25.1880   46.8370 H   0  0  0  0  0  0  0  0  0  0  0  0
   32.7810   25.3210   45.0430 H   0  0  0  0  0  0  0  0  0  0  0  0
   31.8660   27.5120   45.9680 O   0  0  0  0  0  0  0  0  0  0  0  0
   31.5670   28.0440   45.1730 H   0  0  0  0  0  0  0  0  0  0  0  0
   33.2810   28.5100   47.8110 O   0  0  0  0  0  0  0  0  0  0  0  0
   35.3410   29.8090   46.7920 O   0  0  0  0  0  0  0  0  0  0  0  0
   34.0780   29.9810   47.6220 P   0  0  1  0  0  0  0  0  0  0  0  0
   33.1130   31.0530   46.7350 O   0  0  0  0  0  0  0  0  0  0  0  0
   32.1560   30.9080   46.9840 H   0  0  0  0  0  0  0  0  0  0  0  0
   34.3690   30.5870   49.1900 O   0  0  0  0  0  0  0  0  0  0  0  0
   35.6100   30.4840   49.7970 C   0  0  0  0  0  0  0  0  0  0  0  0
   35.9610   29.4720   50.7170 C   0  0  0  0  0  0  0  0  0  0  0  0
   37.2440   29.4930   51.2470 C   0  0  0  0  0  0  0  0  0  0  0  0
   38.0990   30.4830   50.8570 N   0  0  0  0  0  0  0  0  0  0  0  0
   37.7360   31.4460   49.9690 C   0  0  0  0  0  0  0  0  0  0  0  0
   36.4790   31.4430   49.4360 N   0  0  0  0  0  0  0  0  0  0  0  0
   35.2040   28.7380   50.9550 H   0  0  0  0  0  0  0  0  0  0  0  0
   37.5210   28.7220   51.9520 H   0  0  0  0  0  0  0  0  0  0  0  0
   38.4580   32.2040   49.6990 H   0  0  0  0  0  0  0  0  0  0  0  0
   34.6650   25.9290   44.5600 O   0  0  0  0  0  0  0  0  0  0  0  0
   34.2670   25.5880   43.2840 C   0  0  0  0  0  3  0  0  0  0  0  0
   35.3860   25.7530   42.2750 C   0  0  0  0  0  2  0  0  0  0  0  0
   36.3490   24.5890   42.4340 C   0  0  0  0  0  2  0  0  0  0  0  0
   35.7400   23.2840   42.0140 C   0  0  0  0  0  2  0  0  0  0  0  0
   34.2400   23.4910   41.9010 C   0  0  0  0  0  2  0  0  0  0  0  0
   33.8260   24.1390   43.2150 C   0  0  0  0  0  2  0  0  0  0  0  0
  1  6  1  6  0  0  0
  1 11  1  0  0  0  0
  1  2  1  0  0  0  0
  2  7  1  6  0  0  0
  2  3  1  0  0  0  0
  2 13  1  0  0  0  0
  4  9  1  0  0  0  0
  4  8  1  0  0  0  0
  4  3  1  0  0  0  0
  5 10  1  6  0  0  0
  5  1  1  0  0  0  0
  5  4  1  0  0  0  0
 12 11  1  0  0  0  0
 15 14  2  6  0  0  0
 15 13  1  0  0  0  0
 15 18  1  0  0  0  0
 16 17  1  0  0  0  0
 16 15  1  0  0  0  0
 18 19  1  0  0  0  0
 19 20  1  0  0  0  0
 20 25  1  0  0  0  0
 20 21  2  0  0  0  0
 21 26  1  0  0  0  0
 22 21  1  0  0  0  0
 23 22  2  0  0  0  0
 24 19  2  0  0  0  0
 24 23  1  0  0  0  0
 27 23  1  0  0  0  0
 28  5  1  0  0  0  0
 29 28  1  0  0  0  0
 30 31  1  0  0  0  0
 30 29  1  0  0  0  0
 32 31  1  0  0  0  0
 33 32  1  0  0  0  0
 33 34  1  0  0  0  0
 34 29  1  0  0  0  0
M  END
>  <minimizedAffinity>
-3.99106026

>  <minimizedRMSD>
0.269386858

$$$$
