
 OpenBabel03272506393D

 34 36  0  0  1  0  0  0  0  0999 V2000
   34.4950   29.2360   50.0890 O   0  0  0  0  0  0  0  0  0  0  0  0
   34.3430   29.3710   48.8680 C   0  0  0  0  0  0  0  0  0  0  0  0
   35.1560   30.2870   48.0970 C   0  0  2  0  0  0  0  0  0  0  0  0
   34.7170   29.9200   46.6370 C   0  0  0  0  0  0  0  0  0  0  0  0
   33.3090   29.4250   46.8410 C   0  0  0  0  0  0  0  0  0  0  0  0
   33.3750   28.6600   48.0800 N   0  0  0  0  0  0  0  0  0  0  0  0
   34.9060   31.3540   48.2340 H   0  0  0  0  0  0  0  0  0  0  0  0
   34.8040   30.7880   45.9800 H   0  0  0  0  0  0  0  0  0  0  0  0
   35.3290   29.0600   46.3410 H   0  0  0  0  0  0  0  0  0  0  0  0
   32.9580   28.8100   45.9970 H   0  0  0  0  0  0  0  0  0  0  0  0
   32.6380   30.2820   47.0490 H   0  0  0  0  0  0  0  0  0  0  0  0
   32.6210   27.4570   48.4070 C   0  0  0  0  0  0  0  0  0  0  0  0
   32.8830   27.0760   49.4160 H   0  0  0  0  0  0  0  0  0  0  0  0
   32.8850   26.7020   47.6520 H   0  0  0  0  0  0  0  0  0  0  0  0
   31.1480   27.7010   48.2980 C   0  0  0  0  0  0  0  0  0  0  0  0
   30.5370   26.4650   47.6250 C   0  0  0  0  0  0  0  0  0  0  0  0
   29.1070   26.6690   47.2460 C   0  0  0  0  0  0  0  0  0  0  0  0
   28.5320   27.8050   48.0510 C   0  0  0  0  0  0  0  0  0  0  0  0
   28.9680   27.6620   49.5020 C   0  0  0  0  0  0  0  0  0  0  0  0
   30.4610   27.8190   49.6440 C   0  0  0  0  0  0  0  0  0  0  0  0
   36.5550   30.0200   48.1450 O   0  0  0  0  0  0  0  0  0  0  0  0
   37.4170   31.1120   48.2310 C   0  0  0  0  0  0  0  0  0  0  0  0
   37.5840   31.6760   49.4840 C   0  0  0  0  0  0  0  0  0  0  0  0
   38.4350   32.7650   49.6030 C   0  0  0  0  0  0  0  0  0  0  0  0
   39.0650   33.2290   48.4910 N   0  0  0  0  0  0  0  0  0  0  0  0
   38.8920   32.6730   47.2830 C   0  0  0  0  0  0  0  0  0  0  0  0
   38.0760   31.6280   47.1710 N   0  0  0  0  0  0  0  0  0  0  0  0
   40.4100   32.2170   45.5160 C   0  0  0  0  0  0  0  0  0  0  0  0
   40.6140   31.0250   45.8640 O   0  0  0  0  0  0  0  0  0  0  0  0
   39.5640   33.1850   46.1330 N   0  0  0  0  0  0  0  0  0  0  0  0
   37.1170   31.3540   50.3920 H   0  0  0  0  0  0  0  0  0  0  0  0
   38.6010   33.2370   50.5480 H   0  0  0  0  0  0  0  0  0  0  0  0
   41.0220   32.3590   44.6340 H   0  0  0  0  0  0  0  0  0  0  0  0
   39.5320   34.1280   45.6870 H   0  0  0  0  0  0  0  0  0  0  0  0
  2  1  2  0  0  0  0
  3 21  1  0  0  0  0
  3  7  1  1  0  0  0
  3  2  1  0  0  0  0
  4  5  1  0  0  0  0
  4  3  1  0  0  0  0
  5 11  1  0  0  0  0
  5  6  1  0  0  0  0
  6 12  1  0  0  0  0
  6  2  1  0  0  0  0
  8  4  1  0  0  0  0
  9  4  1  0  0  0  0
 10  5  1  0  0  0  0
 12 13  1  0  0  0  0
 14 12  1  0  0  0  0
 15 12  1  0  0  0  0
 15 20  1  0  0  0  0
 16 15  1  0  0  0  0
 17 16  1  0  0  0  0
 17 18  1  0  0  0  0
 18 19  1  0  0  0  0
 19 20  1  0  0  0  0
 21 22  1  0  0  0  0
 22 23  1  0  0  0  0
 23 24  2  0  0  0  0
 23 31  1  0  0  0  0
 24 32  1  0  0  0  0
 25 24  1  0  0  0  0
 26 25  2  0  0  0  0
 27 26  1  0  0  0  0
 27 22  2  0  0  0  0
 28 29  2  0  0  0  0
 28 30  1  0  0  0  0
 30 26  1  0  0  0  0
 33 28  1  0  0  0  0
 34 30  1  0  0  0  0
M  END
>  <minimizedAffinity>
-6.21717358

>  <minimizedRMSD>
1.51727092

$$$$
