
 OpenBabel03272508313D

 29 31  0  0  1  0  0  0  0  0999 V2000
   39.8290   24.9360   34.9300 N   0  0  0  0  0  0  0  0  0  0  0  0
   41.0740   24.3700   34.4170 C   0  0  0  0  0  0  0  0  0  0  0  0
   42.0810   25.4060   34.0820 C   0  0  0  0  0  0  0  0  0  0  0  0
   41.8130   26.6330   34.7600 N   0  0  0  0  0  0  0  0  0  0  0  0
   40.5560   27.1520   34.2020 C   0  0  0  0  0  0  0  0  0  0  0  0
   39.4780   26.3300   34.8380 C   0  0  1  0  0  0  0  0  0  0  0  0
   41.4940   23.7420   35.2310 H   0  0  0  0  0  0  0  0  0  0  0  0
   40.8490   23.6730   33.5690 H   0  0  0  0  0  0  0  0  0  0  0  0
   43.0970   25.0690   34.3650 H   0  0  0  0  0  0  0  0  0  0  0  0
   42.1180   25.6230   32.9990 H   0  0  0  0  0  0  0  0  0  0  0  0
   41.7570   26.5470   35.8000 H   0  0  0  0  0  0  0  0  0  0  0  0
   40.5010   28.2120   34.5520 H   0  0  0  0  0  0  0  0  0  0  0  0
   40.6280   27.0440   33.1170 H   0  0  0  0  0  0  0  0  0  0  0  0
   39.3590   26.7160   35.8770 H   0  0  0  0  0  0  0  0  0  0  0  0
   38.4100   24.3000   36.8620 C   0  0  0  0  0  0  0  0  0  0  0  0
   38.8870   24.0630   35.5670 C   0  0  0  0  0  0  0  0  0  0  0  0
   38.4100   22.9350   34.9090 C   0  0  0  0  0  0  0  0  0  0  0  0
   37.5040   22.1270   35.5690 N   0  0  0  0  0  0  0  0  0  0  0  0
   37.0850   22.4070   36.8070 C   0  0  0  0  0  0  0  0  0  0  0  0
   37.5300   23.4990   37.4800 N   0  0  0  0  0  0  0  0  0  0  0  0
   38.7750   25.1880   37.4000 H   0  0  0  0  0  0  0  0  0  0  0  0
   38.7340   22.6860   33.9040 H   0  0  0  0  0  0  0  0  0  0  0  0
   36.3780   21.7900   37.3400 H   0  0  0  0  0  0  0  0  0  0  0  0
   38.1570   26.5240   34.1150 C   0  0  2  0  0  3  0  0  0  0  0  0
   38.3490   27.1440   32.7690 C   0  0  0  0  0  2  0  0  0  0  0  0
   36.9420   27.1930   32.1580 C   0  0  0  0  0  2  0  0  0  0  0  0
   36.2420   28.3130   32.8690 C   0  0  0  0  0  3  0  0  0  0  0  0
   36.4620   28.3640   34.3440 C   0  0  0  0  0  3  0  0  0  0  0  0
   37.1320   27.1940   34.9590 C   0  0  0  0  0  2  0  0  0  0  0  0
  1 16  1  0  0  0  0
  2  1  1  0  0  0  0
  2  7  1  0  0  0  0
  3  9  1  0  0  0  0
  3  2  1  0  0  0  0
  3  4  1  0  0  0  0
  4 11  1  0  0  0  0
  5 12  1  0  0  0  0
  5  4  1  0  0  0  0
  5  6  1  0  0  0  0
  6  1  1  0  0  0  0
  6 14  1  1  0  0  0
  8  2  1  0  0  0  0
 10  3  1  0  0  0  0
 13  5  1  0  0  0  0
 15 21  1  0  0  0  0
 15 20  1  0  0  0  0
 16 15  2  0  0  0  0
 17 16  1  0  0  0  0
 17 18  2  0  0  0  0
 18 19  1  0  0  0  0
 19 23  1  0  0  0  0
 19 20  2  0  0  0  0
 22 17  1  0  0  0  0
 24 25  1  6  0  0  0
 24  6  1  0  0  0  0
 24 29  1  0  0  0  0
 26 25  1  0  0  0  0
 26 27  1  0  0  0  0
 27 28  2  0  0  0  0
 28 29  1  0  0  0  0
M  END
>  <minimizedAffinity>
-4.71759272

$$$$

 OpenBabel03272508313D

 29 31  0  0  1  0  0  0  0  0999 V2000
   36.7510   24.3080   31.6680 N   0  0  0  0  0  0  0  0  0  0  0  0
   35.3570   24.2150   31.2410 C   0  0  0  0  0  0  0  0  0  0  0  0
   34.8080   25.5140   30.7820 C   0  0  0  0  0  0  0  0  0  0  0  0
   35.8490   26.4180   30.4110 N   0  0  0  0  0  0  0  0  0  0  0  0
   36.5770   26.7450   31.6460 C   0  0  0  0  0  0  0  0  0  0  0  0
   37.4350   25.5490   31.9200 C   0  0  1  0  0  0  0  0  0  0  0  0
   35.3380   23.5160   30.3780 H   0  0  0  0  0  0  0  0  0  0  0  0
   34.7480   23.7310   32.0480 H   0  0  0  0  0  0  0  0  0  0  0  0
   34.1460   25.3710   29.9060 H   0  0  0  0  0  0  0  0  0  0  0  0
   34.1940   26.0090   31.5560 H   0  0  0  0  0  0  0  0  0  0  0  0
   36.4970   26.0520   29.6780 H   0  0  0  0  0  0  0  0  0  0  0  0
   37.2060   27.6300   31.3840 H   0  0  0  0  0  0  0  0  0  0  0  0
   35.8220   26.9460   32.4100 H   0  0  0  0  0  0  0  0  0  0  0  0
   38.2950   25.6090   31.2120 H   0  0  0  0  0  0  0  0  0  0  0  0
   37.1320   22.1350   32.8020 C   0  0  0  0  0  0  0  0  0  0  0  0
   37.4960   23.0980   31.8530 C   0  0  0  0  0  0  0  0  0  0  0  0
   38.6240   22.8370   31.0830 C   0  0  0  0  0  0  0  0  0  0  0  0
   39.3070   21.6560   31.3020 N   0  0  0  0  0  0  0  0  0  0  0  0
   38.9080   20.7750   32.2240 C   0  0  0  0  0  0  0  0  0  0  0  0
   37.8120   20.9960   32.9940 N   0  0  0  0  0  0  0  0  0  0  0  0
   36.2410   22.3230   33.4210 H   0  0  0  0  0  0  0  0  0  0  0  0
   38.9690   23.5360   30.3280 H   0  0  0  0  0  0  0  0  0  0  0  0
   39.4260   19.8460   32.4110 H   0  0  0  0  0  0  0  0  0  0  0  0
   37.9930   25.6010   33.3320 C   0  0  2  0  0  3  0  0  0  0  0  0
   37.1590   26.4620   34.2250 C   0  0  0  0  0  2  0  0  0  0  0  0
   37.8120   26.3370   35.6070 C   0  0  0  0  0  2  0  0  0  0  0  0
   39.0610   27.1650   35.5310 C   0  0  0  0  0  3  0  0  0  0  0  0
   39.8470   27.0110   34.2720 C   0  0  0  0  0  3  0  0  0  0  0  0
   39.4480   25.9070   33.3660 C   0  0  0  0  0  2  0  0  0  0  0  0
  1 16  1  0  0  0  0
  1  6  1  0  0  0  0
  2  1  1  0  0  0  0
  2  8  1  0  0  0  0
  3  2  1  0  0  0  0
  3 10  1  0  0  0  0
  4  3  1  0  0  0  0
  4  5  1  0  0  0  0
  5  6  1  0  0  0  0
  5 13  1  0  0  0  0
  6 14  1  6  0  0  0
  6 24  1  0  0  0  0
  7  2  1  0  0  0  0
  9  3  1  0  0  0  0
 11  4  1  0  0  0  0
 12  5  1  0  0  0  0
 15 20  1  0  0  0  0
 15 21  1  0  0  0  0
 16 15  2  0  0  0  0
 17 18  2  0  0  0  0
 17 16  1  0  0  0  0
 18 19  1  0  0  0  0
 19 23  1  0  0  0  0
 19 20  2  0  0  0  0
 22 17  1  0  0  0  0
 24 29  1  6  0  0  0
 24 25  1  0  0  0  0
 25 26  1  0  0  0  0
 27 26  1  0  0  0  0
 28 27  2  0  0  0  0
 29 28  1  0  0  0  0
M  END
>  <minimizedAffinity>
-4.62340546

$$$$

 OpenBabel03272508313D

 29 31  0  0  1  0  0  0  0  0999 V2000
   39.2630   22.3280   35.6130 N   0  0  0  0  0  0  0  0  0  0  0  0
   40.4500   21.6440   36.1180 C   0  0  0  0  0  0  0  0  0  0  0  0
   40.7390   21.9660   37.5360 C   0  0  0  0  0  0  0  0  0  0  0  0
   39.5790   22.4590   38.2070 N   0  0  0  0  0  0  0  0  0  0  0  0
   39.2640   23.7580   37.5940 C   0  0  0  0  0  0  0  0  0  0  0  0
   38.6170   23.4250   36.2850 C   0  0  1  0  0  0  0  0  0  0  0  0
   40.2370   20.5560   36.0560 H   0  0  0  0  0  0  0  0  0  0  0  0
   41.3140   21.8320   35.4300 H   0  0  0  0  0  0  0  0  0  0  0  0
   41.0940   21.0680   38.0770 H   0  0  0  0  0  0  0  0  0  0  0  0
   41.5360   22.7250   37.6420 H   0  0  0  0  0  0  0  0  0  0  0  0
   38.7560   21.8170   38.1720 H   0  0  0  0  0  0  0  0  0  0  0  0
   38.5290   24.2340   38.2870 H   0  0  0  0  0  0  0  0  0  0  0  0
   40.2090   24.3000   37.5060 H   0  0  0  0  0  0  0  0  0  0  0  0
   37.5740   23.1070   36.5220 H   0  0  0  0  0  0  0  0  0  0  0  0
   37.3250   21.6400   34.2270 C   0  0  0  0  0  0  0  0  0  0  0  0
   38.6940   21.8930   34.3710 C   0  0  0  0  0  0  0  0  0  0  0  0
   39.4970   21.7050   33.2520 C   0  0  0  0  0  0  0  0  0  0  0  0
   38.8970   21.2840   32.0800 N   0  0  0  0  0  0  0  0  0  0  0  0
   37.5820   21.0600   32.0050 C   0  0  0  0  0  0  0  0  0  0  0  0
   36.7680   21.2320   33.0780 N   0  0  0  0  0  0  0  0  0  0  0  0
   36.6710   21.7830   35.1020 H   0  0  0  0  0  0  0  0  0  0  0  0
   40.5670   21.8810   33.2860 H   0  0  0  0  0  0  0  0  0  0  0  0
   37.0940   20.7310   31.1000 H   0  0  0  0  0  0  0  0  0  0  0  0
   38.5380   24.6540   35.3960 C   0  0  2  0  0  3  0  0  0  0  0  0
   39.8940   25.1240   34.9810 C   0  0  0  0  0  2  0  0  0  0  0  0
   39.6250   26.3050   34.0390 C   0  0  0  0  0  2  0  0  0  0  0  0
   39.2140   27.4370   34.9320 C   0  0  0  0  0  3  0  0  0  0  0  0
   38.2670   27.0700   36.0250 C   0  0  0  0  0  3  0  0  0  0  0  0
   37.6650   25.7180   35.9610 C   0  0  0  0  0  2  0  0  0  0  0  0
  1  2  1  0  0  0  0
  1  6  1  0  0  0  0
  2  3  1  0  0  0  0
  3 10  1  0  0  0  0
  3  9  1  0  0  0  0
  3  4  1  0  0  0  0
  5  4  1  0  0  0  0
  5 12  1  0  0  0  0
  6 14  1  1  0  0  0
  6  5  1  0  0  0  0
  7  2  1  0  0  0  0
  8  2  1  0  0  0  0
 11  4  1  0  0  0  0
 13  5  1  0  0  0  0
 15 16  1  0  0  0  0
 15 21  1  0  0  0  0
 16  1  1  0  0  0  0
 17 22  1  0  0  0  0
 17 16  2  0  0  0  0
 18 17  1  0  0  0  0
 19 18  2  0  0  0  0
 19 20  1  0  0  0  0
 20 15  2  0  0  0  0
 23 19  1  0  0  0  0
 24 25  1  1  0  0  0
 24 29  1  0  0  0  0
 24  6  1  0  0  0  0
 26 27  1  0  0  0  0
 26 25  1  0  0  0  0
 27 28  2  0  0  0  0
 29 28  1  0  0  0  0
M  END
>  <minimizedAffinity>
-4.58899784

$$$$

 OpenBabel03272508313D

 29 31  0  0  1  0  0  0  0  0999 V2000
   36.4870   27.0870   32.3440 N   0  0  0  0  0  0  0  0  0  0  0  0
   35.8620   26.5880   31.1210 C   0  0  0  0  0  0  0  0  0  0  0  0
   36.0120   25.1220   30.9570 C   0  0  0  0  0  0  0  0  0  0  0  0
   36.2880   24.4820   32.2030 N   0  0  0  0  0  0  0  0  0  0  0  0
   37.6210   24.9410   32.6210 C   0  0  0  0  0  0  0  0  0  0  0  0
   37.4090   26.3270   33.1470 C   0  0  1  0  0  0  0  0  0  0  0  0
   34.7770   26.8080   31.2090 H   0  0  0  0  0  0  0  0  0  0  0  0
   36.2300   27.1780   30.2430 H   0  0  0  0  0  0  0  0  0  0  0  0
   35.0880   24.6780   30.5390 H   0  0  0  0  0  0  0  0  0  0  0  0
   36.8250   24.8570   30.2570 H   0  0  0  0  0  0  0  0  0  0  0  0
   35.5770   24.6630   32.9470 H   0  0  0  0  0  0  0  0  0  0  0  0
   37.9200   24.2490   33.4450 H   0  0  0  0  0  0  0  0  0  0  0  0
   38.2620   24.8850   31.7380 H   0  0  0  0  0  0  0  0  0  0  0  0
   36.9580   26.2140   34.1610 H   0  0  0  0  0  0  0  0  0  0  0  0
   35.7800   28.6900   34.0990 C   0  0  0  0  0  0  0  0  0  0  0  0
   36.1730   28.4140   32.7840 C   0  0  0  0  0  0  0  0  0  0  0  0
   36.2500   29.4890   31.9050 C   0  0  0  0  0  0  0  0  0  0  0  0
   35.9360   30.7480   32.3810 N   0  0  0  0  0  0  0  0  0  0  0  0
   35.5680   30.9470   33.6500 C   0  0  0  0  0  0  0  0  0  0  0  0
   35.4810   29.9220   34.5360 N   0  0  0  0  0  0  0  0  0  0  0  0
   35.7140   27.8530   34.8120 H   0  0  0  0  0  0  0  0  0  0  0  0
   36.5470   29.3540   30.8700 H   0  0  0  0  0  0  0  0  0  0  0  0
   35.3180   31.9220   34.0430 H   0  0  0  0  0  0  0  0  0  0  0  0
   38.7350   27.0500   33.3060 C   0  0  2  0  0  3  0  0  0  0  0  0
   39.7420   26.5850   32.3040 C   0  0  0  0  0  2  0  0  0  0  0  0
   40.9750   27.4630   32.5560 C   0  0  0  0  0  2  0  0  0  0  0  0
   41.5890   26.9310   33.8170 C   0  0  0  0  0  3  0  0  0  0  0  0
   40.6210   26.6040   34.9040 C   0  0  0  0  0  3  0  0  0  0  0  0
   39.2230   27.0570   34.7110 C   0  0  0  0  0  2  0  0  0  0  0  0
  1 16  1  0  0  0  0
  1  6  1  0  0  0  0
  2  7  1  0  0  0  0
  2  1  1  0  0  0  0
  3  2  1  0  0  0  0
  3  4  1  0  0  0  0
  4  5  1  0  0  0  0
  4 11  1  0  0  0  0
  5  6  1  0  0  0  0
  5 12  1  0  0  0  0
  6 24  1  0  0  0  0
  6 14  1  1  0  0  0
  8  2  1  0  0  0  0
  9  3  1  0  0  0  0
 10  3  1  0  0  0  0
 13  5  1  0  0  0  0
 15 20  1  0  0  0  0
 15 21  1  0  0  0  0
 16 15  2  0  0  0  0
 17 18  2  0  0  0  0
 17 16  1  0  0  0  0
 18 19  1  0  0  0  0
 19 23  1  0  0  0  0
 19 20  2  0  0  0  0
 22 17  1  0  0  0  0
 24 25  1  6  0  0  0
 24 29  1  0  0  0  0
 25 26  1  0  0  0  0
 26 27  1  0  0  0  0
 27 28  2  0  0  0  0
 29 28  1  0  0  0  0
M  END
>  <minimizedAffinity>
-4.48749352

$$$$

 OpenBabel03272508313D

 29 31  0  0  1  0  0  0  0  0999 V2000
   36.1570   29.0220   32.1640 N   0  0  0  0  0  0  0  0  0  0  0  0
   36.4000   29.7180   30.9020 C   0  0  0  0  0  0  0  0  0  0  0  0
   36.8170   28.8040   29.8120 C   0  0  0  0  0  0  0  0  0  0  0  0
   36.4330   27.4570   30.0850 N   0  0  0  0  0  0  0  0  0  0  0  0
   37.2250   27.0250   31.2470 C   0  0  0  0  0  0  0  0  0  0  0  0
   36.5660   27.6670   32.4280 C   0  0  1  0  0  0  0  0  0  0  0  0
   35.4330   30.1790   30.6060 H   0  0  0  0  0  0  0  0  0  0  0  0
   37.1100   30.5670   31.0720 H   0  0  0  0  0  0  0  0  0  0  0  0
   36.3560   29.1060   28.8510 H   0  0  0  0  0  0  0  0  0  0  0  0
   37.9090   28.8150   29.6480 H   0  0  0  0  0  0  0  0  0  0  0  0
   35.4110   27.3260   30.2580 H   0  0  0  0  0  0  0  0  0  0  0  0
   37.1040   25.9150   31.2830 H   0  0  0  0  0  0  0  0  0  0  0  0
   38.2510   27.3550   31.0650 H   0  0  0  0  0  0  0  0  0  0  0  0
   35.6460   27.0730   32.6380 H   0  0  0  0  0  0  0  0  0  0  0  0
   34.2680   29.2480   33.7550 C   0  0  0  0  0  0  0  0  0  0  0  0
   35.4710   29.7170   33.2130 C   0  0  0  0  0  0  0  0  0  0  0  0
   35.9860   30.8980   33.7340 C   0  0  0  0  0  0  0  0  0  0  0  0
   35.2840   31.5290   34.7450 N   0  0  0  0  0  0  0  0  0  0  0  0
   34.1400   31.0300   35.2210 C   0  0  0  0  0  0  0  0  0  0  0  0
   33.6070   29.8790   34.7360 N   0  0  0  0  0  0  0  0  0  0  0  0
   33.8440   28.3130   33.3560 H   0  0  0  0  0  0  0  0  0  0  0  0
   36.9140   31.3240   33.3650 H   0  0  0  0  0  0  0  0  0  0  0  0
   33.5760   31.5060   36.0100 H   0  0  0  0  0  0  0  0  0  0  0  0
   37.4610   27.5850   33.6530 C   0  0  2  0  0  3  0  0  0  0  0  0
   38.8230   27.0750   33.3100 C   0  0  0  0  0  2  0  0  0  0  0  0
   39.6040   27.1320   34.6290 C   0  0  0  0  0  2  0  0  0  0  0  0
   39.0880   25.9830   35.4430 C   0  0  0  0  0  3  0  0  0  0  0  0
   37.6080   25.7990   35.4120 C   0  0  0  0  0  3  0  0  0  0  0  0
   36.8120   26.8860   34.7940 C   0  0  0  0  0  2  0  0  0  0  0  0
  1  6  1  0  0  0  0
  1 16  1  0  0  0  0
  2  8  1  0  0  0  0
  2  1  1  0  0  0  0
  3  4  1  0  0  0  0
  3  2  1  0  0  0  0
  4 11  1  0  0  0  0
  4  5  1  0  0  0  0
  5 12  1  0  0  0  0
  5  6  1  0  0  0  0
  6 14  1  1  0  0  0
  6 24  1  0  0  0  0
  7  2  1  0  0  0  0
  9  3  1  0  0  0  0
 10  3  1  0  0  0  0
 13  5  1  0  0  0  0
 15 20  1  0  0  0  0
 16 17  1  0  0  0  0
 16 15  2  0  0  0  0
 17 18  2  0  0  0  0
 18 19  1  0  0  0  0
 19 23  1  0  0  0  0
 20 19  2  0  0  0  0
 21 15  1  0  0  0  0
 22 17  1  0  0  0  0
 24 25  1  6  0  0  0
 24 29  1  0  0  0  0
 25 26  1  0  0  0  0
 26 27  1  0  0  0  0
 28 27  2  0  0  0  0
 29 28  1  0  0  0  0
M  END
>  <minimizedAffinity>
-4.42265558

$$$$

 OpenBabel03272508313D

 29 31  0  0  1  0  0  0  0  0999 V2000
   39.3670   25.3540   33.3140 N   0  0  0  0  0  0  0  0  0  0  0  0
   39.6470   26.7670   33.0670 C   0  0  0  0  0  0  0  0  0  0  0  0
   40.9510   27.2000   33.6230 C   0  0  0  0  0  0  0  0  0  0  0  0
   41.8240   26.0890   33.8330 N   0  0  0  0  0  0  0  0  0  0  0  0
   41.2210   25.2820   34.9040 C   0  0  0  0  0  0  0  0  0  0  0  0
   40.0990   24.5380   34.2470 C   0  0  1  0  0  0  0  0  0  0  0  0
   39.6910   26.8910   31.9650 H   0  0  0  0  0  0  0  0  0  0  0  0
   38.7820   27.3880   33.4170 H   0  0  0  0  0  0  0  0  0  0  0  0
   41.4540   27.9080   32.9360 H   0  0  0  0  0  0  0  0  0  0  0  0
   40.8440   27.7290   34.5870 H   0  0  0  0  0  0  0  0  0  0  0  0
   42.0000   25.5120   32.9800 H   0  0  0  0  0  0  0  0  0  0  0  0
   42.0270   24.5780   35.2240 H   0  0  0  0  0  0  0  0  0  0  0  0
   40.9050   25.9810   35.6820 H   0  0  0  0  0  0  0  0  0  0  0  0
   40.5680   23.7070   33.6700 H   0  0  0  0  0  0  0  0  0  0  0  0
   38.4810   23.5350   31.8810 C   0  0  0  0  0  0  0  0  0  0  0  0
   38.3000   24.7280   32.5910 C   0  0  0  0  0  0  0  0  0  0  0  0
   37.0300   25.2930   32.5710 C   0  0  0  0  0  0  0  0  0  0  0  0
   36.0370   24.6480   31.8580 N   0  0  0  0  0  0  0  0  0  0  0  0
   36.2730   23.5100   31.2000 C   0  0  0  0  0  0  0  0  0  0  0  0
   37.5000   22.9290   31.1960 N   0  0  0  0  0  0  0  0  0  0  0  0
   39.4790   23.0700   31.8840 H   0  0  0  0  0  0  0  0  0  0  0  0
   36.8130   26.2170   33.0980 H   0  0  0  0  0  0  0  0  0  0  0  0
   35.5120   22.9890   30.6370 H   0  0  0  0  0  0  0  0  0  0  0  0
   39.1810   23.9220   35.2870 C   0  0  2  0  0  3  0  0  0  0  0  0
   38.5820   24.9600   36.1810 C   0  0  0  0  0  2  0  0  0  0  0  0
   37.6360   24.1800   37.1040 C   0  0  0  0  0  2  0  0  0  0  0  0
   38.5300   23.4730   38.0800 C   0  0  0  0  0  3  0  0  0  0  0  0
   39.7450   22.8440   37.4850 C   0  0  0  0  0  3  0  0  0  0  0  0
   39.8080   22.7800   36.0060 C   0  0  0  0  0  2  0  0  0  0  0  0
  1  6  1  0  0  0  0
  2  1  1  0  0  0  0
  2  8  1  0  0  0  0
  2  3  1  0  0  0  0
  3  4  1  0  0  0  0
  3 10  1  0  0  0  0
  4  5  1  0  0  0  0
  5 12  1  0  0  0  0
  5 13  1  0  0  0  0
  6 14  1  6  0  0  0
  6  5  1  0  0  0  0
  6 24  1  0  0  0  0
  7  2  1  0  0  0  0
  9  3  1  0  0  0  0
 11  4  1  0  0  0  0
 15 21  1  0  0  0  0
 15 16  1  0  0  0  0
 16  1  1  0  0  0  0
 17 16  2  0  0  0  0
 17 22  1  0  0  0  0
 18 17  1  0  0  0  0
 19 18  2  0  0  0  0
 20 19  1  0  0  0  0
 20 15  2  0  0  0  0
 23 19  1  0  0  0  0
 24 29  1  1  0  0  0
 24 25  1  0  0  0  0
 25 26  1  0  0  0  0
 26 27  1  0  0  0  0
 28 27  2  0  0  0  0
 29 28  1  0  0  0  0
M  END
>  <minimizedAffinity>
-4.42081594

$$$$

 OpenBabel03272508313D

 29 31  0  0  1  0  0  0  0  0999 V2000
   39.6990   23.2430   36.4490 N   0  0  0  0  0  0  0  0  0  0  0  0
   40.0150   22.9820   37.8510 C   0  0  0  0  0  0  0  0  0  0  0  0
   38.8200   23.0230   38.7270 C   0  0  0  0  0  0  0  0  0  0  0  0
   37.6190   22.8300   37.9800 N   0  0  0  0  0  0  0  0  0  0  0  0
   37.4750   24.0070   37.1100 C   0  0  0  0  0  0  0  0  0  0  0  0
   38.4460   23.7860   35.9930 C   0  0  1  0  0  0  0  0  0  0  0  0
   40.4300   21.9520   37.8940 H   0  0  0  0  0  0  0  0  0  0  0  0
   40.8400   23.6640   38.1840 H   0  0  0  0  0  0  0  0  0  0  0  0
   38.8750   22.2340   39.5020 H   0  0  0  0  0  0  0  0  0  0  0  0
   38.7280   23.9820   39.2690 H   0  0  0  0  0  0  0  0  0  0  0  0
   37.5940   21.9460   37.4250 H   0  0  0  0  0  0  0  0  0  0  0  0
   36.4240   23.9610   36.7340 H   0  0  0  0  0  0  0  0  0  0  0  0
   37.6880   24.8810   37.7300 H   0  0  0  0  0  0  0  0  0  0  0  0
   37.9800   23.0330   35.3140 H   0  0  0  0  0  0  0  0  0  0  0  0
   40.4180   22.1140   34.3610 C   0  0  0  0  0  0  0  0  0  0  0  0
   40.6870   22.9470   35.4540 C   0  0  0  0  0  0  0  0  0  0  0  0
   41.9660   23.4860   35.5430 C   0  0  0  0  0  0  0  0  0  0  0  0
   42.8810   23.1670   34.5570 N   0  0  0  0  0  0  0  0  0  0  0  0
   42.5620   22.3660   33.5370 C   0  0  0  0  0  0  0  0  0  0  0  0
   41.3240   21.8210   33.4170 N   0  0  0  0  0  0  0  0  0  0  0  0
   39.4110   21.6780   34.2720 H   0  0  0  0  0  0  0  0  0  0  0  0
   42.2490   24.1400   36.3610 H   0  0  0  0  0  0  0  0  0  0  0  0
   43.2610   22.1040   32.7560 H   0  0  0  0  0  0  0  0  0  0  0  0
   38.6500   25.0640   35.1980 C   0  0  2  0  0  3  0  0  0  0  0  0
   38.2650   26.2740   35.9860 C   0  0  0  0  0  2  0  0  0  0  0  0
   38.6050   27.4590   35.0730 C   0  0  0  0  0  2  0  0  0  0  0  0
   37.5310   27.4710   34.0260 C   0  0  0  0  0  3  0  0  0  0  0  0
   37.1660   26.1330   33.4760 C   0  0  0  0  0  3  0  0  0  0  0  0
   38.0490   24.9990   33.8390 C   0  0  0  0  0  2  0  0  0  0  0  0
  1  2  1  0  0  0  0
  2  7  1  0  0  0  0
  2  8  1  0  0  0  0
  2  3  1  0  0  0  0
  3 10  1  0  0  0  0
  3  9  1  0  0  0  0
  4  3  1  0  0  0  0
  5 13  1  0  0  0  0
  5  4  1  0  0  0  0
  6 14  1  6  0  0  0
  6  1  1  0  0  0  0
  6  5  1  0  0  0  0
 11  4  1  0  0  0  0
 12  5  1  0  0  0  0
 15 16  1  0  0  0  0
 16 17  2  0  0  0  0
 16  1  1  0  0  0  0
 17 22  1  0  0  0  0
 18 17  1  0  0  0  0
 19 18  2  0  0  0  0
 20 19  1  0  0  0  0
 20 15  2  0  0  0  0
 21 15  1  0  0  0  0
 23 19  1  0  0  0  0
 24 29  1  6  0  0  0
 24 25  1  0  0  0  0
 24  6  1  0  0  0  0
 26 25  1  0  0  0  0
 27 26  1  0  0  0  0
 28 29  1  0  0  0  0
 28 27  2  0  0  0  0
M  END
>  <minimizedAffinity>
-4.37445831

$$$$

 OpenBabel03272508313D

 29 31  0  0  1  0  0  0  0  0999 V2000
   38.3000   23.7250   32.6890 N   0  0  0  0  0  0  0  0  0  0  0  0
   39.2910   24.3550   31.8200 C   0  0  0  0  0  0  0  0  0  0  0  0
   38.7140   24.8280   30.5380 C   0  0  0  0  0  0  0  0  0  0  0  0
   37.3000   25.0000   30.6340 N   0  0  0  0  0  0  0  0  0  0  0  0
   36.7290   23.6570   30.8180 C   0  0  0  0  0  0  0  0  0  0  0  0
   36.9890   23.3170   32.2530 C   0  0  1  0  0  0  0  0  0  0  0  0
   39.6700   25.2440   32.3680 H   0  0  0  0  0  0  0  0  0  0  0  0
   40.1680   23.6700   31.6920 H   0  0  0  0  0  0  0  0  0  0  0  0
   39.1610   25.7970   30.2430 H   0  0  0  0  0  0  0  0  0  0  0  0
   38.9120   24.1300   29.7050 H   0  0  0  0  0  0  0  0  0  0  0  0
   36.9950   25.6470   31.3950 H   0  0  0  0  0  0  0  0  0  0  0  0
   35.6340   23.7820   30.6360 H   0  0  0  0  0  0  0  0  0  0  0  0
   37.2290   23.0040   30.1000 H   0  0  0  0  0  0  0  0  0  0  0  0
   36.2430   23.8890   32.8530 H   0  0  0  0  0  0  0  0  0  0  0  0
   38.1470   24.2940   35.0970 C   0  0  0  0  0  0  0  0  0  0  0  0
   38.6370   23.4910   34.0620 C   0  0  0  0  0  0  0  0  0  0  0  0
   39.4770   22.4400   34.4150 C   0  0  0  0  0  0  0  0  0  0  0  0
   39.7710   22.2590   35.7530 N   0  0  0  0  0  0  0  0  0  0  0  0
   39.2700   23.0610   36.6970 C   0  0  0  0  0  0  0  0  0  0  0  0
   38.4470   24.0970   36.3890 N   0  0  0  0  0  0  0  0  0  0  0  0
   37.4790   25.1320   34.8390 H   0  0  0  0  0  0  0  0  0  0  0  0
   39.8970   21.7740   33.6680 H   0  0  0  0  0  0  0  0  0  0  0  0
   39.4860   22.9380   37.7480 H   0  0  0  0  0  0  0  0  0  0  0  0
   36.7550   21.8380   32.5060 C   0  0  2  0  0  3  0  0  0  0  0  0
   37.4210   20.9880   31.4730 C   0  0  0  0  0  2  0  0  0  0  0  0
   37.1500   19.5460   31.9210 C   0  0  0  0  0  2  0  0  0  0  0  0
   35.7100   19.2920   31.5860 C   0  0  0  0  0  3  0  0  0  0  0  0
   34.7760   20.4070   31.9160 C   0  0  0  0  0  3  0  0  0  0  0  0
   35.3210   21.5140   32.7380 C   0  0  0  0  0  2  0  0  0  0  0  0
  1 16  1  0  0  0  0
  2  7  1  0  0  0  0
  2  1  1  0  0  0  0
  3  4  1  0  0  0  0
  3  2  1  0  0  0  0
  4  5  1  0  0  0  0
  4 11  1  0  0  0  0
  5  6  1  0  0  0  0
  6 24  1  0  0  0  0
  6  1  1  0  0  0  0
  6 14  1  1  0  0  0
  8  2  1  0  0  0  0
  9  3  1  0  0  0  0
 10  3  1  0  0  0  0
 12  5  1  0  0  0  0
 13  5  1  0  0  0  0
 15 20  1  0  0  0  0
 16 17  1  0  0  0  0
 16 15  2  0  0  0  0
 17 18  2  0  0  0  0
 18 19  1  0  0  0  0
 19 23  1  0  0  0  0
 20 19  2  0  0  0  0
 21 15  1  0  0  0  0
 22 17  1  0  0  0  0
 24 25  1  6  0  0  0
 24 29  1  0  0  0  0
 25 26  1  0  0  0  0
 27 28  2  0  0  0  0
 27 26  1  0  0  0  0
 28 29  1  0  0  0  0
M  END
>  <minimizedAffinity>
-4.36441183

$$$$

 OpenBabel03272508313D

 29 31  0  0  1  0  0  0  0  0999 V2000
   38.3990   24.5990   33.4750 N   0  0  0  0  0  0  0  0  0  0  0  0
   37.6820   25.6660   32.7810 C   0  0  0  0  0  0  0  0  0  0  0  0
   38.1130   27.0190   33.2060 C   0  0  0  0  0  0  0  0  0  0  0  0
   39.4080   26.9900   33.8060 N   0  0  0  0  0  0  0  0  0  0  0  0
   39.2680   26.2400   35.0630 C   0  0  0  0  0  0  0  0  0  0  0  0
   39.2020   24.8010   34.6530 C   0  0  1  0  0  0  0  0  0  0  0  0
   37.9240   25.5580   31.7020 H   0  0  0  0  0  0  0  0  0  0  0  0
   36.5780   25.4980   32.8710 H   0  0  0  0  0  0  0  0  0  0  0  0
   38.1500   27.7080   32.3400 H   0  0  0  0  0  0  0  0  0  0  0  0
   37.4170   27.4740   33.9330 H   0  0  0  0  0  0  0  0  0  0  0  0
   40.1540   26.5770   33.2030 H   0  0  0  0  0  0  0  0  0  0  0  0
   40.2090   26.4450   35.6290 H   0  0  0  0  0  0  0  0  0  0  0  0
   38.3650   26.6130   35.5510 H   0  0  0  0  0  0  0  0  0  0  0  0
   40.2460   24.4960   34.4050 H   0  0  0  0  0  0  0  0  0  0  0  0
   37.0830   22.5930   32.8480 C   0  0  0  0  0  0  0  0  0  0  0  0
   38.3060   23.2630   32.9650 C   0  0  0  0  0  0  0  0  0  0  0  0
   39.4470   22.5770   32.5640 C   0  0  0  0  0  0  0  0  0  0  0  0
   39.3020   21.2910   32.0800 N   0  0  0  0  0  0  0  0  0  0  0  0
   38.1050   20.7050   31.9920 C   0  0  0  0  0  0  0  0  0  0  0  0
   36.9690   21.3440   32.3740 N   0  0  0  0  0  0  0  0  0  0  0  0
   36.1660   23.1190   33.1590 H   0  0  0  0  0  0  0  0  0  0  0  0
   40.4320   23.0310   32.6260 H   0  0  0  0  0  0  0  0  0  0  0  0
   37.9690   19.7020   31.6170 H   0  0  0  0  0  0  0  0  0  0  0  0
   38.7260   23.9350   35.8060 C   0  0  2  0  0  3  0  0  0  0  0  0
   38.1070   24.7520   36.8930 C   0  0  0  0  0  2  0  0  0  0  0  0
   37.6190   23.7250   37.9230 C   0  0  0  0  0  2  0  0  0  0  0  0
   38.8580   23.2480   38.6220 C   0  0  0  0  0  3  0  0  0  0  0  0
   40.0240   22.9780   37.7310 C   0  0  0  0  0  3  0  0  0  0  0  0
   39.7640   22.9760   36.2730 C   0  0  0  0  0  2  0  0  0  0  0  0
  1  6  1  0  0  0  0
  2  8  1  0  0  0  0
  2  3  1  0  0  0  0
  2  1  1  0  0  0  0
  3  4  1  0  0  0  0
  3 10  1  0  0  0  0
  4  5  1  0  0  0  0
  5 13  1  0  0  0  0
  5 12  1  0  0  0  0
  6 14  1  6  0  0  0
  6  5  1  0  0  0  0
  6 24  1  0  0  0  0
  7  2  1  0  0  0  0
  9  3  1  0  0  0  0
 11  4  1  0  0  0  0
 15 16  1  0  0  0  0
 15 21  1  0  0  0  0
 16  1  1  0  0  0  0
 17 22  1  0  0  0  0
 17 16  2  0  0  0  0
 18 17  1  0  0  0  0
 19 18  2  0  0  0  0
 19 20  1  0  0  0  0
 20 15  2  0  0  0  0
 23 19  1  0  0  0  0
 24 29  1  1  0  0  0
 24 25  1  0  0  0  0
 25 26  1  0  0  0  0
 26 27  1  0  0  0  0
 28 27  2  0  0  0  0
 29 28  1  0  0  0  0
M  END
>  <minimizedAffinity>
-4.34237051

$$$$
