
 OpenBabel03272510273D

 42 46  0  0  1  0  0  0  0  0999 V2000
   36.2380   30.2090   46.9180 C   0  0  0  0  0  0  0  0  0  0  0  0
   37.0700   30.7820   47.8770 C   0  0  0  0  0  0  0  0  0  0  0  0
   38.0620   31.6980   47.5250 C   0  0  0  0  0  0  0  0  0  0  0  0
   38.1640   31.9980   46.1730 C   0  0  0  0  0  0  0  0  0  0  0  0
   39.0520   32.8570   45.5860 N   0  0  0  0  0  0  0  0  0  0  0  0
   38.7830   32.8250   44.2680 C   0  0  0  0  0  0  0  0  0  0  0  0
   37.7890   32.0020   44.0190 N   0  0  0  0  0  0  0  0  0  0  0  0
   37.3630   31.4550   45.1890 C   0  0  0  0  0  0  0  0  0  0  0  0
   36.3780   30.5400   45.5750 C   0  0  0  0  0  0  0  0  0  0  0  0
   35.4790   29.5080   47.1830 H   0  0  0  0  0  0  0  0  0  0  0  0
   38.6900   32.1270   48.2770 H   0  0  0  0  0  0  0  0  0  0  0  0
   39.7830   33.4160   46.0790 H   0  0  0  0  0  0  0  0  0  0  0  0
   35.7600   30.1240   44.8010 H   0  0  0  0  0  0  0  0  0  0  0  0
   37.4340   30.1290   51.5450 C   0  0  0  0  0  0  0  0  0  0  0  0
   37.7650   30.5920   50.2890 C   0  0  0  0  0  0  0  0  0  0  0  0
   36.8620   30.3650   49.2560 C   0  0  0  0  0  0  0  0  0  0  0  0
   35.7120   29.7040   49.5560 N   0  0  0  0  0  0  0  0  0  0  0  0
   35.4040   29.2590   50.7880 C   0  0  0  0  0  0  0  0  0  0  0  0
   36.2720   29.4790   51.7700 N   0  0  0  0  0  0  0  0  0  0  0  0
   38.1600   30.3210   52.3320 H   0  0  0  0  0  0  0  0  0  0  0  0
   38.6720   31.1130   50.0600 H   0  0  0  0  0  0  0  0  0  0  0  0
   34.4810   28.7420   50.9700 H   0  0  0  0  0  0  0  0  0  0  0  0
   39.5140   33.6010   43.3550 O   0  0  0  0  0  0  0  0  0  0  0  0
   39.6780   31.8740   41.8700 N   0  0  0  0  0  0  0  0  0  0  0  0
   39.3080   33.3010   41.9780 C   0  0  1  0  0  0  0  0  0  0  0  0
   37.9120   33.4500   41.5840 C   0  0  0  0  0  0  0  0  0  0  0  0
   37.7930   33.1190   40.2220 O   0  0  0  0  0  0  0  0  0  0  0  0
   38.2530   31.8800   39.8820 C   0  0  0  0  0  0  0  0  0  0  0  0
   39.6110   31.5710   40.4570 C   0  0  2  0  0  0  0  0  0  0  0  0
   40.6820   31.8490   42.1640 H   0  0  0  0  0  0  0  0  0  0  0  0
   39.9450   33.9140   41.3210 H   0  0  0  0  0  0  0  0  0  0  0  0
   37.0890   32.9730   42.0390 H   0  0  0  0  0  0  0  0  0  0  0  0
   37.6840   34.5610   41.5910 H   0  0  0  0  0  0  0  0  0  0  0  0
   38.3360   31.8610   38.7780 H   0  0  0  0  0  0  0  0  0  0  0  0
   37.5350   31.0580   40.1370 H   0  0  0  0  0  0  0  0  0  0  0  0
   40.3920   32.1710   39.9620 H   0  0  0  0  0  0  0  0  0  0  0  0
   39.8720   30.0840   40.3030 C   0  0  0  0  0  3  0  0  0  0  0  0
   41.0750   29.6330   41.0880 C   0  0  0  0  0  2  0  0  0  0  0  0
   40.7930   28.4910   42.0320 C   0  0  0  0  0  2  0  0  0  0  0  0
   40.1620   27.3070   41.3380 C   0  0  0  0  0  2  0  0  0  0  0  0
   39.0250   27.8060   40.4770 C   0  0  0  0  0  2  0  0  0  0  0  0
   38.7050   29.2580   40.7720 C   0  0  0  0  0  2  0  0  0  0  0  0
  1 10  1  0  0  0  0
  1  2  1  0  0  0  0
  2 16  1  0  0  0  0
  3  2  2  0  0  0  0
  3 11  1  0  0  0  0
  4  3  1  0  0  0  0
  5 12  1  0  0  0  0
  5  4  1  0  0  0  0
  6  5  1  0  0  0  0
  7  6  2  0  0  0  0
  7  8  1  0  0  0  0
  8  9  1  0  0  0  0
  8  4  2  0  0  0  0
  9  1  2  0  0  0  0
 13  9  1  0  0  0  0
 14 19  1  0  0  0  0
 14 20  1  0  0  0  0
 15 14  2  0  0  0  0
 16 17  2  0  0  0  0
 16 15  1  0  0  0  0
 17 18  1  0  0  0  0
 18 22  1  0  0  0  0
 18 19  2  0  0  0  0
 21 15  1  0  0  0  0
 23  6  1  0  0  0  0
 24 25  1  0  0  0  0
 24 30  1  0  0  0  0
 25 31  1  6  0  0  0
 25 23  1  0  0  0  0
 26 33  1  0  0  0  0
 26 25  1  0  0  0  0
 26 32  1  0  0  0  0
 27 26  1  0  0  0  0
 28 35  1  0  0  0  0
 28 27  1  0  0  0  0
 28 29  1  0  0  0  0
 29 36  1  6  0  0  0
 29 24  1  0  0  0  0
 34 28  1  0  0  0  0
 37 29  1  0  0  0  0
 37 42  1  0  0  0  0
 37 38  1  0  0  0  0
 38 39  1  0  0  0  0
 40 39  1  0  0  0  0
 41 42  1  0  0  0  0
 41 40  1  0  0  0  0
M  END
>  <minimizedAffinity>
-6.20728397

>  <minimizedRMSD>
0.610316694

$$$$
