
 OpenBabel03272500443D

 30 32  0  0  1  0  0  0  0  0999 V2000
   38.0070   31.4980   45.3850 C   0  0  0  0  0  0  0  0  0  0  0  0
   37.8740   31.3030   44.0060 C   0  0  0  0  0  0  0  0  0  0  0  0
   36.7430   30.6120   43.5370 C   0  0  0  0  0  0  0  0  0  0  0  0
   35.8460   30.1760   44.4600 N   0  0  0  0  0  0  0  0  0  0  0  0
   36.0070   30.3840   45.7910 C   0  0  0  0  0  0  0  0  0  0  0  0
   37.0810   31.0390   46.2310 N   0  0  0  0  0  0  0  0  0  0  0  0
   35.0150   29.8830   46.7200 N   0  0  0  0  0  0  0  0  0  0  0  0
   35.4560   29.1810   47.9240 C   0  0  2  0  0  0  0  0  0  0  0  0
   34.4900   28.1350   48.3540 C   0  0  0  0  0  0  0  0  0  0  0  0
   33.6070   27.7620   47.1700 C   0  0  0  0  0  0  0  0  0  0  0  0
   32.7400   28.9930   46.9300 C   0  0  0  0  0  0  0  0  0  0  0  0
   33.6100   30.0790   46.4080 C   0  0  0  0  0  0  0  0  0  0  0  0
   38.8820   32.0300   45.7110 H   0  0  0  0  0  0  0  0  0  0  0  0
   38.6140   31.6690   43.3070 H   0  0  0  0  0  0  0  0  0  0  0  0
   36.5910   30.4330   42.4730 H   0  0  0  0  0  0  0  0  0  0  0  0
   36.3630   28.5970   47.5450 H   0  0  0  0  0  0  0  0  0  0  0  0
   33.7940   28.3710   49.1470 H   0  0  0  0  0  0  0  0  0  0  0  0
   34.9930   27.1600   48.6230 H   0  0  0  0  0  0  0  0  0  0  0  0
   34.2480   27.6480   46.2960 H   0  0  0  0  0  0  0  0  0  0  0  0
   33.0080   26.8580   47.3490 H   0  0  0  0  0  0  0  0  0  0  0  0
   32.0250   28.7060   46.1140 H   0  0  0  0  0  0  0  0  0  0  0  0
   32.1410   29.2750   47.8050 H   0  0  0  0  0  0  0  0  0  0  0  0
   33.3040   31.0480   46.8310 H   0  0  0  0  0  0  0  0  0  0  0  0
   33.5120   30.2010   45.2950 H   0  0  0  0  0  0  0  0  0  0  0  0
   35.9900   30.0940   48.9560 C   0  0  0  0  0  0  0  0  0  0  0  0
   35.3490   30.1550   50.2830 C   0  0  0  0  0  0  0  0  0  0  0  0
   36.0730   29.3820   51.3770 C   0  0  0  0  0  0  0  0  0  0  0  0
   37.3360   30.1970   51.6920 C   0  0  0  0  0  0  0  0  0  0  0  0
   37.9610   30.6600   50.4040 C   0  0  0  0  0  0  0  0  0  0  0  0
   37.4850   29.8550   49.2120 C   0  0  0  0  0  0  0  0  0  0  0  0
  1 13  1  0  0  0  0
  1  6  1  0  0  0  0
  2  1  2  0  0  0  0
  3  2  1  0  0  0  0
  3  4  2  0  0  0  0
  4  5  1  0  0  0  0
  5  6  2  0  0  0  0
  5  7  1  0  0  0  0
  7  8  1  0  0  0  0
  8 16  1  6  0  0  0
  8  9  1  0  0  0  0
  8 25  1  0  0  0  0
  9 18  1  0  0  0  0
  9 17  1  0  0  0  0
 10 20  1  0  0  0  0
 10  9  1  0  0  0  0
 11 10  1  0  0  0  0
 11 22  1  0  0  0  0
 12  7  1  0  0  0  0
 12 23  1  0  0  0  0
 12 11  1  0  0  0  0
 14  2  1  0  0  0  0
 15  3  1  0  0  0  0
 19 10  1  0  0  0  0
 21 11  1  0  0  0  0
 24 12  1  0  0  0  0
 25 30  1  0  0  0  0
 25 26  1  0  0  0  0
 26 27  1  0  0  0  0
 27 28  1  0  0  0  0
 29 28  1  0  0  0  0
 30 29  1  0  0  0  0
M  END
>  <minimizedAffinity>
-5.50060511

>  <minimizedRMSD>
3.23807883

$$$$
