
 OpenBabel03272507483D

 43 47  0  0  0  0  0  0  0  0999 V2000
   32.7250   28.1120   47.4320 N   0  0  0  0  0  0  0  0  0  0  0  0
   33.3990   27.6040   48.5770 C   0  0  0  0  0  0  0  0  0  0  0  0
   34.5610   28.3790   49.0660 C   0  0  0  0  0  0  0  0  0  0  0  0
   35.4270   28.9770   48.0510 C   0  0  0  0  0  0  0  0  0  0  0  0
   34.6430   29.4430   46.8100 C   0  0  0  0  0  0  0  0  0  0  0  0
   33.7160   28.2810   46.4050 C   0  0  0  0  0  0  0  0  0  0  0  0
   33.7680   26.5740   48.3130 H   0  0  0  0  0  0  0  0  0  0  0  0
   32.6600   27.4310   49.3820 H   0  0  0  0  0  0  0  0  0  0  0  0
   34.0500   29.2460   49.6030 H   0  0  0  0  0  0  0  0  0  0  0  0
   35.1290   27.8050   49.8050 H   0  0  0  0  0  0  0  0  0  0  0  0
   36.1470   28.2210   47.6480 H   0  0  0  0  0  0  0  0  0  0  0  0
   35.3360   29.5770   45.9600 H   0  0  0  0  0  0  0  0  0  0  0  0
   34.0590   30.3300   47.0570 H   0  0  0  0  0  0  0  0  0  0  0  0
   33.1830   28.6060   45.4710 H   0  0  0  0  0  0  0  0  0  0  0  0
   34.3490   27.4020   46.2150 H   0  0  0  0  0  0  0  0  0  0  0  0
   35.8890   30.6770   49.7590 C   0  0  0  0  0  0  0  0  0  0  0  0
   36.1780   30.1760   48.5010 C   0  0  0  0  0  0  0  0  0  0  0  0
   37.0920   30.7340   47.6470 C   0  0  0  0  0  0  0  0  0  0  0  0
   37.7660   31.8740   48.0730 C   0  0  0  0  0  0  0  0  0  0  0  0
   37.4810   32.3780   49.3220 C   0  0  0  0  0  0  0  0  0  0  0  0
   36.5530   31.8110   50.1920 C   0  0  0  0  0  0  0  0  0  0  0  0
   38.2570   33.5230   49.5680 O   0  0  0  0  0  0  0  0  0  0  0  0
   39.2790   33.4770   48.5760 C   0  0  0  0  0  0  0  0  0  0  0  0
   38.7340   32.7120   47.5250 O   0  0  0  0  0  0  0  0  0  0  0  0
   35.2060   30.3200   50.5150 H   0  0  0  0  0  0  0  0  0  0  0  0
   37.2890   30.3180   46.6850 H   0  0  0  0  0  0  0  0  0  0  0  0
   36.3790   32.2710   51.1760 H   0  0  0  0  0  0  0  0  0  0  0  0
   39.4530   34.4950   48.1480 H   0  0  0  0  0  0  0  0  0  0  0  0
   40.2170   33.0530   48.9730 H   0  0  0  0  0  0  0  0  0  0  0  0
   31.3320   28.4100   47.2850 C   0  0  0  0  0  0  0  0  0  0  0  0
   30.7800   29.2970   46.3650 C   0  0  0  0  0  0  0  0  0  0  0  0
   29.3950   29.4480   46.3800 C   0  0  0  0  0  0  0  0  0  0  0  0
   28.6580   28.7280   47.2830 N   0  0  0  0  0  0  0  0  0  0  0  0
   29.2310   27.8870   48.1490 C   0  0  0  0  0  0  0  0  0  0  0  0
   30.5500   27.7290   48.1520 N   0  0  0  0  0  0  0  0  0  0  0  0
   31.4820   29.7800   45.7320 H   0  0  0  0  0  0  0  0  0  0  0  0
   28.9900   30.1400   45.6570 H   0  0  0  0  0  0  0  0  0  0  0  0
   28.3670   27.1360   49.1040 C   0  0  0  0  0  0  0  0  0  0  0  0
   28.7830   27.3290   50.5460 C   0  0  0  0  0  0  0  0  0  0  0  0
   27.5840   26.8630   51.3770 C   0  0  0  0  0  0  0  0  0  0  0  0
   26.6000   28.0050   51.3460 C   0  0  0  0  0  0  0  0  0  0  0  0
   26.3540   28.4120   49.9290 C   0  0  0  0  0  0  0  0  0  0  0  0
   26.9190   27.4610   48.9020 C   0  0  0  0  0  0  0  0  0  0  0  0
  1  2  1  0  0  0  0
  2  3  1  0  0  0  0
  2  8  1  0  0  0  0
  3  9  1  0  0  0  0
  3 10  1  0  0  0  0
  4 17  1  0  0  0  0
  4  3  1  0  0  0  0
  5 13  1  0  0  0  0
  5  4  1  0  0  0  0
  6  5  1  0  0  0  0
  6  1  1  0  0  0  0
  7  2  1  0  0  0  0
 11  4  1  0  0  0  0
 12  5  1  0  0  0  0
 14  6  1  0  0  0  0
 15  6  1  0  0  0  0
 16 21  1  0  0  0  0
 16 25  1  0  0  0  0
 17 16  2  0  0  0  0
 18 19  2  0  0  0  0
 18 17  1  0  0  0  0
 19 20  1  0  0  0  0
 20 22  1  0  0  0  0
 20 21  2  0  0  0  0
 21 27  1  0  0  0  0
 23 29  1  0  0  0  0
 23 22  1  0  0  0  0
 24 19  1  0  0  0  0
 24 23  1  0  0  0  0
 26 18  1  0  0  0  0
 28 23  1  0  0  0  0
 30  1  1  0  0  0  0
 30 35  1  0  0  0  0
 31 32  1  0  0  0  0
 31 30  2  0  0  0  0
 32 33  2  0  0  0  0
 33 34  1  0  0  0  0
 34 35  2  0  0  0  0
 34 38  1  0  0  0  0
 36 31  1  0  0  0  0
 37 32  1  0  0  0  0
 38 39  1  0  0  0  0
 39 40  1  0  0  0  0
 41 40  1  0  0  0  0
 42 41  1  0  0  0  0
 43 38  1  0  0  0  0
 43 42  1  0  0  0  0
M  END
>  <minimizedAffinity>
-8.0153265

>  <minimizedRMSD>
0.640202224

$$$$
