
 OpenBabel03272506243D

 28 30  0  0  0  0  0  0  0  0999 V2000
   38.0660   30.7640   44.8790 C   0  0  0  0  0  0  0  0  0  0  0  0
   38.8870   30.4810   43.8250 C   0  0  0  0  0  0  0  0  0  0  0  0
   40.2660   30.5800   43.8470 C   0  0  0  0  0  0  0  0  0  0  0  0
   40.8800   30.9990   45.0370 C   0  0  0  0  0  0  0  0  0  0  0  0
   40.0380   31.2920   46.1250 C   0  0  0  0  0  0  0  0  0  0  0  0
   38.6660   31.1840   46.0710 C   0  0  0  0  0  0  0  0  0  0  0  0
   38.4940   30.1510   42.8700 H   0  0  0  0  0  0  0  0  0  0  0  0
   40.9020   30.3590   43.0240 H   0  0  0  0  0  0  0  0  0  0  0  0
   41.9460   31.1010   45.1350 H   0  0  0  0  0  0  0  0  0  0  0  0
   40.5350   31.6070   47.0110 H   0  0  0  0  0  0  0  0  0  0  0  0
   36.0040   29.5550   45.3910 C   0  0  0  0  0  0  0  0  0  0  0  0
   36.6480   30.6050   44.6720 C   0  0  0  0  0  0  0  0  0  0  0  0
   35.8520   31.3810   43.8340 C   0  0  0  0  0  0  0  0  0  0  0  0
   34.5260   31.1030   43.7470 N   0  0  0  0  0  0  0  0  0  0  0  0
   33.9420   30.0900   44.4510 C   0  0  0  0  0  0  0  0  0  0  0  0
   34.6920   29.3180   45.2730 N   0  0  0  0  0  0  0  0  0  0  0  0
   36.5400   28.8990   46.0610 H   0  0  0  0  0  0  0  0  0  0  0  0
   32.8690   29.9410   44.3170 H   0  0  0  0  0  0  0  0  0  0  0  0
   36.3810   32.4940   43.0330 C   0  0  0  0  0  0  0  0  0  0  0  0
   35.3630   33.4020   42.7210 F   0  0  0  0  0  0  0  0  0  0  0  0
   37.4380   33.1710   43.5460 F   0  0  0  0  0  0  0  0  0  0  0  0
   36.7600   32.0280   41.7560 F   0  0  0  0  0  0  0  0  0  0  0  0
   37.7990   31.4950   47.2090 C   0  0  0  0  0  0  0  0  0  0  0  0
   38.3490   32.6520   48.0480 C   0  0  0  0  0  0  0  0  0  0  0  0
   37.7250   32.6740   49.3970 C   0  0  0  0  0  0  0  0  0  0  0  0
   36.5340   31.7720   49.5840 C   0  0  0  0  0  0  0  0  0  0  0  0
   36.7700   30.3690   49.1380 C   0  0  0  0  0  0  0  0  0  0  0  0
   37.8800   30.2700   48.1270 C   0  0  0  0  0  0  0  0  0  0  0  0
  1  6  1  0  0  0  0
  2  3  1  0  0  0  0
  2  1  2  0  0  0  0
  3  4  2  0  0  0  0
  4  9  1  0  0  0  0
  4  5  1  0  0  0  0
  5 10  1  0  0  0  0
  6  5  2  0  0  0  0
  6 23  1  0  0  0  0
  7  2  1  0  0  0  0
  8  3  1  0  0  0  0
 11 17  1  0  0  0  0
 12  1  1  0  0  0  0
 12 11  2  0  0  0  0
 13 12  1  0  0  0  0
 14 13  2  0  0  0  0
 14 15  1  0  0  0  0
 15 16  2  0  0  0  0
 16 11  1  0  0  0  0
 18 15  1  0  0  0  0
 19 21  1  0  0  0  0
 19 13  1  0  0  0  0
 20 19  1  0  0  0  0
 22 19  1  0  0  0  0
 23 24  1  0  0  0  0
 23 28  1  0  0  0  0
 24 25  1  0  0  0  0
 25 26  1  0  0  0  0
 27 26  1  0  0  0  0
 28 27  1  0  0  0  0
M  END
>  <minimizedAffinity>
-4.99055767

>  <minimizedRMSD>
4.68050718

$$$$
