
 OpenBabel03272507363D

 16 17  0  0  0  0  0  0  0  0999 V2000
   36.6200   29.4840   50.6590 C   0  0  0  0  0  0  0  0  0  0  0  0
   36.7550   30.2690   49.5150 C   0  0  0  0  0  0  0  0  0  0  0  0
   35.6140   30.6260   48.8040 C   0  0  0  0  0  0  0  0  0  0  0  0
   34.4060   30.1750   49.2760 N   0  0  0  0  0  0  0  0  0  0  0  0
   34.3050   29.4130   50.3910 C   0  0  0  0  0  0  0  0  0  0  0  0
   35.4130   29.0740   51.0720 N   0  0  0  0  0  0  0  0  0  0  0  0
   35.5710   31.2190   47.9170 H   0  0  0  0  0  0  0  0  0  0  0  0
   33.3310   29.0770   50.7320 H   0  0  0  0  0  0  0  0  0  0  0  0
   38.0440   30.7800   48.9680 C   0  0  0  0  0  0  0  0  0  0  0  0
   37.9580   30.7700   47.4920 C   0  0  0  0  0  0  0  0  0  0  0  0
   38.6610   31.8640   46.7640 C   0  0  0  0  0  0  0  0  0  0  0  0
   39.4340   32.8130   47.6400 C   0  0  0  0  0  0  0  0  0  0  0  0
   38.4550   33.2440   48.7310 C   0  0  0  0  0  0  0  0  0  0  0  0
   38.3770   32.0500   49.6530 C   0  0  0  0  0  0  0  0  0  0  0  0
   37.8460   29.2260   51.2380 O   0  0  0  0  0  0  0  0  0  0  0  0
   37.9380   28.3350   51.7200 H   0  0  0  0  0  0  0  0  0  0  0  0
  1  6  1  0  0  0  0
  1 15  1  0  0  0  0
  2  1  2  0  0  0  0
  3  4  2  0  0  0  0
  3  2  1  0  0  0  0
  4  5  1  0  0  0  0
  5  8  1  0  0  0  0
  5  6  2  0  0  0  0
  7  3  1  0  0  0  0
  9  2  1  0  0  0  0
  9 14  1  0  0  0  0
 10  9  1  0  0  0  0
 11 10  1  0  0  0  0
 11 12  1  0  0  0  0
 12 13  1  0  0  0  0
 13 14  1  0  0  0  0
 15 16  1  0  0  0  0
M  END
>  <minimizedAffinity>
-5.41600084

>  <minimizedRMSD>
2.32038808

$$$$
