
 OpenBabel03272503273D

 27 29  0  0  1  0  0  0  0  0999 V2000
   34.6930   29.0440   48.4810 N   0  0  0  0  0  0  0  0  0  0  0  0
   35.9880   29.6730   48.4830 C   0  0  0  0  0  0  0  0  0  0  0  0
   36.4110   29.5520   49.9260 C   0  0  2  0  0  0  0  0  0  0  0  0
   35.2070   29.0350   50.6810 C   0  0  0  0  0  0  0  0  0  0  0  0
   34.6780   28.0970   49.5910 C   0  0  0  0  0  0  0  0  0  0  0  0
   36.7010   29.1970   47.7780 H   0  0  0  0  0  0  0  0  0  0  0  0
   35.9540   30.7370   48.1900 H   0  0  0  0  0  0  0  0  0  0  0  0
   37.1690   28.7370   49.9710 H   0  0  0  0  0  0  0  0  0  0  0  0
   34.4350   29.7930   50.8410 H   0  0  0  0  0  0  0  0  0  0  0  0
   35.4770   28.4600   51.5750 H   0  0  0  0  0  0  0  0  0  0  0  0
   33.6800   27.7230   49.8260 H   0  0  0  0  0  0  0  0  0  0  0  0
   35.4590   27.3570   49.4170 H   0  0  0  0  0  0  0  0  0  0  0  0
   33.6050   29.2760   47.5840 C   0  0  0  0  0  0  0  0  0  0  0  0
   33.6690   30.4590   46.8380 C   0  0  0  0  0  0  0  0  0  0  0  0
   32.6320   30.7340   45.9460 C   0  0  0  0  0  0  0  0  0  0  0  0
   31.6130   29.8300   45.8550 N   0  0  0  0  0  0  0  0  0  0  0  0
   31.5920   28.6990   46.5970 C   0  0  0  0  0  0  0  0  0  0  0  0
   32.5970   28.4180   47.4700 N   0  0  0  0  0  0  0  0  0  0  0  0
   34.4430   31.1900   46.8770 H   0  0  0  0  0  0  0  0  0  0  0  0
   32.6040   31.6230   45.3330 H   0  0  0  0  0  0  0  0  0  0  0  0
   30.7480   28.0010   46.4870 H   0  0  0  0  0  0  0  0  0  0  0  0
   36.9160   30.8380   50.5160 C   0  0  0  0  0  0  0  0  0  0  0  0
   36.3290   32.0550   49.8910 C   0  0  0  0  0  0  0  0  0  0  0  0
   37.3630   33.1800   49.7510 C   0  0  0  0  0  0  0  0  0  0  0  0
   38.4060   32.8220   48.7220 C   0  0  0  0  0  0  0  0  0  0  0  0
   38.6170   31.3200   48.7840 C   0  0  0  0  0  0  0  0  0  0  0  0
   38.4140   30.8800   50.2190 C   0  0  0  0  0  0  0  0  0  0  0  0
  1  2  1  0  0  0  0
  1  5  1  0  0  0  0
  2  3  1  0  0  0  0
  3  8  1  1  0  0  0
  3 22  1  0  0  0  0
  3  4  1  0  0  0  0
  4  9  1  0  0  0  0
  4 10  1  0  0  0  0
  5 11  1  0  0  0  0
  5  4  1  0  0  0  0
  6  2  1  0  0  0  0
  7  2  1  0  0  0  0
 12  5  1  0  0  0  0
 13  1  1  0  0  0  0
 14 19  1  0  0  0  0
 14 13  2  0  0  0  0
 15 14  1  0  0  0  0
 16 15  2  0  0  0  0
 16 17  1  0  0  0  0
 17 18  2  0  0  0  0
 18 13  1  0  0  0  0
 20 15  1  0  0  0  0
 21 17  1  0  0  0  0
 23 22  1  0  0  0  0
 24 23  1  0  0  0  0
 25 26  1  0  0  0  0
 25 24  1  0  0  0  0
 26 27  1  0  0  0  0
 27 22  1  0  0  0  0
M  END
>  <minimizedAffinity>
-5.49446154

>  <minimizedRMSD>
2.28578901

$$$$
