
 OpenBabel03272507053D

 28 31  0  0  0  0  0  0  0  0999 V2000
   34.4380   28.1260   48.8420 C   0  0  0  0  0  0  0  0  0  0  0  0
   34.7860   29.3620   48.2980 C   0  0  0  0  0  0  0  0  0  0  0  0
   34.0090   29.9310   47.3250 C   0  0  0  0  0  0  0  0  0  0  0  0
   32.8720   29.3050   46.8580 C   0  0  0  0  0  0  0  0  0  0  0  0
   31.9560   29.6530   45.9220 N   0  0  0  0  0  0  0  0  0  0  0  0
   31.0750   28.6000   45.9320 C   0  0  0  0  0  0  0  0  0  0  0  0
   31.4420   27.6700   46.8270 N   0  0  0  0  0  0  0  0  0  0  0  0
   32.5630   28.0900   47.4170 C   0  0  0  0  0  0  0  0  0  0  0  0
   33.3010   27.4670   48.3960 C   0  0  0  0  0  0  0  0  0  0  0  0
   35.0210   27.6350   49.6140 H   0  0  0  0  0  0  0  0  0  0  0  0
   34.3190   30.9040   46.9260 H   0  0  0  0  0  0  0  0  0  0  0  0
   31.9270   30.5120   45.3360 H   0  0  0  0  0  0  0  0  0  0  0  0
   30.2230   28.6150   45.2650 H   0  0  0  0  0  0  0  0  0  0  0  0
   33.0120   26.5070   48.8020 H   0  0  0  0  0  0  0  0  0  0  0  0
   37.2710   30.9080   50.5270 C   0  0  0  0  0  0  0  0  0  0  0  0
   38.2870   31.2940   49.6240 C   0  0  0  0  0  0  0  0  0  0  0  0
   38.0850   31.0040   48.2460 C   0  0  0  0  0  0  0  0  0  0  0  0
   36.9270   30.3760   47.8820 N   0  0  0  0  0  0  0  0  0  0  0  0
   35.9790   30.0260   48.7850 C   0  0  0  0  0  0  0  0  0  0  0  0
   36.1590   30.2910   50.0780 N   0  0  0  0  0  0  0  0  0  0  0  0
   37.4510   31.1390   51.5620 H   0  0  0  0  0  0  0  0  0  0  0  0
   39.1990   31.7860   49.8950 H   0  0  0  0  0  0  0  0  0  0  0  0
   39.1090   31.3790   47.2400 C   0  0  0  0  0  3  0  0  0  0  0  0
   39.3290   32.8450   47.0940 C   0  0  0  0  0  2  0  0  0  0  0  0
   40.0790   33.0900   45.8020 C   0  0  0  0  0  2  0  0  0  0  0  0
   40.8540   31.8660   45.3620 C   0  0  0  0  0  2  0  0  0  0  0  0
   39.9070   30.7150   45.0620 C   0  0  0  0  0  2  0  0  0  0  0  0
   38.6380   30.8420   45.8920 C   0  0  0  0  0  2  0  0  0  0  0  0
  1 10  1  0  0  0  0
  2 19  1  0  0  0  0
  2  1  2  0  0  0  0
  3  2  1  0  0  0  0
  4  3  2  0  0  0  0
  4  8  1  0  0  0  0
  5  6  1  0  0  0  0
  5  4  1  0  0  0  0
  6  7  2  0  0  0  0
  7  8  1  0  0  0  0
  8  9  2  0  0  0  0
  9 14  1  0  0  0  0
  9  1  1  0  0  0  0
 11  3  1  0  0  0  0
 12  5  1  0  0  0  0
 13  6  1  0  0  0  0
 15 21  1  0  0  0  0
 16 22  1  0  0  0  0
 16 15  2  0  0  0  0
 17 16  1  0  0  0  0
 18 17  2  0  0  0  0
 18 19  1  0  0  0  0
 19 20  2  0  0  0  0
 20 15  1  0  0  0  0
 23 17  1  0  0  0  0
 24 23  1  0  0  0  0
 25 24  1  0  0  0  0
 26 25  1  0  0  0  0
 27 26  1  0  0  0  0
 27 28  1  0  0  0  0
 28 23  1  0  0  0  0
M  END
>  <minimizedAffinity>
-6.61256075

>  <minimizedRMSD>
1.23130059

$$$$
