
 OpenBabel03272509053D

 30 32  0  0  0  0  0  0  0  0999 V2000
   35.1580   28.4220   49.4580 C   0  0  0  0  0  3  0  0  0  0  0  0
   34.3670   28.6180   48.4360 C   0  0  0  0  0  3  0  0  0  0  0  0
   37.7500   30.4650   51.0390 C   0  0  0  0  0  0  0  0  0  0  0  0
   38.2160   31.2260   49.9480 C   0  0  0  0  0  0  0  0  0  0  0  0
   37.6200   31.0120   48.6890 C   0  0  0  0  0  0  0  0  0  0  0  0
   36.6350   30.0870   48.6030 N   0  0  0  0  0  0  0  0  0  0  0  0
   36.2140   29.3760   49.6680 C   0  0  0  0  0  0  0  0  0  0  0  0
   36.7840   29.5810   50.8750 N   0  0  0  0  0  0  0  0  0  0  0  0
   38.2260   30.6530   51.9890 H   0  0  0  0  0  0  0  0  0  0  0  0
   38.9850   31.9590   49.9780 H   0  0  0  0  0  0  0  0  0  0  0  0
   37.9900   31.7260   47.4390 C   0  0  0  0  0  3  0  0  0  0  0  0
   39.2640   32.5190   47.5960 C   0  0  0  0  0  2  0  0  0  0  0  0
   39.5800   33.0650   46.1990 C   0  0  0  0  0  2  0  0  0  0  0  0
   40.0500   31.9620   45.2820 C   0  0  0  0  0  2  0  0  0  0  0  0
   39.6720   30.6470   45.9060 C   0  0  0  0  0  2  0  0  0  0  0  0
   38.2010   30.7490   46.2880 C   0  0  0  0  0  2  0  0  0  0  0  0
   33.2210   27.7910   48.0090 C   0  0  0  0  0  0  0  0  0  0  0  0
   32.4980   28.4580   47.4740 H   0  0  0  0  0  0  0  0  0  0  0  0
   32.6770   27.3230   48.8570 H   0  0  0  0  0  0  0  0  0  0  0  0
   33.6170   26.7130   47.0540 C   0  0  0  0  0  0  0  0  0  0  0  0
   33.7850   25.3940   47.3850 C   0  0  0  0  0  0  0  0  0  0  0  0
   34.1530   24.4710   46.4280 C   0  0  0  0  0  0  0  0  0  0  0  0
   34.3630   24.8650   45.0920 C   0  0  0  0  0  0  0  0  0  0  0  0
   34.1970   26.1800   44.7570 C   0  0  0  0  0  0  0  0  0  0  0  0
   33.8260   27.0900   45.7340 C   0  0  0  0  0  0  0  0  0  0  0  0
   33.6130   25.1370   48.4270 H   0  0  0  0  0  0  0  0  0  0  0  0
   34.2690   23.4580   46.7490 H   0  0  0  0  0  0  0  0  0  0  0  0
   34.6450   24.0600   44.4420 H   0  0  0  0  0  0  0  0  0  0  0  0
   34.3630   26.4600   43.7250 H   0  0  0  0  0  0  0  0  0  0  0  0
   33.7100   28.1230   45.3980 H   0  0  0  0  0  0  0  0  0  0  0  0
  1  7  1  0  0  0  0
  2  1  2  0  0  0  0
  3  9  1  0  0  0  0
  4 10  1  0  0  0  0
  4  3  2  0  0  0  0
  5  4  1  0  0  0  0
  6  5  2  0  0  0  0
  6  7  1  0  0  0  0
  7  8  2  0  0  0  0
  8  3  1  0  0  0  0
 11 12  1  0  0  0  0
 11  5  1  0  0  0  0
 13 12  1  0  0  0  0
 14 15  1  0  0  0  0
 14 13  1  0  0  0  0
 15 16  1  0  0  0  0
 16 11  1  0  0  0  0
 17  2  1  0  0  0  0
 17 19  1  0  0  0  0
 18 17  1  0  0  0  0
 20 21  1  0  0  0  0
 20 17  1  0  0  0  0
 21 26  1  0  0  0  0
 22 27  1  0  0  0  0
 22 21  2  0  0  0  0
 23 22  1  0  0  0  0
 24 23  2  0  0  0  0
 24 25  1  0  0  0  0
 25 20  2  0  0  0  0
 28 23  1  0  0  0  0
 29 24  1  0  0  0  0
 30 25  1  0  0  0  0
M  END
>  <minimizedAffinity>
-6.08654594

>  <minimizedRMSD>
0.959459424

$$$$
