
 OpenBabel03272503173D

 22 24  0  0  0  0  0  0  0  0999 V2000
   37.9900   31.4860   48.4740 C   0  0  0  0  0  0  0  0  0  0  0  0
   38.7520   32.5830   48.5430 C   0  0  0  0  0  0  0  0  0  0  0  0
   39.3210   33.1130   47.4500 C   0  0  0  0  0  0  0  0  0  0  0  0
   39.0740   32.4630   46.2450 C   0  0  0  0  0  0  0  0  0  0  0  0
   37.9940   31.0700   46.7830 S   0  0  0  0  0  0  0  0  0  0  0  0
   38.9080   33.0500   49.5320 H   0  0  0  0  0  0  0  0  0  0  0  0
   39.9500   33.9850   47.3700 H   0  0  0  0  0  0  0  0  0  0  0  0
   37.0380   29.8060   51.6980 C   0  0  0  0  0  0  0  0  0  0  0  0
   37.8250   30.5310   50.7860 C   0  0  0  0  0  0  0  0  0  0  0  0
   37.2820   30.7470   49.5250 C   0  0  0  0  0  0  0  0  0  0  0  0
   36.0600   30.2680   49.2320 N   0  0  0  0  0  0  0  0  0  0  0  0
   35.3290   29.5790   50.1240 C   0  0  0  0  0  0  0  0  0  0  0  0
   35.8180   29.3510   51.3480 N   0  0  0  0  0  0  0  0  0  0  0  0
   37.4740   29.6450   52.6820 H   0  0  0  0  0  0  0  0  0  0  0  0
   38.8060   30.9260   50.9960 H   0  0  0  0  0  0  0  0  0  0  0  0
   34.3510   29.2100   49.8490 H   0  0  0  0  0  0  0  0  0  0  0  0
   39.4240   32.6010   44.8240 C   0  0  0  0  0  0  0  0  0  0  0  0
   40.5150   31.6750   44.3590 C   0  0  0  0  0  0  0  0  0  0  0  0
   40.1750   30.9830   43.0580 C   0  0  0  0  0  0  0  0  0  0  0  0
   39.7910   32.0220   42.0520 C   0  0  0  0  0  0  0  0  0  0  0  0
   38.5850   32.7810   42.5500 C   0  0  0  0  0  0  0  0  0  0  0  0
   38.2070   32.3630   43.9620 C   0  0  0  0  0  0  0  0  0  0  0  0
  1  2  2  0  0  0  0
  1 10  1  0  0  0  0
  2  6  1  0  0  0  0
  3  2  1  0  0  0  0
  4  5  1  0  0  0  0
  4  3  2  0  0  0  0
  5  1  1  0  0  0  0
  7  3  1  0  0  0  0
  8 14  1  0  0  0  0
  9 15  1  0  0  0  0
  9  8  2  0  0  0  0
 10  9  1  0  0  0  0
 11 10  2  0  0  0  0
 11 12  1  0  0  0  0
 12 13  2  0  0  0  0
 13  8  1  0  0  0  0
 16 12  1  0  0  0  0
 17  4  1  0  0  0  0
 18 17  1  0  0  0  0
 19 18  1  0  0  0  0
 20 21  1  0  0  0  0
 20 19  1  0  0  0  0
 21 22  1  0  0  0  0
 22 17  1  0  0  0  0
M  END
>  <minimizedAffinity>
-5.67126179

>  <minimizedRMSD>
1.35250974

$$$$
