
 OpenBabel03272506473D

 39 42  0  0  1  0  0  0  0  0999 V2000
   32.3160   28.3650   47.4490 C   0  0  2  0  0  0  0  0  0  0  0  0
   33.5040   28.4290   48.3630 C   0  0  1  0  0  0  0  0  0  0  0  0
   34.0540   27.1840   48.4260 O   0  0  0  0  0  0  0  0  0  0  0  0
   33.5170   26.3960   47.4140 C   0  0  0  0  0  0  0  0  0  0  0  0
   32.8540   27.3160   46.4240 C   0  0  1  0  0  0  0  0  0  0  0  0
   31.4010   27.9710   47.8780 H   0  0  0  0  0  0  0  0  0  0  0  0
   33.1850   28.8380   49.3440 H   0  0  0  0  0  0  0  0  0  0  0  0
   32.8960   25.6450   47.8740 H   0  0  0  0  0  0  0  0  0  0  0  0
   34.3810   25.8840   46.9070 H   0  0  0  0  0  0  0  0  0  0  0  0
   33.5440   27.8570   45.7840 H   0  0  0  0  0  0  0  0  0  0  0  0
   32.1310   29.5970   46.7870 O   0  0  0  0  0  0  0  0  0  0  0  0
   32.8340   29.6710   46.1030 H   0  0  0  0  0  0  0  0  0  0  0  0
   34.7340   29.5600   47.5970 S   0  0  0  0  0  0  0  0  0  0  0  0
   37.3190   29.3220   50.5890 C   0  0  0  0  0  0  0  0  0  0  0  0
   37.8270   30.6160   50.7290 C   0  0  0  0  0  0  0  0  0  0  0  0
   37.3530   31.6000   49.8650 C   0  0  0  0  0  0  0  0  0  0  0  0
   36.4210   31.2590   48.9290 N   0  0  0  0  0  0  0  0  0  0  0  0
   35.9560   29.9950   48.8270 C   0  0  0  0  0  0  0  0  0  0  0  0
   36.3970   29.0110   49.6530 N   0  0  0  0  0  0  0  0  0  0  0  0
   37.7140   28.6050   51.2730 H   0  0  0  0  0  0  0  0  0  0  0  0
   38.5720   30.8400   51.4930 H   0  0  0  0  0  0  0  0  0  0  0  0
   37.7300   32.6060   49.9540 H   0  0  0  0  0  0  0  0  0  0  0  0
   31.8210   26.6490   45.8140 O   0  0  0  0  0  0  0  0  0  0  0  0
   30.1560   27.1950   43.4480 Cl  0  0  0  0  0  0  0  0  0  0  0  0
   29.6550   26.9930   45.1090 C   0  0  0  0  0  0  0  0  0  0  0  0
   30.5330   26.7270   46.1340 C   0  0  0  0  0  0  0  0  0  0  0  0
   30.0110   26.5590   47.4190 C   0  0  0  0  0  0  0  0  0  0  0  0
   28.6540   26.6590   47.6430 C   0  0  0  0  0  0  0  0  0  0  0  0
   27.7640   26.9250   46.6190 C   0  0  0  0  0  0  0  0  0  0  0  0
   28.2870   27.0920   45.3500 C   0  0  0  0  0  0  0  0  0  0  0  0
   30.6250   26.3450   48.2760 H   0  0  0  0  0  0  0  0  0  0  0  0
   28.2070   26.5360   48.6190 H   0  0  0  0  0  0  0  0  0  0  0  0
   26.7010   27.0010   46.8100 H   0  0  0  0  0  0  0  0  0  0  0  0
   27.3340   27.3790   44.2450 C   0  0  0  0  0  3  0  0  0  0  0  0
   26.0940   28.0900   44.7070 C   0  0  0  0  0  2  0  0  0  0  0  0
   24.8900   27.7330   43.8320 C   0  0  0  0  0  2  0  0  0  0  0  0
   25.2690   27.5790   42.3860 C   0  0  0  0  0  2  0  0  0  0  0  0
   26.1990   26.3910   42.2690 C   0  0  0  0  0  2  0  0  0  0  0  0
   26.8960   26.1020   43.5720 C   0  0  0  0  0  2  0  0  0  0  0  0
  1  6  1  1  0  0  0
  1  2  1  0  0  0  0
  2  3  1  0  0  0  0
  2  7  1  1  0  0  0
  4  8  1  0  0  0  0
  4  3  1  0  0  0  0
  5 10  1  6  0  0  0
  5  4  1  0  0  0  0
  5  1  1  0  0  0  0
  9  4  1  0  0  0  0
 11  1  1  0  0  0  0
 12 11  1  0  0  0  0
 13  2  1  0  0  0  0
 13 18  1  0  0  0  0
 14 15  1  0  0  0  0
 14 20  1  0  0  0  0
 15 21  1  0  0  0  0
 16 22  1  0  0  0  0
 16 15  2  0  0  0  0
 17 16  1  0  0  0  0
 18 17  2  0  0  0  0
 18 19  1  0  0  0  0
 19 14  2  0  0  0  0
 23 26  1  0  0  0  0
 23  5  1  0  0  0  0
 24 25  1  0  0  0  0
 25 30  2  0  0  0  0
 25 26  1  0  0  0  0
 26 27  2  0  0  0  0
 27 28  1  0  0  0  0
 27 31  1  0  0  0  0
 28 32  1  0  0  0  0
 29 33  1  0  0  0  0
 29 28  2  0  0  0  0
 30 29  1  0  0  0  0
 34 35  1  0  0  0  0
 34 30  1  0  0  0  0
 36 35  1  0  0  0  0
 37 36  1  0  0  0  0
 38 37  1  0  0  0  0
 38 39  1  0  0  0  0
 39 34  1  0  0  0  0
M  END
>  <minimizedAffinity>
-5.38368416

>  <minimizedRMSD>
1.53675389

$$$$
