
 OpenBabel03272501453D

 31 34  0  0  0  0  0  0  0  0999 V2000
   38.4290   26.8920   35.6940 C   0  0  0  0  0  0  0  0  0  0  0  0
   38.5900   25.7280   34.8880 C   0  0  0  0  0  0  0  0  0  0  0  0
   37.8420   25.6540   33.7210 C   0  0  0  0  0  0  0  0  0  0  0  0
   37.0110   26.6720   33.4110 N   0  0  0  0  0  0  0  0  0  0  0  0
   36.8760   27.7740   34.2000 C   0  0  0  0  0  0  0  0  0  0  0  0
   37.5950   27.8660   35.3390 N   0  0  0  0  0  0  0  0  0  0  0  0
   38.9180   27.1300   36.6320 H   0  0  0  0  0  0  0  0  0  0  0  0
   37.9860   24.7620   33.1330 H   0  0  0  0  0  0  0  0  0  0  0  0
   40.8410   24.8270   34.9130 C   0  0  0  0  0  0  0  0  0  0  0  0
   39.5360   24.7640   35.3980 C   0  0  0  0  0  0  0  0  0  0  0  0
   39.2520   23.7820   36.3270 C   0  0  0  0  0  0  0  0  0  0  0  0
   40.2630   22.9100   36.7340 C   0  0  0  0  0  0  0  0  0  0  0  0
   40.2860   21.8790   37.6000 N   0  0  0  0  0  0  0  0  0  0  0  0
   41.4990   21.3500   37.6480 C   0  0  0  0  0  0  0  0  0  0  0  0
   42.2940   22.0370   36.8030 N   0  0  0  0  0  0  0  0  0  0  0  0
   41.5360   22.9880   36.2460 C   0  0  0  0  0  0  0  0  0  0  0  0
   41.8360   23.9630   35.3190 C   0  0  0  0  0  0  0  0  0  0  0  0
   41.2210   25.5460   34.1730 H   0  0  0  0  0  0  0  0  0  0  0  0
   38.2470   23.7210   36.7120 H   0  0  0  0  0  0  0  0  0  0  0  0
   39.4670   21.5500   38.1510 H   0  0  0  0  0  0  0  0  0  0  0  0
   41.8380   20.5030   38.2550 H   0  0  0  0  0  0  0  0  0  0  0  0
   42.8610   23.9970   34.9520 H   0  0  0  0  0  0  0  0  0  0  0  0
   35.9420   28.8500   33.7830 C   0  0  0  0  0  0  0  0  0  0  0  0
   36.5490   29.5980   33.2250 H   0  0  0  0  0  0  0  0  0  0  0  0
   35.1760   28.4950   33.0750 H   0  0  0  0  0  0  0  0  0  0  0  0
   35.2400   29.5010   34.9350 C   0  0  0  0  0  3  0  0  0  0  0  0
   33.7780   29.7000   34.7380 C   0  0  0  0  0  2  0  0  0  0  0  0
   33.4620   31.1390   34.3120 C   0  0  0  0  0  2  0  0  0  0  0  0
   33.6950   31.9880   35.5630 C   0  0  0  0  0  2  0  0  0  0  0  0
   35.0370   31.6610   36.1830 C   0  0  0  0  0  2  0  0  0  0  0  0
   35.8850   30.8270   35.2400 C   0  0  0  0  0  2  0  0  0  0  0  0
  1  7  1  0  0  0  0
  2 10  1  0  0  0  0
  2  1  2  0  0  0  0
  3  2  1  0  0  0  0
  4  3  2  0  0  0  0
  4  5  1  0  0  0  0
  5  6  2  0  0  0  0
  6  1  1  0  0  0  0
  8  3  1  0  0  0  0
  9 17  2  0  0  0  0
  9 10  1  0  0  0  0
 10 11  2  0  0  0  0
 11 19  1  0  0  0  0
 11 12  1  0  0  0  0
 12 13  1  0  0  0  0
 13 14  1  0  0  0  0
 13 20  1  0  0  0  0
 14 21  1  0  0  0  0
 15 14  2  0  0  0  0
 16 12  2  0  0  0  0
 16 15  1  0  0  0  0
 17 16  1  0  0  0  0
 18  9  1  0  0  0  0
 22 17  1  0  0  0  0
 23  5  1  0  0  0  0
 23 26  1  0  0  0  0
 24 23  1  0  0  0  0
 25 23  1  0  0  0  0
 26 31  1  0  0  0  0
 27 26  1  0  0  0  0
 28 27  1  0  0  0  0
 28 29  1  0  0  0  0
 29 30  1  0  0  0  0
 31 30  1  0  0  0  0
M  END
>  <minimizedAffinity>
-5.74541521

$$$$

 OpenBabel03272501453D

 31 34  0  0  0  0  0  0  0  0999 V2000
   36.4770   28.0200   34.3250 C   0  0  0  0  0  0  0  0  0  0  0  0
   35.5280   28.9110   33.7470 C   0  0  0  0  0  0  0  0  0  0  0  0
   35.1810   28.6950   32.4200 C   0  0  0  0  0  0  0  0  0  0  0  0
   35.7490   27.6680   31.7540 N   0  0  0  0  0  0  0  0  0  0  0  0
   36.6550   26.8310   32.3320 C   0  0  0  0  0  0  0  0  0  0  0  0
   37.0070   27.0230   33.6210 N   0  0  0  0  0  0  0  0  0  0  0  0
   36.8740   28.0270   35.3350 H   0  0  0  0  0  0  0  0  0  0  0  0
   34.4610   29.3850   32.0110 H   0  0  0  0  0  0  0  0  0  0  0  0
   35.9850   30.7050   35.3110 C   0  0  0  0  0  0  0  0  0  0  0  0
   35.0390   29.9360   34.6370 C   0  0  0  0  0  0  0  0  0  0  0  0
   33.7070   30.2150   34.8770 C   0  0  0  0  0  0  0  0  0  0  0  0
   33.3710   31.2360   35.7680 C   0  0  0  0  0  0  0  0  0  0  0  0
   32.1900   31.7240   36.1930 N   0  0  0  0  0  0  0  0  0  0  0  0
   32.3870   32.7100   37.0550 C   0  0  0  0  0  0  0  0  0  0  0  0
   33.7160   32.8810   37.2050 N   0  0  0  0  0  0  0  0  0  0  0  0
   34.3130   31.9790   36.4190 C   0  0  0  0  0  0  0  0  0  0  0  0
   35.6460   31.7130   36.1890 C   0  0  0  0  0  0  0  0  0  0  0  0
   37.0770   30.6050   35.2290 H   0  0  0  0  0  0  0  0  0  0  0  0
   32.9630   29.6290   34.3640 H   0  0  0  0  0  0  0  0  0  0  0  0
   31.2590   31.3750   35.8870 H   0  0  0  0  0  0  0  0  0  0  0  0
   31.6310   33.3080   37.5760 H   0  0  0  0  0  0  0  0  0  0  0  0
   36.3710   32.3260   36.7240 H   0  0  0  0  0  0  0  0  0  0  0  0
   37.2300   25.7230   31.5280 C   0  0  0  0  0  0  0  0  0  0  0  0
   36.8330   25.8430   30.4940 H   0  0  0  0  0  0  0  0  0  0  0  0
   38.3260   25.7890   31.4390 H   0  0  0  0  0  0  0  0  0  0  0  0
   36.8910   24.3660   32.0640 C   0  0  0  0  0  3  0  0  0  0  0  0
   38.0050   23.3820   32.0100 C   0  0  0  0  0  2  0  0  0  0  0  0
   37.8670   22.4470   30.8020 C   0  0  0  0  0  2  0  0  0  0  0  0
   36.6940   21.5250   31.1410 C   0  0  0  0  0  2  0  0  0  0  0  0
   35.5030   22.3330   31.6100 C   0  0  0  0  0  2  0  0  0  0  0  0
   35.7000   23.8110   31.3260 C   0  0  0  0  0  2  0  0  0  0  0  0
  1  7  1  0  0  0  0
  2  1  1  0  0  0  0
  2 10  1  0  0  0  0
  3  2  2  0  0  0  0
  4  5  2  0  0  0  0
  4  3  1  0  0  0  0
  5  6  1  0  0  0  0
  6  1  2  0  0  0  0
  8  3  1  0  0  0  0
  9 17  1  0  0  0  0
 10 11  1  0  0  0  0
 10  9  2  0  0  0  0
 11 12  2  0  0  0  0
 12 13  1  0  0  0  0
 12 16  1  0  0  0  0
 13 14  1  0  0  0  0
 14 15  2  0  0  0  0
 14 21  1  0  0  0  0
 16 15  1  0  0  0  0
 17 16  2  0  0  0  0
 17 22  1  0  0  0  0
 18  9  1  0  0  0  0
 19 11  1  0  0  0  0
 20 13  1  0  0  0  0
 23 26  1  0  0  0  0
 23  5  1  0  0  0  0
 24 23  1  0  0  0  0
 25 23  1  0  0  0  0
 27 26  1  0  0  0  0
 28 29  1  0  0  0  0
 28 27  1  0  0  0  0
 29 30  1  0  0  0  0
 31 30  1  0  0  0  0
 31 26  1  0  0  0  0
M  END
>  <minimizedAffinity>
-5.58927631

$$$$

 OpenBabel03272501453D

 31 34  0  0  0  0  0  0  0  0999 V2000
   36.7040   26.7550   32.7680 C   0  0  0  0  0  0  0  0  0  0  0  0
   36.6650   27.7780   33.7590 C   0  0  0  0  0  0  0  0  0  0  0  0
   37.2720   27.5070   34.9770 C   0  0  0  0  0  0  0  0  0  0  0  0
   37.8620   26.3060   35.1610 N   0  0  0  0  0  0  0  0  0  0  0  0
   37.8850   25.3460   34.1950 C   0  0  0  0  0  0  0  0  0  0  0  0
   37.3000   25.5890   33.0040 N   0  0  0  0  0  0  0  0  0  0  0  0
   36.2870   26.7760   31.7670 H   0  0  0  0  0  0  0  0  0  0  0  0
   37.2260   28.3000   35.7050 H   0  0  0  0  0  0  0  0  0  0  0  0
   35.6200   29.8820   34.3570 C   0  0  0  0  0  0  0  0  0  0  0  0
   35.9910   28.9880   33.3540 C   0  0  0  0  0  0  0  0  0  0  0  0
   35.6800   29.3320   32.0520 C   0  0  0  0  0  0  0  0  0  0  0  0
   35.0210   30.5360   31.7990 C   0  0  0  0  0  0  0  0  0  0  0  0
   34.5970   31.1250   30.6650 N   0  0  0  0  0  0  0  0  0  0  0  0
   34.0150   32.2820   30.9400 C   0  0  0  0  0  0  0  0  0  0  0  0
   34.0530   32.4660   32.2750 N   0  0  0  0  0  0  0  0  0  0  0  0
   34.6670   31.3990   32.7960 C   0  0  0  0  0  0  0  0  0  0  0  0
   34.9700   31.0710   34.1000 C   0  0  0  0  0  0  0  0  0  0  0  0
   35.7930   29.7520   35.4340 H   0  0  0  0  0  0  0  0  0  0  0  0
   35.9600   28.6510   31.2650 H   0  0  0  0  0  0  0  0  0  0  0  0
   34.7120   30.7250   29.7110 H   0  0  0  0  0  0  0  0  0  0  0  0
   33.5700   32.9930   30.2360 H   0  0  0  0  0  0  0  0  0  0  0  0
   34.6730   31.7820   34.8700 H   0  0  0  0  0  0  0  0  0  0  0  0
   38.5590   24.0530   34.4800 C   0  0  0  0  0  0  0  0  0  0  0  0
   37.7580   23.2820   34.5250 H   0  0  0  0  0  0  0  0  0  0  0  0
   39.2330   23.7390   33.6670 H   0  0  0  0  0  0  0  0  0  0  0  0
   39.3460   24.0660   35.7540 C   0  0  0  0  0  3  0  0  0  0  0  0
   40.7680   23.6540   35.6070 C   0  0  0  0  0  2  0  0  0  0  0  0
   40.9720   22.1910   36.0210 C   0  0  0  0  0  2  0  0  0  0  0  0
   40.8310   22.1810   37.5440 C   0  0  0  0  0  2  0  0  0  0  0  0
   39.5770   22.9170   37.9650 C   0  0  0  0  0  2  0  0  0  0  0  0
   38.6750   23.1850   36.7750 C   0  0  0  0  0  2  0  0  0  0  0  0
  1  6  2  0  0  0  0
  1  2  1  0  0  0  0
  2  3  2  0  0  0  0
  3  4  1  0  0  0  0
  3  8  1  0  0  0  0
  5 23  1  0  0  0  0
  5  4  2  0  0  0  0
  6  5  1  0  0  0  0
  7  1  1  0  0  0  0
  9 18  1  0  0  0  0
 10  2  1  0  0  0  0
 10  9  2  0  0  0  0
 11 10  1  0  0  0  0
 12 11  2  0  0  0  0
 12 16  1  0  0  0  0
 13 14  1  0  0  0  0
 13 12  1  0  0  0  0
 14 15  2  0  0  0  0
 15 16  1  0  0  0  0
 16 17  2  0  0  0  0
 17  9  1  0  0  0  0
 17 22  1  0  0  0  0
 19 11  1  0  0  0  0
 20 13  1  0  0  0  0
 21 14  1  0  0  0  0
 23 24  1  0  0  0  0
 23 26  1  0  0  0  0
 25 23  1  0  0  0  0
 26 31  1  0  0  0  0
 27 26  1  0  0  0  0
 27 28  1  0  0  0  0
 28 29  1  0  0  0  0
 29 30  1  0  0  0  0
 31 30  1  0  0  0  0
M  END
>  <minimizedAffinity>
-5.56990862

$$$$

 OpenBabel03272501453D

 31 34  0  0  0  0  0  0  0  0999 V2000
   35.7620   27.5170   31.5680 C   0  0  0  0  0  0  0  0  0  0  0  0
   36.3360   27.7680   32.8470 C   0  0  0  0  0  0  0  0  0  0  0  0
   37.0690   26.7420   33.4270 C   0  0  0  0  0  0  0  0  0  0  0  0
   37.2000   25.5740   32.7620 N   0  0  0  0  0  0  0  0  0  0  0  0
   36.6390   25.3610   31.5390 C   0  0  0  0  0  0  0  0  0  0  0  0
   35.9230   26.3460   30.9570 N   0  0  0  0  0  0  0  0  0  0  0  0
   35.1590   28.1850   30.9610 H   0  0  0  0  0  0  0  0  0  0  0  0
   37.4910   26.9620   34.3940 H   0  0  0  0  0  0  0  0  0  0  0  0
   35.8390   30.1090   32.4630 C   0  0  0  0  0  0  0  0  0  0  0  0
   36.0810   29.0860   33.3780 C   0  0  0  0  0  0  0  0  0  0  0  0
   36.0600   29.4160   34.7190 C   0  0  0  0  0  0  0  0  0  0  0  0
   35.8020   30.7350   35.0960 C   0  0  0  0  0  0  0  0  0  0  0  0
   35.7210   31.3430   36.2950 N   0  0  0  0  0  0  0  0  0  0  0  0
   35.4520   32.6300   36.1380 C   0  0  0  0  0  0  0  0  0  0  0  0
   35.3520   32.8820   34.8170 N   0  0  0  0  0  0  0  0  0  0  0  0
   35.5670   31.7240   34.1840 C   0  0  0  0  0  0  0  0  0  0  0  0
   35.5840   31.4100   32.8420 C   0  0  0  0  0  0  0  0  0  0  0  0
   35.8240   30.0070   31.3680 H   0  0  0  0  0  0  0  0  0  0  0  0
   36.2460   28.6360   35.4390 H   0  0  0  0  0  0  0  0  0  0  0  0
   35.8510   30.8670   37.2110 H   0  0  0  0  0  0  0  0  0  0  0  0
   35.3240   33.3890   36.9170 H   0  0  0  0  0  0  0  0  0  0  0  0
   35.3920   32.2230   32.1430 H   0  0  0  0  0  0  0  0  0  0  0  0
   36.8350   24.0470   30.8740 C   0  0  0  0  0  0  0  0  0  0  0  0
   36.0560   23.9730   30.0830 H   0  0  0  0  0  0  0  0  0  0  0  0
   37.8030   23.9770   30.3520 H   0  0  0  0  0  0  0  0  0  0  0  0
   36.7350   22.8890   31.8180 C   0  0  0  0  0  3  0  0  0  0  0  0
   37.5950   21.7260   31.4660 C   0  0  0  0  0  2  0  0  0  0  0  0
   36.7930   20.6350   30.7460 C   0  0  0  0  0  2  0  0  0  0  0  0
   35.9060   20.0110   31.8260 C   0  0  0  0  0  2  0  0  0  0  0  0
   35.1830   21.0890   32.6060 C   0  0  0  0  0  2  0  0  0  0  0  0
   35.3010   22.4350   31.9140 C   0  0  0  0  0  2  0  0  0  0  0  0
  1  2  1  0  0  0  0
  2 10  1  0  0  0  0
  2  3  2  0  0  0  0
  3  8  1  0  0  0  0
  4  3  1  0  0  0  0
  5  4  2  0  0  0  0
  6  5  1  0  0  0  0
  6  1  2  0  0  0  0
  7  1  1  0  0  0  0
  9 17  2  0  0  0  0
  9 10  1  0  0  0  0
 10 11  2  0  0  0  0
 11 12  1  0  0  0  0
 11 19  1  0  0  0  0
 12 13  1  0  0  0  0
 13 20  1  0  0  0  0
 14 13  1  0  0  0  0
 14 21  1  0  0  0  0
 15 14  2  0  0  0  0
 16 15  1  0  0  0  0
 16 12  2  0  0  0  0
 17 16  1  0  0  0  0
 18  9  1  0  0  0  0
 22 17  1  0  0  0  0
 23  5  1  0  0  0  0
 23 26  1  0  0  0  0
 24 23  1  0  0  0  0
 25 23  1  0  0  0  0
 26 31  1  0  0  0  0
 27 26  1  0  0  0  0
 28 27  1  0  0  0  0
 28 29  1  0  0  0  0
 29 30  1  0  0  0  0
 31 30  1  0  0  0  0
M  END
>  <minimizedAffinity>
-5.56752443

$$$$

 OpenBabel03272501453D

 31 34  0  0  0  0  0  0  0  0999 V2000
   37.3690   24.6370   32.0430 C   0  0  0  0  0  0  0  0  0  0  0  0
   36.1850   23.9490   31.6510 C   0  0  0  0  0  0  0  0  0  0  0  0
   35.1450   24.7130   31.1420 C   0  0  0  0  0  0  0  0  0  0  0  0
   35.3030   26.0500   31.0420 N   0  0  0  0  0  0  0  0  0  0  0  0
   36.4470   26.6830   31.4250 C   0  0  0  0  0  0  0  0  0  0  0  0
   37.4710   25.9590   31.9230 N   0  0  0  0  0  0  0  0  0  0  0  0
   38.2790   24.2210   32.4620 H   0  0  0  0  0  0  0  0  0  0  0  0
   34.2630   24.1630   30.8540 H   0  0  0  0  0  0  0  0  0  0  0  0
   37.4740   21.9390   32.0690 C   0  0  0  0  0  0  0  0  0  0  0  0
   36.2280   22.5170   31.8340 C   0  0  0  0  0  0  0  0  0  0  0  0
   35.1350   21.6740   31.7910 C   0  0  0  0  0  0  0  0  0  0  0  0
   35.3190   20.3030   31.9820 C   0  0  0  0  0  0  0  0  0  0  0  0
   34.4670   19.2600   31.9940 N   0  0  0  0  0  0  0  0  0  0  0  0
   35.1260   18.1340   32.2180 C   0  0  0  0  0  0  0  0  0  0  0  0
   36.4340   18.4310   32.3560 N   0  0  0  0  0  0  0  0  0  0  0  0
   36.5480   19.7550   32.2110 C   0  0  0  0  0  0  0  0  0  0  0  0
   37.6490   20.5830   32.2570 C   0  0  0  0  0  0  0  0  0  0  0  0
   38.4340   22.4720   32.1280 H   0  0  0  0  0  0  0  0  0  0  0  0
   34.1650   22.1060   31.6110 H   0  0  0  0  0  0  0  0  0  0  0  0
   33.4390   19.3330   31.8490 H   0  0  0  0  0  0  0  0  0  0  0  0
   34.7180   17.1200   32.2860 H   0  0  0  0  0  0  0  0  0  0  0  0
   38.6140   20.1130   32.4420 H   0  0  0  0  0  0  0  0  0  0  0  0
   36.5380   28.1580   31.2790 C   0  0  0  0  0  0  0  0  0  0  0  0
   37.5670   28.4440   31.5940 H   0  0  0  0  0  0  0  0  0  0  0  0
   36.4410   28.4870   30.2320 H   0  0  0  0  0  0  0  0  0  0  0  0
   35.5180   28.8950   32.0910 C   0  0  0  0  0  3  0  0  0  0  0  0
   35.2000   30.2610   31.5940 C   0  0  0  0  0  2  0  0  0  0  0  0
   35.9550   31.3350   32.3880 C   0  0  0  0  0  2  0  0  0  0  0  0
   35.2770   31.3700   33.7590 C   0  0  0  0  0  2  0  0  0  0  0  0
   35.1440   29.9710   34.3200 C   0  0  0  0  0  2  0  0  0  0  0  0
   35.9760   28.9810   33.5240 C   0  0  0  0  0  2  0  0  0  0  0  0
  1  7  1  0  0  0  0
  2 10  1  0  0  0  0
  2  1  2  0  0  0  0
  3  2  1  0  0  0  0
  4  3  2  0  0  0  0
  4  5  1  0  0  0  0
  5  6  2  0  0  0  0
  6  1  1  0  0  0  0
  8  3  1  0  0  0  0
  9 18  1  0  0  0  0
  9 17  1  0  0  0  0
 10  9  2  0  0  0  0
 11 10  1  0  0  0  0
 11 12  2  0  0  0  0
 12 13  1  0  0  0  0
 12 16  1  0  0  0  0
 13 14  1  0  0  0  0
 14 21  1  0  0  0  0
 14 15  2  0  0  0  0
 16 17  2  0  0  0  0
 16 15  1  0  0  0  0
 17 22  1  0  0  0  0
 19 11  1  0  0  0  0
 20 13  1  0  0  0  0
 23  5  1  0  0  0  0
 23 24  1  0  0  0  0
 23 26  1  0  0  0  0
 25 23  1  0  0  0  0
 26 31  1  0  0  0  0
 27 26  1  0  0  0  0
 27 28  1  0  0  0  0
 28 29  1  0  0  0  0
 29 30  1  0  0  0  0
 31 30  1  0  0  0  0
M  END
>  <minimizedAffinity>
-5.51193523

$$$$

 OpenBabel03272501453D

 31 34  0  0  0  0  0  0  0  0999 V2000
   35.4880   28.7570   32.3760 C   0  0  0  0  0  0  0  0  0  0  0  0
   35.8330   28.9120   33.7490 C   0  0  0  0  0  0  0  0  0  0  0  0
   36.6360   27.9330   34.3180 C   0  0  0  0  0  0  0  0  0  0  0  0
   37.0460   26.8980   33.5530 N   0  0  0  0  0  0  0  0  0  0  0  0
   36.7020   26.7750   32.2410 C   0  0  0  0  0  0  0  0  0  0  0  0
   35.9210   27.7160   31.6690 N   0  0  0  0  0  0  0  0  0  0  0  0
   34.8740   29.4070   31.7620 H   0  0  0  0  0  0  0  0  0  0  0  0
   36.8790   28.0780   35.3570 H   0  0  0  0  0  0  0  0  0  0  0  0
   34.4120   30.8720   33.6340 C   0  0  0  0  0  0  0  0  0  0  0  0
   35.2950   30.0940   34.3790 C   0  0  0  0  0  0  0  0  0  0  0  0
   35.5870   30.5190   35.6610 C   0  0  0  0  0  0  0  0  0  0  0  0
   34.9970   31.6870   36.1480 C   0  0  0  0  0  0  0  0  0  0  0  0
   35.0890   32.3340   37.3250 N   0  0  0  0  0  0  0  0  0  0  0  0
   34.3290   33.4170   37.3110 C   0  0  0  0  0  0  0  0  0  0  0  0
   33.7230   33.4930   36.1090 N   0  0  0  0  0  0  0  0  0  0  0  0
   34.1340   32.4360   35.4010 C   0  0  0  0  0  0  0  0  0  0  0  0
   33.8320   32.0250   34.1210 C   0  0  0  0  0  0  0  0  0  0  0  0
   34.0830   30.6700   32.6040 H   0  0  0  0  0  0  0  0  0  0  0  0
   36.2690   29.9270   36.2510 H   0  0  0  0  0  0  0  0  0  0  0  0
   35.6730   32.0230   38.1280 H   0  0  0  0  0  0  0  0  0  0  0  0
   34.1890   34.1500   38.1140 H   0  0  0  0  0  0  0  0  0  0  0  0
   33.1390   32.6460   33.5540 H   0  0  0  0  0  0  0  0  0  0  0  0
   37.1990   25.6070   31.4710 C   0  0  0  0  0  0  0  0  0  0  0  0
   36.7470   25.6800   30.4560 H   0  0  0  0  0  0  0  0  0  0  0  0
   38.2900   25.6340   31.3170 H   0  0  0  0  0  0  0  0  0  0  0  0
   36.8550   24.2940   32.1030 C   0  0  0  0  0  3  0  0  0  0  0  0
   37.9650   23.3030   32.1190 C   0  0  0  0  0  2  0  0  0  0  0  0
   37.8230   22.2850   30.9810 C   0  0  0  0  0  2  0  0  0  0  0  0
   36.6460   21.3940   31.3860 C   0  0  0  0  0  2  0  0  0  0  0  0
   35.4590   22.2390   31.7970 C   0  0  0  0  0  2  0  0  0  0  0  0
   35.6620   23.6920   31.4080 C   0  0  0  0  0  2  0  0  0  0  0  0
  1  2  1  0  0  0  0
  2  3  2  0  0  0  0
  2 10  1  0  0  0  0
  3  8  1  0  0  0  0
  4  3  1  0  0  0  0
  5  4  2  0  0  0  0
  6  5  1  0  0  0  0
  6  1  2  0  0  0  0
  7  1  1  0  0  0  0
  9 17  2  0  0  0  0
  9 10  1  0  0  0  0
 10 11  2  0  0  0  0
 11 12  1  0  0  0  0
 11 19  1  0  0  0  0
 12 13  1  0  0  0  0
 13 20  1  0  0  0  0
 14 13  1  0  0  0  0
 14 21  1  0  0  0  0
 15 14  2  0  0  0  0
 16 15  1  0  0  0  0
 16 12  2  0  0  0  0
 17 16  1  0  0  0  0
 18  9  1  0  0  0  0
 22 17  1  0  0  0  0
 23 26  1  0  0  0  0
 23  5  1  0  0  0  0
 24 23  1  0  0  0  0
 25 23  1  0  0  0  0
 26 27  1  0  0  0  0
 28 29  1  0  0  0  0
 28 27  1  0  0  0  0
 29 30  1  0  0  0  0
 31 30  1  0  0  0  0
 31 26  1  0  0  0  0
M  END
>  <minimizedAffinity>
-5.47013235

$$$$

 OpenBabel03272501453D

 31 34  0  0  0  0  0  0  0  0999 V2000
   36.2220   25.8520   31.2690 C   0  0  0  0  0  0  0  0  0  0  0  0
   36.6220   26.6340   32.3910 C   0  0  0  0  0  0  0  0  0  0  0  0
   37.3480   25.9940   33.3850 C   0  0  0  0  0  0  0  0  0  0  0  0
   37.6360   24.6820   33.2440 N   0  0  0  0  0  0  0  0  0  0  0  0
   37.2410   23.9580   32.1600 C   0  0  0  0  0  0  0  0  0  0  0  0
   36.5340   24.5610   31.1810 N   0  0  0  0  0  0  0  0  0  0  0  0
   35.6520   26.1670   30.4020 H   0  0  0  0  0  0  0  0  0  0  0  0
   37.6360   26.6110   34.2200 H   0  0  0  0  0  0  0  0  0  0  0  0
   35.9510   28.6530   33.5510 C   0  0  0  0  0  0  0  0  0  0  0  0
   36.2170   28.0180   32.3400 C   0  0  0  0  0  0  0  0  0  0  0  0
   36.0690   28.7650   31.1860 C   0  0  0  0  0  0  0  0  0  0  0  0
   35.6670   30.0980   31.2800 C   0  0  0  0  0  0  0  0  0  0  0  0
   35.4410   31.0510   30.3560 N   0  0  0  0  0  0  0  0  0  0  0  0
   35.0690   32.1780   30.9420 C   0  0  0  0  0  0  0  0  0  0  0  0
   35.0460   31.9730   32.2750 N   0  0  0  0  0  0  0  0  0  0  0  0
   35.4110   30.7030   32.4770 C   0  0  0  0  0  0  0  0  0  0  0  0
   35.5550   29.9720   33.6370 C   0  0  0  0  0  0  0  0  0  0  0  0
   36.0200   28.1970   34.5490 H   0  0  0  0  0  0  0  0  0  0  0  0
   36.2710   28.2870   30.2420 H   0  0  0  0  0  0  0  0  0  0  0  0
   35.5460   30.9170   29.3290 H   0  0  0  0  0  0  0  0  0  0  0  0
   34.8150   33.1310   30.4660 H   0  0  0  0  0  0  0  0  0  0  0  0
   35.3430   30.4850   34.5740 H   0  0  0  0  0  0  0  0  0  0  0  0
   37.6030   22.5200   32.0820 C   0  0  0  0  0  0  0  0  0  0  0  0
   38.4610   22.4470   31.3760 H   0  0  0  0  0  0  0  0  0  0  0  0
   37.9680   22.1220   33.0420 H   0  0  0  0  0  0  0  0  0  0  0  0
   36.4730   21.6510   31.6220 C   0  0  0  0  0  3  0  0  0  0  0  0
   35.3920   21.4580   32.6260 C   0  0  0  0  0  2  0  0  0  0  0  0
   35.5370   20.1160   33.3540 C   0  0  0  0  0  2  0  0  0  0  0  0
   35.1530   19.0560   32.3200 C   0  0  0  0  0  2  0  0  0  0  0  0
   35.8900   19.2930   31.0190 C   0  0  0  0  0  2  0  0  0  0  0  0
   37.0050   20.3070   31.2000 C   0  0  0  0  0  2  0  0  0  0  0  0
  1  2  1  0  0  0  0
  2  3  2  0  0  0  0
  3  8  1  0  0  0  0
  4  3  1  0  0  0  0
  5  4  2  0  0  0  0
  6  1  2  0  0  0  0
  6  5  1  0  0  0  0
  7  1  1  0  0  0  0
  9 17  1  0  0  0  0
  9 18  1  0  0  0  0
 10  2  1  0  0  0  0
 10  9  2  0  0  0  0
 11 12  2  0  0  0  0
 11 10  1  0  0  0  0
 12 16  1  0  0  0  0
 13 14  1  0  0  0  0
 13 12  1  0  0  0  0
 14 15  2  0  0  0  0
 15 16  1  0  0  0  0
 16 17  2  0  0  0  0
 17 22  1  0  0  0  0
 19 11  1  0  0  0  0
 20 13  1  0  0  0  0
 21 14  1  0  0  0  0
 23  5  1  0  0  0  0
 23 25  1  0  0  0  0
 24 23  1  0  0  0  0
 26 23  1  0  0  0  0
 26 27  1  0  0  0  0
 27 28  1  0  0  0  0
 29 28  1  0  0  0  0
 30 31  1  0  0  0  0
 30 29  1  0  0  0  0
 31 26  1  0  0  0  0
M  END
>  <minimizedAffinity>
-5.46605778

$$$$

 OpenBabel03272501453D

 31 34  0  0  0  0  0  0  0  0999 V2000
   35.8870   26.5330   31.3330 C   0  0  0  0  0  0  0  0  0  0  0  0
   36.6490   25.7160   32.2160 C   0  0  0  0  0  0  0  0  0  0  0  0
   37.1000   26.3000   33.3910 C   0  0  0  0  0  0  0  0  0  0  0  0
   36.7990   27.5930   33.6370 N   0  0  0  0  0  0  0  0  0  0  0  0
   36.0680   28.3520   32.7740 C   0  0  0  0  0  0  0  0  0  0  0  0
   35.6190   27.8040   31.6250 N   0  0  0  0  0  0  0  0  0  0  0  0
   35.4540   26.2620   30.3760 H   0  0  0  0  0  0  0  0  0  0  0  0
   37.6740   25.6570   34.0390 H   0  0  0  0  0  0  0  0  0  0  0  0
   38.1230   24.0130   31.3210 C   0  0  0  0  0  0  0  0  0  0  0  0
   36.8490   24.3590   31.7660 C   0  0  0  0  0  0  0  0  0  0  0  0
   35.8780   23.3760   31.7380 C   0  0  0  0  0  0  0  0  0  0  0  0
   36.2070   22.1010   31.2750 C   0  0  0  0  0  0  0  0  0  0  0  0
   35.4920   20.9690   31.1330 N   0  0  0  0  0  0  0  0  0  0  0  0
   36.2570   20.0050   30.6430 C   0  0  0  0  0  0  0  0  0  0  0  0
   37.4960   20.5020   30.4560 N   0  0  0  0  0  0  0  0  0  0  0  0
   37.4620   21.7810   30.8420 C   0  0  0  0  0  0  0  0  0  0  0  0
   38.4410   22.7510   30.8640 C   0  0  0  0  0  0  0  0  0  0  0  0
   38.9960   24.6790   31.2780 H   0  0  0  0  0  0  0  0  0  0  0  0
   34.8880   23.6290   32.0800 H   0  0  0  0  0  0  0  0  0  0  0  0
   34.4850   20.8690   31.3750 H   0  0  0  0  0  0  0  0  0  0  0  0
   35.9710   18.9720   30.4150 H   0  0  0  0  0  0  0  0  0  0  0  0
   39.4310   22.4610   30.5130 H   0  0  0  0  0  0  0  0  0  0  0  0
   35.7800   29.7660   33.1230 C   0  0  0  0  0  0  0  0  0  0  0  0
   36.7050   30.3430   32.8970 H   0  0  0  0  0  0  0  0  0  0  0  0
   34.9890   30.2050   32.4930 H   0  0  0  0  0  0  0  0  0  0  0  0
   35.3850   29.9510   34.5560 C   0  0  0  0  0  3  0  0  0  0  0  0
   33.9280   29.8030   34.8210 C   0  0  0  0  0  2  0  0  0  0  0  0
   33.2350   31.1670   34.9200 C   0  0  0  0  0  2  0  0  0  0  0  0
   33.7040   31.7600   36.2500 C   0  0  0  0  0  2  0  0  0  0  0  0
   35.2110   31.6670   36.3700 C   0  0  0  0  0  2  0  0  0  0  0  0
   35.8430   31.3030   35.0390 C   0  0  0  0  0  2  0  0  0  0  0  0
  1  6  2  0  0  0  0
  1  2  1  0  0  0  0
  2  3  2  0  0  0  0
  3  4  1  0  0  0  0
  3  8  1  0  0  0  0
  5 23  1  0  0  0  0
  5  4  2  0  0  0  0
  6  5  1  0  0  0  0
  7  1  1  0  0  0  0
  9 10  1  0  0  0  0
 10  2  1  0  0  0  0
 11 10  2  0  0  0  0
 11 19  1  0  0  0  0
 12 11  1  0  0  0  0
 13 12  1  0  0  0  0
 13 20  1  0  0  0  0
 14 13  1  0  0  0  0
 15 14  2  0  0  0  0
 15 16  1  0  0  0  0
 16 17  1  0  0  0  0
 16 12  2  0  0  0  0
 17  9  2  0  0  0  0
 18  9  1  0  0  0  0
 21 14  1  0  0  0  0
 22 17  1  0  0  0  0
 23 26  1  0  0  0  0
 24 23  1  0  0  0  0
 25 23  1  0  0  0  0
 26 27  1  0  0  0  0
 26 31  1  0  0  0  0
 27 28  1  0  0  0  0
 28 29  1  0  0  0  0
 29 30  1  0  0  0  0
 31 30  1  0  0  0  0
M  END
>  <minimizedAffinity>
-5.44767189

$$$$

 OpenBabel03272501453D

 31 34  0  0  0  0  0  0  0  0999 V2000
   38.2870   26.0950   31.3810 C   0  0  0  0  0  0  0  0  0  0  0  0
   37.5550   27.2190   31.8590 C   0  0  0  0  0  0  0  0  0  0  0  0
   37.0310   27.1380   33.1420 C   0  0  0  0  0  0  0  0  0  0  0  0
   37.2390   26.0150   33.8630 N   0  0  0  0  0  0  0  0  0  0  0  0
   37.9440   24.9540   33.3810 C   0  0  0  0  0  0  0  0  0  0  0  0
   38.4620   25.0130   32.1360 N   0  0  0  0  0  0  0  0  0  0  0  0
   38.7650   25.9680   30.4160 H   0  0  0  0  0  0  0  0  0  0  0  0
   36.4820   28.0030   33.4750 H   0  0  0  0  0  0  0  0  0  0  0  0
   36.7640   29.4530   31.3490 C   0  0  0  0  0  0  0  0  0  0  0  0
   37.4590   28.3190   30.9300 C   0  0  0  0  0  0  0  0  0  0  0  0
   37.9960   28.3390   29.6580 C   0  0  0  0  0  0  0  0  0  0  0  0
   37.8260   29.4720   28.8590 C   0  0  0  0  0  0  0  0  0  0  0  0
   38.2240   29.7750   27.6090 N   0  0  0  0  0  0  0  0  0  0  0  0
   37.8130   30.9910   27.2820 C   0  0  0  0  0  0  0  0  0  0  0  0
   37.1330   31.5030   28.3270 N   0  0  0  0  0  0  0  0  0  0  0  0
   37.1420   30.5730   29.2880 C   0  0  0  0  0  0  0  0  0  0  0  0
   36.6000   30.5690   30.5550 C   0  0  0  0  0  0  0  0  0  0  0  0
   36.2790   29.5900   32.3260 H   0  0  0  0  0  0  0  0  0  0  0  0
   38.5360   27.4700   29.3190 H   0  0  0  0  0  0  0  0  0  0  0  0
   38.7750   29.1440   26.9930 H   0  0  0  0  0  0  0  0  0  0  0  0
   37.9760   31.5230   26.3380 H   0  0  0  0  0  0  0  0  0  0  0  0
   36.0620   31.4640   30.8650 H   0  0  0  0  0  0  0  0  0  0  0  0
   38.1280   23.7590   34.2430 C   0  0  0  0  0  0  0  0  0  0  0  0
   37.1180   23.3110   34.3830 H   0  0  0  0  0  0  0  0  0  0  0  0
   38.7380   22.9790   33.7600 H   0  0  0  0  0  0  0  0  0  0  0  0
   38.7480   24.0770   35.5680 C   0  0  0  0  0  3  0  0  0  0  0  0
   40.2080   23.8030   35.6500 C   0  0  0  0  0  2  0  0  0  0  0  0
   40.4890   22.4640   36.3440 C   0  0  0  0  0  2  0  0  0  0  0  0
   40.1630   22.7020   37.8200 C   0  0  0  0  0  2  0  0  0  0  0  0
   38.8070   23.3580   37.9650 C   0  0  0  0  0  2  0  0  0  0  0  0
   38.0370   23.3160   36.6570 C   0  0  0  0  0  2  0  0  0  0  0  0
  1  2  2  0  0  0  0
  1  6  1  0  0  0  0
  2  3  1  0  0  0  0
  3  8  1  0  0  0  0
  3  4  2  0  0  0  0
  5  4  1  0  0  0  0
  5 23  1  0  0  0  0
  6  5  2  0  0  0  0
  7  1  1  0  0  0  0
  9 18  1  0  0  0  0
 10  9  1  0  0  0  0
 10  2  1  0  0  0  0
 11 10  2  0  0  0  0
 12 16  2  0  0  0  0
 12 11  1  0  0  0  0
 13 12  1  0  0  0  0
 14 13  1  0  0  0  0
 14 15  2  0  0  0  0
 15 16  1  0  0  0  0
 16 17  1  0  0  0  0
 17 22  1  0  0  0  0
 17  9  2  0  0  0  0
 19 11  1  0  0  0  0
 20 13  1  0  0  0  0
 21 14  1  0  0  0  0
 23 24  1  0  0  0  0
 23 26  1  0  0  0  0
 25 23  1  0  0  0  0
 26 27  1  0  0  0  0
 26 31  1  0  0  0  0
 27 28  1  0  0  0  0
 28 29  1  0  0  0  0
 29 30  1  0  0  0  0
 31 30  1  0  0  0  0
M  END
>  <minimizedAffinity>
-5.4138093

$$$$
