
 OpenBabel03272510273D

 42 46  0  0  1  0  0  0  0  0999 V2000
   36.2390   30.2120   46.9230 C   0  0  0  0  0  0  0  0  0  0  0  0
   37.0740   30.7840   47.8810 C   0  0  0  0  0  0  0  0  0  0  0  0
   38.0670   31.6990   47.5280 C   0  0  0  0  0  0  0  0  0  0  0  0
   38.1670   31.9990   46.1760 C   0  0  0  0  0  0  0  0  0  0  0  0
   39.0560   32.8570   45.5880 N   0  0  0  0  0  0  0  0  0  0  0  0
   38.7850   32.8260   44.2710 C   0  0  0  0  0  0  0  0  0  0  0  0
   37.7890   32.0050   44.0220 N   0  0  0  0  0  0  0  0  0  0  0  0
   37.3640   31.4580   45.1930 C   0  0  0  0  0  0  0  0  0  0  0  0
   36.3780   30.5440   45.5800 C   0  0  0  0  0  0  0  0  0  0  0  0
   35.4800   29.5130   47.1880 H   0  0  0  0  0  0  0  0  0  0  0  0
   38.6970   32.1260   48.2790 H   0  0  0  0  0  0  0  0  0  0  0  0
   39.7890   33.4140   46.0800 H   0  0  0  0  0  0  0  0  0  0  0  0
   35.7580   30.1300   44.8070 H   0  0  0  0  0  0  0  0  0  0  0  0
   37.4390   30.1340   51.5490 C   0  0  0  0  0  0  0  0  0  0  0  0
   37.7690   30.5970   50.2930 C   0  0  0  0  0  0  0  0  0  0  0  0
   36.8670   30.3670   49.2600 C   0  0  0  0  0  0  0  0  0  0  0  0
   35.7190   29.7010   49.5590 N   0  0  0  0  0  0  0  0  0  0  0  0
   35.4130   29.2560   50.7910 C   0  0  0  0  0  0  0  0  0  0  0  0
   36.2790   29.4790   51.7740 N   0  0  0  0  0  0  0  0  0  0  0  0
   38.1640   30.3290   52.3360 H   0  0  0  0  0  0  0  0  0  0  0  0
   38.6730   31.1220   50.0640 H   0  0  0  0  0  0  0  0  0  0  0  0
   34.4920   28.7350   50.9740 H   0  0  0  0  0  0  0  0  0  0  0  0
   39.5160   33.6010   43.3560 O   0  0  0  0  0  0  0  0  0  0  0  0
   39.6780   31.8730   41.8710 N   0  0  0  0  0  0  0  0  0  0  0  0
   39.3090   33.3010   41.9800 C   0  0  1  0  0  0  0  0  0  0  0  0
   37.9130   33.4510   41.5870 C   0  0  0  0  0  0  0  0  0  0  0  0
   37.7930   33.1190   40.2250 O   0  0  0  0  0  0  0  0  0  0  0  0
   38.2510   31.8800   39.8850 C   0  0  0  0  0  0  0  0  0  0  0  0
   39.6100   31.5700   40.4590 C   0  0  2  0  0  0  0  0  0  0  0  0
   40.6830   31.8480   42.1650 H   0  0  0  0  0  0  0  0  0  0  0  0
   39.9460   33.9130   41.3230 H   0  0  0  0  0  0  0  0  0  0  0  0
   37.0900   32.9750   42.0420 H   0  0  0  0  0  0  0  0  0  0  0  0
   37.6860   34.5620   41.5940 H   0  0  0  0  0  0  0  0  0  0  0  0
   38.3340   31.8610   38.7800 H   0  0  0  0  0  0  0  0  0  0  0  0
   37.5330   31.0580   40.1400 H   0  0  0  0  0  0  0  0  0  0  0  0
   40.3910   32.1700   39.9630 H   0  0  0  0  0  0  0  0  0  0  0  0
   39.8700   30.0830   40.3050 C   0  0  0  0  0  0  0  0  0  0  0  0
   41.0740   29.6320   41.0870 C   0  0  0  0  0  0  0  0  0  0  0  0
   40.7920   28.4900   42.0320 C   0  0  0  0  0  0  0  0  0  0  0  0
   40.1610   27.3060   41.3390 C   0  0  0  0  0  0  0  0  0  0  0  0
   39.0230   27.8050   40.4800 C   0  0  0  0  0  0  0  0  0  0  0  0
   38.7040   29.2570   40.7750 C   0  0  0  0  0  0  0  0  0  0  0  0
  1 10  1  0  0  0  0
  1  2  1  0  0  0  0
  2 16  1  0  0  0  0
  3  2  2  0  0  0  0
  3 11  1  0  0  0  0
  4  3  1  0  0  0  0
  5 12  1  0  0  0  0
  5  4  1  0  0  0  0
  6  5  1  0  0  0  0
  7  6  2  0  0  0  0
  7  8  1  0  0  0  0
  8  9  1  0  0  0  0
  8  4  2  0  0  0  0
  9  1  2  0  0  0  0
 13  9  1  0  0  0  0
 14 19  1  0  0  0  0
 14 20  1  0  0  0  0
 15 14  2  0  0  0  0
 16 17  2  0  0  0  0
 16 15  1  0  0  0  0
 17 18  1  0  0  0  0
 18 22  1  0  0  0  0
 18 19  2  0  0  0  0
 21 15  1  0  0  0  0
 23  6  1  0  0  0  0
 24 25  1  0  0  0  0
 24 30  1  0  0  0  0
 25 31  1  6  0  0  0
 25 23  1  0  0  0  0
 26 33  1  0  0  0  0
 26 25  1  0  0  0  0
 26 32  1  0  0  0  0
 27 26  1  0  0  0  0
 28 35  1  0  0  0  0
 28 27  1  0  0  0  0
 28 29  1  0  0  0  0
 29 36  1  6  0  0  0
 29 24  1  0  0  0  0
 34 28  1  0  0  0  0
 37 29  1  0  0  0  0
 37 42  1  0  0  0  0
 37 38  1  0  0  0  0
 38 39  1  0  0  0  0
 40 39  1  0  0  0  0
 41 42  1  0  0  0  0
 41 40  1  0  0  0  0
M  END
>  <minimizedAffinity>
-6.20770597

>  <minimizedRMSD>
0.307699353

$$$$
