
 OpenBabel03272510273D

 42 46  0  0  1  0  0  0  0  0999 V2000
   36.2400   30.2100   46.9240 C   0  0  0  0  0  0  0  0  0  0  0  0
   37.0730   30.7820   47.8820 C   0  0  0  0  0  0  0  0  0  0  0  0
   38.0650   31.6980   47.5300 C   0  0  0  0  0  0  0  0  0  0  0  0
   38.1660   31.9980   46.1780 C   0  0  0  0  0  0  0  0  0  0  0  0
   39.0540   32.8570   45.5910 N   0  0  0  0  0  0  0  0  0  0  0  0
   38.7840   32.8260   44.2730 C   0  0  0  0  0  0  0  0  0  0  0  0
   37.7900   32.0030   44.0240 N   0  0  0  0  0  0  0  0  0  0  0  0
   37.3640   31.4560   45.1940 C   0  0  0  0  0  0  0  0  0  0  0  0
   36.3780   30.5410   45.5810 C   0  0  0  0  0  0  0  0  0  0  0  0
   35.4800   29.5100   47.1890 H   0  0  0  0  0  0  0  0  0  0  0  0
   38.6940   32.1270   48.2810 H   0  0  0  0  0  0  0  0  0  0  0  0
   39.7860   33.4150   46.0830 H   0  0  0  0  0  0  0  0  0  0  0  0
   35.7600   30.1260   44.8080 H   0  0  0  0  0  0  0  0  0  0  0  0
   37.4370   30.1300   51.5510 C   0  0  0  0  0  0  0  0  0  0  0  0
   37.7680   30.5930   50.2950 C   0  0  0  0  0  0  0  0  0  0  0  0
   36.8650   30.3660   49.2610 C   0  0  0  0  0  0  0  0  0  0  0  0
   35.7160   29.7030   49.5610 N   0  0  0  0  0  0  0  0  0  0  0  0
   35.4090   29.2580   50.7940 C   0  0  0  0  0  0  0  0  0  0  0  0
   36.2760   29.4790   51.7750 N   0  0  0  0  0  0  0  0  0  0  0  0
   38.1630   30.3230   52.3370 H   0  0  0  0  0  0  0  0  0  0  0  0
   38.6740   31.1150   50.0650 H   0  0  0  0  0  0  0  0  0  0  0  0
   34.4860   28.7400   50.9760 H   0  0  0  0  0  0  0  0  0  0  0  0
   39.5150   33.6010   43.3590 O   0  0  0  0  0  0  0  0  0  0  0  0
   39.6780   31.8740   41.8730 N   0  0  0  0  0  0  0  0  0  0  0  0
   39.3080   33.3020   41.9830 C   0  0  1  0  0  0  0  0  0  0  0  0
   37.9120   33.4510   41.5900 C   0  0  0  0  0  0  0  0  0  0  0  0
   37.7920   33.1200   40.2280 O   0  0  0  0  0  0  0  0  0  0  0  0
   38.2510   31.8810   39.8870 C   0  0  0  0  0  0  0  0  0  0  0  0
   39.6100   31.5720   40.4600 C   0  0  2  0  0  0  0  0  0  0  0  0
   40.6830   31.8490   42.1670 H   0  0  0  0  0  0  0  0  0  0  0  0
   39.9450   33.9140   41.3260 H   0  0  0  0  0  0  0  0  0  0  0  0
   37.0890   32.9740   42.0450 H   0  0  0  0  0  0  0  0  0  0  0  0
   37.6840   34.5610   41.5980 H   0  0  0  0  0  0  0  0  0  0  0  0
   38.3330   31.8620   38.7830 H   0  0  0  0  0  0  0  0  0  0  0  0
   37.5330   31.0590   40.1420 H   0  0  0  0  0  0  0  0  0  0  0  0
   40.3900   32.1720   39.9650 H   0  0  0  0  0  0  0  0  0  0  0  0
   39.8710   30.0850   40.3060 C   0  0  0  0  0  3  0  0  0  0  0  0
   41.0750   29.6340   41.0900 C   0  0  0  0  0  2  0  0  0  0  0  0
   40.7930   28.4910   42.0320 C   0  0  0  0  0  2  0  0  0  0  0  0
   40.1630   27.3070   41.3380 C   0  0  0  0  0  2  0  0  0  0  0  0
   39.0250   27.8060   40.4780 C   0  0  0  0  0  2  0  0  0  0  0  0
   38.7050   29.2580   40.7730 C   0  0  0  0  0  2  0  0  0  0  0  0
  1 10  1  0  0  0  0
  1  2  1  0  0  0  0
  2 16  1  0  0  0  0
  3  2  2  0  0  0  0
  3 11  1  0  0  0  0
  4  3  1  0  0  0  0
  5 12  1  0  0  0  0
  5  4  1  0  0  0  0
  6  5  1  0  0  0  0
  7  6  2  0  0  0  0
  7  8  1  0  0  0  0
  8  9  1  0  0  0  0
  8  4  2  0  0  0  0
  9  1  2  0  0  0  0
 13  9  1  0  0  0  0
 14 19  1  0  0  0  0
 14 20  1  0  0  0  0
 15 14  2  0  0  0  0
 16 17  2  0  0  0  0
 16 15  1  0  0  0  0
 17 18  1  0  0  0  0
 18 22  1  0  0  0  0
 18 19  2  0  0  0  0
 21 15  1  0  0  0  0
 23  6  1  0  0  0  0
 24 25  1  0  0  0  0
 24 30  1  0  0  0  0
 25 31  1  6  0  0  0
 25 23  1  0  0  0  0
 26 33  1  0  0  0  0
 26 25  1  0  0  0  0
 26 32  1  0  0  0  0
 27 26  1  0  0  0  0
 28 35  1  0  0  0  0
 28 27  1  0  0  0  0
 28 29  1  0  0  0  0
 29 36  1  6  0  0  0
 29 24  1  0  0  0  0
 34 28  1  0  0  0  0
 37 29  1  0  0  0  0
 37 42  1  0  0  0  0
 37 38  1  0  0  0  0
 38 39  1  0  0  0  0
 40 39  1  0  0  0  0
 41 42  1  0  0  0  0
 41 40  1  0  0  0  0
M  END
>  <minimizedAffinity>
-6.20729589

>  <minimizedRMSD>
0.172107577

$$$$
