
 OpenBabel03272508413D

 39 42  0  0  1  0  0  0  0  0999 V2000
   35.7450   29.4650   33.1210 N   0  0  0  0  0  0  0  0  0  0  0  0
   36.2230   28.1850   33.6350 C   0  0  0  0  0  0  0  0  0  0  0  0
   37.3980   27.6550   32.9440 C   0  0  2  0  0  0  0  0  0  0  0  0
   37.3000   27.7890   31.4640 N   0  0  0  0  0  0  0  0  0  0  0  0
   37.0240   29.2080   31.1760 C   0  0  0  0  0  0  0  0  0  0  0  0
   35.6230   29.4090   31.7080 C   0  0  0  0  0  0  0  0  0  0  0  0
   35.3430   27.5220   33.3320 H   0  0  0  0  0  0  0  0  0  0  0  0
   36.3800   28.2310   34.7080 H   0  0  0  0  0  0  0  0  0  0  0  0
   38.3430   28.2080   33.1060 H   0  0  0  0  0  0  0  0  0  0  0  0
   36.4530   27.2570   31.1830 H   0  0  0  0  0  0  0  0  0  0  0  0
   36.9540   29.2980   30.0770 H   0  0  0  0  0  0  0  0  0  0  0  0
   37.7420   29.8780   31.6480 H   0  0  0  0  0  0  0  0  0  0  0  0
   35.1920   30.3440   31.3080 H   0  0  0  0  0  0  0  0  0  0  0  0
   34.9700   28.5920   31.3430 H   0  0  0  0  0  0  0  0  0  0  0  0
   38.5740   27.1230   35.6250 Cl  0  0  0  0  0  0  0  0  0  0  0  0
   38.0850   25.8660   34.4950 C   0  0  0  0  0  0  0  0  0  0  0  0
   37.5910   26.2530   33.2790 C   0  0  0  0  0  0  0  0  0  0  0  0
   37.1690   25.3640   32.2790 C   0  0  0  0  0  0  0  0  0  0  0  0
   37.2900   24.0040   32.6050 C   0  0  0  0  0  0  0  0  0  0  0  0
   37.7950   23.5990   33.8410 C   0  0  0  0  0  0  0  0  0  0  0  0
   38.1800   24.5280   34.7590 C   0  0  0  0  0  0  0  0  0  0  0  0
   36.7590   25.3860   31.3000 H   0  0  0  0  0  0  0  0  0  0  0  0
   37.0350   23.1430   32.0020 H   0  0  0  0  0  0  0  0  0  0  0  0
   37.9180   22.5740   34.1590 H   0  0  0  0  0  0  0  0  0  0  0  0
   38.7220   24.1560   36.0920 C   0  0  0  0  0  3  0  0  0  0  0  0
   37.5430   24.1780   37.0510 C   0  0  0  0  0  2  0  0  0  0  0  0
   37.7880   23.3730   38.2950 C   0  0  0  0  0  2  0  0  0  0  0  0
   39.2600   23.3840   38.5800 C   0  0  0  0  0  2  0  0  0  0  0  0
   40.0260   22.6800   37.4980 C   0  0  0  0  0  2  0  0  0  0  0  0
   39.3750   22.8100   36.1250 C   0  0  0  0  0  2  0  0  0  0  0  0
   35.4490   30.5670   33.9670 C   0  0  0  0  0  0  0  0  0  0  0  0
   35.8990   30.6320   35.2870 C   0  0  0  0  0  0  0  0  0  0  0  0
   35.5680   31.7420   36.0470 C   0  0  0  0  0  0  0  0  0  0  0  0
   34.8040   32.7350   35.4560 N   0  0  0  0  0  0  0  0  0  0  0  0
   34.3940   32.6230   34.1710 C   0  0  0  0  0  0  0  0  0  0  0  0
   34.7020   31.5690   33.4330 N   0  0  0  0  0  0  0  0  0  0  0  0
   36.4880   29.8080   35.6570 H   0  0  0  0  0  0  0  0  0  0  0  0
   35.9070   31.8110   37.0720 H   0  0  0  0  0  0  0  0  0  0  0  0
   33.8070   33.4720   33.8450 H   0  0  0  0  0  0  0  0  0  0  0  0
  1  2  1  0  0  0  0
  1 31  1  0  0  0  0
  2  8  1  0  0  0  0
  3  9  1  1  0  0  0
  3 17  1  0  0  0  0
  3  2  1  0  0  0  0
  4  3  1  0  0  0  0
  5  4  1  0  0  0  0
  5 12  1  0  0  0  0
  5  6  1  0  0  0  0
  6  1  1  0  0  0  0
  7  2  1  0  0  0  0
 10  4  1  0  0  0  0
 11  5  1  0  0  0  0
 13  6  1  0  0  0  0
 14  6  1  0  0  0  0
 16 21  1  0  0  0  0
 16 15  1  0  0  0  0
 17 16  2  0  0  0  0
 18 19  2  0  0  0  0
 18 17  1  0  0  0  0
 19 20  1  0  0  0  0
 20 24  1  0  0  0  0
 20 21  2  0  0  0  0
 21 25  1  0  0  0  0
 22 18  1  0  0  0  0
 23 19  1  0  0  0  0
 25 30  1  0  0  0  0
 25 26  1  0  0  0  0
 26 27  1  0  0  0  0
 27 28  1  0  0  0  0
 29 28  1  0  0  0  0
 30 29  1  0  0  0  0
 31 32  1  0  0  0  0
 32 37  1  0  0  0  0
 32 33  2  0  0  0  0
 33 38  1  0  0  0  0
 34 33  1  0  0  0  0
 35 34  2  0  0  0  0
 36 31  2  0  0  0  0
 36 35  1  0  0  0  0
 39 35  1  0  0  0  0
M  END
>  <minimizedAffinity>
-6.30194712

$$$$

 OpenBabel03272508413D

 39 42  0  0  1  0  0  0  0  0999 V2000
   37.4200   24.6530   32.7980 N   0  0  0  0  0  0  0  0  0  0  0  0
   36.6530   25.8610   32.5120 C   0  0  0  0  0  0  0  0  0  0  0  0
   37.4580   27.0000   32.0690 C   0  0  2  0  0  0  0  0  0  0  0  0
   38.7010   27.1680   32.8720 N   0  0  0  0  0  0  0  0  0  0  0  0
   39.4150   25.8800   32.8400 C   0  0  0  0  0  0  0  0  0  0  0  0
   38.5210   24.9610   33.6400 C   0  0  0  0  0  0  0  0  0  0  0  0
   36.2950   26.1100   33.5680 H   0  0  0  0  0  0  0  0  0  0  0  0
   35.8440   25.6540   31.8190 H   0  0  0  0  0  0  0  0  0  0  0  0
   37.9130   26.9070   31.0640 H   0  0  0  0  0  0  0  0  0  0  0  0
   38.3910   27.3130   33.8530 H   0  0  0  0  0  0  0  0  0  0  0  0
   40.3350   26.0140   33.4370 H   0  0  0  0  0  0  0  0  0  0  0  0
   39.5740   25.5150   31.8250 H   0  0  0  0  0  0  0  0  0  0  0  0
   39.0690   24.0470   33.9290 H   0  0  0  0  0  0  0  0  0  0  0  0
   38.2370   25.4580   34.5890 H   0  0  0  0  0  0  0  0  0  0  0  0
   36.6880   27.8780   34.8050 Cl  0  0  0  0  0  0  0  0  0  0  0  0
   36.2940   28.7640   33.3360 C   0  0  0  0  0  0  0  0  0  0  0  0
   36.6800   28.2260   32.1400 C   0  0  0  0  0  0  0  0  0  0  0  0
   36.4300   28.8160   30.8910 C   0  0  0  0  0  0  0  0  0  0  0  0
   35.7300   30.0320   30.9400 C   0  0  0  0  0  0  0  0  0  0  0  0
   35.3300   30.5890   32.1550 C   0  0  0  0  0  0  0  0  0  0  0  0
   35.6160   29.9520   33.3250 C   0  0  0  0  0  0  0  0  0  0  0  0
   36.6110   28.6340   29.8610 H   0  0  0  0  0  0  0  0  0  0  0  0
   35.4240   30.6650   30.1180 H   0  0  0  0  0  0  0  0  0  0  0  0
   34.7900   31.5170   32.2680 H   0  0  0  0  0  0  0  0  0  0  0  0
   35.2180   30.4970   34.6490 C   0  0  0  0  0  3  0  0  0  0  0  0
   35.9960   31.7900   34.8270 C   0  0  0  0  0  2  0  0  0  0  0  0
   35.3770   32.7080   35.8420 C   0  0  0  0  0  2  0  0  0  0  0  0
   34.6580   31.8710   36.8560 C   0  0  0  0  0  2  0  0  0  0  0  0
   33.5050   31.1390   36.2330 C   0  0  0  0  0  2  0  0  0  0  0  0
   33.7510   30.7690   34.7740 C   0  0  0  0  0  2  0  0  0  0  0  0
   37.0580   23.3790   32.2870 C   0  0  0  0  0  0  0  0  0  0  0  0
   35.8630   23.1660   31.5970 C   0  0  0  0  0  0  0  0  0  0  0  0
   35.5840   21.8920   31.1300 C   0  0  0  0  0  0  0  0  0  0  0  0
   36.5080   20.8890   31.3720 N   0  0  0  0  0  0  0  0  0  0  0  0
   37.6530   21.1490   32.0460 C   0  0  0  0  0  0  0  0  0  0  0  0
   37.9330   22.3600   32.4980 N   0  0  0  0  0  0  0  0  0  0  0  0
   35.2080   24.0120   31.4590 H   0  0  0  0  0  0  0  0  0  0  0  0
   34.6630   21.7080   30.5930 H   0  0  0  0  0  0  0  0  0  0  0  0
   38.2780   20.2730   32.1610 H   0  0  0  0  0  0  0  0  0  0  0  0
  1  6  1  0  0  0  0
  2  1  1  0  0  0  0
  2  7  1  0  0  0  0
  3  9  1  6  0  0  0
  3 17  1  0  0  0  0
  3  2  1  0  0  0  0
  3  4  1  0  0  0  0
  4 10  1  0  0  0  0
  5  4  1  0  0  0  0
  5 11  1  0  0  0  0
  5  6  1  0  0  0  0
  6 13  1  0  0  0  0
  6 14  1  0  0  0  0
  8  2  1  0  0  0  0
 12  5  1  0  0  0  0
 16 15  1  0  0  0  0
 17 16  2  0  0  0  0
 18 19  2  0  0  0  0
 18 17  1  0  0  0  0
 19 20  1  0  0  0  0
 20 24  1  0  0  0  0
 20 21  2  0  0  0  0
 21 16  1  0  0  0  0
 21 25  1  0  0  0  0
 22 18  1  0  0  0  0
 23 19  1  0  0  0  0
 25 30  1  0  0  0  0
 25 26  1  0  0  0  0
 26 27  1  0  0  0  0
 27 28  1  0  0  0  0
 29 28  1  0  0  0  0
 30 29  1  0  0  0  0
 31 36  1  0  0  0  0
 31  1  1  0  0  0  0
 32 31  2  0  0  0  0
 33 34  2  0  0  0  0
 33 32  1  0  0  0  0
 34 35  1  0  0  0  0
 35 39  1  0  0  0  0
 35 36  2  0  0  0  0
 37 32  1  0  0  0  0
 38 33  1  0  0  0  0
M  END
>  <minimizedAffinity>
-5.95187378

$$$$

 OpenBabel03272508413D

 39 42  0  0  1  0  0  0  0  0999 V2000
   36.4450   26.6490   31.7300 N   0  0  0  0  0  0  0  0  0  0  0  0
   37.1770   26.3380   32.9540 C   0  0  0  0  0  0  0  0  0  0  0  0
   37.9040   25.0680   32.9200 C   0  0  2  0  0  0  0  0  0  0  0  0
   37.1000   23.9670   32.3210 N   0  0  0  0  0  0  0  0  0  0  0  0
   36.6450   24.4330   30.9990 C   0  0  0  0  0  0  0  0  0  0  0  0
   35.6630   25.5330   31.3320 C   0  0  0  0  0  0  0  0  0  0  0  0
   36.2960   26.1890   33.6660 H   0  0  0  0  0  0  0  0  0  0  0  0
   37.8280   27.1600   33.2380 H   0  0  0  0  0  0  0  0  0  0  0  0
   38.7790   25.0310   32.2450 H   0  0  0  0  0  0  0  0  0  0  0  0
   36.2520   23.8750   32.9130 H   0  0  0  0  0  0  0  0  0  0  0  0
   36.0520   23.6090   30.5610 H   0  0  0  0  0  0  0  0  0  0  0  0
   37.4650   24.7900   30.3760 H   0  0  0  0  0  0  0  0  0  0  0  0
   35.0440   25.7750   30.4500 H   0  0  0  0  0  0  0  0  0  0  0  0
   34.9600   25.1750   32.1090 H   0  0  0  0  0  0  0  0  0  0  0  0
   40.2380   23.2310   33.0830 Cl  0  0  0  0  0  0  0  0  0  0  0  0
   39.3890   23.8750   34.4840 C   0  0  0  0  0  0  0  0  0  0  0  0
   38.3070   24.6820   34.2630 C   0  0  0  0  0  0  0  0  0  0  0  0
   37.5320   25.2600   35.2790 C   0  0  0  0  0  0  0  0  0  0  0  0
   37.9400   24.9480   36.5860 C   0  0  0  0  0  0  0  0  0  0  0  0
   39.0410   24.1240   36.8220 C   0  0  0  0  0  0  0  0  0  0  0  0
   39.7430   23.6050   35.7760 C   0  0  0  0  0  0  0  0  0  0  0  0
   36.6900   25.8980   35.3900 H   0  0  0  0  0  0  0  0  0  0  0  0
   37.5030   25.2700   37.5220 H   0  0  0  0  0  0  0  0  0  0  0  0
   39.4100   23.8420   37.7970 H   0  0  0  0  0  0  0  0  0  0  0  0
   40.9240   22.7240   35.9670 C   0  0  0  0  0  3  0  0  0  0  0  0
   42.1450   23.6230   35.8670 C   0  0  0  0  0  2  0  0  0  0  0  0
   43.3650   23.0240   36.5070 C   0  0  0  0  0  2  0  0  0  0  0  0
   43.2590   21.5320   36.4150 C   0  0  0  0  0  2  0  0  0  0  0  0
   42.1000   21.0200   37.2200 C   0  0  0  0  0  2  0  0  0  0  0  0
   40.9340   22.0020   37.2780 C   0  0  0  0  0  2  0  0  0  0  0  0
   36.5340   27.9110   31.0850 C   0  0  0  0  0  0  0  0  0  0  0  0
   35.9030   29.0500   31.5890 C   0  0  0  0  0  0  0  0  0  0  0  0
   36.0390   30.2430   30.9000 C   0  0  0  0  0  0  0  0  0  0  0  0
   36.7980   30.2470   29.7410 N   0  0  0  0  0  0  0  0  0  0  0  0
   37.3890   29.1150   29.2950 C   0  0  0  0  0  0  0  0  0  0  0  0
   37.2680   27.9670   29.9420 N   0  0  0  0  0  0  0  0  0  0  0  0
   35.3340   28.9450   32.4990 H   0  0  0  0  0  0  0  0  0  0  0  0
   35.5580   31.1370   31.2750 H   0  0  0  0  0  0  0  0  0  0  0  0
   37.9480   29.2670   28.3810 H   0  0  0  0  0  0  0  0  0  0  0  0
  1  2  1  0  0  0  0
  2  8  1  0  0  0  0
  2  7  1  0  0  0  0
  3  9  1  6  0  0  0
  3  2  1  0  0  0  0
  3 17  1  0  0  0  0
  4 10  1  0  0  0  0
  4  3  1  0  0  0  0
  5  6  1  0  0  0  0
  5  4  1  0  0  0  0
  6  1  1  0  0  0  0
  6 14  1  0  0  0  0
 11  5  1  0  0  0  0
 12  5  1  0  0  0  0
 13  6  1  0  0  0  0
 15 16  1  0  0  0  0
 16 21  1  0  0  0  0
 17 16  2  0  0  0  0
 17 18  1  0  0  0  0
 18 22  1  0  0  0  0
 18 19  2  0  0  0  0
 19 20  1  0  0  0  0
 19 23  1  0  0  0  0
 20 24  1  0  0  0  0
 21 25  1  0  0  0  0
 21 20  2  0  0  0  0
 25 30  1  0  0  0  0
 26 25  1  0  0  0  0
 26 27  1  0  0  0  0
 28 27  1  0  0  0  0
 28 29  1  0  0  0  0
 29 30  1  0  0  0  0
 31 32  1  0  0  0  0
 31  1  1  0  0  0  0
 32 37  1  0  0  0  0
 33 38  1  0  0  0  0
 33 32  2  0  0  0  0
 34 33  1  0  0  0  0
 35 34  2  0  0  0  0
 35 36  1  0  0  0  0
 36 31  2  0  0  0  0
 39 35  1  0  0  0  0
M  END
>  <minimizedAffinity>
-5.85978842

$$$$

 OpenBabel03272508413D

 39 42  0  0  1  0  0  0  0  0999 V2000
   38.6590   25.6860   32.7390 N   0  0  0  0  0  0  0  0  0  0  0  0
   38.0420   27.0000   32.8830 C   0  0  0  0  0  0  0  0  0  0  0  0
   36.7410   27.1350   32.2270 C   0  0  2  0  0  0  0  0  0  0  0  0
   36.7230   26.5310   30.8660 N   0  0  0  0  0  0  0  0  0  0  0  0
   37.1830   25.1380   31.0050 C   0  0  0  0  0  0  0  0  0  0  0  0
   38.6410   25.2850   31.3770 C   0  0  0  0  0  0  0  0  0  0  0  0
   38.7790   27.6210   32.2700 H   0  0  0  0  0  0  0  0  0  0  0  0
   37.9920   27.2950   33.9270 H   0  0  0  0  0  0  0  0  0  0  0  0
   35.9100   26.5630   32.6820 H   0  0  0  0  0  0  0  0  0  0  0  0
   37.4490   27.0330   30.3200 H   0  0  0  0  0  0  0  0  0  0  0  0
   37.1650   24.6980   29.9910 H   0  0  0  0  0  0  0  0  0  0  0  0
   36.6210   24.5840   31.7570 H   0  0  0  0  0  0  0  0  0  0  0  0
   39.1710   24.3260   31.2380 H   0  0  0  0  0  0  0  0  0  0  0  0
   39.1260   26.0040   30.6890 H   0  0  0  0  0  0  0  0  0  0  0  0
   35.6380   28.3540   34.7070 Cl  0  0  0  0  0  0  0  0  0  0  0  0
   35.8870   29.2320   33.2020 C   0  0  0  0  0  0  0  0  0  0  0  0
   36.3690   28.5370   32.1270 C   0  0  0  0  0  0  0  0  0  0  0  0
   36.6110   29.1020   30.8650 C   0  0  0  0  0  0  0  0  0  0  0  0
   36.3140   30.4700   30.7620 C   0  0  0  0  0  0  0  0  0  0  0  0
   35.8200   31.1880   31.8520 C   0  0  0  0  0  0  0  0  0  0  0  0
   35.6170   30.5630   33.0450 C   0  0  0  0  0  0  0  0  0  0  0  0
   36.9700   28.8170   29.9080 H   0  0  0  0  0  0  0  0  0  0  0  0
   36.4150   31.1170   29.9000 H   0  0  0  0  0  0  0  0  0  0  0  0
   35.5700   32.2380   31.8450 H   0  0  0  0  0  0  0  0  0  0  0  0
   35.0950   31.2750   34.2410 C   0  0  0  0  0  3  0  0  0  0  0  0
   33.7180   30.6940   34.5150 C   0  0  0  0  0  2  0  0  0  0  0  0
   33.2580   30.9240   35.9250 C   0  0  0  0  0  2  0  0  0  0  0  0
   33.8820   32.1920   36.4220 C   0  0  0  0  0  2  0  0  0  0  0  0
   35.3750   32.0620   36.5120 C   0  0  0  0  0  2  0  0  0  0  0  0
   35.9560   31.1280   35.4560 C   0  0  0  0  0  2  0  0  0  0  0  0
   39.1950   24.9670   33.8400 C   0  0  0  0  0  0  0  0  0  0  0  0
   38.3810   24.3570   34.7970 C   0  0  0  0  0  0  0  0  0  0  0  0
   38.9810   23.6740   35.8410 C   0  0  0  0  0  0  0  0  0  0  0  0
   40.3650   23.6300   35.8840 N   0  0  0  0  0  0  0  0  0  0  0  0
   41.1090   24.2390   34.9310 C   0  0  0  0  0  0  0  0  0  0  0  0
   40.5490   24.8950   33.9280 N   0  0  0  0  0  0  0  0  0  0  0  0
   37.3130   24.4470   34.6760 H   0  0  0  0  0  0  0  0  0  0  0  0
   38.3670   23.1950   36.5920 H   0  0  0  0  0  0  0  0  0  0  0  0
   42.1720   24.1220   35.0930 H   0  0  0  0  0  0  0  0  0  0  0  0
  1  2  1  0  0  0  0
  1 31  1  0  0  0  0
  2  8  1  0  0  0  0
  3  9  1  1  0  0  0
  3  2  1  0  0  0  0
  4  5  1  0  0  0  0
  4  3  1  0  0  0  0
  5  6  1  0  0  0  0
  5 12  1  0  0  0  0
  6  1  1  0  0  0  0
  7  2  1  0  0  0  0
 10  4  1  0  0  0  0
 11  5  1  0  0  0  0
 13  6  1  0  0  0  0
 14  6  1  0  0  0  0
 16 15  1  0  0  0  0
 17  3  1  0  0  0  0
 17 16  2  0  0  0  0
 18 17  1  0  0  0  0
 19 18  2  0  0  0  0
 19 20  1  0  0  0  0
 20 21  2  0  0  0  0
 21 16  1  0  0  0  0
 21 25  1  0  0  0  0
 22 18  1  0  0  0  0
 23 19  1  0  0  0  0
 24 20  1  0  0  0  0
 25 26  1  0  0  0  0
 25 30  1  0  0  0  0
 26 27  1  0  0  0  0
 27 28  1  0  0  0  0
 28 29  1  0  0  0  0
 30 29  1  0  0  0  0
 31 36  2  0  0  0  0
 31 32  1  0  0  0  0
 32 33  2  0  0  0  0
 33 34  1  0  0  0  0
 33 38  1  0  0  0  0
 35 39  1  0  0  0  0
 35 34  2  0  0  0  0
 36 35  1  0  0  0  0
 37 32  1  0  0  0  0
M  END
>  <minimizedAffinity>
-5.6600461

$$$$

 OpenBabel03272508413D

 39 42  0  0  1  0  0  0  0  0999 V2000
   39.6560   23.0210   36.1010 N   0  0  0  0  0  0  0  0  0  0  0  0
   39.1920   23.8010   34.9580 C   0  0  0  0  0  0  0  0  0  0  0  0
   38.4710   25.0240   35.3100 C   0  0  2  0  0  0  0  0  0  0  0  0
   37.4990   24.8140   36.4190 N   0  0  0  0  0  0  0  0  0  0  0  0
   38.2430   24.2130   37.5390 C   0  0  0  0  0  0  0  0  0  0  0  0
   38.5970   22.8350   37.0280 C   0  0  0  0  0  0  0  0  0  0  0  0
   38.4140   23.0750   34.5410 H   0  0  0  0  0  0  0  0  0  0  0  0
   40.0060   24.0040   34.2690 H   0  0  0  0  0  0  0  0  0  0  0  0
   39.0790   25.8290   35.7630 H   0  0  0  0  0  0  0  0  0  0  0  0
   36.8310   24.0930   36.0820 H   0  0  0  0  0  0  0  0  0  0  0  0
   37.5150   24.0630   38.3570 H   0  0  0  0  0  0  0  0  0  0  0  0
   39.1280   24.7890   37.8110 H   0  0  0  0  0  0  0  0  0  0  0  0
   38.9090   22.1840   37.8640 H   0  0  0  0  0  0  0  0  0  0  0  0
   37.6950   22.3610   36.5920 H   0  0  0  0  0  0  0  0  0  0  0  0
   37.8200   27.9260   35.3930 Cl  0  0  0  0  0  0  0  0  0  0  0  0
   37.4360   26.8670   34.0410 C   0  0  0  0  0  0  0  0  0  0  0  0
   37.7620   25.5430   34.1510 C   0  0  0  0  0  0  0  0  0  0  0  0
   37.5110   24.5830   33.1590 C   0  0  0  0  0  0  0  0  0  0  0  0
   36.8790   25.0740   32.0060 C   0  0  0  0  0  0  0  0  0  0  0  0
   36.5420   26.4220   31.8840 C   0  0  0  0  0  0  0  0  0  0  0  0
   36.8240   27.2900   32.8950 C   0  0  0  0  0  0  0  0  0  0  0  0
   37.6550   23.5460   32.9840 H   0  0  0  0  0  0  0  0  0  0  0  0
   36.5860   24.5310   31.1170 H   0  0  0  0  0  0  0  0  0  0  0  0
   36.0550   26.8680   31.0290 H   0  0  0  0  0  0  0  0  0  0  0  0
   36.4900   28.7370   32.8210 C   0  0  0  0  0  3  0  0  0  0  0  0
   36.6760   29.1420   31.3690 C   0  0  0  0  0  2  0  0  0  0  0  0
   35.9330   30.3980   31.0130 C   0  0  0  0  0  2  0  0  0  0  0  0
   35.8320   31.2480   32.2430 C   0  0  0  0  0  2  0  0  0  0  0  0
   34.9960   30.5800   33.2960 C   0  0  0  0  0  2  0  0  0  0  0  0
   35.0960   29.0590   33.2610 C   0  0  0  0  0  2  0  0  0  0  0  0
   40.9870   22.5360   36.2070 C   0  0  0  0  0  0  0  0  0  0  0  0
   42.0480   23.1190   35.5110 C   0  0  0  0  0  0  0  0  0  0  0  0
   43.3170   22.5860   35.6690 C   0  0  0  0  0  0  0  0  0  0  0  0
   43.4690   21.4970   36.5120 N   0  0  0  0  0  0  0  0  0  0  0  0
   42.4070   20.9700   37.1630 C   0  0  0  0  0  0  0  0  0  0  0  0
   41.1890   21.4680   37.0230 N   0  0  0  0  0  0  0  0  0  0  0  0
   41.8280   23.9640   34.8790 H   0  0  0  0  0  0  0  0  0  0  0  0
   44.1520   23.0240   35.1390 H   0  0  0  0  0  0  0  0  0  0  0  0
   42.6750   20.1260   37.7850 H   0  0  0  0  0  0  0  0  0  0  0  0
  1 31  1  0  0  0  0
  1  6  1  0  0  0  0
  2  3  1  0  0  0  0
  2  1  1  0  0  0  0
  3  9  1  1  0  0  0
  3  4  1  0  0  0  0
  4  5  1  0  0  0  0
  5 12  1  0  0  0  0
  5 11  1  0  0  0  0
  6  5  1  0  0  0  0
  6 13  1  0  0  0  0
  7  2  1  0  0  0  0
  8  2  1  0  0  0  0
 10  4  1  0  0  0  0
 14  6  1  0  0  0  0
 16 17  1  0  0  0  0
 16 15  1  0  0  0  0
 17  3  1  0  0  0  0
 18 17  2  0  0  0  0
 19 18  1  0  0  0  0
 20 19  2  0  0  0  0
 20 21  1  0  0  0  0
 21 16  2  0  0  0  0
 22 18  1  0  0  0  0
 23 19  1  0  0  0  0
 24 20  1  0  0  0  0
 25 21  1  0  0  0  0
 25 30  1  0  0  0  0
 26 25  1  0  0  0  0
 27 26  1  0  0  0  0
 27 28  1  0  0  0  0
 28 29  1  0  0  0  0
 30 29  1  0  0  0  0
 31 36  1  0  0  0  0
 32 33  1  0  0  0  0
 32 31  2  0  0  0  0
 33 34  2  0  0  0  0
 34 35  1  0  0  0  0
 35 39  1  0  0  0  0
 36 35  2  0  0  0  0
 37 32  1  0  0  0  0
 38 33  1  0  0  0  0
M  END
>  <minimizedAffinity>
-5.59521341

$$$$

 OpenBabel03272508413D

 39 42  0  0  1  0  0  0  0  0999 V2000
   38.0010   21.8950   33.2290 N   0  0  0  0  0  0  0  0  0  0  0  0
   37.5770   23.2490   33.5700 C   0  0  0  0  0  0  0  0  0  0  0  0
   38.4540   24.3050   33.0630 C   0  0  2  0  0  0  0  0  0  0  0  0
   39.8970   23.9870   33.2480 N   0  0  0  0  0  0  0  0  0  0  0  0
   40.1310   22.6670   32.6360 C   0  0  0  0  0  0  0  0  0  0  0  0
   39.3750   21.7200   33.5400 C   0  0  0  0  0  0  0  0  0  0  0  0
   37.7330   23.2140   34.7010 H   0  0  0  0  0  0  0  0  0  0  0  0
   36.5440   23.4180   33.2810 H   0  0  0  0  0  0  0  0  0  0  0  0
   38.4480   24.4510   31.9660 H   0  0  0  0  0  0  0  0  0  0  0  0
   40.0360   23.8700   34.2700 H   0  0  0  0  0  0  0  0  0  0  0  0
   41.2030   22.4400   32.7760 H   0  0  0  0  0  0  0  0  0  0  0  0
   39.7810   22.6160   31.6040 H   0  0  0  0  0  0  0  0  0  0  0  0
   39.6950   20.6790   33.3580 H   0  0  0  0  0  0  0  0  0  0  0  0
   39.6290   21.9380   34.5960 H   0  0  0  0  0  0  0  0  0  0  0  0
   36.5020   26.0640   31.6670 Cl  0  0  0  0  0  0  0  0  0  0  0  0
   37.2510   26.4510   33.2120 C   0  0  0  0  0  0  0  0  0  0  0  0
   38.1600   25.5660   33.7240 C   0  0  0  0  0  0  0  0  0  0  0  0
   38.8380   25.7450   34.9390 C   0  0  0  0  0  0  0  0  0  0  0  0
   38.5250   26.9300   35.6240 C   0  0  0  0  0  0  0  0  0  0  0  0
   37.6000   27.8400   35.1100 C   0  0  0  0  0  0  0  0  0  0  0  0
   36.9820   27.5880   33.9220 C   0  0  0  0  0  0  0  0  0  0  0  0
   39.5500   25.2450   35.5470 H   0  0  0  0  0  0  0  0  0  0  0  0
   38.9160   27.2840   36.5680 H   0  0  0  0  0  0  0  0  0  0  0  0
   37.3120   28.7680   35.5800 H   0  0  0  0  0  0  0  0  0  0  0  0
   35.9880   28.5190   33.3270 C   0  0  0  0  0  3  0  0  0  0  0  0
   35.5980   29.4870   34.4320 C   0  0  0  0  0  2  0  0  0  0  0  0
   35.0040   30.7620   33.9070 C   0  0  0  0  0  2  0  0  0  0  0  0
   34.3220   30.4620   32.6060 C   0  0  0  0  0  2  0  0  0  0  0  0
   35.3120   30.0310   31.5630 C   0  0  0  0  0  2  0  0  0  0  0  0
   36.5050   29.2810   32.1470 C   0  0  0  0  0  2  0  0  0  0  0  0
   37.1140   20.9320   32.6790 C   0  0  0  0  0  0  0  0  0  0  0  0
   35.7270   21.0790   32.7370 C   0  0  0  0  0  0  0  0  0  0  0  0
   34.9310   20.0940   32.1760 C   0  0  0  0  0  0  0  0  0  0  0  0
   35.5530   19.0070   31.5850 N   0  0  0  0  0  0  0  0  0  0  0  0
   36.9030   18.9130   31.5560 C   0  0  0  0  0  0  0  0  0  0  0  0
   37.6760   19.8450   32.0870 N   0  0  0  0  0  0  0  0  0  0  0  0
   35.3370   21.9620   33.2190 H   0  0  0  0  0  0  0  0  0  0  0  0
   33.8540   20.1920   32.2110 H   0  0  0  0  0  0  0  0  0  0  0  0
   37.2480   18.0130   31.0630 H   0  0  0  0  0  0  0  0  0  0  0  0
  1  6  1  0  0  0  0
  1  2  1  0  0  0  0
  2  7  1  0  0  0  0
  3  9  1  6  0  0  0
  3  4  1  0  0  0  0
  3  2  1  0  0  0  0
  3 17  1  0  0  0  0
  4 10  1  0  0  0  0
  5 11  1  0  0  0  0
  5  4  1  0  0  0  0
  5  6  1  0  0  0  0
  6 14  1  0  0  0  0
  8  2  1  0  0  0  0
 12  5  1  0  0  0  0
 13  6  1  0  0  0  0
 15 16  1  0  0  0  0
 16 17  2  0  0  0  0
 16 21  1  0  0  0  0
 17 18  1  0  0  0  0
 18 22  1  0  0  0  0
 18 19  2  0  0  0  0
 19 23  1  0  0  0  0
 20 24  1  0  0  0  0
 20 19  1  0  0  0  0
 21 20  2  0  0  0  0
 25 21  1  0  0  0  0
 25 26  1  0  0  0  0
 27 26  1  0  0  0  0
 28 27  1  0  0  0  0
 29 30  1  0  0  0  0
 29 28  1  0  0  0  0
 30 25  1  0  0  0  0
 31 32  1  0  0  0  0
 31  1  1  0  0  0  0
 32 37  1  0  0  0  0
 33 38  1  0  0  0  0
 33 32  2  0  0  0  0
 34 33  1  0  0  0  0
 35 34  2  0  0  0  0
 35 36  1  0  0  0  0
 36 31  2  0  0  0  0
 39 35  1  0  0  0  0
M  END
>  <minimizedAffinity>
-5.55210114

$$$$

 OpenBabel03272508413D

 39 42  0  0  1  0  0  0  0  0999 V2000
   38.4560   24.1640   34.3960 N   0  0  0  0  0  0  0  0  0  0  0  0
   38.2140   25.5060   33.8780 C   0  0  0  0  0  0  0  0  0  0  0  0
   37.1050   25.5990   32.9280 C   0  0  2  0  0  0  0  0  0  0  0  0
   37.1080   24.4870   31.9370 N   0  0  0  0  0  0  0  0  0  0  0  0
   37.1400   23.2270   32.7000 C   0  0  0  0  0  0  0  0  0  0  0  0
   38.5150   23.2310   33.3280 C   0  0  0  0  0  0  0  0  0  0  0  0
   39.1720   25.6480   33.2720 H   0  0  0  0  0  0  0  0  0  0  0  0
   38.1050   26.2220   34.6870 H   0  0  0  0  0  0  0  0  0  0  0  0
   36.0940   25.4510   33.3520 H   0  0  0  0  0  0  0  0  0  0  0  0
   38.0140   24.5540   31.4330 H   0  0  0  0  0  0  0  0  0  0  0  0
   37.1400   22.4090   31.9570 H   0  0  0  0  0  0  0  0  0  0  0  0
   36.3490   23.1700   33.4470 H   0  0  0  0  0  0  0  0  0  0  0  0
   38.7730   22.2210   33.6940 H   0  0  0  0  0  0  0  0  0  0  0  0
   39.2710   23.4770   32.5560 H   0  0  0  0  0  0  0  0  0  0  0  0
   38.9910   25.7110   30.6300 Cl  0  0  0  0  0  0  0  0  0  0  0  0
   37.9480   27.0420   31.1170 C   0  0  0  0  0  0  0  0  0  0  0  0
   37.1550   26.8660   32.2170 C   0  0  0  0  0  0  0  0  0  0  0  0
   36.2800   27.8390   32.7240 C   0  0  0  0  0  0  0  0  0  0  0  0
   36.2680   29.0520   32.0160 C   0  0  0  0  0  0  0  0  0  0  0  0
   37.0750   29.2420   30.8940 C   0  0  0  0  0  0  0  0  0  0  0  0
   37.8950   28.2430   30.4650 C   0  0  0  0  0  0  0  0  0  0  0  0
   35.5800   27.9640   33.5120 H   0  0  0  0  0  0  0  0  0  0  0  0
   35.6850   29.9410   32.2160 H   0  0  0  0  0  0  0  0  0  0  0  0
   37.1190   30.1460   30.3040 H   0  0  0  0  0  0  0  0  0  0  0  0
   38.7750   28.3880   29.2760 C   0  0  0  0  0  3  0  0  0  0  0  0
   38.0590   29.3390   28.3320 C   0  0  0  0  0  2  0  0  0  0  0  0
   38.9840   29.9780   27.3350 C   0  0  0  0  0  2  0  0  0  0  0  0
   40.1160   29.0320   27.0720 C   0  0  0  0  0  2  0  0  0  0  0  0
   40.9470   28.8250   28.3040 C   0  0  0  0  0  2  0  0  0  0  0  0
   40.1370   28.9200   29.5930 C   0  0  0  0  0  2  0  0  0  0  0  0
   38.6140   23.8950   35.7820 C   0  0  0  0  0  0  0  0  0  0  0  0
   37.7680   24.4440   36.7470 C   0  0  0  0  0  0  0  0  0  0  0  0
   37.9890   24.1330   38.0780 C   0  0  0  0  0  0  0  0  0  0  0  0
   39.0430   23.2890   38.3860 N   0  0  0  0  0  0  0  0  0  0  0  0
   39.8340   22.7830   37.4120 C   0  0  0  0  0  0  0  0  0  0  0  0
   39.6360   23.0710   36.1370 N   0  0  0  0  0  0  0  0  0  0  0  0
   36.9740   25.0910   36.4060 H   0  0  0  0  0  0  0  0  0  0  0  0
   37.3430   24.5480   38.8400 H   0  0  0  0  0  0  0  0  0  0  0  0
   40.6150   22.1410   37.7990 H   0  0  0  0  0  0  0  0  0  0  0  0
  1 31  1  0  0  0  0
  2  1  1  0  0  0  0
  2  8  1  0  0  0  0
  3  9  1  1  0  0  0
  3  2  1  0  0  0  0
  4  5  1  0  0  0  0
  4  3  1  0  0  0  0
  5  6  1  0  0  0  0
  5 12  1  0  0  0  0
  6 13  1  0  0  0  0
  6  1  1  0  0  0  0
  7  2  1  0  0  0  0
 10  4  1  0  0  0  0
 11  5  1  0  0  0  0
 14  6  1  0  0  0  0
 15 16  1  0  0  0  0
 16 17  1  0  0  0  0
 17 18  2  0  0  0  0
 17  3  1  0  0  0  0
 18 22  1  0  0  0  0
 19 23  1  0  0  0  0
 19 18  1  0  0  0  0
 20 19  2  0  0  0  0
 21 20  1  0  0  0  0
 21 16  2  0  0  0  0
 24 20  1  0  0  0  0
 25 30  1  0  0  0  0
 25 21  1  0  0  0  0
 26 25  1  0  0  0  0
 27 26  1  0  0  0  0
 28 27  1  0  0  0  0
 28 29  1  0  0  0  0
 29 30  1  0  0  0  0
 31 36  2  0  0  0  0
 31 32  1  0  0  0  0
 32 33  2  0  0  0  0
 33 34  1  0  0  0  0
 33 38  1  0  0  0  0
 35 39  1  0  0  0  0
 35 34  2  0  0  0  0
 36 35  1  0  0  0  0
 37 32  1  0  0  0  0
M  END
>  <minimizedAffinity>
-5.52342272

$$$$

 OpenBabel03272508413D

 39 42  0  0  1  0  0  0  0  0999 V2000
   39.5630   26.0420   32.1250 N   0  0  0  0  0  0  0  0  0  0  0  0
   38.6820   27.1510   32.4790 C   0  0  0  0  0  0  0  0  0  0  0  0
   37.2750   26.9410   32.1370 C   0  0  2  0  0  0  0  0  0  0  0  0
   37.0990   26.3510   30.7810 N   0  0  0  0  0  0  0  0  0  0  0  0
   37.9170   25.1270   30.7320 C   0  0  0  0  0  0  0  0  0  0  0  0
   39.3350   25.6480   30.7800 C   0  0  0  0  0  0  0  0  0  0  0  0
   39.0770   27.9420   31.7550 H   0  0  0  0  0  0  0  0  0  0  0  0
   38.8000   27.4230   33.5240 H   0  0  0  0  0  0  0  0  0  0  0  0
   36.7430   26.1730   32.7300 H   0  0  0  0  0  0  0  0  0  0  0  0
   37.5300   27.0240   30.1170 H   0  0  0  0  0  0  0  0  0  0  0  0
   37.7800   24.6960   29.7240 H   0  0  0  0  0  0  0  0  0  0  0  0
   37.7020   24.4470   31.5560 H   0  0  0  0  0  0  0  0  0  0  0  0
   40.0450   24.8600   30.4710 H   0  0  0  0  0  0  0  0  0  0  0  0
   39.4510   26.4690   30.0440 H   0  0  0  0  0  0  0  0  0  0  0  0
   36.5330   27.8550   34.8690 Cl  0  0  0  0  0  0  0  0  0  0  0  0
   36.1790   28.7540   33.3980 C   0  0  0  0  0  0  0  0  0  0  0  0
   36.5470   28.1980   32.2030 C   0  0  0  0  0  0  0  0  0  0  0  0
   36.3250   28.7950   30.9530 C   0  0  0  0  0  0  0  0  0  0  0  0
   35.6750   30.0390   30.9970 C   0  0  0  0  0  0  0  0  0  0  0  0
   35.2940   30.6130   32.2110 C   0  0  0  0  0  0  0  0  0  0  0  0
   35.5510   29.9670   33.3820 C   0  0  0  0  0  0  0  0  0  0  0  0
   36.5020   28.6040   29.9240 H   0  0  0  0  0  0  0  0  0  0  0  0
   35.3970   30.6820   30.1730 H   0  0  0  0  0  0  0  0  0  0  0  0
   34.7920   31.5630   32.3200 H   0  0  0  0  0  0  0  0  0  0  0  0
   35.1710   30.5310   34.7040 C   0  0  0  0  0  3  0  0  0  0  0  0
   36.0760   31.7300   34.9310 C   0  0  0  0  0  2  0  0  0  0  0  0
   35.5270   32.6930   35.9430 C   0  0  0  0  0  2  0  0  0  0  0  0
   34.6910   31.9220   36.9190 C   0  0  0  0  0  2  0  0  0  0  0  0
   33.4870   31.3270   36.2480 C   0  0  0  0  0  2  0  0  0  0  0  0
   33.7380   30.9560   34.7910 C   0  0  0  0  0  2  0  0  0  0  0  0
   40.5000   25.4890   33.0360 C   0  0  0  0  0  0  0  0  0  0  0  0
   41.3300   26.2870   33.8270 C   0  0  0  0  0  0  0  0  0  0  0  0
   42.2180   25.6700   34.6910 C   0  0  0  0  0  0  0  0  0  0  0  0
   42.2390   24.2850   34.7290 N   0  0  0  0  0  0  0  0  0  0  0  0
   41.4130   23.5570   33.9420 C   0  0  0  0  0  0  0  0  0  0  0  0
   40.5600   24.1330   33.1110 N   0  0  0  0  0  0  0  0  0  0  0  0
   41.2380   27.3580   33.7250 H   0  0  0  0  0  0  0  0  0  0  0  0
   42.8680   26.2720   35.3120 H   0  0  0  0  0  0  0  0  0  0  0  0
   41.5400   22.4910   34.0770 H   0  0  0  0  0  0  0  0  0  0  0  0
  1  2  1  0  0  0  0
  1 31  1  0  0  0  0
  2  8  1  0  0  0  0
  3 17  1  0  0  0  0
  3  2  1  0  0  0  0
  3  9  1  1  0  0  0
  4  3  1  0  0  0  0
  5  6  1  0  0  0  0
  5  4  1  0  0  0  0
  5 12  1  0  0  0  0
  6  1  1  0  0  0  0
  7  2  1  0  0  0  0
 10  4  1  0  0  0  0
 11  5  1  0  0  0  0
 13  6  1  0  0  0  0
 14  6  1  0  0  0  0
 16 15  1  0  0  0  0
 17 16  2  0  0  0  0
 18 19  2  0  0  0  0
 18 17  1  0  0  0  0
 19 20  1  0  0  0  0
 20 24  1  0  0  0  0
 20 21  2  0  0  0  0
 21 16  1  0  0  0  0
 21 25  1  0  0  0  0
 22 18  1  0  0  0  0
 23 19  1  0  0  0  0
 25 30  1  0  0  0  0
 25 26  1  0  0  0  0
 26 27  1  0  0  0  0
 27 28  1  0  0  0  0
 29 28  1  0  0  0  0
 30 29  1  0  0  0  0
 31 36  2  0  0  0  0
 31 32  1  0  0  0  0
 32 33  2  0  0  0  0
 33 34  1  0  0  0  0
 33 38  1  0  0  0  0
 35 39  1  0  0  0  0
 35 34  2  0  0  0  0
 36 35  1  0  0  0  0
 37 32  1  0  0  0  0
M  END
>  <minimizedAffinity>
-5.52027416

$$$$

 OpenBabel03272508413D

 39 42  0  0  1  0  0  0  0  0999 V2000
   37.2510   28.6220   30.9800 N   0  0  0  0  0  0  0  0  0  0  0  0
   37.2290   27.4870   31.8970 C   0  0  0  0  0  0  0  0  0  0  0  0
   38.5440   26.9150   32.1870 C   0  0  2  0  0  0  0  0  0  0  0  0
   39.3870   26.7760   30.9680 N   0  0  0  0  0  0  0  0  0  0  0  0
   39.4380   28.1000   30.3240 C   0  0  0  0  0  0  0  0  0  0  0  0
   38.0240   28.3070   29.8320 C   0  0  0  0  0  0  0  0  0  0  0  0
   36.6830   26.7270   31.2400 H   0  0  0  0  0  0  0  0  0  0  0  0
   36.6930   27.7330   32.8090 H   0  0  0  0  0  0  0  0  0  0  0  0
   39.2200   27.5450   32.7950 H   0  0  0  0  0  0  0  0  0  0  0  0
   38.8620   26.1510   30.3250 H   0  0  0  0  0  0  0  0  0  0  0  0
   40.0670   27.9880   29.4220 H   0  0  0  0  0  0  0  0  0  0  0  0
   39.7530   28.8870   31.0090 H   0  0  0  0  0  0  0  0  0  0  0  0
   37.9900   29.1270   29.0920 H   0  0  0  0  0  0  0  0  0  0  0  0
   37.6840   27.3980   29.2950 H   0  0  0  0  0  0  0  0  0  0  0  0
   39.4840   26.7290   35.0040 Cl  0  0  0  0  0  0  0  0  0  0  0  0
   38.7540   25.3950   34.1170 C   0  0  0  0  0  0  0  0  0  0  0  0
   38.3990   25.6100   32.8130 C   0  0  0  0  0  0  0  0  0  0  0  0
   37.8150   24.6410   31.9830 C   0  0  0  0  0  0  0  0  0  0  0  0
   37.6120   23.3900   32.5860 C   0  0  0  0  0  0  0  0  0  0  0  0
   37.9720   23.1600   33.9150 C   0  0  0  0  0  0  0  0  0  0  0  0
   38.5320   24.1580   34.6530 C   0  0  0  0  0  0  0  0  0  0  0  0
   37.4520   24.5410   30.9910 H   0  0  0  0  0  0  0  0  0  0  0  0
   37.1850   22.4960   32.1520 H   0  0  0  0  0  0  0  0  0  0  0  0
   37.8470   22.2250   34.4410 H   0  0  0  0  0  0  0  0  0  0  0  0
   38.9330   23.9720   36.0720 C   0  0  0  0  0  3  0  0  0  0  0  0
   37.6620   24.1040   36.8940 C   0  0  0  0  0  2  0  0  0  0  0  0
   37.7770   23.4740   38.2520 C   0  0  0  0  0  2  0  0  0  0  0  0
   39.2110   23.5420   38.6820 C   0  0  0  0  0  2  0  0  0  0  0  0
   40.0840   22.7110   37.7870 C   0  0  0  0  0  2  0  0  0  0  0  0
   39.5790   22.6500   36.3490 C   0  0  0  0  0  2  0  0  0  0  0  0
   36.5670   29.8370   31.2500 C   0  0  0  0  0  0  0  0  0  0  0  0
   35.9130   30.0690   32.4610 C   0  0  0  0  0  0  0  0  0  0  0  0
   35.2690   31.2810   32.6460 C   0  0  0  0  0  0  0  0  0  0  0  0
   35.3070   32.2060   31.6150 N   0  0  0  0  0  0  0  0  0  0  0  0
   35.9570   31.9320   30.4600 C   0  0  0  0  0  0  0  0  0  0  0  0
   36.5760   30.7790   30.2690 N   0  0  0  0  0  0  0  0  0  0  0  0
   35.9400   29.2860   33.2020 H   0  0  0  0  0  0  0  0  0  0  0  0
   34.7570   31.4790   33.5780 H   0  0  0  0  0  0  0  0  0  0  0  0
   35.9020   32.7440   29.7480 H   0  0  0  0  0  0  0  0  0  0  0  0
  1 31  1  0  0  0  0
  1  2  1  0  0  0  0
  2  3  1  0  0  0  0
  2  8  1  0  0  0  0
  3  9  1  1  0  0  0
  3 17  1  0  0  0  0
  4  3  1  0  0  0  0
  5  4  1  0  0  0  0
  5 12  1  0  0  0  0
  6  5  1  0  0  0  0
  6  1  1  0  0  0  0
  7  2  1  0  0  0  0
 10  4  1  0  0  0  0
 11  5  1  0  0  0  0
 13  6  1  0  0  0  0
 14  6  1  0  0  0  0
 16 21  1  0  0  0  0
 16 15  1  0  0  0  0
 17 16  2  0  0  0  0
 18 19  2  0  0  0  0
 18 17  1  0  0  0  0
 19 20  1  0  0  0  0
 20 24  1  0  0  0  0
 20 21  2  0  0  0  0
 21 25  1  0  0  0  0
 22 18  1  0  0  0  0
 23 19  1  0  0  0  0
 25 30  1  0  0  0  0
 25 26  1  0  0  0  0
 26 27  1  0  0  0  0
 27 28  1  0  0  0  0
 29 28  1  0  0  0  0
 30 29  1  0  0  0  0
 31 32  1  0  0  0  0
 32 33  2  0  0  0  0
 32 37  1  0  0  0  0
 33 38  1  0  0  0  0
 34 33  1  0  0  0  0
 35 34  2  0  0  0  0
 36 35  1  0  0  0  0
 36 31  2  0  0  0  0
 39 35  1  0  0  0  0
M  END
>  <minimizedAffinity>
-5.51443863

$$$$
