
 OpenBabel03272510023D

 18 19  0  0  0  0  0  0  0  0999 V2000
   38.2160   33.2020   49.5180 C   0  0  0  0  0  0  0  0  0  0  0  0
   39.0480   33.2310   48.3860 C   0  0  0  0  0  0  0  0  0  0  0  0
   38.8110   32.3170   47.3760 C   0  0  0  0  0  0  0  0  0  0  0  0
   37.7770   31.4270   47.5240 N   0  0  0  0  0  0  0  0  0  0  0  0
   37.0020   31.4350   48.6310 C   0  0  0  0  0  0  0  0  0  0  0  0
   37.2280   32.3170   49.6090 N   0  0  0  0  0  0  0  0  0  0  0  0
   38.3260   33.8770   50.3550 H   0  0  0  0  0  0  0  0  0  0  0  0
   39.7980   33.9780   48.4260 H   0  0  0  0  0  0  0  0  0  0  0  0
   39.6800   32.3600   46.2120 C   0  0  0  0  0  3  0  0  0  0  0  0
   40.3500   31.1030   45.8070 C   0  0  0  0  0  2  0  0  0  0  0  0
   39.7990   30.5240   44.5180 C   0  0  0  0  0  2  0  0  0  0  0  0
   40.0790   31.5310   43.4220 C   0  0  0  0  0  2  0  0  0  0  0  0
   39.7480   32.9400   43.8360 C   0  0  0  0  0  2  0  0  0  0  0  0
   38.8310   32.8380   45.0240 C   0  0  0  0  0  2  0  0  0  0  0  0
   35.9100   30.4400   48.7090 C   0  0  0  0  0  0  0  0  0  0  0  0
   35.0360   30.6770   49.7600 F   0  0  0  0  0  0  0  0  0  0  0  0
   35.1380   30.4490   47.5540 F   0  0  0  0  0  0  0  0  0  0  0  0
   36.3520   29.1450   48.8480 F   0  0  0  0  0  0  0  0  0  0  0  0
  1  6  1  0  0  0  0
  1  7  1  0  0  0  0
  2  8  1  0  0  0  0
  2  1  2  0  0  0  0
  3  4  2  0  0  0  0
  3  2  1  0  0  0  0
  4  5  1  0  0  0  0
  5 15  1  0  0  0  0
  5  6  2  0  0  0  0
  9  3  1  0  0  0  0
 10  9  1  0  0  0  0
 11 10  1  0  0  0  0
 12 13  1  0  0  0  0
 12 11  1  0  0  0  0
 13 14  1  0  0  0  0
 14  9  1  0  0  0  0
 15 18  1  0  0  0  0
 15 16  1  0  0  0  0
 17 15  1  0  0  0  0
M  END
>  <minimizedAffinity>
-5.71676683

>  <minimizedRMSD>
2.72342849

$$$$
