
 OpenBabel03272505593D

 41 44  0  0  1  0  0  0  0  0999 V2000
   35.4620   30.1040   49.7020 C   0  0  2  0  0  0  0  0  0  0  0  0
   36.3520   31.1590   49.1610 C   0  0  0  0  0  0  0  0  0  0  0  0
   37.8390   30.8600   49.4150 C   0  0  2  0  0  0  0  0  0  0  0  0
   38.1800   30.6370   50.8160 C   0  0  0  0  0  0  0  0  0  0  0  0
   37.1110   29.8630   51.5880 C   0  0  0  0  0  0  0  0  0  0  0  0
   36.1640   29.1580   50.6520 C   0  0  0  0  0  0  0  0  0  0  0  0
   34.6140   30.5400   50.3100 H   0  0  0  0  0  0  0  0  0  0  0  0
   36.1740   32.1060   49.7540 H   0  0  0  0  0  0  0  0  0  0  0  0
   36.3330   31.4440   48.1370 H   0  0  0  0  0  0  0  0  0  0  0  0
   38.1190   30.0240   48.7590 H   0  0  0  0  0  0  0  0  0  0  0  0
   39.1630   30.1260   50.8860 H   0  0  0  0  0  0  0  0  0  0  0  0
   38.3040   31.5900   51.3630 H   0  0  0  0  0  0  0  0  0  0  0  0
   37.6400   29.0780   52.1600 H   0  0  0  0  0  0  0  0  0  0  0  0
   36.5810   30.4970   52.3280 H   0  0  0  0  0  0  0  0  0  0  0  0
   35.4170   28.6390   51.2530 H   0  0  0  0  0  0  0  0  0  0  0  0
   36.7770   28.4620   50.0310 H   0  0  0  0  0  0  0  0  0  0  0  0
   38.5340   30.7830   46.5480 Cl  0  0  0  0  0  0  0  0  0  0  0  0
   38.9330   32.1480   47.5790 C   0  0  0  0  0  0  0  0  0  0  0  0
   38.5320   32.0820   48.9050 C   0  0  0  0  0  0  0  0  0  0  0  0
   38.8820   33.2020   49.6250 C   0  0  0  0  0  0  0  0  0  0  0  0
   39.5600   34.2700   49.0700 C   0  0  0  0  0  0  0  0  0  0  0  0
   39.9260   34.2550   47.7280 C   0  0  0  0  0  0  0  0  0  0  0  0
   39.5920   33.1440   46.9600 C   0  0  0  0  0  0  0  0  0  0  0  0
   38.6000   33.2320   50.6700 H   0  0  0  0  0  0  0  0  0  0  0  0
   39.7840   35.1040   49.7410 H   0  0  0  0  0  0  0  0  0  0  0  0
   40.4490   35.1150   47.3650 H   0  0  0  0  0  0  0  0  0  0  0  0
   39.9830   33.1300   45.5260 C   0  0  0  0  0  0  0  0  0  0  0  0
   38.8010   32.7930   44.6360 C   0  0  0  0  0  0  0  0  0  0  0  0
   39.2860   32.7040   43.2140 C   0  0  0  0  0  0  0  0  0  0  0  0
   40.1300   31.4670   43.0030 C   0  0  0  0  0  0  0  0  0  0  0  0
   40.6150   30.9970   44.3380 C   0  0  0  0  0  0  0  0  0  0  0  0
   41.0900   32.1660   45.2120 C   0  0  0  0  0  0  0  0  0  0  0  0
   34.8270   29.2900   48.6570 C   0  0  0  0  0  0  0  0  0  0  0  0
   34.8100   29.8660   47.3860 C   0  0  0  0  0  0  0  0  0  0  0  0
   34.2290   29.1230   46.3490 C   0  0  0  0  0  0  0  0  0  0  0  0
   33.7050   27.8670   46.6320 N   0  0  0  0  0  0  0  0  0  0  0  0
   33.7450   27.3500   47.8770 C   0  0  0  0  0  0  0  0  0  0  0  0
   34.3040   28.0780   48.8460 N   0  0  0  0  0  0  0  0  0  0  0  0
   35.1080   30.7670   46.8820 H   0  0  0  0  0  0  0  0  0  0  0  0
   34.0830   29.3130   45.3110 H   0  0  0  0  0  0  0  0  0  0  0  0
   33.3530   26.3930   48.1260 H   0  0  0  0  0  0  0  0  0  0  0  0
  1  7  1  1  0  0  0
  1  6  1  0  0  0  0
  2  3  1  0  0  0  0
  2  1  1  0  0  0  0
  2  8  1  0  0  0  0
  3 10  1  6  0  0  0
  3  4  1  0  0  0  0
  4 11  1  0  0  0  0
  4 12  1  0  0  0  0
  4  5  1  0  0  0  0
  5 13  1  0  0  0  0
  5 14  1  0  0  0  0
  6 15  1  0  0  0  0
  6  5  1  0  0  0  0
  9  2  1  0  0  0  0
 16  6  1  0  0  0  0
 17 18  1  0  0  0  0
 18 19  1  0  0  0  0
 19  3  1  0  0  0  0
 19 20  2  0  0  0  0
 20 24  1  0  0  0  0
 21 20  1  0  0  0  0
 21 25  1  0  0  0  0
 22 21  2  0  0  0  0
 23 18  2  0  0  0  0
 23 22  1  0  0  0  0
 26 22  1  0  0  0  0
 27 23  1  0  0  0  0
 28 27  1  0  0  0  0
 29 28  1  0  0  0  0
 30 29  1  0  0  0  0
 30 31  1  0  0  0  0
 31 32  1  0  0  0  0
 32 27  1  0  0  0  0
 33 38  1  0  0  0  0
 33  1  1  0  0  0  0
 34 33  2  0  0  0  0
 35 36  2  0  0  0  0
 35 34  1  0  0  0  0
 36 37  1  0  0  0  0
 37 41  1  0  0  0  0
 37 38  2  0  0  0  0
 39 34  1  0  0  0  0
 40 35  1  0  0  0  0
M  END
>  <minimizedAffinity>
-8.84286594

>  <minimizedRMSD>
1.0692749

$$$$
