
 OpenBabel03272507343D

 33 36  0  0  1  0  0  0  0  0999 V2000
   35.8230   29.1460   49.8100 C   0  0  0  0  0  0  0  0  0  0  0  0
   34.8230   29.6620   50.6010 C   0  0  0  0  0  0  0  0  0  0  0  0
   33.6060   29.1430   50.1340 C   0  0  0  0  0  0  0  0  0  0  0  0
   33.9500   28.3320   49.0740 C   0  0  0  0  0  0  0  0  0  0  0  0
   35.2570   28.3650   48.9210 O   0  0  0  0  0  0  0  0  0  0  0  0
   34.8640   30.3460   51.4450 H   0  0  0  0  0  0  0  0  0  0  0  0
   32.6040   29.3040   50.4820 H   0  0  0  0  0  0  0  0  0  0  0  0
   37.2220   29.4760   50.0150 C   0  0  0  0  0  0  0  0  0  0  0  0
   37.8760   28.8530   50.8650 O   0  0  0  0  0  0  0  0  0  0  0  0
   37.7700   30.5260   49.2020 C   0  0  0  0  0  0  0  0  0  0  0  0
   38.1180   31.7030   49.8360 C   0  0  0  0  0  0  0  0  0  0  0  0
   38.6510   32.7440   49.0780 C   0  0  0  0  0  0  0  0  0  0  0  0
   38.8050   32.5460   47.7200 N   0  0  0  0  0  0  0  0  0  0  0  0
   38.4560   31.3910   47.1430 C   0  0  0  0  0  0  0  0  0  0  0  0
   37.9440   30.3890   47.8690 N   0  0  0  0  0  0  0  0  0  0  0  0
   38.0110   31.8990   50.9070 H   0  0  0  0  0  0  0  0  0  0  0  0
   38.9440   33.6850   49.4960 H   0  0  0  0  0  0  0  0  0  0  0  0
   38.6310   31.3670   46.0670 H   0  0  0  0  0  0  0  0  0  0  0  0
   33.0220   27.5560   48.2510 C   0  0  0  0  0  0  0  0  0  0  0  0
   31.8040   27.4810   48.6260 O   0  0  0  0  0  0  0  0  0  0  0  0
   33.5030   26.8640   47.0090 C   0  0  1  0  0  0  0  0  0  0  0  0
   33.7820   25.3400   47.3320 C   0  0  0  0  0  0  0  0  0  0  0  0
   32.7100   25.7980   46.4160 C   0  0  2  0  0  0  0  0  0  0  0  0
   34.4520   27.3070   46.6400 H   0  0  0  0  0  0  0  0  0  0  0  0
   33.5110   24.9810   48.3240 H   0  0  0  0  0  0  0  0  0  0  0  0
   34.7200   24.9360   46.9590 H   0  0  0  0  0  0  0  0  0  0  0  0
   31.6660   25.7270   46.8500 H   0  0  0  0  0  0  0  0  0  0  0  0
   32.8140   25.3270   45.0190 C   0  0  0  0  0  3  0  0  0  0  0  0
   33.3260   23.9380   44.8010 C   0  0  0  0  0  2  0  0  0  0  0  0
   32.2580   22.8920   44.6900 C   0  0  0  0  0  2  0  0  0  0  0  0
   31.3040   23.1490   43.5470 C   0  0  0  0  0  2  0  0  0  0  0  0
   31.2460   24.6090   43.1740 C   0  0  0  0  0  2  0  0  0  0  0  0
   31.4340   25.4400   44.4000 C   0  0  0  0  0  2  0  0  0  0  0  0
  1  8  1  0  0  0  0
  1  2  2  0  0  0  0
  2  6  1  0  0  0  0
  3  7  1  0  0  0  0
  3  2  1  0  0  0  0
  4  3  2  0  0  0  0
  5  4  1  0  0  0  0
  5  1  1  0  0  0  0
  8  9  2  0  0  0  0
 10 11  1  0  0  0  0
 10  8  1  0  0  0  0
 11 16  1  0  0  0  0
 12 17  1  0  0  0  0
 12 11  2  0  0  0  0
 13 12  1  0  0  0  0
 14 13  2  0  0  0  0
 14 15  1  0  0  0  0
 15 10  2  0  0  0  0
 18 14  1  0  0  0  0
 19 20  2  0  0  0  0
 19  4  1  0  0  0  0
 21 24  1  6  0  0  0
 21 22  1  0  0  0  0
 21 19  1  0  0  0  0
 22 25  1  0  0  0  0
 23 27  1  1  0  0  0
 23 21  1  0  0  0  0
 23 22  1  0  0  0  0
 26 22  1  0  0  0  0
 28 23  1  0  0  0  0
 29 28  1  0  0  0  0
 30 29  1  0  0  0  0
 31 30  1  0  0  0  0
 32 31  1  0  0  0  0
 32 33  1  0  0  0  0
 33 28  1  0  0  0  0
M  END
>  <minimizedAffinity>
-4.8650732

>  <minimizedRMSD>
0.123124324

$$$$
