
 OpenBabel03272506473D

 39 42  0  0  1  0  0  0  0  0999 V2000
   32.1270   28.5020   47.4400 C   0  0  2  0  0  0  0  0  0  0  0  0
   33.3750   28.3280   48.2550 C   0  0  1  0  0  0  0  0  0  0  0  0
   33.7620   27.0250   48.1580 O   0  0  0  0  0  0  0  0  0  0  0  0
   33.0570   26.4140   47.1270 C   0  0  0  0  0  0  0  0  0  0  0  0
   32.4510   27.5040   46.2830 C   0  0  1  0  0  0  0  0  0  0  0  0
   31.2010   28.1820   47.9060 H   0  0  0  0  0  0  0  0  0  0  0  0
   33.1810   28.6710   49.2920 H   0  0  0  0  0  0  0  0  0  0  0  0
   32.3780   25.7020   47.5660 H   0  0  0  0  0  0  0  0  0  0  0  0
   33.8090   25.8540   46.5050 H   0  0  0  0  0  0  0  0  0  0  0  0
   33.1580   28.0180   45.6390 H   0  0  0  0  0  0  0  0  0  0  0  0
   32.0570   29.8080   46.9100 O   0  0  0  0  0  0  0  0  0  0  0  0
   32.7130   29.8640   46.1800 H   0  0  0  0  0  0  0  0  0  0  0  0
   34.6840   29.3710   47.4950 S   0  0  0  0  0  0  0  0  0  0  0  0
   37.1050   29.2810   50.6290 C   0  0  0  0  0  0  0  0  0  0  0  0
   37.5910   30.5850   50.7460 C   0  0  0  0  0  0  0  0  0  0  0  0
   37.1550   31.5290   49.8200 C   0  0  0  0  0  0  0  0  0  0  0  0
   36.2780   31.1410   48.8490 N   0  0  0  0  0  0  0  0  0  0  0  0
   35.8330   29.8680   48.7720 C   0  0  0  0  0  0  0  0  0  0  0  0
   36.2380   28.9220   49.6580 N   0  0  0  0  0  0  0  0  0  0  0  0
   37.4690   28.5950   51.3610 H   0  0  0  0  0  0  0  0  0  0  0  0
   38.2910   30.8480   51.5390 H   0  0  0  0  0  0  0  0  0  0  0  0
   37.5160   32.5430   49.8900 H   0  0  0  0  0  0  0  0  0  0  0  0
   31.2990   27.0330   45.7020 O   0  0  0  0  0  0  0  0  0  0  0  0
   29.8750   29.1690   44.2590 Cl  0  0  0  0  0  0  0  0  0  0  0  0
   29.3000   28.1710   45.5740 C   0  0  0  0  0  0  0  0  0  0  0  0
   30.0620   27.1890   46.1640 C   0  0  0  0  0  0  0  0  0  0  0  0
   29.4840   26.4380   47.1900 C   0  0  0  0  0  0  0  0  0  0  0  0
   28.1880   26.6810   47.5920 C   0  0  0  0  0  0  0  0  0  0  0  0
   27.4150   27.6650   47.0050 C   0  0  0  0  0  0  0  0  0  0  0  0
   27.9930   28.4060   45.9910 C   0  0  0  0  0  0  0  0  0  0  0  0
   30.0070   25.6490   47.7020 H   0  0  0  0  0  0  0  0  0  0  0  0
   27.7020   26.1240   48.3810 H   0  0  0  0  0  0  0  0  0  0  0  0
   26.3990   27.8450   47.3320 H   0  0  0  0  0  0  0  0  0  0  0  0
   27.1650   29.4670   45.3570 C   0  0  0  0  0  3  0  0  0  0  0  0
   26.9780   29.2630   43.8800 C   0  0  0  0  0  2  0  0  0  0  0  0
   26.8190   30.5980   43.1510 C   0  0  0  0  0  2  0  0  0  0  0  0
   26.0320   31.5930   43.9590 C   0  0  0  0  0  2  0  0  0  0  0  0
   26.8290   31.9230   45.2030 C   0  0  0  0  0  2  0  0  0  0  0  0
   27.7970   30.8230   45.5480 C   0  0  0  0  0  2  0  0  0  0  0  0
  1  6  1  1  0  0  0
  1  2  1  0  0  0  0
  2  7  1  1  0  0  0
  3  2  1  0  0  0  0
  4  8  1  0  0  0  0
  4  3  1  0  0  0  0
  5 10  1  6  0  0  0
  5  4  1  0  0  0  0
  5  1  1  0  0  0  0
  9  4  1  0  0  0  0
 11  1  1  0  0  0  0
 12 11  1  0  0  0  0
 13  2  1  0  0  0  0
 13 18  1  0  0  0  0
 14 15  1  0  0  0  0
 14 20  1  0  0  0  0
 15 21  1  0  0  0  0
 16 22  1  0  0  0  0
 16 15  2  0  0  0  0
 17 16  1  0  0  0  0
 18 17  2  0  0  0  0
 18 19  1  0  0  0  0
 19 14  2  0  0  0  0
 23 26  1  0  0  0  0
 23  5  1  0  0  0  0
 24 25  1  0  0  0  0
 25 30  2  0  0  0  0
 25 26  1  0  0  0  0
 26 27  2  0  0  0  0
 27 28  1  0  0  0  0
 27 31  1  0  0  0  0
 28 32  1  0  0  0  0
 29 33  1  0  0  0  0
 29 28  2  0  0  0  0
 30 29  1  0  0  0  0
 34 39  1  0  0  0  0
 34 30  1  0  0  0  0
 35 34  1  0  0  0  0
 36 35  1  0  0  0  0
 36 37  1  0  0  0  0
 37 38  1  0  0  0  0
 38 39  1  0  0  0  0
M  END
>  <minimizedAffinity>
-5.24535322

>  <minimizedRMSD>
0.139198005

$$$$
