
 OpenBabel03262522333D

 24 26  0  0  0  0  0  0  0  0999 V2000
   38.3630   24.7690   35.9440 C   0  0  0  0  0  0  0  0  0  0  0  0
   37.8270   24.5630   37.1840 C   0  0  0  0  0  0  0  0  0  0  0  0
   38.3150   23.7140   38.1500 C   0  0  0  0  0  0  0  0  0  0  0  0
   39.4630   22.9900   37.8510 C   0  0  0  0  0  0  0  0  0  0  0  0
   40.0130   23.1950   36.5920 C   0  0  0  0  0  0  0  0  0  0  0  0
   39.4800   24.0430   35.6970 N   0  0  0  0  0  0  0  0  0  0  0  0
   36.9240   25.1090   37.4660 H   0  0  0  0  0  0  0  0  0  0  0  0
   37.8550   23.5830   39.1200 H   0  0  0  0  0  0  0  0  0  0  0  0
   39.9270   22.2990   38.5350 H   0  0  0  0  0  0  0  0  0  0  0  0
   37.4290   26.9980   35.2510 C   0  0  0  0  0  0  0  0  0  0  0  0
   37.8190   25.6730   34.9540 C   0  0  0  0  0  0  0  0  0  0  0  0
   37.6750   25.2060   33.6460 C   0  0  0  0  0  0  0  0  0  0  0  0
   37.1590   26.0660   32.7150 N   0  0  0  0  0  0  0  0  0  0  0  0
   36.7970   27.3180   33.0250 C   0  0  0  0  0  0  0  0  0  0  0  0
   36.9260   27.7970   34.2860 N   0  0  0  0  0  0  0  0  0  0  0  0
   37.5450   27.3500   36.2660 H   0  0  0  0  0  0  0  0  0  0  0  0
   37.9340   24.2290   33.3030 H   0  0  0  0  0  0  0  0  0  0  0  0
   36.3860   28.0210   32.3130 H   0  0  0  0  0  0  0  0  0  0  0  0
   41.2460   22.4200   36.2670 C   0  0  0  0  0  3  0  0  0  0  0  0
   42.4180   23.2970   35.9460 C   0  0  0  0  0  2  0  0  0  0  0  0
   43.6970   22.6110   36.3740 C   0  0  0  0  0  2  0  0  0  0  0  0
   43.5520   21.1320   36.0560 C   0  0  0  0  0  2  0  0  0  0  0  0
   42.6490   20.5280   37.0990 C   0  0  0  0  0  2  0  0  0  0  0  0
   41.5400   21.4940   37.4470 C   0  0  0  0  0  2  0  0  0  0  0  0
  1  2  1  0  0  0  0
  2  7  1  0  0  0  0
  2  3  2  0  0  0  0
  3  8  1  0  0  0  0
  4  3  1  0  0  0  0
  4  9  1  0  0  0  0
  5  4  2  0  0  0  0
  6  1  2  0  0  0  0
  6  5  1  0  0  0  0
 10 16  1  0  0  0  0
 11 10  1  0  0  0  0
 11  1  1  0  0  0  0
 12 11  2  0  0  0  0
 13 14  2  0  0  0  0
 13 12  1  0  0  0  0
 14 15  1  0  0  0  0
 15 10  2  0  0  0  0
 17 12  1  0  0  0  0
 18 14  1  0  0  0  0
 19  5  1  0  0  0  0
 19 24  1  0  0  0  0
 20 19  1  0  0  0  0
 20 21  1  0  0  0  0
 22 21  1  0  0  0  0
 22 23  1  0  0  0  0
 23 24  1  0  0  0  0
M  END
>  <minimizedAffinity>
-5.35286379

$$$$

 OpenBabel03262522333D

 24 26  0  0  0  0  0  0  0  0999 V2000
   36.0020   23.3370   31.6830 C   0  0  0  0  0  0  0  0  0  0  0  0
   35.1820   24.1800   30.9850 C   0  0  0  0  0  0  0  0  0  0  0  0
   35.2190   25.5540   31.0110 C   0  0  0  0  0  0  0  0  0  0  0  0
   36.1750   26.1590   31.8180 C   0  0  0  0  0  0  0  0  0  0  0  0
   37.0110   25.3080   32.5290 C   0  0  0  0  0  0  0  0  0  0  0  0
   36.9180   23.9700   32.4550 N   0  0  0  0  0  0  0  0  0  0  0  0
   34.4140   23.7520   30.3370 H   0  0  0  0  0  0  0  0  0  0  0  0
   34.5480   26.1820   30.4390 H   0  0  0  0  0  0  0  0  0  0  0  0
   36.2890   27.2260   31.9100 H   0  0  0  0  0  0  0  0  0  0  0  0
   36.7460   21.1130   30.7800 C   0  0  0  0  0  0  0  0  0  0  0  0
   35.9320   21.8920   31.6290 C   0  0  0  0  0  0  0  0  0  0  0  0
   35.0130   21.2480   32.4590 C   0  0  0  0  0  0  0  0  0  0  0  0
   34.9510   19.8820   32.4030 N   0  0  0  0  0  0  0  0  0  0  0  0
   35.7360   19.1670   31.5860 C   0  0  0  0  0  0  0  0  0  0  0  0
   36.6360   19.7670   30.7710 N   0  0  0  0  0  0  0  0  0  0  0  0
   37.4550   21.6210   30.1410 H   0  0  0  0  0  0  0  0  0  0  0  0
   34.3470   21.7290   33.1410 H   0  0  0  0  0  0  0  0  0  0  0  0
   35.7110   18.0880   31.5180 H   0  0  0  0  0  0  0  0  0  0  0  0
   38.0390   25.9520   33.3970 C   0  0  0  0  0  3  0  0  0  0  0  0
   37.5410   27.1990   34.0630 C   0  0  0  0  0  2  0  0  0  0  0  0
   38.2200   27.3640   35.4060 C   0  0  0  0  0  2  0  0  0  0  0  0
   39.6690   26.9340   35.2420 C   0  0  0  0  0  2  0  0  0  0  0  0
   39.6960   25.4290   35.1940 C   0  0  0  0  0  2  0  0  0  0  0  0
   38.5050   24.9140   34.4190 C   0  0  0  0  0  2  0  0  0  0  0  0
  1  6  1  0  0  0  0
  2  3  1  0  0  0  0
  2  1  2  0  0  0  0
  3  4  2  0  0  0  0
  4  9  1  0  0  0  0
  4  5  1  0  0  0  0
  5 19  1  0  0  0  0
  6  5  2  0  0  0  0
  7  2  1  0  0  0  0
  8  3  1  0  0  0  0
 10 11  1  0  0  0  0
 11  1  1  0  0  0  0
 11 12  2  0  0  0  0
 12 17  1  0  0  0  0
 13 12  1  0  0  0  0
 14 13  2  0  0  0  0
 15 10  2  0  0  0  0
 15 14  1  0  0  0  0
 16 10  1  0  0  0  0
 18 14  1  0  0  0  0
 19 20  1  0  0  0  0
 19 24  1  0  0  0  0
 20 21  1  0  0  0  0
 22 21  1  0  0  0  0
 23 22  1  0  0  0  0
 24 23  1  0  0  0  0
M  END
>  <minimizedAffinity>
-5.24392653

$$$$

 OpenBabel03262522333D

 24 26  0  0  0  0  0  0  0  0999 V2000
   36.1690   22.9090   31.9730 C   0  0  0  0  0  0  0  0  0  0  0  0
   35.4300   23.7720   31.2120 C   0  0  0  0  0  0  0  0  0  0  0  0
   35.5770   25.1380   31.1610 C   0  0  0  0  0  0  0  0  0  0  0  0
   36.5650   25.7110   31.9520 C   0  0  0  0  0  0  0  0  0  0  0  0
   37.3180   24.8390   32.7280 C   0  0  0  0  0  0  0  0  0  0  0  0
   37.1190   23.5110   32.7270 N   0  0  0  0  0  0  0  0  0  0  0  0
   34.6410   23.3690   30.5730 H   0  0  0  0  0  0  0  0  0  0  0  0
   34.9680   25.7830   30.5410 H   0  0  0  0  0  0  0  0  0  0  0  0
   36.7630   26.7700   31.9870 H   0  0  0  0  0  0  0  0  0  0  0  0
   36.1410   20.6550   30.8600 C   0  0  0  0  0  0  0  0  0  0  0  0
   35.9840   21.4730   32.0000 C   0  0  0  0  0  0  0  0  0  0  0  0
   35.6340   20.8780   33.2130 C   0  0  0  0  0  0  0  0  0  0  0  0
   35.4600   19.5210   33.2300 N   0  0  0  0  0  0  0  0  0  0  0  0
   35.6150   18.7690   32.1330 C   0  0  0  0  0  0  0  0  0  0  0  0
   35.9550   19.3200   30.9430 N   0  0  0  0  0  0  0  0  0  0  0  0
   36.4120   21.1250   29.9250 H   0  0  0  0  0  0  0  0  0  0  0  0
   35.4880   21.3910   34.1370 H   0  0  0  0  0  0  0  0  0  0  0  0
   35.4840   17.6960   32.1140 H   0  0  0  0  0  0  0  0  0  0  0  0
   38.3810   25.4490   33.5800 C   0  0  0  0  0  3  0  0  0  0  0  0
   39.5700   25.9070   32.7890 C   0  0  0  0  0  2  0  0  0  0  0  0
   40.1930   27.1110   33.4620 C   0  0  0  0  0  2  0  0  0  0  0  0
   40.1300   26.8810   34.9630 C   0  0  0  0  0  2  0  0  0  0  0  0
   38.7110   27.1260   35.4030 C   0  0  0  0  0  2  0  0  0  0  0  0
   37.7480   26.5990   34.3630 C   0  0  0  0  0  2  0  0  0  0  0  0
  1 11  1  0  0  0  0
  1  6  1  0  0  0  0
  2  1  2  0  0  0  0
  3  2  1  0  0  0  0
  3  4  2  0  0  0  0
  4  9  1  0  0  0  0
  4  5  1  0  0  0  0
  5 19  1  0  0  0  0
  6  5  2  0  0  0  0
  7  2  1  0  0  0  0
  8  3  1  0  0  0  0
 10 15  2  0  0  0  0
 10 11  1  0  0  0  0
 11 12  2  0  0  0  0
 12 13  1  0  0  0  0
 12 17  1  0  0  0  0
 14 13  2  0  0  0  0
 15 14  1  0  0  0  0
 16 10  1  0  0  0  0
 18 14  1  0  0  0  0
 19 24  1  0  0  0  0
 20 21  1  0  0  0  0
 20 19  1  0  0  0  0
 21 22  1  0  0  0  0
 22 23  1  0  0  0  0
 24 23  1  0  0  0  0
M  END
>  <minimizedAffinity>
-5.24340725

$$$$

 OpenBabel03262522333D

 24 26  0  0  0  0  0  0  0  0999 V2000
   36.3130   28.4050   33.7850 C   0  0  0  0  0  0  0  0  0  0  0  0
   36.0430   28.6160   32.4620 C   0  0  0  0  0  0  0  0  0  0  0  0
   35.2480   29.6120   31.9440 C   0  0  0  0  0  0  0  0  0  0  0  0
   34.6570   30.4950   32.8390 C   0  0  0  0  0  0  0  0  0  0  0  0
   34.9280   30.2860   34.1850 C   0  0  0  0  0  0  0  0  0  0  0  0
   35.7170   29.2900   34.6200 N   0  0  0  0  0  0  0  0  0  0  0  0
   36.4850   27.9480   31.7200 H   0  0  0  0  0  0  0  0  0  0  0  0
   35.0620   29.7410   30.8860 H   0  0  0  0  0  0  0  0  0  0  0  0
   34.0170   31.3090   32.5390 H   0  0  0  0  0  0  0  0  0  0  0  0
   37.2750   26.0860   33.6620 C   0  0  0  0  0  0  0  0  0  0  0  0
   37.1570   27.3440   34.2920 C   0  0  0  0  0  0  0  0  0  0  0  0
   37.8860   27.5840   35.4590 C   0  0  0  0  0  0  0  0  0  0  0  0
   38.6800   26.5760   35.9320 N   0  0  0  0  0  0  0  0  0  0  0  0
   38.7720   25.3910   35.3140 C   0  0  0  0  0  0  0  0  0  0  0  0
   38.0780   25.1320   34.1800 N   0  0  0  0  0  0  0  0  0  0  0  0
   36.7080   25.9090   32.7580 H   0  0  0  0  0  0  0  0  0  0  0  0
   37.8780   28.4910   36.0200 H   0  0  0  0  0  0  0  0  0  0  0  0
   39.3910   24.5750   35.6630 H   0  0  0  0  0  0  0  0  0  0  0  0
   34.2950   31.2320   35.1500 C   0  0  0  0  0  3  0  0  0  0  0  0
   33.0650   30.6700   35.7960 C   0  0  0  0  0  2  0  0  0  0  0  0
   32.9250   31.2320   37.1940 C   0  0  0  0  0  2  0  0  0  0  0  0
   33.3410   32.6930   37.1440 C   0  0  0  0  0  2  0  0  0  0  0  0
   34.8450   32.7360   37.0680 C   0  0  0  0  0  2  0  0  0  0  0  0
   35.3510   31.6180   36.1860 C   0  0  0  0  0  2  0  0  0  0  0  0
  1 11  1  0  0  0  0
  1  6  1  0  0  0  0
  2  1  2  0  0  0  0
  3  2  1  0  0  0  0
  3  4  2  0  0  0  0
  4  5  1  0  0  0  0
  5  6  2  0  0  0  0
  5 19  1  0  0  0  0
  7  2  1  0  0  0  0
  8  3  1  0  0  0  0
  9  4  1  0  0  0  0
 10 15  2  0  0  0  0
 10 11  1  0  0  0  0
 11 12  2  0  0  0  0
 12 13  1  0  0  0  0
 12 17  1  0  0  0  0
 14 18  1  0  0  0  0
 14 13  2  0  0  0  0
 15 14  1  0  0  0  0
 16 10  1  0  0  0  0
 19 20  1  0  0  0  0
 19 24  1  0  0  0  0
 20 21  1  0  0  0  0
 22 21  1  0  0  0  0
 23 22  1  0  0  0  0
 24 23  1  0  0  0  0
M  END
>  <minimizedAffinity>
-5.17649555

$$$$

 OpenBabel03262522333D

 24 26  0  0  0  0  0  0  0  0999 V2000
   36.0960   28.2210   32.2510 C   0  0  0  0  0  0  0  0  0  0  0  0
   36.4320   29.1610   31.3170 C   0  0  0  0  0  0  0  0  0  0  0  0
   36.3240   30.5240   31.4610 C   0  0  0  0  0  0  0  0  0  0  0  0
   35.8280   31.0070   32.6660 C   0  0  0  0  0  0  0  0  0  0  0  0
   35.4850   30.0570   33.6190 C   0  0  0  0  0  0  0  0  0  0  0  0
   35.6180   28.7380   33.4090 N   0  0  0  0  0  0  0  0  0  0  0  0
   36.8260   28.8310   30.3530 H   0  0  0  0  0  0  0  0  0  0  0  0
   36.6030   31.2320   30.6920 H   0  0  0  0  0  0  0  0  0  0  0  0
   35.7030   32.0560   32.8820 H   0  0  0  0  0  0  0  0  0  0  0  0
   35.5000   26.0760   31.0830 C   0  0  0  0  0  0  0  0  0  0  0  0
   36.2250   26.7920   32.0610 C   0  0  0  0  0  0  0  0  0  0  0  0
   37.1100   26.0960   32.8870 C   0  0  0  0  0  0  0  0  0  0  0  0
   37.2260   24.7460   32.7030 N   0  0  0  0  0  0  0  0  0  0  0  0
   36.5250   24.0920   31.7670 C   0  0  0  0  0  0  0  0  0  0  0  0
   35.6600   24.7420   30.9520 N   0  0  0  0  0  0  0  0  0  0  0  0
   34.8180   26.6230   30.4480 H   0  0  0  0  0  0  0  0  0  0  0  0
   37.7090   26.5280   33.6580 H   0  0  0  0  0  0  0  0  0  0  0  0
   36.5950   23.0260   31.5970 H   0  0  0  0  0  0  0  0  0  0  0  0
   34.9520   30.5710   34.9150 C   0  0  0  0  0  3  0  0  0  0  0  0
   35.9760   31.3250   35.7080 C   0  0  0  0  0  2  0  0  0  0  0  0
   35.2950   32.4060   36.5190 C   0  0  0  0  0  2  0  0  0  0  0  0
   33.9830   31.8350   37.0330 C   0  0  0  0  0  2  0  0  0  0  0  0
   33.0120   31.8150   35.8820 C   0  0  0  0  0  2  0  0  0  0  0  0
   33.7290   31.4350   34.6060 C   0  0  0  0  0  2  0  0  0  0  0  0
  1  6  1  0  0  0  0
  2  3  1  0  0  0  0
  2  1  2  0  0  0  0
  3  4  2  0  0  0  0
  4  9  1  0  0  0  0
  4  5  1  0  0  0  0
  5 19  1  0  0  0  0
  6  5  2  0  0  0  0
  7  2  1  0  0  0  0
  8  3  1  0  0  0  0
 10 11  1  0  0  0  0
 11  1  1  0  0  0  0
 11 12  2  0  0  0  0
 12 17  1  0  0  0  0
 13 12  1  0  0  0  0
 14 13  2  0  0  0  0
 15 10  2  0  0  0  0
 15 14  1  0  0  0  0
 16 10  1  0  0  0  0
 18 14  1  0  0  0  0
 19 20  1  0  0  0  0
 20 21  1  0  0  0  0
 21 22  1  0  0  0  0
 23 22  1  0  0  0  0
 24 19  1  0  0  0  0
 24 23  1  0  0  0  0
M  END
>  <minimizedAffinity>
-5.09798765

$$$$

 OpenBabel03262522333D

 24 26  0  0  0  0  0  0  0  0999 V2000
   38.0350   23.3070   34.8330 C   0  0  0  0  0  0  0  0  0  0  0  0
   38.0310   24.3580   33.9570 C   0  0  0  0  0  0  0  0  0  0  0  0
   37.6990   24.3030   32.6240 C   0  0  0  0  0  0  0  0  0  0  0  0
   37.3290   23.0690   32.1020 C   0  0  0  0  0  0  0  0  0  0  0  0
   37.3310   21.9990   32.9870 C   0  0  0  0  0  0  0  0  0  0  0  0
   37.6670   22.1260   34.2800 N   0  0  0  0  0  0  0  0  0  0  0  0
   38.3150   25.3480   34.3210 H   0  0  0  0  0  0  0  0  0  0  0  0
   37.7110   25.1630   31.9690 H   0  0  0  0  0  0  0  0  0  0  0  0
   37.0510   22.9170   31.0720 H   0  0  0  0  0  0  0  0  0  0  0  0
   39.5370   22.7900   36.7810 C   0  0  0  0  0  0  0  0  0  0  0  0
   38.3910   23.4060   36.2320 C   0  0  0  0  0  0  0  0  0  0  0  0
   37.5560   24.1450   37.0720 C   0  0  0  0  0  0  0  0  0  0  0  0
   37.8980   24.2330   38.3940 N   0  0  0  0  0  0  0  0  0  0  0  0
   38.9920   23.6380   38.8880 C   0  0  0  0  0  0  0  0  0  0  0  0
   39.8190   22.9150   38.0960 N   0  0  0  0  0  0  0  0  0  0  0  0
   40.1770   22.2200   36.1230 H   0  0  0  0  0  0  0  0  0  0  0  0
   36.6660   24.6530   36.7730 H   0  0  0  0  0  0  0  0  0  0  0  0
   39.2880   23.6890   39.9270 H   0  0  0  0  0  0  0  0  0  0  0  0
   36.9340   20.6710   32.4310 C   0  0  0  0  0  3  0  0  0  0  0  0
   35.7420   20.0830   33.1220 C   0  0  0  0  0  2  0  0  0  0  0  0
   34.9480   19.2460   32.1410 C   0  0  0  0  0  2  0  0  0  0  0  0
   35.9430   18.5130   31.2560 C   0  0  0  0  0  2  0  0  0  0  0  0
   36.4910   19.5060   30.2650 C   0  0  0  0  0  2  0  0  0  0  0  0
   36.6880   20.8480   30.9320 C   0  0  0  0  0  2  0  0  0  0  0  0
  1 11  1  0  0  0  0
  2  7  1  0  0  0  0
  2  1  2  0  0  0  0
  3  2  1  0  0  0  0
  4  3  2  0  0  0  0
  4  5  1  0  0  0  0
  5  6  2  0  0  0  0
  6  1  1  0  0  0  0
  8  3  1  0  0  0  0
  9  4  1  0  0  0  0
 10 15  1  0  0  0  0
 11 10  2  0  0  0  0
 11 12  1  0  0  0  0
 12 13  2  0  0  0  0
 13 14  1  0  0  0  0
 14 18  1  0  0  0  0
 15 14  2  0  0  0  0
 16 10  1  0  0  0  0
 17 12  1  0  0  0  0
 19  5  1  0  0  0  0
 19 20  1  0  0  0  0
 21 20  1  0  0  0  0
 22 21  1  0  0  0  0
 23 24  1  0  0  0  0
 23 22  1  0  0  0  0
 24 19  1  0  0  0  0
M  END
>  <minimizedAffinity>
-5.07866859

$$$$

 OpenBabel03262522333D

 24 26  0  0  0  0  0  0  0  0999 V2000
   35.5460   29.5900   34.0940 C   0  0  0  0  0  0  0  0  0  0  0  0
   35.3190   29.6620   32.7480 C   0  0  0  0  0  0  0  0  0  0  0  0
   35.8760   28.8530   31.7860 C   0  0  0  0  0  0  0  0  0  0  0  0
   36.7570   27.8640   32.2060 C   0  0  0  0  0  0  0  0  0  0  0  0
   36.9920   27.7860   33.5720 C   0  0  0  0  0  0  0  0  0  0  0  0
   36.4100   28.6110   34.4570 N   0  0  0  0  0  0  0  0  0  0  0  0
   34.6340   30.4230   32.3690 H   0  0  0  0  0  0  0  0  0  0  0  0
   35.6650   28.9480   30.7290 H   0  0  0  0  0  0  0  0  0  0  0  0
   37.2490   27.1790   31.5350 H   0  0  0  0  0  0  0  0  0  0  0  0
   33.5470   30.5050   35.3120 C   0  0  0  0  0  0  0  0  0  0  0  0
   34.9380   30.4600   35.0780 C   0  0  0  0  0  0  0  0  0  0  0  0
   35.7740   31.2920   35.8260 C   0  0  0  0  0  0  0  0  0  0  0  0
   35.1930   32.1130   36.7520 N   0  0  0  0  0  0  0  0  0  0  0  0
   33.8680   32.1350   36.9530 C   0  0  0  0  0  0  0  0  0  0  0  0
   33.0340   31.3390   36.2420 N   0  0  0  0  0  0  0  0  0  0  0  0
   32.9070   29.8570   34.7280 H   0  0  0  0  0  0  0  0  0  0  0  0
   36.8370   31.3450   35.7380 H   0  0  0  0  0  0  0  0  0  0  0  0
   33.3790   32.7730   37.6770 H   0  0  0  0  0  0  0  0  0  0  0  0
   37.9380   26.7250   34.0280 C   0  0  0  0  0  3  0  0  0  0  0  0
   39.3720   27.0680   33.7590 C   0  0  0  0  0  2  0  0  0  0  0  0
   40.2500   26.4530   34.8270 C   0  0  0  0  0  2  0  0  0  0  0  0
   39.6860   25.0790   35.1480 C   0  0  0  0  0  2  0  0  0  0  0  0
   38.4580   25.2760   35.9970 C   0  0  0  0  0  2  0  0  0  0  0  0
   37.6860   26.4840   35.5170 C   0  0  0  0  0  2  0  0  0  0  0  0
  1  6  1  0  0  0  0
  1 11  1  0  0  0  0
  2  1  2  0  0  0  0
  3  4  2  0  0  0  0
  3  2  1  0  0  0  0
  4  5  1  0  0  0  0
  5 19  1  0  0  0  0
  5  6  2  0  0  0  0
  7  2  1  0  0  0  0
  8  3  1  0  0  0  0
  9  4  1  0  0  0  0
 10 15  1  0  0  0  0
 11 10  2  0  0  0  0
 11 12  1  0  0  0  0
 12 13  2  0  0  0  0
 13 14  1  0  0  0  0
 14 18  1  0  0  0  0
 15 14  2  0  0  0  0
 16 10  1  0  0  0  0
 17 12  1  0  0  0  0
 19 24  1  0  0  0  0
 20 19  1  0  0  0  0
 20 21  1  0  0  0  0
 21 22  1  0  0  0  0
 22 23  1  0  0  0  0
 24 23  1  0  0  0  0
M  END
>  <minimizedAffinity>
-5.06611872

$$$$

 OpenBabel03262522333D

 24 26  0  0  0  0  0  0  0  0999 V2000
   37.4970   25.0780   32.5780 C   0  0  0  0  0  0  0  0  0  0  0  0
   36.7540   25.9130   31.7900 C   0  0  0  0  0  0  0  0  0  0  0  0
   35.6370   25.5660   31.0670 C   0  0  0  0  0  0  0  0  0  0  0  0
   35.2110   24.2450   31.1330 C   0  0  0  0  0  0  0  0  0  0  0  0
   35.9620   23.3930   31.9320 C   0  0  0  0  0  0  0  0  0  0  0  0
   37.0450   23.8020   32.6120 N   0  0  0  0  0  0  0  0  0  0  0  0
   37.0490   26.9610   31.7060 H   0  0  0  0  0  0  0  0  0  0  0  0
   35.0790   26.2630   30.4570 H   0  0  0  0  0  0  0  0  0  0  0  0
   34.3490   23.8690   30.6060 H   0  0  0  0  0  0  0  0  0  0  0  0
   39.3420   24.6270   34.2250 C   0  0  0  0  0  0  0  0  0  0  0  0
   38.6690   25.4830   33.3250 C   0  0  0  0  0  0  0  0  0  0  0  0
   39.1500   26.7810   33.1420 C   0  0  0  0  0  0  0  0  0  0  0  0
   40.2570   27.1560   33.8530 N   0  0  0  0  0  0  0  0  0  0  0  0
   40.8750   26.3230   34.7000 C   0  0  0  0  0  0  0  0  0  0  0  0
   40.4310   25.0590   34.8960 N   0  0  0  0  0  0  0  0  0  0  0  0
   38.9630   23.6240   34.3590 H   0  0  0  0  0  0  0  0  0  0  0  0
   38.7270   27.5140   32.4920 H   0  0  0  0  0  0  0  0  0  0  0  0
   41.7520   26.5900   35.2760 H   0  0  0  0  0  0  0  0  0  0  0  0
   35.5080   21.9730   32.0060 C   0  0  0  0  0  3  0  0  0  0  0  0
   35.8310   21.1930   30.7670 C   0  0  0  0  0  2  0  0  0  0  0  0
   36.0810   19.7440   31.1300 C   0  0  0  0  0  2  0  0  0  0  0  0
   35.0820   19.3660   32.2120 C   0  0  0  0  0  2  0  0  0  0  0  0
   35.5570   19.9740   33.5050 C   0  0  0  0  0  2  0  0  0  0  0  0
   36.1400   21.3450   33.2490 C   0  0  0  0  0  2  0  0  0  0  0  0
  1  6  1  0  0  0  0
  1 11  1  0  0  0  0
  2  1  2  0  0  0  0
  3  4  2  0  0  0  0
  3  2  1  0  0  0  0
  4  5  1  0  0  0  0
  5 19  1  0  0  0  0
  5  6  2  0  0  0  0
  7  2  1  0  0  0  0
  8  3  1  0  0  0  0
  9  4  1  0  0  0  0
 10 16  1  0  0  0  0
 10 15  1  0  0  0  0
 11 10  2  0  0  0  0
 12 11  1  0  0  0  0
 12 13  2  0  0  0  0
 13 14  1  0  0  0  0
 14 15  2  0  0  0  0
 14 18  1  0  0  0  0
 17 12  1  0  0  0  0
 19 24  1  0  0  0  0
 20 21  1  0  0  0  0
 20 19  1  0  0  0  0
 21 22  1  0  0  0  0
 22 23  1  0  0  0  0
 24 23  1  0  0  0  0
M  END
>  <minimizedAffinity>
-4.97180986

$$$$

 OpenBabel03262522333D

 24 26  0  0  0  0  0  0  0  0999 V2000
   40.0420   22.9330   36.6660 C   0  0  0  0  0  0  0  0  0  0  0  0
   39.3010   23.0420   37.8090 C   0  0  0  0  0  0  0  0  0  0  0  0
   38.2750   23.9310   38.0300 C   0  0  0  0  0  0  0  0  0  0  0  0
   37.9500   24.8080   37.0030 C   0  0  0  0  0  0  0  0  0  0  0  0
   38.6990   24.7030   35.8390 C   0  0  0  0  0  0  0  0  0  0  0  0
   39.6900   23.8070   35.6930 N   0  0  0  0  0  0  0  0  0  0  0  0
   39.5190   22.3740   38.6450 H   0  0  0  0  0  0  0  0  0  0  0  0
   37.7150   23.9810   38.9540 H   0  0  0  0  0  0  0  0  0  0  0  0
   37.1650   25.5430   37.0730 H   0  0  0  0  0  0  0  0  0  0  0  0
   41.6970   21.2490   37.5280 C   0  0  0  0  0  0  0  0  0  0  0  0
   41.1160   21.9820   36.4710 C   0  0  0  0  0  0  0  0  0  0  0  0
   41.5940   21.7870   35.1730 C   0  0  0  0  0  0  0  0  0  0  0  0
   42.6090   20.8880   34.9960 N   0  0  0  0  0  0  0  0  0  0  0  0
   43.1420   20.2060   36.0190 C   0  0  0  0  0  0  0  0  0  0  0  0
   42.6980   20.3750   37.2870 N   0  0  0  0  0  0  0  0  0  0  0  0
   41.3200   21.4060   38.5290 H   0  0  0  0  0  0  0  0  0  0  0  0
   41.2350   22.2830   34.2980 H   0  0  0  0  0  0  0  0  0  0  0  0
   43.9450   19.4890   35.9110 H   0  0  0  0  0  0  0  0  0  0  0  0
   38.3540   25.6430   34.7330 C   0  0  0  0  0  3  0  0  0  0  0  0
   37.9590   24.9380   33.4710 C   0  0  0  0  0  2  0  0  0  0  0  0
   36.9470   25.7740   32.7170 C   0  0  0  0  0  2  0  0  0  0  0  0
   37.3630   27.2300   32.8570 C   0  0  0  0  0  2  0  0  0  0  0  0
   36.9900   27.6790   34.2450 C   0  0  0  0  0  2  0  0  0  0  0  0
   37.2430   26.5660   35.2350 C   0  0  0  0  0  2  0  0  0  0  0  0
  1  2  1  0  0  0  0
  2  3  2  0  0  0  0
  2  7  1  0  0  0  0
  3  8  1  0  0  0  0
  4  9  1  0  0  0  0
  4  3  1  0  0  0  0
  5  4  2  0  0  0  0
  6  5  1  0  0  0  0
  6  1  2  0  0  0  0
 10 16  1  0  0  0  0
 11  1  1  0  0  0  0
 11 10  2  0  0  0  0
 12 11  1  0  0  0  0
 13 12  2  0  0  0  0
 13 14  1  0  0  0  0
 14 15  2  0  0  0  0
 15 10  1  0  0  0  0
 17 12  1  0  0  0  0
 18 14  1  0  0  0  0
 19 24  1  0  0  0  0
 19  5  1  0  0  0  0
 20 19  1  0  0  0  0
 21 22  1  0  0  0  0
 21 20  1  0  0  0  0
 22 23  1  0  0  0  0
 23 24  1  0  0  0  0
M  END
>  <minimizedAffinity>
-4.95985079

$$$$
