
 OpenBabel03272510203D

 33 36  0  0  0  0  0  0  0  0999 V2000
   37.3660   29.1730   50.8280 Br  0  0  0  0  0  0  0  0  0  0  0  0
   35.9940   29.3070   49.5090 C   0  0  0  0  0  0  0  0  0  0  0  0
   36.0220   30.3410   48.5630 C   0  0  0  0  0  0  0  0  0  0  0  0
   34.9940   30.3750   47.6360 C   0  0  0  0  0  0  0  0  0  0  0  0
   33.9660   29.4420   47.6180 C   0  0  0  0  0  0  0  0  0  0  0  0
   33.9760   28.4540   48.5550 C   0  0  0  0  0  0  0  0  0  0  0  0
   34.9880   28.4000   49.4860 C   0  0  0  0  0  0  0  0  0  0  0  0
   34.9550   31.1450   46.8800 H   0  0  0  0  0  0  0  0  0  0  0  0
   33.1800   27.7200   48.5520 H   0  0  0  0  0  0  0  0  0  0  0  0
   34.9440   27.5880   50.2100 H   0  0  0  0  0  0  0  0  0  0  0  0
   37.9870   33.2280   49.5850 C   0  0  0  0  0  0  0  0  0  0  0  0
   39.0530   33.2510   48.6450 C   0  0  0  0  0  0  0  0  0  0  0  0
   39.0720   32.2660   47.6740 C   0  0  0  0  0  0  0  0  0  0  0  0
   38.0800   31.3210   47.6550 N   0  0  0  0  0  0  0  0  0  0  0  0
   37.0860   31.3300   48.5590 C   0  0  0  0  0  0  0  0  0  0  0  0
   37.0470   32.2870   49.5220 N   0  0  0  0  0  0  0  0  0  0  0  0
   37.8900   33.9550   50.3760 H   0  0  0  0  0  0  0  0  0  0  0  0
   39.7480   34.0470   48.7890 H   0  0  0  0  0  0  0  0  0  0  0  0
   39.8770   32.2980   46.9800 H   0  0  0  0  0  0  0  0  0  0  0  0
   32.8910   29.4820   46.6460 C   0  0  0  0  0  0  0  0  0  0  0  0
   31.9690   28.4660   46.4550 C   0  0  0  0  0  0  0  0  0  0  0  0
   30.9510   28.5550   45.5040 C   0  0  0  0  0  0  0  0  0  0  0  0
   30.8440   29.6450   44.7410 N   0  0  0  0  0  0  0  0  0  0  0  0
   31.7430   30.6390   44.9250 C   0  0  0  0  0  0  0  0  0  0  0  0
   32.7120   30.5410   45.8400 N   0  0  0  0  0  0  0  0  0  0  0  0
   32.0500   27.5770   47.0720 H   0  0  0  0  0  0  0  0  0  0  0  0
   30.2730   27.7000   45.4290 H   0  0  0  0  0  0  0  0  0  0  0  0
   31.6140   31.8430   44.0720 C   0  0  0  0  0  3  0  0  0  0  0  0
   31.3510   33.0900   44.8910 C   0  0  0  0  0  2  0  0  0  0  0  0
   31.7070   34.3440   44.1540 C   0  0  0  0  0  2  0  0  0  0  0  0
   31.6360   34.1900   42.6550 C   0  0  0  0  0  2  0  0  0  0  0  0
   32.4260   33.0430   42.1140 C   0  0  0  0  0  2  0  0  0  0  0  0
   32.8640   32.1330   43.2630 C   0  0  0  0  0  2  0  0  0  0  0  0
  2  1  1  0  0  0  0
  3  2  2  0  0  0  0
  4  3  1  0  0  0  0
  5  4  2  0  0  0  0
  5  6  1  0  0  0  0
  6  7  2  0  0  0  0
  7  2  1  0  0  0  0
  7 10  1  0  0  0  0
  8  4  1  0  0  0  0
  9  6  1  0  0  0  0
 11 17  1  0  0  0  0
 12 18  1  0  0  0  0
 12 11  2  0  0  0  0
 13 12  1  0  0  0  0
 14 13  2  0  0  0  0
 14 15  1  0  0  0  0
 15  3  1  0  0  0  0
 15 16  2  0  0  0  0
 16 11  1  0  0  0  0
 19 13  1  0  0  0  0
 20  5  1  0  0  0  0
 21 20  1  0  0  0  0
 21 26  1  0  0  0  0
 22 21  2  0  0  0  0
 23 24  2  0  0  0  0
 23 22  1  0  0  0  0
 24 25  1  0  0  0  0
 25 20  2  0  0  0  0
 27 22  1  0  0  0  0
 28 29  1  0  0  0  0
 28 24  1  0  0  0  0
 30 29  1  0  0  0  0
 31 30  1  0  0  0  0
 32 31  1  0  0  0  0
 32 33  1  0  0  0  0
 33 28  1  0  0  0  0
M  END
>  <minimizedAffinity>
-6.61925936

>  <minimizedRMSD>
0.834021032

$$$$
