
 OpenBabel03272508123D

 31 33  0  0  0  0  0  0  0  0999 V2000
   36.7100   29.4100   43.9760 Cl  0  0  0  0  0  0  0  0  0  0  0  0
   38.3760   29.8150   43.4930 C   0  0  0  0  0  0  0  0  0  0  0  0
   39.3430   30.3120   44.3690 C   0  0  0  0  0  0  0  0  0  0  0  0
   40.5880   30.5790   43.8490 C   0  0  0  0  0  0  0  0  0  0  0  0
   40.8710   30.3670   42.5220 C   0  0  0  0  0  0  0  0  0  0  0  0
   39.9330   29.8800   41.6480 C   0  0  0  0  0  0  0  0  0  0  0  0
   38.6930   29.6080   42.1380 C   0  0  0  0  0  0  0  0  0  0  0  0
   41.2870   30.9600   44.5830 H   0  0  0  0  0  0  0  0  0  0  0  0
   41.8670   30.5950   42.1640 H   0  0  0  0  0  0  0  0  0  0  0  0
   40.1650   29.7160   40.5970 H   0  0  0  0  0  0  0  0  0  0  0  0
   37.6500   29.0750   41.2020 C   0  0  0  0  0  3  0  0  0  0  0  0
   38.2250   27.7680   40.6810 C   0  0  0  0  0  2  0  0  0  0  0  0
   37.2990   27.2160   39.6440 C   0  0  0  0  0  2  0  0  0  0  0  0
   35.9580   27.9080   39.6300 C   0  0  0  0  0  2  0  0  0  0  0  0
   36.0910   29.3980   39.3990 C   0  0  0  0  0  2  0  0  0  0  0  0
   37.3250   29.9810   40.0690 C   0  0  0  0  0  2  0  0  0  0  0  0
   38.8720   30.4530   45.6440 O   0  0  0  0  0  0  0  0  0  0  0  0
   39.4290   32.5220   47.0910 O   0  0  0  0  0  0  0  0  0  0  0  0
   38.2880   31.8390   46.4070 P   0  0  1  0  0  0  0  0  0  0  0  0
   37.6970   32.8350   45.1560 O   0  0  0  0  0  0  0  0  0  0  0  0
   37.4690   32.3340   44.3430 H   0  0  0  0  0  0  0  0  0  0  0  0
   37.0150   31.4160   47.4410 O   0  0  0  0  0  0  0  0  0  0  0  0
   37.6180   30.5280   50.9810 C   0  0  0  0  0  0  0  0  0  0  0  0
   37.7000   31.2960   49.8180 C   0  0  0  0  0  0  0  0  0  0  0  0
   37.0680   30.8450   48.6620 C   0  0  0  0  0  0  0  0  0  0  0  0
   36.3900   29.6520   48.7380 N   0  0  0  0  0  0  0  0  0  0  0  0
   36.3330   28.9400   49.8810 C   0  0  0  0  0  0  0  0  0  0  0  0
   36.9450   29.3800   50.9920 N   0  0  0  0  0  0  0  0  0  0  0  0
   38.1410   30.9540   51.8410 H   0  0  0  0  0  0  0  0  0  0  0  0
   38.2070   32.2330   49.6770 H   0  0  0  0  0  0  0  0  0  0  0  0
   35.7810   27.9880   49.9040 H   0  0  0  0  0  0  0  0  0  0  0  0
  2  1  1  0  0  0  0
  2  3  1  0  0  0  0
  3 17  1  0  0  0  0
  4  3  2  0  0  0  0
  4  8  1  0  0  0  0
  5  4  1  0  0  0  0
  6  7  1  0  0  0  0
  6  5  2  0  0  0  0
  7  2  2  0  0  0  0
  9  5  1  0  0  0  0
 10  6  1  0  0  0  0
 11  7  1  0  0  0  0
 12 11  1  0  0  0  0
 13 12  1  0  0  0  0
 14 13  1  0  0  0  0
 15 14  1  0  0  0  0
 15 16  1  0  0  0  0
 16 11  1  0  0  0  0
 17 19  1  0  0  0  0
 19 18  2  1  0  0  0
 19 22  1  0  0  0  0
 20 19  1  0  0  0  0
 21 20  1  0  0  0  0
 22 25  1  0  0  0  0
 23 28  1  0  0  0  0
 23 29  1  0  0  0  0
 24 23  2  0  0  0  0
 25 26  2  0  0  0  0
 25 24  1  0  0  0  0
 26 27  1  0  0  0  0
 27 31  1  0  0  0  0
 27 28  2  0  0  0  0
 30 24  1  0  0  0  0
M  END
>  <minimizedAffinity>
-4.82407284

>  <minimizedRMSD>
0.881499171

$$$$
