
 OpenBabel03272510273D

 42 46  0  0  1  0  0  0  0  0999 V2000
   35.9750   30.1230   46.9180 C   0  0  0  0  0  0  0  0  0  0  0  0
   36.9020   30.7110   47.7750 C   0  0  0  0  0  0  0  0  0  0  0  0
   37.8680   31.6020   47.3020 C   0  0  0  0  0  0  0  0  0  0  0  0
   37.8430   31.8600   45.9380 C   0  0  0  0  0  0  0  0  0  0  0  0
   38.6810   32.6880   45.2430 N   0  0  0  0  0  0  0  0  0  0  0  0
   38.2870   32.6220   43.9580 C   0  0  0  0  0  0  0  0  0  0  0  0
   37.2630   31.8070   43.8300 N   0  0  0  0  0  0  0  0  0  0  0  0
   36.9450   31.3010   45.0520 C   0  0  0  0  0  0  0  0  0  0  0  0
   35.9890   30.4130   45.5580 C   0  0  0  0  0  0  0  0  0  0  0  0
   35.2360   29.4430   47.2750 H   0  0  0  0  0  0  0  0  0  0  0  0
   38.5700   32.0430   47.9770 H   0  0  0  0  0  0  0  0  0  0  0  0
   39.4630   33.2490   45.6460 H   0  0  0  0  0  0  0  0  0  0  0  0
   35.2950   29.9840   44.8600 H   0  0  0  0  0  0  0  0  0  0  0  0
   37.5920   30.1940   51.4180 C   0  0  0  0  0  0  0  0  0  0  0  0
   37.8050   30.6190   50.1230 C   0  0  0  0  0  0  0  0  0  0  0  0
   36.8220   30.3390   49.1790 C   0  0  0  0  0  0  0  0  0  0  0  0
   35.7170   29.6660   49.5990 N   0  0  0  0  0  0  0  0  0  0  0  0
   35.5250   29.2580   50.8670 C   0  0  0  0  0  0  0  0  0  0  0  0
   36.4680   29.5290   51.7620 N   0  0  0  0  0  0  0  0  0  0  0  0
   38.3780   30.4270   52.1320 H   0  0  0  0  0  0  0  0  0  0  0  0
   38.6760   31.1490   49.8000 H   0  0  0  0  0  0  0  0  0  0  0  0
   34.6330   28.7290   51.1450 H   0  0  0  0  0  0  0  0  0  0  0  0
   38.9360   33.3580   42.9560 O   0  0  0  0  0  0  0  0  0  0  0  0
   39.5770   31.2160   42.4890 N   0  0  0  0  0  0  0  0  0  0  0  0
   39.6080   32.5960   41.9580 C   0  0  1  0  0  0  0  0  0  0  0  0
   38.9040   32.6180   40.6810 C   0  0  0  0  0  0  0  0  0  0  0  0
   39.6200   31.8300   39.7620 O   0  0  0  0  0  0  0  0  0  0  0  0
   39.8520   30.5440   40.1540 C   0  0  0  0  0  0  0  0  0  0  0  0
   40.3700   30.4360   41.5650 C   0  0  2  0  0  0  0  0  0  0  0  0
   40.0970   31.2810   43.3950 H   0  0  0  0  0  0  0  0  0  0  0  0
   40.6480   32.9280   41.8140 H   0  0  0  0  0  0  0  0  0  0  0  0
   37.8980   32.3450   40.5270 H   0  0  0  0  0  0  0  0  0  0  0  0
   39.0220   33.6630   40.2580 H   0  0  0  0  0  0  0  0  0  0  0  0
   40.6250   30.1350   39.4740 H   0  0  0  0  0  0  0  0  0  0  0  0
   38.9620   29.8750   40.0220 H   0  0  0  0  0  0  0  0  0  0  0  0
   41.4040   30.8110   41.6330 H   0  0  0  0  0  0  0  0  0  0  0  0
   40.2750   28.9870   42.0030 C   0  0  0  0  0  3  0  0  0  0  0  0
   39.4170   28.8160   43.2270 C   0  0  0  0  0  2  0  0  0  0  0  0
   38.3020   27.8150   43.0530 C   0  0  0  0  0  2  0  0  0  0  0  0
   38.8000   26.4670   42.5880 C   0  0  0  0  0  2  0  0  0  0  0  0
   39.7420   26.6800   41.4250 C   0  0  0  0  0  2  0  0  0  0  0  0
   39.6910   28.1110   40.9280 C   0  0  0  0  0  2  0  0  0  0  0  0
  1 10  1  0  0  0  0
  1  2  1  0  0  0  0
  2 16  1  0  0  0  0
  3  2  2  0  0  0  0
  3 11  1  0  0  0  0
  4  3  1  0  0  0  0
  5 12  1  0  0  0  0
  5  4  1  0  0  0  0
  6  5  1  0  0  0  0
  7  6  2  0  0  0  0
  7  8  1  0  0  0  0
  8  9  1  0  0  0  0
  8  4  2  0  0  0  0
  9  1  2  0  0  0  0
 13  9  1  0  0  0  0
 14 19  1  0  0  0  0
 14 20  1  0  0  0  0
 15 14  2  0  0  0  0
 16 17  2  0  0  0  0
 16 15  1  0  0  0  0
 17 18  1  0  0  0  0
 18 22  1  0  0  0  0
 18 19  2  0  0  0  0
 21 15  1  0  0  0  0
 23  6  1  0  0  0  0
 24 30  1  0  0  0  0
 25 31  1  6  0  0  0
 25 24  1  0  0  0  0
 25 23  1  0  0  0  0
 26 25  1  0  0  0  0
 27 28  1  0  0  0  0
 27 26  1  0  0  0  0
 28 29  1  0  0  0  0
 29 36  1  1  0  0  0
 29 37  1  0  0  0  0
 29 24  1  0  0  0  0
 32 26  1  0  0  0  0
 33 26  1  0  0  0  0
 34 28  1  0  0  0  0
 35 28  1  0  0  0  0
 37 38  1  0  0  0  0
 39 38  1  0  0  0  0
 40 39  1  0  0  0  0
 41 40  1  0  0  0  0
 42 41  1  0  0  0  0
 42 37  1  0  0  0  0
M  END
>  <minimizedAffinity>
-6.01321745

>  <minimizedRMSD>
1.67312181

$$$$
