
 OpenBabel03272510023D

 18 19  0  0  0  0  0  0  0  0999 V2000
   37.8450   32.3880   49.7010 C   0  0  0  0  0  0  0  0  0  0  0  0
   38.6160   32.3090   48.5290 C   0  0  0  0  0  0  0  0  0  0  0  0
   38.1550   31.5150   47.4950 C   0  0  0  0  0  0  0  0  0  0  0  0
   36.9700   30.8430   47.6610 N   0  0  0  0  0  0  0  0  0  0  0  0
   36.2620   30.9480   48.8060 C   0  0  0  0  0  0  0  0  0  0  0  0
   36.7040   31.7150   49.8070 N   0  0  0  0  0  0  0  0  0  0  0  0
   38.1260   32.9830   50.5590 H   0  0  0  0  0  0  0  0  0  0  0  0
   39.5030   32.8880   48.5610 H   0  0  0  0  0  0  0  0  0  0  0  0
   38.9630   31.4440   46.2890 C   0  0  0  0  0  3  0  0  0  0  0  0
   38.2560   31.3140   44.9940 C   0  0  0  0  0  2  0  0  0  0  0  0
   38.3340   32.5680   44.1460 C   0  0  0  0  0  2  0  0  0  0  0  0
   39.7950   32.7940   43.8150 C   0  0  0  0  0  2  0  0  0  0  0  0
   40.6900   32.6190   45.0140 C   0  0  0  0  0  2  0  0  0  0  0  0
   39.8100   32.7240   46.2310 C   0  0  0  0  0  2  0  0  0  0  0  0
   34.9960   30.1900   48.9000 C   0  0  0  0  0  0  0  0  0  0  0  0
   34.2860   30.4610   50.0610 F   0  0  0  0  0  0  0  0  0  0  0  0
   34.1440   30.4980   47.8450 F   0  0  0  0  0  0  0  0  0  0  0  0
   35.1640   28.8260   48.8520 F   0  0  0  0  0  0  0  0  0  0  0  0
  1  6  1  0  0  0  0
  1  7  1  0  0  0  0
  2  8  1  0  0  0  0
  2  1  2  0  0  0  0
  3  4  2  0  0  0  0
  3  2  1  0  0  0  0
  4  5  1  0  0  0  0
  5 15  1  0  0  0  0
  5  6  2  0  0  0  0
  9  3  1  0  0  0  0
 10  9  1  0  0  0  0
 11 10  1  0  0  0  0
 12 11  1  0  0  0  0
 12 13  1  0  0  0  0
 13 14  1  0  0  0  0
 14  9  1  0  0  0  0
 15 16  1  0  0  0  0
 17 15  1  0  0  0  0
 18 15  1  0  0  0  0
M  END
>  <minimizedAffinity>
-5.62573862

>  <minimizedRMSD>
2.35806561

$$$$
