
 OpenBabel03272508053D

 32 35  0  0  0  0  0  0  0  0999 V2000
   38.8720   30.8850   45.8030 C   0  0  0  0  0  0  0  0  0  0  0  0
   40.0570   31.5420   46.0770 C   0  0  0  0  0  0  0  0  0  0  0  0
   40.9160   31.4920   44.9720 C   0  0  0  0  0  0  0  0  0  0  0  0
   40.2020   30.7990   44.0710 N   0  0  0  0  0  0  0  0  0  0  0  0
   39.0120   30.4430   44.5500 N   0  0  0  0  0  0  0  0  0  0  0  0
   40.3300   32.0440   47.0100 H   0  0  0  0  0  0  0  0  0  0  0  0
   41.9000   31.8840   44.8160 H   0  0  0  0  0  0  0  0  0  0  0  0
   37.7460   30.7300   46.7050 C   0  0  0  0  0  0  0  0  0  0  0  0
   37.9500   30.9330   48.0850 C   0  0  0  0  0  0  0  0  0  0  0  0
   36.8580   30.7820   48.9330 C   0  0  0  0  0  0  0  0  0  0  0  0
   35.6520   30.4460   48.3800 N   0  0  0  0  0  0  0  0  0  0  0  0
   35.4800   30.2560   47.0500 C   0  0  0  0  0  0  0  0  0  0  0  0
   36.5370   30.4020   46.2230 N   0  0  0  0  0  0  0  0  0  0  0  0
   38.9140   31.1980   48.4920 H   0  0  0  0  0  0  0  0  0  0  0  0
   34.5010   29.9940   46.6810 H   0  0  0  0  0  0  0  0  0  0  0  0
   37.0410   30.9880   50.3920 C   0  0  0  0  0  0  0  0  0  0  0  0
   36.5530   32.2440   50.6580 F   0  0  0  0  0  0  0  0  0  0  0  0
   36.3400   30.0590   51.1600 F   0  0  0  0  0  0  0  0  0  0  0  0
   38.3870   30.9640   50.7480 F   0  0  0  0  0  0  0  0  0  0  0  0
   40.5740   30.4220   42.7020 C   0  0  0  0  0  0  0  0  0  0  0  0
   40.2070   31.2020   41.5940 C   0  0  0  0  0  0  0  0  0  0  0  0
   40.5610   30.8180   40.3630 C   0  0  0  0  0  0  0  0  0  0  0  0
   41.3120   29.6150   40.1910 C   0  0  0  0  0  0  0  0  0  0  0  0
   41.4940   29.0370   41.9550 S   0  0  0  0  0  0  0  0  0  0  0  0
   39.6330   32.1260   41.7020 H   0  0  0  0  0  0  0  0  0  0  0  0
   40.3640   31.2930   39.4130 H   0  0  0  0  0  0  0  0  0  0  0  0
   41.8480   28.9130   39.0930 C   0  0  0  0  0  3  0  0  0  0  0  0
   40.8420   28.9030   37.9890 C   0  0  0  0  0  2  0  0  0  0  0  0
   41.2400   29.8630   36.8670 C   0  0  0  0  0  2  0  0  0  0  0  0
   42.5000   29.2530   36.2430 C   0  0  0  0  0  2  0  0  0  0  0  0
   43.5800   29.0920   37.2850 C   0  0  0  0  0  2  0  0  0  0  0  0
   43.1410   29.5580   38.6470 C   0  0  0  0  0  2  0  0  0  0  0  0
  1  2  1  0  0  0  0
  1  8  1  0  0  0  0
  2  6  1  0  0  0  0
  3  2  2  0  0  0  0
  4  5  1  0  0  0  0
  4  3  1  0  0  0  0
  5  1  2  0  0  0  0
  7  3  1  0  0  0  0
  8  9  1  0  0  0  0
  9 14  1  0  0  0  0
  9 10  2  0  0  0  0
 10 16  1  0  0  0  0
 11 10  1  0  0  0  0
 12 11  2  0  0  0  0
 13  8  2  0  0  0  0
 13 12  1  0  0  0  0
 15 12  1  0  0  0  0
 16 17  1  0  0  0  0
 16 19  1  0  0  0  0
 16 18  1  0  0  0  0
 20  4  1  0  0  0  0
 21 25  1  0  0  0  0
 21 20  2  0  0  0  0
 22 21  1  0  0  0  0
 23 22  2  0  0  0  0
 23 24  1  0  0  0  0
 24 20  1  0  0  0  0
 26 22  1  0  0  0  0
 27 23  1  0  0  0  0
 28 27  1  0  0  0  0
 29 28  1  0  0  0  0
 30 29  1  0  0  0  0
 30 31  1  0  0  0  0
 31 32  1  0  0  0  0
 32 27  1  0  0  0  0
M  END
>  <minimizedAffinity>
-6.22056055

>  <minimizedRMSD>
0.473041296

$$$$
