
 OpenBabel03272509173D

 27 29  0  0  0  0  0  0  0  0999 V2000
   35.8440   30.6090   44.6500 C   0  0  0  0  0  0  0  0  0  0  0  0
   36.7460   30.6980   45.7090 C   0  0  0  0  0  0  0  0  0  0  0  0
   36.2900   30.3080   46.9710 C   0  0  0  0  0  0  0  0  0  0  0  0
   35.0110   29.8680   47.0990 N   0  0  0  0  0  0  0  0  0  0  0  0
   34.1700   29.7980   46.0380 C   0  0  0  0  0  0  0  0  0  0  0  0
   34.5900   30.1730   44.8000 N   0  0  0  0  0  0  0  0  0  0  0  0
   36.2100   30.9170   43.6670 H   0  0  0  0  0  0  0  0  0  0  0  0
   33.1700   29.4290   46.2690 H   0  0  0  0  0  0  0  0  0  0  0  0
   39.0350   30.5060   44.7600 C   0  0  0  0  0  0  0  0  0  0  0  0
   38.0760   31.1740   45.4840 C   0  0  0  0  0  0  0  0  0  0  0  0
   38.5050   32.4040   46.0090 C   0  0  0  0  0  0  0  0  0  0  0  0
   39.8010   32.8890   45.8020 C   0  0  0  0  0  0  0  0  0  0  0  0
   40.6910   32.1350   45.0540 C   0  0  0  0  0  0  0  0  0  0  0  0
   40.3030   30.9240   44.5240 C   0  0  0  0  0  0  0  0  0  0  0  0
   37.8390   33.0210   46.5970 H   0  0  0  0  0  0  0  0  0  0  0  0
   40.0720   33.8450   46.2320 H   0  0  0  0  0  0  0  0  0  0  0  0
   41.6810   32.5490   44.9200 H   0  0  0  0  0  0  0  0  0  0  0  0
   38.6890   29.2620   44.1970 O   0  0  0  0  0  0  0  0  0  0  0  0
   38.3250   29.2870   43.2510 H   0  0  0  0  0  0  0  0  0  0  0  0
   41.2180   30.1930   43.7820 O   0  0  0  0  0  0  0  0  0  0  0  0
   41.8840   29.6550   44.3500 H   0  0  0  0  0  0  0  0  0  0  0  0
   37.2000   30.3780   48.1420 C   0  0  0  0  0  0  0  0  0  0  0  0
   36.6780   29.3670   49.1460 C   0  0  0  0  0  0  0  0  0  0  0  0
   37.5670   29.2420   50.3430 C   0  0  0  0  0  0  0  0  0  0  0  0
   37.9350   30.6280   50.8080 C   0  0  0  0  0  0  0  0  0  0  0  0
   36.9950   31.6850   50.2380 C   0  0  0  0  0  0  0  0  0  0  0  0
   37.0690   31.7570   48.7380 C   0  0  0  0  0  0  0  0  0  0  0  0
  1  6  2  0  0  0  0
  1  2  1  0  0  0  0
  2  3  2  0  0  0  0
  3  4  1  0  0  0  0
  3 22  1  0  0  0  0
  5  8  1  0  0  0  0
  5  4  2  0  0  0  0
  6  5  1  0  0  0  0
  7  1  1  0  0  0  0
  9 10  1  0  0  0  0
 10  2  1  0  0  0  0
 10 11  2  0  0  0  0
 11 15  1  0  0  0  0
 12 11  1  0  0  0  0
 12 16  1  0  0  0  0
 13 12  2  0  0  0  0
 14  9  2  0  0  0  0
 14 13  1  0  0  0  0
 17 13  1  0  0  0  0
 18  9  1  0  0  0  0
 19 18  1  0  0  0  0
 20 21  1  0  0  0  0
 20 14  1  0  0  0  0
 22 27  1  0  0  0  0
 22 23  1  0  0  0  0
 23 24  1  0  0  0  0
 24 25  1  0  0  0  0
 26 25  1  0  0  0  0
 27 26  1  0  0  0  0
M  END
>  <minimizedAffinity>
-6.4236722

>  <minimizedRMSD>
4.07978058

$$$$
