
 OpenBabel03272506523D

 31 33  0  0  1  0  0  0  0  0999 V2000
   37.0460   25.6800   31.3670 C   0  0  1  0  0  0  0  0  0  0  0  0
   37.9860   24.6380   30.9440 C   0  0  0  0  0  0  0  0  0  0  0  0
   37.5810   23.2130   31.1970 C   0  0  0  0  0  0  0  0  0  0  0  0
   36.1490   22.9350   30.9680 C   0  0  2  0  0  0  0  0  0  0  0  0
   35.1690   23.9670   31.4240 C   0  0  0  0  0  0  0  0  0  0  0  0
   35.6170   25.3510   31.0590 C   0  0  0  0  0  0  0  0  0  0  0  0
   37.2430   26.6030   30.7270 H   0  0  0  0  0  0  0  0  0  0  0  0
   37.9790   24.6860   29.8050 H   0  0  0  0  0  0  0  0  0  0  0  0
   39.0240   24.8240   31.1830 H   0  0  0  0  0  0  0  0  0  0  0  0
   38.1780   22.5480   30.5480 H   0  0  0  0  0  0  0  0  0  0  0  0
   37.8290   23.0030   32.2630 H   0  0  0  0  0  0  0  0  0  0  0  0
   36.0070   22.8490   29.8610 H   0  0  0  0  0  0  0  0  0  0  0  0
   34.2110   23.7980   30.8850 H   0  0  0  0  0  0  0  0  0  0  0  0
   34.9250   23.9680   32.4860 H   0  0  0  0  0  0  0  0  0  0  0  0
   35.5110   25.3920   29.9250 H   0  0  0  0  0  0  0  0  0  0  0  0
   34.8980   26.0750   31.4210 H   0  0  0  0  0  0  0  0  0  0  0  0
   37.9590   25.5240   33.7210 C   0  0  0  0  0  0  0  0  0  0  0  0
   37.2390   26.2060   32.7400 C   0  0  0  0  0  0  0  0  0  0  0  0
   36.7030   27.4270   33.0970 C   0  0  0  0  0  0  0  0  0  0  0  0
   36.8930   27.9070   34.3540 N   0  0  0  0  0  0  0  0  0  0  0  0
   37.6030   27.2090   35.2760 C   0  0  0  0  0  0  0  0  0  0  0  0
   38.1460   26.0010   34.9630 N   0  0  0  0  0  0  0  0  0  0  0  0
   38.4090   24.5630   33.5230 H   0  0  0  0  0  0  0  0  0  0  0  0
   36.1300   28.0950   32.4920 H   0  0  0  0  0  0  0  0  0  0  0  0
   37.7370   27.6160   36.2690 H   0  0  0  0  0  0  0  0  0  0  0  0
   35.7930   21.5870   31.5590 C   0  0  0  0  0  3  0  0  0  0  0  0
   36.2120   21.4370   32.9910 C   0  0  0  0  0  2  0  0  0  0  0  0
   35.5330   20.1970   33.5410 C   0  0  0  0  0  2  0  0  0  0  0  0
   35.0540   19.2560   32.4850 C   0  0  0  0  0  2  0  0  0  0  0  0
   36.0870   19.1370   31.3750 C   0  0  0  0  0  2  0  0  0  0  0  0
   36.3130   20.4540   30.7120 C   0  0  0  0  0  2  0  0  0  0  0  0
  1  7  1  6  0  0  0
  1 18  1  0  0  0  0
  2  9  1  0  0  0  0
  2  3  1  0  0  0  0
  2  1  1  0  0  0  0
  3 11  1  0  0  0  0
  4 12  1  6  0  0  0
  4  3  1  0  0  0  0
  4  5  1  0  0  0  0
  4 26  1  0  0  0  0
  5 14  1  0  0  0  0
  6  1  1  0  0  0  0
  6 16  1  0  0  0  0
  6  5  1  0  0  0  0
  8  2  1  0  0  0  0
 10  3  1  0  0  0  0
 13  5  1  0  0  0  0
 15  6  1  0  0  0  0
 17 22  1  0  0  0  0
 18 19  1  0  0  0  0
 18 17  2  0  0  0  0
 19 20  2  0  0  0  0
 20 21  1  0  0  0  0
 21 25  1  0  0  0  0
 22 21  2  0  0  0  0
 23 17  1  0  0  0  0
 24 19  1  0  0  0  0
 26 27  1  0  0  0  0
 27 28  1  0  0  0  0
 29 28  1  0  0  0  0
 30 29  1  0  0  0  0
 31 30  1  0  0  0  0
 31 26  1  0  0  0  0
M  END
>  <minimizedAffinity>
-5.18976498

$$$$

 OpenBabel03272506523D

 31 33  0  0  1  0  0  0  0  0999 V2000
   38.6350   26.7940   32.6880 C   0  0  1  0  0  0  0  0  0  0  0  0
   39.7660   27.0980   33.5710 C   0  0  0  0  0  0  0  0  0  0  0  0
   39.8560   26.3190   34.8540 C   0  0  0  0  0  0  0  0  0  0  0  0
   39.4850   24.8950   34.7310 C   0  0  2  0  0  0  0  0  0  0  0  0
   38.3130   24.5640   33.8640 C   0  0  0  0  0  0  0  0  0  0  0  0
   38.3480   25.3280   32.5750 C   0  0  0  0  0  0  0  0  0  0  0  0
   38.9390   27.0810   31.6280 H   0  0  0  0  0  0  0  0  0  0  0  0
   40.6830   26.7260   33.0050 H   0  0  0  0  0  0  0  0  0  0  0  0
   39.9800   28.1490   33.7070 H   0  0  0  0  0  0  0  0  0  0  0  0
   40.8880   26.3830   35.2420 H   0  0  0  0  0  0  0  0  0  0  0  0
   39.1640   26.8170   35.5700 H   0  0  0  0  0  0  0  0  0  0  0  0
   40.3600   24.3680   34.2720 H   0  0  0  0  0  0  0  0  0  0  0  0
   38.3760   23.4880   33.5910 H   0  0  0  0  0  0  0  0  0  0  0  0
   37.3270   24.7090   34.3070 H   0  0  0  0  0  0  0  0  0  0  0  0
   39.2190   24.8700   32.0000 H   0  0  0  0  0  0  0  0  0  0  0  0
   37.4760   25.0830   31.9810 H   0  0  0  0  0  0  0  0  0  0  0  0
   36.8830   27.8760   34.1590 C   0  0  0  0  0  0  0  0  0  0  0  0
   37.4150   27.6120   32.8960 C   0  0  0  0  0  0  0  0  0  0  0  0
   36.7560   28.1600   31.8160 C   0  0  0  0  0  0  0  0  0  0  0  0
   35.6440   28.9160   32.0150 N   0  0  0  0  0  0  0  0  0  0  0  0
   35.1630   29.1480   33.2620 C   0  0  0  0  0  0  0  0  0  0  0  0
   35.7840   28.6240   34.3530 N   0  0  0  0  0  0  0  0  0  0  0  0
   37.3390   27.4830   35.0550 H   0  0  0  0  0  0  0  0  0  0  0  0
   37.0070   28.0770   30.7800 H   0  0  0  0  0  0  0  0  0  0  0  0
   34.2760   29.7540   33.3900 H   0  0  0  0  0  0  0  0  0  0  0  0
   39.2940   24.3000   36.1100 C   0  0  0  0  0  3  0  0  0  0  0  0
   40.0170   22.9990   36.3010 C   0  0  0  0  0  2  0  0  0  0  0  0
   40.0030   22.6790   37.7840 C   0  0  0  0  0  2  0  0  0  0  0  0
   38.9530   23.4170   38.5480 C   0  0  0  0  0  2  0  0  0  0  0  0
   37.6540   23.4540   37.7580 C   0  0  0  0  0  2  0  0  0  0  0  0
   37.8350   24.1750   36.4650 C   0  0  0  0  0  2  0  0  0  0  0  0
  1  7  1  6  0  0  0
  1 18  1  0  0  0  0
  1  2  1  0  0  0  0
  2  9  1  0  0  0  0
  2  3  1  0  0  0  0
  3 10  1  0  0  0  0
  3 11  1  0  0  0  0
  4 12  1  6  0  0  0
  4  3  1  0  0  0  0
  4 26  1  0  0  0  0
  5 14  1  0  0  0  0
  5  4  1  0  0  0  0
  6  1  1  0  0  0  0
  6  5  1  0  0  0  0
  8  2  1  0  0  0  0
 13  5  1  0  0  0  0
 15  6  1  0  0  0  0
 16  6  1  0  0  0  0
 17 22  1  0  0  0  0
 17 23  1  0  0  0  0
 18 17  2  0  0  0  0
 19 20  2  0  0  0  0
 19 18  1  0  0  0  0
 20 21  1  0  0  0  0
 21 25  1  0  0  0  0
 21 22  2  0  0  0  0
 24 19  1  0  0  0  0
 26 27  1  0  0  0  0
 26 31  1  0  0  0  0
 27 28  1  0  0  0  0
 28 29  1  0  0  0  0
 30 29  1  0  0  0  0
 31 30  1  0  0  0  0
M  END
>  <minimizedAffinity>
-5.18655682

$$$$

 OpenBabel03272506523D

 31 33  0  0  1  0  0  0  0  0999 V2000
   37.3540   27.3570   32.2640 C   0  0  1  0  0  0  0  0  0  0  0  0
   36.7260   28.5410   31.6670 C   0  0  0  0  0  0  0  0  0  0  0  0
   35.6560   29.2220   32.4730 C   0  0  0  0  0  0  0  0  0  0  0  0
   35.9320   29.2880   33.9220 C   0  0  2  0  0  0  0  0  0  0  0  0
   36.5400   28.0800   34.5600 C   0  0  0  0  0  0  0  0  0  0  0  0
   37.6490   27.5150   33.7240 C   0  0  0  0  0  0  0  0  0  0  0  0
   38.3900   27.2470   31.8010 H   0  0  0  0  0  0  0  0  0  0  0  0
   37.5490   29.3290   31.6530 H   0  0  0  0  0  0  0  0  0  0  0  0
   36.4650   28.4500   30.6220 H   0  0  0  0  0  0  0  0  0  0  0  0
   35.5190   30.2500   32.0930 H   0  0  0  0  0  0  0  0  0  0  0  0
   34.7210   28.6410   32.3050 H   0  0  0  0  0  0  0  0  0  0  0  0
   36.6700   30.1160   34.0770 H   0  0  0  0  0  0  0  0  0  0  0  0
   37.0030   28.3920   35.5220 H   0  0  0  0  0  0  0  0  0  0  0  0
   35.8580   27.2650   34.8000 H   0  0  0  0  0  0  0  0  0  0  0  0
   38.4840   28.2850   33.8060 H   0  0  0  0  0  0  0  0  0  0  0  0
   38.0520   26.6310   34.2020 H   0  0  0  0  0  0  0  0  0  0  0  0
   35.6030   25.9400   31.1110 C   0  0  0  0  0  0  0  0  0  0  0  0
   36.7240   26.0550   31.9340 C   0  0  0  0  0  0  0  0  0  0  0  0
   37.2490   24.8840   32.4390 C   0  0  0  0  0  0  0  0  0  0  0  0
   36.6730   23.6940   32.1240 N   0  0  0  0  0  0  0  0  0  0  0  0
   35.5840   23.6290   31.3180 C   0  0  0  0  0  0  0  0  0  0  0  0
   35.0350   24.7630   30.8010 N   0  0  0  0  0  0  0  0  0  0  0  0
   35.1320   26.8090   30.6770 H   0  0  0  0  0  0  0  0  0  0  0  0
   38.0980   24.7640   33.0770 H   0  0  0  0  0  0  0  0  0  0  0  0
   35.1460   22.6680   31.0850 H   0  0  0  0  0  0  0  0  0  0  0  0
   34.6720   29.6850   34.6610 C   0  0  0  0  0  3  0  0  0  0  0  0
   33.4410   29.6360   33.8050 C   0  0  0  0  0  2  0  0  0  0  0  0
   32.2380   29.7450   34.7230 C   0  0  0  0  0  2  0  0  0  0  0  0
   32.5580   30.3120   36.0670 C   0  0  0  0  0  2  0  0  0  0  0  0
   33.5300   31.4740   35.9330 C   0  0  0  0  0  2  0  0  0  0  0  0
   34.8200   31.0250   35.3340 C   0  0  0  0  0  2  0  0  0  0  0  0
  1  7  1  6  0  0  0
  1  6  1  0  0  0  0
  2  1  1  0  0  0  0
  2  3  1  0  0  0  0
  3  4  1  0  0  0  0
  4 12  1  1  0  0  0
  4  5  1  0  0  0  0
  4 26  1  0  0  0  0
  5 14  1  0  0  0  0
  5 13  1  0  0  0  0
  6 15  1  0  0  0  0
  6 16  1  0  0  0  0
  6  5  1  0  0  0  0
  8  2  1  0  0  0  0
  9  2  1  0  0  0  0
 10  3  1  0  0  0  0
 11  3  1  0  0  0  0
 17 18  1  0  0  0  0
 18  1  1  0  0  0  0
 18 19  2  0  0  0  0
 19 24  1  0  0  0  0
 20 19  1  0  0  0  0
 21 20  2  0  0  0  0
 22 17  2  0  0  0  0
 22 21  1  0  0  0  0
 23 17  1  0  0  0  0
 25 21  1  0  0  0  0
 26 31  1  0  0  0  0
 27 26  1  0  0  0  0
 27 28  1  0  0  0  0
 28 29  1  0  0  0  0
 30 29  1  0  0  0  0
 31 30  1  0  0  0  0
M  END
>  <minimizedAffinity>
-4.98285532

$$$$

 OpenBabel03272506523D

 31 33  0  0  1  0  0  0  0  0999 V2000
   38.9880   25.9830   32.1310 C   0  0  1  0  0  0  0  0  0  0  0  0
   39.1530   26.9320   33.2370 C   0  0  0  0  0  0  0  0  0  0  0  0
   39.1470   26.3630   34.6280 C   0  0  0  0  0  0  0  0  0  0  0  0
   39.8510   25.0710   34.7620 C   0  0  2  0  0  0  0  0  0  0  0  0
   39.6680   24.0740   33.6640 C   0  0  0  0  0  0  0  0  0  0  0  0
   39.7680   24.7170   32.3130 C   0  0  0  0  0  0  0  0  0  0  0  0
   39.4610   26.4480   31.2040 H   0  0  0  0  0  0  0  0  0  0  0  0
   40.2250   27.3060   33.1390 H   0  0  0  0  0  0  0  0  0  0  0  0
   38.5750   27.8420   33.1570 H   0  0  0  0  0  0  0  0  0  0  0  0
   39.6120   27.0910   35.3160 H   0  0  0  0  0  0  0  0  0  0  0  0
   38.0770   26.2270   34.9050 H   0  0  0  0  0  0  0  0  0  0  0  0
   40.9470   25.2980   34.7870 H   0  0  0  0  0  0  0  0  0  0  0  0
   40.5010   23.3390   33.7200 H   0  0  0  0  0  0  0  0  0  0  0  0
   38.7470   23.4920   33.6860 H   0  0  0  0  0  0  0  0  0  0  0  0
   40.8680   24.9960   32.2140 H   0  0  0  0  0  0  0  0  0  0  0  0
   39.6100   23.9730   31.5420 H   0  0  0  0  0  0  0  0  0  0  0  0
   37.1430   24.5120   31.2150 C   0  0  0  0  0  0  0  0  0  0  0  0
   37.5930   25.7480   31.6840 C   0  0  0  0  0  0  0  0  0  0  0  0
   36.6690   26.7710   31.7280 C   0  0  0  0  0  0  0  0  0  0  0  0
   35.3900   26.5440   31.3260 N   0  0  0  0  0  0  0  0  0  0  0  0
   34.9960   25.3260   30.8790 C   0  0  0  0  0  0  0  0  0  0  0  0
   35.8780   24.2910   30.8190 N   0  0  0  0  0  0  0  0  0  0  0  0
   37.8040   23.6610   31.1490 H   0  0  0  0  0  0  0  0  0  0  0  0
   36.8170   27.7770   32.0560 H   0  0  0  0  0  0  0  0  0  0  0  0
   33.9720   25.1750   30.5660 H   0  0  0  0  0  0  0  0  0  0  0  0
   39.5060   24.4420   36.0950 C   0  0  0  0  0  3  0  0  0  0  0  0
   40.0790   23.0660   36.2690 C   0  0  0  0  0  2  0  0  0  0  0  0
   39.9310   22.6880   37.7300 C   0  0  0  0  0  2  0  0  0  0  0  0
   38.9110   23.4980   38.4600 C   0  0  0  0  0  2  0  0  0  0  0  0
   37.6790   23.7040   37.5910 C   0  0  0  0  0  2  0  0  0  0  0  0
   38.0210   24.4550   36.3490 C   0  0  0  0  0  2  0  0  0  0  0  0
  1  7  1  6  0  0  0
  1  6  1  0  0  0  0
  1  2  1  0  0  0  0
  2  3  1  0  0  0  0
  3  4  1  0  0  0  0
  3 11  1  0  0  0  0
  3 10  1  0  0  0  0
  4 12  1  1  0  0  0
  4 26  1  0  0  0  0
  5 14  1  0  0  0  0
  5 13  1  0  0  0  0
  5  4  1  0  0  0  0
  6  5  1  0  0  0  0
  8  2  1  0  0  0  0
  9  2  1  0  0  0  0
 15  6  1  0  0  0  0
 16  6  1  0  0  0  0
 17 18  1  0  0  0  0
 18 19  2  0  0  0  0
 18  1  1  0  0  0  0
 19 24  1  0  0  0  0
 20 19  1  0  0  0  0
 21 20  2  0  0  0  0
 22 21  1  0  0  0  0
 22 17  2  0  0  0  0
 23 17  1  0  0  0  0
 25 21  1  0  0  0  0
 26 27  1  0  0  0  0
 26 31  1  0  0  0  0
 27 28  1  0  0  0  0
 28 29  1  0  0  0  0
 30 29  1  0  0  0  0
 31 30  1  0  0  0  0
M  END
>  <minimizedAffinity>
-4.96750927

$$$$

 OpenBabel03272506523D

 31 33  0  0  1  0  0  0  0  0999 V2000
   37.6950   22.5450   31.7710 C   0  0  1  0  0  0  0  0  0  0  0  0
   39.0990   22.7240   32.1570 C   0  0  0  0  0  0  0  0  0  0  0  0
   39.3860   22.8760   33.6250 C   0  0  0  0  0  0  0  0  0  0  0  0
   38.5710   22.0100   34.5000 C   0  0  2  0  0  0  0  0  0  0  0  0
   37.1280   21.8410   34.1460 C   0  0  0  0  0  0  0  0  0  0  0  0
   36.9440   21.6160   32.6750 C   0  0  0  0  0  0  0  0  0  0  0  0
   37.6800   22.0000   30.7700 H   0  0  0  0  0  0  0  0  0  0  0  0
   39.5930   21.7240   31.9230 H   0  0  0  0  0  0  0  0  0  0  0  0
   39.6620   23.4170   31.5490 H   0  0  0  0  0  0  0  0  0  0  0  0
   40.4530   22.6580   33.8070 H   0  0  0  0  0  0  0  0  0  0  0  0
   39.1810   23.9430   33.8740 H   0  0  0  0  0  0  0  0  0  0  0  0
   39.0180   20.9840   34.4500 H   0  0  0  0  0  0  0  0  0  0  0  0
   36.7520   20.9230   34.6510 H   0  0  0  0  0  0  0  0  0  0  0  0
   36.4590   22.6480   34.4430 H   0  0  0  0  0  0  0  0  0  0  0  0
   37.3670   20.5730   32.4950 H   0  0  0  0  0  0  0  0  0  0  0  0
   35.8890   21.5190   32.4500 H   0  0  0  0  0  0  0  0  0  0  0  0
   37.5660   25.0260   31.2930 C   0  0  0  0  0  0  0  0  0  0  0  0
   36.9460   23.7870   31.4620 C   0  0  0  0  0  0  0  0  0  0  0  0
   35.5740   23.7520   31.3180 C   0  0  0  0  0  0  0  0  0  0  0  0
   34.8960   24.8930   31.0250 N   0  0  0  0  0  0  0  0  0  0  0  0
   35.5410   26.0760   30.8680 C   0  0  0  0  0  0  0  0  0  0  0  0
   36.8930   26.1520   31.0020 N   0  0  0  0  0  0  0  0  0  0  0  0
   38.6350   25.1380   31.3900 H   0  0  0  0  0  0  0  0  0  0  0  0
   34.9250   22.9080   31.4040 H   0  0  0  0  0  0  0  0  0  0  0  0
   34.9750   26.9680   30.6350 H   0  0  0  0  0  0  0  0  0  0  0  0
   38.7010   22.4720   35.9360 C   0  0  0  0  0  3  0  0  0  0  0  0
   38.3400   23.9150   36.1300 C   0  0  0  0  0  2  0  0  0  0  0  0
   38.2110   24.1600   37.6210 C   0  0  0  0  0  2  0  0  0  0  0  0
   38.8890   23.1270   38.4600 C   0  0  0  0  0  2  0  0  0  0  0  0
   40.2340   22.7560   37.8570 C   0  0  0  0  0  2  0  0  0  0  0  0
   40.0660   22.1660   36.4970 C   0  0  0  0  0  2  0  0  0  0  0  0
  1  7  1  6  0  0  0
  1  2  1  0  0  0  0
  1  6  1  0  0  0  0
  2  3  1  0  0  0  0
  3 10  1  0  0  0  0
  3 11  1  0  0  0  0
  3  4  1  0  0  0  0
  4 12  1  6  0  0  0
  4 26  1  0  0  0  0
  5 14  1  0  0  0  0
  5  4  1  0  0  0  0
  5 13  1  0  0  0  0
  6  5  1  0  0  0  0
  8  2  1  0  0  0  0
  9  2  1  0  0  0  0
 15  6  1  0  0  0  0
 16  6  1  0  0  0  0
 17 23  1  0  0  0  0
 17 18  1  0  0  0  0
 18  1  1  0  0  0  0
 19 24  1  0  0  0  0
 19 18  2  0  0  0  0
 20 19  1  0  0  0  0
 21 22  1  0  0  0  0
 21 20  2  0  0  0  0
 22 17  2  0  0  0  0
 25 21  1  0  0  0  0
 26 27  1  0  0  0  0
 26 31  1  0  0  0  0
 27 28  1  0  0  0  0
 28 29  1  0  0  0  0
 30 29  1  0  0  0  0
 31 30  1  0  0  0  0
M  END
>  <minimizedAffinity>
-4.88563871

$$$$

 OpenBabel03272506523D

 31 33  0  0  1  0  0  0  0  0999 V2000
   39.5660   23.8400   34.3550 C   0  0  1  0  0  0  0  0  0  0  0  0
   40.1940   22.6630   33.7450 C   0  0  0  0  0  0  0  0  0  0  0  0
   39.2760   21.6430   33.1330 C   0  0  0  0  0  0  0  0  0  0  0  0
   38.1190   22.2150   32.4150 C   0  0  2  0  0  0  0  0  0  0  0  0
   37.4400   23.3930   33.0360 C   0  0  0  0  0  0  0  0  0  0  0  0
   38.4330   24.3940   33.5480 C   0  0  0  0  0  0  0  0  0  0  0  0
   40.3310   24.6850   34.3420 H   0  0  0  0  0  0  0  0  0  0  0  0
   40.7400   23.0690   32.8300 H   0  0  0  0  0  0  0  0  0  0  0  0
   40.9930   22.2130   34.3180 H   0  0  0  0  0  0  0  0  0  0  0  0
   39.8520   21.0160   32.4300 H   0  0  0  0  0  0  0  0  0  0  0  0
   38.9080   21.0100   33.9730 H   0  0  0  0  0  0  0  0  0  0  0  0
   38.4950   22.5710   31.4210 H   0  0  0  0  0  0  0  0  0  0  0  0
   36.8530   23.9120   32.2470 H   0  0  0  0  0  0  0  0  0  0  0  0
   36.7410   23.1780   33.8450 H   0  0  0  0  0  0  0  0  0  0  0  0
   38.8920   24.8410   32.6060 H   0  0  0  0  0  0  0  0  0  0  0  0
   37.9110   25.2220   34.0100 H   0  0  0  0  0  0  0  0  0  0  0  0
   38.1910   24.4070   36.4020 C   0  0  0  0  0  0  0  0  0  0  0  0
   39.2510   23.7270   35.8010 C   0  0  0  0  0  0  0  0  0  0  0  0
   40.0130   22.9160   36.6150 C   0  0  0  0  0  0  0  0  0  0  0  0
   39.7110   22.8100   37.9360 N   0  0  0  0  0  0  0  0  0  0  0  0
   38.6690   23.4880   38.4790 C   0  0  0  0  0  0  0  0  0  0  0  0
   37.8950   24.3000   37.7080 N   0  0  0  0  0  0  0  0  0  0  0  0
   37.5480   25.0630   35.8350 H   0  0  0  0  0  0  0  0  0  0  0  0
   40.8550   22.3160   36.3440 H   0  0  0  0  0  0  0  0  0  0  0  0
   38.4530   23.3850   39.5330 H   0  0  0  0  0  0  0  0  0  0  0  0
   37.1070   21.1250   32.1320 C   0  0  0  0  0  3  0  0  0  0  0  0
   37.1290   20.6490   30.7090 C   0  0  0  0  0  2  0  0  0  0  0  0
   36.3130   19.3720   30.6390 C   0  0  0  0  0  2  0  0  0  0  0  0
   35.3780   19.1930   31.7900 C   0  0  0  0  0  2  0  0  0  0  0  0
   34.7100   20.5140   32.1390 C   0  0  0  0  0  2  0  0  0  0  0  0
   35.7190   21.5300   32.5550 C   0  0  0  0  0  2  0  0  0  0  0  0
  1  7  1  6  0  0  0
  1 18  1  0  0  0  0
  2  9  1  0  0  0  0
  2  1  1  0  0  0  0
  3  2  1  0  0  0  0
  3 11  1  0  0  0  0
  4 12  1  6  0  0  0
  4  5  1  0  0  0  0
  4  3  1  0  0  0  0
  5  6  1  0  0  0  0
  5 14  1  0  0  0  0
  6 16  1  0  0  0  0
  6  1  1  0  0  0  0
  8  2  1  0  0  0  0
 10  3  1  0  0  0  0
 13  5  1  0  0  0  0
 15  6  1  0  0  0  0
 17 22  1  0  0  0  0
 18 17  2  0  0  0  0
 18 19  1  0  0  0  0
 19 20  2  0  0  0  0
 20 21  1  0  0  0  0
 21 25  1  0  0  0  0
 22 21  2  0  0  0  0
 23 17  1  0  0  0  0
 24 19  1  0  0  0  0
 26  4  1  0  0  0  0
 26 31  1  0  0  0  0
 27 26  1  0  0  0  0
 28 27  1  0  0  0  0
 28 29  1  0  0  0  0
 29 30  1  0  0  0  0
 30 31  1  0  0  0  0
M  END
>  <minimizedAffinity>
-4.8464179

$$$$

 OpenBabel03272506523D

 31 33  0  0  1  0  0  0  0  0999 V2000
   35.5790   30.0600   31.4520 C   0  0  1  0  0  0  0  0  0  0  0  0
   36.3930   29.0460   30.7730 C   0  0  0  0  0  0  0  0  0  0  0  0
   37.2570   28.1750   31.6420 C   0  0  0  0  0  0  0  0  0  0  0  0
   36.6290   27.7670   32.9150 C   0  0  2  0  0  0  0  0  0  0  0  0
   35.8240   28.7960   33.6420 C   0  0  0  0  0  0  0  0  0  0  0  0
   34.9350   29.5620   32.7090 C   0  0  0  0  0  0  0  0  0  0  0  0
   34.6890   30.2940   30.7800 H   0  0  0  0  0  0  0  0  0  0  0  0
   35.6380   28.2970   30.3640 H   0  0  0  0  0  0  0  0  0  0  0  0
   36.9030   29.3810   29.8810 H   0  0  0  0  0  0  0  0  0  0  0  0
   37.5330   27.2670   31.0780 H   0  0  0  0  0  0  0  0  0  0  0  0
   38.1760   28.7660   31.8600 H   0  0  0  0  0  0  0  0  0  0  0  0
   35.9160   26.9370   32.6760 H   0  0  0  0  0  0  0  0  0  0  0  0
   35.1500   28.2690   34.3530 H   0  0  0  0  0  0  0  0  0  0  0  0
   36.3850   29.5200   34.2340 H   0  0  0  0  0  0  0  0  0  0  0  0
   34.1430   28.8060   32.3910 H   0  0  0  0  0  0  0  0  0  0  0  0
   34.3830   30.3110   33.2630 H   0  0  0  0  0  0  0  0  0  0  0  0
   36.0060   32.2020   32.7300 C   0  0  0  0  0  0  0  0  0  0  0  0
   36.2090   31.3940   31.6100 C   0  0  0  0  0  0  0  0  0  0  0  0
   37.0470   31.8860   30.6310 C   0  0  0  0  0  0  0  0  0  0  0  0
   37.6280   33.1040   30.7880 N   0  0  0  0  0  0  0  0  0  0  0  0
   37.4030   33.8560   31.8950 C   0  0  0  0  0  0  0  0  0  0  0  0
   36.5820   33.4060   32.8830 N   0  0  0  0  0  0  0  0  0  0  0  0
   35.3640   31.8910   33.5400 H   0  0  0  0  0  0  0  0  0  0  0  0
   37.3280   31.4200   29.7110 H   0  0  0  0  0  0  0  0  0  0  0  0
   37.8790   34.8220   31.9920 H   0  0  0  0  0  0  0  0  0  0  0  0
   37.6810   27.1860   33.8360 C   0  0  0  0  0  3  0  0  0  0  0  0
   37.6620   27.7840   35.2110 C   0  0  0  0  0  2  0  0  0  0  0  0
   38.5290   26.9150   36.1020 C   0  0  0  0  0  2  0  0  0  0  0  0
   39.4830   26.0470   35.3500 C   0  0  0  0  0  2  0  0  0  0  0  0
   40.1010   26.8200   34.1940 C   0  0  0  0  0  2  0  0  0  0  0  0
   39.0560   27.2570   33.2240 C   0  0  0  0  0  2  0  0  0  0  0  0
  1  7  1  6  0  0  0
  1 18  1  0  0  0  0
  1  6  1  0  0  0  0
  2  1  1  0  0  0  0
  2  3  1  0  0  0  0
  3 11  1  0  0  0  0
  3  4  1  0  0  0  0
  4 12  1  6  0  0  0
  4  5  1  0  0  0  0
  4 26  1  0  0  0  0
  5 14  1  0  0  0  0
  5 13  1  0  0  0  0
  6 16  1  0  0  0  0
  6  5  1  0  0  0  0
  8  2  1  0  0  0  0
  9  2  1  0  0  0  0
 10  3  1  0  0  0  0
 15  6  1  0  0  0  0
 17 22  1  0  0  0  0
 17 23  1  0  0  0  0
 18 17  2  0  0  0  0
 19 20  2  0  0  0  0
 19 18  1  0  0  0  0
 20 21  1  0  0  0  0
 21 25  1  0  0  0  0
 21 22  2  0  0  0  0
 24 19  1  0  0  0  0
 26 27  1  0  0  0  0
 27 28  1  0  0  0  0
 29 28  1  0  0  0  0
 30 29  1  0  0  0  0
 31 26  1  0  0  0  0
 31 30  1  0  0  0  0
M  END
>  <minimizedAffinity>
-4.82260418

$$$$

 OpenBabel03272506523D

 31 33  0  0  1  0  0  0  0  0999 V2000
   38.3240   25.3950   31.8460 C   0  0  1  0  0  0  0  0  0  0  0  0
   39.1850   24.2100   31.7710 C   0  0  0  0  0  0  0  0  0  0  0  0
   38.5380   22.8810   32.0420 C   0  0  0  0  0  0  0  0  0  0  0  0
   37.1780   22.7390   31.4840 C   0  0  2  0  0  0  0  0  0  0  0  0
   36.2700   23.9220   31.5800 C   0  0  0  0  0  0  0  0  0  0  0  0
   36.9800   25.1920   31.2170 C   0  0  0  0  0  0  0  0  0  0  0  0
   38.7950   26.2040   31.1950 H   0  0  0  0  0  0  0  0  0  0  0  0
   39.4580   24.1200   30.6680 H   0  0  0  0  0  0  0  0  0  0  0  0
   40.1510   24.3070   32.2480 H   0  0  0  0  0  0  0  0  0  0  0  0
   39.1750   22.0800   31.6280 H   0  0  0  0  0  0  0  0  0  0  0  0
   38.4910   22.7770   33.1500 H   0  0  0  0  0  0  0  0  0  0  0  0
   37.2950   22.5340   30.3890 H   0  0  0  0  0  0  0  0  0  0  0  0
   35.4550   23.7960   30.8340 H   0  0  0  0  0  0  0  0  0  0  0  0
   35.7810   24.0800   32.5410 H   0  0  0  0  0  0  0  0  0  0  0  0
   37.1550   25.1060   30.0940 H   0  0  0  0  0  0  0  0  0  0  0  0
   36.3020   26.0310   31.3180 H   0  0  0  0  0  0  0  0  0  0  0  0
   37.1330   26.7700   33.6040 C   0  0  0  0  0  0  0  0  0  0  0  0
   38.2530   26.0600   33.1700 C   0  0  0  0  0  0  0  0  0  0  0  0
   39.3200   25.9870   34.0410 C   0  0  0  0  0  0  0  0  0  0  0  0
   39.2430   26.5910   35.2560 N   0  0  0  0  0  0  0  0  0  0  0  0
   38.1320   27.2700   35.6380 C   0  0  0  0  0  0  0  0  0  0  0  0
   37.0590   27.3660   34.8060 N   0  0  0  0  0  0  0  0  0  0  0  0
   36.2570   26.8760   32.9820 H   0  0  0  0  0  0  0  0  0  0  0  0
   40.2550   25.4910   33.8950 H   0  0  0  0  0  0  0  0  0  0  0  0
   38.1000   27.7400   36.6110 H   0  0  0  0  0  0  0  0  0  0  0  0
   36.5080   21.5210   32.0840 C   0  0  0  0  0  3  0  0  0  0  0  0
   35.1260   21.2800   31.5510 C   0  0  0  0  0  2  0  0  0  0  0  0
   34.7020   19.8900   31.9860 C   0  0  0  0  0  2  0  0  0  0  0  0
   35.4900   19.3530   33.1350 C   0  0  0  0  0  2  0  0  0  0  0  0
   35.7260   20.4430   34.1700 C   0  0  0  0  0  2  0  0  0  0  0  0
   36.5160   21.5680   33.5900 C   0  0  0  0  0  2  0  0  0  0  0  0
  1  7  1  6  0  0  0
  1 18  1  0  0  0  0
  2  1  1  0  0  0  0
  2  3  1  0  0  0  0
  2  9  1  0  0  0  0
  3 11  1  0  0  0  0
  4 12  1  6  0  0  0
  4  5  1  0  0  0  0
  4  3  1  0  0  0  0
  4 26  1  0  0  0  0
  5 14  1  0  0  0  0
  6 16  1  0  0  0  0
  6  5  1  0  0  0  0
  6  1  1  0  0  0  0
  8  2  1  0  0  0  0
 10  3  1  0  0  0  0
 13  5  1  0  0  0  0
 15  6  1  0  0  0  0
 17 22  1  0  0  0  0
 18 17  2  0  0  0  0
 18 19  1  0  0  0  0
 19 20  2  0  0  0  0
 20 21  1  0  0  0  0
 21 25  1  0  0  0  0
 22 21  2  0  0  0  0
 23 17  1  0  0  0  0
 24 19  1  0  0  0  0
 26 31  1  0  0  0  0
 27 28  1  0  0  0  0
 27 26  1  0  0  0  0
 28 29  1  0  0  0  0
 29 30  1  0  0  0  0
 31 30  1  0  0  0  0
M  END
>  <minimizedAffinity>
-4.81817007

$$$$

 OpenBabel03272506523D

 31 33  0  0  1  0  0  0  0  0999 V2000
   37.6840   26.6170   31.6110 C   0  0  1  0  0  0  0  0  0  0  0  0
   38.5700   25.7350   30.8430 C   0  0  0  0  0  0  0  0  0  0  0  0
   38.2360   24.2700   30.8410 C   0  0  0  0  0  0  0  0  0  0  0  0
   36.7920   23.9720   30.7670 C   0  0  2  0  0  0  0  0  0  0  0  0
   35.8720   24.8350   31.5710 C   0  0  0  0  0  0  0  0  0  0  0  0
   36.2320   26.2850   31.4500 C   0  0  0  0  0  0  0  0  0  0  0  0
   37.7630   27.6610   31.1620 H   0  0  0  0  0  0  0  0  0  0  0  0
   38.3870   26.0210   29.7540 H   0  0  0  0  0  0  0  0  0  0  0  0
   39.6280   25.9220   30.9640 H   0  0  0  0  0  0  0  0  0  0  0  0
   38.7400   23.7880   29.9850 H   0  0  0  0  0  0  0  0  0  0  0  0
   38.6470   23.8550   31.7890 H   0  0  0  0  0  0  0  0  0  0  0  0
   36.4840   24.1120   29.7000 H   0  0  0  0  0  0  0  0  0  0  0  0
   34.8470   24.7320   31.1520 H   0  0  0  0  0  0  0  0  0  0  0  0
   35.7930   24.6010   32.6320 H   0  0  0  0  0  0  0  0  0  0  0  0
   35.9530   26.5560   30.3790 H   0  0  0  0  0  0  0  0  0  0  0  0
   35.5620   26.8790   32.0590 H   0  0  0  0  0  0  0  0  0  0  0  0
   39.3820   26.7040   33.4850 C   0  0  0  0  0  0  0  0  0  0  0  0
   38.0730   26.8530   33.0230 C   0  0  0  0  0  0  0  0  0  0  0  0
   37.1280   27.2490   33.9460 C   0  0  0  0  0  0  0  0  0  0  0  0
   37.4950   27.4740   35.2350 N   0  0  0  0  0  0  0  0  0  0  0  0
   38.7800   27.3180   35.6410 C   0  0  0  0  0  0  0  0  0  0  0  0
   39.7420   26.9280   34.7600 N   0  0  0  0  0  0  0  0  0  0  0  0
   40.1800   26.3960   32.8270 H   0  0  0  0  0  0  0  0  0  0  0  0
   36.0850   27.4210   33.7870 H   0  0  0  0  0  0  0  0  0  0  0  0
   39.0420   27.5040   36.6730 H   0  0  0  0  0  0  0  0  0  0  0  0
   36.5570   22.5140   31.1000 C   0  0  0  0  0  3  0  0  0  0  0  0
   35.3820   22.2940   32.0070 C   0  0  0  0  0  2  0  0  0  0  0  0
   35.0730   20.8090   32.0060 C   0  0  0  0  0  2  0  0  0  0  0  0
   36.2070   19.9590   31.5350 C   0  0  0  0  0  2  0  0  0  0  0  0
   37.5210   20.4700   32.1060 C   0  0  0  0  0  2  0  0  0  0  0  0
   37.8010   21.8600   31.6440 C   0  0  0  0  0  2  0  0  0  0  0  0
  1  7  1  6  0  0  0
  1 18  1  0  0  0  0
  2  9  1  0  0  0  0
  2  1  1  0  0  0  0
  3  2  1  0  0  0  0
  3 11  1  0  0  0  0
  4 12  1  6  0  0  0
  4  3  1  0  0  0  0
  4 26  1  0  0  0  0
  4  5  1  0  0  0  0
  5 14  1  0  0  0  0
  6  5  1  0  0  0  0
  6  1  1  0  0  0  0
  6 16  1  0  0  0  0
  8  2  1  0  0  0  0
 10  3  1  0  0  0  0
 13  5  1  0  0  0  0
 15  6  1  0  0  0  0
 17 22  1  0  0  0  0
 18 17  2  0  0  0  0
 18 19  1  0  0  0  0
 19 20  2  0  0  0  0
 20 21  1  0  0  0  0
 21 25  1  0  0  0  0
 22 21  2  0  0  0  0
 23 17  1  0  0  0  0
 24 19  1  0  0  0  0
 26 31  1  0  0  0  0
 26 27  1  0  0  0  0
 28 27  1  0  0  0  0
 29 28  1  0  0  0  0
 29 30  1  0  0  0  0
 31 30  1  0  0  0  0
M  END
>  <minimizedAffinity>
-4.80681944

$$$$
