
 OpenBabel03272505143D

 36 39  0  0  0  0  0  0  0  0999 V2000
   38.2000   23.5920   34.1420 Cl  0  0  0  0  0  0  0  0  0  0  0  0
   39.2700   24.9640   34.0390 C   0  0  0  0  0  0  0  0  0  0  0  0
   40.4560   24.8910   34.7460 C   0  0  0  0  0  0  0  0  0  0  0  0
   41.3170   25.9800   34.6720 C   0  0  0  0  0  0  0  0  0  0  0  0
   40.9700   27.0730   33.9110 C   0  0  0  0  0  0  0  0  0  0  0  0
   39.7620   27.0700   33.2300 C   0  0  0  0  0  0  0  0  0  0  0  0
   38.8670   26.0320   33.2590 C   0  0  0  0  0  0  0  0  0  0  0  0
   42.2530   25.9440   35.2190 H   0  0  0  0  0  0  0  0  0  0  0  0
   41.6130   27.9370   33.8290 H   0  0  0  0  0  0  0  0  0  0  0  0
   39.5260   27.9530   32.6410 H   0  0  0  0  0  0  0  0  0  0  0  0
   42.0610   21.7810   35.7390 C   0  0  0  0  0  0  0  0  0  0  0  0
   41.4610   21.4490   36.9620 C   0  0  0  0  0  0  0  0  0  0  0  0
   40.4780   22.3300   37.4470 C   0  0  0  0  0  0  0  0  0  0  0  0
   40.1710   23.4400   36.7090 N   0  0  0  0  0  0  0  0  0  0  0  0
   40.7830   23.6970   35.5470 C   0  0  0  0  0  0  0  0  0  0  0  0
   41.7190   22.8840   35.0580 N   0  0  0  0  0  0  0  0  0  0  0  0
   42.8060   21.0620   35.4260 H   0  0  0  0  0  0  0  0  0  0  0  0
   41.7410   20.5490   37.5170 H   0  0  0  0  0  0  0  0  0  0  0  0
   39.9840   22.1410   38.3670 H   0  0  0  0  0  0  0  0  0  0  0  0
   37.3290   26.0170   32.3980 S   0  0  0  0  0  0  0  0  0  0  0  0
   36.5370   27.7520   34.9010 Cl  0  0  0  0  0  0  0  0  0  0  0  0
   36.3770   28.3790   33.2760 C   0  0  0  0  0  0  0  0  0  0  0  0
   36.7060   27.6720   32.1110 C   0  0  0  0  0  0  0  0  0  0  0  0
   36.5360   28.2690   30.8910 C   0  0  0  0  0  0  0  0  0  0  0  0
   36.0490   29.5460   30.7910 C   0  0  0  0  0  0  0  0  0  0  0  0
   35.7120   30.2780   31.9220 C   0  0  0  0  0  0  0  0  0  0  0  0
   35.8840   29.6770   33.1380 C   0  0  0  0  0  0  0  0  0  0  0  0
   36.8260   27.6240   30.0600 H   0  0  0  0  0  0  0  0  0  0  0  0
   35.9360   29.9680   29.8220 H   0  0  0  0  0  0  0  0  0  0  0  0
   35.3330   31.2820   31.7810 H   0  0  0  0  0  0  0  0  0  0  0  0
   35.5220   30.4610   34.3490 C   0  0  0  0  0  3  0  0  0  0  0  0
   34.0550   30.4130   34.6420 C   0  0  0  0  0  2  0  0  0  0  0  0
   33.7680   31.1240   35.9250 C   0  0  0  0  0  2  0  0  0  0  0  0
   34.9930   31.7670   36.5290 C   0  0  0  0  0  2  0  0  0  0  0  0
   35.7740   32.5920   35.5540 C   0  0  0  0  0  2  0  0  0  0  0  0
   35.9630   31.9000   34.2240 C   0  0  0  0  0  2  0  0  0  0  0  0
  2  1  1  0  0  0  0
  2  3  1  0  0  0  0
  3 15  1  0  0  0  0
  4  3  2  0  0  0  0
  4  8  1  0  0  0  0
  5  4  1  0  0  0  0
  6  7  1  0  0  0  0
  6  5  2  0  0  0  0
  7  2  2  0  0  0  0
  9  5  1  0  0  0  0
 10  6  1  0  0  0  0
 11 12  1  0  0  0  0
 12 13  2  0  0  0  0
 12 18  1  0  0  0  0
 13 19  1  0  0  0  0
 14 13  1  0  0  0  0
 15 14  2  0  0  0  0
 16 15  1  0  0  0  0
 16 11  2  0  0  0  0
 17 11  1  0  0  0  0
 20  7  1  0  0  0  0
 22 21  1  0  0  0  0
 23 20  1  0  0  0  0
 23 22  2  0  0  0  0
 24 23  1  0  0  0  0
 25 24  2  0  0  0  0
 25 26  1  0  0  0  0
 26 27  2  0  0  0  0
 27 22  1  0  0  0  0
 27 31  1  0  0  0  0
 28 24  1  0  0  0  0
 29 25  1  0  0  0  0
 30 26  1  0  0  0  0
 31 32  1  0  0  0  0
 32 33  1  0  0  0  0
 33 34  1  0  0  0  0
 35 34  1  0  0  0  0
 36 31  1  0  0  0  0
 36 35  1  0  0  0  0
M  END
>  <minimizedAffinity>
-6.28156519

$$$$

 OpenBabel03272505143D

 36 39  0  0  0  0  0  0  0  0999 V2000
   36.4480   27.5680   34.8950 Cl  0  0  0  0  0  0  0  0  0  0  0  0
   36.3740   28.2120   33.2780 C   0  0  0  0  0  0  0  0  0  0  0  0
   35.8180   29.4690   33.1260 C   0  0  0  0  0  0  0  0  0  0  0  0
   35.7530   29.9920   31.8400 C   0  0  0  0  0  0  0  0  0  0  0  0
   36.2350   29.2590   30.7800 C   0  0  0  0  0  0  0  0  0  0  0  0
   36.7790   28.0040   31.0140 C   0  0  0  0  0  0  0  0  0  0  0  0
   36.8740   27.4280   32.2550 C   0  0  0  0  0  0  0  0  0  0  0  0
   35.3210   30.9770   31.6980 H   0  0  0  0  0  0  0  0  0  0  0  0
   36.2020   29.6320   29.7660 H   0  0  0  0  0  0  0  0  0  0  0  0
   37.1480   27.4580   30.1500 H   0  0  0  0  0  0  0  0  0  0  0  0
   35.8070   31.6590   36.0300 C   0  0  0  0  0  0  0  0  0  0  0  0
   34.4800   31.6420   36.4810 C   0  0  0  0  0  0  0  0  0  0  0  0
   33.5730   30.8500   35.7540 C   0  0  0  0  0  0  0  0  0  0  0  0
   34.0320   30.1550   34.6700 N   0  0  0  0  0  0  0  0  0  0  0  0
   35.3150   30.2160   34.2940 C   0  0  0  0  0  0  0  0  0  0  0  0
   36.2020   30.9570   34.9590 N   0  0  0  0  0  0  0  0  0  0  0  0
   36.4490   32.2880   36.6330 H   0  0  0  0  0  0  0  0  0  0  0  0
   34.1590   32.2160   37.3540 H   0  0  0  0  0  0  0  0  0  0  0  0
   32.5520   30.7910   36.0390 H   0  0  0  0  0  0  0  0  0  0  0  0
   37.5630   25.8350   32.5640 S   0  0  0  0  0  0  0  0  0  0  0  0
   38.5490   23.2870   34.1250 Cl  0  0  0  0  0  0  0  0  0  0  0  0
   39.4890   24.7620   34.1120 C   0  0  0  0  0  0  0  0  0  0  0  0
   39.1200   25.9380   33.4430 C   0  0  0  0  0  0  0  0  0  0  0  0
   39.9400   27.0330   33.5060 C   0  0  0  0  0  0  0  0  0  0  0  0
   41.1140   26.9960   34.2120 C   0  0  0  0  0  0  0  0  0  0  0  0
   41.5130   25.8500   34.8870 C   0  0  0  0  0  0  0  0  0  0  0  0
   40.6910   24.7600   34.8210 C   0  0  0  0  0  0  0  0  0  0  0  0
   39.5510   27.8860   32.9480 H   0  0  0  0  0  0  0  0  0  0  0  0
   41.7180   27.8710   34.2310 H   0  0  0  0  0  0  0  0  0  0  0  0
   42.4490   25.8800   35.4270 H   0  0  0  0  0  0  0  0  0  0  0  0
   41.1170   23.5330   35.5450 C   0  0  0  0  0  3  0  0  0  0  0  0
   40.3580   23.3290   36.8180 C   0  0  0  0  0  2  0  0  0  0  0  0
   40.7510   22.0290   37.4430 C   0  0  0  0  0  2  0  0  0  0  0  0
   41.8520   21.3220   36.6900 C   0  0  0  0  0  2  0  0  0  0  0  0
   43.0170   22.2050   36.3720 C   0  0  0  0  0  2  0  0  0  0  0  0
   42.5980   23.5560   35.8400 C   0  0  0  0  0  2  0  0  0  0  0  0
  2  1  1  0  0  0  0
  3  2  1  0  0  0  0
  3 15  1  0  0  0  0
  4  3  2  0  0  0  0
  5  6  2  0  0  0  0
  5  4  1  0  0  0  0
  6  7  1  0  0  0  0
  7 20  1  0  0  0  0
  7  2  2  0  0  0  0
  8  4  1  0  0  0  0
  9  5  1  0  0  0  0
 10  6  1  0  0  0  0
 11 12  1  0  0  0  0
 11 17  1  0  0  0  0
 12 18  1  0  0  0  0
 13 19  1  0  0  0  0
 13 12  2  0  0  0  0
 14 13  1  0  0  0  0
 15 14  2  0  0  0  0
 15 16  1  0  0  0  0
 16 11  2  0  0  0  0
 20 23  1  0  0  0  0
 22 21  1  0  0  0  0
 22 27  1  0  0  0  0
 23 24  1  0  0  0  0
 23 22  2  0  0  0  0
 24 25  2  0  0  0  0
 25 29  1  0  0  0  0
 25 26  1  0  0  0  0
 26 30  1  0  0  0  0
 27 26  2  0  0  0  0
 27 31  1  0  0  0  0
 28 24  1  0  0  0  0
 31 36  1  0  0  0  0
 31 32  1  0  0  0  0
 32 33  1  0  0  0  0
 34 33  1  0  0  0  0
 35 34  1  0  0  0  0
 36 35  1  0  0  0  0
M  END
>  <minimizedAffinity>
-6.12194633

$$$$

 OpenBabel03272505143D

 36 39  0  0  0  0  0  0  0  0999 V2000
   39.7090   26.2430   35.1350 Cl  0  0  0  0  0  0  0  0  0  0  0  0
   38.8440   25.1470   34.0930 C   0  0  0  0  0  0  0  0  0  0  0  0
   38.4440   23.9420   34.6410 C   0  0  0  0  0  0  0  0  0  0  0  0
   37.7530   23.0590   33.8180 C   0  0  0  0  0  0  0  0  0  0  0  0
   37.4930   23.4060   32.5120 C   0  0  0  0  0  0  0  0  0  0  0  0
   37.9270   24.6350   32.0370 C   0  0  0  0  0  0  0  0  0  0  0  0
   38.6130   25.5510   32.7910 C   0  0  0  0  0  0  0  0  0  0  0  0
   37.4300   22.1090   34.2270 H   0  0  0  0  0  0  0  0  0  0  0  0
   36.9590   22.7470   31.8430 H   0  0  0  0  0  0  0  0  0  0  0  0
   37.7020   24.8690   30.9990 H   0  0  0  0  0  0  0  0  0  0  0  0
   38.0700   23.7360   38.2530 C   0  0  0  0  0  0  0  0  0  0  0  0
   39.2170   23.0590   38.6900 C   0  0  0  0  0  0  0  0  0  0  0  0
   40.1380   22.6680   37.7000 C   0  0  0  0  0  0  0  0  0  0  0  0
   39.8630   22.9660   36.3940 N   0  0  0  0  0  0  0  0  0  0  0  0
   38.7460   23.6160   36.0470 C   0  0  0  0  0  0  0  0  0  0  0  0
   37.8520   24.0020   36.9580 N   0  0  0  0  0  0  0  0  0  0  0  0
   37.4060   24.0060   39.0640 H   0  0  0  0  0  0  0  0  0  0  0  0
   39.3930   22.8430   39.7460 H   0  0  0  0  0  0  0  0  0  0  0  0
   41.0280   22.1510   37.9600 H   0  0  0  0  0  0  0  0  0  0  0  0
   39.1700   27.1150   32.1980 S   0  0  0  0  0  0  0  0  0  0  0  0
   36.9210   27.7870   34.2950 Cl  0  0  0  0  0  0  0  0  0  0  0  0
   36.8510   28.4060   32.6600 C   0  0  0  0  0  0  0  0  0  0  0  0
   37.8090   28.1530   31.6680 C   0  0  0  0  0  0  0  0  0  0  0  0
   37.6460   28.6940   30.4210 C   0  0  0  0  0  0  0  0  0  0  0  0
   36.5600   29.4780   30.1280 C   0  0  0  0  0  0  0  0  0  0  0  0
   35.5900   29.7500   31.0840 C   0  0  0  0  0  0  0  0  0  0  0  0
   35.7580   29.2080   32.3270 C   0  0  0  0  0  0  0  0  0  0  0  0
   38.4530   28.4300   29.7360 H   0  0  0  0  0  0  0  0  0  0  0  0
   36.4770   29.8760   29.1460 H   0  0  0  0  0  0  0  0  0  0  0  0
   34.7560   30.3750   30.7940 H   0  0  0  0  0  0  0  0  0  0  0  0
   34.7190   29.4990   33.3500 C   0  0  0  0  0  3  0  0  0  0  0  0
   33.3340   29.4470   32.7860 C   0  0  0  0  0  2  0  0  0  0  0  0
   32.3310   29.6390   33.8790 C   0  0  0  0  0  2  0  0  0  0  0  0
   32.9670   29.9190   35.2190 C   0  0  0  0  0  2  0  0  0  0  0  0
   34.0070   30.9930   35.1720 C   0  0  0  0  0  2  0  0  0  0  0  0
   34.9480   30.8440   33.9980 C   0  0  0  0  0  2  0  0  0  0  0  0
  2  3  1  0  0  0  0
  2  1  1  0  0  0  0
  3 15  1  0  0  0  0
  4  8  1  0  0  0  0
  4  3  2  0  0  0  0
  5  4  1  0  0  0  0
  6  5  2  0  0  0  0
  6  7  1  0  0  0  0
  7  2  2  0  0  0  0
  9  5  1  0  0  0  0
 10  6  1  0  0  0  0
 11 12  1  0  0  0  0
 11 17  1  0  0  0  0
 12 18  1  0  0  0  0
 13 19  1  0  0  0  0
 13 12  2  0  0  0  0
 14 13  1  0  0  0  0
 15 14  2  0  0  0  0
 15 16  1  0  0  0  0
 16 11  2  0  0  0  0
 20  7  1  0  0  0  0
 22 21  1  0  0  0  0
 23 20  1  0  0  0  0
 23 22  2  0  0  0  0
 24 23  1  0  0  0  0
 25 24  2  0  0  0  0
 25 26  1  0  0  0  0
 26 27  2  0  0  0  0
 27 22  1  0  0  0  0
 27 31  1  0  0  0  0
 28 24  1  0  0  0  0
 29 25  1  0  0  0  0
 30 26  1  0  0  0  0
 31 36  1  0  0  0  0
 32 31  1  0  0  0  0
 32 33  1  0  0  0  0
 33 34  1  0  0  0  0
 35 34  1  0  0  0  0
 36 35  1  0  0  0  0
M  END
>  <minimizedAffinity>
-6.06585979

$$$$

 OpenBabel03272505143D

 36 39  0  0  0  0  0  0  0  0999 V2000
   37.1140   27.8950   33.9440 Cl  0  0  0  0  0  0  0  0  0  0  0  0
   37.1020   28.4380   32.2880 C   0  0  0  0  0  0  0  0  0  0  0  0
   36.0650   29.2680   31.9050 C   0  0  0  0  0  0  0  0  0  0  0  0
   36.0450   29.7070   30.5860 C   0  0  0  0  0  0  0  0  0  0  0  0
   37.0390   29.3100   29.7200 C   0  0  0  0  0  0  0  0  0  0  0  0
   38.0460   28.4750   30.1810 C   0  0  0  0  0  0  0  0  0  0  0  0
   38.1270   28.0050   31.4660 C   0  0  0  0  0  0  0  0  0  0  0  0
   35.2410   30.3590   30.2650 H   0  0  0  0  0  0  0  0  0  0  0  0
   37.0580   29.6300   28.6890 H   0  0  0  0  0  0  0  0  0  0  0  0
   38.8110   28.1850   29.4650 H   0  0  0  0  0  0  0  0  0  0  0  0
   32.8610   29.3600   33.6240 C   0  0  0  0  0  0  0  0  0  0  0  0
   33.0210   30.3330   34.6200 C   0  0  0  0  0  0  0  0  0  0  0  0
   34.2750   30.9670   34.6910 C   0  0  0  0  0  0  0  0  0  0  0  0
   35.2460   30.6040   33.7990 N   0  0  0  0  0  0  0  0  0  0  0  0
   35.0240   29.6660   32.8710 C   0  0  0  0  0  0  0  0  0  0  0  0
   33.8480   29.0440   32.7750 N   0  0  0  0  0  0  0  0  0  0  0  0
   31.8750   28.9140   33.6260 H   0  0  0  0  0  0  0  0  0  0  0  0
   32.2150   30.5900   35.3130 H   0  0  0  0  0  0  0  0  0  0  0  0
   34.4670   31.7130   35.4220 H   0  0  0  0  0  0  0  0  0  0  0  0
   39.4020   26.9440   32.0620 S   0  0  0  0  0  0  0  0  0  0  0  0
   39.9450   26.2820   35.0910 Cl  0  0  0  0  0  0  0  0  0  0  0  0
   39.0310   25.1910   34.0740 C   0  0  0  0  0  0  0  0  0  0  0  0
   38.7460   25.4110   32.7180 C   0  0  0  0  0  0  0  0  0  0  0  0
   38.0200   24.4820   32.0240 C   0  0  0  0  0  0  0  0  0  0  0  0
   37.5670   23.3410   32.6330 C   0  0  0  0  0  0  0  0  0  0  0  0
   37.8290   23.0870   33.9730 C   0  0  0  0  0  0  0  0  0  0  0  0
   38.5540   24.0180   34.6610 C   0  0  0  0  0  0  0  0  0  0  0  0
   37.8610   24.7620   30.9810 H   0  0  0  0  0  0  0  0  0  0  0  0
   37.0060   22.6490   32.0520 H   0  0  0  0  0  0  0  0  0  0  0  0
   37.4460   22.1690   34.3990 H   0  0  0  0  0  0  0  0  0  0  0  0
   38.8360   23.7460   36.0960 C   0  0  0  0  0  3  0  0  0  0  0  0
   39.8760   22.6870   36.2830 C   0  0  0  0  0  2  0  0  0  0  0  0
   40.1940   22.5350   37.7360 C   0  0  0  0  0  2  0  0  0  0  0  0
   39.3360   23.4070   38.6210 C   0  0  0  0  0  2  0  0  0  0  0  0
   37.8740   23.3050   38.3190 C   0  0  0  0  0  2  0  0  0  0  0  0
   37.5790   23.3540   36.8370 C   0  0  0  0  0  2  0  0  0  0  0  0
  2  1  1  0  0  0  0
  3  2  1  0  0  0  0
  3 15  1  0  0  0  0
  4  3  2  0  0  0  0
  5  6  2  0  0  0  0
  5  4  1  0  0  0  0
  6  7  1  0  0  0  0
  7 20  1  0  0  0  0
  7  2  2  0  0  0  0
  8  4  1  0  0  0  0
  9  5  1  0  0  0  0
 10  6  1  0  0  0  0
 11 17  1  0  0  0  0
 11 12  1  0  0  0  0
 12 13  2  0  0  0  0
 12 18  1  0  0  0  0
 13 19  1  0  0  0  0
 14 13  1  0  0  0  0
 15 14  2  0  0  0  0
 16 15  1  0  0  0  0
 16 11  2  0  0  0  0
 20 23  1  0  0  0  0
 22 27  1  0  0  0  0
 22 21  1  0  0  0  0
 23 22  2  0  0  0  0
 24 25  2  0  0  0  0
 24 23  1  0  0  0  0
 25 26  1  0  0  0  0
 26 30  1  0  0  0  0
 26 27  2  0  0  0  0
 27 31  1  0  0  0  0
 28 24  1  0  0  0  0
 29 25  1  0  0  0  0
 31 32  1  0  0  0  0
 31 36  1  0  0  0  0
 32 33  1  0  0  0  0
 33 34  1  0  0  0  0
 35 34  1  0  0  0  0
 36 35  1  0  0  0  0
M  END
>  <minimizedAffinity>
-6.03240061

$$$$

 OpenBabel03272505143D

 36 39  0  0  0  0  0  0  0  0999 V2000
   39.4930   23.7740   33.2460 Cl  0  0  0  0  0  0  0  0  0  0  0  0
   38.0810   22.7540   33.2130 C   0  0  0  0  0  0  0  0  0  0  0  0
   37.6950   22.1750   34.4090 C   0  0  0  0  0  0  0  0  0  0  0  0
   36.5700   21.3590   34.3940 C   0  0  0  0  0  0  0  0  0  0  0  0
   35.8890   21.1570   33.2150 C   0  0  0  0  0  0  0  0  0  0  0  0
   36.3400   21.7730   32.0570 C   0  0  0  0  0  0  0  0  0  0  0  0
   37.4400   22.5890   31.9990 C   0  0  0  0  0  0  0  0  0  0  0  0
   36.2500   20.8950   35.3200 H   0  0  0  0  0  0  0  0  0  0  0  0
   35.0100   20.5300   33.1640 H   0  0  0  0  0  0  0  0  0  0  0  0
   35.7730   21.5870   31.1480 H   0  0  0  0  0  0  0  0  0  0  0  0
   38.5210   23.4610   37.7090 C   0  0  0  0  0  0  0  0  0  0  0  0
   39.7960   22.9440   37.9810 C   0  0  0  0  0  0  0  0  0  0  0  0
   40.3750   22.1310   36.9910 C   0  0  0  0  0  0  0  0  0  0  0  0
   39.6730   21.8960   35.8410 N   0  0  0  0  0  0  0  0  0  0  0  0
   38.4580   22.4230   35.6450 C   0  0  0  0  0  0  0  0  0  0  0  0
   37.8780   23.1980   36.5630 N   0  0  0  0  0  0  0  0  0  0  0  0
   38.1360   24.0760   38.5120 H   0  0  0  0  0  0  0  0  0  0  0  0
   40.3190   23.1590   38.9170 H   0  0  0  0  0  0  0  0  0  0  0  0
   41.3380   21.7050   37.1300 H   0  0  0  0  0  0  0  0  0  0  0  0
   38.0210   23.3770   30.5340 S   0  0  0  0  0  0  0  0  0  0  0  0
   35.6700   25.2600   31.4450 Cl  0  0  0  0  0  0  0  0  0  0  0  0
   37.2880   25.8800   31.2100 C   0  0  0  0  0  0  0  0  0  0  0  0
   38.3880   25.1100   30.8050 C   0  0  0  0  0  0  0  0  0  0  0  0
   39.6100   25.7080   30.6550 C   0  0  0  0  0  0  0  0  0  0  0  0
   39.7740   27.0480   30.8920 C   0  0  0  0  0  0  0  0  0  0  0  0
   38.7090   27.8440   31.2930 C   0  0  0  0  0  0  0  0  0  0  0  0
   37.4910   27.2410   31.4420 C   0  0  0  0  0  0  0  0  0  0  0  0
   40.3870   25.0110   30.3390 H   0  0  0  0  0  0  0  0  0  0  0  0
   40.7420   27.4680   30.7620 H   0  0  0  0  0  0  0  0  0  0  0  0
   38.8980   28.8950   31.4650 H   0  0  0  0  0  0  0  0  0  0  0  0
   36.3500   28.0930   31.8710 C   0  0  0  0  0  3  0  0  0  0  0  0
   36.2750   29.3740   31.1020 C   0  0  0  0  0  2  0  0  0  0  0  0
   35.0510   30.1360   31.4990 C   0  0  0  0  0  2  0  0  0  0  0  0
   34.2780   29.4700   32.6120 C   0  0  0  0  0  2  0  0  0  0  0  0
   35.1320   29.0710   33.7730 C   0  0  0  0  0  2  0  0  0  0  0  0
   36.4170   28.3970   33.3490 C   0  0  0  0  0  2  0  0  0  0  0  0
  2  1  1  0  0  0  0
  2  3  1  0  0  0  0
  3 15  1  0  0  0  0
  4  3  2  0  0  0  0
  4  8  1  0  0  0  0
  5  4  1  0  0  0  0
  6  5  2  0  0  0  0
  7  6  1  0  0  0  0
  7  2  2  0  0  0  0
  9  5  1  0  0  0  0
 10  6  1  0  0  0  0
 11 12  1  0  0  0  0
 11 17  1  0  0  0  0
 12 18  1  0  0  0  0
 13 19  1  0  0  0  0
 13 12  2  0  0  0  0
 14 13  1  0  0  0  0
 15 14  2  0  0  0  0
 15 16  1  0  0  0  0
 16 11  2  0  0  0  0
 20 23  1  0  0  0  0
 20  7  1  0  0  0  0
 22 27  1  0  0  0  0
 22 21  1  0  0  0  0
 23 22  2  0  0  0  0
 24 23  1  0  0  0  0
 24 25  2  0  0  0  0
 25 26  1  0  0  0  0
 26 27  2  0  0  0  0
 26 30  1  0  0  0  0
 27 31  1  0  0  0  0
 28 24  1  0  0  0  0
 29 25  1  0  0  0  0
 31 36  1  0  0  0  0
 32 33  1  0  0  0  0
 32 31  1  0  0  0  0
 33 34  1  0  0  0  0
 34 35  1  0  0  0  0
 36 35  1  0  0  0  0
M  END
>  <minimizedAffinity>
-5.99094439

$$$$

 OpenBabel03272505143D

 36 39  0  0  0  0  0  0  0  0999 V2000
   37.8170   23.6260   31.7320 Cl  0  0  0  0  0  0  0  0  0  0  0  0
   37.8830   23.3990   33.4590 C   0  0  0  0  0  0  0  0  0  0  0  0
   37.4510   22.1810   33.9500 C   0  0  0  0  0  0  0  0  0  0  0  0
   37.4990   21.9890   35.3260 C   0  0  0  0  0  0  0  0  0  0  0  0
   37.9670   22.9960   36.1390 C   0  0  0  0  0  0  0  0  0  0  0  0
   38.3830   24.1900   35.5700 C   0  0  0  0  0  0  0  0  0  0  0  0
   38.3620   24.4470   34.2230 C   0  0  0  0  0  0  0  0  0  0  0  0
   37.1650   21.0410   35.7320 H   0  0  0  0  0  0  0  0  0  0  0  0
   38.0190   22.8840   37.2130 H   0  0  0  0  0  0  0  0  0  0  0  0
   38.7440   24.9590   36.2470 H   0  0  0  0  0  0  0  0  0  0  0  0
   35.1260   20.0970   32.0840 C   0  0  0  0  0  0  0  0  0  0  0  0
   35.9420   19.2160   31.3620 C   0  0  0  0  0  0  0  0  0  0  0  0
   37.3310   19.3540   31.5320 C   0  0  0  0  0  0  0  0  0  0  0  0
   37.7960   20.3240   32.3770 N   0  0  0  0  0  0  0  0  0  0  0  0
   36.9590   21.1330   33.0370 C   0  0  0  0  0  0  0  0  0  0  0  0
   35.6360   21.0300   32.8990 N   0  0  0  0  0  0  0  0  0  0  0  0
   34.0710   19.9360   31.9060 H   0  0  0  0  0  0  0  0  0  0  0  0
   35.5250   18.4550   30.6960 H   0  0  0  0  0  0  0  0  0  0  0  0
   38.0090   18.7200   31.0150 H   0  0  0  0  0  0  0  0  0  0  0  0
   38.8890   25.9600   33.4890 S   0  0  0  0  0  0  0  0  0  0  0  0
   37.6500   28.0680   35.4700 Cl  0  0  0  0  0  0  0  0  0  0  0  0
   37.0120   27.8580   33.8550 C   0  0  0  0  0  0  0  0  0  0  0  0
   37.5050   26.9430   32.9140 C   0  0  0  0  0  0  0  0  0  0  0  0
   36.9220   26.8690   31.6780 C   0  0  0  0  0  0  0  0  0  0  0  0
   35.8640   27.6740   31.3470 C   0  0  0  0  0  0  0  0  0  0  0  0
   35.3470   28.5920   32.2520 C   0  0  0  0  0  0  0  0  0  0  0  0
   35.9330   28.6620   33.4840 C   0  0  0  0  0  0  0  0  0  0  0  0
   37.3900   26.1240   31.0320 H   0  0  0  0  0  0  0  0  0  0  0  0
   35.4440   27.5810   30.3740 H   0  0  0  0  0  0  0  0  0  0  0  0
   34.5110   29.2010   31.9340 H   0  0  0  0  0  0  0  0  0  0  0  0
   35.3800   29.6450   34.4540 C   0  0  0  0  0  3  0  0  0  0  0  0
   33.8840   29.6320   34.4870 C   0  0  0  0  0  2  0  0  0  0  0  0
   33.3900   30.5570   35.5530 C   0  0  0  0  0  2  0  0  0  0  0  0
   34.5020   31.3130   36.2390 C   0  0  0  0  0  2  0  0  0  0  0  0
   35.4580   31.9600   35.2870 C   0  0  0  0  0  2  0  0  0  0  0  0
   35.8650   31.0440   34.1550 C   0  0  0  0  0  2  0  0  0  0  0  0
  1  2  1  0  0  0  0
  2  3  2  0  0  0  0
  2  7  1  0  0  0  0
  3  4  1  0  0  0  0
  4  8  1  0  0  0  0
  4  5  2  0  0  0  0
  5  9  1  0  0  0  0
  6  5  1  0  0  0  0
  6 10  1  0  0  0  0
  7  6  2  0  0  0  0
 11 16  1  0  0  0  0
 12 13  1  0  0  0  0
 12 11  2  0  0  0  0
 13 14  2  0  0  0  0
 14 15  1  0  0  0  0
 15  3  1  0  0  0  0
 16 15  2  0  0  0  0
 17 11  1  0  0  0  0
 18 12  1  0  0  0  0
 19 13  1  0  0  0  0
 20  7  1  0  0  0  0
 22 21  1  0  0  0  0
 23 20  1  0  0  0  0
 23 22  2  0  0  0  0
 24 23  1  0  0  0  0
 25 24  2  0  0  0  0
 25 26  1  0  0  0  0
 26 27  2  0  0  0  0
 27 22  1  0  0  0  0
 27 31  1  0  0  0  0
 28 24  1  0  0  0  0
 29 25  1  0  0  0  0
 30 26  1  0  0  0  0
 31 32  1  0  0  0  0
 32 33  1  0  0  0  0
 33 34  1  0  0  0  0
 35 34  1  0  0  0  0
 36 31  1  0  0  0  0
 36 35  1  0  0  0  0
M  END
>  <minimizedAffinity>
-5.91240692

$$$$

 OpenBabel03272505143D

 36 39  0  0  0  0  0  0  0  0999 V2000
   38.8390   23.5780   33.5820 Cl  0  0  0  0  0  0  0  0  0  0  0  0
   37.5630   22.3980   33.7120 C   0  0  0  0  0  0  0  0  0  0  0  0
   37.2790   21.9150   34.9760 C   0  0  0  0  0  0  0  0  0  0  0  0
   36.2630   20.9730   35.0910 C   0  0  0  0  0  0  0  0  0  0  0  0
   35.5850   20.5600   33.9670 C   0  0  0  0  0  0  0  0  0  0  0  0
   35.9290   21.0930   32.7330 C   0  0  0  0  0  0  0  0  0  0  0  0
   36.9190   22.0230   32.5470 C   0  0  0  0  0  0  0  0  0  0  0  0
   36.0240   20.5810   36.0730 H   0  0  0  0  0  0  0  0  0  0  0  0
   34.7900   19.8300   34.0160 H   0  0  0  0  0  0  0  0  0  0  0  0
   35.3700   20.7390   31.8710 H   0  0  0  0  0  0  0  0  0  0  0  0
   40.0540   22.4200   37.2730 C   0  0  0  0  0  0  0  0  0  0  0  0
   39.5250   23.2200   38.2960 C   0  0  0  0  0  0  0  0  0  0  0  0
   38.1730   23.5880   38.1780 C   0  0  0  0  0  0  0  0  0  0  0  0
   37.4660   23.1520   37.0920 N   0  0  0  0  0  0  0  0  0  0  0  0
   38.0340   22.3900   36.1500 C   0  0  0  0  0  0  0  0  0  0  0  0
   39.3130   22.0220   36.2290 N   0  0  0  0  0  0  0  0  0  0  0  0
   41.0960   22.1750   37.4260 H   0  0  0  0  0  0  0  0  0  0  0  0
   40.1300   23.5450   39.1460 H   0  0  0  0  0  0  0  0  0  0  0  0
   37.7070   24.1930   38.9170 H   0  0  0  0  0  0  0  0  0  0  0  0
   37.3640   22.7070   30.9850 S   0  0  0  0  0  0  0  0  0  0  0  0
   39.8730   24.4330   30.1890 Cl  0  0  0  0  0  0  0  0  0  0  0  0
   38.3460   25.1850   30.5920 C   0  0  0  0  0  0  0  0  0  0  0  0
   37.1840   24.4890   30.9570 C   0  0  0  0  0  0  0  0  0  0  0  0
   36.0450   25.1890   31.2520 C   0  0  0  0  0  0  0  0  0  0  0  0
   36.0240   26.5580   31.1970 C   0  0  0  0  0  0  0  0  0  0  0  0
   37.1540   27.2820   30.8400 C   0  0  0  0  0  0  0  0  0  0  0  0
   38.2880   26.5780   30.5460 C   0  0  0  0  0  0  0  0  0  0  0  0
   35.2080   24.5430   31.5200 H   0  0  0  0  0  0  0  0  0  0  0  0
   35.1150   27.0580   31.4340 H   0  0  0  0  0  0  0  0  0  0  0  0
   37.0770   28.3610   30.8140 H   0  0  0  0  0  0  0  0  0  0  0  0
   39.4990   27.3540   30.1650 C   0  0  0  0  0  3  0  0  0  0  0  0
   40.4680   27.4890   31.2970 C   0  0  0  0  0  2  0  0  0  0  0  0
   41.7080   28.1800   30.8260 C   0  0  0  0  0  2  0  0  0  0  0  0
   41.6210   28.6300   29.3870 C   0  0  0  0  0  2  0  0  0  0  0  0
   40.3660   29.3820   29.0740 C   0  0  0  0  0  2  0  0  0  0  0  0
   39.1320   28.7250   29.6490 C   0  0  0  0  0  2  0  0  0  0  0  0
  1  2  1  0  0  0  0
  2  3  1  0  0  0  0
  3  4  2  0  0  0  0
  3 15  1  0  0  0  0
  4  8  1  0  0  0  0
  5  9  1  0  0  0  0
  5  4  1  0  0  0  0
  6  5  2  0  0  0  0
  7  6  1  0  0  0  0
  7  2  2  0  0  0  0
 10  6  1  0  0  0  0
 11 17  1  0  0  0  0
 11 12  1  0  0  0  0
 12 18  1  0  0  0  0
 13 12  2  0  0  0  0
 13 19  1  0  0  0  0
 14 13  1  0  0  0  0
 15 16  1  0  0  0  0
 15 14  2  0  0  0  0
 16 11  2  0  0  0  0
 20  7  1  0  0  0  0
 21 22  1  0  0  0  0
 22 23  1  0  0  0  0
 23 20  1  0  0  0  0
 23 24  2  0  0  0  0
 24 28  1  0  0  0  0
 25 24  1  0  0  0  0
 25 29  1  0  0  0  0
 26 25  2  0  0  0  0
 27 22  2  0  0  0  0
 27 26  1  0  0  0  0
 30 26  1  0  0  0  0
 31 27  1  0  0  0  0
 31 32  1  0  0  0  0
 33 32  1  0  0  0  0
 34 33  1  0  0  0  0
 35 34  1  0  0  0  0
 35 36  1  0  0  0  0
 36 31  1  0  0  0  0
M  END
>  <minimizedAffinity>
-5.90143967

$$$$

 OpenBabel03272505143D

 36 39  0  0  0  0  0  0  0  0999 V2000
   37.4590   27.8890   35.2870 Cl  0  0  0  0  0  0  0  0  0  0  0  0
   37.0350   27.8670   33.5970 C   0  0  0  0  0  0  0  0  0  0  0  0
   35.9970   28.6890   33.1980 C   0  0  0  0  0  0  0  0  0  0  0  0
   35.6500   28.6790   31.8520 C   0  0  0  0  0  0  0  0  0  0  0  0
   36.3390   27.8690   30.9760 C   0  0  0  0  0  0  0  0  0  0  0  0
   37.3690   27.0740   31.4550 C   0  0  0  0  0  0  0  0  0  0  0  0
   37.7620   27.0340   32.7670 C   0  0  0  0  0  0  0  0  0  0  0  0
   34.8390   29.3150   31.5170 H   0  0  0  0  0  0  0  0  0  0  0  0
   36.0980   27.8350   29.9230 H   0  0  0  0  0  0  0  0  0  0  0  0
   37.8860   26.4490   30.7300 H   0  0  0  0  0  0  0  0  0  0  0  0
   33.3060   30.0010   35.2620 C   0  0  0  0  0  0  0  0  0  0  0  0
   33.8890   31.0600   35.9720 C   0  0  0  0  0  0  0  0  0  0  0  0
   35.2490   31.3180   35.7230 C   0  0  0  0  0  0  0  0  0  0  0  0
   35.9100   30.5340   34.8190 N   0  0  0  0  0  0  0  0  0  0  0  0
   35.2910   29.5380   34.1740 C   0  0  0  0  0  0  0  0  0  0  0  0
   34.0030   29.2650   34.3860 N   0  0  0  0  0  0  0  0  0  0  0  0
   32.2610   29.8580   35.5020 H   0  0  0  0  0  0  0  0  0  0  0  0
   33.3190   31.6600   36.6870 H   0  0  0  0  0  0  0  0  0  0  0  0
   35.7550   32.1050   36.2260 H   0  0  0  0  0  0  0  0  0  0  0  0
   39.0700   26.0270   33.3860 S   0  0  0  0  0  0  0  0  0  0  0  0
   37.9090   23.7800   31.5130 Cl  0  0  0  0  0  0  0  0  0  0  0  0
   37.9580   23.5770   33.2490 C   0  0  0  0  0  0  0  0  0  0  0  0
   38.4570   24.5280   34.1520 C   0  0  0  0  0  0  0  0  0  0  0  0
   38.4420   24.2550   35.4930 C   0  0  0  0  0  0  0  0  0  0  0  0
   37.9460   23.0690   35.9670 C   0  0  0  0  0  0  0  0  0  0  0  0
   37.4430   22.1030   35.1050 C   0  0  0  0  0  0  0  0  0  0  0  0
   37.4610   22.3800   33.7670 C   0  0  0  0  0  0  0  0  0  0  0  0
   38.8550   25.0660   36.0950 H   0  0  0  0  0  0  0  0  0  0  0  0
   37.9560   22.9020   37.0170 H   0  0  0  0  0  0  0  0  0  0  0  0
   37.0650   21.1860   35.5370 H   0  0  0  0  0  0  0  0  0  0  0  0
   36.9210   21.3460   32.8440 C   0  0  0  0  0  3  0  0  0  0  0  0
   35.7890   20.5770   33.4490 C   0  0  0  0  0  2  0  0  0  0  0  0
   35.2190   19.6310   32.4400 C   0  0  0  0  0  2  0  0  0  0  0  0
   35.9770   19.6370   31.1340 C   0  0  0  0  0  2  0  0  0  0  0  0
   37.4570   19.5020   31.3040 C   0  0  0  0  0  2  0  0  0  0  0  0
   38.0010   20.3880   32.4010 C   0  0  0  0  0  2  0  0  0  0  0  0
  2  1  1  0  0  0  0
  3  2  1  0  0  0  0
  3 15  1  0  0  0  0
  4  3  2  0  0  0  0
  5  6  2  0  0  0  0
  5  4  1  0  0  0  0
  6  7  1  0  0  0  0
  7 20  1  0  0  0  0
  7  2  2  0  0  0  0
  8  4  1  0  0  0  0
  9  5  1  0  0  0  0
 10  6  1  0  0  0  0
 11 17  1  0  0  0  0
 11 12  1  0  0  0  0
 12 18  1  0  0  0  0
 13 12  2  0  0  0  0
 13 19  1  0  0  0  0
 14 13  1  0  0  0  0
 15 16  1  0  0  0  0
 15 14  2  0  0  0  0
 16 11  2  0  0  0  0
 20 23  1  0  0  0  0
 21 22  1  0  0  0  0
 22 27  2  0  0  0  0
 22 23  1  0  0  0  0
 23 24  2  0  0  0  0
 24 25  1  0  0  0  0
 24 28  1  0  0  0  0
 25 29  1  0  0  0  0
 26 30  1  0  0  0  0
 26 25  2  0  0  0  0
 27 26  1  0  0  0  0
 31 32  1  0  0  0  0
 31 27  1  0  0  0  0
 33 32  1  0  0  0  0
 34 35  1  0  0  0  0
 34 33  1  0  0  0  0
 35 36  1  0  0  0  0
 36 31  1  0  0  0  0
M  END
>  <minimizedAffinity>
-5.88451576

$$$$

 OpenBabel03272505143D

 36 39  0  0  0  0  0  0  0  0999 V2000
   35.5690   24.1670   31.7920 Cl  0  0  0  0  0  0  0  0  0  0  0  0
   37.1690   23.9510   31.1380 C   0  0  0  0  0  0  0  0  0  0  0  0
   37.6480   22.6560   31.0620 C   0  0  0  0  0  0  0  0  0  0  0  0
   38.9240   22.4710   30.5420 C   0  0  0  0  0  0  0  0  0  0  0  0
   39.6550   23.5610   30.1260 C   0  0  0  0  0  0  0  0  0  0  0  0
   39.1040   24.8290   30.2350 C   0  0  0  0  0  0  0  0  0  0  0  0
   37.8540   25.0830   30.7370 C   0  0  0  0  0  0  0  0  0  0  0  0
   39.3190   21.4640   30.4740 H   0  0  0  0  0  0  0  0  0  0  0  0
   40.6500   23.4570   29.7170 H   0  0  0  0  0  0  0  0  0  0  0  0
   39.7150   25.6620   29.8950 H   0  0  0  0  0  0  0  0  0  0  0  0
   35.7520   20.4960   33.2910 C   0  0  0  0  0  0  0  0  0  0  0  0
   35.2980   19.4530   32.4720 C   0  0  0  0  0  0  0  0  0  0  0  0
   35.6630   19.5080   31.1150 C   0  0  0  0  0  0  0  0  0  0  0  0
   36.4250   20.5580   30.6820 N   0  0  0  0  0  0  0  0  0  0  0  0
   36.8250   21.5210   31.5200 C   0  0  0  0  0  0  0  0  0  0  0  0
   36.4980   21.5010   32.8130 N   0  0  0  0  0  0  0  0  0  0  0  0
   35.4360   20.3920   34.3210 H   0  0  0  0  0  0  0  0  0  0  0  0
   34.6890   18.6340   32.8640 H   0  0  0  0  0  0  0  0  0  0  0  0
   35.3530   18.7520   30.4370 H   0  0  0  0  0  0  0  0  0  0  0  0
   37.1450   26.6900   30.8800 S   0  0  0  0  0  0  0  0  0  0  0  0
   35.4340   29.2510   31.5310 Cl  0  0  0  0  0  0  0  0  0  0  0  0
   36.2890   28.3880   32.7890 C   0  0  0  0  0  0  0  0  0  0  0  0
   37.0710   27.2420   32.5820 C   0  0  0  0  0  0  0  0  0  0  0  0
   37.6950   26.6520   33.6490 C   0  0  0  0  0  0  0  0  0  0  0  0
   37.5670   27.1640   34.9140 C   0  0  0  0  0  0  0  0  0  0  0  0
   36.8010   28.2970   35.1580 C   0  0  0  0  0  0  0  0  0  0  0  0
   36.1810   28.8820   34.0890 C   0  0  0  0  0  0  0  0  0  0  0  0
   38.2720   25.7700   33.3670 H   0  0  0  0  0  0  0  0  0  0  0  0
   38.0700   26.6710   35.7100 H   0  0  0  0  0  0  0  0  0  0  0  0
   36.7370   28.6550   36.1760 H   0  0  0  0  0  0  0  0  0  0  0  0
   35.3610   30.0950   34.3510 C   0  0  0  0  0  3  0  0  0  0  0  0
   35.9430   30.9540   35.4290 C   0  0  0  0  0  2  0  0  0  0  0  0
   35.1400   32.2080   35.5710 C   0  0  0  0  0  2  0  0  0  0  0  0
   33.9280   32.2350   34.6710 C   0  0  0  0  0  2  0  0  0  0  0  0
   33.1030   30.9900   34.7450 C   0  0  0  0  0  2  0  0  0  0  0  0
   33.9400   29.7320   34.7080 C   0  0  0  0  0  2  0  0  0  0  0  0
  2  1  1  0  0  0  0
  3  2  1  0  0  0  0
  3 15  1  0  0  0  0
  4  3  2  0  0  0  0
  5  6  2  0  0  0  0
  5  4  1  0  0  0  0
  6  7  1  0  0  0  0
  7 20  1  0  0  0  0
  7  2  2  0  0  0  0
  8  4  1  0  0  0  0
  9  5  1  0  0  0  0
 10  6  1  0  0  0  0
 11 17  1  0  0  0  0
 12 18  1  0  0  0  0
 12 11  2  0  0  0  0
 13 12  1  0  0  0  0
 14 13  2  0  0  0  0
 14 15  1  0  0  0  0
 15 16  2  0  0  0  0
 16 11  1  0  0  0  0
 19 13  1  0  0  0  0
 20 23  1  0  0  0  0
 21 22  1  0  0  0  0
 22 27  1  0  0  0  0
 23 22  2  0  0  0  0
 23 24  1  0  0  0  0
 24 25  2  0  0  0  0
 25 26  1  0  0  0  0
 25 29  1  0  0  0  0
 26 30  1  0  0  0  0
 27 31  1  0  0  0  0
 27 26  2  0  0  0  0
 28 24  1  0  0  0  0
 31 36  1  0  0  0  0
 31 32  1  0  0  0  0
 32 33  1  0  0  0  0
 34 35  1  0  0  0  0
 34 33  1  0  0  0  0
 36 35  1  0  0  0  0
M  END
>  <minimizedAffinity>
-5.80750513

$$$$
