
 OpenBabel03272501223D

 37 40  0  0  0  0  0  0  0  0999 V2000
   38.3340   32.2310   47.4430 C   0  0  0  0  0  0  0  0  0  0  0  0
   38.1630   32.1170   48.8140 C   0  0  0  0  0  0  0  0  0  0  0  0
   38.8520   33.0400   49.5730 C   0  0  0  0  0  0  0  0  0  0  0  0
   39.6630   34.0110   48.9680 C   0  0  0  0  0  0  0  0  0  0  0  0
   39.7850   34.0630   47.5930 C   0  0  0  0  0  0  0  0  0  0  0  0
   39.1100   33.1580   46.8260 C   0  0  0  0  0  0  0  0  0  0  0  0
   38.8000   33.0550   50.6600 H   0  0  0  0  0  0  0  0  0  0  0  0
   40.2130   34.7440   49.5440 H   0  0  0  0  0  0  0  0  0  0  0  0
   40.4110   34.8120   47.1310 H   0  0  0  0  0  0  0  0  0  0  0  0
   35.9450   31.2090   49.3630 C   0  0  0  0  0  0  0  0  0  0  0  0
   37.3340   31.1220   49.4130 C   0  0  0  0  0  0  0  0  0  0  0  0
   37.8660   30.0050   50.0830 C   0  0  0  0  0  0  0  0  0  0  0  0
   37.0070   29.0990   50.6290 N   0  0  0  0  0  0  0  0  0  0  0  0
   35.6660   29.2440   50.5440 C   0  0  0  0  0  0  0  0  0  0  0  0
   35.1250   30.3040   49.9070 N   0  0  0  0  0  0  0  0  0  0  0  0
   35.5170   32.0670   48.8480 H   0  0  0  0  0  0  0  0  0  0  0  0
   38.9280   29.9190   50.1330 H   0  0  0  0  0  0  0  0  0  0  0  0
   35.0070   28.5060   50.9880 H   0  0  0  0  0  0  0  0  0  0  0  0
   37.6680   31.3300   46.5890 O   0  0  0  0  0  0  0  0  0  0  0  0
   38.0400   30.4280   46.3430 H   0  0  0  0  0  0  0  0  0  0  0  0
   39.2410   33.2200   45.4350 O   0  0  0  0  0  0  0  0  0  0  0  0
   37.0080   32.4960   43.5350 Cl  0  0  0  0  0  0  0  0  0  0  0  0
   38.5350   31.6410   43.6600 C   0  0  0  0  0  0  0  0  0  0  0  0
   39.4260   32.1410   44.6020 C   0  0  0  0  0  0  0  0  0  0  0  0
   40.6390   31.5000   44.7320 C   0  0  0  0  0  0  0  0  0  0  0  0
   40.9950   30.4030   43.9800 C   0  0  0  0  0  0  0  0  0  0  0  0
   40.0910   29.9150   43.0420 C   0  0  0  0  0  0  0  0  0  0  0  0
   38.8780   30.5420   42.8980 C   0  0  0  0  0  0  0  0  0  0  0  0
   41.4020   31.8100   45.4360 H   0  0  0  0  0  0  0  0  0  0  0  0
   41.9450   29.8920   44.0740 H   0  0  0  0  0  0  0  0  0  0  0  0
   40.3190   29.0670   42.4330 H   0  0  0  0  0  0  0  0  0  0  0  0
   37.8320   30.1230   41.9390 C   0  0  0  0  0  0  0  0  0  0  0  0
   38.4140   29.5970   40.6420 C   0  0  0  0  0  0  0  0  0  0  0  0
   37.2090   29.5540   39.6910 C   0  0  0  0  0  0  0  0  0  0  0  0
   36.3960   28.3580   40.1700 C   0  0  0  0  0  0  0  0  0  0  0  0
   35.9160   28.5980   41.5680 C   0  0  0  0  0  0  0  0  0  0  0  0
   37.0220   28.9530   42.5090 C   0  0  0  0  0  0  0  0  0  0  0  0
  1  2  1  0  0  0  0
  2 11  1  0  0  0  0
  2  3  2  0  0  0  0
  3  7  1  0  0  0  0
  4  8  1  0  0  0  0
  4  3  1  0  0  0  0
  5  4  2  0  0  0  0
  6  1  2  0  0  0  0
  6  5  1  0  0  0  0
  9  5  1  0  0  0  0
 10 11  2  0  0  0  0
 10 15  1  0  0  0  0
 11 12  1  0  0  0  0
 12 17  1  0  0  0  0
 12 13  2  0  0  0  0
 14 13  1  0  0  0  0
 14 18  1  0  0  0  0
 15 14  2  0  0  0  0
 16 10  1  0  0  0  0
 19  1  1  0  0  0  0
 20 19  1  0  0  0  0
 21  6  1  0  0  0  0
 22 23  1  0  0  0  0
 23 24  1  0  0  0  0
 24 25  2  0  0  0  0
 24 21  1  0  0  0  0
 25 29  1  0  0  0  0
 26 30  1  0  0  0  0
 26 25  1  0  0  0  0
 27 26  2  0  0  0  0
 28 27  1  0  0  0  0
 28 23  2  0  0  0  0
 31 27  1  0  0  0  0
 32 37  1  0  0  0  0
 32 28  1  0  0  0  0
 33 32  1  0  0  0  0
 34 35  1  0  0  0  0
 34 33  1  0  0  0  0
 35 36  1  0  0  0  0
 36 37  1  0  0  0  0
M  END
>  <minimizedAffinity>
-5.48317051

>  <minimizedRMSD>
0.862393022

$$$$
