
 OpenBabel03272505013D

 25 27  0  0  0  0  0  0  0  0999 V2000
   40.6160   24.2850   34.3230 Cl  0  0  0  0  0  0  0  0  0  0  0  0
   39.7600   24.0000   35.8230 C   0  0  0  0  0  0  0  0  0  0  0  0
   38.5810   24.6520   36.0340 C   0  0  0  0  0  0  0  0  0  0  0  0
   37.9450   24.3810   37.2490 C   0  0  0  0  0  0  0  0  0  0  0  0
   38.5210   23.4920   38.1560 C   0  0  0  0  0  0  0  0  0  0  0  0
   39.7080   22.8640   37.8910 C   0  0  0  0  0  0  0  0  0  0  0  0
   40.3470   23.1200   36.7000 C   0  0  0  0  0  0  0  0  0  0  0  0
   37.0090   24.8890   37.4350 H   0  0  0  0  0  0  0  0  0  0  0  0
   37.9470   23.3540   39.0650 H   0  0  0  0  0  0  0  0  0  0  0  0
   40.0930   22.1890   38.6420 H   0  0  0  0  0  0  0  0  0  0  0  0
   37.5340   25.1800   33.8320 C   0  0  0  0  0  0  0  0  0  0  0  0
   37.9680   25.5850   35.0940 C   0  0  0  0  0  0  0  0  0  0  0  0
   37.7970   26.9270   35.4340 C   0  0  0  0  0  0  0  0  0  0  0  0
   37.2250   27.7650   34.5350 N   0  0  0  0  0  0  0  0  0  0  0  0
   36.8160   27.3350   33.3200 C   0  0  0  0  0  0  0  0  0  0  0  0
   36.9730   26.0340   32.9680 N   0  0  0  0  0  0  0  0  0  0  0  0
   37.6580   24.1350   33.5460 H   0  0  0  0  0  0  0  0  0  0  0  0
   38.1140   27.3140   36.4050 H   0  0  0  0  0  0  0  0  0  0  0  0
   36.3750   28.0830   32.6820 H   0  0  0  0  0  0  0  0  0  0  0  0
   41.6340   22.4560   36.3820 C   0  0  0  0  0  3  0  0  0  0  0  0
   41.8560   21.2330   37.2280 C   0  0  0  0  0  2  0  0  0  0  0  0
   43.0290   20.4760   36.6610 C   0  0  0  0  0  2  0  0  0  0  0  0
   43.8960   21.2770   35.7470 C   0  0  0  0  0  2  0  0  0  0  0  0
   44.1140   22.7060   36.1880 C   0  0  0  0  0  2  0  0  0  0  0  0
   42.8190   23.3780   36.5800 C   0  0  0  0  0  2  0  0  0  0  0  0
  1  2  1  0  0  0  0
  2  3  2  0  0  0  0
  2  7  1  0  0  0  0
  3  4  1  0  0  0  0
  4  8  1  0  0  0  0
  4  5  2  0  0  0  0
  5  9  1  0  0  0  0
  6  5  1  0  0  0  0
  6 10  1  0  0  0  0
  7  6  2  0  0  0  0
 11 12  1  0  0  0  0
 12 13  2  0  0  0  0
 12  3  1  0  0  0  0
 13 18  1  0  0  0  0
 14 13  1  0  0  0  0
 15 14  2  0  0  0  0
 16 15  1  0  0  0  0
 16 11  2  0  0  0  0
 17 11  1  0  0  0  0
 19 15  1  0  0  0  0
 20 25  1  0  0  0  0
 20  7  1  0  0  0  0
 20 21  1  0  0  0  0
 22 21  1  0  0  0  0
 23 24  1  0  0  0  0
 23 22  1  0  0  0  0
 24 25  1  0  0  0  0
M  END
>  <minimizedAffinity>
-5.52061462

$$$$

 OpenBabel03272505013D

 25 27  0  0  0  0  0  0  0  0999 V2000
   38.1470   22.9820   33.4360 Cl  0  0  0  0  0  0  0  0  0  0  0  0
   37.0620   23.9690   32.4820 C   0  0  0  0  0  0  0  0  0  0  0  0
   36.1220   23.3480   31.7130 C   0  0  0  0  0  0  0  0  0  0  0  0
   35.2860   24.1900   30.9760 C   0  0  0  0  0  0  0  0  0  0  0  0
   35.4420   25.5740   31.0550 C   0  0  0  0  0  0  0  0  0  0  0  0
   36.4040   26.1440   31.8450 C   0  0  0  0  0  0  0  0  0  0  0  0
   37.2360   25.3290   32.5770 C   0  0  0  0  0  0  0  0  0  0  0  0
   34.5340   23.7160   30.3610 H   0  0  0  0  0  0  0  0  0  0  0  0
   34.7430   26.1330   30.4450 H   0  0  0  0  0  0  0  0  0  0  0  0
   36.4650   27.2230   31.8550 H   0  0  0  0  0  0  0  0  0  0  0  0
   36.7270   21.1190   30.7690 C   0  0  0  0  0  0  0  0  0  0  0  0
   35.9490   21.9020   31.6220 C   0  0  0  0  0  0  0  0  0  0  0  0
   34.9860   21.2510   32.3950 C   0  0  0  0  0  0  0  0  0  0  0  0
   34.8540   19.9060   32.2830 N   0  0  0  0  0  0  0  0  0  0  0  0
   35.6270   19.1810   31.4440 C   0  0  0  0  0  0  0  0  0  0  0  0
   36.5690   19.7930   30.6830 N   0  0  0  0  0  0  0  0  0  0  0  0
   37.4850   21.6080   30.1560 H   0  0  0  0  0  0  0  0  0  0  0  0
   34.3420   21.8000   33.0840 H   0  0  0  0  0  0  0  0  0  0  0  0
   35.4390   18.1200   31.4320 H   0  0  0  0  0  0  0  0  0  0  0  0
   38.2870   25.9150   33.4420 C   0  0  0  0  0  3  0  0  0  0  0  0
   37.7130   26.8670   34.4540 C   0  0  0  0  0  2  0  0  0  0  0  0
   38.7910   27.1970   35.4540 C   0  0  0  0  0  2  0  0  0  0  0  0
   40.1760   26.8850   34.9930 C   0  0  0  0  0  2  0  0  0  0  0  0
   40.4320   27.1950   33.5360 C   0  0  0  0  0  2  0  0  0  0  0  0
   39.3350   26.6620   32.6450 C   0  0  0  0  0  2  0  0  0  0  0  0
  2  7  1  0  0  0  0
  2  1  1  0  0  0  0
  3  2  2  0  0  0  0
  4  5  2  0  0  0  0
  4  3  1  0  0  0  0
  5  6  1  0  0  0  0
  6 10  1  0  0  0  0
  6  7  2  0  0  0  0
  7 20  1  0  0  0  0
  8  4  1  0  0  0  0
  9  5  1  0  0  0  0
 11 12  1  0  0  0  0
 12  3  1  0  0  0  0
 12 13  2  0  0  0  0
 13 18  1  0  0  0  0
 14 13  1  0  0  0  0
 15 14  2  0  0  0  0
 16 11  2  0  0  0  0
 16 15  1  0  0  0  0
 17 11  1  0  0  0  0
 19 15  1  0  0  0  0
 20 21  1  0  0  0  0
 21 22  1  0  0  0  0
 23 22  1  0  0  0  0
 24 23  1  0  0  0  0
 25 20  1  0  0  0  0
 25 24  1  0  0  0  0
M  END
>  <minimizedAffinity>
-5.51900625

$$$$

 OpenBabel03272505013D

 25 27  0  0  0  0  0  0  0  0999 V2000
   38.4900   22.1630   33.5740 Cl  0  0  0  0  0  0  0  0  0  0  0  0
   37.3210   23.0810   32.6500 C   0  0  0  0  0  0  0  0  0  0  0  0
   37.3820   24.4430   32.6910 C   0  0  0  0  0  0  0  0  0  0  0  0
   36.4230   25.1180   31.9310 C   0  0  0  0  0  0  0  0  0  0  0  0
   35.4830   24.3980   31.1930 C   0  0  0  0  0  0  0  0  0  0  0  0
   35.4690   23.0300   31.1890 C   0  0  0  0  0  0  0  0  0  0  0  0
   36.4060   22.3500   31.9320 C   0  0  0  0  0  0  0  0  0  0  0  0
   36.4550   26.1980   31.9510 H   0  0  0  0  0  0  0  0  0  0  0  0
   34.7870   25.0180   30.6410 H   0  0  0  0  0  0  0  0  0  0  0  0
   34.7100   22.5420   30.5930 H   0  0  0  0  0  0  0  0  0  0  0  0
   39.5890   25.5850   32.9190 C   0  0  0  0  0  0  0  0  0  0  0  0
   38.3600   25.2070   33.4590 C   0  0  0  0  0  0  0  0  0  0  0  0
   38.0900   25.5860   34.7750 C   0  0  0  0  0  0  0  0  0  0  0  0
   39.0230   26.2960   35.4580 N   0  0  0  0  0  0  0  0  0  0  0  0
   40.2040   26.6430   34.8990 C   0  0  0  0  0  0  0  0  0  0  0  0
   40.4870   26.2850   33.6210 N   0  0  0  0  0  0  0  0  0  0  0  0
   39.8200   25.2980   31.8920 H   0  0  0  0  0  0  0  0  0  0  0  0
   37.1490   25.3250   35.2620 H   0  0  0  0  0  0  0  0  0  0  0  0
   40.8730   27.2060   35.5290 H   0  0  0  0  0  0  0  0  0  0  0  0
   36.4180   20.8680   31.9470 C   0  0  0  0  0  3  0  0  0  0  0  0
   36.2660   20.2920   30.5660 C   0  0  0  0  0  2  0  0  0  0  0  0
   36.5630   18.8160   30.6360 C   0  0  0  0  0  2  0  0  0  0  0  0
   36.5040   18.2410   32.0120 C   0  0  0  0  0  2  0  0  0  0  0  0
   35.3840   18.7870   32.8690 C   0  0  0  0  0  2  0  0  0  0  0  0
   35.3150   20.2940   32.8120 C   0  0  0  0  0  2  0  0  0  0  0  0
  2  3  1  0  0  0  0
  2  1  1  0  0  0  0
  3 12  1  0  0  0  0
  4  8  1  0  0  0  0
  4  3  2  0  0  0  0
  5  4  1  0  0  0  0
  6  5  2  0  0  0  0
  6  7  1  0  0  0  0
  7 20  1  0  0  0  0
  7  2  2  0  0  0  0
  9  5  1  0  0  0  0
 10  6  1  0  0  0  0
 11 12  2  0  0  0  0
 11 16  1  0  0  0  0
 12 13  1  0  0  0  0
 13 18  1  0  0  0  0
 13 14  2  0  0  0  0
 15 14  1  0  0  0  0
 15 19  1  0  0  0  0
 16 15  2  0  0  0  0
 17 11  1  0  0  0  0
 20 25  1  0  0  0  0
 21 22  1  0  0  0  0
 21 20  1  0  0  0  0
 22 23  1  0  0  0  0
 23 24  1  0  0  0  0
 25 24  1  0  0  0  0
M  END
>  <minimizedAffinity>
-5.03511333

$$$$

 OpenBabel03272505013D

 25 27  0  0  0  0  0  0  0  0999 V2000
   35.2020   24.7210   31.3110 Cl  0  0  0  0  0  0  0  0  0  0  0  0
   36.7650   24.7190   32.0980 C   0  0  0  0  0  0  0  0  0  0  0  0
   37.4270   25.9040   32.2360 C   0  0  0  0  0  0  0  0  0  0  0  0
   38.6680   25.8360   32.8740 C   0  0  0  0  0  0  0  0  0  0  0  0
   39.1570   24.6100   33.3230 C   0  0  0  0  0  0  0  0  0  0  0  0
   38.4490   23.4500   33.1580 C   0  0  0  0  0  0  0  0  0  0  0  0
   37.2250   23.4990   32.5320 C   0  0  0  0  0  0  0  0  0  0  0  0
   39.2080   26.7650   32.9920 H   0  0  0  0  0  0  0  0  0  0  0  0
   40.1270   24.6700   33.8030 H   0  0  0  0  0  0  0  0  0  0  0  0
   38.8920   22.5380   33.5320 H   0  0  0  0  0  0  0  0  0  0  0  0
   37.1870   27.6630   30.4830 C   0  0  0  0  0  0  0  0  0  0  0  0
   36.9260   27.1930   31.7700 C   0  0  0  0  0  0  0  0  0  0  0  0
   36.1620   28.0040   32.6100 C   0  0  0  0  0  0  0  0  0  0  0  0
   35.7140   29.1960   32.1420 N   0  0  0  0  0  0  0  0  0  0  0  0
   35.9880   29.6170   30.8870 C   0  0  0  0  0  0  0  0  0  0  0  0
   36.7300   28.8450   30.0540 N   0  0  0  0  0  0  0  0  0  0  0  0
   37.7840   27.0440   29.8110 H   0  0  0  0  0  0  0  0  0  0  0  0
   35.9180   27.7000   33.6290 H   0  0  0  0  0  0  0  0  0  0  0  0
   35.5850   30.5800   30.6170 H   0  0  0  0  0  0  0  0  0  0  0  0
   36.4330   22.2610   32.3380 C   0  0  0  0  0  3  0  0  0  0  0  0
   36.5480   21.3330   33.5150 C   0  0  0  0  0  2  0  0  0  0  0  0
   35.5130   20.2480   33.3620 C   0  0  0  0  0  2  0  0  0  0  0  0
   34.9670   20.1080   31.9800 C   0  0  0  0  0  2  0  0  0  0  0  0
   35.9950   20.2760   30.8840 C   0  0  0  0  0  2  0  0  0  0  0  0
   36.8560   21.4970   31.1020 C   0  0  0  0  0  2  0  0  0  0  0  0
  1  2  1  0  0  0  0
  2  3  2  0  0  0  0
  2  7  1  0  0  0  0
  3  4  1  0  0  0  0
  4  8  1  0  0  0  0
  4  5  2  0  0  0  0
  5  9  1  0  0  0  0
  6  5  1  0  0  0  0
  6 10  1  0  0  0  0
  7  6  2  0  0  0  0
 11 12  1  0  0  0  0
 12  3  1  0  0  0  0
 12 13  2  0  0  0  0
 13 18  1  0  0  0  0
 14 13  1  0  0  0  0
 15 14  2  0  0  0  0
 16 11  2  0  0  0  0
 16 15  1  0  0  0  0
 17 11  1  0  0  0  0
 19 15  1  0  0  0  0
 20  7  1  0  0  0  0
 20 21  1  0  0  0  0
 22 21  1  0  0  0  0
 23 22  1  0  0  0  0
 24 25  1  0  0  0  0
 24 23  1  0  0  0  0
 25 20  1  0  0  0  0
M  END
>  <minimizedAffinity>
-4.97611809

$$$$

 OpenBabel03272505013D

 25 27  0  0  0  0  0  0  0  0999 V2000
   35.5060   31.8660   32.0520 Cl  0  0  0  0  0  0  0  0  0  0  0  0
   35.9900   30.2650   32.5660 C   0  0  0  0  0  0  0  0  0  0  0  0
   36.6810   29.4800   31.6890 C   0  0  0  0  0  0  0  0  0  0  0  0
   37.0400   28.2140   32.1590 C   0  0  0  0  0  0  0  0  0  0  0  0
   36.6900   27.8230   33.4510 C   0  0  0  0  0  0  0  0  0  0  0  0
   35.9950   28.6530   34.2890 C   0  0  0  0  0  0  0  0  0  0  0  0
   35.6330   29.9030   33.8420 C   0  0  0  0  0  0  0  0  0  0  0  0
   37.5880   27.5780   31.4790 H   0  0  0  0  0  0  0  0  0  0  0  0
   37.0160   26.8240   33.7140 H   0  0  0  0  0  0  0  0  0  0  0  0
   35.7590   28.2800   35.2750 H   0  0  0  0  0  0  0  0  0  0  0  0
   37.0860   31.2150   29.9430 C   0  0  0  0  0  0  0  0  0  0  0  0
   37.0530   29.8780   30.3350 C   0  0  0  0  0  0  0  0  0  0  0  0
   37.3910   28.9180   29.3810 C   0  0  0  0  0  0  0  0  0  0  0  0
   37.7310   29.3240   28.1320 N   0  0  0  0  0  0  0  0  0  0  0  0
   37.7510   30.6320   27.7890 C   0  0  0  0  0  0  0  0  0  0  0  0
   37.4260   31.5820   28.7010 N   0  0  0  0  0  0  0  0  0  0  0  0
   36.8250   31.9820   30.6740 H   0  0  0  0  0  0  0  0  0  0  0  0
   37.3870   27.8520   29.6170 H   0  0  0  0  0  0  0  0  0  0  0  0
   38.0350   30.8450   26.7720 H   0  0  0  0  0  0  0  0  0  0  0  0
   34.8810   30.8250   34.7250 C   0  0  0  0  0  3  0  0  0  0  0  0
   35.6990   31.2560   35.9110 C   0  0  0  0  0  2  0  0  0  0  0  0
   34.9760   32.3880   36.5950 C   0  0  0  0  0  2  0  0  0  0  0  0
   33.5320   32.5050   36.2320 C   0  0  0  0  0  2  0  0  0  0  0  0
   32.8160   31.1820   36.0880 C   0  0  0  0  0  2  0  0  0  0  0  0
   33.6010   30.2060   35.2450 C   0  0  0  0  0  2  0  0  0  0  0  0
  1  2  1  0  0  0  0
  2  7  1  0  0  0  0
  3  4  1  0  0  0  0
  3  2  2  0  0  0  0
  4  5  2  0  0  0  0
  5  9  1  0  0  0  0
  5  6  1  0  0  0  0
  6 10  1  0  0  0  0
  7  6  2  0  0  0  0
  7 20  1  0  0  0  0
  8  4  1  0  0  0  0
 11 12  1  0  0  0  0
 11 17  1  0  0  0  0
 12  3  1  0  0  0  0
 13 18  1  0  0  0  0
 13 12  2  0  0  0  0
 14 13  1  0  0  0  0
 15 14  2  0  0  0  0
 15 16  1  0  0  0  0
 16 11  2  0  0  0  0
 19 15  1  0  0  0  0
 20 25  1  0  0  0  0
 20 21  1  0  0  0  0
 21 22  1  0  0  0  0
 23 22  1  0  0  0  0
 24 23  1  0  0  0  0
 25 24  1  0  0  0  0
M  END
>  <minimizedAffinity>
-4.96663332

$$$$

 OpenBabel03272505013D

 25 27  0  0  0  0  0  0  0  0999 V2000
   36.2560   28.1540   34.4880 Cl  0  0  0  0  0  0  0  0  0  0  0  0
   36.1160   29.0690   33.0030 C   0  0  0  0  0  0  0  0  0  0  0  0
   36.4010   28.4460   31.8240 C   0  0  0  0  0  0  0  0  0  0  0  0
   36.2700   29.2300   30.6750 C   0  0  0  0  0  0  0  0  0  0  0  0
   35.8690   30.5620   30.7790 C   0  0  0  0  0  0  0  0  0  0  0  0
   35.5950   31.1360   31.9910 C   0  0  0  0  0  0  0  0  0  0  0  0
   35.7200   30.3790   33.1320 C   0  0  0  0  0  0  0  0  0  0  0  0
   36.4920   28.7540   29.7300 H   0  0  0  0  0  0  0  0  0  0  0  0
   35.7990   31.0780   29.8290 H   0  0  0  0  0  0  0  0  0  0  0  0
   35.2900   32.1730   31.9930 H   0  0  0  0  0  0  0  0  0  0  0  0
   35.9120   26.0290   31.4480 C   0  0  0  0  0  0  0  0  0  0  0  0
   36.8220   27.0550   31.7020 C   0  0  0  0  0  0  0  0  0  0  0  0
   38.1660   26.7040   31.8380 C   0  0  0  0  0  0  0  0  0  0  0  0
   38.5200   25.4000   31.7190 N   0  0  0  0  0  0  0  0  0  0  0  0
   37.6080   24.4340   31.4720 C   0  0  0  0  0  0  0  0  0  0  0  0
   36.2950   24.7520   31.3360 N   0  0  0  0  0  0  0  0  0  0  0  0
   34.8560   26.2810   31.3380 H   0  0  0  0  0  0  0  0  0  0  0  0
   38.9340   27.4540   32.0380 H   0  0  0  0  0  0  0  0  0  0  0  0
   37.9960   23.4310   31.3960 H   0  0  0  0  0  0  0  0  0  0  0  0
   35.4290   30.9710   34.4600 C   0  0  0  0  0  3  0  0  0  0  0  0
   33.9530   31.0330   34.7340 C   0  0  0  0  0  2  0  0  0  0  0  0
   33.7580   31.3820   36.1870 C   0  0  0  0  0  2  0  0  0  0  0  0
   34.9610   31.9710   36.8460 C   0  0  0  0  0  2  0  0  0  0  0  0
   35.7390   32.9330   35.9770 C   0  0  0  0  0  2  0  0  0  0  0  0
   35.9860   32.3720   34.5970 C   0  0  0  0  0  2  0  0  0  0  0  0
  2  7  1  0  0  0  0
  2  1  1  0  0  0  0
  3  2  2  0  0  0  0
  4  5  2  0  0  0  0
  4  3  1  0  0  0  0
  5  6  1  0  0  0  0
  6 10  1  0  0  0  0
  6  7  2  0  0  0  0
  7 20  1  0  0  0  0
  8  4  1  0  0  0  0
  9  5  1  0  0  0  0
 11 12  1  0  0  0  0
 12  3  1  0  0  0  0
 12 13  2  0  0  0  0
 13 18  1  0  0  0  0
 14 13  1  0  0  0  0
 15 14  2  0  0  0  0
 16 11  2  0  0  0  0
 16 15  1  0  0  0  0
 17 11  1  0  0  0  0
 19 15  1  0  0  0  0
 20 25  1  0  0  0  0
 20 21  1  0  0  0  0
 21 22  1  0  0  0  0
 22 23  1  0  0  0  0
 24 23  1  0  0  0  0
 25 24  1  0  0  0  0
M  END
>  <minimizedAffinity>
-4.93568087

$$$$

 OpenBabel03272505013D

 25 27  0  0  0  0  0  0  0  0999 V2000
   38.4750   26.2750   34.9540 Cl  0  0  0  0  0  0  0  0  0  0  0  0
   38.0310   24.8790   33.9960 C   0  0  0  0  0  0  0  0  0  0  0  0
   37.6030   25.0760   32.7160 C   0  0  0  0  0  0  0  0  0  0  0  0
   37.2650   23.9230   32.0030 C   0  0  0  0  0  0  0  0  0  0  0  0
   37.3760   22.6700   32.6070 C   0  0  0  0  0  0  0  0  0  0  0  0
   37.8130   22.5310   33.8970 C   0  0  0  0  0  0  0  0  0  0  0  0
   38.1490   23.6570   34.6130 C   0  0  0  0  0  0  0  0  0  0  0  0
   36.9230   24.0590   30.9870 H   0  0  0  0  0  0  0  0  0  0  0  0
   37.0890   21.8440   31.9670 H   0  0  0  0  0  0  0  0  0  0  0  0
   37.8720   21.5290   34.2970 H   0  0  0  0  0  0  0  0  0  0  0  0
   38.5480   26.9690   31.3930 C   0  0  0  0  0  0  0  0  0  0  0  0
   37.4820   26.3810   32.0730 C   0  0  0  0  0  0  0  0  0  0  0  0
   36.2800   27.0880   32.1220 C   0  0  0  0  0  0  0  0  0  0  0  0
   36.2050   28.2980   31.5130 N   0  0  0  0  0  0  0  0  0  0  0  0
   37.2610   28.8350   30.8630 C   0  0  0  0  0  0  0  0  0  0  0  0
   38.4400   28.1650   30.8030 N   0  0  0  0  0  0  0  0  0  0  0  0
   39.4970   26.4330   31.3440 H   0  0  0  0  0  0  0  0  0  0  0  0
   35.4040   26.6890   32.6370 H   0  0  0  0  0  0  0  0  0  0  0  0
   37.0940   29.8010   30.4150 H   0  0  0  0  0  0  0  0  0  0  0  0
   38.6260   23.5400   36.0110 C   0  0  0  0  0  3  0  0  0  0  0  0
   39.5450   22.3650   36.1930 C   0  0  0  0  0  2  0  0  0  0  0  0
   40.1930   22.4780   37.5490 C   0  0  0  0  0  2  0  0  0  0  0  0
   39.4950   23.4050   38.4890 C   0  0  0  0  0  2  0  0  0  0  0  0
   37.9870   23.3430   38.4200 C   0  0  0  0  0  2  0  0  0  0  0  0
   37.4860   23.3930   36.9960 C   0  0  0  0  0  2  0  0  0  0  0  0
  2  7  1  0  0  0  0
  2  1  1  0  0  0  0
  3  2  2  0  0  0  0
  4  5  2  0  0  0  0
  4  3  1  0  0  0  0
  5  6  1  0  0  0  0
  6 10  1  0  0  0  0
  6  7  2  0  0  0  0
  7 20  1  0  0  0  0
  8  4  1  0  0  0  0
  9  5  1  0  0  0  0
 11 12  1  0  0  0  0
 12 13  2  0  0  0  0
 12  3  1  0  0  0  0
 13 18  1  0  0  0  0
 14 13  1  0  0  0  0
 15 14  2  0  0  0  0
 16 15  1  0  0  0  0
 16 11  2  0  0  0  0
 17 11  1  0  0  0  0
 19 15  1  0  0  0  0
 20 21  1  0  0  0  0
 20 25  1  0  0  0  0
 21 22  1  0  0  0  0
 22 23  1  0  0  0  0
 24 23  1  0  0  0  0
 25 24  1  0  0  0  0
M  END
>  <minimizedAffinity>
-4.81375933

$$$$

 OpenBabel03272505013D

 25 27  0  0  0  0  0  0  0  0999 V2000
   37.8600   27.8000   35.4660 Cl  0  0  0  0  0  0  0  0  0  0  0  0
   37.2680   27.0460   34.0020 C   0  0  0  0  0  0  0  0  0  0  0  0
   37.6340   25.7590   33.7370 C   0  0  0  0  0  0  0  0  0  0  0  0
   37.1270   25.2130   32.5550 C   0  0  0  0  0  0  0  0  0  0  0  0
   36.3030   25.9780   31.7290 C   0  0  0  0  0  0  0  0  0  0  0  0
   35.9670   27.2670   32.0450 C   0  0  0  0  0  0  0  0  0  0  0  0
   36.4580   27.8190   33.2060 C   0  0  0  0  0  0  0  0  0  0  0  0
   37.4070   24.1940   32.3280 H   0  0  0  0  0  0  0  0  0  0  0  0
   35.9660   25.4600   30.8390 H   0  0  0  0  0  0  0  0  0  0  0  0
   35.3250   27.7970   31.3570 H   0  0  0  0  0  0  0  0  0  0  0  0
   37.9880   24.2020   35.6540 C   0  0  0  0  0  0  0  0  0  0  0  0
   38.4960   24.9490   34.5920 C   0  0  0  0  0  0  0  0  0  0  0  0
   39.8730   24.8990   34.3690 C   0  0  0  0  0  0  0  0  0  0  0  0
   40.6430   24.1360   35.1840 N   0  0  0  0  0  0  0  0  0  0  0  0
   40.1120   23.4250   36.2040 C   0  0  0  0  0  0  0  0  0  0  0  0
   38.7770   23.4590   36.4400 N   0  0  0  0  0  0  0  0  0  0  0  0
   36.9140   24.2270   35.8460 H   0  0  0  0  0  0  0  0  0  0  0  0
   40.3400   25.4590   33.5560 H   0  0  0  0  0  0  0  0  0  0  0  0
   40.8130   22.8520   36.7900 H   0  0  0  0  0  0  0  0  0  0  0  0
   36.1120   29.2120   33.5760 C   0  0  0  0  0  3  0  0  0  0  0  0
   34.7970   29.2890   34.3000 C   0  0  0  0  0  2  0  0  0  0  0  0
   34.6570   30.6740   34.8760 C   0  0  0  0  0  2  0  0  0  0  0  0
   35.5670   31.6890   34.2670 C   0  0  0  0  0  2  0  0  0  0  0  0
   35.7440   31.5500   32.7730 C   0  0  0  0  0  2  0  0  0  0  0  0
   36.0310   30.1230   32.3700 C   0  0  0  0  0  2  0  0  0  0  0  0
  2  1  1  0  0  0  0
  3  2  1  0  0  0  0
  3 12  1  0  0  0  0
  4  3  2  0  0  0  0
  5  6  2  0  0  0  0
  5  4  1  0  0  0  0
  6  7  1  0  0  0  0
  7 20  1  0  0  0  0
  7  2  2  0  0  0  0
  8  4  1  0  0  0  0
  9  5  1  0  0  0  0
 10  6  1  0  0  0  0
 11 17  1  0  0  0  0
 11 16  1  0  0  0  0
 12 11  2  0  0  0  0
 13 12  1  0  0  0  0
 13 14  2  0  0  0  0
 14 15  1  0  0  0  0
 15 16  2  0  0  0  0
 15 19  1  0  0  0  0
 18 13  1  0  0  0  0
 20 21  1  0  0  0  0
 21 22  1  0  0  0  0
 23 22  1  0  0  0  0
 24 23  1  0  0  0  0
 25 24  1  0  0  0  0
 25 20  1  0  0  0  0
M  END
>  <minimizedAffinity>
-4.79813385

$$$$

 OpenBabel03272505013D

 25 27  0  0  0  0  0  0  0  0999 V2000
   36.2860   28.1230   34.5460 Cl  0  0  0  0  0  0  0  0  0  0  0  0
   36.0510   29.1510   33.1490 C   0  0  0  0  0  0  0  0  0  0  0  0
   35.4510   30.3630   33.3250 C   0  0  0  0  0  0  0  0  0  0  0  0
   35.2930   31.1370   32.1730 C   0  0  0  0  0  0  0  0  0  0  0  0
   35.7380   30.6560   30.9410 C   0  0  0  0  0  0  0  0  0  0  0  0
   36.3350   29.4300   30.8230 C   0  0  0  0  0  0  0  0  0  0  0  0
   36.4980   28.6550   31.9480 C   0  0  0  0  0  0  0  0  0  0  0  0
   34.8190   32.1010   32.2930 H   0  0  0  0  0  0  0  0  0  0  0  0
   35.5670   31.3340   30.1140 H   0  0  0  0  0  0  0  0  0  0  0  0
   36.6530   29.1250   29.8360 H   0  0  0  0  0  0  0  0  0  0  0  0
   35.7910   31.6580   35.4300 C   0  0  0  0  0  0  0  0  0  0  0  0
   34.9800   30.8770   34.6070 C   0  0  0  0  0  0  0  0  0  0  0  0
   33.6880   30.5970   35.0540 C   0  0  0  0  0  0  0  0  0  0  0  0
   33.2860   31.0920   36.2520 N   0  0  0  0  0  0  0  0  0  0  0  0
   34.1020   31.8460   37.0210 C   0  0  0  0  0  0  0  0  0  0  0  0
   35.3620   32.1300   36.6070 N   0  0  0  0  0  0  0  0  0  0  0  0
   36.8050   31.8880   35.1000 H   0  0  0  0  0  0  0  0  0  0  0  0
   32.9990   29.9920   34.4630 H   0  0  0  0  0  0  0  0  0  0  0  0
   33.6830   32.1880   37.9540 H   0  0  0  0  0  0  0  0  0  0  0  0
   37.1410   27.3230   31.8530 C   0  0  0  0  0  3  0  0  0  0  0  0
   38.4710   27.3920   31.1560 C   0  0  0  0  0  2  0  0  0  0  0  0
   39.1710   26.0710   31.3450 C   0  0  0  0  0  2  0  0  0  0  0  0
   38.2740   24.9520   31.7590 C   0  0  0  0  0  2  0  0  0  0  0  0
   36.9220   24.9550   31.0830 C   0  0  0  0  0  2  0  0  0  0  0  0
   36.2810   26.3220   31.1110 C   0  0  0  0  0  2  0  0  0  0  0  0
  2  3  1  0  0  0  0
  2  1  1  0  0  0  0
  3 12  1  0  0  0  0
  4  8  1  0  0  0  0
  4  3  2  0  0  0  0
  5  4  1  0  0  0  0
  6  5  2  0  0  0  0
  6  7  1  0  0  0  0
  7  2  2  0  0  0  0
  9  5  1  0  0  0  0
 10  6  1  0  0  0  0
 11 16  1  0  0  0  0
 12 13  1  0  0  0  0
 12 11  2  0  0  0  0
 13 14  2  0  0  0  0
 14 15  1  0  0  0  0
 15 19  1  0  0  0  0
 16 15  2  0  0  0  0
 17 11  1  0  0  0  0
 18 13  1  0  0  0  0
 20  7  1  0  0  0  0
 21 22  1  0  0  0  0
 21 20  1  0  0  0  0
 22 23  1  0  0  0  0
 24 25  1  0  0  0  0
 24 23  1  0  0  0  0
 25 20  1  0  0  0  0
M  END
>  <minimizedAffinity>
-4.76209307

$$$$
