
 OpenBabel03272509053D

 30 32  0  0  0  0  0  0  0  0999 V2000
   34.8750   28.4810   49.6750 C   0  0  0  0  0  3  0  0  0  0  0  0
   34.4640   28.0740   48.5020 C   0  0  0  0  0  3  0  0  0  0  0  0
   37.5170   30.7260   50.8460 C   0  0  0  0  0  0  0  0  0  0  0  0
   38.1960   31.0140   49.6460 C   0  0  0  0  0  0  0  0  0  0  0  0
   37.7230   30.4230   48.4570 C   0  0  0  0  0  0  0  0  0  0  0  0
   36.6410   29.6120   48.5420 N   0  0  0  0  0  0  0  0  0  0  0  0
   36.0160   29.3570   49.7070 C   0  0  0  0  0  0  0  0  0  0  0  0
   36.4690   29.9240   50.8460 N   0  0  0  0  0  0  0  0  0  0  0  0
   37.9040   31.1940   51.7370 H   0  0  0  0  0  0  0  0  0  0  0  0
   39.0460   31.6460   49.5420 H   0  0  0  0  0  0  0  0  0  0  0  0
   38.3190   30.6200   47.1100 C   0  0  0  0  0  3  0  0  0  0  0  0
   37.3090   31.1390   46.1150 C   0  0  0  0  0  2  0  0  0  0  0  0
   38.1050   31.4230   44.8370 C   0  0  0  0  0  2  0  0  0  0  0  0
   38.9800   32.6400   45.0050 C   0  0  0  0  0  2  0  0  0  0  0  0
   39.0930   32.9310   46.4770 C   0  0  0  0  0  2  0  0  0  0  0  0
   39.4670   31.6200   47.1560 C   0  0  0  0  0  2  0  0  0  0  0  0
   33.3280   27.1810   48.2030 C   0  0  0  0  0  0  0  0  0  0  0  0
   32.4890   27.8120   47.8130 H   0  0  0  0  0  0  0  0  0  0  0  0
   32.9490   26.6380   49.0950 H   0  0  0  0  0  0  0  0  0  0  0  0
   33.6520   26.1760   47.1470 C   0  0  0  0  0  0  0  0  0  0  0  0
   33.7980   24.8300   47.3610 C   0  0  0  0  0  0  0  0  0  0  0  0
   34.0990   23.9810   46.3160 C   0  0  0  0  0  0  0  0  0  0  0  0
   34.2620   24.4790   45.0090 C   0  0  0  0  0  0  0  0  0  0  0  0
   34.1180   25.8200   44.7890 C   0  0  0  0  0  0  0  0  0  0  0  0
   33.8150   26.6560   45.8530 C   0  0  0  0  0  0  0  0  0  0  0  0
   33.6640   24.4920   48.3850 H   0  0  0  0  0  0  0  0  0  0  0  0
   34.2010   22.9420   46.5480 H   0  0  0  0  0  0  0  0  0  0  0  0
   34.4930   23.7240   44.2830 H   0  0  0  0  0  0  0  0  0  0  0  0
   34.2470   26.1800   43.7770 H   0  0  0  0  0  0  0  0  0  0  0  0
   33.7130   27.7150   45.6080 H   0  0  0  0  0  0  0  0  0  0  0  0
  1  7  1  0  0  0  0
  2  1  2  0  0  0  0
  3  9  1  0  0  0  0
  4  3  2  0  0  0  0
  5  6  2  0  0  0  0
  5  4  1  0  0  0  0
  6  7  1  0  0  0  0
  7  8  2  0  0  0  0
  8  3  1  0  0  0  0
 10  4  1  0  0  0  0
 11 16  1  0  0  0  0
 11  5  1  0  0  0  0
 12 11  1  0  0  0  0
 13 14  1  0  0  0  0
 13 12  1  0  0  0  0
 14 15  1  0  0  0  0
 15 16  1  0  0  0  0
 17  2  1  0  0  0  0
 17 19  1  0  0  0  0
 18 17  1  0  0  0  0
 20 21  1  0  0  0  0
 20 17  1  0  0  0  0
 21 26  1  0  0  0  0
 22 27  1  0  0  0  0
 22 21  2  0  0  0  0
 23 22  1  0  0  0  0
 24 23  2  0  0  0  0
 24 25  1  0  0  0  0
 25 20  2  0  0  0  0
 28 23  1  0  0  0  0
 29 24  1  0  0  0  0
 30 25  1  0  0  0  0
M  END
>  <minimizedAffinity>
-5.55521727

>  <minimizedRMSD>
0.776794791

$$$$
