
 OpenBabel03272510023D

 18 19  0  0  0  0  0  0  0  0999 V2000
   38.2330   32.3490   49.5820 C   0  0  0  0  0  0  0  0  0  0  0  0
   38.6970   32.1440   48.2720 C   0  0  0  0  0  0  0  0  0  0  0  0
   38.1560   31.1010   47.5420 C   0  0  0  0  0  0  0  0  0  0  0  0
   37.1960   30.3160   48.1290 N   0  0  0  0  0  0  0  0  0  0  0  0
   36.7800   30.5500   49.3930 C   0  0  0  0  0  0  0  0  0  0  0  0
   37.3000   31.5580   50.1010 N   0  0  0  0  0  0  0  0  0  0  0  0
   38.5970   33.1380   50.2250 H   0  0  0  0  0  0  0  0  0  0  0  0
   39.4390   32.8360   47.9680 H   0  0  0  0  0  0  0  0  0  0  0  0
   38.6460   30.9020   46.1880 C   0  0  0  0  0  3  0  0  0  0  0  0
   37.8780   31.5180   45.0810 C   0  0  0  0  0  2  0  0  0  0  0  0
   38.5990   32.6850   44.4350 C   0  0  0  0  0  2  0  0  0  0  0  0
   39.8700   32.1370   43.8200 C   0  0  0  0  0  2  0  0  0  0  0  0
   40.6000   31.2000   44.7470 C   0  0  0  0  0  2  0  0  0  0  0  0
   40.0730   31.4630   46.1310 C   0  0  0  0  0  2  0  0  0  0  0  0
   35.7410   29.6560   49.9490 C   0  0  0  0  0  0  0  0  0  0  0  0
   35.9420   29.3580   51.2880 F   0  0  0  0  0  0  0  0  0  0  0  0
   34.4810   30.2370   49.8660 F   0  0  0  0  0  0  0  0  0  0  0  0
   35.6370   28.4540   49.2890 F   0  0  0  0  0  0  0  0  0  0  0  0
  1  6  1  0  0  0  0
  1  7  1  0  0  0  0
  2  1  2  0  0  0  0
  3  4  2  0  0  0  0
  3  2  1  0  0  0  0
  4  5  1  0  0  0  0
  5 15  1  0  0  0  0
  5  6  2  0  0  0  0
  8  2  1  0  0  0  0
  9  3  1  0  0  0  0
 10  9  1  0  0  0  0
 11 10  1  0  0  0  0
 12 11  1  0  0  0  0
 12 13  1  0  0  0  0
 13 14  1  0  0  0  0
 14  9  1  0  0  0  0
 15 16  1  0  0  0  0
 17 15  1  0  0  0  0
 18 15  1  0  0  0  0
M  END
>  <minimizedAffinity>
-5.70441532

>  <minimizedRMSD>
1.61147916

$$$$
