
 OpenBabel03272501333D

 24 26  0  0  1  0  0  0  0  0999 V2000
   37.5830   27.2420   34.4960 C   0  0  2  0  0  0  0  0  0  0  0  0
   38.9360   27.3490   35.2770 C   0  0  0  0  0  0  0  0  0  0  0  0
   37.7980   26.4190   35.6300 C   0  0  2  0  0  0  0  0  0  0  0  0
   37.1450   28.2840   34.5680 H   0  0  0  0  0  0  0  0  0  0  0  0
   39.8340   27.0210   34.7630 H   0  0  0  0  0  0  0  0  0  0  0  0
   39.1050   28.2490   35.8940 H   0  0  0  0  0  0  0  0  0  0  0  0
   37.2390   26.7800   36.5650 H   0  0  0  0  0  0  0  0  0  0  0  0
   38.2010   25.0270   35.7760 C   0  0  0  0  0  3  0  0  0  0  0  0
   37.9890   24.6510   37.2320 C   0  0  0  0  0  2  0  0  0  0  0  0
   37.7270   23.1740   37.3990 C   0  0  0  0  0  2  0  0  0  0  0  0
   38.6290   22.4740   36.4100 C   0  0  0  0  0  2  0  0  0  0  0  0
   39.8710   23.2960   36.2440 C   0  0  0  0  0  2  0  0  0  0  0  0
   39.5620   24.5680   35.4220 C   0  0  0  0  0  2  0  0  0  0  0  0
   37.8140   26.9020   33.0760 C   0  0  0  0  0  0  0  0  0  0  0  0
   38.8040   27.4840   32.5290 O   0  0  0  0  0  0  0  0  0  0  0  0
   36.3770   23.7390   31.7250 C   0  0  0  0  0  0  0  0  0  0  0  0
   37.2070   24.5990   32.4270 C   0  0  0  0  0  0  0  0  0  0  0  0
   36.9550   25.9750   32.3830 C   0  0  0  0  0  0  0  0  0  0  0  0
   35.9190   26.4060   31.6640 N   0  0  0  0  0  0  0  0  0  0  0  0
   35.1220   25.5240   30.9860 C   0  0  0  0  0  0  0  0  0  0  0  0
   35.3390   24.2210   31.0110 N   0  0  0  0  0  0  0  0  0  0  0  0
   36.5890   22.6780   31.7720 H   0  0  0  0  0  0  0  0  0  0  0  0
   38.0260   24.2190   32.9920 H   0  0  0  0  0  0  0  0  0  0  0  0
   34.2820   25.9370   30.4110 H   0  0  0  0  0  0  0  0  0  0  0  0
  1  4  1  1  0  0  0
  1  2  1  0  0  0  0
  1  3  1  0  0  0  0
  2  3  1  0  0  0  0
  2  6  1  0  0  0  0
  3  8  1  0  0  0  0
  3  7  1  1  0  0  0
  5  2  1  0  0  0  0
  8  9  1  0  0  0  0
  9 10  1  0  0  0  0
 11 10  1  0  0  0  0
 12 11  1  0  0  0  0
 13  8  1  0  0  0  0
 13 12  1  0  0  0  0
 14  1  1  0  0  0  0
 15 14  2  0  0  0  0
 16 22  1  0  0  0  0
 16 17  1  0  0  0  0
 17 23  1  0  0  0  0
 18 17  2  0  0  0  0
 18 14  1  0  0  0  0
 19 18  1  0  0  0  0
 20 21  1  0  0  0  0
 20 19  2  0  0  0  0
 21 16  2  0  0  0  0
 24 20  1  0  0  0  0
M  END
>  <minimizedAffinity>
-4.88361216

$$$$

 OpenBabel03272501333D

 24 26  0  0  1  0  0  0  0  0999 V2000
   37.7090   27.4680   35.3100 C   0  0  2  0  0  0  0  0  0  0  0  0
   39.2450   27.2070   35.1500 C   0  0  0  0  0  0  0  0  0  0  0  0
   38.3290   26.4620   36.0940 C   0  0  2  0  0  0  0  0  0  0  0  0
   37.6510   28.5510   35.6360 H   0  0  0  0  0  0  0  0  0  0  0  0
   39.5840   26.7970   34.2030 H   0  0  0  0  0  0  0  0  0  0  0  0
   39.9420   27.9590   35.5600 H   0  0  0  0  0  0  0  0  0  0  0  0
   38.5040   26.7790   37.1830 H   0  0  0  0  0  0  0  0  0  0  0  0
   38.4010   25.0130   35.9610 C   0  0  0  0  0  3  0  0  0  0  0  0
   37.9990   24.4220   37.3010 C   0  0  0  0  0  2  0  0  0  0  0  0
   37.4030   23.0430   37.1510 C   0  0  0  0  0  2  0  0  0  0  0  0
   38.2010   22.3580   36.0660 C   0  0  0  0  0  2  0  0  0  0  0  0
   39.6030   22.8840   36.1120 C   0  0  0  0  0  2  0  0  0  0  0  0
   39.6490   24.3270   35.5610 C   0  0  0  0  0  2  0  0  0  0  0  0
   37.0050   27.3030   34.0210 C   0  0  0  0  0  0  0  0  0  0  0  0
   36.9630   26.1150   33.5690 O   0  0  0  0  0  0  0  0  0  0  0  0
   35.1100   30.4440   33.3610 C   0  0  0  0  0  0  0  0  0  0  0  0
   35.6810   29.3860   34.0500 C   0  0  0  0  0  0  0  0  0  0  0  0
   36.4220   28.4320   33.3420 C   0  0  0  0  0  0  0  0  0  0  0  0
   36.5490   28.5820   32.0240 N   0  0  0  0  0  0  0  0  0  0  0  0
   35.9710   29.6420   31.3800 C   0  0  0  0  0  0  0  0  0  0  0  0
   35.2670   30.5540   32.0260 N   0  0  0  0  0  0  0  0  0  0  0  0
   34.5410   31.1710   33.9270 H   0  0  0  0  0  0  0  0  0  0  0  0
   35.5580   29.2990   35.1050 H   0  0  0  0  0  0  0  0  0  0  0  0
   36.1120   29.7130   30.2930 H   0  0  0  0  0  0  0  0  0  0  0  0
  1  4  1  1  0  0  0
  1  3  1  0  0  0  0
  2  1  1  0  0  0  0
  2  6  1  0  0  0  0
  2  3  1  0  0  0  0
  3  7  1  1  0  0  0
  5  2  1  0  0  0  0
  8  3  1  0  0  0  0
  8  9  1  0  0  0  0
 10  9  1  0  0  0  0
 11 12  1  0  0  0  0
 11 10  1  0  0  0  0
 13  8  1  0  0  0  0
 13 12  1  0  0  0  0
 14  1  1  0  0  0  0
 15 14  2  0  0  0  0
 16 22  1  0  0  0  0
 16 17  1  0  0  0  0
 17 23  1  0  0  0  0
 18 14  1  0  0  0  0
 18 17  2  0  0  0  0
 19 18  1  0  0  0  0
 20 19  2  0  0  0  0
 20 21  1  0  0  0  0
 21 16  2  0  0  0  0
 24 20  1  0  0  0  0
M  END
>  <minimizedAffinity>
-4.88265657

$$$$

 OpenBabel03272501333D

 24 26  0  0  1  0  0  0  0  0999 V2000
   39.8590   25.5920   34.1820 C   0  0  2  0  0  0  0  0  0  0  0  0
   39.6760   26.8790   35.0550 C   0  0  0  0  0  0  0  0  0  0  0  0
   39.5430   26.8210   33.5510 C   0  0  2  0  0  0  0  0  0  0  0  0
   40.9230   25.2680   34.3980 H   0  0  0  0  0  0  0  0  0  0  0  0
   38.8230   26.9080   35.7260 H   0  0  0  0  0  0  0  0  0  0  0  0
   40.5790   27.3350   35.4970 H   0  0  0  0  0  0  0  0  0  0  0  0
   40.4440   27.3090   33.0330 H   0  0  0  0  0  0  0  0  0  0  0  0
   38.2950   27.3800   33.0490 C   0  0  0  0  0  3  0  0  0  0  0  0
   37.3070   27.3710   34.2030 C   0  0  0  0  0  2  0  0  0  0  0  0
   36.2680   28.4560   34.0610 C   0  0  0  0  0  2  0  0  0  0  0  0
   35.9340   28.5270   32.5890 C   0  0  0  0  0  2  0  0  0  0  0  0
   36.0900   27.1550   32.0070 C   0  0  0  0  0  2  0  0  0  0  0  0
   37.5870   26.7920   31.8910 C   0  0  0  0  0  2  0  0  0  0  0  0
   38.9250   24.5270   34.6040 C   0  0  0  0  0  0  0  0  0  0  0  0
   38.1760   24.0620   33.6870 O   0  0  0  0  0  0  0  0  0  0  0  0
   37.8390   24.0190   38.1340 C   0  0  0  0  0  0  0  0  0  0  0  0
   37.8340   24.4510   36.8170 C   0  0  0  0  0  0  0  0  0  0  0  0
   38.8820   24.0720   35.9710 C   0  0  0  0  0  0  0  0  0  0  0  0
   39.8510   23.3060   36.4690 N   0  0  0  0  0  0  0  0  0  0  0  0
   39.8210   22.8980   37.7760 C   0  0  0  0  0  0  0  0  0  0  0  0
   38.8420   23.2430   38.5940 N   0  0  0  0  0  0  0  0  0  0  0  0
   37.0190   24.3230   38.7710 H   0  0  0  0  0  0  0  0  0  0  0  0
   37.0420   25.0630   36.4520 H   0  0  0  0  0  0  0  0  0  0  0  0
   40.6460   22.2660   38.1300 H   0  0  0  0  0  0  0  0  0  0  0  0
  1  4  1  6  0  0  0
  1 14  1  0  0  0  0
  1  2  1  0  0  0  0
  2  6  1  0  0  0  0
  2  5  1  0  0  0  0
  3  7  1  6  0  0  0
  3  1  1  0  0  0  0
  3  2  1  0  0  0  0
  8  3  1  0  0  0  0
  8  9  1  0  0  0  0
 10  9  1  0  0  0  0
 11 10  1  0  0  0  0
 12 11  1  0  0  0  0
 13 12  1  0  0  0  0
 13  8  1  0  0  0  0
 14 18  1  0  0  0  0
 15 14  2  0  0  0  0
 16 21  1  0  0  0  0
 16 22  1  0  0  0  0
 17 16  2  0  0  0  0
 18 19  2  0  0  0  0
 18 17  1  0  0  0  0
 19 20  1  0  0  0  0
 20 24  1  0  0  0  0
 20 21  2  0  0  0  0
 23 17  1  0  0  0  0
M  END
>  <minimizedAffinity>
-4.84263659

$$$$

 OpenBabel03272501333D

 24 26  0  0  1  0  0  0  0  0999 V2000
   37.9360   27.5850   35.5300 C   0  0  2  0  0  0  0  0  0  0  0  0
   39.3880   27.1130   35.1820 C   0  0  0  0  0  0  0  0  0  0  0  0
   38.4710   26.4440   36.1800 C   0  0  2  0  0  0  0  0  0  0  0  0
   38.0810   28.6380   35.9220 H   0  0  0  0  0  0  0  0  0  0  0  0
   39.5590   26.7280   34.1810 H   0  0  0  0  0  0  0  0  0  0  0  0
   40.2310   27.7220   35.5520 H   0  0  0  0  0  0  0  0  0  0  0  0
   38.8050   26.6510   37.2580 H   0  0  0  0  0  0  0  0  0  0  0  0
   38.3030   25.0140   35.9570 C   0  0  0  0  0  3  0  0  0  0  0  0
   38.1030   24.3720   37.3190 C   0  0  0  0  0  2  0  0  0  0  0  0
   37.2960   23.1000   37.2270 C   0  0  0  0  0  2  0  0  0  0  0  0
   37.7470   22.4080   35.9620 C   0  0  0  0  0  2  0  0  0  0  0  0
   39.1900   22.7420   35.7340 C   0  0  0  0  0  2  0  0  0  0  0  0
   39.3300   24.2070   35.2640 C   0  0  0  0  0  2  0  0  0  0  0  0
   37.0850   27.6210   34.3230 C   0  0  0  0  0  0  0  0  0  0  0  0
   35.9910   28.2600   34.4430 O   0  0  0  0  0  0  0  0  0  0  0  0
   37.4300   25.0720   31.6250 C   0  0  0  0  0  0  0  0  0  0  0  0
   36.9980   25.6900   32.7880 C   0  0  0  0  0  0  0  0  0  0  0  0
   37.4890   26.9610   33.1070 C   0  0  0  0  0  0  0  0  0  0  0  0
   38.3590   27.5290   32.2740 N   0  0  0  0  0  0  0  0  0  0  0  0
   38.7610   26.8870   31.1340 C   0  0  0  0  0  0  0  0  0  0  0  0
   38.3120   25.6870   30.8120 N   0  0  0  0  0  0  0  0  0  0  0  0
   37.0370   24.0890   31.3970 H   0  0  0  0  0  0  0  0  0  0  0  0
   36.3000   25.2050   33.4310 H   0  0  0  0  0  0  0  0  0  0  0  0
   39.4790   27.4050   30.4850 H   0  0  0  0  0  0  0  0  0  0  0  0
  1  4  1  1  0  0  0
  1  3  1  0  0  0  0
  2  1  1  0  0  0  0
  2  6  1  0  0  0  0
  2  3  1  0  0  0  0
  3  7  1  1  0  0  0
  5  2  1  0  0  0  0
  8  3  1  0  0  0  0
  8  9  1  0  0  0  0
 10  9  1  0  0  0  0
 11 10  1  0  0  0  0
 12 11  1  0  0  0  0
 13 12  1  0  0  0  0
 13  8  1  0  0  0  0
 14 15  2  0  0  0  0
 14  1  1  0  0  0  0
 16 17  1  0  0  0  0
 17 18  2  0  0  0  0
 17 23  1  0  0  0  0
 18 14  1  0  0  0  0
 19 18  1  0  0  0  0
 20 19  2  0  0  0  0
 21 20  1  0  0  0  0
 21 16  2  0  0  0  0
 22 16  1  0  0  0  0
 24 20  1  0  0  0  0
M  END
>  <minimizedAffinity>
-4.78350639

$$$$

 OpenBabel03272501333D

 24 26  0  0  1  0  0  0  0  0999 V2000
   37.5760   27.4120   34.9860 C   0  0  2  0  0  0  0  0  0  0  0  0
   39.1340   27.2540   34.9920 C   0  0  0  0  0  0  0  0  0  0  0  0
   38.1800   26.5050   35.8940 C   0  0  2  0  0  0  0  0  0  0  0  0
   37.4140   28.5060   35.2290 H   0  0  0  0  0  0  0  0  0  0  0  0
   39.5920   26.8110   34.1120 H   0  0  0  0  0  0  0  0  0  0  0  0
   39.7350   28.0790   35.4130 H   0  0  0  0  0  0  0  0  0  0  0  0
   38.2240   26.9020   36.9690 H   0  0  0  0  0  0  0  0  0  0  0  0
   38.3610   25.0600   35.8690 C   0  0  0  0  0  3  0  0  0  0  0  0
   37.9920   24.5410   37.2480 C   0  0  0  0  0  2  0  0  0  0  0  0
   37.5010   23.1150   37.2000 C   0  0  0  0  0  2  0  0  0  0  0  0
   38.3580   22.4120   36.1720 C   0  0  0  0  0  2  0  0  0  0  0  0
   39.7160   23.0440   36.1830 C   0  0  0  0  0  2  0  0  0  0  0  0
   39.6600   24.4420   35.5270 C   0  0  0  0  0  2  0  0  0  0  0  0
   37.0170   27.1150   33.6510 C   0  0  0  0  0  0  0  0  0  0  0  0
   36.9610   25.8820   33.3420 O   0  0  0  0  0  0  0  0  0  0  0  0
   36.7100   29.3650   30.6940 C   0  0  0  0  0  0  0  0  0  0  0  0
   37.1340   28.3190   31.4990 C   0  0  0  0  0  0  0  0  0  0  0  0
   36.5790   28.1730   32.7760 C   0  0  0  0  0  0  0  0  0  0  0  0
   35.6580   29.0520   33.1690 N   0  0  0  0  0  0  0  0  0  0  0  0
   35.2650   30.0720   32.3450 C   0  0  0  0  0  0  0  0  0  0  0  0
   35.7740   30.2300   31.1360 N   0  0  0  0  0  0  0  0  0  0  0  0
   37.1520   29.4600   29.7110 H   0  0  0  0  0  0  0  0  0  0  0  0
   37.8720   27.6340   31.1510 H   0  0  0  0  0  0  0  0  0  0  0  0
   34.5020   30.7650   32.7220 H   0  0  0  0  0  0  0  0  0  0  0  0
  1  2  1  0  0  0  0
  1  4  1  1  0  0  0
  1  3  1  0  0  0  0
  2  6  1  0  0  0  0
  2  3  1  0  0  0  0
  3  7  1  1  0  0  0
  5  2  1  0  0  0  0
  8  3  1  0  0  0  0
  8  9  1  0  0  0  0
 10  9  1  0  0  0  0
 11 12  1  0  0  0  0
 11 10  1  0  0  0  0
 13  8  1  0  0  0  0
 13 12  1  0  0  0  0
 14  1  1  0  0  0  0
 15 14  2  0  0  0  0
 16 21  2  0  0  0  0
 16 17  1  0  0  0  0
 17 18  2  0  0  0  0
 18 19  1  0  0  0  0
 18 14  1  0  0  0  0
 20 24  1  0  0  0  0
 20 19  2  0  0  0  0
 21 20  1  0  0  0  0
 22 16  1  0  0  0  0
 23 17  1  0  0  0  0
M  END
>  <minimizedAffinity>
-4.7753377

$$$$

 OpenBabel03272501333D

 24 26  0  0  1  0  0  0  0  0999 V2000
   38.3820   26.5870   34.5880 C   0  0  2  0  0  0  0  0  0  0  0  0
   38.1870   27.2640   35.9860 C   0  0  0  0  0  0  0  0  0  0  0  0
   37.8790   25.8190   35.6690 C   0  0  2  0  0  0  0  0  0  0  0  0
   37.7140   27.1900   33.9000 H   0  0  0  0  0  0  0  0  0  0  0  0
   39.0800   27.5790   36.5160 H   0  0  0  0  0  0  0  0  0  0  0  0
   37.3520   27.9780   36.1020 H   0  0  0  0  0  0  0  0  0  0  0  0
   36.7470   25.6370   35.6060 H   0  0  0  0  0  0  0  0  0  0  0  0
   38.5040   24.8710   36.5800 C   0  0  0  0  0  3  0  0  0  0  0  0
   38.5090   23.5200   35.8840 C   0  0  0  0  0  2  0  0  0  0  0  0
   39.6430   22.6460   36.3620 C   0  0  0  0  0  2  0  0  0  0  0  0
   39.7660   22.8950   37.8470 C   0  0  0  0  0  2  0  0  0  0  0  0
   38.4050   23.2160   38.3830 C   0  0  0  0  0  2  0  0  0  0  0  0
   37.9790   24.6340   37.9420 C   0  0  0  0  0  2  0  0  0  0  0  0
   39.7850   26.6980   34.1360 C   0  0  0  0  0  0  0  0  0  0  0  0
   40.6650   26.3920   35.0010 O   0  0  0  0  0  0  0  0  0  0  0  0
   39.4430   27.6680   30.5530 C   0  0  0  0  0  0  0  0  0  0  0  0
   39.0980   27.2740   31.8360 C   0  0  0  0  0  0  0  0  0  0  0  0
   40.1030   27.1340   32.7990 C   0  0  0  0  0  0  0  0  0  0  0  0
   41.3620   27.3860   32.4410 N   0  0  0  0  0  0  0  0  0  0  0  0
   41.6630   27.7740   31.1640 C   0  0  0  0  0  0  0  0  0  0  0  0
   40.7310   27.9130   30.2370 N   0  0  0  0  0  0  0  0  0  0  0  0
   38.6510   27.7700   29.8230 H   0  0  0  0  0  0  0  0  0  0  0  0
   38.0810   27.0810   32.0870 H   0  0  0  0  0  0  0  0  0  0  0  0
   42.7170   27.9700   30.9270 H   0  0  0  0  0  0  0  0  0  0  0  0
  1  4  1  6  0  0  0
  1  3  1  0  0  0  0
  1  2  1  0  0  0  0
  2  6  1  0  0  0  0
  2  5  1  0  0  0  0
  3  7  1  6  0  0  0
  3  2  1  0  0  0  0
  3  8  1  0  0  0  0
  8 13  1  0  0  0  0
  9 10  1  0  0  0  0
  9  8  1  0  0  0  0
 10 11  1  0  0  0  0
 11 12  1  0  0  0  0
 13 12  1  0  0  0  0
 14  1  1  0  0  0  0
 14 15  2  0  0  0  0
 16 17  1  0  0  0  0
 17 23  1  0  0  0  0
 17 18  2  0  0  0  0
 18 14  1  0  0  0  0
 19 18  1  0  0  0  0
 20 19  2  0  0  0  0
 21 16  2  0  0  0  0
 21 20  1  0  0  0  0
 22 16  1  0  0  0  0
 24 20  1  0  0  0  0
M  END
>  <minimizedAffinity>
-4.5966053

$$$$

 OpenBabel03272501333D

 24 26  0  0  1  0  0  0  0  0999 V2000
   37.7910   26.1900   34.4980 C   0  0  2  0  0  0  0  0  0  0  0  0
   38.4490   27.0940   35.5940 C   0  0  0  0  0  0  0  0  0  0  0  0
   37.6580   25.8340   35.8640 C   0  0  2  0  0  0  0  0  0  0  0  0
   37.0690   26.8860   33.9710 H   0  0  0  0  0  0  0  0  0  0  0  0
   39.5340   27.1320   35.6230 H   0  0  0  0  0  0  0  0  0  0  0  0
   37.9850   28.0740   35.8010 H   0  0  0  0  0  0  0  0  0  0  0  0
   36.6230   26.0760   36.2960 H   0  0  0  0  0  0  0  0  0  0  0  0
   38.3550   24.8710   36.7040 C   0  0  0  0  0  3  0  0  0  0  0  0
   38.1740   23.5060   36.0630 C   0  0  0  0  0  2  0  0  0  0  0  0
   39.3120   22.5730   36.3970 C   0  0  0  0  0  2  0  0  0  0  0  0
   39.6720   22.8500   37.8380 C   0  0  0  0  0  2  0  0  0  0  0  0
   38.4280   23.2730   38.5590 C   0  0  0  0  0  2  0  0  0  0  0  0
   38.0270   24.7040   38.1370 C   0  0  0  0  0  2  0  0  0  0  0  0
   38.8010   25.7050   33.5330 C   0  0  0  0  0  0  0  0  0  0  0  0
   38.3710   24.8950   32.6520 O   0  0  0  0  0  0  0  0  0  0  0  0
   42.4040   25.8820   34.4720 C   0  0  0  0  0  0  0  0  0  0  0  0
   41.0980   25.4260   34.3930 C   0  0  0  0  0  0  0  0  0  0  0  0
   40.1740   26.1340   33.6150 C   0  0  0  0  0  0  0  0  0  0  0  0
   40.5920   27.2270   32.9770 N   0  0  0  0  0  0  0  0  0  0  0  0
   41.8910   27.6450   33.0800 C   0  0  0  0  0  0  0  0  0  0  0  0
   42.7810   26.9940   33.8080 N   0  0  0  0  0  0  0  0  0  0  0  0
   43.1020   25.3200   35.0790 H   0  0  0  0  0  0  0  0  0  0  0  0
   40.7990   24.5470   34.9160 H   0  0  0  0  0  0  0  0  0  0  0  0
   42.1770   28.5520   32.5310 H   0  0  0  0  0  0  0  0  0  0  0  0
  1  4  1  6  0  0  0
  1  2  1  0  0  0  0
  1  3  1  0  0  0  0
  2  5  1  0  0  0  0
  2  6  1  0  0  0  0
  2  3  1  0  0  0  0
  3  7  1  1  0  0  0
  3  8  1  0  0  0  0
  8 13  1  0  0  0  0
  9 10  1  0  0  0  0
  9  8  1  0  0  0  0
 10 11  1  0  0  0  0
 11 12  1  0  0  0  0
 13 12  1  0  0  0  0
 14 18  1  0  0  0  0
 14  1  1  0  0  0  0
 15 14  2  0  0  0  0
 16 22  1  0  0  0  0
 17 16  1  0  0  0  0
 17 23  1  0  0  0  0
 18 17  2  0  0  0  0
 19 20  2  0  0  0  0
 19 18  1  0  0  0  0
 20 21  1  0  0  0  0
 21 16  2  0  0  0  0
 24 20  1  0  0  0  0
M  END
>  <minimizedAffinity>
-4.57711601

$$$$

 OpenBabel03272501333D

 24 26  0  0  1  0  0  0  0  0999 V2000
   37.9670   24.7700   35.9750 C   0  0  2  0  0  0  0  0  0  0  0  0
   38.0130   24.3250   37.4760 C   0  0  0  0  0  0  0  0  0  0  0  0
   38.6690   23.5900   36.3300 C   0  0  2  0  0  0  0  0  0  0  0  0
   36.8620   24.7770   35.7280 H   0  0  0  0  0  0  0  0  0  0  0  0
   38.5600   24.9580   38.1670 H   0  0  0  0  0  0  0  0  0  0  0  0
   37.0890   23.9120   37.9200 H   0  0  0  0  0  0  0  0  0  0  0  0
   38.0980   22.6290   36.0690 H   0  0  0  0  0  0  0  0  0  0  0  0
   40.0820   23.3090   36.5430 C   0  0  0  0  0  3  0  0  0  0  0  0
   40.6810   22.9800   35.1870 C   0  0  0  0  0  2  0  0  0  0  0  0
   42.1520   23.3100   35.1280 C   0  0  0  0  0  2  0  0  0  0  0  0
   42.7200   22.9390   36.4780 C   0  0  0  0  0  2  0  0  0  0  0  0
   41.9360   21.7800   37.0140 C   0  0  0  0  0  2  0  0  0  0  0  0
   40.5350   22.2470   37.4680 C   0  0  0  0  0  2  0  0  0  0  0  0
   38.5170   26.1320   35.8090 C   0  0  0  0  0  0  0  0  0  0  0  0
   38.2530   26.9470   36.7480 O   0  0  0  0  0  0  0  0  0  0  0  0
   41.3740   27.0880   33.6140 C   0  0  0  0  0  0  0  0  0  0  0  0
   40.6660   26.7230   34.7480 C   0  0  0  0  0  0  0  0  0  0  0  0
   39.2910   26.4850   34.6450 C   0  0  0  0  0  0  0  0  0  0  0  0
   38.7130   26.6190   33.4520 N   0  0  0  0  0  0  0  0  0  0  0  0
   39.4480   26.9810   32.3550 C   0  0  0  0  0  0  0  0  0  0  0  0
   40.7470   27.2120   32.4270 N   0  0  0  0  0  0  0  0  0  0  0  0
   42.4370   27.2690   33.7150 H   0  0  0  0  0  0  0  0  0  0  0  0
   41.1620   26.6240   35.6860 H   0  0  0  0  0  0  0  0  0  0  0  0
   38.9180   27.0750   31.3980 H   0  0  0  0  0  0  0  0  0  0  0  0
  1  4  1  6  0  0  0
  1  3  1  0  0  0  0
  1  2  1  0  0  0  0
  2  6  1  0  0  0  0
  2  5  1  0  0  0  0
  3  7  1  6  0  0  0
  3  8  1  0  0  0  0
  3  2  1  0  0  0  0
  8 13  1  0  0  0  0
  9  8  1  0  0  0  0
 10  9  1  0  0  0  0
 10 11  1  0  0  0  0
 11 12  1  0  0  0  0
 12 13  1  0  0  0  0
 14  1  1  0  0  0  0
 14 15  2  0  0  0  0
 16 22  1  0  0  0  0
 16 17  1  0  0  0  0
 17 23  1  0  0  0  0
 18 17  2  0  0  0  0
 18 14  1  0  0  0  0
 19 18  1  0  0  0  0
 20 21  1  0  0  0  0
 20 19  2  0  0  0  0
 21 16  2  0  0  0  0
 24 20  1  0  0  0  0
M  END
>  <minimizedAffinity>
-4.52611542

$$$$

 OpenBabel03272501333D

 24 26  0  0  1  0  0  0  0  0999 V2000
   38.6700   22.4910   35.6290 C   0  0  2  0  0  0  0  0  0  0  0  0
   38.6850   23.1880   37.0310 C   0  0  0  0  0  0  0  0  0  0  0  0
   39.0130   23.8640   35.7200 C   0  0  2  0  0  0  0  0  0  0  0  0
   39.4330   21.6600   35.7320 H   0  0  0  0  0  0  0  0  0  0  0  0
   37.7330   23.3050   37.5390 H   0  0  0  0  0  0  0  0  0  0  0  0
   39.5070   22.9360   37.7250 H   0  0  0  0  0  0  0  0  0  0  0  0
   40.1390   24.0570   35.6190 H   0  0  0  0  0  0  0  0  0  0  0  0
   38.2560   25.0860   35.4830 C   0  0  0  0  0  3  0  0  0  0  0  0
   38.5700   25.5380   34.0680 C   0  0  0  0  0  2  0  0  0  0  0  0
   37.4390   26.3370   33.4690 C   0  0  0  0  0  2  0  0  0  0  0  0
   36.8920   27.1930   34.5880 C   0  0  0  0  0  2  0  0  0  0  0  0
   38.0190   27.5240   35.5190 C   0  0  0  0  0  2  0  0  0  0  0  0
   38.4110   26.2780   36.3450 C   0  0  0  0  0  2  0  0  0  0  0  0
   37.3430   21.9080   35.3400 C   0  0  0  0  0  0  0  0  0  0  0  0
   36.6230   21.6560   36.3580 O   0  0  0  0  0  0  0  0  0  0  0  0
   35.4800   20.5500   32.4110 C   0  0  0  0  0  0  0  0  0  0  0  0
   35.8380   20.8030   33.7260 C   0  0  0  0  0  0  0  0  0  0  0  0
   36.9240   21.6460   33.9870 C   0  0  0  0  0  0  0  0  0  0  0  0
   37.5760   22.1760   32.9520 N   0  0  0  0  0  0  0  0  0  0  0  0
   37.1910   21.9030   31.6670 C   0  0  0  0  0  0  0  0  0  0  0  0
   36.1690   21.1100   31.3960 N   0  0  0  0  0  0  0  0  0  0  0  0
   34.6370   19.8950   32.2320 H   0  0  0  0  0  0  0  0  0  0  0  0
   35.2940   20.3620   34.5290 H   0  0  0  0  0  0  0  0  0  0  0  0
   37.7640   22.3690   30.8550 H   0  0  0  0  0  0  0  0  0  0  0  0
  1  3  1  0  0  0  0
  1  4  1  6  0  0  0
  1  2  1  0  0  0  0
  2  5  1  0  0  0  0
  2  6  1  0  0  0  0
  3  7  1  6  0  0  0
  3  2  1  0  0  0  0
  8  3  1  0  0  0  0
  8 13  1  0  0  0  0
  9  8  1  0  0  0  0
 10  9  1  0  0  0  0
 10 11  1  0  0  0  0
 11 12  1  0  0  0  0
 12 13  1  0  0  0  0
 14  1  1  0  0  0  0
 14 15  2  0  0  0  0
 16 17  1  0  0  0  0
 17 18  2  0  0  0  0
 17 23  1  0  0  0  0
 18 14  1  0  0  0  0
 19 18  1  0  0  0  0
 20 19  2  0  0  0  0
 21 20  1  0  0  0  0
 21 16  2  0  0  0  0
 22 16  1  0  0  0  0
 24 20  1  0  0  0  0
M  END
>  <minimizedAffinity>
-4.50758028

$$$$
