
 OpenBabel03272505133D

 36 39  0  0  0  0  0  0  0  0999 V2000
   36.4160   30.9010   45.7090 Cl  0  0  0  0  0  0  0  0  0  0  0  0
   36.6960   30.7830   47.4250 C   0  0  0  0  0  0  0  0  0  0  0  0
   37.9570   31.1220   47.8810 C   0  0  0  0  0  0  0  0  0  0  0  0
   38.1920   31.0310   49.2480 C   0  0  0  0  0  0  0  0  0  0  0  0
   37.1830   30.6170   50.0880 C   0  0  0  0  0  0  0  0  0  0  0  0
   35.9440   30.2950   49.5520 C   0  0  0  0  0  0  0  0  0  0  0  0
   35.6440   30.3610   48.2160 C   0  0  0  0  0  0  0  0  0  0  0  0
   39.1740   31.2910   49.6270 H   0  0  0  0  0  0  0  0  0  0  0  0
   37.3270   30.5340   51.1550 H   0  0  0  0  0  0  0  0  0  0  0  0
   35.1750   29.9720   50.2500 H   0  0  0  0  0  0  0  0  0  0  0  0
   40.2250   33.3250   46.0840 C   0  0  0  0  0  0  0  0  0  0  0  0
   40.9380   32.4760   45.2260 C   0  0  0  0  0  0  0  0  0  0  0  0
   40.6180   31.1080   45.2790 C   0  0  0  0  0  0  0  0  0  0  0  0
   39.6470   30.6940   46.1490 N   0  0  0  0  0  0  0  0  0  0  0  0
   39.0050   31.5600   46.9410 C   0  0  0  0  0  0  0  0  0  0  0  0
   39.2820   32.8640   46.9180 N   0  0  0  0  0  0  0  0  0  0  0  0
   40.5210   34.3620   45.9920 H   0  0  0  0  0  0  0  0  0  0  0  0
   41.7070   32.8540   44.5470 H   0  0  0  0  0  0  0  0  0  0  0  0
   41.1180   30.4070   44.6570 H   0  0  0  0  0  0  0  0  0  0  0  0
   34.0740   29.9550   47.5260 S   0  0  0  0  0  0  0  0  0  0  0  0
   33.9410   29.1640   44.4820 Cl  0  0  0  0  0  0  0  0  0  0  0  0
   33.9000   27.9470   45.7370 C   0  0  0  0  0  0  0  0  0  0  0  0
   33.9530   28.2150   47.1130 C   0  0  0  0  0  0  0  0  0  0  0  0
   33.9130   27.1760   48.0030 C   0  0  0  0  0  0  0  0  0  0  0  0
   33.8200   25.8790   47.5710 C   0  0  0  0  0  0  0  0  0  0  0  0
   33.7640   25.5740   46.2170 C   0  0  0  0  0  0  0  0  0  0  0  0
   33.8050   26.6150   45.3330 C   0  0  0  0  0  0  0  0  0  0  0  0
   33.9620   27.5060   49.0420 H   0  0  0  0  0  0  0  0  0  0  0  0
   33.7920   25.1060   48.3000 H   0  0  0  0  0  0  0  0  0  0  0  0
   33.6910   24.5320   45.9360 H   0  0  0  0  0  0  0  0  0  0  0  0
   33.7450   26.2880   43.8830 C   0  0  0  0  0  3  0  0  0  0  0  0
   34.9740   26.7190   43.1490 C   0  0  0  0  0  2  0  0  0  0  0  0
   34.9040   26.2680   41.7260 C   0  0  0  0  0  2  0  0  0  0  0  0
   33.5970   25.5880   41.3870 C   0  0  0  0  0  2  0  0  0  0  0  0
   32.3940   26.3600   41.8270 C   0  0  0  0  0  2  0  0  0  0  0  0
   32.5280   26.9010   43.2320 C   0  0  0  0  0  2  0  0  0  0  0  0
  1  2  1  0  0  0  0
  2  3  2  0  0  0  0
  2  7  1  0  0  0  0
  3  4  1  0  0  0  0
  4  8  1  0  0  0  0
  4  5  2  0  0  0  0
  5  9  1  0  0  0  0
  6  5  1  0  0  0  0
  6 10  1  0  0  0  0
  7  6  2  0  0  0  0
 11 16  1  0  0  0  0
 12 13  1  0  0  0  0
 12 11  2  0  0  0  0
 13 14  2  0  0  0  0
 14 15  1  0  0  0  0
 15  3  1  0  0  0  0
 16 15  2  0  0  0  0
 17 11  1  0  0  0  0
 18 12  1  0  0  0  0
 19 13  1  0  0  0  0
 20  7  1  0  0  0  0
 21 22  1  0  0  0  0
 22 23  1  0  0  0  0
 23 20  1  0  0  0  0
 23 24  2  0  0  0  0
 24 28  1  0  0  0  0
 25 24  1  0  0  0  0
 25 29  1  0  0  0  0
 26 25  2  0  0  0  0
 27 22  2  0  0  0  0
 27 26  1  0  0  0  0
 30 26  1  0  0  0  0
 31 27  1  0  0  0  0
 32 31  1  0  0  0  0
 33 32  1  0  0  0  0
 34 33  1  0  0  0  0
 34 35  1  0  0  0  0
 35 36  1  0  0  0  0
 36 31  1  0  0  0  0
M  END
>  <minimizedAffinity>
-5.71285868

>  <minimizedRMSD>
0.601330996

$$$$
