
 OpenBabel03272500093D

 36 39  0  0  0  0  0  0  0  0999 V2000
   38.5430   26.7560   32.8950 C   0  0  0  0  0  0  0  0  0  0  0  0
   37.3190   26.8950   32.1940 C   0  0  0  0  0  0  0  0  0  0  0  0
   36.5330   25.7620   32.0410 C   0  0  0  0  0  0  0  0  0  0  0  0
   36.9760   24.5900   32.5680 N   0  0  0  0  0  0  0  0  0  0  0  0
   38.1320   24.4760   33.2240 C   0  0  0  0  0  0  0  0  0  0  0  0
   38.9290   25.5680   33.3930 N   0  0  0  0  0  0  0  0  0  0  0  0
   39.1740   27.6420   33.0240 H   0  0  0  0  0  0  0  0  0  0  0  0
   35.6110   25.8510   31.5170 H   0  0  0  0  0  0  0  0  0  0  0  0
   36.9790   28.1780   31.6970 N   0  0  0  0  0  0  0  0  0  0  0  0
   37.3350   28.5830   30.4720 C   0  0  0  0  0  0  0  0  0  0  0  0
   36.9690   29.8560   30.0450 C   0  0  0  0  0  0  0  0  0  0  0  0
   36.2550   30.5940   30.9540 C   0  0  0  0  0  0  0  0  0  0  0  0
   35.9120   31.7630   30.5780 O   0  0  0  0  0  0  0  0  0  0  0  0
   35.8880   30.2270   32.1650 N   0  0  0  0  0  0  0  0  0  0  0  0
   36.2600   28.9750   32.5560 C   0  0  0  0  0  0  0  0  0  0  0  0
   35.9200   28.6010   33.7130 O   0  0  0  0  0  0  0  0  0  0  0  0
   37.9010   27.9380   29.8140 H   0  0  0  0  0  0  0  0  0  0  0  0
   37.2470   30.2050   29.0570 H   0  0  0  0  0  0  0  0  0  0  0  0
   35.3420   30.8510   32.8000 H   0  0  0  0  0  0  0  0  0  0  0  0
   38.5950   23.2700   33.7690 O   0  0  0  0  0  0  0  0  0  0  0  0
   37.6040   22.3230   34.0250 C   0  0  0  0  0  0  0  0  0  0  0  0
   37.0110   21.8250   32.8650 C   0  0  0  0  0  0  0  0  0  0  0  0
   36.0100   20.8780   32.9370 C   0  0  0  0  0  0  0  0  0  0  0  0
   35.5980   20.4240   34.1820 C   0  0  0  0  0  0  0  0  0  0  0  0
   36.1980   20.9310   35.3070 C   0  0  0  0  0  0  0  0  0  0  0  0
   37.2010   21.8780   35.2710 C   0  0  0  0  0  0  0  0  0  0  0  0
   37.2900   22.1410   31.8600 H   0  0  0  0  0  0  0  0  0  0  0  0
   35.5500   20.4920   32.0370 H   0  0  0  0  0  0  0  0  0  0  0  0
   34.8050   19.6750   34.1960 H   0  0  0  0  0  0  0  0  0  0  0  0
   35.8450   20.5500   36.2320 H   0  0  0  0  0  0  0  0  0  0  0  0
   37.8440   22.4420   36.4500 C   0  0  0  0  0  3  0  0  0  0  0  0
   39.3690   22.5370   36.3010 C   0  0  0  0  0  2  0  0  0  0  0  0
   39.9100   22.7410   37.6970 C   0  0  0  0  0  2  0  0  0  0  0  0
   38.9720   23.4720   38.5920 C   0  0  0  0  0  2  0  0  0  0  0  0
   38.0680   24.4640   37.9000 C   0  0  0  0  0  2  0  0  0  0  0  0
   37.3870   23.8650   36.6920 C   0  0  0  0  0  2  0  0  0  0  0  0
  1  7  1  0  0  0  0
  1  6  1  0  0  0  0
  2  1  2  0  0  0  0
  3  2  1  0  0  0  0
  3  4  2  0  0  0  0
  4  5  1  0  0  0  0
  5  6  2  0  0  0  0
  5 20  1  0  0  0  0
  8  3  1  0  0  0  0
  9  2  1  0  0  0  0
  9 15  1  0  0  0  0
 10  9  1  0  0  0  0
 11 10  2  0  0  0  0
 11 12  1  0  0  0  0
 12 14  1  0  0  0  0
 13 12  2  0  0  0  0
 14 15  1  0  0  0  0
 14 19  1  0  0  0  0
 15 16  2  0  0  0  0
 17 10  1  0  0  0  0
 18 11  1  0  0  0  0
 20 21  1  0  0  0  0
 21 26  1  0  0  0  0
 22 23  1  0  0  0  0
 22 21  2  0  0  0  0
 23 24  2  0  0  0  0
 24 29  1  0  0  0  0
 24 25  1  0  0  0  0
 25 30  1  0  0  0  0
 26 25  2  0  0  0  0
 26 31  1  0  0  0  0
 27 22  1  0  0  0  0
 28 23  1  0  0  0  0
 31 36  1  0  0  0  0
 32 31  1  0  0  0  0
 32 33  1  0  0  0  0
 33 34  1  0  0  0  0
 35 34  1  0  0  0  0
 36 35  1  0  0  0  0
M  END
>  <minimizedAffinity>
-6.14420033

$$$$

 OpenBabel03272500093D

 36 39  0  0  0  0  0  0  0  0999 V2000
   38.9250   26.1550   33.2510 C   0  0  0  0  0  0  0  0  0  0  0  0
   37.7670   26.1230   32.4340 C   0  0  0  0  0  0  0  0  0  0  0  0
   37.0560   24.9350   32.3720 C   0  0  0  0  0  0  0  0  0  0  0  0
   37.5030   23.8730   33.0940 N   0  0  0  0  0  0  0  0  0  0  0  0
   38.5950   23.9190   33.8580 C   0  0  0  0  0  0  0  0  0  0  0  0
   39.3200   25.0700   33.9430 N   0  0  0  0  0  0  0  0  0  0  0  0
   39.4970   27.0870   33.3100 H   0  0  0  0  0  0  0  0  0  0  0  0
   36.1840   24.8960   31.7630 H   0  0  0  0  0  0  0  0  0  0  0  0
   37.4140   27.3050   31.7350 N   0  0  0  0  0  0  0  0  0  0  0  0
   37.8040   27.5280   30.4740 C   0  0  0  0  0  0  0  0  0  0  0  0
   37.4230   28.7090   29.8450 C   0  0  0  0  0  0  0  0  0  0  0  0
   36.6590   29.5560   30.6070 C   0  0  0  0  0  0  0  0  0  0  0  0
   36.3010   30.6430   30.0450 O   0  0  0  0  0  0  0  0  0  0  0  0
   36.2580   29.3680   31.8470 N   0  0  0  0  0  0  0  0  0  0  0  0
   36.6460   28.2020   32.4380 C   0  0  0  0  0  0  0  0  0  0  0  0
   36.2740   27.9990   33.6270 O   0  0  0  0  0  0  0  0  0  0  0  0
   38.4090   26.8070   29.9420 H   0  0  0  0  0  0  0  0  0  0  0  0
   37.7280   28.9110   28.8250 H   0  0  0  0  0  0  0  0  0  0  0  0
   35.6740   30.0650   32.3610 H   0  0  0  0  0  0  0  0  0  0  0  0
   39.0620   22.8280   34.6050 O   0  0  0  0  0  0  0  0  0  0  0  0
   39.0130   22.9990   35.9880 C   0  0  0  0  0  0  0  0  0  0  0  0
   37.7740   23.4520   36.4400 C   0  0  0  0  0  0  0  0  0  0  0  0
   37.5530   23.6750   37.7830 C   0  0  0  0  0  0  0  0  0  0  0  0
   38.5810   23.4410   38.6850 C   0  0  0  0  0  0  0  0  0  0  0  0
   39.7910   22.9950   38.2140 C   0  0  0  0  0  0  0  0  0  0  0  0
   40.0450   22.7640   36.8780 C   0  0  0  0  0  0  0  0  0  0  0  0
   36.9280   23.6540   35.7820 H   0  0  0  0  0  0  0  0  0  0  0  0
   36.5920   24.0260   38.1320 H   0  0  0  0  0  0  0  0  0  0  0  0
   38.3660   23.6290   39.7370 H   0  0  0  0  0  0  0  0  0  0  0  0
   40.5420   22.8340   38.9450 H   0  0  0  0  0  0  0  0  0  0  0  0
   41.3240   22.3040   36.3510 C   0  0  0  0  0  3  0  0  0  0  0  0
   42.4130   23.3840   36.4200 C   0  0  0  0  0  2  0  0  0  0  0  0
   43.5160   22.9200   35.4990 C   0  0  0  0  0  2  0  0  0  0  0  0
   43.6200   21.4380   35.4030 C   0  0  0  0  0  2  0  0  0  0  0  0
   43.2050   20.6850   36.6440 C   0  0  0  0  0  2  0  0  0  0  0  0
   41.8670   21.1510   37.1700 C   0  0  0  0  0  2  0  0  0  0  0  0
  1  7  1  0  0  0  0
  1  6  1  0  0  0  0
  2  1  2  0  0  0  0
  3  2  1  0  0  0  0
  3  4  2  0  0  0  0
  4  5  1  0  0  0  0
  5  6  2  0  0  0  0
  5 20  1  0  0  0  0
  8  3  1  0  0  0  0
  9  2  1  0  0  0  0
  9 15  1  0  0  0  0
 10  9  1  0  0  0  0
 11 10  2  0  0  0  0
 11 12  1  0  0  0  0
 12 14  1  0  0  0  0
 13 12  2  0  0  0  0
 14 19  1  0  0  0  0
 14 15  1  0  0  0  0
 15 16  2  0  0  0  0
 17 10  1  0  0  0  0
 18 11  1  0  0  0  0
 20 21  1  0  0  0  0
 21 22  2  0  0  0  0
 21 26  1  0  0  0  0
 22 23  1  0  0  0  0
 23 28  1  0  0  0  0
 23 24  2  0  0  0  0
 24 29  1  0  0  0  0
 25 24  1  0  0  0  0
 25 30  1  0  0  0  0
 26 25  2  0  0  0  0
 27 22  1  0  0  0  0
 31 32  1  0  0  0  0
 31 26  1  0  0  0  0
 31 36  1  0  0  0  0
 33 32  1  0  0  0  0
 34 33  1  0  0  0  0
 34 35  1  0  0  0  0
 35 36  1  0  0  0  0
M  END
>  <minimizedAffinity>
-6.03169966

$$$$

 OpenBabel03272500093D

 36 39  0  0  0  0  0  0  0  0999 V2000
   39.1780   25.4170   32.9870 C   0  0  0  0  0  0  0  0  0  0  0  0
   38.0840   25.3560   32.0880 C   0  0  0  0  0  0  0  0  0  0  0  0
   37.3120   24.2030   32.0930 C   0  0  0  0  0  0  0  0  0  0  0  0
   37.6440   23.2040   32.9530 N   0  0  0  0  0  0  0  0  0  0  0  0
   38.6780   23.2780   33.7920 C   0  0  0  0  0  0  0  0  0  0  0  0
   39.4590   24.3950   33.8150 N   0  0  0  0  0  0  0  0  0  0  0  0
   39.7970   26.3210   32.9940 H   0  0  0  0  0  0  0  0  0  0  0  0
   36.4860   24.1430   31.4240 H   0  0  0  0  0  0  0  0  0  0  0  0
   37.8500   26.4720   31.2470 N   0  0  0  0  0  0  0  0  0  0  0  0
   36.9540   27.4180   31.5520 C   0  0  0  0  0  0  0  0  0  0  0  0
   36.7740   28.4880   30.6820 C   0  0  0  0  0  0  0  0  0  0  0  0
   37.5600   28.4660   29.5580 C   0  0  0  0  0  0  0  0  0  0  0  0
   37.4070   29.4400   28.7500 O   0  0  0  0  0  0  0  0  0  0  0  0
   38.4500   27.5530   29.2270 N   0  0  0  0  0  0  0  0  0  0  0  0
   38.6050   26.5160   30.0990 C   0  0  0  0  0  0  0  0  0  0  0  0
   39.4520   25.6280   29.8030 O   0  0  0  0  0  0  0  0  0  0  0  0
   36.3720   27.3610   32.4620 H   0  0  0  0  0  0  0  0  0  0  0  0
   36.0540   29.2650   30.9090 H   0  0  0  0  0  0  0  0  0  0  0  0
   39.0120   27.6080   28.3480 H   0  0  0  0  0  0  0  0  0  0  0  0
   39.0270   22.2510   34.6810 O   0  0  0  0  0  0  0  0  0  0  0  0
   39.0200   22.6130   36.0270 C   0  0  0  0  0  0  0  0  0  0  0  0
   37.7680   23.0340   36.4750 C   0  0  0  0  0  0  0  0  0  0  0  0
   37.5850   23.4300   37.7840 C   0  0  0  0  0  0  0  0  0  0  0  0
   38.6640   23.4020   38.6550 C   0  0  0  0  0  0  0  0  0  0  0  0
   39.8850   22.9830   38.1890 C   0  0  0  0  0  0  0  0  0  0  0  0
   40.1030   22.5820   36.8870 C   0  0  0  0  0  0  0  0  0  0  0  0
   36.8830   23.0790   35.8400 H   0  0  0  0  0  0  0  0  0  0  0  0
   36.6140   23.7560   38.1300 H   0  0  0  0  0  0  0  0  0  0  0  0
   38.4780   23.7210   39.6810 H   0  0  0  0  0  0  0  0  0  0  0  0
   40.6760   22.9820   38.8970 H   0  0  0  0  0  0  0  0  0  0  0  0
   41.3920   22.1460   36.3650 C   0  0  0  0  0  3  0  0  0  0  0  0
   42.4480   23.2600   36.3960 C   0  0  0  0  0  2  0  0  0  0  0  0
   43.5590   22.8040   35.4810 C   0  0  0  0  0  2  0  0  0  0  0  0
   43.7070   21.3240   35.4250 C   0  0  0  0  0  2  0  0  0  0  0  0
   43.3220   20.5930   36.6890 C   0  0  0  0  0  2  0  0  0  0  0  0
   41.9740   21.0330   37.2100 C   0  0  0  0  0  2  0  0  0  0  0  0
  1  7  1  0  0  0  0
  1  6  1  0  0  0  0
  2  3  1  0  0  0  0
  2  1  2  0  0  0  0
  3  4  2  0  0  0  0
  4  5  1  0  0  0  0
  5  6  2  0  0  0  0
  5 20  1  0  0  0  0
  8  3  1  0  0  0  0
  9 10  1  0  0  0  0
  9  2  1  0  0  0  0
 10 17  1  0  0  0  0
 11 18  1  0  0  0  0
 11 10  2  0  0  0  0
 12 11  1  0  0  0  0
 13 12  2  0  0  0  0
 14 12  1  0  0  0  0
 14 15  1  0  0  0  0
 15  9  1  0  0  0  0
 16 15  2  0  0  0  0
 19 14  1  0  0  0  0
 20 21  1  0  0  0  0
 21 22  2  0  0  0  0
 21 26  1  0  0  0  0
 22 23  1  0  0  0  0
 23 28  1  0  0  0  0
 23 24  2  0  0  0  0
 24 29  1  0  0  0  0
 25 24  1  0  0  0  0
 25 30  1  0  0  0  0
 26 25  2  0  0  0  0
 27 22  1  0  0  0  0
 31 32  1  0  0  0  0
 31 26  1  0  0  0  0
 31 36  1  0  0  0  0
 33 32  1  0  0  0  0
 34 33  1  0  0  0  0
 34 35  1  0  0  0  0
 35 36  1  0  0  0  0
M  END
>  <minimizedAffinity>
-5.98402023

$$$$

 OpenBabel03272500093D

 36 39  0  0  0  0  0  0  0  0999 V2000
   38.0010   23.9230   33.3680 C   0  0  0  0  0  0  0  0  0  0  0  0
   38.5140   24.5170   34.5480 C   0  0  0  0  0  0  0  0  0  0  0  0
   38.1660   25.8330   34.8100 C   0  0  0  0  0  0  0  0  0  0  0  0
   37.3560   26.4770   33.9290 N   0  0  0  0  0  0  0  0  0  0  0  0
   36.8810   25.9040   32.8220 C   0  0  0  0  0  0  0  0  0  0  0  0
   37.2030   24.6120   32.5320 N   0  0  0  0  0  0  0  0  0  0  0  0
   38.2670   22.8840   33.1470 H   0  0  0  0  0  0  0  0  0  0  0  0
   38.5440   26.2920   35.6930 H   0  0  0  0  0  0  0  0  0  0  0  0
   39.3490   23.7290   35.3800 N   0  0  0  0  0  0  0  0  0  0  0  0
   40.6780   23.6980   35.2280 C   0  0  0  0  0  0  0  0  0  0  0  0
   41.4400   22.9030   36.0780 C   0  0  0  0  0  0  0  0  0  0  0  0
   40.7270   22.2060   37.0210 C   0  0  0  0  0  0  0  0  0  0  0  0
   41.4110   21.4720   37.8080 O   0  0  0  0  0  0  0  0  0  0  0  0
   39.4220   22.2130   37.1970 N   0  0  0  0  0  0  0  0  0  0  0  0
   38.7020   23.0010   36.3500 C   0  0  0  0  0  0  0  0  0  0  0  0
   37.4480   23.0250   36.5000 O   0  0  0  0  0  0  0  0  0  0  0  0
   41.1650   24.2790   34.4570 H   0  0  0  0  0  0  0  0  0  0  0  0
   42.5180   22.8620   35.9730 H   0  0  0  0  0  0  0  0  0  0  0  0
   38.9530   21.6520   37.9420 H   0  0  0  0  0  0  0  0  0  0  0  0
   36.0460   26.5630   31.9090 O   0  0  0  0  0  0  0  0  0  0  0  0
   36.6210   27.6650   31.2760 C   0  0  0  0  0  0  0  0  0  0  0  0
   37.7060   27.3270   30.4670 C   0  0  0  0  0  0  0  0  0  0  0  0
   38.3920   28.2990   29.7690 C   0  0  0  0  0  0  0  0  0  0  0  0
   37.9890   29.6210   29.8780 C   0  0  0  0  0  0  0  0  0  0  0  0
   36.9180   29.9270   30.6810 C   0  0  0  0  0  0  0  0  0  0  0  0
   36.2110   28.9800   31.3940 C   0  0  0  0  0  0  0  0  0  0  0  0
   38.0700   26.3070   30.3410 H   0  0  0  0  0  0  0  0  0  0  0  0
   39.2330   28.0350   29.1420 H   0  0  0  0  0  0  0  0  0  0  0  0
   38.5570   30.3590   29.3090 H   0  0  0  0  0  0  0  0  0  0  0  0
   36.6530   30.9520   30.7290 H   0  0  0  0  0  0  0  0  0  0  0  0
   35.0800   29.2800   32.2620 C   0  0  0  0  0  3  0  0  0  0  0  0
   35.5140   29.6440   33.6900 C   0  0  0  0  0  2  0  0  0  0  0  0
   34.2730   29.5270   34.5420 C   0  0  0  0  0  2  0  0  0  0  0  0
   33.0170   29.8240   33.8010 C   0  0  0  0  0  2  0  0  0  0  0  0
   33.1580   30.8220   32.6760 C   0  0  0  0  0  2  0  0  0  0  0  0
   34.3180   30.4900   31.7660 C   0  0  0  0  0  2  0  0  0  0  0  0
  1  2  1  0  0  0  0
  2  3  2  0  0  0  0
  2  9  1  0  0  0  0
  3  8  1  0  0  0  0
  4  3  1  0  0  0  0
  5  4  2  0  0  0  0
  6  5  1  0  0  0  0
  6  1  2  0  0  0  0
  7  1  1  0  0  0  0
  9 15  1  0  0  0  0
 10  9  1  0  0  0  0
 10 11  2  0  0  0  0
 11 12  1  0  0  0  0
 12 14  1  0  0  0  0
 12 13  2  0  0  0  0
 14 19  1  0  0  0  0
 15 16  2  0  0  0  0
 15 14  1  0  0  0  0
 17 10  1  0  0  0  0
 18 11  1  0  0  0  0
 20  5  1  0  0  0  0
 21 26  1  0  0  0  0
 21 20  1  0  0  0  0
 22 21  2  0  0  0  0
 23 24  2  0  0  0  0
 23 22  1  0  0  0  0
 24 25  1  0  0  0  0
 25 30  1  0  0  0  0
 25 26  2  0  0  0  0
 26 31  1  0  0  0  0
 27 22  1  0  0  0  0
 28 23  1  0  0  0  0
 29 24  1  0  0  0  0
 31 32  1  0  0  0  0
 32 33  1  0  0  0  0
 34 33  1  0  0  0  0
 35 34  1  0  0  0  0
 36 31  1  0  0  0  0
 36 35  1  0  0  0  0
M  END
>  <minimizedAffinity>
-5.95637703

$$$$

 OpenBabel03272500093D

 36 39  0  0  0  0  0  0  0  0999 V2000
   37.5270   23.8580   32.9480 C   0  0  0  0  0  0  0  0  0  0  0  0
   36.5070   23.4600   32.0490 C   0  0  0  0  0  0  0  0  0  0  0  0
   35.7350   24.4560   31.4700 C   0  0  0  0  0  0  0  0  0  0  0  0
   35.9990   25.7510   31.7930 N   0  0  0  0  0  0  0  0  0  0  0  0
   36.9640   26.1080   32.6420 C   0  0  0  0  0  0  0  0  0  0  0  0
   37.7410   25.1560   33.2300 N   0  0  0  0  0  0  0  0  0  0  0  0
   38.1450   23.0820   33.4130 H   0  0  0  0  0  0  0  0  0  0  0  0
   34.9650   24.1730   30.7920 H   0  0  0  0  0  0  0  0  0  0  0  0
   36.3410   22.0740   31.8020 N   0  0  0  0  0  0  0  0  0  0  0  0
   35.3680   21.3600   32.3810 C   0  0  0  0  0  0  0  0  0  0  0  0
   35.2600   20.0030   32.0950 C   0  0  0  0  0  0  0  0  0  0  0  0
   36.1960   19.5150   31.2180 C   0  0  0  0  0  0  0  0  0  0  0  0
   36.1110   18.2720   30.9460 O   0  0  0  0  0  0  0  0  0  0  0  0
   37.1640   20.1880   30.6320 N   0  0  0  0  0  0  0  0  0  0  0  0
   37.2450   21.5150   30.9310 C   0  0  0  0  0  0  0  0  0  0  0  0
   38.1660   22.1810   30.3810 O   0  0  0  0  0  0  0  0  0  0  0  0
   34.6680   21.8230   33.0640 H   0  0  0  0  0  0  0  0  0  0  0  0
   34.4800   19.4060   32.5520 H   0  0  0  0  0  0  0  0  0  0  0  0
   37.8390   19.7400   29.9730 H   0  0  0  0  0  0  0  0  0  0  0  0
   37.2400   27.4400   32.9790 O   0  0  0  0  0  0  0  0  0  0  0  0
   37.1010   28.3520   31.9340 C   0  0  0  0  0  0  0  0  0  0  0  0
   38.0300   28.1590   30.9110 C   0  0  0  0  0  0  0  0  0  0  0  0
   38.0330   28.9750   29.7990 C   0  0  0  0  0  0  0  0  0  0  0  0
   37.0970   29.9950   29.7080 C   0  0  0  0  0  0  0  0  0  0  0  0
   36.1940   30.1640   30.7280 C   0  0  0  0  0  0  0  0  0  0  0  0
   36.1640   29.3670   31.8530 C   0  0  0  0  0  0  0  0  0  0  0  0
   38.7890   27.3760   30.9250 H   0  0  0  0  0  0  0  0  0  0  0  0
   38.7540   28.8240   29.0070 H   0  0  0  0  0  0  0  0  0  0  0  0
   37.1330   30.6180   28.8130 H   0  0  0  0  0  0  0  0  0  0  0  0
   35.5020   30.9590   30.6070 H   0  0  0  0  0  0  0  0  0  0  0  0
   35.2260   29.5340   32.9550 C   0  0  0  0  0  3  0  0  0  0  0  0
   35.4820   30.8170   33.7580 C   0  0  0  0  0  2  0  0  0  0  0  0
   34.7310   30.6490   35.0580 C   0  0  0  0  0  2  0  0  0  0  0  0
   33.5090   29.8090   34.9290 C   0  0  0  0  0  2  0  0  0  0  0  0
   32.8300   29.8670   33.5820 C   0  0  0  0  0  2  0  0  0  0  0  0
   33.8070   29.6690   32.4460 C   0  0  0  0  0  2  0  0  0  0  0  0
  1  6  1  0  0  0  0
  1  7  1  0  0  0  0
  2  1  2  0  0  0  0
  3  4  2  0  0  0  0
  3  2  1  0  0  0  0
  4  5  1  0  0  0  0
  5 20  1  0  0  0  0
  5  6  2  0  0  0  0
  8  3  1  0  0  0  0
  9  2  1  0  0  0  0
  9 10  1  0  0  0  0
 10 17  1  0  0  0  0
 11 10  2  0  0  0  0
 11 18  1  0  0  0  0
 12 11  1  0  0  0  0
 13 12  2  0  0  0  0
 14 15  1  0  0  0  0
 14 12  1  0  0  0  0
 15  9  1  0  0  0  0
 16 15  2  0  0  0  0
 19 14  1  0  0  0  0
 21 20  1  0  0  0  0
 22 27  1  0  0  0  0
 22 21  2  0  0  0  0
 23 22  1  0  0  0  0
 24 23  2  0  0  0  0
 24 25  1  0  0  0  0
 25 26  2  0  0  0  0
 26 21  1  0  0  0  0
 26 31  1  0  0  0  0
 28 23  1  0  0  0  0
 29 24  1  0  0  0  0
 30 25  1  0  0  0  0
 31 32  1  0  0  0  0
 32 33  1  0  0  0  0
 34 33  1  0  0  0  0
 35 34  1  0  0  0  0
 36 31  1  0  0  0  0
 36 35  1  0  0  0  0
M  END
>  <minimizedAffinity>
-5.83054399

$$$$

 OpenBabel03272500093D

 36 39  0  0  0  0  0  0  0  0999 V2000
   37.6780   26.3620   32.1180 C   0  0  0  0  0  0  0  0  0  0  0  0
   36.4170   26.8680   31.7150 C   0  0  0  0  0  0  0  0  0  0  0  0
   35.5250   25.9800   31.1320 C   0  0  0  0  0  0  0  0  0  0  0  0
   35.9050   24.6830   30.9820 N   0  0  0  0  0  0  0  0  0  0  0  0
   37.0970   24.2240   31.3670 C   0  0  0  0  0  0  0  0  0  0  0  0
   37.9990   25.0670   31.9430 N   0  0  0  0  0  0  0  0  0  0  0  0
   38.3940   27.0520   32.5800 H   0  0  0  0  0  0  0  0  0  0  0  0
   34.5740   26.3450   30.8250 H   0  0  0  0  0  0  0  0  0  0  0  0
   36.1520   28.2430   31.9310 N   0  0  0  0  0  0  0  0  0  0  0  0
   35.7200   28.7060   33.1100 C   0  0  0  0  0  0  0  0  0  0  0  0
   35.4780   30.0690   33.2570 C   0  0  0  0  0  0  0  0  0  0  0  0
   35.7150   30.8270   32.1390 C   0  0  0  0  0  0  0  0  0  0  0  0
   35.4980   32.0780   32.2570 O   0  0  0  0  0  0  0  0  0  0  0  0
   36.1390   30.4050   30.9660 N   0  0  0  0  0  0  0  0  0  0  0  0
   36.3680   29.0660   30.8520 C   0  0  0  0  0  0  0  0  0  0  0  0
   36.7750   28.6370   29.7360 O   0  0  0  0  0  0  0  0  0  0  0  0
   35.5570   28.0390   33.9460 H   0  0  0  0  0  0  0  0  0  0  0  0
   35.1280   30.4660   34.2020 H   0  0  0  0  0  0  0  0  0  0  0  0
   36.2960   31.0500   30.1600 H   0  0  0  0  0  0  0  0  0  0  0  0
   37.4950   22.8880   31.2150 O   0  0  0  0  0  0  0  0  0  0  0  0
   36.7550   21.9670   31.9540 C   0  0  0  0  0  0  0  0  0  0  0  0
   35.7710   21.3250   31.2010 C   0  0  0  0  0  0  0  0  0  0  0  0
   34.9460   20.3820   31.7780 C   0  0  0  0  0  0  0  0  0  0  0  0
   35.1060   20.0760   33.1220 C   0  0  0  0  0  0  0  0  0  0  0  0
   36.0810   20.7220   33.8400 C   0  0  0  0  0  0  0  0  0  0  0  0
   36.9220   21.6700   33.2940 C   0  0  0  0  0  0  0  0  0  0  0  0
   35.5970   21.5210   30.1430 H   0  0  0  0  0  0  0  0  0  0  0  0
   34.1840   19.8850   31.1930 H   0  0  0  0  0  0  0  0  0  0  0  0
   34.4350   19.3250   33.5400 H   0  0  0  0  0  0  0  0  0  0  0  0
   36.1600   20.4510   34.8630 H   0  0  0  0  0  0  0  0  0  0  0  0
   37.9550   22.3800   34.0380 C   0  0  0  0  0  3  0  0  0  0  0  0
   37.7820   22.2500   35.5580 C   0  0  0  0  0  2  0  0  0  0  0  0
   38.6420   23.3310   36.1670 C   0  0  0  0  0  2  0  0  0  0  0  0
   39.8400   23.6630   35.3490 C   0  0  0  0  0  2  0  0  0  0  0  0
   40.3990   22.5190   34.5380 C   0  0  0  0  0  2  0  0  0  0  0  0
   39.3250   21.8030   33.7510 C   0  0  0  0  0  2  0  0  0  0  0  0
  1  7  1  0  0  0  0
  2  9  1  0  0  0  0
  2  1  2  0  0  0  0
  3  2  1  0  0  0  0
  4  3  2  0  0  0  0
  4  5  1  0  0  0  0
  5  6  2  0  0  0  0
  6  1  1  0  0  0  0
  8  3  1  0  0  0  0
  9 10  1  0  0  0  0
 10 11  2  0  0  0  0
 10 17  1  0  0  0  0
 11 18  1  0  0  0  0
 12 13  2  0  0  0  0
 12 11  1  0  0  0  0
 14 12  1  0  0  0  0
 15 14  1  0  0  0  0
 15  9  1  0  0  0  0
 16 15  2  0  0  0  0
 19 14  1  0  0  0  0
 20  5  1  0  0  0  0
 20 21  1  0  0  0  0
 21 26  1  0  0  0  0
 22 23  1  0  0  0  0
 22 21  2  0  0  0  0
 23 24  2  0  0  0  0
 24 29  1  0  0  0  0
 24 25  1  0  0  0  0
 25 30  1  0  0  0  0
 26 25  2  0  0  0  0
 26 31  1  0  0  0  0
 27 22  1  0  0  0  0
 28 23  1  0  0  0  0
 31 32  1  0  0  0  0
 32 33  1  0  0  0  0
 34 33  1  0  0  0  0
 35 34  1  0  0  0  0
 36 31  1  0  0  0  0
 36 35  1  0  0  0  0
M  END
>  <minimizedAffinity>
-5.82666826

$$$$

 OpenBabel03272500093D

 36 39  0  0  0  0  0  0  0  0999 V2000
   36.3490   28.3600   34.5970 C   0  0  0  0  0  0  0  0  0  0  0  0
   35.7700   29.5510   34.0930 C   0  0  0  0  0  0  0  0  0  0  0  0
   35.8500   29.7770   32.7270 C   0  0  0  0  0  0  0  0  0  0  0  0
   36.4750   28.8510   31.9520 N   0  0  0  0  0  0  0  0  0  0  0  0
   37.0160   27.7350   32.4430 C   0  0  0  0  0  0  0  0  0  0  0  0
   36.9560   27.4800   33.7800 N   0  0  0  0  0  0  0  0  0  0  0  0
   36.2930   28.1680   35.6740 H   0  0  0  0  0  0  0  0  0  0  0  0
   35.4190   30.6670   32.3340 H   0  0  0  0  0  0  0  0  0  0  0  0
   35.1490   30.4310   35.0150 N   0  0  0  0  0  0  0  0  0  0  0  0
   35.8460   31.3310   35.7190 C   0  0  0  0  0  0  0  0  0  0  0  0
   35.1740   32.1650   36.6080 C   0  0  0  0  0  0  0  0  0  0  0  0
   33.8170   31.9740   36.6750 C   0  0  0  0  0  0  0  0  0  0  0  0
   33.1880   32.7300   37.4860 O   0  0  0  0  0  0  0  0  0  0  0  0
   33.1020   31.1000   35.9990 N   0  0  0  0  0  0  0  0  0  0  0  0
   33.7860   30.2970   35.1360 C   0  0  0  0  0  0  0  0  0  0  0  0
   33.1210   29.4500   34.4760 O   0  0  0  0  0  0  0  0  0  0  0  0
   36.9180   31.4180   35.6060 H   0  0  0  0  0  0  0  0  0  0  0  0
   35.7180   32.9010   37.1870 H   0  0  0  0  0  0  0  0  0  0  0  0
   32.0670   31.0170   36.1080 H   0  0  0  0  0  0  0  0  0  0  0  0
   37.6620   26.7760   31.6500 O   0  0  0  0  0  0  0  0  0  0  0  0
   37.1040   25.4990   31.7030 C   0  0  0  0  0  0  0  0  0  0  0  0
   35.8560   25.4200   31.0840 C   0  0  0  0  0  0  0  0  0  0  0  0
   35.1640   24.2280   31.0450 C   0  0  0  0  0  0  0  0  0  0  0  0
   35.7240   23.1020   31.6300 C   0  0  0  0  0  0  0  0  0  0  0  0
   36.9540   23.2060   32.2320 C   0  0  0  0  0  0  0  0  0  0  0  0
   37.6720   24.3830   32.2900 C   0  0  0  0  0  0  0  0  0  0  0  0
   35.3640   26.2680   30.6080 H   0  0  0  0  0  0  0  0  0  0  0  0
   34.1970   24.1680   30.5650 H   0  0  0  0  0  0  0  0  0  0  0  0
   35.1460   22.1790   31.5780 H   0  0  0  0  0  0  0  0  0  0  0  0
   37.3350   22.3160   32.6640 H   0  0  0  0  0  0  0  0  0  0  0  0
   38.9710   24.5230   32.9340 C   0  0  0  0  0  3  0  0  0  0  0  0
   38.8800   24.4560   34.4660 C   0  0  0  0  0  2  0  0  0  0  0  0
   40.1860   25.0090   34.9830 C   0  0  0  0  0  2  0  0  0  0  0  0
   41.3340   24.7690   34.0650 C   0  0  0  0  0  2  0  0  0  0  0  0
   41.2370   23.5130   33.2330 C   0  0  0  0  0  2  0  0  0  0  0  0
   39.8960   23.3870   32.5490 C   0  0  0  0  0  2  0  0  0  0  0  0
  1  7  1  0  0  0  0
  2  1  1  0  0  0  0
  2  9  1  0  0  0  0
  3  2  2  0  0  0  0
  4  5  2  0  0  0  0
  4  3  1  0  0  0  0
  5  6  1  0  0  0  0
  6  1  2  0  0  0  0
  8  3  1  0  0  0  0
  9 15  1  0  0  0  0
  9 10  1  0  0  0  0
 10 11  2  0  0  0  0
 11 12  1  0  0  0  0
 11 18  1  0  0  0  0
 12 13  2  0  0  0  0
 14 19  1  0  0  0  0
 14 12  1  0  0  0  0
 15 14  1  0  0  0  0
 16 15  2  0  0  0  0
 17 10  1  0  0  0  0
 20 21  1  0  0  0  0
 20  5  1  0  0  0  0
 21 26  1  0  0  0  0
 22 21  2  0  0  0  0
 23 22  1  0  0  0  0
 23 24  2  0  0  0  0
 24 25  1  0  0  0  0
 25 26  2  0  0  0  0
 25 30  1  0  0  0  0
 26 31  1  0  0  0  0
 27 22  1  0  0  0  0
 28 23  1  0  0  0  0
 29 24  1  0  0  0  0
 31 32  1  0  0  0  0
 32 33  1  0  0  0  0
 34 33  1  0  0  0  0
 35 34  1  0  0  0  0
 36 31  1  0  0  0  0
 36 35  1  0  0  0  0
M  END
>  <minimizedAffinity>
-5.69874811

$$$$

 OpenBabel03272500093D

 36 39  0  0  0  0  0  0  0  0999 V2000
   38.3180   27.5110   32.2270 C   0  0  0  0  0  0  0  0  0  0  0  0
   36.9290   27.6220   31.9660 C   0  0  0  0  0  0  0  0  0  0  0  0
   36.1830   26.4540   31.9520 C   0  0  0  0  0  0  0  0  0  0  0  0
   36.8180   25.2750   32.1880 N   0  0  0  0  0  0  0  0  0  0  0  0
   38.1260   25.1880   32.4310 C   0  0  0  0  0  0  0  0  0  0  0  0
   38.8920   26.3150   32.4520 N   0  0  0  0  0  0  0  0  0  0  0  0
   38.9210   28.4260   32.2410 H   0  0  0  0  0  0  0  0  0  0  0  0
   35.1380   26.5210   31.7580 H   0  0  0  0  0  0  0  0  0  0  0  0
   36.3970   28.9150   31.7370 N   0  0  0  0  0  0  0  0  0  0  0  0
   35.8890   29.6600   32.7270 C   0  0  0  0  0  0  0  0  0  0  0  0
   35.3810   30.9220   32.4340 C   0  0  0  0  0  0  0  0  0  0  0  0
   35.4550   31.2900   31.1140 C   0  0  0  0  0  0  0  0  0  0  0  0
   34.9940   32.4440   30.8300 O   0  0  0  0  0  0  0  0  0  0  0  0
   35.9480   30.5830   30.1180 N   0  0  0  0  0  0  0  0  0  0  0  0
   36.4370   29.3510   30.4350 C   0  0  0  0  0  0  0  0  0  0  0  0
   36.9140   28.6550   29.4950 O   0  0  0  0  0  0  0  0  0  0  0  0
   35.8680   29.2950   33.7450 H   0  0  0  0  0  0  0  0  0  0  0  0
   34.9660   31.5420   33.2190 H   0  0  0  0  0  0  0  0  0  0  0  0
   35.9670   30.9360   29.1350 H   0  0  0  0  0  0  0  0  0  0  0  0
   38.7880   23.9760   32.6740 O   0  0  0  0  0  0  0  0  0  0  0  0
   38.5870   23.4430   33.9470 C   0  0  0  0  0  0  0  0  0  0  0  0
   39.3140   24.1030   34.9380 C   0  0  0  0  0  0  0  0  0  0  0  0
   39.2310   23.7030   36.2560 C   0  0  0  0  0  0  0  0  0  0  0  0
   38.4140   22.6320   36.5870 C   0  0  0  0  0  0  0  0  0  0  0  0
   37.7100   22.0000   35.5920 C   0  0  0  0  0  0  0  0  0  0  0  0
   37.7700   22.3740   34.2650 C   0  0  0  0  0  0  0  0  0  0  0  0
   39.9720   24.9490   34.7410 H   0  0  0  0  0  0  0  0  0  0  0  0
   39.7950   24.2160   37.0230 H   0  0  0  0  0  0  0  0  0  0  0  0
   38.3760   22.3480   37.6390 H   0  0  0  0  0  0  0  0  0  0  0  0
   37.1010   21.1880   35.9000 H   0  0  0  0  0  0  0  0  0  0  0  0
   37.0440   21.7110   33.1900 C   0  0  0  0  0  3  0  0  0  0  0  0
   37.9210   20.7210   32.4090 C   0  0  0  0  0  2  0  0  0  0  0  0
   37.1800   20.4350   31.1250 C   0  0  0  0  0  2  0  0  0  0  0  0
   35.7010   20.5250   31.2640 C   0  0  0  0  0  2  0  0  0  0  0  0
   35.1620   20.1660   32.6280 C   0  0  0  0  0  2  0  0  0  0  0  0
   35.9050   20.8760   33.7360 C   0  0  0  0  0  2  0  0  0  0  0  0
  1  7  1  0  0  0  0
  1  6  1  0  0  0  0
  2  1  2  0  0  0  0
  3  2  1  0  0  0  0
  3  4  2  0  0  0  0
  4  5  1  0  0  0  0
  5  6  2  0  0  0  0
  5 20  1  0  0  0  0
  8  3  1  0  0  0  0
  9  2  1  0  0  0  0
  9 10  1  0  0  0  0
 10 17  1  0  0  0  0
 11 10  2  0  0  0  0
 11 18  1  0  0  0  0
 12 11  1  0  0  0  0
 13 12  2  0  0  0  0
 14 15  1  0  0  0  0
 14 12  1  0  0  0  0
 15  9  1  0  0  0  0
 16 15  2  0  0  0  0
 19 14  1  0  0  0  0
 20 21  1  0  0  0  0
 21 26  2  0  0  0  0
 21 22  1  0  0  0  0
 22 23  2  0  0  0  0
 23 24  1  0  0  0  0
 23 28  1  0  0  0  0
 24 29  1  0  0  0  0
 25 30  1  0  0  0  0
 25 24  2  0  0  0  0
 26 25  1  0  0  0  0
 27 22  1  0  0  0  0
 31 36  1  0  0  0  0
 31 26  1  0  0  0  0
 32 31  1  0  0  0  0
 33 34  1  0  0  0  0
 33 32  1  0  0  0  0
 34 35  1  0  0  0  0
 35 36  1  0  0  0  0
M  END
>  <minimizedAffinity>
-5.66897058

$$$$

 OpenBabel03272500093D

 36 39  0  0  0  0  0  0  0  0999 V2000
   37.8050   25.4900   34.2820 C   0  0  0  0  0  0  0  0  0  0  0  0
   38.3790   24.2380   33.9490 C   0  0  0  0  0  0  0  0  0  0  0  0
   38.1110   23.7230   32.6890 C   0  0  0  0  0  0  0  0  0  0  0  0
   37.3200   24.4430   31.8490 N   0  0  0  0  0  0  0  0  0  0  0  0
   36.7880   25.6200   32.1790 C   0  0  0  0  0  0  0  0  0  0  0  0
   37.0290   26.1570   33.4080 N   0  0  0  0  0  0  0  0  0  0  0  0
   38.0080   25.9100   35.2740 H   0  0  0  0  0  0  0  0  0  0  0  0
   38.5350   22.7840   32.4240 H   0  0  0  0  0  0  0  0  0  0  0  0
   39.1850   23.5960   34.9210 N   0  0  0  0  0  0  0  0  0  0  0  0
   40.4530   23.9600   35.1470 C   0  0  0  0  0  0  0  0  0  0  0  0
   41.1910   23.2880   36.1160 C   0  0  0  0  0  0  0  0  0  0  0  0
   40.5200   22.2830   36.7670 C   0  0  0  0  0  0  0  0  0  0  0  0
   41.1830   21.6580   37.6590 O   0  0  0  0  0  0  0  0  0  0  0  0
   39.2760   21.9000   36.5710 N   0  0  0  0  0  0  0  0  0  0  0  0
   38.5780   22.5770   35.6150 C   0  0  0  0  0  0  0  0  0  0  0  0
   37.3830   22.2260   35.4090 O   0  0  0  0  0  0  0  0  0  0  0  0
   40.9100   24.7660   34.5880 H   0  0  0  0  0  0  0  0  0  0  0  0
   42.2190   23.5670   36.3150 H   0  0  0  0  0  0  0  0  0  0  0  0
   38.8370   21.1220   37.1110 H   0  0  0  0  0  0  0  0  0  0  0  0
   35.9710   26.3670   31.3180 O   0  0  0  0  0  0  0  0  0  0  0  0
   36.0850   27.7500   31.4540 C   0  0  0  0  0  0  0  0  0  0  0  0
   35.1000   28.3020   32.2730 C   0  0  0  0  0  0  0  0  0  0  0  0
   35.0660   29.6600   32.5140 C   0  0  0  0  0  0  0  0  0  0  0  0
   36.0260   30.4750   31.9300 C   0  0  0  0  0  0  0  0  0  0  0  0
   36.9830   29.9050   31.1280 C   0  0  0  0  0  0  0  0  0  0  0  0
   37.0460   28.5520   30.8660 C   0  0  0  0  0  0  0  0  0  0  0  0
   34.3200   27.7160   32.7590 H   0  0  0  0  0  0  0  0  0  0  0  0
   34.3020   30.0880   33.1490 H   0  0  0  0  0  0  0  0  0  0  0  0
   35.9640   31.5420   32.1460 H   0  0  0  0  0  0  0  0  0  0  0  0
   37.6920   30.5730   30.7070 H   0  0  0  0  0  0  0  0  0  0  0  0
   38.0430   27.9250   30.0080 C   0  0  0  0  0  3  0  0  0  0  0  0
   38.4730   28.8310   28.8460 C   0  0  0  0  0  2  0  0  0  0  0  0
   39.1670   27.9290   27.8530 C   0  0  0  0  0  2  0  0  0  0  0  0
   39.8500   26.7680   28.4860 C   0  0  0  0  0  2  0  0  0  0  0  0
   40.3660   27.0130   29.8840 C   0  0  0  0  0  2  0  0  0  0  0  0
   39.3180   27.6410   30.7730 C   0  0  0  0  0  2  0  0  0  0  0  0
  1  7  1  0  0  0  0
  2  1  1  0  0  0  0
  2  9  1  0  0  0  0
  3  2  2  0  0  0  0
  4  5  2  0  0  0  0
  4  3  1  0  0  0  0
  5  6  1  0  0  0  0
  6  1  2  0  0  0  0
  8  3  1  0  0  0  0
  9 10  1  0  0  0  0
  9 15  1  0  0  0  0
 10 11  2  0  0  0  0
 11 18  1  0  0  0  0
 11 12  1  0  0  0  0
 12 13  2  0  0  0  0
 14 12  1  0  0  0  0
 14 19  1  0  0  0  0
 15 14  1  0  0  0  0
 16 15  2  0  0  0  0
 17 10  1  0  0  0  0
 20 21  1  0  0  0  0
 20  5  1  0  0  0  0
 21 22  1  0  0  0  0
 22 23  2  0  0  0  0
 22 27  1  0  0  0  0
 23 28  1  0  0  0  0
 24 29  1  0  0  0  0
 24 23  1  0  0  0  0
 25 24  2  0  0  0  0
 26 25  1  0  0  0  0
 26 21  2  0  0  0  0
 30 25  1  0  0  0  0
 31 36  1  0  0  0  0
 31 26  1  0  0  0  0
 32 31  1  0  0  0  0
 33 34  1  0  0  0  0
 33 32  1  0  0  0  0
 34 35  1  0  0  0  0
 35 36  1  0  0  0  0
M  END
>  <minimizedAffinity>
-5.65982819

$$$$
