
 OpenBabel03272508123D

 31 33  0  0  0  0  0  0  0  0999 V2000
   36.6720   29.4270   44.0100 Cl  0  0  0  0  0  0  0  0  0  0  0  0
   38.3280   29.8280   43.4890 C   0  0  0  0  0  0  0  0  0  0  0  0
   39.3180   30.3170   44.3430 C   0  0  0  0  0  0  0  0  0  0  0  0
   40.5520   30.5810   43.7950 C   0  0  0  0  0  0  0  0  0  0  0  0
   40.8010   30.3740   42.4600 C   0  0  0  0  0  0  0  0  0  0  0  0
   39.8400   29.8950   41.6070 C   0  0  0  0  0  0  0  0  0  0  0  0
   38.6110   29.6260   42.1260 C   0  0  0  0  0  0  0  0  0  0  0  0
   41.2690   30.9550   44.5140 H   0  0  0  0  0  0  0  0  0  0  0  0
   41.7890   30.5990   42.0800 H   0  0  0  0  0  0  0  0  0  0  0  0
   40.0460   29.7350   40.5500 H   0  0  0  0  0  0  0  0  0  0  0  0
   37.5430   29.1020   41.2120 C   0  0  0  0  0  3  0  0  0  0  0  0
   38.2290   28.0220   40.3900 C   0  0  0  0  0  2  0  0  0  0  0  0
   37.2660   27.5170   39.3650 C   0  0  0  0  0  2  0  0  0  0  0  0
   35.8490   27.9680   39.6190 C   0  0  0  0  0  2  0  0  0  0  0  0
   35.7350   29.4760   39.6720 C   0  0  0  0  0  2  0  0  0  0  0  0
   36.9480   30.1280   40.3170 C   0  0  0  0  0  2  0  0  0  0  0  0
   38.8780   30.4540   45.6300 O   0  0  0  0  0  0  0  0  0  0  0  0
   39.4340   32.5070   47.0990 O   0  0  0  0  0  0  0  0  0  0  0  0
   38.2940   31.8320   46.4060 P   0  0  1  0  0  0  0  0  0  0  0  0
   37.7070   32.8410   45.1630 O   0  0  0  0  0  0  0  0  0  0  0  0
   37.4800   32.3480   44.3450 H   0  0  0  0  0  0  0  0  0  0  0  0
   37.0180   31.4000   47.4320 O   0  0  0  0  0  0  0  0  0  0  0  0
   37.6140   30.5310   50.9780 C   0  0  0  0  0  0  0  0  0  0  0  0
   37.6990   31.2930   49.8110 C   0  0  0  0  0  0  0  0  0  0  0  0
   37.0680   30.8360   48.6560 C   0  0  0  0  0  0  0  0  0  0  0  0
   36.3890   29.6440   48.7380 N   0  0  0  0  0  0  0  0  0  0  0  0
   36.3300   28.9380   49.8840 C   0  0  0  0  0  0  0  0  0  0  0  0
   36.9400   29.3840   50.9940 N   0  0  0  0  0  0  0  0  0  0  0  0
   38.1360   30.9610   51.8370 H   0  0  0  0  0  0  0  0  0  0  0  0
   38.2070   32.2280   49.6650 H   0  0  0  0  0  0  0  0  0  0  0  0
   35.7760   27.9870   49.9120 H   0  0  0  0  0  0  0  0  0  0  0  0
  2  1  1  0  0  0  0
  2  3  1  0  0  0  0
  3 17  1  0  0  0  0
  4  3  2  0  0  0  0
  4  8  1  0  0  0  0
  5  4  1  0  0  0  0
  6  7  1  0  0  0  0
  6  5  2  0  0  0  0
  7  2  2  0  0  0  0
  9  5  1  0  0  0  0
 10  6  1  0  0  0  0
 11  7  1  0  0  0  0
 12 11  1  0  0  0  0
 13 14  1  0  0  0  0
 13 12  1  0  0  0  0
 14 15  1  0  0  0  0
 15 16  1  0  0  0  0
 16 11  1  0  0  0  0
 17 19  1  0  0  0  0
 19 18  2  1  0  0  0
 19 22  1  0  0  0  0
 20 19  1  0  0  0  0
 21 20  1  0  0  0  0
 22 25  1  0  0  0  0
 23 28  1  0  0  0  0
 23 29  1  0  0  0  0
 24 23  2  0  0  0  0
 25 26  2  0  0  0  0
 25 24  1  0  0  0  0
 26 27  1  0  0  0  0
 27 31  1  0  0  0  0
 27 28  2  0  0  0  0
 30 24  1  0  0  0  0
M  END
>  <minimizedAffinity>
-4.81571293

>  <minimizedRMSD>
0.0947058871

$$$$
