
 OpenBabel03272510273D

 42 46  0  0  1  0  0  0  0  0999 V2000
   36.2430   30.1750   46.9650 C   0  0  0  0  0  0  0  0  0  0  0  0
   37.0620   30.7640   47.9260 C   0  0  0  0  0  0  0  0  0  0  0  0
   38.0410   31.6960   47.5750 C   0  0  0  0  0  0  0  0  0  0  0  0
   38.1420   31.9930   46.2230 C   0  0  0  0  0  0  0  0  0  0  0  0
   39.0180   32.8650   45.6360 N   0  0  0  0  0  0  0  0  0  0  0  0
   38.7540   32.8260   44.3180 C   0  0  0  0  0  0  0  0  0  0  0  0
   37.7750   31.9860   44.0670 N   0  0  0  0  0  0  0  0  0  0  0  0
   37.3540   31.4350   45.2370 C   0  0  0  0  0  0  0  0  0  0  0  0
   36.3820   30.5050   45.6220 C   0  0  0  0  0  0  0  0  0  0  0  0
   35.4940   29.4640   47.2300 H   0  0  0  0  0  0  0  0  0  0  0  0
   38.6590   32.1360   48.3280 H   0  0  0  0  0  0  0  0  0  0  0  0
   39.7390   33.4370   46.1300 H   0  0  0  0  0  0  0  0  0  0  0  0
   35.7740   30.0780   44.8470 H   0  0  0  0  0  0  0  0  0  0  0  0
   37.4300   30.1120   51.5940 C   0  0  0  0  0  0  0  0  0  0  0  0
   37.7600   30.5750   50.3370 C   0  0  0  0  0  0  0  0  0  0  0  0
   36.8560   30.3480   49.3050 C   0  0  0  0  0  0  0  0  0  0  0  0
   35.7060   29.6860   49.6060 N   0  0  0  0  0  0  0  0  0  0  0  0
   35.4000   29.2420   50.8390 C   0  0  0  0  0  0  0  0  0  0  0  0
   36.2690   29.4620   51.8200 N   0  0  0  0  0  0  0  0  0  0  0  0
   38.1570   30.3040   52.3790 H   0  0  0  0  0  0  0  0  0  0  0  0
   38.6660   31.0950   50.1070 H   0  0  0  0  0  0  0  0  0  0  0  0
   34.4770   28.7240   51.0230 H   0  0  0  0  0  0  0  0  0  0  0  0
   39.4760   33.6100   43.4050 O   0  0  0  0  0  0  0  0  0  0  0  0
   39.7580   31.8750   41.9470 N   0  0  0  0  0  0  0  0  0  0  0  0
   39.3070   33.2810   42.0300 C   0  0  1  0  0  0  0  0  0  0  0  0
   37.9110   33.3460   41.6160 C   0  0  0  0  0  0  0  0  0  0  0  0
   37.8300   32.9900   40.2570 O   0  0  0  0  0  0  0  0  0  0  0  0
   38.3630   31.7750   39.9410 C   0  0  0  0  0  0  0  0  0  0  0  0
   39.7280   31.5500   40.5370 C   0  0  2  0  0  0  0  0  0  0  0  0
   40.7580   31.9110   42.2550 H   0  0  0  0  0  0  0  0  0  0  0  0
   39.9180   33.9200   41.3730 H   0  0  0  0  0  0  0  0  0  0  0  0
   37.1090   32.8300   42.0660 H   0  0  0  0  0  0  0  0  0  0  0  0
   37.6210   34.4420   41.6040 H   0  0  0  0  0  0  0  0  0  0  0  0
   38.4630   31.7450   38.8380 H   0  0  0  0  0  0  0  0  0  0  0  0
   37.6890   30.9170   40.1970 H   0  0  0  0  0  0  0  0  0  0  0  0
   40.4810   32.1870   40.0450 H   0  0  0  0  0  0  0  0  0  0  0  0
   40.0750   30.0790   40.4080 C   0  0  0  0  0  3  0  0  0  0  0  0
   39.2160   29.3770   39.3910 C   0  0  0  0  0  2  0  0  0  0  0  0
   40.0020   28.6500   38.3290 C   0  0  0  0  0  2  0  0  0  0  0  0
   41.0020   27.6780   38.9110 C   0  0  0  0  0  2  0  0  0  0  0  0
   41.7760   28.3820   40.0000 C   0  0  0  0  0  2  0  0  0  0  0  0
   41.5070   29.8730   39.9940 C   0  0  0  0  0  2  0  0  0  0  0  0
  1 10  1  0  0  0  0
  1  2  1  0  0  0  0
  2 16  1  0  0  0  0
  3  2  2  0  0  0  0
  3 11  1  0  0  0  0
  4  3  1  0  0  0  0
  5 12  1  0  0  0  0
  5  4  1  0  0  0  0
  6  5  1  0  0  0  0
  7  6  2  0  0  0  0
  7  8  1  0  0  0  0
  8  9  1  0  0  0  0
  8  4  2  0  0  0  0
  9  1  2  0  0  0  0
 13  9  1  0  0  0  0
 14 19  1  0  0  0  0
 14 20  1  0  0  0  0
 15 14  2  0  0  0  0
 16 17  2  0  0  0  0
 16 15  1  0  0  0  0
 17 18  1  0  0  0  0
 18 22  1  0  0  0  0
 18 19  2  0  0  0  0
 21 15  1  0  0  0  0
 23  6  1  0  0  0  0
 24 25  1  0  0  0  0
 24 30  1  0  0  0  0
 25 31  1  6  0  0  0
 25 23  1  0  0  0  0
 26 25  1  0  0  0  0
 26 32  1  0  0  0  0
 27 26  1  0  0  0  0
 28 35  1  0  0  0  0
 28 27  1  0  0  0  0
 28 29  1  0  0  0  0
 29 36  1  6  0  0  0
 29 24  1  0  0  0  0
 33 26  1  0  0  0  0
 34 28  1  0  0  0  0
 37 29  1  0  0  0  0
 38 37  1  0  0  0  0
 39 40  1  0  0  0  0
 39 38  1  0  0  0  0
 40 41  1  0  0  0  0
 42 41  1  0  0  0  0
 42 37  1  0  0  0  0
M  END
>  <minimizedAffinity>
-5.95900536

>  <minimizedRMSD>
0.347700387

$$$$
