
 OpenBabel03262520533D

 22 24  0  0  1  0  0  0  0  0999 V2000
   38.4600   26.4090   34.7370 C   0  0  2  0  0  0  0  0  0  0  0  0
   38.2020   27.1600   35.9830 C   0  0  0  0  0  0  0  0  0  0  0  0
   38.7240   25.7460   36.0260 C   0  0  1  0  0  0  0  0  0  0  0  0
   37.5620   26.1340   34.1660 H   0  0  0  0  0  0  0  0  0  0  0  0
   38.8500   28.0070   36.2540 H   0  0  0  0  0  0  0  0  0  0  0  0
   37.1610   27.2500   36.3330 H   0  0  0  0  0  0  0  0  0  0  0  0
   39.7870   25.6430   36.3320 H   0  0  0  0  0  0  0  0  0  0  0  0
   40.5760   27.2940   31.7920 C   0  0  0  0  0  0  0  0  0  0  0  0
   41.8370   27.4070   32.3840 C   0  0  0  0  0  0  0  0  0  0  0  0
   41.9660   27.1750   33.7840 C   0  0  0  0  0  0  0  0  0  0  0  0
   40.8530   26.8560   34.4760 N   0  0  0  0  0  0  0  0  0  0  0  0
   39.6360   26.7510   33.8740 C   0  0  0  0  0  0  0  0  0  0  0  0
   39.4900   26.9680   32.5390 N   0  0  0  0  0  0  0  0  0  0  0  0
   40.4120   27.4560   30.7390 H   0  0  0  0  0  0  0  0  0  0  0  0
   42.6820   27.6680   31.7600 H   0  0  0  0  0  0  0  0  0  0  0  0
   42.9470   27.2660   34.2300 H   0  0  0  0  0  0  0  0  0  0  0  0
   37.8560   24.6120   36.5160 C   0  0  1  0  0  3  0  0  0  0  0  0
   38.0630   23.4310   35.6360 C   0  0  0  0  0  3  0  0  0  0  0  0
   39.0350   22.4190   36.1430 C   0  0  0  0  0  3  0  0  0  0  0  0
   39.8360   22.8490   37.3240 C   0  0  0  0  0  2  0  0  0  0  0  0
   38.9150   23.3280   38.3980 C   0  0  0  0  0  3  0  0  0  0  0  0
   37.9470   24.3820   37.9780 C   0  0  0  0  0  3  0  0  0  0  0  0
  1  4  1  6  0  0  0
  1  2  1  0  0  0  0
  1  3  1  0  0  0  0
  2  3  1  0  0  0  0
  2  5  1  0  0  0  0
  2  6  1  0  0  0  0
  3  7  1  1  0  0  0
  3 17  1  0  0  0  0
  8  9  2  0  0  0  0
  8 13  1  0  0  0  0
  9 10  1  0  0  0  0
 10 16  1  0  0  0  0
 10 11  2  0  0  0  0
 12 11  1  0  0  0  0
 12  1  1  0  0  0  0
 13 12  2  0  0  0  0
 14  8  1  0  0  0  0
 15  9  1  0  0  0  0
 17 18  1  6  0  0  0
 17 22  1  0  0  0  0
 18 19  2  0  0  0  0
 19 20  1  0  0  0  0
 20 21  1  0  0  0  0
 22 21  2  0  0  0  0
M  END
>  <minimizedAffinity>
-4.66872168

$$$$

 OpenBabel03262520533D

 22 24  0  0  1  0  0  0  0  0999 V2000
   38.7130   22.7380   33.6480 C   0  0  2  0  0  0  0  0  0  0  0  0
   39.8830   21.8430   33.7620 C   0  0  0  0  0  0  0  0  0  0  0  0
   39.1670   22.3420   34.9920 C   0  0  1  0  0  0  0  0  0  0  0  0
   38.9360   23.7500   33.2820 H   0  0  0  0  0  0  0  0  0  0  0  0
   39.7980   20.7910   33.4510 H   0  0  0  0  0  0  0  0  0  0  0  0
   40.8880   22.2780   33.6380 H   0  0  0  0  0  0  0  0  0  0  0  0
   38.5580   21.5820   35.5270 H   0  0  0  0  0  0  0  0  0  0  0  0
   35.6600   22.1140   31.5910 C   0  0  0  0  0  0  0  0  0  0  0  0
   35.0000   21.1550   32.3650 C   0  0  0  0  0  0  0  0  0  0  0  0
   35.5920   20.7270   33.5880 C   0  0  0  0  0  0  0  0  0  0  0  0
   36.7730   21.2730   33.9430 N   0  0  0  0  0  0  0  0  0  0  0  0
   37.3940   22.2070   33.1710 C   0  0  0  0  0  0  0  0  0  0  0  0
   36.8480   22.6310   32.0000 N   0  0  0  0  0  0  0  0  0  0  0  0
   35.2660   22.4790   30.6570 H   0  0  0  0  0  0  0  0  0  0  0  0
   34.0550   20.7630   32.0110 H   0  0  0  0  0  0  0  0  0  0  0  0
   35.0710   19.9840   34.1770 H   0  0  0  0  0  0  0  0  0  0  0  0
   39.8200   23.3350   35.9220 C   0  0  1  0  0  3  0  0  0  0  0  0
   39.1820   24.6650   35.7340 C   0  0  0  0  0  3  0  0  0  0  0  0
   38.1120   25.0050   36.7180 C   0  0  0  0  0  3  0  0  0  0  0  0
   37.6690   23.8760   37.5850 C   0  0  0  0  0  2  0  0  0  0  0  0
   38.8610   23.2630   38.2430 C   0  0  0  0  0  3  0  0  0  0  0  0
   39.9530   22.8470   37.3160 C   0  0  0  0  0  3  0  0  0  0  0  0
  1  4  1  6  0  0  0
  1  2  1  0  0  0  0
  1  3  1  0  0  0  0
  2  3  1  0  0  0  0
  3  7  1  1  0  0  0
  3 17  1  0  0  0  0
  5  2  1  0  0  0  0
  6  2  1  0  0  0  0
  8 13  2  0  0  0  0
  8  9  1  0  0  0  0
  9 10  2  0  0  0  0
 10 11  1  0  0  0  0
 10 16  1  0  0  0  0
 12  1  1  0  0  0  0
 12 11  2  0  0  0  0
 13 12  1  0  0  0  0
 14  8  1  0  0  0  0
 15  9  1  0  0  0  0
 17 18  1  1  0  0  0
 17 22  1  0  0  0  0
 18 19  2  0  0  0  0
 19 20  1  0  0  0  0
 20 21  1  0  0  0  0
 22 21  2  0  0  0  0
M  END
>  <minimizedAffinity>
-4.48894119

$$$$

 OpenBabel03262520533D

 22 24  0  0  1  0  0  0  0  0999 V2000
   38.2980   25.8420   34.0270 C   0  0  2  0  0  0  0  0  0  0  0  0
   37.7900   27.2260   34.1180 C   0  0  0  0  0  0  0  0  0  0  0  0
   37.0590   26.1850   33.3070 C   0  0  1  0  0  0  0  0  0  0  0  0
   39.2330   25.7270   33.4620 H   0  0  0  0  0  0  0  0  0  0  0  0
   37.3730   27.5930   35.0680 H   0  0  0  0  0  0  0  0  0  0  0  0
   38.2690   28.0010   33.4990 H   0  0  0  0  0  0  0  0  0  0  0  0
   36.1040   25.8260   33.7470 H   0  0  0  0  0  0  0  0  0  0  0  0
   38.0320   24.5230   37.5090 C   0  0  0  0  0  0  0  0  0  0  0  0
   37.9590   23.1470   37.2760 C   0  0  0  0  0  0  0  0  0  0  0  0
   38.0070   22.6700   35.9340 C   0  0  0  0  0  0  0  0  0  0  0  0
   38.1210   23.5790   34.9450 N   0  0  0  0  0  0  0  0  0  0  0  0
   38.1910   24.9150   35.2000 C   0  0  0  0  0  0  0  0  0  0  0  0
   38.1470   25.3930   36.4730 N   0  0  0  0  0  0  0  0  0  0  0  0
   38.0010   24.9470   38.4990 H   0  0  0  0  0  0  0  0  0  0  0  0
   37.8680   22.4810   38.1240 H   0  0  0  0  0  0  0  0  0  0  0  0
   37.9490   21.6020   35.7680 H   0  0  0  0  0  0  0  0  0  0  0  0
   37.0240   26.2590   31.8000 C   0  0  1  0  0  3  0  0  0  0  0  0
   37.7870   25.1110   31.2430 C   0  0  0  0  0  3  0  0  0  0  0  0
   36.9650   23.9330   30.8380 C   0  0  0  0  0  3  0  0  0  0  0  0
   35.5410   23.9770   31.2740 C   0  0  0  0  0  2  0  0  0  0  0  0
   34.9280   25.2650   30.8330 C   0  0  0  0  0  3  0  0  0  0  0  0
   35.6680   26.4930   31.2480 C   0  0  0  0  0  3  0  0  0  0  0  0
  1  4  1  6  0  0  0
  1  2  1  0  0  0  0
  1 12  1  0  0  0  0
  2  5  1  0  0  0  0
  3  7  1  1  0  0  0
  3  1  1  0  0  0  0
  3  2  1  0  0  0  0
  6  2  1  0  0  0  0
  8 14  1  0  0  0  0
  9  8  1  0  0  0  0
  9 15  1  0  0  0  0
 10  9  2  0  0  0  0
 11 12  2  0  0  0  0
 11 10  1  0  0  0  0
 12 13  1  0  0  0  0
 13  8  2  0  0  0  0
 16 10  1  0  0  0  0
 17 18  1  6  0  0  0
 17  3  1  0  0  0  0
 19 18  2  0  0  0  0
 19 20  1  0  0  0  0
 21 22  2  0  0  0  0
 21 20  1  0  0  0  0
 22 17  1  0  0  0  0
M  END
>  <minimizedAffinity>
-4.43426085

$$$$

 OpenBabel03262520533D

 22 24  0  0  1  0  0  0  0  0999 V2000
   36.4740   24.8240   31.4440 C   0  0  2  0  0  0  0  0  0  0  0  0
   35.1650   24.7650   30.7610 C   0  0  0  0  0  0  0  0  0  0  0  0
   35.5640   23.7110   31.7630 C   0  0  1  0  0  0  0  0  0  0  0  0
   37.3440   24.6390   30.7990 H   0  0  0  0  0  0  0  0  0  0  0  0
   34.3890   25.5060   31.0030 H   0  0  0  0  0  0  0  0  0  0  0  0
   35.1320   24.3890   29.7250 H   0  0  0  0  0  0  0  0  0  0  0  0
   35.0300   23.7580   32.7370 H   0  0  0  0  0  0  0  0  0  0  0  0
   36.5670   28.0350   33.3480 C   0  0  0  0  0  0  0  0  0  0  0  0
   37.2030   27.6350   34.5270 C   0  0  0  0  0  0  0  0  0  0  0  0
   37.6040   26.2760   34.6700 C   0  0  0  0  0  0  0  0  0  0  0  0
   37.3480   25.4320   33.6500 N   0  0  0  0  0  0  0  0  0  0  0  0
   36.7270   25.8470   32.5110 C   0  0  0  0  0  0  0  0  0  0  0  0
   36.3360   27.1400   32.3520 N   0  0  0  0  0  0  0  0  0  0  0  0
   36.2400   29.0470   33.1780 H   0  0  0  0  0  0  0  0  0  0  0  0
   37.3720   28.3730   35.3000 H   0  0  0  0  0  0  0  0  0  0  0  0
   38.0950   25.9800   35.5870 H   0  0  0  0  0  0  0  0  0  0  0  0
   35.8700   22.2990   31.3260 C   0  0  1  0  0  3  0  0  0  0  0  0
   37.3370   22.0730   31.4190 C   0  0  0  0  0  3  0  0  0  0  0  0
   37.8010   21.3960   32.6650 C   0  0  0  0  0  3  0  0  0  0  0  0
   36.7720   21.2690   33.7360 C   0  0  0  0  0  2  0  0  0  0  0  0
   35.5490   20.6240   33.1710 C   0  0  0  0  0  3  0  0  0  0  0  0
   34.9940   21.2790   31.9510 C   0  0  0  0  0  3  0  0  0  0  0  0
  1  4  1  6  0  0  0
  1  3  1  0  0  0  0
  1 12  1  0  0  0  0
  2  5  1  0  0  0  0
  2  1  1  0  0  0  0
  2  3  1  0  0  0  0
  3  7  1  1  0  0  0
  6  2  1  0  0  0  0
  8  9  1  0  0  0  0
  9 10  2  0  0  0  0
  9 15  1  0  0  0  0
 10 16  1  0  0  0  0
 11 10  1  0  0  0  0
 12 11  2  0  0  0  0
 13 12  1  0  0  0  0
 13  8  2  0  0  0  0
 14  8  1  0  0  0  0
 17 18  1  1  0  0  0
 17  3  1  0  0  0  0
 17 22  1  0  0  0  0
 18 19  2  0  0  0  0
 19 20  1  0  0  0  0
 21 20  1  0  0  0  0
 22 21  2  0  0  0  0
M  END
>  <minimizedAffinity>
-4.3548851

$$$$

 OpenBabel03262520533D

 22 24  0  0  1  0  0  0  0  0999 V2000
   39.0150   23.5020   36.5090 C   0  0  2  0  0  0  0  0  0  0  0  0
   37.9260   22.7470   35.8550 C   0  0  0  0  0  0  0  0  0  0  0  0
   38.5120   23.9770   35.2080 C   0  0  1  0  0  0  0  0  0  0  0  0
   38.7240   24.0370   37.4240 H   0  0  0  0  0  0  0  0  0  0  0  0
   38.1270   21.7460   35.4440 H   0  0  0  0  0  0  0  0  0  0  0  0
   36.8960   22.8950   36.2160 H   0  0  0  0  0  0  0  0  0  0  0  0
   39.1520   23.7850   34.3200 H   0  0  0  0  0  0  0  0  0  0  0  0
   41.9470   21.3200   37.2670 C   0  0  0  0  0  0  0  0  0  0  0  0
   42.9640   21.9740   36.5650 C   0  0  0  0  0  0  0  0  0  0  0  0
   42.6510   23.1600   35.8400 C   0  0  0  0  0  0  0  0  0  0  0  0
   41.3760   23.5980   35.8660 N   0  0  0  0  0  0  0  0  0  0  0  0
   40.4040   22.9420   36.5590 C   0  0  0  0  0  0  0  0  0  0  0  0
   40.6800   21.8080   37.2580 N   0  0  0  0  0  0  0  0  0  0  0  0
   42.1190   20.4200   37.8340 H   0  0  0  0  0  0  0  0  0  0  0  0
   43.9630   21.5590   36.5920 H   0  0  0  0  0  0  0  0  0  0  0  0
   43.4470   23.6570   35.3010 H   0  0  0  0  0  0  0  0  0  0  0  0
   37.7120   25.2510   35.0950 C   0  0  1  0  0  3  0  0  0  0  0  0
   38.2080   26.2240   36.1050 C   0  0  0  0  0  3  0  0  0  0  0  0
   39.1880   27.2280   35.5970 C   0  0  0  0  0  3  0  0  0  0  0  0
   39.7130   26.9620   34.2270 C   0  0  0  0  0  2  0  0  0  0  0  0
   38.5670   26.7730   33.2870 C   0  0  0  0  0  3  0  0  0  0  0  0
   37.5700   25.7440   33.7040 C   0  0  0  0  0  3  0  0  0  0  0  0
  1 12  1  0  0  0  0
  1  4  1  1  0  0  0
  2  6  1  0  0  0  0
  2  1  1  0  0  0  0
  3  7  1  6  0  0  0
  3  2  1  0  0  0  0
  3  1  1  0  0  0  0
  5  2  1  0  0  0  0
  8 14  1  0  0  0  0
  9 15  1  0  0  0  0
  9  8  2  0  0  0  0
 10 11  2  0  0  0  0
 10  9  1  0  0  0  0
 11 12  1  0  0  0  0
 12 13  2  0  0  0  0
 13  8  1  0  0  0  0
 16 10  1  0  0  0  0
 17 22  1  6  0  0  0
 17  3  1  0  0  0  0
 17 18  1  0  0  0  0
 19 18  2  0  0  0  0
 20 19  1  0  0  0  0
 21 22  2  0  0  0  0
 21 20  1  0  0  0  0
M  END
>  <minimizedAffinity>
-4.30426931

$$$$

 OpenBabel03262520533D

 22 24  0  0  1  0  0  0  0  0999 V2000
   38.6540   26.2090   35.0910 C   0  0  2  0  0  0  0  0  0  0  0  0
   38.2620   27.5590   35.5450 C   0  0  0  0  0  0  0  0  0  0  0  0
   37.5740   26.9060   34.3730 C   0  0  1  0  0  0  0  0  0  0  0  0
   39.6510   26.1450   34.6320 H   0  0  0  0  0  0  0  0  0  0  0  0
   37.7390   27.6810   36.5070 H   0  0  0  0  0  0  0  0  0  0  0  0
   38.8950   28.4130   35.2570 H   0  0  0  0  0  0  0  0  0  0  0  0
   36.5350   26.5610   34.5650 H   0  0  0  0  0  0  0  0  0  0  0  0
   37.8140   22.7080   36.0780 C   0  0  0  0  0  0  0  0  0  0  0  0
   37.6590   22.8430   37.4600 C   0  0  0  0  0  0  0  0  0  0  0  0
   37.8340   24.1260   38.0530 C   0  0  0  0  0  0  0  0  0  0  0  0
   38.1450   25.1580   37.2440 N   0  0  0  0  0  0  0  0  0  0  0  0
   38.2900   25.0000   35.8990 C   0  0  0  0  0  0  0  0  0  0  0  0
   38.1270   23.7840   35.3110 N   0  0  0  0  0  0  0  0  0  0  0  0
   37.6950   21.7660   35.5690 H   0  0  0  0  0  0  0  0  0  0  0  0
   37.4090   21.9650   38.0430 H   0  0  0  0  0  0  0  0  0  0  0  0
   37.7120   24.2170   39.1240 H   0  0  0  0  0  0  0  0  0  0  0  0
   37.7730   27.4240   32.9690 C   0  0  1  0  0  3  0  0  0  0  0  0
   38.5380   26.4160   32.1870 C   0  0  0  0  0  3  0  0  0  0  0  0
   37.7140   25.5050   31.3400 C   0  0  0  0  0  3  0  0  0  0  0  0
   36.2450   25.5700   31.5860 C   0  0  0  0  0  2  0  0  0  0  0  0
   35.7910   26.9890   31.4880 C   0  0  0  0  0  3  0  0  0  0  0  0
   36.5350   27.9530   32.3490 C   0  0  0  0  0  3  0  0  0  0  0  0
  1  4  1  6  0  0  0
  1  2  1  0  0  0  0
  1 12  1  0  0  0  0
  2  5  1  0  0  0  0
  3  7  1  1  0  0  0
  3  1  1  0  0  0  0
  3  2  1  0  0  0  0
  6  2  1  0  0  0  0
  8  9  1  0  0  0  0
  9 15  1  0  0  0  0
  9 10  2  0  0  0  0
 10 16  1  0  0  0  0
 11 10  1  0  0  0  0
 12 11  2  0  0  0  0
 13 12  1  0  0  0  0
 13  8  2  0  0  0  0
 14  8  1  0  0  0  0
 17 18  1  6  0  0  0
 17  3  1  0  0  0  0
 19 20  1  0  0  0  0
 19 18  2  0  0  0  0
 21 20  1  0  0  0  0
 21 22  2  0  0  0  0
 22 17  1  0  0  0  0
M  END
>  <minimizedAffinity>
-4.27095842

$$$$

 OpenBabel03262520533D

 22 24  0  0  1  0  0  0  0  0999 V2000
   35.5630   29.6120   34.3830 C   0  0  2  0  0  0  0  0  0  0  0  0
   34.1630   29.8980   34.7610 C   0  0  0  0  0  0  0  0  0  0  0  0
   35.1950   30.9970   34.7230 C   0  0  1  0  0  0  0  0  0  0  0  0
   36.1270   29.0120   35.1110 H   0  0  0  0  0  0  0  0  0  0  0  0
   33.3710   29.8440   33.9990 H   0  0  0  0  0  0  0  0  0  0  0  0
   33.8350   29.6450   35.7820 H   0  0  0  0  0  0  0  0  0  0  0  0
   35.0930   31.7140   33.8790 H   0  0  0  0  0  0  0  0  0  0  0  0
   36.0270   29.9140   30.6910 C   0  0  0  0  0  0  0  0  0  0  0  0
   36.6360   28.6920   30.3910 C   0  0  0  0  0  0  0  0  0  0  0  0
   36.8810   27.7650   31.4440 C   0  0  0  0  0  0  0  0  0  0  0  0
   36.5110   28.1160   32.6930 N   0  0  0  0  0  0  0  0  0  0  0  0
   35.9190   29.3130   32.9580 C   0  0  0  0  0  0  0  0  0  0  0  0
   35.6740   30.2130   31.9680 N   0  0  0  0  0  0  0  0  0  0  0  0
   35.8140   30.6570   29.9400 H   0  0  0  0  0  0  0  0  0  0  0  0
   36.9040   28.4840   29.3630 H   0  0  0  0  0  0  0  0  0  0  0  0
   37.3530   26.8230   31.1990 H   0  0  0  0  0  0  0  0  0  0  0  0
   35.6830   31.6480   35.9940 C   0  0  1  0  0  3  0  0  0  0  0  0
   36.6110   32.7560   35.6430 C   0  0  0  0  0  3  0  0  0  0  0  0
   36.0000   34.1170   35.6150 C   0  0  0  0  0  3  0  0  0  0  0  0
   34.5120   34.1430   35.6990 C   0  0  0  0  0  2  0  0  0  0  0  0
   34.0700   33.3550   36.8880 C   0  0  0  0  0  3  0  0  0  0  0  0
   34.6000   31.9620   36.9560 C   0  0  0  0  0  3  0  0  0  0  0  0
  1  3  1  0  0  0  0
  1  2  1  0  0  0  0
  1  4  1  1  0  0  0
  2  6  1  0  0  0  0
  3  7  1  6  0  0  0
  3  2  1  0  0  0  0
  3 17  1  0  0  0  0
  5  2  1  0  0  0  0
  8 13  1  0  0  0  0
  9  8  2  0  0  0  0
  9 10  1  0  0  0  0
 10 11  2  0  0  0  0
 11 12  1  0  0  0  0
 12  1  1  0  0  0  0
 13 12  2  0  0  0  0
 14  8  1  0  0  0  0
 15  9  1  0  0  0  0
 16 10  1  0  0  0  0
 17 18  1  6  0  0  0
 17 22  1  0  0  0  0
 19 18  2  0  0  0  0
 19 20  1  0  0  0  0
 20 21  1  0  0  0  0
 21 22  2  0  0  0  0
M  END
>  <minimizedAffinity>
-4.2574358

$$$$

 OpenBabel03262520533D

 22 24  0  0  1  0  0  0  0  0999 V2000
   35.9770   28.2370   32.2840 C   0  0  2  0  0  0  0  0  0  0  0  0
   35.3530   28.9580   33.4130 C   0  0  0  0  0  0  0  0  0  0  0  0
   36.7330   28.3650   33.5420 C   0  0  1  0  0  0  0  0  0  0  0  0
   35.5100   27.2740   32.0330 H   0  0  0  0  0  0  0  0  0  0  0  0
   35.2130   30.0480   33.3540 H   0  0  0  0  0  0  0  0  0  0  0  0
   34.5950   28.4320   34.0160 H   0  0  0  0  0  0  0  0  0  0  0  0
   37.5650   29.1010   33.5570 H   0  0  0  0  0  0  0  0  0  0  0  0
   36.9160   30.9930   29.9480 C   0  0  0  0  0  0  0  0  0  0  0  0
   37.4490   30.2730   28.8750 C   0  0  0  0  0  0  0  0  0  0  0  0
   37.4810   28.8500   28.9460 C   0  0  0  0  0  0  0  0  0  0  0  0
   36.9920   28.2620   30.0560 N   0  0  0  0  0  0  0  0  0  0  0  0
   36.4780   28.9880   31.0880 C   0  0  0  0  0  0  0  0  0  0  0  0
   36.4370   30.3470   31.0420 N   0  0  0  0  0  0  0  0  0  0  0  0
   36.8630   32.0690   29.9560 H   0  0  0  0  0  0  0  0  0  0  0  0
   37.8220   30.8180   28.0180 H   0  0  0  0  0  0  0  0  0  0  0  0
   37.8960   28.3050   28.1090 H   0  0  0  0  0  0  0  0  0  0  0  0
   36.9850   27.1700   34.4290 C   0  0  1  0  0  3  0  0  0  0  0  0
   37.3160   25.9970   33.5770 C   0  0  0  0  0  3  0  0  0  0  0  0
   38.7720   25.7190   33.4100 C   0  0  0  0  0  3  0  0  0  0  0  0
   39.6810   26.7880   33.9120 C   0  0  0  0  0  2  0  0  0  0  0  0
   39.3310   27.1110   35.3280 C   0  0  0  0  0  3  0  0  0  0  0  0
   37.8980   27.4530   35.5630 C   0  0  0  0  0  3  0  0  0  0  0  0
  1  4  1  6  0  0  0
  1  2  1  0  0  0  0
  1  3  1  0  0  0  0
  2  3  1  0  0  0  0
  2  6  1  0  0  0  0
  3  7  1  6  0  0  0
  3 17  1  0  0  0  0
  5  2  1  0  0  0  0
  8 14  1  0  0  0  0
  8 13  1  0  0  0  0
  9 10  1  0  0  0  0
  9  8  2  0  0  0  0
 10 11  2  0  0  0  0
 11 12  1  0  0  0  0
 12  1  1  0  0  0  0
 13 12  2  0  0  0  0
 15  9  1  0  0  0  0
 16 10  1  0  0  0  0
 17 18  1  6  0  0  0
 17 22  1  0  0  0  0
 19 18  2  0  0  0  0
 19 20  1  0  0  0  0
 20 21  1  0  0  0  0
 21 22  2  0  0  0  0
M  END
>  <minimizedAffinity>
-4.25120497

$$$$

 OpenBabel03262520533D

 22 24  0  0  1  0  0  0  0  0999 V2000
   38.6090   23.3020   34.2970 C   0  0  2  0  0  0  0  0  0  0  0  0
   38.8080   23.0920   35.7450 C   0  0  0  0  0  0  0  0  0  0  0  0
   38.2730   24.4000   35.2190 C   0  0  1  0  0  0  0  0  0  0  0  0
   39.5340   23.3620   33.7050 H   0  0  0  0  0  0  0  0  0  0  0  0
   38.1530   22.3950   36.2910 H   0  0  0  0  0  0  0  0  0  0  0  0
   39.8290   23.1720   36.1510 H   0  0  0  0  0  0  0  0  0  0  0  0
   37.1940   24.5820   35.4140 H   0  0  0  0  0  0  0  0  0  0  0  0
   35.9060   20.8940   33.3860 C   0  0  0  0  0  0  0  0  0  0  0  0
   35.4060   21.4730   32.2150 C   0  0  0  0  0  0  0  0  0  0  0  0
   35.9950   22.6790   31.7350 C   0  0  0  0  0  0  0  0  0  0  0  0
   37.0150   23.2080   32.4410 N   0  0  0  0  0  0  0  0  0  0  0  0
   37.4830   22.6220   33.5780 C   0  0  0  0  0  0  0  0  0  0  0  0
   36.9370   21.4710   34.0550 N   0  0  0  0  0  0  0  0  0  0  0  0
   35.5060   19.9840   33.8000 H   0  0  0  0  0  0  0  0  0  0  0  0
   34.5840   20.9870   31.7060 H   0  0  0  0  0  0  0  0  0  0  0  0
   35.5990   23.1170   30.8290 H   0  0  0  0  0  0  0  0  0  0  0  0
   39.1040   25.6580   35.2760 C   0  0  1  0  0  3  0  0  0  0  0  0
   39.5240   26.0210   33.8970 C   0  0  0  0  0  3  0  0  0  0  0  0
   38.6790   27.0490   33.2210 C   0  0  0  0  0  3  0  0  0  0  0  0
   37.4050   27.3790   33.9220 C   0  0  0  0  0  2  0  0  0  0  0  0
   37.7010   27.7410   35.3400 C   0  0  0  0  0  3  0  0  0  0  0  0
   38.4990   26.7340   36.0980 C   0  0  0  0  0  3  0  0  0  0  0  0
  1  4  1  6  0  0  0
  1  3  1  0  0  0  0
  1  2  1  0  0  0  0
  2  6  1  0  0  0  0
  2  5  1  0  0  0  0
  3 17  1  0  0  0  0
  3  7  1  1  0  0  0
  3  2  1  0  0  0  0
  8 14  1  0  0  0  0
  8 13  1  0  0  0  0
  9  8  2  0  0  0  0
 10  9  1  0  0  0  0
 10 11  2  0  0  0  0
 11 12  1  0  0  0  0
 12 13  2  0  0  0  0
 12  1  1  0  0  0  0
 15  9  1  0  0  0  0
 16 10  1  0  0  0  0
 17 18  1  6  0  0  0
 17 22  1  0  0  0  0
 19 18  2  0  0  0  0
 19 20  1  0  0  0  0
 20 21  1  0  0  0  0
 21 22  2  0  0  0  0
M  END
>  <minimizedAffinity>
-4.24594736

$$$$
