
 OpenBabel03272504293D

 39 42  0  0  0  0  0  0  0  0999 V2000
   38.0540   25.6940   33.5560 C   0  0  0  0  0  0  0  0  0  0  0  0
   37.9910   26.8650   34.2260 C   0  0  0  0  0  0  0  0  0  0  0  0
   38.9490   27.2120   35.0970 C   0  0  0  0  0  0  0  0  0  0  0  0
   39.9910   26.3660   35.3010 N   0  0  0  0  0  0  0  0  0  0  0  0
   40.0430   25.2170   34.6390 C   0  0  0  0  0  0  0  0  0  0  0  0
   39.0900   24.8650   33.7670 N   0  0  0  0  0  0  0  0  0  0  0  0
   37.1260   27.4790   34.0010 H   0  0  0  0  0  0  0  0  0  0  0  0
   38.8730   28.1580   35.6200 H   0  0  0  0  0  0  0  0  0  0  0  0
   41.1470   23.4270   35.9100 C   0  0  0  0  0  0  0  0  0  0  0  0
   41.2070   24.4090   34.9190 C   0  0  0  0  0  0  0  0  0  0  0  0
   42.3390   24.6910   34.1800 C   0  0  0  0  0  0  0  0  0  0  0  0
   43.4910   23.9770   34.4140 C   0  0  0  0  0  0  0  0  0  0  0  0
   43.5260   22.9900   35.3740 C   0  0  0  0  0  0  0  0  0  0  0  0
   42.3680   22.7800   36.0520 C   0  0  0  0  0  0  0  0  0  0  0  0
   42.3410   25.4600   33.4200 H   0  0  0  0  0  0  0  0  0  0  0  0
   44.3690   24.2040   33.8320 H   0  0  0  0  0  0  0  0  0  0  0  0
   44.4100   22.4310   35.5660 H   0  0  0  0  0  0  0  0  0  0  0  0
   42.4080   21.9900   36.8160 H   0  0  0  0  0  0  0  0  0  0  0  0
   39.7970   23.0420   36.8050 S   0  0  0  0  0  0  0  0  0  0  0  0
   40.5330   22.2080   37.9030 O   0  0  0  0  0  0  0  0  0  0  0  0
   38.9630   22.1020   35.9710 O   0  0  0  0  0  0  0  0  0  0  0  0
   38.6730   23.3780   37.8880 C   0  0  0  0  0  0  0  0  0  0  0  0
   37.3360   22.9230   37.8320 F   0  0  0  0  0  0  0  0  0  0  0  0
   38.1960   24.7550   37.6960 F   0  0  0  0  0  0  0  0  0  0  0  0
   39.0000   23.7640   39.2140 F   0  0  0  0  0  0  0  0  0  0  0  0
   35.3380   25.7240   31.0790 C   0  0  0  0  0  0  0  0  0  0  0  0
   35.1600   24.3520   30.8180 C   0  0  0  0  0  0  0  0  0  0  0  0
   35.9690   23.4460   31.4930 C   0  0  0  0  0  0  0  0  0  0  0  0
   36.8800   23.9530   32.3600 N   0  0  0  0  0  0  0  0  0  0  0  0
   37.0370   25.2800   32.5990 C   0  0  0  0  0  0  0  0  0  0  0  0
   36.2610   26.1530   31.9520 N   0  0  0  0  0  0  0  0  0  0  0  0
   34.7180   26.4460   30.5650 H   0  0  0  0  0  0  0  0  0  0  0  0
   34.4350   23.9790   30.1300 H   0  0  0  0  0  0  0  0  0  0  0  0
   35.8900   21.9720   31.3140 C   0  0  0  0  0  3  0  0  0  0  0  0
   37.2420   21.3160   31.4540 C   0  0  0  0  0  2  0  0  0  0  0  0
   37.0570   19.8150   31.4080 C   0  0  0  0  0  2  0  0  0  0  0  0
   36.0850   19.3450   32.4730 C   0  0  0  0  0  2  0  0  0  0  0  0
   35.6180   20.5600   33.2840 C   0  0  0  0  0  2  0  0  0  0  0  0
   34.8750   21.4590   32.3070 C   0  0  0  0  0  2  0  0  0  0  0  0
  1  6  2  0  0  0  0
  1  2  1  0  0  0  0
  2  3  2  0  0  0  0
  3  4  1  0  0  0  0
  3  8  1  0  0  0  0
  5 10  1  0  0  0  0
  5  4  2  0  0  0  0
  6  5  1  0  0  0  0
  7  2  1  0  0  0  0
  9 14  1  0  0  0  0
  9 19  1  0  0  0  0
 10  9  2  0  0  0  0
 11 12  2  0  0  0  0
 11 10  1  0  0  0  0
 12 13  1  0  0  0  0
 13 17  1  0  0  0  0
 13 14  2  0  0  0  0
 14 18  1  0  0  0  0
 15 11  1  0  0  0  0
 16 12  1  0  0  0  0
 19 22  1  0  0  0  0
 19 20  2  0  0  0  0
 21 19  2  0  0  0  0
 22 25  1  0  0  0  0
 23 22  1  0  0  0  0
 24 22  1  0  0  0  0
 26 31  1  0  0  0  0
 27 26  2  0  0  0  0
 27 28  1  0  0  0  0
 28 29  2  0  0  0  0
 29 30  1  0  0  0  0
 30  1  1  0  0  0  0
 31 30  2  0  0  0  0
 32 26  1  0  0  0  0
 33 27  1  0  0  0  0
 34 35  1  0  0  0  0
 34 28  1  0  0  0  0
 34 39  1  0  0  0  0
 36 35  1  0  0  0  0
 36 37  1  0  0  0  0
 37 38  1  0  0  0  0
 39 38  1  0  0  0  0
M  END
>  <minimizedAffinity>
-7.39102411

$$$$

 OpenBabel03272504293D

 39 42  0  0  0  0  0  0  0  0999 V2000
   36.1810   28.0930   33.0180 C   0  0  0  0  0  0  0  0  0  0  0  0
   36.0320   28.6820   31.8120 C   0  0  0  0  0  0  0  0  0  0  0  0
   35.4730   29.8950   31.7020 C   0  0  0  0  0  0  0  0  0  0  0  0
   35.0540   30.5310   32.8260 N   0  0  0  0  0  0  0  0  0  0  0  0
   35.2040   29.9440   34.0070 C   0  0  0  0  0  0  0  0  0  0  0  0
   35.7610   28.7320   34.1230 N   0  0  0  0  0  0  0  0  0  0  0  0
   36.3950   28.1040   30.9690 H   0  0  0  0  0  0  0  0  0  0  0  0
   35.3670   30.3430   30.7210 H   0  0  0  0  0  0  0  0  0  0  0  0
   33.4240   30.5910   35.5720 C   0  0  0  0  0  0  0  0  0  0  0  0
   34.7430   30.7220   35.1330 C   0  0  0  0  0  0  0  0  0  0  0  0
   35.6630   31.5840   35.6970 C   0  0  0  0  0  0  0  0  0  0  0  0
   35.2830   32.3750   36.7570 C   0  0  0  0  0  0  0  0  0  0  0  0
   34.0000   32.3150   37.2560 C   0  0  0  0  0  0  0  0  0  0  0  0
   33.1630   31.4400   36.6410 C   0  0  0  0  0  0  0  0  0  0  0  0
   36.6760   31.6510   35.3260 H   0  0  0  0  0  0  0  0  0  0  0  0
   36.0070   33.0440   37.1900 H   0  0  0  0  0  0  0  0  0  0  0  0
   33.6930   32.9210   38.0740 H   0  0  0  0  0  0  0  0  0  0  0  0
   32.1430   31.4010   37.0490 H   0  0  0  0  0  0  0  0  0  0  0  0
   32.2940   29.5490   34.9340 S   0  0  0  0  0  0  0  0  0  0  0  0
   31.0500   30.4720   35.1400 O   0  0  0  0  0  0  0  0  0  0  0  0
   32.1820   28.3800   35.8820 O   0  0  0  0  0  0  0  0  0  0  0  0
   31.5230   28.8710   33.7110 C   0  0  0  0  0  0  0  0  0  0  0  0
   31.0390   27.5440   33.6970 F   0  0  0  0  0  0  0  0  0  0  0  0
   32.4840   28.5160   32.6570 F   0  0  0  0  0  0  0  0  0  0  0  0
   30.8540   29.6440   32.7260 F   0  0  0  0  0  0  0  0  0  0  0  0
   37.3940   24.6790   32.3940 C   0  0  0  0  0  0  0  0  0  0  0  0
   37.9600   24.3350   33.6370 C   0  0  0  0  0  0  0  0  0  0  0  0
   37.9150   25.2740   34.6600 C   0  0  0  0  0  0  0  0  0  0  0  0
   37.3260   26.4630   34.3860 N   0  0  0  0  0  0  0  0  0  0  0  0
   36.7850   26.7780   33.1820 C   0  0  0  0  0  0  0  0  0  0  0  0
   36.8260   25.8780   32.1960 N   0  0  0  0  0  0  0  0  0  0  0  0
   37.4180   23.9630   31.5850 H   0  0  0  0  0  0  0  0  0  0  0  0
   38.4180   23.3900   33.8260 H   0  0  0  0  0  0  0  0  0  0  0  0
   38.4730   25.0440   36.0190 C   0  0  0  0  0  3  0  0  0  0  0  0
   37.4410   24.4700   36.9600 C   0  0  0  0  0  2  0  0  0  0  0  0
   38.1180   24.1280   38.2690 C   0  0  0  0  0  2  0  0  0  0  0  0
   39.2830   23.1800   38.0580 C   0  0  0  0  0  2  0  0  0  0  0  0
   39.3810   22.8470   36.5630 C   0  0  0  0  0  2  0  0  0  0  0  0
   39.6860   24.1600   35.8580 C   0  0  0  0  0  2  0  0  0  0  0  0
  1 30  1  0  0  0  0
  1  6  1  0  0  0  0
  2  1  2  0  0  0  0
  3  2  1  0  0  0  0
  3  4  2  0  0  0  0
  4  5  1  0  0  0  0
  5  6  2  0  0  0  0
  5 10  1  0  0  0  0
  7  2  1  0  0  0  0
  8  3  1  0  0  0  0
  9 14  1  0  0  0  0
 10  9  2  0  0  0  0
 10 11  1  0  0  0  0
 11 12  2  0  0  0  0
 12 16  1  0  0  0  0
 12 13  1  0  0  0  0
 13 17  1  0  0  0  0
 14 18  1  0  0  0  0
 14 13  2  0  0  0  0
 15 11  1  0  0  0  0
 19 20  2  0  0  0  0
 19  9  1  0  0  0  0
 19 21  2  0  0  0  0
 22 19  1  0  0  0  0
 23 22  1  0  0  0  0
 24 22  1  0  0  0  0
 25 22  1  0  0  0  0
 26 27  1  0  0  0  0
 27 33  1  0  0  0  0
 27 28  2  0  0  0  0
 28 34  1  0  0  0  0
 29 28  1  0  0  0  0
 30 29  2  0  0  0  0
 31 26  2  0  0  0  0
 31 30  1  0  0  0  0
 32 26  1  0  0  0  0
 34 35  1  0  0  0  0
 35 36  1  0  0  0  0
 37 36  1  0  0  0  0
 38 37  1  0  0  0  0
 39 34  1  0  0  0  0
 39 38  1  0  0  0  0
M  END
>  <minimizedAffinity>
-7.37153006

$$$$

 OpenBabel03272504293D

 39 42  0  0  0  0  0  0  0  0999 V2000
   36.2430   28.1450   33.2660 C   0  0  0  0  0  0  0  0  0  0  0  0
   36.0570   28.6540   32.0290 C   0  0  0  0  0  0  0  0  0  0  0  0
   35.4210   29.8210   31.8540 C   0  0  0  0  0  0  0  0  0  0  0  0
   34.9610   30.4900   32.9420 N   0  0  0  0  0  0  0  0  0  0  0  0
   35.1480   29.9810   34.1540 C   0  0  0  0  0  0  0  0  0  0  0  0
   35.7830   28.8160   34.3350 N   0  0  0  0  0  0  0  0  0  0  0  0
   36.4570   28.0550   31.2190 H   0  0  0  0  0  0  0  0  0  0  0  0
   35.2860   30.2060   30.8500 H   0  0  0  0  0  0  0  0  0  0  0  0
   33.3070   30.6480   35.6380 C   0  0  0  0  0  0  0  0  0  0  0  0
   34.6370   30.7890   35.2360 C   0  0  0  0  0  0  0  0  0  0  0  0
   35.5220   31.6880   35.7970 C   0  0  0  0  0  0  0  0  0  0  0  0
   35.0940   32.5090   36.8150 C   0  0  0  0  0  0  0  0  0  0  0  0
   33.7970   32.4420   37.2760 C   0  0  0  0  0  0  0  0  0  0  0  0
   32.9970   31.5290   36.6670 C   0  0  0  0  0  0  0  0  0  0  0  0
   36.5450   31.7630   35.4550 H   0  0  0  0  0  0  0  0  0  0  0  0
   35.7910   33.2070   37.2460 H   0  0  0  0  0  0  0  0  0  0  0  0
   33.4530   33.0700   38.0620 H   0  0  0  0  0  0  0  0  0  0  0  0
   31.9650   31.4840   37.0440 H   0  0  0  0  0  0  0  0  0  0  0  0
   32.2180   29.5610   35.0030 S   0  0  0  0  0  0  0  0  0  0  0  0
   30.9330   30.4140   35.2580 O   0  0  0  0  0  0  0  0  0  0  0  0
   32.1890   28.3690   35.9270 O   0  0  0  0  0  0  0  0  0  0  0  0
   31.4540   28.8700   33.7840 C   0  0  0  0  0  0  0  0  0  0  0  0
   31.0040   27.5310   33.7670 F   0  0  0  0  0  0  0  0  0  0  0  0
   32.4140   28.5450   32.7190 F   0  0  0  0  0  0  0  0  0  0  0  0
   30.7560   29.6300   32.8090 F   0  0  0  0  0  0  0  0  0  0  0  0
   38.3220   25.4960   34.7410 C   0  0  0  0  0  0  0  0  0  0  0  0
   38.1660   24.4470   33.8140 C   0  0  0  0  0  0  0  0  0  0  0  0
   37.3550   24.6660   32.7070 C   0  0  0  0  0  0  0  0  0  0  0  0
   36.7690   25.8830   32.5980 N   0  0  0  0  0  0  0  0  0  0  0  0
   36.9310   26.8830   33.5010 C   0  0  0  0  0  0  0  0  0  0  0  0
   37.7090   26.6760   34.5660 N   0  0  0  0  0  0  0  0  0  0  0  0
   38.9490   25.3470   35.6090 H   0  0  0  0  0  0  0  0  0  0  0  0
   38.6400   23.4980   33.9250 H   0  0  0  0  0  0  0  0  0  0  0  0
   37.1030   23.6480   31.6520 C   0  0  0  0  0  3  0  0  0  0  0  0
   37.9100   22.3930   31.8780 C   0  0  0  0  0  2  0  0  0  0  0  0
   37.4900   21.3580   30.8570 C   0  0  0  0  0  2  0  0  0  0  0  0
   35.9980   21.0930   30.9210 C   0  0  0  0  0  2  0  0  0  0  0  0
   35.3930   21.9530   32.0380 C   0  0  0  0  0  2  0  0  0  0  0  0
   35.6140   23.4000   31.6230 C   0  0  0  0  0  2  0  0  0  0  0  0
  1 30  1  0  0  0  0
  1  6  1  0  0  0  0
  2  1  2  0  0  0  0
  3  2  1  0  0  0  0
  3  4  2  0  0  0  0
  4  5  1  0  0  0  0
  5  6  2  0  0  0  0
  5 10  1  0  0  0  0
  7  2  1  0  0  0  0
  8  3  1  0  0  0  0
  9 14  1  0  0  0  0
 10  9  2  0  0  0  0
 10 11  1  0  0  0  0
 11 12  2  0  0  0  0
 12 16  1  0  0  0  0
 12 13  1  0  0  0  0
 13 17  1  0  0  0  0
 14 18  1  0  0  0  0
 14 13  2  0  0  0  0
 15 11  1  0  0  0  0
 19 20  2  0  0  0  0
 19  9  1  0  0  0  0
 19 21  2  0  0  0  0
 22 19  1  0  0  0  0
 23 22  1  0  0  0  0
 24 22  1  0  0  0  0
 25 22  1  0  0  0  0
 26 32  1  0  0  0  0
 27 33  1  0  0  0  0
 27 26  2  0  0  0  0
 28 27  1  0  0  0  0
 29 28  2  0  0  0  0
 29 30  1  0  0  0  0
 30 31  2  0  0  0  0
 31 26  1  0  0  0  0
 34 35  1  0  0  0  0
 34 28  1  0  0  0  0
 36 37  1  0  0  0  0
 36 35  1  0  0  0  0
 37 38  1  0  0  0  0
 39 34  1  0  0  0  0
 39 38  1  0  0  0  0
M  END
>  <minimizedAffinity>
-7.01867628

$$$$

 OpenBabel03272504293D

 39 42  0  0  0  0  0  0  0  0999 V2000
   34.5870   29.9030   31.8710 C   0  0  0  0  0  0  0  0  0  0  0  0
   34.0690   30.9400   31.1780 C   0  0  0  0  0  0  0  0  0  0  0  0
   32.9110   31.5050   31.5490 C   0  0  0  0  0  0  0  0  0  0  0  0
   32.2600   31.0210   32.6370 N   0  0  0  0  0  0  0  0  0  0  0  0
   32.7770   30.0010   33.3110 C   0  0  0  0  0  0  0  0  0  0  0  0
   33.9330   29.4320   32.9460 N   0  0  0  0  0  0  0  0  0  0  0  0
   34.6550   31.2620   30.3240 H   0  0  0  0  0  0  0  0  0  0  0  0
   32.5190   32.3360   30.9740 H   0  0  0  0  0  0  0  0  0  0  0  0
   32.2530   30.1740   35.7050 C   0  0  0  0  0  0  0  0  0  0  0  0
   32.0110   29.5850   34.4620 C   0  0  0  0  0  0  0  0  0  0  0  0
   31.0820   28.5860   34.2490 C   0  0  0  0  0  0  0  0  0  0  0  0
   30.3350   28.1230   35.3080 C   0  0  0  0  0  0  0  0  0  0  0  0
   30.5070   28.6440   36.5720 C   0  0  0  0  0  0  0  0  0  0  0  0
   31.4410   29.6220   36.6890 C   0  0  0  0  0  0  0  0  0  0  0  0
   30.9260   28.1580   33.2680 H   0  0  0  0  0  0  0  0  0  0  0  0
   29.6130   27.3440   35.1320 H   0  0  0  0  0  0  0  0  0  0  0  0
   29.9370   28.2950   37.3990 H   0  0  0  0  0  0  0  0  0  0  0  0
   31.5690   30.0300   37.7020 H   0  0  0  0  0  0  0  0  0  0  0  0
   33.3470   31.3940   35.9970 S   0  0  0  0  0  0  0  0  0  0  0  0
   33.2420   31.3690   37.5570 O   0  0  0  0  0  0  0  0  0  0  0  0
   32.7260   32.6760   35.4990 O   0  0  0  0  0  0  0  0  0  0  0  0
   34.8320   31.9560   36.1580 C   0  0  0  0  0  0  0  0  0  0  0  0
   35.9900   31.1550   36.2770 F   0  0  0  0  0  0  0  0  0  0  0  0
   35.0360   32.4290   37.5350 F   0  0  0  0  0  0  0  0  0  0  0  0
   35.1870   33.2670   35.7430 F   0  0  0  0  0  0  0  0  0  0  0  0
   37.5910   28.8500   30.0320 C   0  0  0  0  0  0  0  0  0  0  0  0
   38.2120   27.9830   30.9520 C   0  0  0  0  0  0  0  0  0  0  0  0
   37.5930   27.7770   32.1790 C   0  0  0  0  0  0  0  0  0  0  0  0
   36.4270   28.4300   32.4040 N   0  0  0  0  0  0  0  0  0  0  0  0
   35.8420   29.2620   31.5050 C   0  0  0  0  0  0  0  0  0  0  0  0
   36.4350   29.4630   30.3250 N   0  0  0  0  0  0  0  0  0  0  0  0
   38.0560   29.0240   29.0720 H   0  0  0  0  0  0  0  0  0  0  0  0
   39.1310   27.4810   30.7490 H   0  0  0  0  0  0  0  0  0  0  0  0
   38.1370   26.8900   33.2410 C   0  0  0  0  0  3  0  0  0  0  0  0
   39.5720   27.2240   33.5720 C   0  0  0  0  0  2  0  0  0  0  0  0
   40.0030   26.3850   34.7550 C   0  0  0  0  0  2  0  0  0  0  0  0
   39.0830   26.5900   35.9430 C   0  0  0  0  0  2  0  0  0  0  0  0
   38.0130   27.6210   35.5640 C   0  0  0  0  0  2  0  0  0  0  0  0
   37.2120   27.0010   34.4290 C   0  0  0  0  0  2  0  0  0  0  0  0
  1  6  1  0  0  0  0
  2  3  1  0  0  0  0
  2  1  2  0  0  0  0
  3  4  2  0  0  0  0
  4  5  1  0  0  0  0
  5 10  1  0  0  0  0
  6  5  2  0  0  0  0
  7  2  1  0  0  0  0
  8  3  1  0  0  0  0
  9 19  1  0  0  0  0
  9 14  1  0  0  0  0
 10  9  2  0  0  0  0
 11 10  1  0  0  0  0
 11 12  2  0  0  0  0
 12 13  1  0  0  0  0
 13 14  2  0  0  0  0
 13 17  1  0  0  0  0
 14 18  1  0  0  0  0
 15 11  1  0  0  0  0
 16 12  1  0  0  0  0
 19 22  1  0  0  0  0
 19 20  2  0  0  0  0
 21 19  2  0  0  0  0
 22 23  1  0  0  0  0
 22 24  1  0  0  0  0
 25 22  1  0  0  0  0
 26 31  2  0  0  0  0
 26 27  1  0  0  0  0
 27 28  2  0  0  0  0
 28 29  1  0  0  0  0
 28 34  1  0  0  0  0
 30  1  1  0  0  0  0
 30 29  2  0  0  0  0
 31 30  1  0  0  0  0
 32 26  1  0  0  0  0
 33 27  1  0  0  0  0
 34 35  1  0  0  0  0
 34 39  1  0  0  0  0
 35 36  1  0  0  0  0
 36 37  1  0  0  0  0
 38 37  1  0  0  0  0
 39 38  1  0  0  0  0
M  END
>  <minimizedAffinity>
-6.7622366

$$$$

 OpenBabel03272504293D

 39 42  0  0  0  0  0  0  0  0999 V2000
   35.7410   28.4980   32.4880 C   0  0  0  0  0  0  0  0  0  0  0  0
   35.5680   29.2510   31.3800 C   0  0  0  0  0  0  0  0  0  0  0  0
   35.0670   30.4910   31.4630 C   0  0  0  0  0  0  0  0  0  0  0  0
   34.7320   30.9870   32.6820 N   0  0  0  0  0  0  0  0  0  0  0  0
   34.9060   30.2390   33.7650 C   0  0  0  0  0  0  0  0  0  0  0  0
   35.4060   28.9990   33.6880 N   0  0  0  0  0  0  0  0  0  0  0  0
   35.8620   28.7770   30.4500 H   0  0  0  0  0  0  0  0  0  0  0  0
   34.9390   31.0730   30.5580 H   0  0  0  0  0  0  0  0  0  0  0  0
   33.2900   30.6120   35.5770 C   0  0  0  0  0  0  0  0  0  0  0  0
   34.5370   30.8760   35.0070 C   0  0  0  0  0  0  0  0  0  0  0  0
   35.4630   31.7480   35.5450 C   0  0  0  0  0  0  0  0  0  0  0  0
   35.1660   32.4100   36.7130 C   0  0  0  0  0  0  0  0  0  0  0  0
   33.9580   32.2130   37.3470 C   0  0  0  0  0  0  0  0  0  0  0  0
   33.1090   31.3400   36.7480 C   0  0  0  0  0  0  0  0  0  0  0  0
   36.4190   31.9220   35.0690 H   0  0  0  0  0  0  0  0  0  0  0  0
   35.8940   33.0870   37.1250 H   0  0  0  0  0  0  0  0  0  0  0  0
   33.7150   32.7190   38.2500 H   0  0  0  0  0  0  0  0  0  0  0  0
   32.1480   31.1900   37.2630 H   0  0  0  0  0  0  0  0  0  0  0  0
   32.1570   29.5530   34.9720 S   0  0  0  0  0  0  0  0  0  0  0  0
   30.9140   30.4820   35.1600 O   0  0  0  0  0  0  0  0  0  0  0  0
   32.0500   28.4100   35.9510 O   0  0  0  0  0  0  0  0  0  0  0  0
   31.3810   28.8440   33.7720 C   0  0  0  0  0  0  0  0  0  0  0  0
   30.9740   27.4900   33.7600 F   0  0  0  0  0  0  0  0  0  0  0  0
   32.3200   28.5550   32.6780 F   0  0  0  0  0  0  0  0  0  0  0  0
   30.6310   29.5860   32.8210 F   0  0  0  0  0  0  0  0  0  0  0  0
   36.3180   24.9670   31.6440 C   0  0  0  0  0  0  0  0  0  0  0  0
   37.4150   24.6420   32.4640 C   0  0  0  0  0  0  0  0  0  0  0  0
   37.9340   25.6340   33.2870 C   0  0  0  0  0  0  0  0  0  0  0  0
   37.3430   26.8520   33.2400 N   0  0  0  0  0  0  0  0  0  0  0  0
   36.2840   27.1480   32.4430 C   0  0  0  0  0  0  0  0  0  0  0  0
   35.7830   26.1970   31.6510 N   0  0  0  0  0  0  0  0  0  0  0  0
   35.8980   24.2100   30.9960 H   0  0  0  0  0  0  0  0  0  0  0  0
   37.8620   23.6730   32.4810 H   0  0  0  0  0  0  0  0  0  0  0  0
   39.0890   25.4290   34.2020 C   0  0  0  0  0  3  0  0  0  0  0  0
   40.1530   24.5590   33.5780 C   0  0  0  0  0  2  0  0  0  0  0  0
   41.3490   24.5210   34.5040 C   0  0  0  0  0  2  0  0  0  0  0  0
   41.8610   25.9170   34.8040 C   0  0  0  0  0  2  0  0  0  0  0  0
   41.0030   26.9310   34.0360 C   0  0  0  0  0  2  0  0  0  0  0  0
   39.5940   26.7970   34.5930 C   0  0  0  0  0  2  0  0  0  0  0  0
  1  6  1  0  0  0  0
  2  3  1  0  0  0  0
  2  1  2  0  0  0  0
  3  4  2  0  0  0  0
  4  5  1  0  0  0  0
  5 10  1  0  0  0  0
  6  5  2  0  0  0  0
  7  2  1  0  0  0  0
  8  3  1  0  0  0  0
  9 14  1  0  0  0  0
 10 11  1  0  0  0  0
 10  9  2  0  0  0  0
 11 12  2  0  0  0  0
 12 16  1  0  0  0  0
 12 13  1  0  0  0  0
 13 17  1  0  0  0  0
 14 18  1  0  0  0  0
 14 13  2  0  0  0  0
 15 11  1  0  0  0  0
 19 20  2  0  0  0  0
 19  9  1  0  0  0  0
 19 21  2  0  0  0  0
 22 19  1  0  0  0  0
 23 22  1  0  0  0  0
 24 22  1  0  0  0  0
 25 22  1  0  0  0  0
 26 31  2  0  0  0  0
 26 27  1  0  0  0  0
 27 33  1  0  0  0  0
 27 28  2  0  0  0  0
 28 34  1  0  0  0  0
 29 28  1  0  0  0  0
 30  1  1  0  0  0  0
 30 29  2  0  0  0  0
 31 30  1  0  0  0  0
 32 26  1  0  0  0  0
 34 39  1  0  0  0  0
 35 34  1  0  0  0  0
 35 36  1  0  0  0  0
 36 37  1  0  0  0  0
 38 39  1  0  0  0  0
 38 37  1  0  0  0  0
M  END
>  <minimizedAffinity>
-6.67765665

$$$$

 OpenBabel03272504293D

 39 42  0  0  0  0  0  0  0  0999 V2000
   37.1240   27.9200   31.6710 C   0  0  0  0  0  0  0  0  0  0  0  0
   38.1780   28.0400   30.8360 C   0  0  0  0  0  0  0  0  0  0  0  0
   38.9920   27.0010   30.6020 C   0  0  0  0  0  0  0  0  0  0  0  0
   38.7430   25.8170   31.2180 N   0  0  0  0  0  0  0  0  0  0  0  0
   37.7050   25.7100   32.0370 C   0  0  0  0  0  0  0  0  0  0  0  0
   36.8890   26.7440   32.2750 N   0  0  0  0  0  0  0  0  0  0  0  0
   38.3020   29.0190   30.3870 H   0  0  0  0  0  0  0  0  0  0  0  0
   39.8310   27.1260   29.9260 H   0  0  0  0  0  0  0  0  0  0  0  0
   38.1070   24.1030   33.8520 C   0  0  0  0  0  0  0  0  0  0  0  0
   37.5240   24.4000   32.6180 C   0  0  0  0  0  0  0  0  0  0  0  0
   36.7860   23.4990   31.8750 C   0  0  0  0  0  0  0  0  0  0  0  0
   36.5980   22.2240   32.3570 C   0  0  0  0  0  0  0  0  0  0  0  0
   37.1370   21.8400   33.5650 C   0  0  0  0  0  0  0  0  0  0  0  0
   37.8470   22.7900   34.2270 C   0  0  0  0  0  0  0  0  0  0  0  0
   36.3520   23.7720   30.9240 H   0  0  0  0  0  0  0  0  0  0  0  0
   36.0210   21.5290   31.7710 H   0  0  0  0  0  0  0  0  0  0  0  0
   37.0000   20.8580   33.9490 H   0  0  0  0  0  0  0  0  0  0  0  0
   38.2720   22.4730   35.1900 H   0  0  0  0  0  0  0  0  0  0  0  0
   38.9830   25.1670   34.7860 S   0  0  0  0  0  0  0  0  0  0  0  0
   40.4000   24.7030   34.3180 O   0  0  0  0  0  0  0  0  0  0  0  0
   38.7970   24.7520   36.2240 O   0  0  0  0  0  0  0  0  0  0  0  0
   39.6090   26.6040   35.0850 C   0  0  0  0  0  0  0  0  0  0  0  0
   38.9350   27.6580   35.7420 F   0  0  0  0  0  0  0  0  0  0  0  0
   39.6250   27.4030   33.8510 F   0  0  0  0  0  0  0  0  0  0  0  0
   41.0120   26.8140   35.1410 F   0  0  0  0  0  0  0  0  0  0  0  0
   34.8160   30.7570   31.2920 C   0  0  0  0  0  0  0  0  0  0  0  0
   34.5130   31.0720   32.6310 C   0  0  0  0  0  0  0  0  0  0  0  0
   35.1030   30.3110   33.6330 C   0  0  0  0  0  0  0  0  0  0  0  0
   35.9330   29.3120   33.2470 N   0  0  0  0  0  0  0  0  0  0  0  0
   36.2140   29.0220   31.9510 C   0  0  0  0  0  0  0  0  0  0  0  0
   35.6490   29.7510   30.9850 N   0  0  0  0  0  0  0  0  0  0  0  0
   34.3690   31.3360   30.4970 H   0  0  0  0  0  0  0  0  0  0  0  0
   33.8560   31.8650   32.9070 H   0  0  0  0  0  0  0  0  0  0  0  0
   34.8720   30.5340   35.0850 C   0  0  0  0  0  3  0  0  0  0  0  0
   35.2860   31.9210   35.5140 C   0  0  0  0  0  2  0  0  0  0  0  0
   34.8860   32.1200   36.9590 C   0  0  0  0  0  2  0  0  0  0  0  0
   33.4010   31.8830   37.1590 C   0  0  0  0  0  2  0  0  0  0  0  0
   32.7700   31.5410   35.8030 C   0  0  0  0  0  2  0  0  0  0  0  0
   33.4160   30.2390   35.3540 C   0  0  0  0  0  2  0  0  0  0  0  0
  1 30  1  0  0  0  0
  1  6  1  0  0  0  0
  2  1  2  0  0  0  0
  3  2  1  0  0  0  0
  3  4  2  0  0  0  0
  4  5  1  0  0  0  0
  5  6  2  0  0  0  0
  5 10  1  0  0  0  0
  7  2  1  0  0  0  0
  8  3  1  0  0  0  0
  9 14  1  0  0  0  0
  9 19  1  0  0  0  0
 10  9  2  0  0  0  0
 11 12  2  0  0  0  0
 11 10  1  0  0  0  0
 12 13  1  0  0  0  0
 13 17  1  0  0  0  0
 13 14  2  0  0  0  0
 14 18  1  0  0  0  0
 15 11  1  0  0  0  0
 16 12  1  0  0  0  0
 19 22  1  0  0  0  0
 19 21  2  0  0  0  0
 20 19  2  0  0  0  0
 22 25  1  0  0  0  0
 22 23  1  0  0  0  0
 24 22  1  0  0  0  0
 26 27  1  0  0  0  0
 27 33  1  0  0  0  0
 27 28  2  0  0  0  0
 28 34  1  0  0  0  0
 29 28  1  0  0  0  0
 30 29  2  0  0  0  0
 31 26  2  0  0  0  0
 31 30  1  0  0  0  0
 32 26  1  0  0  0  0
 34 39  1  0  0  0  0
 34 35  1  0  0  0  0
 35 36  1  0  0  0  0
 36 37  1  0  0  0  0
 38 37  1  0  0  0  0
 39 38  1  0  0  0  0
M  END
>  <minimizedAffinity>
-6.64146614

$$$$

 OpenBabel03272504293D

 39 42  0  0  0  0  0  0  0  0999 V2000
   37.5210   26.3180   31.5670 C   0  0  0  0  0  0  0  0  0  0  0  0
   38.7740   26.1500   31.0930 C   0  0  0  0  0  0  0  0  0  0  0  0
   39.3340   24.9330   31.0430 C   0  0  0  0  0  0  0  0  0  0  0  0
   38.6220   23.8620   31.4790 N   0  0  0  0  0  0  0  0  0  0  0  0
   37.3910   24.0380   31.9450 C   0  0  0  0  0  0  0  0  0  0  0  0
   36.8270   25.2510   31.9960 N   0  0  0  0  0  0  0  0  0  0  0  0
   39.2680   27.0580   30.7650 H   0  0  0  0  0  0  0  0  0  0  0  0
   40.3410   24.8270   30.6580 H   0  0  0  0  0  0  0  0  0  0  0  0
   37.0590   22.2300   33.5750 C   0  0  0  0  0  0  0  0  0  0  0  0
   36.7220   22.8270   32.3580 C   0  0  0  0  0  0  0  0  0  0  0  0
   35.7840   22.3170   31.4820 C   0  0  0  0  0  0  0  0  0  0  0  0
   35.1270   21.1510   31.8020 C   0  0  0  0  0  0  0  0  0  0  0  0
   35.3970   20.4910   32.9810 C   0  0  0  0  0  0  0  0  0  0  0  0
   36.3320   21.0640   33.7820 C   0  0  0  0  0  0  0  0  0  0  0  0
   35.5530   22.8130   30.5500 H   0  0  0  0  0  0  0  0  0  0  0  0
   34.3980   20.7610   31.1120 H   0  0  0  0  0  0  0  0  0  0  0  0
   34.8970   19.5890   33.2400 H   0  0  0  0  0  0  0  0  0  0  0  0
   36.5380   20.5290   34.7200 H   0  0  0  0  0  0  0  0  0  0  0  0
   38.1650   22.8260   34.6670 S   0  0  0  0  0  0  0  0  0  0  0  0
   39.3610   21.9160   34.2370 O   0  0  0  0  0  0  0  0  0  0  0  0
   37.7100   22.3960   36.0400 O   0  0  0  0  0  0  0  0  0  0  0  0
   39.2320   23.9080   35.1550 C   0  0  0  0  0  0  0  0  0  0  0  0
   40.3590   23.6260   35.9600 F   0  0  0  0  0  0  0  0  0  0  0  0
   38.6640   24.7020   36.2550 F   0  0  0  0  0  0  0  0  0  0  0  0
   39.4170   25.1390   34.4720 F   0  0  0  0  0  0  0  0  0  0  0  0
   36.0560   29.5670   30.6660 C   0  0  0  0  0  0  0  0  0  0  0  0
   35.6410   30.0610   31.9180 C   0  0  0  0  0  0  0  0  0  0  0  0
   35.8700   29.2760   33.0410 C   0  0  0  0  0  0  0  0  0  0  0  0
   36.4800   28.0810   32.8500 N   0  0  0  0  0  0  0  0  0  0  0  0
   36.8740   27.6210   31.6360 C   0  0  0  0  0  0  0  0  0  0  0  0
   36.6550   28.3730   30.5540 N   0  0  0  0  0  0  0  0  0  0  0  0
   35.8870   30.1620   29.7800 H   0  0  0  0  0  0  0  0  0  0  0  0
   35.1610   31.0060   32.0400 H   0  0  0  0  0  0  0  0  0  0  0  0
   35.4840   29.6740   34.4210 C   0  0  0  0  0  3  0  0  0  0  0  0
   35.8910   31.0940   34.7310 C   0  0  0  0  0  2  0  0  0  0  0  0
   35.3370   31.4710   36.0880 C   0  0  0  0  0  2  0  0  0  0  0  0
   33.8330   31.2870   36.1410 C   0  0  0  0  0  2  0  0  0  0  0  0
   33.3480   30.7980   34.7700 C   0  0  0  0  0  2  0  0  0  0  0  0
   33.9980   29.4400   34.5530 C   0  0  0  0  0  2  0  0  0  0  0  0
  1 30  1  0  0  0  0
  1  6  1  0  0  0  0
  2  1  2  0  0  0  0
  3  2  1  0  0  0  0
  3  4  2  0  0  0  0
  4  5  1  0  0  0  0
  5  6  2  0  0  0  0
  5 10  1  0  0  0  0
  7  2  1  0  0  0  0
  8  3  1  0  0  0  0
  9 14  1  0  0  0  0
  9 19  1  0  0  0  0
 10  9  2  0  0  0  0
 11 12  2  0  0  0  0
 11 10  1  0  0  0  0
 12 13  1  0  0  0  0
 13 17  1  0  0  0  0
 13 14  2  0  0  0  0
 14 18  1  0  0  0  0
 15 11  1  0  0  0  0
 16 12  1  0  0  0  0
 19 22  1  0  0  0  0
 19 21  2  0  0  0  0
 20 19  2  0  0  0  0
 22 23  1  0  0  0  0
 22 24  1  0  0  0  0
 25 22  1  0  0  0  0
 26 27  1  0  0  0  0
 27 33  1  0  0  0  0
 27 28  2  0  0  0  0
 28 34  1  0  0  0  0
 29 28  1  0  0  0  0
 30 29  2  0  0  0  0
 31 26  2  0  0  0  0
 31 30  1  0  0  0  0
 32 26  1  0  0  0  0
 34 39  1  0  0  0  0
 34 35  1  0  0  0  0
 35 36  1  0  0  0  0
 36 37  1  0  0  0  0
 38 37  1  0  0  0  0
 39 38  1  0  0  0  0
M  END
>  <minimizedAffinity>
-6.59328365

$$$$

 OpenBabel03272504293D

 39 42  0  0  0  0  0  0  0  0999 V2000
   35.6780   29.1170   31.9590 C   0  0  0  0  0  0  0  0  0  0  0  0
   36.5240   29.1940   30.9090 C   0  0  0  0  0  0  0  0  0  0  0  0
   37.6920   28.5360   30.9160 C   0  0  0  0  0  0  0  0  0  0  0  0
   38.0180   27.7850   31.9980 N   0  0  0  0  0  0  0  0  0  0  0  0
   37.1810   27.7160   33.0260 C   0  0  0  0  0  0  0  0  0  0  0  0
   36.0130   28.3710   33.0250 N   0  0  0  0  0  0  0  0  0  0  0  0
   36.1830   29.8150   30.0880 H   0  0  0  0  0  0  0  0  0  0  0  0
   38.3510   28.6170   30.0590 H   0  0  0  0  0  0  0  0  0  0  0  0
   37.7100   25.4900   33.9210 C   0  0  0  0  0  0  0  0  0  0  0  0
   37.6210   26.8700   34.1110 C   0  0  0  0  0  0  0  0  0  0  0  0
   37.9090   27.5060   35.3020 C   0  0  0  0  0  0  0  0  0  0  0  0
   38.3100   26.7570   36.3850 C   0  0  0  0  0  0  0  0  0  0  0  0
   38.4230   25.3880   36.2920 C   0  0  0  0  0  0  0  0  0  0  0  0
   38.1210   24.8480   35.0830 C   0  0  0  0  0  0  0  0  0  0  0  0
   37.8290   28.5790   35.4050 H   0  0  0  0  0  0  0  0  0  0  0  0
   38.5320   27.2620   37.3100 H   0  0  0  0  0  0  0  0  0  0  0  0
   38.7310   24.7970   37.1210 H   0  0  0  0  0  0  0  0  0  0  0  0
   38.2160   23.7540   35.0200 H   0  0  0  0  0  0  0  0  0  0  0  0
   37.3940   24.6900   32.4950 S   0  0  0  0  0  0  0  0  0  0  0  0
   37.1030   23.2900   33.1270 O   0  0  0  0  0  0  0  0  0  0  0  0
   38.6940   24.6080   31.7340 O   0  0  0  0  0  0  0  0  0  0  0  0
   36.4410   24.2820   31.2820 C   0  0  0  0  0  0  0  0  0  0  0  0
   35.9270   22.9840   31.0580 F   0  0  0  0  0  0  0  0  0  0  0  0
   37.2330   24.1640   30.0480 F   0  0  0  0  0  0  0  0  0  0  0  0
   35.6560   25.2410   30.5890 F   0  0  0  0  0  0  0  0  0  0  0  0
   32.9370   31.4690   31.2730 C   0  0  0  0  0  0  0  0  0  0  0  0
   31.9390   31.0260   32.1620 C   0  0  0  0  0  0  0  0  0  0  0  0
   32.2220   29.9370   32.9750 C   0  0  0  0  0  0  0  0  0  0  0  0
   33.4480   29.3730   32.8540 N   0  0  0  0  0  0  0  0  0  0  0  0
   34.4000   29.8120   31.9910 C   0  0  0  0  0  0  0  0  0  0  0  0
   34.1300   30.8600   31.2070 N   0  0  0  0  0  0  0  0  0  0  0  0
   32.7380   32.3150   30.6300 H   0  0  0  0  0  0  0  0  0  0  0  0
   30.9810   31.4890   32.2370 H   0  0  0  0  0  0  0  0  0  0  0  0
   31.2620   29.3660   33.9580 C   0  0  0  0  0  3  0  0  0  0  0  0
   31.2210   27.8590   33.8920 C   0  0  0  0  0  2  0  0  0  0  0  0
   30.3410   27.3500   35.0130 C   0  0  0  0  0  2  0  0  0  0  0  0
   30.8220   27.8470   36.3630 C   0  0  0  0  0  2  0  0  0  0  0  0
   32.0830   28.6950   36.1540 C   0  0  0  0  0  2  0  0  0  0  0  0
   31.6530   29.8910   35.3180 C   0  0  0  0  0  2  0  0  0  0  0  0
  1 30  1  0  0  0  0
  1  6  1  0  0  0  0
  2  3  1  0  0  0  0
  2  1  2  0  0  0  0
  3  4  2  0  0  0  0
  4  5  1  0  0  0  0
  5 10  1  0  0  0  0
  6  5  2  0  0  0  0
  7  2  1  0  0  0  0
  8  3  1  0  0  0  0
  9 10  2  0  0  0  0
  9 14  1  0  0  0  0
 10 11  1  0  0  0  0
 11 15  1  0  0  0  0
 11 12  2  0  0  0  0
 12 16  1  0  0  0  0
 13 12  1  0  0  0  0
 13 17  1  0  0  0  0
 14 13  2  0  0  0  0
 18 14  1  0  0  0  0
 19 20  2  0  0  0  0
 19  9  1  0  0  0  0
 21 19  2  0  0  0  0
 22 19  1  0  0  0  0
 23 22  1  0  0  0  0
 24 22  1  0  0  0  0
 25 22  1  0  0  0  0
 26 27  1  0  0  0  0
 27 33  1  0  0  0  0
 27 28  2  0  0  0  0
 28 34  1  0  0  0  0
 29 28  1  0  0  0  0
 30 29  2  0  0  0  0
 31 26  2  0  0  0  0
 31 30  1  0  0  0  0
 32 26  1  0  0  0  0
 34 39  1  0  0  0  0
 35 34  1  0  0  0  0
 35 36  1  0  0  0  0
 36 37  1  0  0  0  0
 38 37  1  0  0  0  0
 39 38  1  0  0  0  0
M  END
>  <minimizedAffinity>
-6.46647501

$$$$

 OpenBabel03272504293D

 39 42  0  0  0  0  0  0  0  0999 V2000
   35.9740   29.1220   32.3790 C   0  0  0  0  0  0  0  0  0  0  0  0
   35.5640   29.8590   31.3240 C   0  0  0  0  0  0  0  0  0  0  0  0
   34.5270   30.7010   31.4340 C   0  0  0  0  0  0  0  0  0  0  0  0
   33.8870   30.8060   32.6260 N   0  0  0  0  0  0  0  0  0  0  0  0
   34.2970   30.0770   33.6570 C   0  0  0  0  0  0  0  0  0  0  0  0
   35.3320   29.2350   33.5540 N   0  0  0  0  0  0  0  0  0  0  0  0
   36.1320   29.7130   30.4110 H   0  0  0  0  0  0  0  0  0  0  0  0
   34.2200   31.2800   30.5700 H   0  0  0  0  0  0  0  0  0  0  0  0
   33.9830   31.2600   35.7880 C   0  0  0  0  0  0  0  0  0  0  0  0
   33.5580   30.2880   34.8800 C   0  0  0  0  0  0  0  0  0  0  0  0
   32.4630   29.4700   35.0800 C   0  0  0  0  0  0  0  0  0  0  0  0
   31.7290   29.5990   36.2370 C   0  0  0  0  0  0  0  0  0  0  0  0
   32.0750   30.5300   37.1910 C   0  0  0  0  0  0  0  0  0  0  0  0
   33.1640   31.2910   36.9110 C   0  0  0  0  0  0  0  0  0  0  0  0
   32.1690   28.7300   34.3490 H   0  0  0  0  0  0  0  0  0  0  0  0
   30.8780   28.9570   36.3840 H   0  0  0  0  0  0  0  0  0  0  0  0
   31.5170   30.6400   38.0890 H   0  0  0  0  0  0  0  0  0  0  0  0
   33.4310   32.0310   37.6790 H   0  0  0  0  0  0  0  0  0  0  0  0
   35.2810   32.2790   35.5720 S   0  0  0  0  0  0  0  0  0  0  0  0
   36.3840   31.2820   36.0570 O   0  0  0  0  0  0  0  0  0  0  0  0
   35.1550   33.3830   36.5930 O   0  0  0  0  0  0  0  0  0  0  0  0
   36.3910   32.9860   34.6690 C   0  0  0  0  0  0  0  0  0  0  0  0
   37.5290   33.6610   35.1680 F   0  0  0  0  0  0  0  0  0  0  0  0
   35.8740   34.2660   34.1610 F   0  0  0  0  0  0  0  0  0  0  0  0
   36.5970   32.6240   33.3120 F   0  0  0  0  0  0  0  0  0  0  0  0
   38.7610   27.0710   31.1390 C   0  0  0  0  0  0  0  0  0  0  0  0
   39.2030   26.4320   32.3140 C   0  0  0  0  0  0  0  0  0  0  0  0
   38.5420   26.7140   33.5020 C   0  0  0  0  0  0  0  0  0  0  0  0
   37.5100   27.5920   33.4450 N   0  0  0  0  0  0  0  0  0  0  0  0
   37.0970   28.1980   32.3030 C   0  0  0  0  0  0  0  0  0  0  0  0
   37.7310   27.9290   31.1590 N   0  0  0  0  0  0  0  0  0  0  0  0
   39.2620   26.8650   30.2040 H   0  0  0  0  0  0  0  0  0  0  0  0
   40.0190   25.7450   32.3310 H   0  0  0  0  0  0  0  0  0  0  0  0
   38.9020   26.1130   34.8140 C   0  0  0  0  0  3  0  0  0  0  0  0
   37.6860   25.6170   35.5580 C   0  0  0  0  0  2  0  0  0  0  0  0
   38.1440   24.8910   36.8040 C   0  0  0  0  0  2  0  0  0  0  0  0
   39.1020   23.7640   36.4660 C   0  0  0  0  0  2  0  0  0  0  0  0
   39.2760   23.7070   34.9430 C   0  0  0  0  0  2  0  0  0  0  0  0
   39.9150   25.0270   34.5410 C   0  0  0  0  0  2  0  0  0  0  0  0
  1  6  1  0  0  0  0
  2  3  1  0  0  0  0
  2  1  2  0  0  0  0
  3  4  2  0  0  0  0
  4  5  1  0  0  0  0
  5 10  1  0  0  0  0
  6  5  2  0  0  0  0
  7  2  1  0  0  0  0
  8  3  1  0  0  0  0
  9 14  1  0  0  0  0
 10 11  1  0  0  0  0
 10  9  2  0  0  0  0
 11 12  2  0  0  0  0
 12 16  1  0  0  0  0
 12 13  1  0  0  0  0
 13 17  1  0  0  0  0
 14 13  2  0  0  0  0
 14 18  1  0  0  0  0
 15 11  1  0  0  0  0
 19  9  1  0  0  0  0
 19 20  2  0  0  0  0
 19 21  2  0  0  0  0
 22 23  1  0  0  0  0
 22 19  1  0  0  0  0
 24 22  1  0  0  0  0
 25 22  1  0  0  0  0
 26 31  2  0  0  0  0
 26 27  1  0  0  0  0
 27 33  1  0  0  0  0
 27 28  2  0  0  0  0
 28 34  1  0  0  0  0
 29 28  1  0  0  0  0
 30  1  1  0  0  0  0
 30 29  2  0  0  0  0
 31 30  1  0  0  0  0
 32 26  1  0  0  0  0
 34 35  1  0  0  0  0
 35 36  1  0  0  0  0
 37 36  1  0  0  0  0
 38 37  1  0  0  0  0
 39 34  1  0  0  0  0
 39 38  1  0  0  0  0
M  END
>  <minimizedAffinity>
-6.45080137

$$$$
