
 OpenBabel03262520283D

 17 18  0  0  0  0  0  0  0  0999 V2000
   37.4380   30.2900   51.2290 C   0  0  0  0  0  0  0  0  0  0  0  0
   38.3680   30.8630   50.3430 C   0  0  0  0  0  0  0  0  0  0  0  0
   37.9710   31.0680   49.0250 C   0  0  0  0  0  0  0  0  0  0  0  0
   36.7170   30.7070   48.6660 N   0  0  0  0  0  0  0  0  0  0  0  0
   35.8470   30.1580   49.5460 C   0  0  0  0  0  0  0  0  0  0  0  0
   36.2100   29.9540   50.8110 N   0  0  0  0  0  0  0  0  0  0  0  0
   38.9220   31.6440   48.1620 N   0  0  0  0  0  0  0  0  0  0  0  0
   37.7400   30.1240   52.2700 H   0  0  0  0  0  0  0  0  0  0  0  0
   39.3440   31.1080   50.7650 H   0  0  0  0  0  0  0  0  0  0  0  0
   39.9420   31.4380   48.2680 H   0  0  0  0  0  0  0  0  0  0  0  0
   38.7770   32.3000   47.3620 H   0  0  0  0  0  0  0  0  0  0  0  0
   34.4610   29.7710   49.0990 C   0  0  0  0  0  0  0  0  0  0  0  0
   34.1970   30.2590   47.7330 C   0  0  0  0  0  0  0  0  0  0  0  0
   33.7150   29.2730   46.7260 C   0  0  0  0  0  0  0  0  0  0  0  0
   34.1130   27.8540   47.0150 C   0  0  0  0  0  0  0  0  0  0  0  0
   33.5000   27.5400   48.3840 C   0  0  0  0  0  0  0  0  0  0  0  0
   34.2730   28.3270   49.3820 C   0  0  0  0  0  0  0  0  0  0  0  0
  1  8  1  0  0  0  0
  2  9  1  0  0  0  0
  2  1  2  0  0  0  0
  3  2  1  0  0  0  0
  4  3  2  0  0  0  0
  4  5  1  0  0  0  0
  5  6  2  0  0  0  0
  6  1  1  0  0  0  0
  7 10  1  0  0  0  0
  7  3  1  0  0  0  0
 11  7  1  0  0  0  0
 12 17  1  0  0  0  0
 12  5  1  0  0  0  0
 13 12  1  0  0  0  0
 14 15  1  0  0  0  0
 14 13  1  0  0  0  0
 15 16  1  0  0  0  0
 16 17  1  0  0  0  0
M  END
>  <minimizedAffinity>
-4.93939638

>  <minimizedRMSD>
1.52950668

$$$$
