
 OpenBabel03272510343D

 25 27  0  0  0  0  0  0  0  0999 V2000
   35.8380   30.0920   47.2570 C   0  0  0  0  0  0  0  0  0  0  0  0
   35.2870   30.2650   45.9970 C   0  0  0  0  0  0  0  0  0  0  0  0
   34.2480   29.4330   45.5790 C   0  0  0  0  0  0  0  0  0  0  0  0
   33.7970   28.4600   46.4330 C   0  0  0  0  0  0  0  0  0  0  0  0
   34.3510   28.2850   47.7030 C   0  0  0  0  0  0  0  0  0  0  0  0
   35.3810   29.1100   48.1150 C   0  0  0  0  0  0  0  0  0  0  0  0
   35.6060   31.0140   45.2880 H   0  0  0  0  0  0  0  0  0  0  0  0
   33.8120   29.5600   44.5960 H   0  0  0  0  0  0  0  0  0  0  0  0
   32.9890   27.8430   46.0570 H   0  0  0  0  0  0  0  0  0  0  0  0
   33.9070   27.5000   48.2560 H   0  0  0  0  0  0  0  0  0  0  0  0
   37.6890   32.6720   49.0490 C   0  0  0  0  0  0  0  0  0  0  0  0
   38.9040   32.7690   48.3770 C   0  0  0  0  0  0  0  0  0  0  0  0
   39.0840   31.9150   47.2760 C   0  0  0  0  0  0  0  0  0  0  0  0
   38.0920   31.0590   46.9250 N   0  0  0  0  0  0  0  0  0  0  0  0
   36.9190   30.9980   47.6090 C   0  0  0  0  0  0  0  0  0  0  0  0
   36.7550   31.8140   48.6580 N   0  0  0  0  0  0  0  0  0  0  0  0
   37.5980   33.3540   49.8940 H   0  0  0  0  0  0  0  0  0  0  0  0
   39.7420   33.3990   48.5680 H   0  0  0  0  0  0  0  0  0  0  0  0
   39.9590   31.8530   46.6430 H   0  0  0  0  0  0  0  0  0  0  0  0
   35.9430   28.9150   49.4650 C   0  0  0  0  0  3  0  0  0  0  0  0
   37.3980   29.2210   49.5650 C   0  0  0  0  0  2  0  0  0  0  0  0
   37.8380   28.7950   50.9700 C   0  0  0  0  0  2  0  0  0  0  0  0
   37.1880   29.7990   51.9010 C   0  0  0  0  0  2  0  0  0  0  0  0
   35.7140   29.6070   51.8670 C   0  0  0  0  0  2  0  0  0  0  0  0
   35.1040   29.6290   50.4900 C   0  0  0  0  0  2  0  0  0  0  0  0
  1 15  1  0  0  0  0
  1  6  1  0  0  0  0
  2  1  2  0  0  0  0
  3  2  1  0  0  0  0
  3  4  2  0  0  0  0
  4  5  1  0  0  0  0
  5  6  2  0  0  0  0
  5 10  1  0  0  0  0
  6 20  1  0  0  0  0
  7  2  1  0  0  0  0
  8  3  1  0  0  0  0
  9  4  1  0  0  0  0
 11 17  1  0  0  0  0
 12 18  1  0  0  0  0
 12 11  2  0  0  0  0
 13 12  1  0  0  0  0
 14 13  2  0  0  0  0
 14 15  1  0  0  0  0
 15 16  2  0  0  0  0
 16 11  1  0  0  0  0
 19 13  1  0  0  0  0
 20 21  1  0  0  0  0
 20 25  1  0  0  0  0
 21 22  1  0  0  0  0
 22 23  1  0  0  0  0
 24 23  1  0  0  0  0
 25 24  1  0  0  0  0
M  END
>  <minimizedAffinity>
-4.86581421

>  <minimizedRMSD>
1.68647003

$$$$
