
 OpenBabel03272506473D

 39 42  0  0  1  0  0  0  0  0999 V2000
   32.2470   28.2180   47.6470 C   0  0  2  0  0  0  0  0  0  0  0  0
   33.5370   28.1660   48.4130 C   0  0  1  0  0  0  0  0  0  0  0  0
   34.0450   26.9070   48.2950 O   0  0  0  0  0  0  0  0  0  0  0  0
   33.3630   26.2320   47.2890 C   0  0  0  0  0  0  0  0  0  0  0  0
   32.6210   27.2580   46.4740 C   0  0  1  0  0  0  0  0  0  0  0  0
   31.3760   27.8100   48.1470 H   0  0  0  0  0  0  0  0  0  0  0  0
   33.3510   28.4880   49.4580 H   0  0  0  0  0  0  0  0  0  0  0  0
   32.7740   25.4560   47.7500 H   0  0  0  0  0  0  0  0  0  0  0  0
   34.1410   25.7480   46.6360 H   0  0  0  0  0  0  0  0  0  0  0  0
   33.2500   27.8390   45.8060 H   0  0  0  0  0  0  0  0  0  0  0  0
   32.0300   29.5120   47.1270 O   0  0  0  0  0  0  0  0  0  0  0  0
   32.6490   29.6330   46.3720 H   0  0  0  0  0  0  0  0  0  0  0  0
   34.7070   29.3320   47.6080 S   0  0  0  0  0  0  0  0  0  0  0  0
   37.3000   29.3160   50.6040 C   0  0  0  0  0  0  0  0  0  0  0  0
   37.7510   30.6350   50.6960 C   0  0  0  0  0  0  0  0  0  0  0  0
   37.2350   31.5650   49.7980 C   0  0  0  0  0  0  0  0  0  0  0  0
   36.3180   31.1500   48.8770 N   0  0  0  0  0  0  0  0  0  0  0  0
   35.9090   29.8640   48.8210 C   0  0  0  0  0  0  0  0  0  0  0  0
   36.3930   28.9310   49.6810 N   0  0  0  0  0  0  0  0  0  0  0  0
   37.7250   28.6420   51.3130 H   0  0  0  0  0  0  0  0  0  0  0  0
   38.4850   30.9190   51.4500 H   0  0  0  0  0  0  0  0  0  0  0  0
   37.5670   32.5900   49.8500 H   0  0  0  0  0  0  0  0  0  0  0  0
   31.4990   26.6780   45.9360 O   0  0  0  0  0  0  0  0  0  0  0  0
   30.5010   28.7300   44.0750 Cl  0  0  0  0  0  0  0  0  0  0  0  0
   29.6640   27.9660   45.4050 C   0  0  0  0  0  0  0  0  0  0  0  0
   30.2380   27.0020   46.2030 C   0  0  0  0  0  0  0  0  0  0  0  0
   29.4600   26.4450   47.2200 C   0  0  0  0  0  0  0  0  0  0  0  0
   28.1570   26.8530   47.4100 C   0  0  0  0  0  0  0  0  0  0  0  0
   27.5720   27.8190   46.6140 C   0  0  0  0  0  0  0  0  0  0  0  0
   28.3470   28.3690   45.6090 C   0  0  0  0  0  0  0  0  0  0  0  0
   29.8270   25.6830   47.8860 H   0  0  0  0  0  0  0  0  0  0  0  0
   27.5200   26.4480   48.1840 H   0  0  0  0  0  0  0  0  0  0  0  0
   26.5480   28.1300   46.7750 H   0  0  0  0  0  0  0  0  0  0  0  0
   27.7230   29.4100   44.7500 C   0  0  0  0  0  3  0  0  0  0  0  0
   27.6720   30.7610   45.4030 C   0  0  0  0  0  2  0  0  0  0  0  0
   26.4680   31.5680   44.9170 C   0  0  0  0  0  2  0  0  0  0  0  0
   26.1860   31.3410   43.4580 C   0  0  0  0  0  2  0  0  0  0  0  0
   25.7800   29.8930   43.2790 C   0  0  0  0  0  2  0  0  0  0  0  0
   26.3070   29.0280   44.3940 C   0  0  0  0  0  2  0  0  0  0  0  0
  1  6  1  1  0  0  0
  1  2  1  0  0  0  0
  2  7  1  1  0  0  0
  3  2  1  0  0  0  0
  4  8  1  0  0  0  0
  4  3  1  0  0  0  0
  5 10  1  6  0  0  0
  5  4  1  0  0  0  0
  5  1  1  0  0  0  0
  9  4  1  0  0  0  0
 11  1  1  0  0  0  0
 12 11  1  0  0  0  0
 13  2  1  0  0  0  0
 13 18  1  0  0  0  0
 14 15  1  0  0  0  0
 14 20  1  0  0  0  0
 15 21  1  0  0  0  0
 16 22  1  0  0  0  0
 16 15  2  0  0  0  0
 17 16  1  0  0  0  0
 18 17  2  0  0  0  0
 18 19  1  0  0  0  0
 19 14  2  0  0  0  0
 23 26  1  0  0  0  0
 23  5  1  0  0  0  0
 24 25  1  0  0  0  0
 25 30  2  0  0  0  0
 25 26  1  0  0  0  0
 26 27  2  0  0  0  0
 27 28  1  0  0  0  0
 27 31  1  0  0  0  0
 28 32  1  0  0  0  0
 29 33  1  0  0  0  0
 29 28  2  0  0  0  0
 30 29  1  0  0  0  0
 34 35  1  0  0  0  0
 34 30  1  0  0  0  0
 36 35  1  0  0  0  0
 37 36  1  0  0  0  0
 38 37  1  0  0  0  0
 38 39  1  0  0  0  0
 39 34  1  0  0  0  0
M  END
>  <minimizedAffinity>
-5.2356472

>  <minimizedRMSD>
0.681189418

$$$$
