
 OpenBabel03272506563D

 17 18  0  0  0  0  0  0  0  0999 V2000
   36.8630   31.8220   49.9690 C   0  0  0  0  0  0  0  0  0  0  0  0
   37.8290   32.1080   48.9760 C   0  0  0  0  0  0  0  0  0  0  0  0
   37.6130   31.5460   47.7040 C   0  0  0  0  0  0  0  0  0  0  0  0
   36.5170   30.7790   47.5030 N   0  0  0  0  0  0  0  0  0  0  0  0
   35.6240   30.5320   48.4720 C   0  0  0  0  0  0  0  0  0  0  0  0
   35.7880   31.0510   49.7160 N   0  0  0  0  0  0  0  0  0  0  0  0
   36.9730   32.2240   50.9650 H   0  0  0  0  0  0  0  0  0  0  0  0
   38.3560   31.7720   46.9560 H   0  0  0  0  0  0  0  0  0  0  0  0
   34.4840   29.6880   48.1220 C   0  0  0  0  0  3  0  0  0  0  0  0
   34.3760   29.3230   46.6830 C   0  0  0  0  0  2  0  0  0  0  0  0
   33.9820   27.8600   46.5790 C   0  0  0  0  0  2  0  0  0  0  0  0
   32.8090   27.5320   47.4720 C   0  0  0  0  0  2  0  0  0  0  0  0
   33.0140   27.9460   48.9080 C   0  0  0  0  0  2  0  0  0  0  0  0
   34.4490   28.4390   49.0000 C   0  0  0  0  0  2  0  0  0  0  0  0
   38.9540   32.9320   49.2910 N   0  0  0  0  0  0  0  0  0  0  0  0
   39.8390   32.7230   48.7790 H   0  0  0  0  0  0  0  0  0  0  0  0
   38.8280   33.6830   50.0050 H   0  0  0  0  0  0  0  0  0  0  0  0
  1  7  1  0  0  0  0
  2 15  1  0  0  0  0
  2  1  2  0  0  0  0
  3  2  1  0  0  0  0
  4  3  2  0  0  0  0
  4  5  1  0  0  0  0
  5  6  2  0  0  0  0
  6  1  1  0  0  0  0
  8  3  1  0  0  0  0
  9  5  1  0  0  0  0
  9 14  1  0  0  0  0
 10  9  1  0  0  0  0
 11 10  1  0  0  0  0
 11 12  1  0  0  0  0
 12 13  1  0  0  0  0
 13 14  1  0  0  0  0
 15 17  1  0  0  0  0
 16 15  1  0  0  0  0
M  END
>  <minimizedAffinity>
-4.29010725

>  <minimizedRMSD>
2.62670898

$$$$
