
 OpenBabel03272507513D

 25 27  0  0  0  0  0  0  0  0999 V2000
   36.0380   30.4730   46.9770 C   0  0  0  0  0  0  0  0  0  0  0  0
   36.6780   30.5470   45.7060 C   0  0  0  0  0  0  0  0  0  0  0  0
   35.9780   30.1020   44.5770 C   0  0  0  0  0  0  0  0  0  0  0  0
   34.7200   29.6190   44.7490 N   0  0  0  0  0  0  0  0  0  0  0  0
   34.1250   29.5540   45.9650 C   0  0  0  0  0  0  0  0  0  0  0  0
   34.7790   29.9790   47.0750 N   0  0  0  0  0  0  0  0  0  0  0  0
   36.4710   30.1630   43.6190 H   0  0  0  0  0  0  0  0  0  0  0  0
   33.1240   29.1450   45.9250 H   0  0  0  0  0  0  0  0  0  0  0  0
   37.9900   31.0770   45.6670 N   0  0  0  0  0  0  0  0  0  0  0  0
   38.2640   32.3360   46.0960 C   0  0  0  0  0  0  0  0  0  0  0  0
   39.5700   32.8180   46.0420 C   0  0  0  0  0  0  0  0  0  0  0  0
   40.4810   31.9210   45.5340 C   0  0  0  0  0  0  0  0  0  0  0  0
   41.6760   32.3670   45.4870 O   0  0  0  0  0  0  0  0  0  0  0  0
   40.2480   30.6640   45.0980 N   0  0  0  0  0  0  0  0  0  0  0  0
   38.9610   30.2650   45.1800 C   0  0  0  0  0  0  0  0  0  0  0  0
   38.7190   29.1010   44.7800 O   0  0  0  0  0  0  0  0  0  0  0  0
   37.4870   32.9830   46.4800 H   0  0  0  0  0  0  0  0  0  0  0  0
   39.8310   33.7920   46.3660 H   0  0  0  0  0  0  0  0  0  0  0  0
   41.0220   30.0710   44.7310 H   0  0  0  0  0  0  0  0  0  0  0  0
   36.6260   30.8820   48.2490 C   0  0  0  0  0  0  0  0  0  0  0  0
   37.7040   29.9000   48.7290 C   0  0  0  0  0  0  0  0  0  0  0  0
   38.0250   30.3340   50.1530 C   0  0  0  0  0  0  0  0  0  0  0  0
   36.8910   29.7950   51.0260 C   0  0  0  0  0  0  0  0  0  0  0  0
   35.5850   29.8630   50.2800 C   0  0  0  0  0  0  0  0  0  0  0  0
   35.5490   31.0230   49.3050 C   0  0  0  0  0  0  0  0  0  0  0  0
  1  6  1  0  0  0  0
  1 20  1  0  0  0  0
  2  1  2  0  0  0  0
  3  4  2  0  0  0  0
  3  2  1  0  0  0  0
  4  5  1  0  0  0  0
  5  6  2  0  0  0  0
  7  3  1  0  0  0  0
  8  5  1  0  0  0  0
  9  2  1  0  0  0  0
  9 10  1  0  0  0  0
 10 17  1  0  0  0  0
 11 10  2  0  0  0  0
 11 18  1  0  0  0  0
 12 11  1  0  0  0  0
 13 12  2  0  0  0  0
 14 15  1  0  0  0  0
 14 12  1  0  0  0  0
 15  9  1  0  0  0  0
 16 15  2  0  0  0  0
 19 14  1  0  0  0  0
 20 21  1  0  0  0  0
 20 25  1  0  0  0  0
 21 22  1  0  0  0  0
 22 23  1  0  0  0  0
 24 23  1  0  0  0  0
 25 24  1  0  0  0  0
M  END
>  <minimizedAffinity>
-5.69077444

>  <minimizedRMSD>
3.23777699

$$$$
