
 OpenBabel03272504123D

 18 19  0  0  1  0  0  0  0  0999 V2000
   36.7360   29.9200   49.5870 C   0  0  0  0  0  0  0  0  0  0  0  0
   37.8910   30.3370   48.9120 C   0  0  0  0  0  0  0  0  0  0  0  0
   37.7900   30.7030   47.5720 C   0  0  0  0  0  0  0  0  0  0  0  0
   36.5460   30.6300   46.9920 N   0  0  0  0  0  0  0  0  0  0  0  0
   35.4640   30.2260   47.6720 C   0  0  0  0  0  0  0  0  0  0  0  0
   35.5520   29.8730   48.9570 N   0  0  0  0  0  0  0  0  0  0  0  0
   38.8500   30.3810   49.4010 H   0  0  0  0  0  0  0  0  0  0  0  0
   34.4970   30.1800   47.1820 H   0  0  0  0  0  0  0  0  0  0  0  0
   38.9750   31.1560   46.7950 C   0  0  2  0  0  0  0  0  0  0  0  0
   38.8930   32.6180   46.4210 C   0  0  0  0  0  0  0  0  0  0  0  0
   40.2610   32.9800   45.9360 C   0  0  0  0  0  0  0  0  0  0  0  0
   40.6130   32.2140   44.7180 C   0  0  0  0  0  0  0  0  0  0  0  0
   39.9870   30.9010   44.5000 C   0  0  0  0  0  0  0  0  0  0  0  0
   39.1090   30.3310   45.5480 C   0  0  0  0  0  0  0  0  0  0  0  0
   36.8570   29.5280   51.0280 C   0  0  0  0  0  0  0  0  0  0  0  0
   35.6070   29.1620   51.5190 F   0  0  0  0  0  0  0  0  0  0  0  0
   37.7810   28.5310   51.1190 F   0  0  0  0  0  0  0  0  0  0  0  0
   37.2520   30.6640   51.7320 F   0  0  0  0  0  0  0  0  0  0  0  0
  1 15  1  0  0  0  0
  2  7  1  0  0  0  0
  2  1  2  0  0  0  0
  3  2  1  0  0  0  0
  4  3  2  0  0  0  0
  4  5  1  0  0  0  0
  5  6  2  0  0  0  0
  6  1  1  0  0  0  0
  8  5  1  0  0  0  0
  9  3  1  6  0  0  0
 10  9  1  0  0  0  0
 11 10  1  0  0  0  0
 12 11  1  0  0  0  0
 13 12  2  0  0  0  0
 13 14  1  0  0  0  0
 14  9  1  0  0  0  0
 15 17  1  0  0  0  0
 15 16  1  0  0  0  0
 15 18  1  0  0  0  0
M  END
>  <minimizedAffinity>
-6.13913727

>  <minimizedRMSD>
2.52593136

$$$$
