
 OpenBabel03272500443D

 30 32  0  0  1  0  0  0  0  0999 V2000
   36.7590   22.1440   32.2190 C   0  0  0  0  0  0  0  0  0  0  0  0
   35.8900   22.7690   31.3170 C   0  0  0  0  0  0  0  0  0  0  0  0
   35.8250   24.1730   31.3200 C   0  0  0  0  0  0  0  0  0  0  0  0
   36.6150   24.8360   32.2050 N   0  0  0  0  0  0  0  0  0  0  0  0
   37.4460   24.1970   33.0650 C   0  0  0  0  0  0  0  0  0  0  0  0
   37.5050   22.8660   33.0590 N   0  0  0  0  0  0  0  0  0  0  0  0
   38.2540   24.9680   33.9880 N   0  0  0  0  0  0  0  0  0  0  0  0
   38.3250   24.5570   35.3890 C   0  0  2  0  0  0  0  0  0  0  0  0
   38.5010   25.7120   36.3080 C   0  0  0  0  0  0  0  0  0  0  0  0
   38.0570   26.9840   35.5950 C   0  0  0  0  0  0  0  0  0  0  0  0
   39.1060   27.2070   34.5120 C   0  0  0  0  0  0  0  0  0  0  0  0
   38.9510   26.1410   33.4870 C   0  0  0  0  0  0  0  0  0  0  0  0
   36.7850   21.0700   32.1910 H   0  0  0  0  0  0  0  0  0  0  0  0
   35.2790   22.1990   30.6300 H   0  0  0  0  0  0  0  0  0  0  0  0
   35.1650   24.7090   30.6390 H   0  0  0  0  0  0  0  0  0  0  0  0
   37.2610   24.1910   35.5860 H   0  0  0  0  0  0  0  0  0  0  0  0
   39.4960   25.9380   36.6680 H   0  0  0  0  0  0  0  0  0  0  0  0
   37.8190   25.6630   37.2060 H   0  0  0  0  0  0  0  0  0  0  0  0
   37.1150   26.7720   35.0890 H   0  0  0  0  0  0  0  0  0  0  0  0
   37.9650   27.8450   36.2710 H   0  0  0  0  0  0  0  0  0  0  0  0
   38.8410   28.1850   34.0290 H   0  0  0  0  0  0  0  0  0  0  0  0
   40.1230   27.3050   34.9110 H   0  0  0  0  0  0  0  0  0  0  0  0
   39.9370   25.8160   33.1230 H   0  0  0  0  0  0  0  0  0  0  0  0
   38.4080   26.5080   32.5750 H   0  0  0  0  0  0  0  0  0  0  0  0
   39.1840   23.3730   35.5940 C   0  0  0  0  0  3  0  0  0  0  0  0
   40.4890   23.2870   34.9100 C   0  0  0  0  0  2  0  0  0  0  0  0
   41.6900   23.6270   35.7810 C   0  0  0  0  0  2  0  0  0  0  0  0
   41.8540   22.4390   36.7410 C   0  0  0  0  0  2  0  0  0  0  0  0
   40.5010   22.0290   37.2570 C   0  0  0  0  0  2  0  0  0  0  0  0
   39.4640   23.1200   37.0830 C   0  0  0  0  0  2  0  0  0  0  0  0
  1  6  1  0  0  0  0
  2  3  1  0  0  0  0
  2  1  2  0  0  0  0
  3  4  2  0  0  0  0
  4  5  1  0  0  0  0
  5  7  1  0  0  0  0
  6  5  2  0  0  0  0
  7  8  1  0  0  0  0
  8 16  1  1  0  0  0
  8 25  1  0  0  0  0
  8  9  1  0  0  0  0
  9 17  1  0  0  0  0
  9 18  1  0  0  0  0
 10 20  1  0  0  0  0
 10  9  1  0  0  0  0
 11 22  1  0  0  0  0
 11 10  1  0  0  0  0
 12  7  1  0  0  0  0
 12 11  1  0  0  0  0
 13  1  1  0  0  0  0
 14  2  1  0  0  0  0
 15  3  1  0  0  0  0
 19 10  1  0  0  0  0
 21 11  1  0  0  0  0
 23 12  1  0  0  0  0
 24 12  1  0  0  0  0
 25 30  1  0  0  0  0
 26 25  1  0  0  0  0
 26 27  1  0  0  0  0
 27 28  1  0  0  0  0
 28 29  1  0  0  0  0
 30 29  1  0  0  0  0
M  END
>  <minimizedAffinity>
-5.2162776

$$$$

 OpenBabel03272500443D

 30 32  0  0  1  0  0  0  0  0999 V2000
   38.3640   27.4400   35.6820 C   0  0  0  0  0  0  0  0  0  0  0  0
   38.4180   26.3670   36.5790 C   0  0  0  0  0  0  0  0  0  0  0  0
   38.0910   25.0850   36.1040 C   0  0  0  0  0  0  0  0  0  0  0  0
   37.7430   24.9710   34.7960 N   0  0  0  0  0  0  0  0  0  0  0  0
   37.7030   26.0340   33.9540 C   0  0  0  0  0  0  0  0  0  0  0  0
   38.0120   27.2460   34.4090 N   0  0  0  0  0  0  0  0  0  0  0  0
   37.3130   25.8390   32.5720 N   0  0  0  0  0  0  0  0  0  0  0  0
   36.3530   26.7590   31.9660 C   0  0  2  0  0  0  0  0  0  0  0  0
   35.5110   26.0970   30.9340 C   0  0  0  0  0  0  0  0  0  0  0  0
   35.5400   24.5910   31.1640 C   0  0  0  0  0  0  0  0  0  0  0  0
   36.9620   24.1730   30.8080 C   0  0  0  0  0  0  0  0  0  0  0  0
   37.8800   24.7180   31.8420 C   0  0  0  0  0  0  0  0  0  0  0  0
   38.6200   28.4060   36.0770 H   0  0  0  0  0  0  0  0  0  0  0  0
   38.7010   26.5060   37.6140 H   0  0  0  0  0  0  0  0  0  0  0  0
   38.1170   24.2160   36.7610 H   0  0  0  0  0  0  0  0  0  0  0  0
   35.6370   26.9660   32.8330 H   0  0  0  0  0  0  0  0  0  0  0  0
   35.7800   26.2170   29.8940 H   0  0  0  0  0  0  0  0  0  0  0  0
   34.4160   26.3560   31.0330 H   0  0  0  0  0  0  0  0  0  0  0  0
   35.4130   24.4130   32.2320 H   0  0  0  0  0  0  0  0  0  0  0  0
   34.7860   24.0520   30.5750 H   0  0  0  0  0  0  0  0  0  0  0  0
   36.9790   23.0530   30.8920 H   0  0  0  0  0  0  0  0  0  0  0  0
   37.2400   24.4280   29.7780 H   0  0  0  0  0  0  0  0  0  0  0  0
   38.8180   25.0580   31.3780 H   0  0  0  0  0  0  0  0  0  0  0  0
   38.1890   23.9360   32.5880 H   0  0  0  0  0  0  0  0  0  0  0  0
   36.9470   28.0710   31.6350 C   0  0  0  0  0  3  0  0  0  0  0  0
   37.9450   28.1710   30.5530 C   0  0  0  0  0  2  0  0  0  0  0  0
   37.4020   28.7000   29.2330 C   0  0  0  0  0  2  0  0  0  0  0  0
   37.1560   30.1990   29.4590 C   0  0  0  0  0  2  0  0  0  0  0  0
   36.5050   30.3970   30.8010 C   0  0  0  0  0  2  0  0  0  0  0  0
   35.8730   29.1240   31.3270 C   0  0  0  0  0  2  0  0  0  0  0  0
  1 13  1  0  0  0  0
  1  2  1  0  0  0  0
  2 14  1  0  0  0  0
  3  2  2  0  0  0  0
  3 15  1  0  0  0  0
  4  3  1  0  0  0  0
  5  6  1  0  0  0  0
  5  4  2  0  0  0  0
  6  1  2  0  0  0  0
  7  5  1  0  0  0  0
  8  7  1  0  0  0  0
  8 16  1  1  0  0  0
  9 18  1  0  0  0  0
  9 10  1  0  0  0  0
  9  8  1  0  0  0  0
 10 19  1  0  0  0  0
 11 21  1  0  0  0  0
 11 10  1  0  0  0  0
 11 12  1  0  0  0  0
 12  7  1  0  0  0  0
 12 24  1  0  0  0  0
 17  9  1  0  0  0  0
 20 10  1  0  0  0  0
 22 11  1  0  0  0  0
 23 12  1  0  0  0  0
 25  8  1  0  0  0  0
 26 25  1  0  0  0  0
 27 28  1  0  0  0  0
 27 26  1  0  0  0  0
 28 29  1  0  0  0  0
 29 30  1  0  0  0  0
 30 25  1  0  0  0  0
M  END
>  <minimizedAffinity>
-5.05202246

$$$$

 OpenBabel03272500443D

 30 32  0  0  1  0  0  0  0  0999 V2000
   36.5890   21.9730   32.6480 C   0  0  0  0  0  0  0  0  0  0  0  0
   35.7430   20.9590   33.1110 C   0  0  0  0  0  0  0  0  0  0  0  0
   35.7980   20.6160   34.4730 C   0  0  0  0  0  0  0  0  0  0  0  0
   36.6740   21.2970   35.2570 N   0  0  0  0  0  0  0  0  0  0  0  0
   37.4800   22.2760   34.7740 C   0  0  0  0  0  0  0  0  0  0  0  0
   37.4250   22.5960   33.4820 N   0  0  0  0  0  0  0  0  0  0  0  0
   38.3980   22.9540   35.6660 N   0  0  0  0  0  0  0  0  0  0  0  0
   39.7800   23.1660   35.2400 C   0  0  2  0  0  0  0  0  0  0  0  0
   40.7320   23.1500   36.3810 C   0  0  0  0  0  0  0  0  0  0  0  0
   40.0810   22.4320   37.5570 C   0  0  0  0  0  0  0  0  0  0  0  0
   38.9680   23.3660   38.0140 C   0  0  0  0  0  0  0  0  0  0  0  0
   37.9130   23.3820   36.9670 C   0  0  0  0  0  0  0  0  0  0  0  0
   36.5220   22.2100   31.6020 H   0  0  0  0  0  0  0  0  0  0  0  0
   35.0590   20.4430   32.4500 H   0  0  0  0  0  0  0  0  0  0  0  0
   35.1600   19.8330   34.8850 H   0  0  0  0  0  0  0  0  0  0  0  0
   40.0050   22.2050   34.6630 H   0  0  0  0  0  0  0  0  0  0  0  0
   41.0620   24.0950   36.7910 H   0  0  0  0  0  0  0  0  0  0  0  0
   41.6530   22.5310   36.1730 H   0  0  0  0  0  0  0  0  0  0  0  0
   39.6040   21.5290   37.1750 H   0  0  0  0  0  0  0  0  0  0  0  0
   40.7900   22.2000   38.3640 H   0  0  0  0  0  0  0  0  0  0  0  0
   38.5300   22.8920   38.9330 H   0  0  0  0  0  0  0  0  0  0  0  0
   39.3320   24.3610   38.3030 H   0  0  0  0  0  0  0  0  0  0  0  0
   37.5010   24.3960   36.8550 H   0  0  0  0  0  0  0  0  0  0  0  0
   37.0350   22.7370   37.2420 H   0  0  0  0  0  0  0  0  0  0  0  0
   39.9110   24.2520   34.2450 C   0  0  0  0  0  3  0  0  0  0  0  0
   39.2570   25.5510   34.4900 C   0  0  0  0  0  2  0  0  0  0  0  0
   40.1840   26.6470   34.9960 C   0  0  0  0  0  2  0  0  0  0  0  0
   41.0490   27.0470   33.7900 C   0  0  0  0  0  2  0  0  0  0  0  0
   41.4940   25.8040   33.0670 C   0  0  0  0  0  2  0  0  0  0  0  0
   41.3820   24.5650   33.9310 C   0  0  0  0  0  2  0  0  0  0  0  0
  1  2  2  0  0  0  0
  1  6  1  0  0  0  0
  2  3  1  0  0  0  0
  3 15  1  0  0  0  0
  3  4  2  0  0  0  0
  5  4  1  0  0  0  0
  5  7  1  0  0  0  0
  6  5  2  0  0  0  0
  7 12  1  0  0  0  0
  8 16  1  6  0  0  0
  8  7  1  0  0  0  0
  8  9  1  0  0  0  0
  9 17  1  0  0  0  0
  9 10  1  0  0  0  0
 10 11  1  0  0  0  0
 10 20  1  0  0  0  0
 11 22  1  0  0  0  0
 11 21  1  0  0  0  0
 12 24  1  0  0  0  0
 12 11  1  0  0  0  0
 13  1  1  0  0  0  0
 14  2  1  0  0  0  0
 18  9  1  0  0  0  0
 19 10  1  0  0  0  0
 23 12  1  0  0  0  0
 25 26  1  0  0  0  0
 25  8  1  0  0  0  0
 26 27  1  0  0  0  0
 28 27  1  0  0  0  0
 29 28  1  0  0  0  0
 29 30  1  0  0  0  0
 30 25  1  0  0  0  0
M  END
>  <minimizedAffinity>
-4.95649052

$$$$

 OpenBabel03272500443D

 30 32  0  0  1  0  0  0  0  0999 V2000
   38.2040   26.0120   36.2250 C   0  0  0  0  0  0  0  0  0  0  0  0
   38.4190   24.7670   36.8270 C   0  0  0  0  0  0  0  0  0  0  0  0
   38.3310   23.6160   36.0250 C   0  0  0  0  0  0  0  0  0  0  0  0
   38.0420   23.7880   34.7080 N   0  0  0  0  0  0  0  0  0  0  0  0
   37.8410   25.0120   34.1580 C   0  0  0  0  0  0  0  0  0  0  0  0
   37.9250   26.1000   34.9220 N   0  0  0  0  0  0  0  0  0  0  0  0
   37.5280   25.1210   32.7470 N   0  0  0  0  0  0  0  0  0  0  0  0
   36.4390   26.0000   32.3250 C   0  0  2  0  0  0  0  0  0  0  0  0
   35.7510   25.5010   31.1050 C   0  0  0  0  0  0  0  0  0  0  0  0
   36.0340   24.0120   30.9520 C   0  0  0  0  0  0  0  0  0  0  0  0
   37.5160   23.9330   30.6030 C   0  0  0  0  0  0  0  0  0  0  0  0
   38.2990   24.3320   31.8020 C   0  0  0  0  0  0  0  0  0  0  0  0
   38.2780   26.8710   36.8650 H   0  0  0  0  0  0  0  0  0  0  0  0
   38.6460   24.6770   37.8800 H   0  0  0  0  0  0  0  0  0  0  0  0
   38.4890   22.6220   36.4430 H   0  0  0  0  0  0  0  0  0  0  0  0
   35.6760   25.8590   33.1650 H   0  0  0  0  0  0  0  0  0  0  0  0
   36.0230   25.9270   30.1490 H   0  0  0  0  0  0  0  0  0  0  0  0
   34.6260   25.5470   31.1890 H   0  0  0  0  0  0  0  0  0  0  0  0
   35.9120   23.5460   31.9300 H   0  0  0  0  0  0  0  0  0  0  0  0
   35.4000   23.5300   30.1960 H   0  0  0  0  0  0  0  0  0  0  0  0
   37.7240   22.8470   30.4060 H   0  0  0  0  0  0  0  0  0  0  0  0
   37.7730   24.4860   29.6910 H   0  0  0  0  0  0  0  0  0  0  0  0
   39.1750   24.9260   31.5040 H   0  0  0  0  0  0  0  0  0  0  0  0
   38.7180   23.4440   32.3480 H   0  0  0  0  0  0  0  0  0  0  0  0
   36.8060   27.4300   32.3750 C   0  0  0  0  0  3  0  0  0  0  0  0
   37.8510   27.9500   31.4720 C   0  0  0  0  0  2  0  0  0  0  0  0
   37.3260   28.6930   30.2510 C   0  0  0  0  0  2  0  0  0  0  0  0
   36.7910   30.0320   30.7810 C   0  0  0  0  0  2  0  0  0  0  0  0
   36.0110   29.7890   32.0440 C   0  0  0  0  0  2  0  0  0  0  0  0
   35.5850   28.3420   32.1870 C   0  0  0  0  0  2  0  0  0  0  0  0
  1  2  1  0  0  0  0
  1 13  1  0  0  0  0
  2 14  1  0  0  0  0
  3 15  1  0  0  0  0
  3  2  2  0  0  0  0
  4  3  1  0  0  0  0
  5  4  2  0  0  0  0
  5  6  1  0  0  0  0
  6  1  2  0  0  0  0
  7  5  1  0  0  0  0
  8 25  1  0  0  0  0
  8  7  1  0  0  0  0
  8 16  1  1  0  0  0
  9 18  1  0  0  0  0
  9  8  1  0  0  0  0
 10  9  1  0  0  0  0
 10 19  1  0  0  0  0
 11 10  1  0  0  0  0
 11 12  1  0  0  0  0
 12 24  1  0  0  0  0
 12  7  1  0  0  0  0
 17  9  1  0  0  0  0
 20 10  1  0  0  0  0
 21 11  1  0  0  0  0
 22 11  1  0  0  0  0
 23 12  1  0  0  0  0
 26 25  1  0  0  0  0
 27 28  1  0  0  0  0
 27 26  1  0  0  0  0
 28 29  1  0  0  0  0
 29 30  1  0  0  0  0
 30 25  1  0  0  0  0
M  END
>  <minimizedAffinity>
-4.89912415

$$$$

 OpenBabel03272500443D

 30 32  0  0  1  0  0  0  0  0999 V2000
   36.8460   22.5280   32.2960 C   0  0  0  0  0  0  0  0  0  0  0  0
   37.0710   21.5170   33.2380 C   0  0  0  0  0  0  0  0  0  0  0  0
   37.6930   21.8640   34.4500 C   0  0  0  0  0  0  0  0  0  0  0  0
   38.0350   23.1670   34.6300 N   0  0  0  0  0  0  0  0  0  0  0  0
   37.8010   24.1210   33.6940 C   0  0  0  0  0  0  0  0  0  0  0  0
   37.2120   23.7870   32.5470 N   0  0  0  0  0  0  0  0  0  0  0  0
   38.2010   25.4900   33.9490 N   0  0  0  0  0  0  0  0  0  0  0  0
   38.8980   26.2350   32.9020 C   0  0  2  0  0  0  0  0  0  0  0  0
   39.8580   27.2250   33.4580 C   0  0  0  0  0  0  0  0  0  0  0  0
   40.2010   26.8320   34.8890 C   0  0  0  0  0  0  0  0  0  0  0  0
   38.9180   27.0750   35.6760 C   0  0  0  0  0  0  0  0  0  0  0  0
   37.9130   26.0660   35.2510 C   0  0  0  0  0  0  0  0  0  0  0  0
   36.3690   22.2290   31.3800 H   0  0  0  0  0  0  0  0  0  0  0  0
   36.7810   20.4920   33.0520 H   0  0  0  0  0  0  0  0  0  0  0  0
   37.8910   21.1160   35.2180 H   0  0  0  0  0  0  0  0  0  0  0  0
   39.5560   25.4290   32.4290 H   0  0  0  0  0  0  0  0  0  0  0  0
   39.5490   28.2590   33.5280 H   0  0  0  0  0  0  0  0  0  0  0  0
   40.8580   27.2050   32.9340 H   0  0  0  0  0  0  0  0  0  0  0  0
   40.3860   25.7580   34.9060 H   0  0  0  0  0  0  0  0  0  0  0  0
   41.0530   27.3930   35.2960 H   0  0  0  0  0  0  0  0  0  0  0  0
   39.1760   26.8690   36.7490 H   0  0  0  0  0  0  0  0  0  0  0  0
   38.5680   28.1140   35.6170 H   0  0  0  0  0  0  0  0  0  0  0  0
   36.9120   26.5220   35.2020 H   0  0  0  0  0  0  0  0  0  0  0  0
   37.8170   25.2270   35.9920 H   0  0  0  0  0  0  0  0  0  0  0  0
   37.9950   26.6790   31.8200 C   0  0  0  0  0  3  0  0  0  0  0  0
   36.6960   27.2920   32.1550 C   0  0  0  0  0  2  0  0  0  0  0  0
   36.6640   28.8110   32.0580 C   0  0  0  0  0  2  0  0  0  0  0  0
   36.6890   29.1300   30.5560 C   0  0  0  0  0  2  0  0  0  0  0  0
   37.6980   28.2430   29.8790 C   0  0  0  0  0  2  0  0  0  0  0  0
   38.6920   27.6510   30.8570 C   0  0  0  0  0  2  0  0  0  0  0  0
  1  6  2  0  0  0  0
  1  2  1  0  0  0  0
  2  3  2  0  0  0  0
  3  4  1  0  0  0  0
  3 15  1  0  0  0  0
  5  7  1  0  0  0  0
  5  4  2  0  0  0  0
  6  5  1  0  0  0  0
  7 12  1  0  0  0  0
  8 16  1  6  0  0  0
  8  9  1  0  0  0  0
  8  7  1  0  0  0  0
  9 17  1  0  0  0  0
  9 10  1  0  0  0  0
 10 19  1  0  0  0  0
 10 20  1  0  0  0  0
 10 11  1  0  0  0  0
 11 21  1  0  0  0  0
 12 11  1  0  0  0  0
 12 24  1  0  0  0  0
 13  1  1  0  0  0  0
 14  2  1  0  0  0  0
 18  9  1  0  0  0  0
 22 11  1  0  0  0  0
 23 12  1  0  0  0  0
 25 26  1  0  0  0  0
 25  8  1  0  0  0  0
 27 26  1  0  0  0  0
 28 27  1  0  0  0  0
 29 28  1  0  0  0  0
 29 30  1  0  0  0  0
 30 25  1  0  0  0  0
M  END
>  <minimizedAffinity>
-4.87129736

$$$$

 OpenBabel03272500443D

 30 32  0  0  1  0  0  0  0  0999 V2000
   37.0050   26.9430   34.7880 C   0  0  0  0  0  0  0  0  0  0  0  0
   37.4290   26.1160   33.7410 C   0  0  0  0  0  0  0  0  0  0  0  0
   37.2250   26.5550   32.4220 C   0  0  0  0  0  0  0  0  0  0  0  0
   36.6260   27.7620   32.2470 N   0  0  0  0  0  0  0  0  0  0  0  0
   36.2280   28.5380   33.2860 C   0  0  0  0  0  0  0  0  0  0  0  0
   36.4230   28.1180   34.5350 N   0  0  0  0  0  0  0  0  0  0  0  0
   35.5870   29.8110   33.0260 N   0  0  0  0  0  0  0  0  0  0  0  0
   34.3780   30.1660   33.7690 C   0  0  2  0  0  0  0  0  0  0  0  0
   33.4550   31.0160   32.9720 C   0  0  0  0  0  0  0  0  0  0  0  0
   33.7830   30.8500   31.4930 C   0  0  0  0  0  0  0  0  0  0  0  0
   35.1430   31.5160   31.3210 C   0  0  0  0  0  0  0  0  0  0  0  0
   36.1600   30.6840   32.0160 C   0  0  0  0  0  0  0  0  0  0  0  0
   37.1760   26.5780   35.7840 H   0  0  0  0  0  0  0  0  0  0  0  0
   37.9030   25.1620   33.9270 H   0  0  0  0  0  0  0  0  0  0  0  0
   37.5360   25.9500   31.5700 H   0  0  0  0  0  0  0  0  0  0  0  0
   33.8440   29.1590   33.8530 H   0  0  0  0  0  0  0  0  0  0  0  0
   33.4690   32.0850   33.1340 H   0  0  0  0  0  0  0  0  0  0  0  0
   32.3800   30.6760   33.0410 H   0  0  0  0  0  0  0  0  0  0  0  0
   33.9210   29.7870   31.2980 H   0  0  0  0  0  0  0  0  0  0  0  0
   33.0190   31.2840   30.8330 H   0  0  0  0  0  0  0  0  0  0  0  0
   35.3640   31.4770   30.2210 H   0  0  0  0  0  0  0  0  0  0  0  0
   35.1450   32.5730   31.6180 H   0  0  0  0  0  0  0  0  0  0  0  0
   36.9050   31.3250   32.5090 H   0  0  0  0  0  0  0  0  0  0  0  0
   36.7480   30.0490   31.2990 H   0  0  0  0  0  0  0  0  0  0  0  0
   34.6610   30.5690   35.1620 C   0  0  0  0  0  3  0  0  0  0  0  0
   35.8060   31.4550   35.4490 C   0  0  0  0  0  2  0  0  0  0  0  0
   35.4400   32.9140   35.6810 C   0  0  0  0  0  2  0  0  0  0  0  0
   34.7630   32.9570   37.0590 C   0  0  0  0  0  2  0  0  0  0  0  0
   33.8100   31.7990   37.1780 C   0  0  0  0  0  2  0  0  0  0  0  0
   33.4390   31.2180   35.8280 C   0  0  0  0  0  2  0  0  0  0  0  0
  1 13  1  0  0  0  0
  2 14  1  0  0  0  0
  2  1  2  0  0  0  0
  3  2  1  0  0  0  0
  4  3  2  0  0  0  0
  4  5  1  0  0  0  0
  5  6  2  0  0  0  0
  6  1  1  0  0  0  0
  7  5  1  0  0  0  0
  7  8  1  0  0  0  0
  8 16  1  1  0  0  0
  8 25  1  0  0  0  0
  9 18  1  0  0  0  0
  9 17  1  0  0  0  0
  9  8  1  0  0  0  0
 10  9  1  0  0  0  0
 11 10  1  0  0  0  0
 11 22  1  0  0  0  0
 11 12  1  0  0  0  0
 12 23  1  0  0  0  0
 12  7  1  0  0  0  0
 15  3  1  0  0  0  0
 19 10  1  0  0  0  0
 20 10  1  0  0  0  0
 21 11  1  0  0  0  0
 24 12  1  0  0  0  0
 25 26  1  0  0  0  0
 25 30  1  0  0  0  0
 26 27  1  0  0  0  0
 27 28  1  0  0  0  0
 28 29  1  0  0  0  0
 30 29  1  0  0  0  0
M  END
>  <minimizedAffinity>
-4.77960825

$$$$

 OpenBabel03272500443D

 30 32  0  0  1  0  0  0  0  0999 V2000
   38.4400   22.6350   36.3960 C   0  0  0  0  0  0  0  0  0  0  0  0
   39.0410   23.8500   36.7450 C   0  0  0  0  0  0  0  0  0  0  0  0
   39.1260   24.8570   35.7680 C   0  0  0  0  0  0  0  0  0  0  0  0
   38.6150   24.5830   34.5390 N   0  0  0  0  0  0  0  0  0  0  0  0
   38.0390   23.3930   34.2350 C   0  0  0  0  0  0  0  0  0  0  0  0
   37.9610   22.4420   35.1650 N   0  0  0  0  0  0  0  0  0  0  0  0
   37.5220   23.1660   32.9000 N   0  0  0  0  0  0  0  0  0  0  0  0
   37.8280   21.9080   32.2220 C   0  0  2  0  0  0  0  0  0  0  0  0
   37.9240   22.0700   30.7480 C   0  0  0  0  0  0  0  0  0  0  0  0
   38.1780   23.5380   30.4270 C   0  0  0  0  0  0  0  0  0  0  0  0
   36.8780   24.2450   30.7950 C   0  0  0  0  0  0  0  0  0  0  0  0
   36.7340   24.2130   32.2740 C   0  0  0  0  0  0  0  0  0  0  0  0
   38.3920   21.8880   37.1660 H   0  0  0  0  0  0  0  0  0  0  0  0
   39.4340   24.0250   37.7380 H   0  0  0  0  0  0  0  0  0  0  0  0
   39.5840   25.8210   35.9870 H   0  0  0  0  0  0  0  0  0  0  0  0
   38.9010   21.7060   32.5610 H   0  0  0  0  0  0  0  0  0  0  0  0
   37.0680   21.8050   30.1420 H   0  0  0  0  0  0  0  0  0  0  0  0
   38.8240   21.5470   30.3090 H   0  0  0  0  0  0  0  0  0  0  0  0
   38.9440   23.9030   31.1120 H   0  0  0  0  0  0  0  0  0  0  0  0
   38.4630   23.7060   29.3800 H   0  0  0  0  0  0  0  0  0  0  0  0
   37.0170   25.3160   30.4880 H   0  0  0  0  0  0  0  0  0  0  0  0
   36.0090   23.8580   30.2480 H   0  0  0  0  0  0  0  0  0  0  0  0
   35.6810   24.0520   32.5510 H   0  0  0  0  0  0  0  0  0  0  0  0
   37.0150   25.1930   32.7470 H   0  0  0  0  0  0  0  0  0  0  0  0
   37.0390   20.7720   32.7420 C   0  0  0  0  0  3  0  0  0  0  0  0
   35.5950   20.9390   32.9980 C   0  0  0  0  0  2  0  0  0  0  0  0
   34.6870   20.3650   31.9200 C   0  0  0  0  0  2  0  0  0  0  0  0
   34.7740   18.8390   32.0750 C   0  0  0  0  0  2  0  0  0  0  0  0
   36.2090   18.4450   32.2940 C   0  0  0  0  0  2  0  0  0  0  0  0
   37.1760   19.5260   31.8550 C   0  0  0  0  0  2  0  0  0  0  0  0
  1  2  1  0  0  0  0
  1 13  1  0  0  0  0
  2 14  1  0  0  0  0
  3 15  1  0  0  0  0
  3  2  2  0  0  0  0
  4  3  1  0  0  0  0
  5  4  2  0  0  0  0
  5  6  1  0  0  0  0
  6  1  2  0  0  0  0
  7  5  1  0  0  0  0
  8 16  1  1  0  0  0
  8 25  1  0  0  0  0
  8  7  1  0  0  0  0
  9  8  1  0  0  0  0
 10  9  1  0  0  0  0
 10 11  1  0  0  0  0
 10 19  1  0  0  0  0
 11 12  1  0  0  0  0
 12 23  1  0  0  0  0
 12 24  1  0  0  0  0
 12  7  1  0  0  0  0
 17  9  1  0  0  0  0
 18  9  1  0  0  0  0
 20 10  1  0  0  0  0
 21 11  1  0  0  0  0
 22 11  1  0  0  0  0
 25 26  1  0  0  0  0
 27 28  1  0  0  0  0
 27 26  1  0  0  0  0
 28 29  1  0  0  0  0
 30 29  1  0  0  0  0
 30 25  1  0  0  0  0
M  END
>  <minimizedAffinity>
-4.75571346

$$$$

 OpenBabel03272500443D

 30 32  0  0  1  0  0  0  0  0999 V2000
   43.0110   22.4710   35.1490 C   0  0  0  0  0  0  0  0  0  0  0  0
   43.3640   21.4730   36.0660 C   0  0  0  0  0  0  0  0  0  0  0  0
   42.3920   21.0360   36.9820 C   0  0  0  0  0  0  0  0  0  0  0  0
   41.1630   21.6130   36.9170 N   0  0  0  0  0  0  0  0  0  0  0  0
   40.8550   22.5780   36.0130 C   0  0  0  0  0  0  0  0  0  0  0  0
   41.7810   22.9890   35.1480 N   0  0  0  0  0  0  0  0  0  0  0  0
   39.5270   23.1560   36.0070 N   0  0  0  0  0  0  0  0  0  0  0  0
   39.3820   24.6080   35.9160 C   0  0  2  0  0  0  0  0  0  0  0  0
   38.1770   25.1010   36.6330 C   0  0  0  0  0  0  0  0  0  0  0  0
   37.7420   24.0520   37.6490 C   0  0  0  0  0  0  0  0  0  0  0  0
   37.2260   22.8900   36.8090 C   0  0  0  0  0  0  0  0  0  0  0  0
   38.3830   22.2680   36.1130 C   0  0  0  0  0  0  0  0  0  0  0  0
   43.7770   22.7820   34.4640 H   0  0  0  0  0  0  0  0  0  0  0  0
   44.3560   21.0420   36.0810 H   0  0  0  0  0  0  0  0  0  0  0  0
   42.6150   20.2620   37.7160 H   0  0  0  0  0  0  0  0  0  0  0  0
   40.2630   24.9780   36.5430 H   0  0  0  0  0  0  0  0  0  0  0  0
   37.2840   25.3080   36.0590 H   0  0  0  0  0  0  0  0  0  0  0  0
   38.3890   26.0100   37.2700 H   0  0  0  0  0  0  0  0  0  0  0  0
   38.6340   23.6990   38.1680 H   0  0  0  0  0  0  0  0  0  0  0  0
   36.9880   24.4250   38.3550 H   0  0  0  0  0  0  0  0  0  0  0  0
   36.8240   22.1400   37.5410 H   0  0  0  0  0  0  0  0  0  0  0  0
   36.3990   23.1730   36.1450 H   0  0  0  0  0  0  0  0  0  0  0  0
   38.0970   21.9640   35.0950 H   0  0  0  0  0  0  0  0  0  0  0  0
   38.7200   21.3220   36.6180 H   0  0  0  0  0  0  0  0  0  0  0  0
   39.6360   25.1230   34.5540 C   0  0  0  0  0  3  0  0  0  0  0  0
   38.5900   25.0060   33.5210 C   0  0  0  0  0  2  0  0  0  0  0  0
   37.8020   26.2830   33.2630 C   0  0  0  0  0  2  0  0  0  0  0  0
   38.7630   27.2180   32.5150 C   0  0  0  0  0  2  0  0  0  0  0  0
   40.1190   27.1570   33.1640 C   0  0  0  0  0  2  0  0  0  0  0  0
   40.0580   26.6000   34.5710 C   0  0  0  0  0  2  0  0  0  0  0  0
  1  2  1  0  0  0  0
  2 14  1  0  0  0  0
  2  3  2  0  0  0  0
  3 15  1  0  0  0  0
  4  3  1  0  0  0  0
  5  4  2  0  0  0  0
  6  1  2  0  0  0  0
  6  5  1  0  0  0  0
  7  5  1  0  0  0  0
  7 12  1  0  0  0  0
  8  7  1  0  0  0  0
  8 16  1  1  0  0  0
  8  9  1  0  0  0  0
  9 18  1  0  0  0  0
  9 10  1  0  0  0  0
 10 19  1  0  0  0  0
 10 20  1  0  0  0  0
 11 21  1  0  0  0  0
 11 10  1  0  0  0  0
 12 24  1  0  0  0  0
 12 11  1  0  0  0  0
 13  1  1  0  0  0  0
 17  9  1  0  0  0  0
 22 11  1  0  0  0  0
 23 12  1  0  0  0  0
 25 30  1  0  0  0  0
 25  8  1  0  0  0  0
 26 25  1  0  0  0  0
 27 26  1  0  0  0  0
 28 29  1  0  0  0  0
 28 27  1  0  0  0  0
 29 30  1  0  0  0  0
M  END
>  <minimizedAffinity>
-4.70703936

$$$$

 OpenBabel03272500443D

 30 32  0  0  1  0  0  0  0  0999 V2000
   36.3750   22.3150   31.6340 C   0  0  0  0  0  0  0  0  0  0  0  0
   36.7120   21.0290   31.1950 C   0  0  0  0  0  0  0  0  0  0  0  0
   37.7500   20.3500   31.8560 C   0  0  0  0  0  0  0  0  0  0  0  0
   38.3620   20.9900   32.8870 N   0  0  0  0  0  0  0  0  0  0  0  0
   38.0080   22.2380   33.2860 C   0  0  0  0  0  0  0  0  0  0  0  0
   37.0240   22.8770   32.6560 N   0  0  0  0  0  0  0  0  0  0  0  0
   38.7110   22.8630   34.3880 N   0  0  0  0  0  0  0  0  0  0  0  0
   39.1460   24.2530   34.2580 C   0  0  2  0  0  0  0  0  0  0  0  0
   40.3980   24.5260   35.0130 C   0  0  0  0  0  0  0  0  0  0  0  0
   41.1170   23.2070   35.2710 C   0  0  0  0  0  0  0  0  0  0  0  0
   40.2310   22.4730   36.2710 C   0  0  0  0  0  0  0  0  0  0  0  0
   38.9770   22.0760   35.5790 C   0  0  0  0  0  0  0  0  0  0  0  0
   35.5770   22.8060   31.1080 H   0  0  0  0  0  0  0  0  0  0  0  0
   36.1960   20.5580   30.3690 H   0  0  0  0  0  0  0  0  0  0  0  0
   38.0520   19.3480   31.5530 H   0  0  0  0  0  0  0  0  0  0  0  0
   39.4540   24.3080   33.1590 H   0  0  0  0  0  0  0  0  0  0  0  0
   40.3220   24.9870   35.9880 H   0  0  0  0  0  0  0  0  0  0  0  0
   41.1480   25.1200   34.4140 H   0  0  0  0  0  0  0  0  0  0  0  0
   41.1000   22.6300   34.3460 H   0  0  0  0  0  0  0  0  0  0  0  0
   42.1420   23.3430   35.6410 H   0  0  0  0  0  0  0  0  0  0  0  0
   40.7870   21.5340   36.5370 H   0  0  0  0  0  0  0  0  0  0  0  0
   40.0760   23.0340   37.2010 H   0  0  0  0  0  0  0  0  0  0  0  0
   38.1170   22.1870   36.2560 H   0  0  0  0  0  0  0  0  0  0  0  0
   38.9820   20.9900   35.2870 H   0  0  0  0  0  0  0  0  0  0  0  0
   38.0330   25.2160   34.3940 C   0  0  0  0  0  3  0  0  0  0  0  0
   37.7180   25.7880   35.7170 C   0  0  0  0  0  2  0  0  0  0  0  0
   38.2400   27.2010   35.9410 C   0  0  0  0  0  2  0  0  0  0  0  0
   37.3540   28.1110   35.0770 C   0  0  0  0  0  2  0  0  0  0  0  0
   37.1480   27.4700   33.7320 C   0  0  0  0  0  2  0  0  0  0  0  0
   38.1870   26.4060   33.4370 C   0  0  0  0  0  2  0  0  0  0  0  0
  1  6  1  0  0  0  0
  2  1  2  0  0  0  0
  2  3  1  0  0  0  0
  3  4  2  0  0  0  0
  4  5  1  0  0  0  0
  5  7  1  0  0  0  0
  6  5  2  0  0  0  0
  7 12  1  0  0  0  0
  8 16  1  6  0  0  0
  8  7  1  0  0  0  0
  8 25  1  0  0  0  0
  8  9  1  0  0  0  0
  9 10  1  0  0  0  0
  9 17  1  0  0  0  0
 10 20  1  0  0  0  0
 10 11  1  0  0  0  0
 11 21  1  0  0  0  0
 11 22  1  0  0  0  0
 12 23  1  0  0  0  0
 12 11  1  0  0  0  0
 13  1  1  0  0  0  0
 14  2  1  0  0  0  0
 15  3  1  0  0  0  0
 18  9  1  0  0  0  0
 19 10  1  0  0  0  0
 24 12  1  0  0  0  0
 25 26  1  0  0  0  0
 26 27  1  0  0  0  0
 28 27  1  0  0  0  0
 29 28  1  0  0  0  0
 30 29  1  0  0  0  0
 30 25  1  0  0  0  0
M  END
>  <minimizedAffinity>
-4.68432999

$$$$
