
 OpenBabel03272510213D

 33 36  0  0  0  0  0  0  0  0999 V2000
   37.3980   29.1850   50.8440 Br  0  0  0  0  0  0  0  0  0  0  0  0
   35.9920   29.2540   49.5570 C   0  0  0  0  0  0  0  0  0  0  0  0
   35.9890   30.2470   48.5680 C   0  0  0  0  0  0  0  0  0  0  0  0
   34.9360   30.2350   47.6680 C   0  0  0  0  0  0  0  0  0  0  0  0
   33.9150   29.2960   47.7170 C   0  0  0  0  0  0  0  0  0  0  0  0
   33.9560   28.3500   48.6950 C   0  0  0  0  0  0  0  0  0  0  0  0
   34.9910   28.3420   49.6000 C   0  0  0  0  0  0  0  0  0  0  0  0
   34.8730   30.9710   46.8810 H   0  0  0  0  0  0  0  0  0  0  0  0
   33.1650   27.6120   48.7430 H   0  0  0  0  0  0  0  0  0  0  0  0
   34.9720   27.5610   50.3590 H   0  0  0  0  0  0  0  0  0  0  0  0
   37.9880   33.1580   49.4430 C   0  0  0  0  0  0  0  0  0  0  0  0
   39.0040   33.1710   48.4480 C   0  0  0  0  0  0  0  0  0  0  0  0
   38.9770   32.1720   47.4920 C   0  0  0  0  0  0  0  0  0  0  0  0
   37.9910   31.2220   47.5390 N   0  0  0  0  0  0  0  0  0  0  0  0
   37.0450   31.2400   48.4940 C   0  0  0  0  0  0  0  0  0  0  0  0
   37.0510   32.2120   49.4430 N   0  0  0  0  0  0  0  0  0  0  0  0
   37.9290   33.8960   50.2260 H   0  0  0  0  0  0  0  0  0  0  0  0
   39.7010   33.9730   48.5440 H   0  0  0  0  0  0  0  0  0  0  0  0
   39.7450   32.1970   46.7570 H   0  0  0  0  0  0  0  0  0  0  0  0
   32.8150   29.2890   46.7720 C   0  0  0  0  0  0  0  0  0  0  0  0
   32.0600   28.1710   46.4570 C   0  0  0  0  0  0  0  0  0  0  0  0
   31.0090   28.2170   45.5390 C   0  0  0  0  0  0  0  0  0  0  0  0
   30.7040   29.3660   44.9330 N   0  0  0  0  0  0  0  0  0  0  0  0
   31.4380   30.4600   45.2380 C   0  0  0  0  0  0  0  0  0  0  0  0
   32.4420   30.4010   46.1190 N   0  0  0  0  0  0  0  0  0  0  0  0
   32.3030   27.2330   46.9470 H   0  0  0  0  0  0  0  0  0  0  0  0
   30.4740   27.2810   45.3580 H   0  0  0  0  0  0  0  0  0  0  0  0
   31.0910   31.7290   44.5580 C   0  0  0  0  0  3  0  0  0  0  0  0
   32.3090   32.4100   43.9730 C   0  0  0  0  0  2  0  0  0  0  0  0
   31.9580   33.3830   42.8900 C   0  0  0  0  0  2  0  0  0  0  0  0
   30.5620   33.9390   43.0260 C   0  0  0  0  0  2  0  0  0  0  0  0
   29.4920   32.9040   43.1430 C   0  0  0  0  0  2  0  0  0  0  0  0
   30.1270   31.5360   43.4000 C   0  0  0  0  0  2  0  0  0  0  0  0
  2  7  1  0  0  0  0
  2  1  1  0  0  0  0
  3  2  2  0  0  0  0
  4  5  2  0  0  0  0
  4  3  1  0  0  0  0
  5  6  1  0  0  0  0
  6  9  1  0  0  0  0
  6  7  2  0  0  0  0
  7 10  1  0  0  0  0
  8  4  1  0  0  0  0
 11 17  1  0  0  0  0
 12 18  1  0  0  0  0
 12 11  2  0  0  0  0
 13 14  2  0  0  0  0
 13 12  1  0  0  0  0
 14 15  1  0  0  0  0
 15  3  1  0  0  0  0
 15 16  2  0  0  0  0
 16 11  1  0  0  0  0
 19 13  1  0  0  0  0
 20  5  1  0  0  0  0
 21 20  1  0  0  0  0
 21 26  1  0  0  0  0
 22 21  2  0  0  0  0
 23 24  2  0  0  0  0
 23 22  1  0  0  0  0
 24 25  1  0  0  0  0
 25 20  2  0  0  0  0
 27 22  1  0  0  0  0
 28 24  1  0  0  0  0
 29 28  1  0  0  0  0
 30 31  1  0  0  0  0
 30 29  1  0  0  0  0
 31 32  1  0  0  0  0
 32 33  1  0  0  0  0
 33 28  1  0  0  0  0
M  END
>  <minimizedAffinity>
-6.37851286

>  <minimizedRMSD>
0.559730232

$$$$
