
 OpenBabel03272505123D

 36 39  0  0  0  0  0  0  0  0999 V2000
   36.4160   30.8940   45.7070 Cl  0  0  0  0  0  0  0  0  0  0  0  0
   36.6930   30.7840   47.4240 C   0  0  0  0  0  0  0  0  0  0  0  0
   37.9520   31.1270   47.8820 C   0  0  0  0  0  0  0  0  0  0  0  0
   38.1850   31.0410   49.2500 C   0  0  0  0  0  0  0  0  0  0  0  0
   37.1740   30.6290   50.0890 C   0  0  0  0  0  0  0  0  0  0  0  0
   35.9380   30.3030   49.5520 C   0  0  0  0  0  0  0  0  0  0  0  0
   35.6400   30.3630   48.2150 C   0  0  0  0  0  0  0  0  0  0  0  0
   39.1650   31.3060   49.6300 H   0  0  0  0  0  0  0  0  0  0  0  0
   37.3170   30.5510   51.1570 H   0  0  0  0  0  0  0  0  0  0  0  0
   35.1680   29.9810   50.2490 H   0  0  0  0  0  0  0  0  0  0  0  0
   40.2270   33.3260   46.0880 C   0  0  0  0  0  0  0  0  0  0  0  0
   40.9370   32.4760   45.2290 C   0  0  0  0  0  0  0  0  0  0  0  0
   40.6130   31.1080   45.2800 C   0  0  0  0  0  0  0  0  0  0  0  0
   39.6410   30.6960   46.1490 N   0  0  0  0  0  0  0  0  0  0  0  0
   39.0010   31.5630   46.9420 C   0  0  0  0  0  0  0  0  0  0  0  0
   39.2830   32.8660   46.9210 N   0  0  0  0  0  0  0  0  0  0  0  0
   40.5260   34.3620   45.9980 H   0  0  0  0  0  0  0  0  0  0  0  0
   41.7070   32.8520   44.5500 H   0  0  0  0  0  0  0  0  0  0  0  0
   41.1120   30.4070   44.6570 H   0  0  0  0  0  0  0  0  0  0  0  0
   34.0720   29.9510   47.5230 S   0  0  0  0  0  0  0  0  0  0  0  0
   34.0040   29.1430   44.4820 Cl  0  0  0  0  0  0  0  0  0  0  0  0
   33.9310   27.9340   45.7430 C   0  0  0  0  0  0  0  0  0  0  0  0
   33.9560   28.2100   47.1180 C   0  0  0  0  0  0  0  0  0  0  0  0
   33.8930   27.1760   48.0130 C   0  0  0  0  0  0  0  0  0  0  0  0
   33.8050   25.8770   47.5860 C   0  0  0  0  0  0  0  0  0  0  0  0
   33.7780   25.5640   46.2330 C   0  0  0  0  0  0  0  0  0  0  0  0
   33.8420   26.5990   45.3440 C   0  0  0  0  0  0  0  0  0  0  0  0
   33.9210   27.5120   49.0500 H   0  0  0  0  0  0  0  0  0  0  0  0
   33.7590   25.1070   48.3190 H   0  0  0  0  0  0  0  0  0  0  0  0
   33.7080   24.5200   45.9560 H   0  0  0  0  0  0  0  0  0  0  0  0
   33.8120   26.2640   43.8950 C   0  0  0  0  0  3  0  0  0  0  0  0
   32.8100   25.1990   43.5770 C   0  0  0  0  0  2  0  0  0  0  0  0
   32.7480   24.9830   42.0990 C   0  0  0  0  0  2  0  0  0  0  0  0
   33.7540   25.8130   41.3400 C   0  0  0  0  0  2  0  0  0  0  0  0
   35.1400   25.7240   41.8950 C   0  0  0  0  0  2  0  0  0  0  0  0
   35.1740   25.8380   43.4020 C   0  0  0  0  0  2  0  0  0  0  0  0
  1  2  1  0  0  0  0
  2  3  2  0  0  0  0
  2  7  1  0  0  0  0
  3  4  1  0  0  0  0
  4  8  1  0  0  0  0
  4  5  2  0  0  0  0
  5  9  1  0  0  0  0
  6  5  1  0  0  0  0
  6 10  1  0  0  0  0
  7  6  2  0  0  0  0
 11 16  1  0  0  0  0
 12 13  1  0  0  0  0
 12 11  2  0  0  0  0
 13 14  2  0  0  0  0
 14 15  1  0  0  0  0
 15  3  1  0  0  0  0
 16 15  2  0  0  0  0
 17 11  1  0  0  0  0
 18 12  1  0  0  0  0
 19 13  1  0  0  0  0
 20  7  1  0  0  0  0
 21 22  1  0  0  0  0
 22 23  1  0  0  0  0
 23 20  1  0  0  0  0
 23 24  2  0  0  0  0
 24 28  1  0  0  0  0
 25 24  1  0  0  0  0
 25 29  1  0  0  0  0
 26 25  2  0  0  0  0
 27 22  2  0  0  0  0
 27 26  1  0  0  0  0
 30 26  1  0  0  0  0
 31 27  1  0  0  0  0
 32 31  1  0  0  0  0
 33 32  1  0  0  0  0
 34 35  1  0  0  0  0
 34 33  1  0  0  0  0
 35 36  1  0  0  0  0
 36 31  1  0  0  0  0
M  END
>  <minimizedAffinity>
-5.74825048

>  <minimizedRMSD>
0.525708914

$$$$
