
 OpenBabel03272506483D

 39 42  0  0  1  0  0  0  0  0999 V2000
   32.1210   28.5000   47.4400 C   0  0  2  0  0  0  0  0  0  0  0  0
   33.3690   28.3260   48.2550 C   0  0  1  0  0  0  0  0  0  0  0  0
   33.7560   27.0220   48.1590 O   0  0  0  0  0  0  0  0  0  0  0  0
   33.0510   26.4120   47.1280 C   0  0  0  0  0  0  0  0  0  0  0  0
   32.4450   27.5020   46.2840 C   0  0  1  0  0  0  0  0  0  0  0  0
   31.1960   28.1800   47.9060 H   0  0  0  0  0  0  0  0  0  0  0  0
   33.1760   28.6690   49.2920 H   0  0  0  0  0  0  0  0  0  0  0  0
   32.3720   25.7000   47.5670 H   0  0  0  0  0  0  0  0  0  0  0  0
   33.8030   25.8520   46.5060 H   0  0  0  0  0  0  0  0  0  0  0  0
   33.1530   28.0150   45.6400 H   0  0  0  0  0  0  0  0  0  0  0  0
   32.0510   29.8060   46.9100 O   0  0  0  0  0  0  0  0  0  0  0  0
   32.7080   29.8620   46.1800 H   0  0  0  0  0  0  0  0  0  0  0  0
   34.6780   29.3680   47.4950 S   0  0  0  0  0  0  0  0  0  0  0  0
   37.1030   29.2780   50.6270 C   0  0  0  0  0  0  0  0  0  0  0  0
   37.5850   30.5830   50.7460 C   0  0  0  0  0  0  0  0  0  0  0  0
   37.1440   31.5280   49.8230 C   0  0  0  0  0  0  0  0  0  0  0  0
   36.2680   31.1400   48.8530 N   0  0  0  0  0  0  0  0  0  0  0  0
   35.8270   29.8660   48.7720 C   0  0  0  0  0  0  0  0  0  0  0  0
   36.2370   28.9190   49.6550 N   0  0  0  0  0  0  0  0  0  0  0  0
   37.4700   28.5910   51.3570 H   0  0  0  0  0  0  0  0  0  0  0  0
   38.2850   30.8460   51.5400 H   0  0  0  0  0  0  0  0  0  0  0  0
   37.5020   32.5430   49.8960 H   0  0  0  0  0  0  0  0  0  0  0  0
   31.2930   27.0310   45.7030 O   0  0  0  0  0  0  0  0  0  0  0  0
   29.8720   29.1680   44.2600 Cl  0  0  0  0  0  0  0  0  0  0  0  0
   29.2960   28.1710   45.5740 C   0  0  0  0  0  0  0  0  0  0  0  0
   30.0570   27.1880   46.1640 C   0  0  0  0  0  0  0  0  0  0  0  0
   29.4770   26.4370   47.1890 C   0  0  0  0  0  0  0  0  0  0  0  0
   28.1810   26.6810   47.5910 C   0  0  0  0  0  0  0  0  0  0  0  0
   27.4090   27.6660   47.0040 C   0  0  0  0  0  0  0  0  0  0  0  0
   27.9880   28.4060   45.9900 C   0  0  0  0  0  0  0  0  0  0  0  0
   29.9990   25.6470   47.7020 H   0  0  0  0  0  0  0  0  0  0  0  0
   27.6940   26.1240   48.3790 H   0  0  0  0  0  0  0  0  0  0  0  0
   26.3930   27.8460   47.3300 H   0  0  0  0  0  0  0  0  0  0  0  0
   27.1620   29.4680   45.3560 C   0  0  0  0  0  3  0  0  0  0  0  0
   26.9740   29.2640   43.8800 C   0  0  0  0  0  2  0  0  0  0  0  0
   26.8170   30.6000   43.1500 C   0  0  0  0  0  2  0  0  0  0  0  0
   26.0310   31.5960   43.9570 C   0  0  0  0  0  2  0  0  0  0  0  0
   26.8280   31.9250   45.2020 C   0  0  0  0  0  2  0  0  0  0  0  0
   27.7960   30.8230   45.5470 C   0  0  0  0  0  2  0  0  0  0  0  0
  1  6  1  1  0  0  0
  1  2  1  0  0  0  0
  2  7  1  1  0  0  0
  3  2  1  0  0  0  0
  4  8  1  0  0  0  0
  4  3  1  0  0  0  0
  5 10  1  6  0  0  0
  5  4  1  0  0  0  0
  5  1  1  0  0  0  0
  9  4  1  0  0  0  0
 11  1  1  0  0  0  0
 12 11  1  0  0  0  0
 13  2  1  0  0  0  0
 13 18  1  0  0  0  0
 14 15  1  0  0  0  0
 14 20  1  0  0  0  0
 15 21  1  0  0  0  0
 16 22  1  0  0  0  0
 16 15  2  0  0  0  0
 17 16  1  0  0  0  0
 18 17  2  0  0  0  0
 18 19  1  0  0  0  0
 19 14  2  0  0  0  0
 23 26  1  0  0  0  0
 23  5  1  0  0  0  0
 24 25  1  0  0  0  0
 25 30  2  0  0  0  0
 25 26  1  0  0  0  0
 26 27  2  0  0  0  0
 27 28  1  0  0  0  0
 27 31  1  0  0  0  0
 28 32  1  0  0  0  0
 29 33  1  0  0  0  0
 29 28  2  0  0  0  0
 30 29  1  0  0  0  0
 34 39  1  0  0  0  0
 34 30  1  0  0  0  0
 35 34  1  0  0  0  0
 36 35  1  0  0  0  0
 36 37  1  0  0  0  0
 37 38  1  0  0  0  0
 38 39  1  0  0  0  0
M  END
>  <minimizedAffinity>
-5.24367476

>  <minimizedRMSD>
0.0979427248

$$$$
