
 OpenBabel03262522533D

 30 33  0  0  0  0  0  0  0  0999 V2000
   37.9200   25.4680   34.9710 C   0  0  0  0  0  0  0  0  0  0  0  0
   37.6730   25.2190   33.6870 C   0  0  0  0  0  0  0  0  0  0  0  0
   37.1280   26.2100   32.9010 C   0  0  0  0  0  0  0  0  0  0  0  0
   36.8740   27.3990   33.5130 C   0  0  0  0  0  0  0  0  0  0  0  0
   37.4240   27.0950   35.2290 S   0  0  0  0  0  0  0  0  0  0  0  0
   37.9060   24.2260   33.2610 H   0  0  0  0  0  0  0  0  0  0  0  0
   36.8880   26.1120   31.8430 H   0  0  0  0  0  0  0  0  0  0  0  0
   40.1200   23.0670   36.6010 C   0  0  0  0  0  0  0  0  0  0  0  0
   39.5700   22.9210   37.8730 C   0  0  0  0  0  0  0  0  0  0  0  0
   38.4120   23.6660   38.1810 C   0  0  0  0  0  0  0  0  0  0  0  0
   37.9030   24.4840   37.2140 N   0  0  0  0  0  0  0  0  0  0  0  0
   38.4950   24.5750   35.9880 C   0  0  0  0  0  0  0  0  0  0  0  0
   39.5810   23.8920   35.6650 N   0  0  0  0  0  0  0  0  0  0  0  0
   41.0140   22.4790   36.3910 H   0  0  0  0  0  0  0  0  0  0  0  0
   39.9910   22.2710   38.6150 H   0  0  0  0  0  0  0  0  0  0  0  0
   37.9250   23.6090   39.1480 H   0  0  0  0  0  0  0  0  0  0  0  0
   36.3020   28.6280   32.9590 C   0  0  0  0  0  0  0  0  0  0  0  0
   36.0820   28.7360   31.6380 C   0  0  0  0  0  0  0  0  0  0  0  0
   35.5410   29.9270   31.1910 C   0  0  0  0  0  0  0  0  0  0  0  0
   35.2400   30.9500   32.0320 N   0  0  0  0  0  0  0  0  0  0  0  0
   35.5040   30.7370   33.3610 C   0  0  0  0  0  0  0  0  0  0  0  0
   36.0300   29.6030   33.8660 N   0  0  0  0  0  0  0  0  0  0  0  0
   36.2970   27.9630   30.9150 H   0  0  0  0  0  0  0  0  0  0  0  0
   35.3400   30.0780   30.1400 H   0  0  0  0  0  0  0  0  0  0  0  0
   35.1970   31.8190   34.3320 C   0  0  0  0  0  3  0  0  0  0  0  0
   35.7860   31.3930   35.6580 C   0  0  0  0  0  2  0  0  0  0  0  0
   35.0220   31.9740   36.8260 C   0  0  0  0  0  2  0  0  0  0  0  0
   33.5740   31.5450   36.8250 C   0  0  0  0  0  2  0  0  0  0  0  0
   33.1130   31.0780   35.4640 C   0  0  0  0  0  2  0  0  0  0  0  0
   33.6940   32.0120   34.4260 C   0  0  0  0  0  2  0  0  0  0  0  0
  1  5  1  0  0  0  0
  1 12  1  0  0  0  0
  2  1  2  0  0  0  0
  3  4  2  0  0  0  0
  3  2  1  0  0  0  0
  4  5  1  0  0  0  0
  6  2  1  0  0  0  0
  7  3  1  0  0  0  0
  8  9  1  0  0  0  0
  9 10  2  0  0  0  0
  9 15  1  0  0  0  0
 10 16  1  0  0  0  0
 11 10  1  0  0  0  0
 12 11  2  0  0  0  0
 13 12  1  0  0  0  0
 13  8  2  0  0  0  0
 14  8  1  0  0  0  0
 17  4  1  0  0  0  0
 17 22  1  0  0  0  0
 18 17  2  0  0  0  0
 19 18  1  0  0  0  0
 19 20  2  0  0  0  0
 20 21  1  0  0  0  0
 21 22  2  0  0  0  0
 21 25  1  0  0  0  0
 23 18  1  0  0  0  0
 24 19  1  0  0  0  0
 25 30  1  0  0  0  0
 25 26  1  0  0  0  0
 26 27  1  0  0  0  0
 28 27  1  0  0  0  0
 29 28  1  0  0  0  0
 30 29  1  0  0  0  0
M  END
>  <minimizedAffinity>
-5.9224534

$$$$

 OpenBabel03262522533D

 30 33  0  0  0  0  0  0  0  0999 V2000
   38.5740   25.5370   35.4570 C   0  0  0  0  0  0  0  0  0  0  0  0
   38.6100   26.6790   36.1390 C   0  0  0  0  0  0  0  0  0  0  0  0
   37.8750   27.7540   35.6930 C   0  0  0  0  0  0  0  0  0  0  0  0
   37.1480   27.5640   34.5580 C   0  0  0  0  0  0  0  0  0  0  0  0
   37.5210   25.8280   34.1270 S   0  0  0  0  0  0  0  0  0  0  0  0
   39.2260   26.7570   37.0540 H   0  0  0  0  0  0  0  0  0  0  0  0
   37.8330   28.7300   36.1750 H   0  0  0  0  0  0  0  0  0  0  0  0
   39.8190   22.6170   37.2420 C   0  0  0  0  0  0  0  0  0  0  0  0
   40.5440   21.9200   36.2760 C   0  0  0  0  0  0  0  0  0  0  0  0
   40.6070   22.4670   34.9770 C   0  0  0  0  0  0  0  0  0  0  0  0
   39.9550   23.6440   34.7460 N   0  0  0  0  0  0  0  0  0  0  0  0
   39.2660   24.2710   35.7420 C   0  0  0  0  0  0  0  0  0  0  0  0
   39.1840   23.7880   36.9710 N   0  0  0  0  0  0  0  0  0  0  0  0
   39.7870   22.1720   38.2360 H   0  0  0  0  0  0  0  0  0  0  0  0
   41.0460   20.9960   36.4840 H   0  0  0  0  0  0  0  0  0  0  0  0
   41.1500   21.9850   34.1710 H   0  0  0  0  0  0  0  0  0  0  0  0
   36.2790   28.4990   33.8390 C   0  0  0  0  0  0  0  0  0  0  0  0
   35.9440   28.2610   32.5600 C   0  0  0  0  0  0  0  0  0  0  0  0
   35.1220   29.1900   31.9480 C   0  0  0  0  0  0  0  0  0  0  0  0
   34.6660   30.2950   32.5930 N   0  0  0  0  0  0  0  0  0  0  0  0
   35.0690   30.4410   33.8970 C   0  0  0  0  0  0  0  0  0  0  0  0
   35.8670   29.5780   34.5550 N   0  0  0  0  0  0  0  0  0  0  0  0
   36.2700   27.4050   31.9890 H   0  0  0  0  0  0  0  0  0  0  0  0
   34.8160   29.0580   30.9200 H   0  0  0  0  0  0  0  0  0  0  0  0
   34.6030   31.6310   34.6570 C   0  0  0  0  0  3  0  0  0  0  0  0
   35.3580   31.6310   35.9670 C   0  0  0  0  0  2  0  0  0  0  0  0
   34.5680   32.2960   37.0720 C   0  0  0  0  0  2  0  0  0  0  0  0
   33.2490   31.6030   37.3200 C   0  0  0  0  0  2  0  0  0  0  0  0
   32.8080   30.7670   36.1420 C   0  0  0  0  0  2  0  0  0  0  0  0
   33.1040   31.5430   34.8780 C   0  0  0  0  0  2  0  0  0  0  0  0
  1 12  1  0  0  0  0
  1  2  2  0  0  0  0
  2  6  1  0  0  0  0
  3  2  1  0  0  0  0
  3  7  1  0  0  0  0
  4  3  2  0  0  0  0
  5  4  1  0  0  0  0
  5  1  1  0  0  0  0
  8 14  1  0  0  0  0
  9 15  1  0  0  0  0
  9  8  2  0  0  0  0
 10  9  1  0  0  0  0
 11 10  2  0  0  0  0
 11 12  1  0  0  0  0
 12 13  2  0  0  0  0
 13  8  1  0  0  0  0
 16 10  1  0  0  0  0
 17 22  1  0  0  0  0
 17  4  1  0  0  0  0
 18 17  2  0  0  0  0
 19 18  1  0  0  0  0
 19 20  2  0  0  0  0
 20 21  1  0  0  0  0
 21 22  2  0  0  0  0
 21 25  1  0  0  0  0
 23 18  1  0  0  0  0
 24 19  1  0  0  0  0
 25 30  1  0  0  0  0
 25 26  1  0  0  0  0
 26 27  1  0  0  0  0
 27 28  1  0  0  0  0
 29 28  1  0  0  0  0
 30 29  1  0  0  0  0
M  END
>  <minimizedAffinity>
-5.85970449

$$$$

 OpenBabel03262522533D

 30 33  0  0  0  0  0  0  0  0999 V2000
   38.3720   25.1220   35.0670 C   0  0  0  0  0  0  0  0  0  0  0  0
   37.9270   24.8900   33.8340 C   0  0  0  0  0  0  0  0  0  0  0  0
   37.2560   25.8860   33.1610 C   0  0  0  0  0  0  0  0  0  0  0  0
   37.0920   27.0630   33.8240 C   0  0  0  0  0  0  0  0  0  0  0  0
   37.9090   26.7400   35.4260 S   0  0  0  0  0  0  0  0  0  0  0  0
   38.0980   23.9050   33.3600 H   0  0  0  0  0  0  0  0  0  0  0  0
   36.8530   25.8020   32.1530 H   0  0  0  0  0  0  0  0  0  0  0  0
   39.2210   23.0760   37.9570 C   0  0  0  0  0  0  0  0  0  0  0  0
   40.4680   22.5430   37.6330 C   0  0  0  0  0  0  0  0  0  0  0  0
   41.0330   22.8950   36.3890 C   0  0  0  0  0  0  0  0  0  0  0  0
   40.3240   23.7360   35.5810 N   0  0  0  0  0  0  0  0  0  0  0  0
   39.1080   24.2200   35.9650 C   0  0  0  0  0  0  0  0  0  0  0  0
   38.5470   23.9110   37.1230 N   0  0  0  0  0  0  0  0  0  0  0  0
   38.8090   22.7860   38.9240 H   0  0  0  0  0  0  0  0  0  0  0  0
   41.0030   21.8830   38.2870 H   0  0  0  0  0  0  0  0  0  0  0  0
   41.9980   22.5220   36.0640 H   0  0  0  0  0  0  0  0  0  0  0  0
   36.4300   28.2940   33.3890 C   0  0  0  0  0  0  0  0  0  0  0  0
   36.3500   28.5930   32.0810 C   0  0  0  0  0  0  0  0  0  0  0  0
   35.7110   29.7730   31.7480 C   0  0  0  0  0  0  0  0  0  0  0  0
   35.1820   30.6030   32.6840 N   0  0  0  0  0  0  0  0  0  0  0  0
   35.3180   30.2040   33.9900 C   0  0  0  0  0  0  0  0  0  0  0  0
   35.9280   29.0690   34.3860 N   0  0  0  0  0  0  0  0  0  0  0  0
   36.7480   27.9790   31.2870 H   0  0  0  0  0  0  0  0  0  0  0  0
   35.6140   30.0710   30.7140 H   0  0  0  0  0  0  0  0  0  0  0  0
   34.7600   31.0700   35.0610 C   0  0  0  0  0  3  0  0  0  0  0  0
   34.1140   32.2510   34.3720 C   0  0  0  0  0  2  0  0  0  0  0  0
   34.1240   33.4870   35.2430 C   0  0  0  0  0  2  0  0  0  0  0  0
   35.5260   33.9040   35.6160 C   0  0  0  0  0  2  0  0  0  0  0  0
   36.5200   32.7750   35.4740 C   0  0  0  0  0  2  0  0  0  0  0  0
   35.8720   31.5120   35.9950 C   0  0  0  0  0  2  0  0  0  0  0  0
  1  5  1  0  0  0  0
  1 12  1  0  0  0  0
  2  1  2  0  0  0  0
  3  4  2  0  0  0  0
  3  2  1  0  0  0  0
  4  5  1  0  0  0  0
  6  2  1  0  0  0  0
  7  3  1  0  0  0  0
  8 14  1  0  0  0  0
  9  8  1  0  0  0  0
  9 15  1  0  0  0  0
 10  9  2  0  0  0  0
 11 12  2  0  0  0  0
 11 10  1  0  0  0  0
 12 13  1  0  0  0  0
 13  8  2  0  0  0  0
 16 10  1  0  0  0  0
 17  4  1  0  0  0  0
 17 22  1  0  0  0  0
 18 17  2  0  0  0  0
 19 18  1  0  0  0  0
 19 20  2  0  0  0  0
 20 21  1  0  0  0  0
 21 22  2  0  0  0  0
 21 25  1  0  0  0  0
 23 18  1  0  0  0  0
 24 19  1  0  0  0  0
 25 30  1  0  0  0  0
 26 25  1  0  0  0  0
 26 27  1  0  0  0  0
 27 28  1  0  0  0  0
 29 28  1  0  0  0  0
 29 30  1  0  0  0  0
M  END
>  <minimizedAffinity>
-5.82590866

$$$$

 OpenBabel03262522533D

 30 33  0  0  0  0  0  0  0  0999 V2000
   33.8000   32.6980   36.4150 C   0  0  0  0  0  0  0  0  0  0  0  0
   35.0460   32.3620   36.7440 C   0  0  0  0  0  0  0  0  0  0  0  0
   35.7020   31.4020   36.0070 C   0  0  0  0  0  0  0  0  0  0  0  0
   35.0090   30.8530   34.9720 C   0  0  0  0  0  0  0  0  0  0  0  0
   33.4040   31.7220   35.0540 S   0  0  0  0  0  0  0  0  0  0  0  0
   35.5430   32.8540   37.6010 H   0  0  0  0  0  0  0  0  0  0  0  0
   36.7180   31.0560   36.1900 H   0  0  0  0  0  0  0  0  0  0  0  0
   30.7960   34.5220   37.3710 C   0  0  0  0  0  0  0  0  0  0  0  0
   31.2690   35.5180   38.2240 C   0  0  0  0  0  0  0  0  0  0  0  0
   32.6560   35.5660   38.4770 C   0  0  0  0  0  0  0  0  0  0  0  0
   33.4490   34.6350   37.8720 N   0  0  0  0  0  0  0  0  0  0  0  0
   32.9160   33.6880   37.0480 C   0  0  0  0  0  0  0  0  0  0  0  0
   31.6210   33.6120   36.7870 N   0  0  0  0  0  0  0  0  0  0  0  0
   29.7210   34.5080   37.1940 H   0  0  0  0  0  0  0  0  0  0  0  0
   30.6230   36.2380   38.6870 H   0  0  0  0  0  0  0  0  0  0  0  0
   33.1010   36.3100   39.1290 H   0  0  0  0  0  0  0  0  0  0  0  0
   35.4220   29.8210   34.0180 C   0  0  0  0  0  0  0  0  0  0  0  0
   35.0100   29.8790   32.7400 C   0  0  0  0  0  0  0  0  0  0  0  0
   35.4390   28.8680   31.9000 C   0  0  0  0  0  0  0  0  0  0  0  0
   36.2390   27.8570   32.3280 N   0  0  0  0  0  0  0  0  0  0  0  0
   36.6010   27.8930   33.6510 C   0  0  0  0  0  0  0  0  0  0  0  0
   36.2200   28.8460   34.5250 N   0  0  0  0  0  0  0  0  0  0  0  0
   34.3750   30.6530   32.3350 H   0  0  0  0  0  0  0  0  0  0  0  0
   35.1430   28.8560   30.8610 H   0  0  0  0  0  0  0  0  0  0  0  0
   37.4760   26.8140   34.1790 C   0  0  0  0  0  3  0  0  0  0  0  0
   38.2430   27.4070   35.3390 C   0  0  0  0  0  2  0  0  0  0  0  0
   39.5850   26.7360   35.5290 C   0  0  0  0  0  2  0  0  0  0  0  0
   40.4600   26.8650   34.3050 C   0  0  0  0  0  2  0  0  0  0  0  0
   39.6640   27.1710   33.0580 C   0  0  0  0  0  2  0  0  0  0  0  0
   38.4090   26.3280   33.0860 C   0  0  0  0  0  2  0  0  0  0  0  0
  1  2  2  0  0  0  0
  1 12  1  0  0  0  0
  2  6  1  0  0  0  0
  3  7  1  0  0  0  0
  3  2  1  0  0  0  0
  4  5  1  0  0  0  0
  4  3  2  0  0  0  0
  5  1  1  0  0  0  0
  8  9  1  0  0  0  0
  9 10  2  0  0  0  0
  9 15  1  0  0  0  0
 10 16  1  0  0  0  0
 11 10  1  0  0  0  0
 12 11  2  0  0  0  0
 13 12  1  0  0  0  0
 13  8  2  0  0  0  0
 14  8  1  0  0  0  0
 17 22  1  0  0  0  0
 17  4  1  0  0  0  0
 18 17  2  0  0  0  0
 19 20  2  0  0  0  0
 19 18  1  0  0  0  0
 20 21  1  0  0  0  0
 21 25  1  0  0  0  0
 21 22  2  0  0  0  0
 23 18  1  0  0  0  0
 24 19  1  0  0  0  0
 25 26  1  0  0  0  0
 26 27  1  0  0  0  0
 28 27  1  0  0  0  0
 29 30  1  0  0  0  0
 29 28  1  0  0  0  0
 30 25  1  0  0  0  0
M  END
>  <minimizedAffinity>
-5.72391939

$$$$

 OpenBabel03262522533D

 30 33  0  0  0  0  0  0  0  0999 V2000
   38.0210   25.1930   34.8560 C   0  0  0  0  0  0  0  0  0  0  0  0
   38.0160   24.8920   33.5590 C   0  0  0  0  0  0  0  0  0  0  0  0
   37.4860   25.7900   32.6600 C   0  0  0  0  0  0  0  0  0  0  0  0
   36.9940   26.9490   33.1790 C   0  0  0  0  0  0  0  0  0  0  0  0
   37.2950   26.7490   34.9700 S   0  0  0  0  0  0  0  0  0  0  0  0
   38.4340   23.9290   33.2130 H   0  0  0  0  0  0  0  0  0  0  0  0
   37.4330   25.6440   31.5830 H   0  0  0  0  0  0  0  0  0  0  0  0
   40.1050   22.9490   36.8270 C   0  0  0  0  0  0  0  0  0  0  0  0
   39.4850   22.9290   38.0750 C   0  0  0  0  0  0  0  0  0  0  0  0
   38.3200   23.7060   38.2450 C   0  0  0  0  0  0  0  0  0  0  0  0
   37.8720   24.4290   37.1770 N   0  0  0  0  0  0  0  0  0  0  0  0
   38.5310   24.4000   35.9830 C   0  0  0  0  0  0  0  0  0  0  0  0
   39.6260   23.6830   35.7870 N   0  0  0  0  0  0  0  0  0  0  0  0
   41.0030   22.3400   36.7240 H   0  0  0  0  0  0  0  0  0  0  0  0
   39.8590   22.3520   38.8970 H   0  0  0  0  0  0  0  0  0  0  0  0
   37.7800   23.7430   39.1840 H   0  0  0  0  0  0  0  0  0  0  0  0
   36.3720   28.0850   32.4960 C   0  0  0  0  0  0  0  0  0  0  0  0
   36.7910   28.4500   31.2730 C   0  0  0  0  0  0  0  0  0  0  0  0
   36.1550   29.5340   30.6930 C   0  0  0  0  0  0  0  0  0  0  0  0
   35.1540   30.2080   31.3150 N   0  0  0  0  0  0  0  0  0  0  0  0
   34.8040   29.7530   32.5620 C   0  0  0  0  0  0  0  0  0  0  0  0
   35.3790   28.7060   33.1860 N   0  0  0  0  0  0  0  0  0  0  0  0
   37.5800   27.9590   30.7220 H   0  0  0  0  0  0  0  0  0  0  0  0
   36.4450   29.8780   29.7110 H   0  0  0  0  0  0  0  0  0  0  0  0
   33.7140   30.4490   33.2940 C   0  0  0  0  0  3  0  0  0  0  0  0
   33.7500   29.9360   34.7160 C   0  0  0  0  0  2  0  0  0  0  0  0
   32.3870   29.9870   35.3680 C   0  0  0  0  0  2  0  0  0  0  0  0
   31.3720   29.1540   34.6210 C   0  0  0  0  0  2  0  0  0  0  0  0
   31.7870   28.8850   33.1940 C   0  0  0  0  0  2  0  0  0  0  0  0
   32.3810   30.1560   32.6310 C   0  0  0  0  0  2  0  0  0  0  0  0
  1  5  1  0  0  0  0
  1 12  1  0  0  0  0
  2  1  2  0  0  0  0
  3  4  2  0  0  0  0
  3  2  1  0  0  0  0
  4  5  1  0  0  0  0
  6  2  1  0  0  0  0
  7  3  1  0  0  0  0
  8  9  1  0  0  0  0
  9 10  2  0  0  0  0
  9 15  1  0  0  0  0
 10 16  1  0  0  0  0
 11 10  1  0  0  0  0
 12 11  2  0  0  0  0
 13 12  1  0  0  0  0
 13  8  2  0  0  0  0
 14  8  1  0  0  0  0
 17  4  1  0  0  0  0
 17 22  1  0  0  0  0
 18 17  2  0  0  0  0
 19 18  1  0  0  0  0
 19 20  2  0  0  0  0
 20 21  1  0  0  0  0
 21 22  2  0  0  0  0
 21 25  1  0  0  0  0
 23 18  1  0  0  0  0
 24 19  1  0  0  0  0
 25 26  1  0  0  0  0
 26 27  1  0  0  0  0
 28 27  1  0  0  0  0
 29 28  1  0  0  0  0
 30 29  1  0  0  0  0
 30 25  1  0  0  0  0
M  END
>  <minimizedAffinity>
-5.69368124

$$$$

 OpenBabel03262522533D

 30 33  0  0  0  0  0  0  0  0999 V2000
   38.6120   25.5140   35.4400 C   0  0  0  0  0  0  0  0  0  0  0  0
   38.4530   26.6880   36.0480 C   0  0  0  0  0  0  0  0  0  0  0  0
   37.7630   27.6920   35.4070 C   0  0  0  0  0  0  0  0  0  0  0  0
   37.2830   27.4020   34.1660 C   0  0  0  0  0  0  0  0  0  0  0  0
   37.8250   25.6750   33.9180 S   0  0  0  0  0  0  0  0  0  0  0  0
   38.8740   26.8490   37.0580 H   0  0  0  0  0  0  0  0  0  0  0  0
   37.5760   28.6850   35.8130 H   0  0  0  0  0  0  0  0  0  0  0  0
   40.8840   22.6730   35.6030 C   0  0  0  0  0  0  0  0  0  0  0  0
   40.5870   22.0790   36.8290 C   0  0  0  0  0  0  0  0  0  0  0  0
   39.5800   22.6700   37.6210 C   0  0  0  0  0  0  0  0  0  0  0  0
   38.9590   23.7850   37.1380 N   0  0  0  0  0  0  0  0  0  0  0  0
   39.3010   24.3110   35.9270 C   0  0  0  0  0  0  0  0  0  0  0  0
   40.2400   23.7840   35.1570 N   0  0  0  0  0  0  0  0  0  0  0  0
   41.6660   22.1960   35.0120 H   0  0  0  0  0  0  0  0  0  0  0  0
   41.0920   21.2030   37.1840 H   0  0  0  0  0  0  0  0  0  0  0  0
   39.2920   22.2680   38.5860 H   0  0  0  0  0  0  0  0  0  0  0  0
   36.5240   28.2450   33.2400 C   0  0  0  0  0  0  0  0  0  0  0  0
   36.8940   28.3360   31.9520 C   0  0  0  0  0  0  0  0  0  0  0  0
   36.1280   29.1520   31.1390 C   0  0  0  0  0  0  0  0  0  0  0  0
   35.0510   29.8360   31.6040 N   0  0  0  0  0  0  0  0  0  0  0  0
   34.7600   29.6730   32.9350 C   0  0  0  0  0  0  0  0  0  0  0  0
   35.4610   28.8950   33.7830 N   0  0  0  0  0  0  0  0  0  0  0  0
   37.7370   27.8210   31.5180 H   0  0  0  0  0  0  0  0  0  0  0  0
   36.3730   29.2690   30.0930 H   0  0  0  0  0  0  0  0  0  0  0  0
   33.5920   30.3960   33.5030 C   0  0  0  0  0  3  0  0  0  0  0  0
   33.4860   29.9760   34.9520 C   0  0  0  0  0  2  0  0  0  0  0  0
   32.0610   30.0440   35.4550 C   0  0  0  0  0  2  0  0  0  0  0  0
   31.1400   29.1470   34.6640 C   0  0  0  0  0  2  0  0  0  0  0  0
   31.7030   28.7930   33.3080 C   0  0  0  0  0  2  0  0  0  0  0  0
   32.3390   30.0360   32.7260 C   0  0  0  0  0  2  0  0  0  0  0  0
  1 12  1  0  0  0  0
  1  2  2  0  0  0  0
  2  6  1  0  0  0  0
  3  7  1  0  0  0  0
  3  2  1  0  0  0  0
  4  3  2  0  0  0  0
  5  4  1  0  0  0  0
  5  1  1  0  0  0  0
  8  9  1  0  0  0  0
  9 15  1  0  0  0  0
  9 10  2  0  0  0  0
 10 16  1  0  0  0  0
 11 10  1  0  0  0  0
 12 11  2  0  0  0  0
 13  8  2  0  0  0  0
 13 12  1  0  0  0  0
 14  8  1  0  0  0  0
 17 22  1  0  0  0  0
 17  4  1  0  0  0  0
 18 17  2  0  0  0  0
 19 20  2  0  0  0  0
 19 18  1  0  0  0  0
 20 21  1  0  0  0  0
 21 25  1  0  0  0  0
 21 22  2  0  0  0  0
 23 18  1  0  0  0  0
 24 19  1  0  0  0  0
 25 26  1  0  0  0  0
 26 27  1  0  0  0  0
 28 27  1  0  0  0  0
 29 28  1  0  0  0  0
 30 29  1  0  0  0  0
 30 25  1  0  0  0  0
M  END
>  <minimizedAffinity>
-5.66260099

$$$$

 OpenBabel03262522533D

 30 33  0  0  0  0  0  0  0  0999 V2000
   37.6800   25.7760   34.4380 C   0  0  0  0  0  0  0  0  0  0  0  0
   37.3600   25.6360   33.1530 C   0  0  0  0  0  0  0  0  0  0  0  0
   36.7860   26.6910   32.4820 C   0  0  0  0  0  0  0  0  0  0  0  0
   36.5820   27.8290   33.2000 C   0  0  0  0  0  0  0  0  0  0  0  0
   37.2200   27.3810   34.8530 S   0  0  0  0  0  0  0  0  0  0  0  0
   37.5570   24.6780   32.6360 H   0  0  0  0  0  0  0  0  0  0  0  0
   36.4890   26.6820   31.4340 H   0  0  0  0  0  0  0  0  0  0  0  0
   38.3150   23.7300   37.3820 C   0  0  0  0  0  0  0  0  0  0  0  0
   39.4370   22.9810   37.0320 C   0  0  0  0  0  0  0  0  0  0  0  0
   39.9910   23.1840   35.7510 C   0  0  0  0  0  0  0  0  0  0  0  0
   39.3950   24.1000   34.9340 N   0  0  0  0  0  0  0  0  0  0  0  0
   38.2970   24.7980   35.3460 C   0  0  0  0  0  0  0  0  0  0  0  0
   37.7500   24.6350   36.5390 N   0  0  0  0  0  0  0  0  0  0  0  0
   37.9070   23.5530   38.3780 H   0  0  0  0  0  0  0  0  0  0  0  0
   39.8850   22.2660   37.6940 H   0  0  0  0  0  0  0  0  0  0  0  0
   40.8630   22.6400   35.4040 H   0  0  0  0  0  0  0  0  0  0  0  0
   35.9970   29.1040   32.7810 C   0  0  0  0  0  0  0  0  0  0  0  0
   35.7240   29.3280   31.4850 C   0  0  0  0  0  0  0  0  0  0  0  0
   35.1740   30.5570   31.1660 C   0  0  0  0  0  0  0  0  0  0  0  0
   34.9150   31.5030   32.1050 N   0  0  0  0  0  0  0  0  0  0  0  0
   35.2320   31.1720   33.3990 C   0  0  0  0  0  0  0  0  0  0  0  0
   35.7690   29.9970   33.7800 N   0  0  0  0  0  0  0  0  0  0  0  0
   35.9040   28.6210   30.6890 H   0  0  0  0  0  0  0  0  0  0  0  0
   34.9310   30.8000   30.1420 H   0  0  0  0  0  0  0  0  0  0  0  0
   34.9720   32.1670   34.4720 C   0  0  0  0  0  3  0  0  0  0  0  0
   35.6290   31.6330   35.7250 C   0  0  0  0  0  2  0  0  0  0  0  0
   34.9250   32.1080   36.9770 C   0  0  0  0  0  2  0  0  0  0  0  0
   33.4800   31.6710   37.0120 C   0  0  0  0  0  2  0  0  0  0  0  0
   32.9510   31.3180   35.6420 C   0  0  0  0  0  2  0  0  0  0  0  0
   33.4760   32.3400   34.6600 C   0  0  0  0  0  2  0  0  0  0  0  0
  1  5  1  0  0  0  0
  1 12  1  0  0  0  0
  2  1  2  0  0  0  0
  3  2  1  0  0  0  0
  3  4  2  0  0  0  0
  4  5  1  0  0  0  0
  6  2  1  0  0  0  0
  7  3  1  0  0  0  0
  8 14  1  0  0  0  0
  9  8  1  0  0  0  0
  9 15  1  0  0  0  0
 10  9  2  0  0  0  0
 11 12  2  0  0  0  0
 11 10  1  0  0  0  0
 12 13  1  0  0  0  0
 13  8  2  0  0  0  0
 16 10  1  0  0  0  0
 17  4  1  0  0  0  0
 17 22  1  0  0  0  0
 18 17  2  0  0  0  0
 19 18  1  0  0  0  0
 19 20  2  0  0  0  0
 20 21  1  0  0  0  0
 21 22  2  0  0  0  0
 21 25  1  0  0  0  0
 23 18  1  0  0  0  0
 24 19  1  0  0  0  0
 25 30  1  0  0  0  0
 25 26  1  0  0  0  0
 26 27  1  0  0  0  0
 27 28  1  0  0  0  0
 29 28  1  0  0  0  0
 30 29  1  0  0  0  0
M  END
>  <minimizedAffinity>
-5.65109968

$$$$

 OpenBabel03262522533D

 30 33  0  0  0  0  0  0  0  0999 V2000
   36.5380   23.5950   31.3670 C   0  0  0  0  0  0  0  0  0  0  0  0
   37.7420   24.1550   31.4690 C   0  0  0  0  0  0  0  0  0  0  0  0
   37.8590   25.5230   31.3770 C   0  0  0  0  0  0  0  0  0  0  0  0
   36.7060   26.2190   31.1810 C   0  0  0  0  0  0  0  0  0  0  0  0
   35.4420   24.9010   31.1310 S   0  0  0  0  0  0  0  0  0  0  0  0
   38.6340   23.5210   31.6280 H   0  0  0  0  0  0  0  0  0  0  0  0
   38.7920   26.0800   31.4470 H   0  0  0  0  0  0  0  0  0  0  0  0
   34.7960   20.5240   32.2580 C   0  0  0  0  0  0  0  0  0  0  0  0
   35.4930   19.5330   31.5690 C   0  0  0  0  0  0  0  0  0  0  0  0
   36.5920   19.9300   30.7770 C   0  0  0  0  0  0  0  0  0  0  0  0
   36.9030   21.2580   30.7350 N   0  0  0  0  0  0  0  0  0  0  0  0
   36.1750   22.1720   31.4380 C   0  0  0  0  0  0  0  0  0  0  0  0
   35.1390   21.8370   32.1900 N   0  0  0  0  0  0  0  0  0  0  0  0
   33.9520   20.1890   32.8610 H   0  0  0  0  0  0  0  0  0  0  0  0
   35.2270   18.4960   31.6190 H   0  0  0  0  0  0  0  0  0  0  0  0
   37.1840   19.2200   30.2110 H   0  0  0  0  0  0  0  0  0  0  0  0
   36.5010   27.6630   31.0390 C   0  0  0  0  0  0  0  0  0  0  0  0
   37.0090   28.3160   29.9800 C   0  0  0  0  0  0  0  0  0  0  0  0
   36.7750   29.6770   29.9160 C   0  0  0  0  0  0  0  0  0  0  0  0
   36.0680   30.3390   30.8680 N   0  0  0  0  0  0  0  0  0  0  0  0
   35.5950   29.5780   31.9070 C   0  0  0  0  0  0  0  0  0  0  0  0
   35.7850   28.2490   32.0330 N   0  0  0  0  0  0  0  0  0  0  0  0
   37.5790   27.8520   29.1890 H   0  0  0  0  0  0  0  0  0  0  0  0
   37.1560   30.2610   29.0900 H   0  0  0  0  0  0  0  0  0  0  0  0
   34.8140   30.2450   32.9810 C   0  0  0  0  0  3  0  0  0  0  0  0
   35.4130   31.6220   33.1610 C   0  0  0  0  0  2  0  0  0  0  0  0
   35.2330   32.1340   34.5730 C   0  0  0  0  0  2  0  0  0  0  0  0
   35.8860   31.2290   35.5900 C   0  0  0  0  0  2  0  0  0  0  0  0
   36.1180   29.8350   35.0560 C   0  0  0  0  0  2  0  0  0  0  0  0
   34.8990   29.4300   34.2590 C   0  0  0  0  0  2  0  0  0  0  0  0
  1 12  1  0  0  0  0
  1  2  2  0  0  0  0
  2  6  1  0  0  0  0
  3  7  1  0  0  0  0
  3  2  1  0  0  0  0
  4  3  2  0  0  0  0
  5  4  1  0  0  0  0
  5  1  1  0  0  0  0
  8 14  1  0  0  0  0
  9 15  1  0  0  0  0
  9  8  2  0  0  0  0
 10  9  1  0  0  0  0
 11 10  2  0  0  0  0
 11 12  1  0  0  0  0
 12 13  2  0  0  0  0
 13  8  1  0  0  0  0
 16 10  1  0  0  0  0
 17  4  1  0  0  0  0
 17 22  1  0  0  0  0
 18 17  2  0  0  0  0
 19 18  1  0  0  0  0
 19 20  2  0  0  0  0
 20 21  1  0  0  0  0
 21 22  2  0  0  0  0
 21 25  1  0  0  0  0
 23 18  1  0  0  0  0
 24 19  1  0  0  0  0
 25 26  1  0  0  0  0
 25 30  1  0  0  0  0
 26 27  1  0  0  0  0
 27 28  1  0  0  0  0
 29 28  1  0  0  0  0
 30 29  1  0  0  0  0
M  END
>  <minimizedAffinity>
-5.47221041

$$$$

 OpenBabel03262522533D

 30 33  0  0  0  0  0  0  0  0999 V2000
   39.5050   24.2910   35.5770 C   0  0  0  0  0  0  0  0  0  0  0  0
   38.5820   24.9230   36.2990 C   0  0  0  0  0  0  0  0  0  0  0  0
   37.6780   25.7460   35.6660 C   0  0  0  0  0  0  0  0  0  0  0  0
   37.7990   25.8540   34.3150 C   0  0  0  0  0  0  0  0  0  0  0  0
   39.2210   24.7670   33.9490 S   0  0  0  0  0  0  0  0  0  0  0  0
   38.5470   24.7850   37.3960 H   0  0  0  0  0  0  0  0  0  0  0  0
   36.8850   26.3060   36.1590 H   0  0  0  0  0  0  0  0  0  0  0  0
   41.1740   21.5230   37.2550 C   0  0  0  0  0  0  0  0  0  0  0  0
   42.5080   21.6580   36.8730 C   0  0  0  0  0  0  0  0  0  0  0  0
   42.8440   22.7270   36.0160 C   0  0  0  0  0  0  0  0  0  0  0  0
   41.8430   23.5640   35.6150 N   0  0  0  0  0  0  0  0  0  0  0  0
   40.5580   23.3710   36.0310 C   0  0  0  0  0  0  0  0  0  0  0  0
   40.2060   22.3790   36.8340 N   0  0  0  0  0  0  0  0  0  0  0  0
   40.9430   20.6890   37.9170 H   0  0  0  0  0  0  0  0  0  0  0  0
   43.2750   20.9850   37.2030 H   0  0  0  0  0  0  0  0  0  0  0  0
   43.8580   22.8990   35.6740 H   0  0  0  0  0  0  0  0  0  0  0  0
   37.0050   26.6410   33.3680 C   0  0  0  0  0  0  0  0  0  0  0  0
   36.6530   26.1160   32.1820 C   0  0  0  0  0  0  0  0  0  0  0  0
   35.9050   26.9200   31.3410 C   0  0  0  0  0  0  0  0  0  0  0  0
   35.5360   28.1820   31.6800 N   0  0  0  0  0  0  0  0  0  0  0  0
   35.9480   28.6210   32.9130 C   0  0  0  0  0  0  0  0  0  0  0  0
   36.6770   27.8930   33.7820 N   0  0  0  0  0  0  0  0  0  0  0  0
   36.9130   25.1220   31.8500 H   0  0  0  0  0  0  0  0  0  0  0  0
   35.5900   26.5570   30.3730 H   0  0  0  0  0  0  0  0  0  0  0  0
   35.5750   29.9940   33.3420 C   0  0  0  0  0  3  0  0  0  0  0  0
   35.8970   30.0900   34.8170 C   0  0  0  0  0  2  0  0  0  0  0  0
   35.0010   31.0810   35.5250 C   0  0  0  0  0  2  0  0  0  0  0  0
   33.5430   30.7040   35.4130 C   0  0  0  0  0  2  0  0  0  0  0  0
   33.2780   29.7650   34.2590 C   0  0  0  0  0  2  0  0  0  0  0  0
   34.1000   30.2310   33.0790 C   0  0  0  0  0  2  0  0  0  0  0  0
  1 12  1  0  0  0  0
  1  2  2  0  0  0  0
  2  6  1  0  0  0  0
  3  7  1  0  0  0  0
  3  2  1  0  0  0  0
  4  3  2  0  0  0  0
  5  4  1  0  0  0  0
  5  1  1  0  0  0  0
  8 14  1  0  0  0  0
  9 15  1  0  0  0  0
  9  8  1  0  0  0  0
 10  9  2  0  0  0  0
 11 10  1  0  0  0  0
 11 12  2  0  0  0  0
 12 13  1  0  0  0  0
 13  8  2  0  0  0  0
 16 10  1  0  0  0  0
 17 22  1  0  0  0  0
 17  4  1  0  0  0  0
 18 17  2  0  0  0  0
 19 20  2  0  0  0  0
 19 18  1  0  0  0  0
 20 21  1  0  0  0  0
 21 25  1  0  0  0  0
 21 22  2  0  0  0  0
 23 18  1  0  0  0  0
 24 19  1  0  0  0  0
 25 26  1  0  0  0  0
 26 27  1  0  0  0  0
 28 27  1  0  0  0  0
 29 28  1  0  0  0  0
 30 25  1  0  0  0  0
 30 29  1  0  0  0  0
M  END
>  <minimizedAffinity>
-5.46932697

$$$$
