
 OpenBabel03272505123D

 36 39  0  0  0  0  0  0  0  0999 V2000
   36.4200   30.8990   45.7120 Cl  0  0  0  0  0  0  0  0  0  0  0  0
   36.7010   30.7920   47.4280 C   0  0  0  0  0  0  0  0  0  0  0  0
   37.9620   31.1330   47.8820 C   0  0  0  0  0  0  0  0  0  0  0  0
   38.1980   31.0500   49.2490 C   0  0  0  0  0  0  0  0  0  0  0  0
   37.1900   30.6410   50.0920 C   0  0  0  0  0  0  0  0  0  0  0  0
   35.9510   30.3160   49.5590 C   0  0  0  0  0  0  0  0  0  0  0  0
   35.6500   30.3740   48.2230 C   0  0  0  0  0  0  0  0  0  0  0  0
   39.1800   31.3130   49.6260 H   0  0  0  0  0  0  0  0  0  0  0  0
   37.3350   30.5640   51.1600 H   0  0  0  0  0  0  0  0  0  0  0  0
   35.1830   29.9960   50.2590 H   0  0  0  0  0  0  0  0  0  0  0  0
   40.2320   33.3260   46.0740 C   0  0  0  0  0  0  0  0  0  0  0  0
   40.9420   32.4730   45.2170 C   0  0  0  0  0  0  0  0  0  0  0  0
   40.6180   31.1050   45.2750 C   0  0  0  0  0  0  0  0  0  0  0  0
   39.6490   30.6960   46.1480 N   0  0  0  0  0  0  0  0  0  0  0  0
   39.0090   31.5660   46.9380 C   0  0  0  0  0  0  0  0  0  0  0  0
   39.2900   32.8700   46.9110 N   0  0  0  0  0  0  0  0  0  0  0  0
   40.5310   34.3620   45.9790 H   0  0  0  0  0  0  0  0  0  0  0  0
   41.7100   32.8470   44.5360 H   0  0  0  0  0  0  0  0  0  0  0  0
   41.1170   30.4020   44.6540 H   0  0  0  0  0  0  0  0  0  0  0  0
   34.0790   29.9630   47.5360 S   0  0  0  0  0  0  0  0  0  0  0  0
   33.8960   29.1420   44.5030 Cl  0  0  0  0  0  0  0  0  0  0  0  0
   33.8790   27.9380   45.7710 C   0  0  0  0  0  0  0  0  0  0  0  0
   33.9550   28.2200   47.1430 C   0  0  0  0  0  0  0  0  0  0  0  0
   33.9320   27.1900   48.0440 C   0  0  0  0  0  0  0  0  0  0  0  0
   33.8340   25.8880   47.6260 C   0  0  0  0  0  0  0  0  0  0  0  0
   33.7560   25.5690   46.2770 C   0  0  0  0  0  0  0  0  0  0  0  0
   33.7800   26.6010   45.3820 C   0  0  0  0  0  0  0  0  0  0  0  0
   33.9990   27.5300   49.0780 H   0  0  0  0  0  0  0  0  0  0  0  0
   33.8210   25.1220   48.3640 H   0  0  0  0  0  0  0  0  0  0  0  0
   33.6810   24.5240   46.0070 H   0  0  0  0  0  0  0  0  0  0  0  0
   33.6950   26.2600   43.9360 C   0  0  0  0  0  3  0  0  0  0  0  0
   32.6900   25.1870   43.6610 C   0  0  0  0  0  2  0  0  0  0  0  0
   32.5720   24.9640   42.1870 C   0  0  0  0  0  2  0  0  0  0  0  0
   33.5410   25.8000   41.3860 C   0  0  0  0  0  2  0  0  0  0  0  0
   34.9490   25.7230   41.8860 C   0  0  0  0  0  2  0  0  0  0  0  0
   35.0410   25.8430   43.3910 C   0  0  0  0  0  2  0  0  0  0  0  0
  1  2  1  0  0  0  0
  2  3  2  0  0  0  0
  2  7  1  0  0  0  0
  3  4  1  0  0  0  0
  4  8  1  0  0  0  0
  4  5  2  0  0  0  0
  5  9  1  0  0  0  0
  6  5  1  0  0  0  0
  6 10  1  0  0  0  0
  7  6  2  0  0  0  0
 11 16  1  0  0  0  0
 12 13  1  0  0  0  0
 12 11  2  0  0  0  0
 13 14  2  0  0  0  0
 14 15  1  0  0  0  0
 15  3  1  0  0  0  0
 16 15  2  0  0  0  0
 17 11  1  0  0  0  0
 18 12  1  0  0  0  0
 19 13  1  0  0  0  0
 20  7  1  0  0  0  0
 21 22  1  0  0  0  0
 22 23  1  0  0  0  0
 23 20  1  0  0  0  0
 23 24  2  0  0  0  0
 24 28  1  0  0  0  0
 25 24  1  0  0  0  0
 25 29  1  0  0  0  0
 26 25  2  0  0  0  0
 27 22  2  0  0  0  0
 27 26  1  0  0  0  0
 30 26  1  0  0  0  0
 31 27  1  0  0  0  0
 32 31  1  0  0  0  0
 33 32  1  0  0  0  0
 34 35  1  0  0  0  0
 34 33  1  0  0  0  0
 35 36  1  0  0  0  0
 36 31  1  0  0  0  0
M  END
>  <minimizedAffinity>
-5.70990086

>  <minimizedRMSD>
0.706938684

$$$$
