
 OpenBabel03262523003D

 35 39  0  0  0  0  0  0  0  0999 V2000
   36.6830   27.8270   33.7010 C   0  0  0  0  0  0  0  0  0  0  0  0
   37.6600   27.6970   32.7140 C   0  0  0  0  0  0  0  0  0  0  0  0
   38.5150   26.6910   33.0880 C   0  0  0  0  0  0  0  0  0  0  0  0
   38.0500   26.2180   34.2990 N   0  0  0  0  0  0  0  0  0  0  0  0
   36.9680   26.9200   34.6190 N   0  0  0  0  0  0  0  0  0  0  0  0
   39.5700   24.2910   34.4220 N   0  0  0  0  0  0  0  0  0  0  0  0
   38.6950   25.1660   34.9880 C   0  0  0  0  0  0  0  0  0  0  0  0
   38.5990   24.8080   36.2880 N   0  0  0  0  0  0  0  0  0  0  0  0
   39.3820   23.7410   36.5510 C   0  0  0  0  0  0  0  0  0  0  0  0
   39.6930   22.9610   37.6280 C   0  0  0  0  0  0  0  0  0  0  0  0
   40.5570   21.9440   37.4850 N   0  0  0  0  0  0  0  0  0  0  0  0
   41.1360   21.6590   36.3050 C   0  0  0  0  0  0  0  0  0  0  0  0
   40.8570   22.4010   35.2250 N   0  0  0  0  0  0  0  0  0  0  0  0
   39.9980   23.4170   35.3580 C   0  0  0  0  0  0  0  0  0  0  0  0
   37.7630   28.2760   31.7880 H   0  0  0  0  0  0  0  0  0  0  0  0
   39.3660   26.3470   32.5470 H   0  0  0  0  0  0  0  0  0  0  0  0
   39.8730   24.2880   33.4030 H   0  0  0  0  0  0  0  0  0  0  0  0
   41.8370   20.8290   36.2000 H   0  0  0  0  0  0  0  0  0  0  0  0
   33.8670   29.8330   32.4770 C   0  0  0  0  0  0  0  0  0  0  0  0
   33.5470   30.6120   33.6410 C   0  0  0  0  0  0  0  0  0  0  0  0
   34.2940   30.4260   34.7910 C   0  0  0  0  0  0  0  0  0  0  0  0
   35.2990   29.5170   34.7690 N   0  0  0  0  0  0  0  0  0  0  0  0
   35.5930   28.7890   33.6690 C   0  0  0  0  0  0  0  0  0  0  0  0
   34.8790   28.9540   32.5430 N   0  0  0  0  0  0  0  0  0  0  0  0
   33.3420   29.9080   31.5390 H   0  0  0  0  0  0  0  0  0  0  0  0
   32.7380   31.2960   33.5460 H   0  0  0  0  0  0  0  0  0  0  0  0
   33.9690   31.2260   35.9920 C   0  0  0  0  0  3  0  0  0  0  0  0
   35.1370   31.8810   36.6430 C   0  0  0  0  0  2  0  0  0  0  0  0
   34.8620   33.3870   36.6950 C   0  0  0  0  0  2  0  0  0  0  0  0
   33.6010   33.6030   37.4880 C   0  0  0  0  0  2  0  0  0  0  0  0
   32.4380   32.8880   36.8690 C   0  0  0  0  0  2  0  0  0  0  0  0
   32.8880   32.2080   35.5980 C   0  0  0  0  0  2  0  0  0  0  0  0
   39.0650   23.2840   38.8640 N   0  0  0  0  0  0  0  0  0  0  0  0
   39.0700   24.3120   39.1220 H   0  0  0  0  0  0  0  0  0  0  0  0
   38.6190   22.5990   39.5020 H   0  0  0  0  0  0  0  0  0  0  0  0
  1  5  2  0  0  0  0
  2  3  2  0  0  0  0
  2  1  1  0  0  0  0
  3  4  1  0  0  0  0
  4  5  1  0  0  0  0
  4  7  1  0  0  0  0
  6  7  1  0  0  0  0
  6 14  1  0  0  0  0
  7  8  2  0  0  0  0
  8  9  1  0  0  0  0
  9 10  1  0  0  0  0
 10 33  1  0  0  0  0
 11 10  2  0  0  0  0
 12 11  1  0  0  0  0
 13 14  1  0  0  0  0
 13 12  2  0  0  0  0
 14  9  2  0  0  0  0
 15  2  1  0  0  0  0
 16  3  1  0  0  0  0
 17  6  1  0  0  0  0
 18 12  1  0  0  0  0
 19 24  2  0  0  0  0
 19 20  1  0  0  0  0
 20 21  2  0  0  0  0
 21 27  1  0  0  0  0
 22 21  1  0  0  0  0
 23  1  1  0  0  0  0
 23 22  2  0  0  0  0
 24 23  1  0  0  0  0
 25 19  1  0  0  0  0
 26 20  1  0  0  0  0
 27 28  1  0  0  0  0
 28 29  1  0  0  0  0
 29 30  1  0  0  0  0
 31 30  1  0  0  0  0
 32 27  1  0  0  0  0
 32 31  1  0  0  0  0
 33 34  1  0  0  0  0
 33 35  1  0  0  0  0
M  END
>  <minimizedAffinity>
-6.81915665

$$$$

 OpenBabel03262523003D

 35 39  0  0  0  0  0  0  0  0999 V2000
   36.8280   27.2600   31.8300 C   0  0  0  0  0  0  0  0  0  0  0  0
   38.1940   27.0880   31.6030 C   0  0  0  0  0  0  0  0  0  0  0  0
   38.4260   25.7540   31.3790 C   0  0  0  0  0  0  0  0  0  0  0  0
   37.1990   25.1270   31.4700 N   0  0  0  0  0  0  0  0  0  0  0  0
   36.2890   26.0570   31.7380 N   0  0  0  0  0  0  0  0  0  0  0  0
   37.9750   22.9320   30.6830 N   0  0  0  0  0  0  0  0  0  0  0  0
   37.0580   23.7320   31.2920 C   0  0  0  0  0  0  0  0  0  0  0  0
   36.0430   22.9200   31.6640 N   0  0  0  0  0  0  0  0  0  0  0  0
   36.2950   21.6440   31.3070 C   0  0  0  0  0  0  0  0  0  0  0  0
   35.6770   20.4290   31.4050 C   0  0  0  0  0  0  0  0  0  0  0  0
   36.2750   19.3370   30.9050 N   0  0  0  0  0  0  0  0  0  0  0  0
   37.4760   19.3930   30.3030 C   0  0  0  0  0  0  0  0  0  0  0  0
   38.1150   20.5640   30.1880 N   0  0  0  0  0  0  0  0  0  0  0  0
   37.5270   21.6590   30.6830 C   0  0  0  0  0  0  0  0  0  0  0  0
   38.9780   27.8560   31.5970 H   0  0  0  0  0  0  0  0  0  0  0  0
   39.3680   25.2990   31.1740 H   0  0  0  0  0  0  0  0  0  0  0  0
   38.9000   23.2520   30.2690 H   0  0  0  0  0  0  0  0  0  0  0  0
   37.9530   18.4970   29.9000 H   0  0  0  0  0  0  0  0  0  0  0  0
   35.2560   30.5320   31.3100 C   0  0  0  0  0  0  0  0  0  0  0  0
   34.9800   30.9320   32.6640 C   0  0  0  0  0  0  0  0  0  0  0  0
   35.3360   30.0790   33.6930 C   0  0  0  0  0  0  0  0  0  0  0  0
   35.9320   28.9020   33.3820 N   0  0  0  0  0  0  0  0  0  0  0  0
   36.1870   28.5350   32.1070 C   0  0  0  0  0  0  0  0  0  0  0  0
   35.8480   29.3480   31.0930 N   0  0  0  0  0  0  0  0  0  0  0  0
   35.0140   31.1280   30.4460 H   0  0  0  0  0  0  0  0  0  0  0  0
   34.5090   31.8770   32.7910 H   0  0  0  0  0  0  0  0  0  0  0  0
   35.0550   30.4860   35.0880 C   0  0  0  0  0  3  0  0  0  0  0  0
   36.1200   31.3060   35.7270 C   0  0  0  0  0  2  0  0  0  0  0  0
   35.4870   32.6220   36.1880 C   0  0  0  0  0  2  0  0  0  0  0  0
   34.3880   32.2940   37.1640 C   0  0  0  0  0  2  0  0  0  0  0  0
   33.3490   31.4130   36.5390 C   0  0  0  0  0  2  0  0  0  0  0  0
   33.7050   31.1690   35.0920 C   0  0  0  0  0  2  0  0  0  0  0  0
   34.4070   20.4010   32.0450 N   0  0  0  0  0  0  0  0  0  0  0  0
   34.3440   20.9350   32.9580 H   0  0  0  0  0  0  0  0  0  0  0  0
   33.5690   19.9050   31.6850 H   0  0  0  0  0  0  0  0  0  0  0  0
  1 23  1  0  0  0  0
  2  1  1  0  0  0  0
  3  4  1  0  0  0  0
  3  2  2  0  0  0  0
  4  5  1  0  0  0  0
  5  1  2  0  0  0  0
  6 14  1  0  0  0  0
  6  7  1  0  0  0  0
  7  4  1  0  0  0  0
  7  8  2  0  0  0  0
  9 10  1  0  0  0  0
  9  8  1  0  0  0  0
 10 33  1  0  0  0  0
 11 10  2  0  0  0  0
 12 11  1  0  0  0  0
 13 12  2  0  0  0  0
 13 14  1  0  0  0  0
 14  9  2  0  0  0  0
 15  2  1  0  0  0  0
 16  3  1  0  0  0  0
 17  6  1  0  0  0  0
 18 12  1  0  0  0  0
 19 20  1  0  0  0  0
 20 26  1  0  0  0  0
 20 21  2  0  0  0  0
 21 27  1  0  0  0  0
 22 21  1  0  0  0  0
 23 22  2  0  0  0  0
 24 19  2  0  0  0  0
 24 23  1  0  0  0  0
 25 19  1  0  0  0  0
 27 32  1  0  0  0  0
 27 28  1  0  0  0  0
 28 29  1  0  0  0  0
 29 30  1  0  0  0  0
 31 30  1  0  0  0  0
 32 31  1  0  0  0  0
 33 34  1  0  0  0  0
 35 33  1  0  0  0  0
M  END
>  <minimizedAffinity>
-6.5784111

$$$$

 OpenBabel03262523003D

 35 39  0  0  0  0  0  0  0  0999 V2000
   36.7870   27.2540   32.9370 C   0  0  0  0  0  0  0  0  0  0  0  0
   36.2140   27.6910   31.7430 C   0  0  0  0  0  0  0  0  0  0  0  0
   35.6670   28.9310   31.9580 C   0  0  0  0  0  0  0  0  0  0  0  0
   35.9120   29.2370   33.2820 N   0  0  0  0  0  0  0  0  0  0  0  0
   36.5750   28.2170   33.8180 N   0  0  0  0  0  0  0  0  0  0  0  0
   35.1330   31.5630   33.1550 N   0  0  0  0  0  0  0  0  0  0  0  0
   35.4840   30.4540   33.8590 C   0  0  0  0  0  0  0  0  0  0  0  0
   35.3330   30.7770   35.1630 N   0  0  0  0  0  0  0  0  0  0  0  0
   34.9010   32.0480   35.2960 C   0  0  0  0  0  0  0  0  0  0  0  0
   34.5810   32.9020   36.3130 C   0  0  0  0  0  0  0  0  0  0  0  0
   34.1710   34.1480   36.0300 N   0  0  0  0  0  0  0  0  0  0  0  0
   34.0620   34.5940   34.7660 C   0  0  0  0  0  0  0  0  0  0  0  0
   34.3660   33.7870   33.7410 N   0  0  0  0  0  0  0  0  0  0  0  0
   34.7760   32.5430   34.0130 C   0  0  0  0  0  0  0  0  0  0  0  0
   36.1850   27.1670   30.7780 H   0  0  0  0  0  0  0  0  0  0  0  0
   35.1570   29.5330   31.2430 H   0  0  0  0  0  0  0  0  0  0  0  0
   35.1380   31.6540   32.0960 H   0  0  0  0  0  0  0  0  0  0  0  0
   33.7270   35.6100   34.5470 H   0  0  0  0  0  0  0  0  0  0  0  0
   38.7000   24.2140   32.1930 C   0  0  0  0  0  0  0  0  0  0  0  0
   38.7390   23.5810   33.4830 C   0  0  0  0  0  0  0  0  0  0  0  0
   38.1190   24.2090   34.5500 C   0  0  0  0  0  0  0  0  0  0  0  0
   37.4980   25.3940   34.3320 N   0  0  0  0  0  0  0  0  0  0  0  0
   37.4670   25.9810   33.1150 C   0  0  0  0  0  0  0  0  0  0  0  0
   38.0640   25.3890   32.0670 N   0  0  0  0  0  0  0  0  0  0  0  0
   39.1550   23.8040   31.3070 H   0  0  0  0  0  0  0  0  0  0  0  0
   39.2540   22.6530   33.5390 H   0  0  0  0  0  0  0  0  0  0  0  0
   38.1560   23.5610   35.8790 C   0  0  0  0  0  3  0  0  0  0  0  0
   39.2330   22.5470   36.0520 C   0  0  0  0  0  2  0  0  0  0  0  0
   40.0850   22.9690   37.2530 C   0  0  0  0  0  2  0  0  0  0  0  0
   39.1900   23.0280   38.4620 C   0  0  0  0  0  2  0  0  0  0  0  0
   38.0670   24.0010   38.2610 C   0  0  0  0  0  2  0  0  0  0  0  0
   38.2150   24.6640   36.9140 C   0  0  0  0  0  2  0  0  0  0  0  0
   34.7070   32.4040   37.6400 N   0  0  0  0  0  0  0  0  0  0  0  0
   34.2960   31.4410   37.8060 H   0  0  0  0  0  0  0  0  0  0  0  0
   35.1600   32.9080   38.4250 H   0  0  0  0  0  0  0  0  0  0  0  0
  1 23  1  0  0  0  0
  1  5  2  0  0  0  0
  2  3  2  0  0  0  0
  2  1  1  0  0  0  0
  3  4  1  0  0  0  0
  4  5  1  0  0  0  0
  4  7  1  0  0  0  0
  6  7  1  0  0  0  0
  6 14  1  0  0  0  0
  7  8  2  0  0  0  0
  8  9  1  0  0  0  0
  9 10  1  0  0  0  0
 10 33  1  0  0  0  0
 11 10  2  0  0  0  0
 12 11  1  0  0  0  0
 13 14  1  0  0  0  0
 13 12  2  0  0  0  0
 14  9  2  0  0  0  0
 15  2  1  0  0  0  0
 16  3  1  0  0  0  0
 17  6  1  0  0  0  0
 18 12  1  0  0  0  0
 19 20  1  0  0  0  0
 20 26  1  0  0  0  0
 20 21  2  0  0  0  0
 21 27  1  0  0  0  0
 22 21  1  0  0  0  0
 23 22  2  0  0  0  0
 24 19  2  0  0  0  0
 24 23  1  0  0  0  0
 25 19  1  0  0  0  0
 27 28  1  0  0  0  0
 27 32  1  0  0  0  0
 28 29  1  0  0  0  0
 29 30  1  0  0  0  0
 31 30  1  0  0  0  0
 32 31  1  0  0  0  0
 33 34  1  0  0  0  0
 33 35  1  0  0  0  0
M  END
>  <minimizedAffinity>
-6.56632137

$$$$

 OpenBabel03262523003D

 35 39  0  0  0  0  0  0  0  0999 V2000
   36.8210   27.9590   32.9130 C   0  0  0  0  0  0  0  0  0  0  0  0
   37.9110   27.7470   32.0690 C   0  0  0  0  0  0  0  0  0  0  0  0
   38.6870   26.7540   32.6140 C   0  0  0  0  0  0  0  0  0  0  0  0
   38.0610   26.3720   33.7830 N   0  0  0  0  0  0  0  0  0  0  0  0
   36.9650   27.1120   33.9170 N   0  0  0  0  0  0  0  0  0  0  0  0
   39.5040   24.4330   34.2230 N   0  0  0  0  0  0  0  0  0  0  0  0
   38.5870   25.3580   34.6150 C   0  0  0  0  0  0  0  0  0  0  0  0
   38.3190   25.0900   35.9130 N   0  0  0  0  0  0  0  0  0  0  0  0
   39.0350   24.0310   36.3420 C   0  0  0  0  0  0  0  0  0  0  0  0
   39.1880   23.3200   37.4990 C   0  0  0  0  0  0  0  0  0  0  0  0
   40.0370   22.2810   37.5330 N   0  0  0  0  0  0  0  0  0  0  0  0
   40.7530   21.9080   36.4580 C   0  0  0  0  0  0  0  0  0  0  0  0
   40.6320   22.5800   35.3050 N   0  0  0  0  0  0  0  0  0  0  0  0
   39.7880   23.6170   35.2610 C   0  0  0  0  0  0  0  0  0  0  0  0
   38.1450   28.2600   31.1280 H   0  0  0  0  0  0  0  0  0  0  0  0
   39.5910   26.3610   32.2090 H   0  0  0  0  0  0  0  0  0  0  0  0
   39.9330   24.3550   33.2540 H   0  0  0  0  0  0  0  0  0  0  0  0
   41.4410   21.0610   36.4970 H   0  0  0  0  0  0  0  0  0  0  0  0
   34.8090   30.5650   31.2960 C   0  0  0  0  0  0  0  0  0  0  0  0
   33.7720   30.7690   32.2710 C   0  0  0  0  0  0  0  0  0  0  0  0
   33.7970   30.0170   33.4330 C   0  0  0  0  0  0  0  0  0  0  0  0
   34.7990   29.1200   33.6020 N   0  0  0  0  0  0  0  0  0  0  0  0
   35.7690   28.9360   32.6800 C   0  0  0  0  0  0  0  0  0  0  0  0
   35.7630   29.6540   31.5450 N   0  0  0  0  0  0  0  0  0  0  0  0
   34.8720   31.1010   30.3630 H   0  0  0  0  0  0  0  0  0  0  0  0
   33.0360   31.4980   32.0340 H   0  0  0  0  0  0  0  0  0  0  0  0
   32.7340   30.2230   34.4400 C   0  0  0  0  0  3  0  0  0  0  0  0
   31.8470   29.0470   34.6650 C   0  0  0  0  0  2  0  0  0  0  0  0
   31.9120   28.6880   36.1520 C   0  0  0  0  0  2  0  0  0  0  0  0
   31.4470   29.8830   36.9410 C   0  0  0  0  0  2  0  0  0  0  0  0
   32.2990   31.0840   36.6640 C   0  0  0  0  0  2  0  0  0  0  0  0
   33.4040   30.7040   35.7090 C   0  0  0  0  0  2  0  0  0  0  0  0
   38.4170   23.7360   38.6200 N   0  0  0  0  0  0  0  0  0  0  0  0
   38.4160   24.7790   38.8100 H   0  0  0  0  0  0  0  0  0  0  0  0
   37.8770   23.1030   39.2400 H   0  0  0  0  0  0  0  0  0  0  0  0
  1  5  2  0  0  0  0
  2  3  2  0  0  0  0
  2  1  1  0  0  0  0
  3  4  1  0  0  0  0
  4  5  1  0  0  0  0
  4  7  1  0  0  0  0
  6  7  1  0  0  0  0
  6 14  1  0  0  0  0
  7  8  2  0  0  0  0
  8  9  1  0  0  0  0
  9 10  1  0  0  0  0
 10 11  2  0  0  0  0
 10 33  1  0  0  0  0
 12 18  1  0  0  0  0
 12 11  1  0  0  0  0
 13 12  2  0  0  0  0
 14 13  1  0  0  0  0
 14  9  2  0  0  0  0
 15  2  1  0  0  0  0
 16  3  1  0  0  0  0
 17  6  1  0  0  0  0
 19 24  2  0  0  0  0
 19 20  1  0  0  0  0
 20 21  2  0  0  0  0
 21 22  1  0  0  0  0
 21 27  1  0  0  0  0
 23  1  1  0  0  0  0
 23 22  2  0  0  0  0
 24 23  1  0  0  0  0
 25 19  1  0  0  0  0
 26 20  1  0  0  0  0
 27 28  1  0  0  0  0
 27 32  1  0  0  0  0
 28 29  1  0  0  0  0
 29 30  1  0  0  0  0
 31 30  1  0  0  0  0
 32 31  1  0  0  0  0
 33 34  1  0  0  0  0
 33 35  1  0  0  0  0
M  END
>  <minimizedAffinity>
-6.39263487

$$$$

 OpenBabel03262523003D

 35 39  0  0  0  0  0  0  0  0999 V2000
   36.8270   27.1130   33.0420 C   0  0  0  0  0  0  0  0  0  0  0  0
   36.1920   27.4820   31.8570 C   0  0  0  0  0  0  0  0  0  0  0  0
   35.6130   28.7120   32.0460 C   0  0  0  0  0  0  0  0  0  0  0  0
   35.9020   29.0800   33.3450 N   0  0  0  0  0  0  0  0  0  0  0  0
   36.6200   28.1040   33.8920 N   0  0  0  0  0  0  0  0  0  0  0  0
   35.0420   31.3740   33.1590 N   0  0  0  0  0  0  0  0  0  0  0  0
   35.4590   30.3050   33.8910 C   0  0  0  0  0  0  0  0  0  0  0  0
   35.3510   30.6760   35.1870 N   0  0  0  0  0  0  0  0  0  0  0  0
   34.8830   31.9380   35.2870 C   0  0  0  0  0  0  0  0  0  0  0  0
   34.5770   32.8230   36.2820 C   0  0  0  0  0  0  0  0  0  0  0  0
   34.1150   34.0420   35.9670 N   0  0  0  0  0  0  0  0  0  0  0  0
   33.9390   34.4320   34.6920 C   0  0  0  0  0  0  0  0  0  0  0  0
   34.2270   33.5940   33.6880 N   0  0  0  0  0  0  0  0  0  0  0  0
   34.6880   32.3760   33.9920 C   0  0  0  0  0  0  0  0  0  0  0  0
   36.1400   26.9190   30.9160 H   0  0  0  0  0  0  0  0  0  0  0  0
   35.0540   29.2680   31.3300 H   0  0  0  0  0  0  0  0  0  0  0  0
   35.0000   31.4210   32.0980 H   0  0  0  0  0  0  0  0  0  0  0  0
   33.5610   35.4280   34.4480 H   0  0  0  0  0  0  0  0  0  0  0  0
   39.4420   24.7580   34.0760 C   0  0  0  0  0  0  0  0  0  0  0  0
   38.9060   23.5120   33.6000 C   0  0  0  0  0  0  0  0  0  0  0  0
   37.6840   23.5200   32.9510 C   0  0  0  0  0  0  0  0  0  0  0  0
   37.0440   24.7040   32.7900 N   0  0  0  0  0  0  0  0  0  0  0  0
   37.5560   25.8700   33.2410 C   0  0  0  0  0  0  0  0  0  0  0  0
   38.7410   25.8840   33.8750 N   0  0  0  0  0  0  0  0  0  0  0  0
   40.3830   24.8500   34.5920 H   0  0  0  0  0  0  0  0  0  0  0  0
   39.4930   22.6440   33.7810 H   0  0  0  0  0  0  0  0  0  0  0  0
   37.1270   22.2410   32.4590 C   0  0  0  0  0  3  0  0  0  0  0  0
   37.0120   21.1710   33.4880 C   0  0  0  0  0  2  0  0  0  0  0  0
   35.5470   20.7270   33.5430 C   0  0  0  0  0  2  0  0  0  0  0  0
   35.1630   20.2190   32.1790 C   0  0  0  0  0  2  0  0  0  0  0  0
   35.3420   21.2770   31.1320 C   0  0  0  0  0  2  0  0  0  0  0  0
   35.8080   22.5540   31.7880 C   0  0  0  0  0  2  0  0  0  0  0  0
   34.7740   32.3830   37.6210 N   0  0  0  0  0  0  0  0  0  0  0  0
   34.4030   31.4160   37.8430 H   0  0  0  0  0  0  0  0  0  0  0  0
   35.2420   32.9340   38.3650 H   0  0  0  0  0  0  0  0  0  0  0  0
  1 23  1  0  0  0  0
  1  5  2  0  0  0  0
  2  3  2  0  0  0  0
  2  1  1  0  0  0  0
  3  4  1  0  0  0  0
  4  7  1  0  0  0  0
  4  5  1  0  0  0  0
  6  7  1  0  0  0  0
  6 14  1  0  0  0  0
  7  8  2  0  0  0  0
  8  9  1  0  0  0  0
  9 10  1  0  0  0  0
 10 33  1  0  0  0  0
 11 10  2  0  0  0  0
 12 11  1  0  0  0  0
 13 14  1  0  0  0  0
 13 12  2  0  0  0  0
 14  9  2  0  0  0  0
 15  2  1  0  0  0  0
 16  3  1  0  0  0  0
 17  6  1  0  0  0  0
 18 12  1  0  0  0  0
 19 25  1  0  0  0  0
 20 26  1  0  0  0  0
 20 19  2  0  0  0  0
 21 20  1  0  0  0  0
 22 21  2  0  0  0  0
 22 23  1  0  0  0  0
 23 24  2  0  0  0  0
 24 19  1  0  0  0  0
 27 21  1  0  0  0  0
 27 28  1  0  0  0  0
 28 29  1  0  0  0  0
 30 29  1  0  0  0  0
 31 32  1  0  0  0  0
 31 30  1  0  0  0  0
 32 27  1  0  0  0  0
 33 34  1  0  0  0  0
 33 35  1  0  0  0  0
M  END
>  <minimizedAffinity>
-6.35914183

$$$$

 OpenBabel03262523003D

 35 39  0  0  0  0  0  0  0  0999 V2000
   38.3650   27.1400   32.7380 C   0  0  0  0  0  0  0  0  0  0  0  0
   39.5930   27.0710   32.0800 C   0  0  0  0  0  0  0  0  0  0  0  0
   40.3570   26.1140   32.7010 C   0  0  0  0  0  0  0  0  0  0  0  0
   39.5870   25.6110   33.7300 N   0  0  0  0  0  0  0  0  0  0  0  0
   38.4210   26.2480   33.7120 N   0  0  0  0  0  0  0  0  0  0  0  0
   41.1110   23.7750   34.3150 N   0  0  0  0  0  0  0  0  0  0  0  0
   40.0610   24.5950   34.5900 C   0  0  0  0  0  0  0  0  0  0  0  0
   39.6110   24.2280   35.8110 N   0  0  0  0  0  0  0  0  0  0  0  0
   40.3420   23.2080   36.3050 C   0  0  0  0  0  0  0  0  0  0  0  0
   40.3690   22.4420   37.4360 C   0  0  0  0  0  0  0  0  0  0  0  0
   41.2930   21.4780   37.5640 N   0  0  0  0  0  0  0  0  0  0  0  0
   42.2060   21.2310   36.6080 C   0  0  0  0  0  0  0  0  0  0  0  0
   42.2130   21.9600   35.4830 N   0  0  0  0  0  0  0  0  0  0  0  0
   41.2960   22.9240   35.3470 C   0  0  0  0  0  0  0  0  0  0  0  0
   39.9290   27.6580   31.2160 H   0  0  0  0  0  0  0  0  0  0  0  0
   41.3470   25.8230   32.4360 H   0  0  0  0  0  0  0  0  0  0  0  0
   41.6980   23.7930   33.4290 H   0  0  0  0  0  0  0  0  0  0  0  0
   42.9530   20.4440   36.7230 H   0  0  0  0  0  0  0  0  0  0  0  0
   36.2780   29.4480   30.7960 C   0  0  0  0  0  0  0  0  0  0  0  0
   35.2200   29.7270   31.7290 C   0  0  0  0  0  0  0  0  0  0  0  0
   35.2560   29.1230   32.9730 C   0  0  0  0  0  0  0  0  0  0  0  0
   36.2890   28.2940   33.2610 N   0  0  0  0  0  0  0  0  0  0  0  0
   37.2790   28.0380   32.3770 C   0  0  0  0  0  0  0  0  0  0  0  0
   37.2620   28.6130   31.1630 N   0  0  0  0  0  0  0  0  0  0  0  0
   36.3340   29.8690   29.8060 H   0  0  0  0  0  0  0  0  0  0  0  0
   34.4600   30.3920   31.3970 H   0  0  0  0  0  0  0  0  0  0  0  0
   34.1700   29.4070   33.9370 C   0  0  0  0  0  3  0  0  0  0  0  0
   34.4230   30.5620   34.8420 C   0  0  0  0  0  2  0  0  0  0  0  0
   33.2750   31.5590   34.6620 C   0  0  0  0  0  2  0  0  0  0  0  0
   31.9900   30.8590   35.0130 C   0  0  0  0  0  2  0  0  0  0  0  0
   31.7690   29.6570   34.1460 C   0  0  0  0  0  2  0  0  0  0  0  0
   32.8910   29.5520   33.1420 C   0  0  0  0  0  2  0  0  0  0  0  0
   39.3910   22.7240   38.4310 N   0  0  0  0  0  0  0  0  0  0  0  0
   39.2630   23.7490   38.6660 H   0  0  0  0  0  0  0  0  0  0  0  0
   38.8180   22.0120   38.9210 H   0  0  0  0  0  0  0  0  0  0  0  0
  1  5  2  0  0  0  0
  2  3  2  0  0  0  0
  2  1  1  0  0  0  0
  3  4  1  0  0  0  0
  4  7  1  0  0  0  0
  5  4  1  0  0  0  0
  6  7  1  0  0  0  0
  6 14  1  0  0  0  0
  7  8  2  0  0  0  0
  8  9  1  0  0  0  0
  9 10  1  0  0  0  0
 10 11  2  0  0  0  0
 10 33  1  0  0  0  0
 12 18  1  0  0  0  0
 12 11  1  0  0  0  0
 13 12  2  0  0  0  0
 14 13  1  0  0  0  0
 14  9  2  0  0  0  0
 15  2  1  0  0  0  0
 16  3  1  0  0  0  0
 17  6  1  0  0  0  0
 19 24  2  0  0  0  0
 19 20  1  0  0  0  0
 20 21  2  0  0  0  0
 21 22  1  0  0  0  0
 21 27  1  0  0  0  0
 23  1  1  0  0  0  0
 23 22  2  0  0  0  0
 24 23  1  0  0  0  0
 25 19  1  0  0  0  0
 26 20  1  0  0  0  0
 27 28  1  0  0  0  0
 29 28  1  0  0  0  0
 29 30  1  0  0  0  0
 31 30  1  0  0  0  0
 32 27  1  0  0  0  0
 32 31  1  0  0  0  0
 33 34  1  0  0  0  0
 33 35  1  0  0  0  0
M  END
>  <minimizedAffinity>
-6.3293829

$$$$

 OpenBabel03262523003D

 35 39  0  0  0  0  0  0  0  0999 V2000
   37.2960   26.9790   33.4960 C   0  0  0  0  0  0  0  0  0  0  0  0
   37.0170   25.7580   32.8820 C   0  0  0  0  0  0  0  0  0  0  0  0
   38.0530   24.8980   33.1480 C   0  0  0  0  0  0  0  0  0  0  0  0
   38.9520   25.6050   33.9220 N   0  0  0  0  0  0  0  0  0  0  0  0
   38.4610   26.8270   34.1000 N   0  0  0  0  0  0  0  0  0  0  0  0
   40.3950   23.6870   34.4500 N   0  0  0  0  0  0  0  0  0  0  0  0
   40.1540   25.0250   34.3880 C   0  0  0  0  0  0  0  0  0  0  0  0
   41.2730   25.6270   34.8480 N   0  0  0  0  0  0  0  0  0  0  0  0
   42.2020   24.7130   35.1960 C   0  0  0  0  0  0  0  0  0  0  0  0
   43.4710   24.7070   35.7020 C   0  0  0  0  0  0  0  0  0  0  0  0
   44.0940   23.5400   35.9210 N   0  0  0  0  0  0  0  0  0  0  0  0
   43.5090   22.3570   35.6590 C   0  0  0  0  0  0  0  0  0  0  0  0
   42.2650   22.3200   35.1620 N   0  0  0  0  0  0  0  0  0  0  0  0
   41.6360   23.4790   34.9400 C   0  0  0  0  0  0  0  0  0  0  0  0
   36.1370   25.4900   32.2830 H   0  0  0  0  0  0  0  0  0  0  0  0
   38.1400   23.8890   32.8200 H   0  0  0  0  0  0  0  0  0  0  0  0
   39.7180   22.9200   34.1630 H   0  0  0  0  0  0  0  0  0  0  0  0
   44.0260   21.4130   35.8420 H   0  0  0  0  0  0  0  0  0  0  0  0
   34.9710   29.5170   32.2270 C   0  0  0  0  0  0  0  0  0  0  0  0
   34.8220   30.3650   33.3790 C   0  0  0  0  0  0  0  0  0  0  0  0
   35.5110   30.0430   34.5340 C   0  0  0  0  0  0  0  0  0  0  0  0
   36.3010   28.9410   34.5310 N   0  0  0  0  0  0  0  0  0  0  0  0
   36.4350   28.1500   33.4440 C   0  0  0  0  0  0  0  0  0  0  0  0
   35.7730   28.4440   32.3130 N   0  0  0  0  0  0  0  0  0  0  0  0
   34.4750   29.6860   31.2860 H   0  0  0  0  0  0  0  0  0  0  0  0
   34.1770   31.2030   33.2690 H   0  0  0  0  0  0  0  0  0  0  0  0
   35.3620   30.9120   35.7220 C   0  0  0  0  0  3  0  0  0  0  0  0
   36.2360   32.1180   35.7290 C   0  0  0  0  0  2  0  0  0  0  0  0
   35.3350   33.3500   35.8550 C   0  0  0  0  0  2  0  0  0  0  0  0
   34.5570   33.2300   37.1380 C   0  0  0  0  0  2  0  0  0  0  0  0
   33.7280   31.9810   37.1580 C   0  0  0  0  0  2  0  0  0  0  0  0
   33.8920   31.2510   35.8470 C   0  0  0  0  0  2  0  0  0  0  0  0
   44.0650   25.9720   35.9700 N   0  0  0  0  0  0  0  0  0  0  0  0
   43.9630   26.6960   35.2030 H   0  0  0  0  0  0  0  0  0  0  0  0
   44.5740   26.2190   36.8400 H   0  0  0  0  0  0  0  0  0  0  0  0
  1  5  2  0  0  0  0
  2  3  2  0  0  0  0
  2  1  1  0  0  0  0
  3  4  1  0  0  0  0
  4  5  1  0  0  0  0
  4  7  1  0  0  0  0
  6 14  1  0  0  0  0
  7  6  1  0  0  0  0
  7  8  2  0  0  0  0
  8  9  1  0  0  0  0
  9 10  1  0  0  0  0
 10 11  2  0  0  0  0
 10 33  1  0  0  0  0
 12 18  1  0  0  0  0
 12 11  1  0  0  0  0
 13 12  2  0  0  0  0
 14 13  1  0  0  0  0
 14  9  2  0  0  0  0
 15  2  1  0  0  0  0
 16  3  1  0  0  0  0
 17  6  1  0  0  0  0
 19 24  2  0  0  0  0
 19 20  1  0  0  0  0
 20 21  2  0  0  0  0
 21 27  1  0  0  0  0
 22 21  1  0  0  0  0
 23  1  1  0  0  0  0
 23 22  2  0  0  0  0
 24 23  1  0  0  0  0
 25 19  1  0  0  0  0
 26 20  1  0  0  0  0
 27 28  1  0  0  0  0
 27 32  1  0  0  0  0
 28 29  1  0  0  0  0
 29 30  1  0  0  0  0
 30 31  1  0  0  0  0
 32 31  1  0  0  0  0
 33 35  1  0  0  0  0
 34 33  1  0  0  0  0
M  END
>  <minimizedAffinity>
-6.28033495

$$$$

 OpenBabel03262523003D

 35 39  0  0  0  0  0  0  0  0999 V2000
   37.4150   27.1390   33.0350 C   0  0  0  0  0  0  0  0  0  0  0  0
   36.9740   25.8290   32.8510 C   0  0  0  0  0  0  0  0  0  0  0  0
   37.9300   24.9810   33.3540 C   0  0  0  0  0  0  0  0  0  0  0  0
   38.9420   25.7850   33.8400 N   0  0  0  0  0  0  0  0  0  0  0  0
   38.5930   27.0490   33.6280 N   0  0  0  0  0  0  0  0  0  0  0  0
   40.2070   23.9760   34.9190 N   0  0  0  0  0  0  0  0  0  0  0  0
   40.1030   25.2440   34.4370 C   0  0  0  0  0  0  0  0  0  0  0  0
   41.3050   25.8250   34.6540 N   0  0  0  0  0  0  0  0  0  0  0  0
   42.1520   24.9640   35.2540 C   0  0  0  0  0  0  0  0  0  0  0  0
   43.4420   24.9690   35.7040 C   0  0  0  0  0  0  0  0  0  0  0  0
   43.9520   23.8650   36.2710 N   0  0  0  0  0  0  0  0  0  0  0  0
   43.2330   22.7390   36.4160 C   0  0  0  0  0  0  0  0  0  0  0  0
   41.9640   22.6930   35.9870 N   0  0  0  0  0  0  0  0  0  0  0  0
   41.4470   23.7880   35.4200 C   0  0  0  0  0  0  0  0  0  0  0  0
   36.0370   25.4910   32.3910 H   0  0  0  0  0  0  0  0  0  0  0  0
   37.8910   23.9170   33.3650 H   0  0  0  0  0  0  0  0  0  0  0  0
   39.4380   23.2420   34.9090 H   0  0  0  0  0  0  0  0  0  0  0  0
   43.6590   21.8460   36.8790 H   0  0  0  0  0  0  0  0  0  0  0  0
   35.8210   29.6750   30.9170 C   0  0  0  0  0  0  0  0  0  0  0  0
   35.2890   30.5750   31.9040 C   0  0  0  0  0  0  0  0  0  0  0  0
   35.4910   30.2870   33.2430 C   0  0  0  0  0  0  0  0  0  0  0  0
   36.1840   29.1680   33.5670 N   0  0  0  0  0  0  0  0  0  0  0  0
   36.6790   28.3270   32.6320 C   0  0  0  0  0  0  0  0  0  0  0  0
   36.4940   28.5880   31.3270 N   0  0  0  0  0  0  0  0  0  0  0  0
   35.7130   29.8150   29.8550 H   0  0  0  0  0  0  0  0  0  0  0  0
   34.7630   31.4220   31.5370 H   0  0  0  0  0  0  0  0  0  0  0  0
   34.9470   31.2100   34.2620 C   0  0  0  0  0  3  0  0  0  0  0  0
   33.4810   31.0890   34.4970 C   0  0  0  0  0  2  0  0  0  0  0  0
   33.2670   30.7900   35.9840 C   0  0  0  0  0  2  0  0  0  0  0  0
   33.8570   31.9240   36.7770 C   0  0  0  0  0  2  0  0  0  0  0  0
   35.3200   32.0880   36.4910 C   0  0  0  0  0  2  0  0  0  0  0  0
   35.7620   31.0170   35.5230 C   0  0  0  0  0  2  0  0  0  0  0  0
   44.1800   26.1750   35.5390 N   0  0  0  0  0  0  0  0  0  0  0  0
   44.1070   26.6260   34.5830 H   0  0  0  0  0  0  0  0  0  0  0  0
   44.7630   26.6210   36.2720 H   0  0  0  0  0  0  0  0  0  0  0  0
  1  5  2  0  0  0  0
  2  1  1  0  0  0  0
  2  3  2  0  0  0  0
  3 16  1  0  0  0  0
  3  4  1  0  0  0  0
  4  7  1  0  0  0  0
  5  4  1  0  0  0  0
  6 14  1  0  0  0  0
  7  8  2  0  0  0  0
  7  6  1  0  0  0  0
  8  9  1  0  0  0  0
  9 14  2  0  0  0  0
  9 10  1  0  0  0  0
 10 11  2  0  0  0  0
 11 12  1  0  0  0  0
 12 18  1  0  0  0  0
 13 12  2  0  0  0  0
 14 13  1  0  0  0  0
 15  2  1  0  0  0  0
 17  6  1  0  0  0  0
 19 24  2  0  0  0  0
 19 20  1  0  0  0  0
 20 21  2  0  0  0  0
 21 22  1  0  0  0  0
 21 27  1  0  0  0  0
 23  1  1  0  0  0  0
 23 22  2  0  0  0  0
 24 23  1  0  0  0  0
 25 19  1  0  0  0  0
 26 20  1  0  0  0  0
 27 28  1  0  0  0  0
 27 32  1  0  0  0  0
 28 29  1  0  0  0  0
 29 30  1  0  0  0  0
 31 30  1  0  0  0  0
 32 31  1  0  0  0  0
 33 10  1  0  0  0  0
 33 35  1  0  0  0  0
 34 33  1  0  0  0  0
M  END
>  <minimizedAffinity>
-6.24664354

$$$$

 OpenBabel03262523003D

 35 39  0  0  0  0  0  0  0  0999 V2000
   37.0990   27.2540   31.8810 C   0  0  0  0  0  0  0  0  0  0  0  0
   36.5250   28.3100   32.5890 C   0  0  0  0  0  0  0  0  0  0  0  0
   36.5060   29.4130   31.7730 C   0  0  0  0  0  0  0  0  0  0  0  0
   37.0680   29.0180   30.5750 N   0  0  0  0  0  0  0  0  0  0  0  0
   37.4030   27.7370   30.6890 N   0  0  0  0  0  0  0  0  0  0  0  0
   36.5320   31.0780   29.3490 N   0  0  0  0  0  0  0  0  0  0  0  0
   37.2130   29.9090   29.4880 C   0  0  0  0  0  0  0  0  0  0  0  0
   38.0120   29.8110   28.4020 N   0  0  0  0  0  0  0  0  0  0  0  0
   37.8530   30.8780   27.5920 C   0  0  0  0  0  0  0  0  0  0  0  0
   38.3590   31.3260   26.4050 C   0  0  0  0  0  0  0  0  0  0  0  0
   37.9290   32.4920   25.8970 N   0  0  0  0  0  0  0  0  0  0  0  0
   37.0070   33.2460   26.5200 C   0  0  0  0  0  0  0  0  0  0  0  0
   36.4860   32.8410   27.6870 N   0  0  0  0  0  0  0  0  0  0  0  0
   36.9080   31.6810   28.2010 C   0  0  0  0  0  0  0  0  0  0  0  0
   36.1420   28.3020   33.6180 H   0  0  0  0  0  0  0  0  0  0  0  0
   36.1300   30.3790   32.0190 H   0  0  0  0  0  0  0  0  0  0  0  0
   35.8130   31.4630   30.0310 H   0  0  0  0  0  0  0  0  0  0  0  0
   36.6650   34.1930   26.0970 H   0  0  0  0  0  0  0  0  0  0  0  0
   37.0460   23.5970   32.1520 C   0  0  0  0  0  0  0  0  0  0  0  0
   37.6850   23.3980   33.4250 C   0  0  0  0  0  0  0  0  0  0  0  0
   38.1070   24.5070   34.1360 C   0  0  0  0  0  0  0  0  0  0  0  0
   37.8990   25.7360   33.6030 N   0  0  0  0  0  0  0  0  0  0  0  0
   37.2970   25.9130   32.4060 C   0  0  0  0  0  0  0  0  0  0  0  0
   36.8810   24.8490   31.6990 N   0  0  0  0  0  0  0  0  0  0  0  0
   36.6860   22.7960   31.5280 H   0  0  0  0  0  0  0  0  0  0  0  0
   37.7970   22.3910   33.7450 H   0  0  0  0  0  0  0  0  0  0  0  0
   38.7650   24.3080   35.4460 C   0  0  0  0  0  3  0  0  0  0  0  0
   38.1200   25.0190   36.5850 C   0  0  0  0  0  2  0  0  0  0  0  0
   37.7560   23.9750   37.6440 C   0  0  0  0  0  2  0  0  0  0  0  0
   39.0230   23.2860   38.0750 C   0  0  0  0  0  2  0  0  0  0  0  0
   39.7070   22.6260   36.9160 C   0  0  0  0  0  2  0  0  0  0  0  0
   38.8740   22.8160   35.6710 C   0  0  0  0  0  2  0  0  0  0  0  0
   39.3330   30.5080   25.7670 N   0  0  0  0  0  0  0  0  0  0  0  0
   40.1030   30.1410   26.3960 H   0  0  0  0  0  0  0  0  0  0  0  0
   39.3340   30.2590   24.7600 H   0  0  0  0  0  0  0  0  0  0  0  0
  1 23  1  0  0  0  0
  1  2  1  0  0  0  0
  2 15  1  0  0  0  0
  3 16  1  0  0  0  0
  3  2  2  0  0  0  0
  4  5  1  0  0  0  0
  4  3  1  0  0  0  0
  5  1  2  0  0  0  0
  6  7  1  0  0  0  0
  6 17  1  0  0  0  0
  7  4  1  0  0  0  0
  8  7  2  0  0  0  0
  9 14  1  0  0  0  0
  9  8  1  0  0  0  0
 10  9  2  0  0  0  0
 11 10  1  0  0  0  0
 11 12  2  0  0  0  0
 12 13  1  0  0  0  0
 13 14  2  0  0  0  0
 14  6  1  0  0  0  0
 18 12  1  0  0  0  0
 19 20  1  0  0  0  0
 20 26  1  0  0  0  0
 20 21  2  0  0  0  0
 21 27  1  0  0  0  0
 22 21  1  0  0  0  0
 23 22  2  0  0  0  0
 24 19  2  0  0  0  0
 24 23  1  0  0  0  0
 25 19  1  0  0  0  0
 27 32  1  0  0  0  0
 27 28  1  0  0  0  0
 28 29  1  0  0  0  0
 29 30  1  0  0  0  0
 31 30  1  0  0  0  0
 32 31  1  0  0  0  0
 33 34  1  0  0  0  0
 33 10  1  0  0  0  0
 35 33  1  0  0  0  0
M  END
>  <minimizedAffinity>
-6.17913198

$$$$
