
 OpenBabel03262523303D

 28 31  0  0  0  0  0  0  0  0999 V2000
   36.4550   28.0270   34.2550 C   0  0  0  0  0  0  0  0  0  0  0  0
   36.7310   27.3080   33.0990 C   0  0  0  0  0  0  0  0  0  0  0  0
   36.4280   27.8550   31.8820 C   0  0  0  0  0  0  0  0  0  0  0  0
   35.8510   29.1180   31.8490 C   0  0  0  0  0  0  0  0  0  0  0  0
   35.4700   29.8440   30.7530 N   0  0  0  0  0  0  0  0  0  0  0  0
   34.9630   31.0010   31.2060 C   0  0  0  0  0  0  0  0  0  0  0  0
   35.0110   31.0270   32.5550 N   0  0  0  0  0  0  0  0  0  0  0  0
   35.5580   29.8680   32.9710 C   0  0  0  0  0  0  0  0  0  0  0  0
   35.8730   29.2980   34.2110 C   0  0  0  0  0  0  0  0  0  0  0  0
   36.6630   27.6670   35.2410 H   0  0  0  0  0  0  0  0  0  0  0  0
   36.6390   27.3040   30.9790 H   0  0  0  0  0  0  0  0  0  0  0  0
   35.5640   29.5390   29.7500 H   0  0  0  0  0  0  0  0  0  0  0  0
   34.5880   31.7580   30.5270 H   0  0  0  0  0  0  0  0  0  0  0  0
   35.6560   29.8620   35.1060 H   0  0  0  0  0  0  0  0  0  0  0  0
   38.1390   23.8720   32.5010 C   0  0  0  0  0  0  0  0  0  0  0  0
   37.5480   25.1140   32.2340 C   0  0  0  0  0  0  0  0  0  0  0  0
   37.3340   26.0030   33.2750 C   0  0  0  0  0  0  0  0  0  0  0  0
   37.7130   25.6180   34.5220 N   0  0  0  0  0  0  0  0  0  0  0  0
   38.2840   24.4120   34.7660 C   0  0  0  0  0  0  0  0  0  0  0  0
   38.4900   23.5560   33.7600 N   0  0  0  0  0  0  0  0  0  0  0  0
   38.3110   23.1700   31.6940 H   0  0  0  0  0  0  0  0  0  0  0  0
   37.2580   25.3910   31.2290 H   0  0  0  0  0  0  0  0  0  0  0  0
   38.6580   24.0990   36.1710 C   0  0  0  0  0  3  0  0  0  0  0  0
   37.5710   23.2990   36.8730 C   0  0  0  0  0  2  0  0  0  0  0  0
   37.7290   23.5380   38.3510 C   0  0  0  0  0  2  0  0  0  0  0  0
   39.1920   23.4730   38.6930 C   0  0  0  0  0  2  0  0  0  0  0  0
   39.9960   22.7020   37.6660 C   0  0  0  0  0  2  0  0  0  0  0  0
   39.9520   23.3720   36.3110 C   0  0  0  0  0  2  0  0  0  0  0  0
  1 10  1  0  0  0  0
  2 17  1  0  0  0  0
  2  1  2  0  0  0  0
  3  2  1  0  0  0  0
  4  3  2  0  0  0  0
  4  8  1  0  0  0  0
  5  6  1  0  0  0  0
  5  4  1  0  0  0  0
  6  7  2  0  0  0  0
  7  8  1  0  0  0  0
  8  9  2  0  0  0  0
  9  1  1  0  0  0  0
  9 14  1  0  0  0  0
 11  3  1  0  0  0  0
 12  5  1  0  0  0  0
 13  6  1  0  0  0  0
 15 20  1  0  0  0  0
 16 15  2  0  0  0  0
 16 17  1  0  0  0  0
 17 18  2  0  0  0  0
 18 19  1  0  0  0  0
 19 23  1  0  0  0  0
 20 19  2  0  0  0  0
 21 15  1  0  0  0  0
 22 16  1  0  0  0  0
 23 28  1  0  0  0  0
 23 24  1  0  0  0  0
 24 25  1  0  0  0  0
 25 26  1  0  0  0  0
 27 26  1  0  0  0  0
 28 27  1  0  0  0  0
M  END
>  <minimizedAffinity>
-5.81552744

$$$$

 OpenBabel03262523303D

 28 31  0  0  0  0  0  0  0  0999 V2000
   41.4040   22.3870   35.3080 C   0  0  0  0  0  0  0  0  0  0  0  0
   40.8570   22.2690   36.5800 C   0  0  0  0  0  0  0  0  0  0  0  0
   41.3670   21.3370   37.4430 C   0  0  0  0  0  0  0  0  0  0  0  0
   42.4190   20.5400   37.0120 C   0  0  0  0  0  0  0  0  0  0  0  0
   43.0710   19.5560   37.7030 N   0  0  0  0  0  0  0  0  0  0  0  0
   44.0130   19.0610   36.8870 C   0  0  0  0  0  0  0  0  0  0  0  0
   43.9760   19.7020   35.6980 N   0  0  0  0  0  0  0  0  0  0  0  0
   42.9930   20.6220   35.7580 C   0  0  0  0  0  0  0  0  0  0  0  0
   42.4630   21.5790   34.8830 C   0  0  0  0  0  0  0  0  0  0  0  0
   41.0600   23.0900   34.5790 H   0  0  0  0  0  0  0  0  0  0  0  0
   40.9490   21.2380   38.4320 H   0  0  0  0  0  0  0  0  0  0  0  0
   42.8630   19.2560   38.6910 H   0  0  0  0  0  0  0  0  0  0  0  0
   44.6740   18.2620   37.2040 H   0  0  0  0  0  0  0  0  0  0  0  0
   42.8920   21.6660   33.8950 H   0  0  0  0  0  0  0  0  0  0  0  0
   38.0730   24.0750   38.3500 C   0  0  0  0  0  0  0  0  0  0  0  0
   39.1220   23.1730   38.1300 C   0  0  0  0  0  0  0  0  0  0  0  0
   39.7640   23.1620   36.9010 C   0  0  0  0  0  0  0  0  0  0  0  0
   39.3340   24.0410   35.9570 N   0  0  0  0  0  0  0  0  0  0  0  0
   38.3170   24.9080   36.1850 C   0  0  0  0  0  0  0  0  0  0  0  0
   37.6990   24.9170   37.3700 N   0  0  0  0  0  0  0  0  0  0  0  0
   37.5650   24.0910   39.3070 H   0  0  0  0  0  0  0  0  0  0  0  0
   39.4410   22.4860   38.9020 H   0  0  0  0  0  0  0  0  0  0  0  0
   37.9330   25.8240   35.0780 C   0  0  0  0  0  3  0  0  0  0  0  0
   37.8470   27.2680   35.5520 C   0  0  0  0  0  2  0  0  0  0  0  0
   36.9220   27.9900   34.6090 C   0  0  0  0  0  2  0  0  0  0  0  0
   37.2510   27.5720   33.2020 C   0  0  0  0  0  2  0  0  0  0  0  0
   38.6560   27.0210   33.0720 C   0  0  0  0  0  2  0  0  0  0  0  0
   38.8370   25.7640   33.8940 C   0  0  0  0  0  2  0  0  0  0  0  0
  1  2  1  0  0  0  0
  2 17  1  0  0  0  0
  2  3  2  0  0  0  0
  3 11  1  0  0  0  0
  4  3  1  0  0  0  0
  4  5  1  0  0  0  0
  5 12  1  0  0  0  0
  6 13  1  0  0  0  0
  6  5  1  0  0  0  0
  7  8  1  0  0  0  0
  7  6  2  0  0  0  0
  8  4  2  0  0  0  0
  9  1  2  0  0  0  0
  9  8  1  0  0  0  0
 10  1  1  0  0  0  0
 14  9  1  0  0  0  0
 15 21  1  0  0  0  0
 16 15  1  0  0  0  0
 16 22  1  0  0  0  0
 17 16  2  0  0  0  0
 18 19  2  0  0  0  0
 18 17  1  0  0  0  0
 19 20  1  0  0  0  0
 20 15  2  0  0  0  0
 23 24  1  0  0  0  0
 23 19  1  0  0  0  0
 25 24  1  0  0  0  0
 26 25  1  0  0  0  0
 27 26  1  0  0  0  0
 27 28  1  0  0  0  0
 28 23  1  0  0  0  0
M  END
>  <minimizedAffinity>
-5.80463314

$$$$

 OpenBabel03262523303D

 28 31  0  0  0  0  0  0  0  0999 V2000
   37.5490   26.7400   35.4360 C   0  0  0  0  0  0  0  0  0  0  0  0
   37.9060   25.4580   35.0390 C   0  0  0  0  0  0  0  0  0  0  0  0
   37.7260   25.0880   33.7340 C   0  0  0  0  0  0  0  0  0  0  0  0
   37.1890   26.0150   32.8500 C   0  0  0  0  0  0  0  0  0  0  0  0
   36.9260   25.8560   31.5170 N   0  0  0  0  0  0  0  0  0  0  0  0
   36.4130   27.0160   31.0780 C   0  0  0  0  0  0  0  0  0  0  0  0
   36.3430   27.9020   32.0940 N   0  0  0  0  0  0  0  0  0  0  0  0
   36.8190   27.2990   33.2000 C   0  0  0  0  0  0  0  0  0  0  0  0
   37.0080   27.6660   34.5380 C   0  0  0  0  0  0  0  0  0  0  0  0
   37.6590   27.1020   36.4370 H   0  0  0  0  0  0  0  0  0  0  0  0
   38.0000   24.0940   33.4160 H   0  0  0  0  0  0  0  0  0  0  0  0
   37.1000   24.9830   30.9540 H   0  0  0  0  0  0  0  0  0  0  0  0
   36.1200   27.1490   30.0420 H   0  0  0  0  0  0  0  0  0  0  0  0
   36.7280   28.6650   34.8420 H   0  0  0  0  0  0  0  0  0  0  0  0
   38.4660   23.5410   38.2250 C   0  0  0  0  0  0  0  0  0  0  0  0
   37.8610   24.4000   37.2990 C   0  0  0  0  0  0  0  0  0  0  0  0
   38.4540   24.5910   36.0610 C   0  0  0  0  0  0  0  0  0  0  0  0
   39.6110   23.9240   35.8050 N   0  0  0  0  0  0  0  0  0  0  0  0
   40.1840   23.0960   36.7120 C   0  0  0  0  0  0  0  0  0  0  0  0
   39.6110   22.9130   37.9060 N   0  0  0  0  0  0  0  0  0  0  0  0
   38.0100   23.3850   39.1960 H   0  0  0  0  0  0  0  0  0  0  0  0
   36.9400   24.9160   37.5330 H   0  0  0  0  0  0  0  0  0  0  0  0
   41.4500   22.4190   36.3220 C   0  0  0  0  0  3  0  0  0  0  0  0
   42.6550   23.3260   36.5280 C   0  0  0  0  0  2  0  0  0  0  0  0
   43.7380   22.8420   35.6010 C   0  0  0  0  0  2  0  0  0  0  0  0
   43.7820   21.3390   35.6590 C   0  0  0  0  0  2  0  0  0  0  0  0
   43.1670   20.7880   36.9300 C   0  0  0  0  0  2  0  0  0  0  0  0
   41.6970   21.1300   37.0290 C   0  0  0  0  0  2  0  0  0  0  0  0
  1 10  1  0  0  0  0
  2  1  1  0  0  0  0
  2 17  1  0  0  0  0
  3  2  2  0  0  0  0
  4  8  2  0  0  0  0
  4  3  1  0  0  0  0
  5  4  1  0  0  0  0
  6  5  1  0  0  0  0
  6  7  2  0  0  0  0
  7  8  1  0  0  0  0
  8  9  1  0  0  0  0
  9 14  1  0  0  0  0
  9  1  2  0  0  0  0
 11  3  1  0  0  0  0
 12  5  1  0  0  0  0
 13  6  1  0  0  0  0
 15 21  1  0  0  0  0
 16 22  1  0  0  0  0
 16 15  2  0  0  0  0
 17 16  1  0  0  0  0
 18 17  2  0  0  0  0
 18 19  1  0  0  0  0
 19 20  2  0  0  0  0
 20 15  1  0  0  0  0
 23 24  1  0  0  0  0
 23 19  1  0  0  0  0
 23 28  1  0  0  0  0
 25 26  1  0  0  0  0
 25 24  1  0  0  0  0
 26 27  1  0  0  0  0
 27 28  1  0  0  0  0
M  END
>  <minimizedAffinity>
-5.78601789

$$$$

 OpenBabel03262523303D

 28 31  0  0  0  0  0  0  0  0999 V2000
   37.7510   27.4920   35.4660 C   0  0  0  0  0  0  0  0  0  0  0  0
   37.1420   27.2200   34.2480 C   0  0  0  0  0  0  0  0  0  0  0  0
   37.2820   25.9770   33.6930 C   0  0  0  0  0  0  0  0  0  0  0  0
   38.0330   25.0280   34.3730 C   0  0  0  0  0  0  0  0  0  0  0  0
   38.2990   23.7380   34.0030 N   0  0  0  0  0  0  0  0  0  0  0  0
   39.0620   23.2030   34.9680 C   0  0  0  0  0  0  0  0  0  0  0  0
   39.2870   24.1160   35.9370 N   0  0  0  0  0  0  0  0  0  0  0  0
   38.6560   25.2540   35.5850 C   0  0  0  0  0  0  0  0  0  0  0  0
   38.5070   26.5290   36.1440 C   0  0  0  0  0  0  0  0  0  0  0  0
   37.6880   28.4380   35.9620 H   0  0  0  0  0  0  0  0  0  0  0  0
   36.8120   25.7570   32.7470 H   0  0  0  0  0  0  0  0  0  0  0  0
   37.9610   23.2680   33.1230 H   0  0  0  0  0  0  0  0  0  0  0  0
   39.4100   22.1780   34.9100 H   0  0  0  0  0  0  0  0  0  0  0  0
   38.9830   26.7350   37.0910 H   0  0  0  0  0  0  0  0  0  0  0  0
   35.4430   29.5010   31.7870 C   0  0  0  0  0  0  0  0  0  0  0  0
   36.1890   28.4220   32.2790 C   0  0  0  0  0  0  0  0  0  0  0  0
   36.3880   28.2990   33.6450 C   0  0  0  0  0  0  0  0  0  0  0  0
   35.8410   29.2480   34.4500 N   0  0  0  0  0  0  0  0  0  0  0  0
   35.1220   30.2880   33.9590 C   0  0  0  0  0  0  0  0  0  0  0  0
   34.9310   30.4050   32.6410 N   0  0  0  0  0  0  0  0  0  0  0  0
   35.2820   29.6060   30.7200 H   0  0  0  0  0  0  0  0  0  0  0  0
   36.6100   27.6830   31.6110 H   0  0  0  0  0  0  0  0  0  0  0  0
   34.5720   31.2660   34.9360 C   0  0  0  0  0  3  0  0  0  0  0  0
   33.3490   30.7110   35.6520 C   0  0  0  0  0  2  0  0  0  0  0  0
   32.5410   31.8890   36.1270 C   0  0  0  0  0  2  0  0  0  0  0  0
   33.4800   32.9100   36.7080 C   0  0  0  0  0  2  0  0  0  0  0  0
   34.8030   32.3090   37.1350 C   0  0  0  0  0  2  0  0  0  0  0  0
   35.5540   31.7280   35.9570 C   0  0  0  0  0  2  0  0  0  0  0  0
  1 10  1  0  0  0  0
  1  9  1  0  0  0  0
  2  1  2  0  0  0  0
  3  2  1  0  0  0  0
  3  4  2  0  0  0  0
  4  8  1  0  0  0  0
  5  4  1  0  0  0  0
  5  6  1  0  0  0  0
  6  7  2  0  0  0  0
  8  7  1  0  0  0  0
  8  9  2  0  0  0  0
  9 14  1  0  0  0  0
 11  3  1  0  0  0  0
 12  5  1  0  0  0  0
 13  6  1  0  0  0  0
 15 16  2  0  0  0  0
 15 20  1  0  0  0  0
 16 17  1  0  0  0  0
 17  2  1  0  0  0  0
 17 18  2  0  0  0  0
 19 18  1  0  0  0  0
 19 23  1  0  0  0  0
 20 19  2  0  0  0  0
 21 15  1  0  0  0  0
 22 16  1  0  0  0  0
 23 24  1  0  0  0  0
 23 28  1  0  0  0  0
 24 25  1  0  0  0  0
 25 26  1  0  0  0  0
 26 27  1  0  0  0  0
 28 27  1  0  0  0  0
M  END
>  <minimizedAffinity>
-5.75669813

$$$$

 OpenBabel03262523303D

 28 31  0  0  0  0  0  0  0  0999 V2000
   33.6960   29.5090   34.4880 C   0  0  0  0  0  0  0  0  0  0  0  0
   35.0730   29.6560   34.3840 C   0  0  0  0  0  0  0  0  0  0  0  0
   35.7020   30.6110   35.1350 C   0  0  0  0  0  0  0  0  0  0  0  0
   34.9340   31.4030   35.9790 C   0  0  0  0  0  0  0  0  0  0  0  0
   35.3530   32.4070   36.8080 N   0  0  0  0  0  0  0  0  0  0  0  0
   34.2630   32.8860   37.4260 C   0  0  0  0  0  0  0  0  0  0  0  0
   33.1660   32.2160   37.0110 N   0  0  0  0  0  0  0  0  0  0  0  0
   33.5640   31.2920   36.1140 C   0  0  0  0  0  0  0  0  0  0  0  0
   32.9300   30.3120   35.3400 C   0  0  0  0  0  0  0  0  0  0  0  0
   33.1330   28.7860   33.9340 H   0  0  0  0  0  0  0  0  0  0  0  0
   36.7710   30.7330   35.0610 H   0  0  0  0  0  0  0  0  0  0  0  0
   36.3480   32.7300   36.9290 H   0  0  0  0  0  0  0  0  0  0  0  0
   34.3300   33.6960   38.1440 H   0  0  0  0  0  0  0  0  0  0  0  0
   31.8590   30.2020   35.4250 H   0  0  0  0  0  0  0  0  0  0  0  0
   36.1490   27.7760   31.3090 C   0  0  0  0  0  0  0  0  0  0  0  0
   35.4340   28.6670   32.1210 C   0  0  0  0  0  0  0  0  0  0  0  0
   35.7530   28.7660   33.4670 C   0  0  0  0  0  0  0  0  0  0  0  0
   36.7580   27.9800   33.9370 N   0  0  0  0  0  0  0  0  0  0  0  0
   37.4400   27.1220   33.1390 C   0  0  0  0  0  0  0  0  0  0  0  0
   37.1320   27.0280   31.8410 N   0  0  0  0  0  0  0  0  0  0  0  0
   35.9080   27.6920   30.2560 H   0  0  0  0  0  0  0  0  0  0  0  0
   34.6400   29.2790   31.7160 H   0  0  0  0  0  0  0  0  0  0  0  0
   38.5200   26.3130   33.7640 C   0  0  0  0  0  3  0  0  0  0  0  0
   39.3690   27.1500   34.7100 C   0  0  0  0  0  2  0  0  0  0  0  0
   40.7110   26.4770   34.8150 C   0  0  0  0  0  2  0  0  0  0  0  0
   40.4940   24.9940   34.9490 C   0  0  0  0  0  2  0  0  0  0  0  0
   39.1090   24.6530   35.4590 C   0  0  0  0  0  2  0  0  0  0  0  0
   38.0350   25.1090   34.4970 C   0  0  0  0  0  2  0  0  0  0  0  0
  1  9  1  0  0  0  0
  2  1  2  0  0  0  0
  2  3  1  0  0  0  0
  3  4  2  0  0  0  0
  4  8  1  0  0  0  0
  4  5  1  0  0  0  0
  5 12  1  0  0  0  0
  5  6  1  0  0  0  0
  6 13  1  0  0  0  0
  7  6  2  0  0  0  0
  8  7  1  0  0  0  0
  9 14  1  0  0  0  0
  9  8  2  0  0  0  0
 10  1  1  0  0  0  0
 11  3  1  0  0  0  0
 15 20  2  0  0  0  0
 15 16  1  0  0  0  0
 16 17  2  0  0  0  0
 17 18  1  0  0  0  0
 17  2  1  0  0  0  0
 19 23  1  0  0  0  0
 19 18  2  0  0  0  0
 20 19  1  0  0  0  0
 21 15  1  0  0  0  0
 22 16  1  0  0  0  0
 23 28  1  0  0  0  0
 23 24  1  0  0  0  0
 24 25  1  0  0  0  0
 25 26  1  0  0  0  0
 26 27  1  0  0  0  0
 28 27  1  0  0  0  0
M  END
>  <minimizedAffinity>
-5.70901012

$$$$

 OpenBabel03262523303D

 28 31  0  0  0  0  0  0  0  0999 V2000
   39.3140   25.8860   33.9280 C   0  0  0  0  0  0  0  0  0  0  0  0
   38.1240   26.2920   34.5190 C   0  0  0  0  0  0  0  0  0  0  0  0
   37.7030   25.6760   35.6660 C   0  0  0  0  0  0  0  0  0  0  0  0
   38.4860   24.6610   36.1990 C   0  0  0  0  0  0  0  0  0  0  0  0
   38.2550   23.9190   37.3260 N   0  0  0  0  0  0  0  0  0  0  0  0
   39.2790   23.0600   37.4460 C   0  0  0  0  0  0  0  0  0  0  0  0
   40.1500   23.2360   36.4300 N   0  0  0  0  0  0  0  0  0  0  0  0
   39.6740   24.2250   35.6470 C   0  0  0  0  0  0  0  0  0  0  0  0
   40.0960   24.8620   34.4730 C   0  0  0  0  0  0  0  0  0  0  0  0
   39.7080   26.3180   33.0320 H   0  0  0  0  0  0  0  0  0  0  0  0
   36.7800   25.9840   36.1320 H   0  0  0  0  0  0  0  0  0  0  0  0
   37.4260   24.0160   37.9670 H   0  0  0  0  0  0  0  0  0  0  0  0
   39.3320   22.3550   38.2680 H   0  0  0  0  0  0  0  0  0  0  0  0
   41.0220   24.5420   34.0180 H   0  0  0  0  0  0  0  0  0  0  0  0
   36.7380   28.6590   31.9460 C   0  0  0  0  0  0  0  0  0  0  0  0
   37.4720   27.5990   32.4960 C   0  0  0  0  0  0  0  0  0  0  0  0
   37.4040   27.3610   33.8600 C   0  0  0  0  0  0  0  0  0  0  0  0
   36.6180   28.1810   34.6050 N   0  0  0  0  0  0  0  0  0  0  0  0
   35.9140   29.2030   34.0590 C   0  0  0  0  0  0  0  0  0  0  0  0
   35.9800   29.4320   32.7430 N   0  0  0  0  0  0  0  0  0  0  0  0
   36.7840   28.8530   30.8810 H   0  0  0  0  0  0  0  0  0  0  0  0
   38.0880   26.9640   31.8740 H   0  0  0  0  0  0  0  0  0  0  0  0
   35.0860   30.0350   34.9730 C   0  0  0  0  0  3  0  0  0  0  0  0
   35.7320   31.3880   35.2350 C   0  0  0  0  0  2  0  0  0  0  0  0
   35.1990   31.8870   36.5510 C   0  0  0  0  0  2  0  0  0  0  0  0
   33.7180   31.6250   36.5970 C   0  0  0  0  0  2  0  0  0  0  0  0
   33.1130   31.4570   35.2180 C   0  0  0  0  0  2  0  0  0  0  0  0
   33.6900   30.2560   34.5020 C   0  0  0  0  0  2  0  0  0  0  0  0
  1  9  2  0  0  0  0
  1  2  1  0  0  0  0
  2  3  2  0  0  0  0
  3 11  1  0  0  0  0
  3  4  1  0  0  0  0
  4  5  1  0  0  0  0
  5  6  1  0  0  0  0
  5 12  1  0  0  0  0
  6 13  1  0  0  0  0
  7  6  2  0  0  0  0
  8  4  2  0  0  0  0
  8  7  1  0  0  0  0
  9  8  1  0  0  0  0
 10  1  1  0  0  0  0
 14  9  1  0  0  0  0
 15 16  2  0  0  0  0
 15 20  1  0  0  0  0
 16 17  1  0  0  0  0
 17  2  1  0  0  0  0
 17 18  2  0  0  0  0
 19 18  1  0  0  0  0
 19 23  1  0  0  0  0
 20 19  2  0  0  0  0
 21 15  1  0  0  0  0
 22 16  1  0  0  0  0
 23 24  1  0  0  0  0
 24 25  1  0  0  0  0
 25 26  1  0  0  0  0
 27 26  1  0  0  0  0
 28 23  1  0  0  0  0
 28 27  1  0  0  0  0
M  END
>  <minimizedAffinity>
-5.67487955

$$$$

 OpenBabel03262523303D

 28 31  0  0  0  0  0  0  0  0999 V2000
   37.1470   26.4760   33.4650 C   0  0  0  0  0  0  0  0  0  0  0  0
   37.1620   25.5590   32.4210 C   0  0  0  0  0  0  0  0  0  0  0  0
   37.0230   26.0080   31.1360 C   0  0  0  0  0  0  0  0  0  0  0  0
   36.8720   27.3710   30.9230 C   0  0  0  0  0  0  0  0  0  0  0  0
   36.7190   28.0280   29.7320 N   0  0  0  0  0  0  0  0  0  0  0  0
   36.6090   29.3340   30.0160 C   0  0  0  0  0  0  0  0  0  0  0  0
   36.6880   29.5240   31.3500 N   0  0  0  0  0  0  0  0  0  0  0  0
   36.8510   28.3180   31.9290 C   0  0  0  0  0  0  0  0  0  0  0  0
   36.9930   27.8470   33.2400 C   0  0  0  0  0  0  0  0  0  0  0  0
   37.2490   26.2030   34.4950 H   0  0  0  0  0  0  0  0  0  0  0  0
   37.0340   25.3030   30.3190 H   0  0  0  0  0  0  0  0  0  0  0  0
   36.6940   27.5780   28.7800 H   0  0  0  0  0  0  0  0  0  0  0  0
   36.4790   30.0740   29.2340 H   0  0  0  0  0  0  0  0  0  0  0  0
   36.9800   28.5650   34.0480 H   0  0  0  0  0  0  0  0  0  0  0  0
   36.9630   21.8040   32.5070 C   0  0  0  0  0  0  0  0  0  0  0  0
   36.7460   23.1220   32.0820 C   0  0  0  0  0  0  0  0  0  0  0  0
   37.3270   24.1670   32.7830 C   0  0  0  0  0  0  0  0  0  0  0  0
   38.0900   23.8550   33.8640 N   0  0  0  0  0  0  0  0  0  0  0  0
   38.2900   22.5750   34.2640 C   0  0  0  0  0  0  0  0  0  0  0  0
   37.7290   21.5680   33.5870 N   0  0  0  0  0  0  0  0  0  0  0  0
   36.5130   20.9800   31.9660 H   0  0  0  0  0  0  0  0  0  0  0  0
   36.1340   23.3370   31.2170 H   0  0  0  0  0  0  0  0  0  0  0  0
   39.1440   22.3540   35.4610 C   0  0  0  0  0  3  0  0  0  0  0  0
   40.5040   23.0200   35.3080 C   0  0  0  0  0  2  0  0  0  0  0  0
   41.4600   22.2880   36.2110 C   0  0  0  0  0  2  0  0  0  0  0  0
   40.7770   22.0360   37.5280 C   0  0  0  0  0  2  0  0  0  0  0  0
   39.6210   22.9840   37.7750 C   0  0  0  0  0  2  0  0  0  0  0  0
   38.5310   22.8100   36.7410 C   0  0  0  0  0  2  0  0  0  0  0  0
  1 10  1  0  0  0  0
  2 17  1  0  0  0  0
  2  1  2  0  0  0  0
  3  2  1  0  0  0  0
  4  3  2  0  0  0  0
  4  8  1  0  0  0  0
  5  6  1  0  0  0  0
  5  4  1  0  0  0  0
  6  7  2  0  0  0  0
  7  8  1  0  0  0  0
  8  9  2  0  0  0  0
  9  1  1  0  0  0  0
  9 14  1  0  0  0  0
 11  3  1  0  0  0  0
 12  5  1  0  0  0  0
 13  6  1  0  0  0  0
 15 20  1  0  0  0  0
 16 15  2  0  0  0  0
 16 17  1  0  0  0  0
 17 18  2  0  0  0  0
 18 19  1  0  0  0  0
 19 23  1  0  0  0  0
 20 19  2  0  0  0  0
 21 15  1  0  0  0  0
 22 16  1  0  0  0  0
 23 28  1  0  0  0  0
 24 23  1  0  0  0  0
 24 25  1  0  0  0  0
 25 26  1  0  0  0  0
 26 27  1  0  0  0  0
 28 27  1  0  0  0  0
M  END
>  <minimizedAffinity>
-5.61039782

$$$$

 OpenBabel03262523303D

 28 31  0  0  0  0  0  0  0  0999 V2000
   35.4850   25.6470   31.0790 C   0  0  0  0  0  0  0  0  0  0  0  0
   36.3310   26.3750   31.9060 C   0  0  0  0  0  0  0  0  0  0  0  0
   37.2080   25.7090   32.7180 C   0  0  0  0  0  0  0  0  0  0  0  0
   37.2190   24.3210   32.6860 C   0  0  0  0  0  0  0  0  0  0  0  0
   38.0050   23.4650   33.4080 N   0  0  0  0  0  0  0  0  0  0  0  0
   37.6640   22.2200   33.0450 C   0  0  0  0  0  0  0  0  0  0  0  0
   36.6850   22.2620   32.1160 N   0  0  0  0  0  0  0  0  0  0  0  0
   36.3970   23.5570   31.8810 C   0  0  0  0  0  0  0  0  0  0  0  0
   35.5030   24.2490   31.0530 C   0  0  0  0  0  0  0  0  0  0  0  0
   34.7740   26.0950   30.4170 H   0  0  0  0  0  0  0  0  0  0  0  0
   37.8690   26.2670   33.3640 H   0  0  0  0  0  0  0  0  0  0  0  0
   38.7360   23.7470   34.1110 H   0  0  0  0  0  0  0  0  0  0  0  0
   38.1490   21.3520   33.4790 H   0  0  0  0  0  0  0  0  0  0  0  0
   34.8470   23.6770   30.4130 H   0  0  0  0  0  0  0  0  0  0  0  0
   36.2300   29.9380   30.7050 C   0  0  0  0  0  0  0  0  0  0  0  0
   36.3580   28.5430   30.6690 C   0  0  0  0  0  0  0  0  0  0  0  0
   36.2170   27.8170   31.8420 C   0  0  0  0  0  0  0  0  0  0  0  0
   35.9580   28.5070   32.9840 N   0  0  0  0  0  0  0  0  0  0  0  0
   35.8380   29.8570   33.0030 C   0  0  0  0  0  0  0  0  0  0  0  0
   35.9740   30.5560   31.8720 N   0  0  0  0  0  0  0  0  0  0  0  0
   36.3380   30.5150   29.7940 H   0  0  0  0  0  0  0  0  0  0  0  0
   36.5640   28.0240   29.7430 H   0  0  0  0  0  0  0  0  0  0  0  0
   35.5530   30.5040   34.3120 C   0  0  0  0  0  3  0  0  0  0  0  0
   35.7960   32.0060   34.2570 C   0  0  0  0  0  2  0  0  0  0  0  0
   36.0700   32.4630   35.6640 C   0  0  0  0  0  2  0  0  0  0  0  0
   35.0900   31.7900   36.5860 C   0  0  0  0  0  2  0  0  0  0  0  0
   33.8460   31.3130   35.8640 C   0  0  0  0  0  2  0  0  0  0  0  0
   34.1760   30.2620   34.8270 C   0  0  0  0  0  2  0  0  0  0  0  0
  1  2  1  0  0  0  0
  2  3  2  0  0  0  0
  3 11  1  0  0  0  0
  4  3  1  0  0  0  0
  4  5  1  0  0  0  0
  5 12  1  0  0  0  0
  6  5  1  0  0  0  0
  6 13  1  0  0  0  0
  7  6  2  0  0  0  0
  8  7  1  0  0  0  0
  8  4  2  0  0  0  0
  9  1  2  0  0  0  0
  9  8  1  0  0  0  0
 10  1  1  0  0  0  0
 14  9  1  0  0  0  0
 15 20  1  0  0  0  0
 16 15  2  0  0  0  0
 16 17  1  0  0  0  0
 17  2  1  0  0  0  0
 17 18  2  0  0  0  0
 18 19  1  0  0  0  0
 19 23  1  0  0  0  0
 20 19  2  0  0  0  0
 21 15  1  0  0  0  0
 22 16  1  0  0  0  0
 23 28  1  0  0  0  0
 24 23  1  0  0  0  0
 24 25  1  0  0  0  0
 25 26  1  0  0  0  0
 27 26  1  0  0  0  0
 28 27  1  0  0  0  0
M  END
>  <minimizedAffinity>
-5.60124445

$$$$

 OpenBabel03262523303D

 28 31  0  0  0  0  0  0  0  0999 V2000
   33.5380   29.5810   33.6950 C   0  0  0  0  0  0  0  0  0  0  0  0
   34.8720   29.9210   33.5080 C   0  0  0  0  0  0  0  0  0  0  0  0
   35.4900   30.7300   34.4230 C   0  0  0  0  0  0  0  0  0  0  0  0
   34.7560   31.1820   35.5110 C   0  0  0  0  0  0  0  0  0  0  0  0
   35.1720   31.9910   36.5330 N   0  0  0  0  0  0  0  0  0  0  0  0
   34.1230   32.1600   37.3510 C   0  0  0  0  0  0  0  0  0  0  0  0
   33.0550   31.4830   36.8770 N   0  0  0  0  0  0  0  0  0  0  0  0
   33.4290   30.8710   35.7370 C   0  0  0  0  0  0  0  0  0  0  0  0
   32.8070   30.0430   34.7940 C   0  0  0  0  0  0  0  0  0  0  0  0
   32.9870   28.9560   33.0250 H   0  0  0  0  0  0  0  0  0  0  0  0
   36.5260   30.9990   34.2860 H   0  0  0  0  0  0  0  0  0  0  0  0
   36.1380   32.3970   36.6430 H   0  0  0  0  0  0  0  0  0  0  0  0
   34.1960   32.7670   38.2470 H   0  0  0  0  0  0  0  0  0  0  0  0
   31.7690   29.7820   34.9440 H   0  0  0  0  0  0  0  0  0  0  0  0
   36.6060   29.5540   30.1910 C   0  0  0  0  0  0  0  0  0  0  0  0
   35.9910   30.1660   31.2910 C   0  0  0  0  0  0  0  0  0  0  0  0
   35.5200   29.3810   32.3320 C   0  0  0  0  0  0  0  0  0  0  0  0
   35.6820   28.0350   32.2300 N   0  0  0  0  0  0  0  0  0  0  0  0
   36.2800   27.4570   31.1590 C   0  0  0  0  0  0  0  0  0  0  0  0
   36.7320   28.2150   30.1560 N   0  0  0  0  0  0  0  0  0  0  0  0
   36.9770   30.1590   29.3720 H   0  0  0  0  0  0  0  0  0  0  0  0
   35.8780   31.2410   31.3410 H   0  0  0  0  0  0  0  0  0  0  0  0
   36.4020   25.9740   31.1580 C   0  0  0  0  0  3  0  0  0  0  0  0
   36.9940   25.4610   32.4630 C   0  0  0  0  0  2  0  0  0  0  0  0
   37.6190   24.1240   32.1710 C   0  0  0  0  0  2  0  0  0  0  0  0
   36.6820   23.3390   31.2930 C   0  0  0  0  0  2  0  0  0  0  0  0
   35.2510   23.8290   31.3840 C   0  0  0  0  0  2  0  0  0  0  0  0
   35.1210   25.2560   30.9010 C   0  0  0  0  0  2  0  0  0  0  0  0
  1  9  1  0  0  0  0
  2  1  2  0  0  0  0
  2  3  1  0  0  0  0
  3  4  2  0  0  0  0
  4  8  1  0  0  0  0
  4  5  1  0  0  0  0
  5 12  1  0  0  0  0
  5  6  1  0  0  0  0
  6 13  1  0  0  0  0
  7  6  2  0  0  0  0
  8  7  1  0  0  0  0
  9 14  1  0  0  0  0
  9  8  2  0  0  0  0
 10  1  1  0  0  0  0
 11  3  1  0  0  0  0
 15 16  1  0  0  0  0
 16 22  1  0  0  0  0
 16 17  2  0  0  0  0
 17  2  1  0  0  0  0
 18 17  1  0  0  0  0
 19 18  2  0  0  0  0
 20 15  2  0  0  0  0
 20 19  1  0  0  0  0
 21 15  1  0  0  0  0
 23 19  1  0  0  0  0
 23 24  1  0  0  0  0
 25 24  1  0  0  0  0
 26 27  1  0  0  0  0
 26 25  1  0  0  0  0
 28 23  1  0  0  0  0
 28 27  1  0  0  0  0
M  END
>  <minimizedAffinity>
-5.5553031

$$$$
