
 OpenBabel03262523293D

 28 31  0  0  0  0  0  0  0  0999 V2000
   36.7810   30.6160   46.1940 C   0  0  0  0  0  0  0  0  0  0  0  0
   37.2470   30.8970   47.4720 C   0  0  0  0  0  0  0  0  0  0  0  0
   38.2710   31.7910   47.6280 C   0  0  0  0  0  0  0  0  0  0  0  0
   38.8090   32.3870   46.4950 C   0  0  0  0  0  0  0  0  0  0  0  0
   39.8270   33.2990   46.4230 N   0  0  0  0  0  0  0  0  0  0  0  0
   40.0020   33.5900   45.1250 C   0  0  0  0  0  0  0  0  0  0  0  0
   39.1250   32.8890   44.3740 N   0  0  0  0  0  0  0  0  0  0  0  0
   38.3780   32.1380   45.2070 C   0  0  0  0  0  0  0  0  0  0  0  0
   37.3290   31.2210   45.0590 C   0  0  0  0  0  0  0  0  0  0  0  0
   35.9850   29.9300   45.9920 H   0  0  0  0  0  0  0  0  0  0  0  0
   38.6410   32.0160   48.6170 H   0  0  0  0  0  0  0  0  0  0  0  0
   40.3630   33.6900   47.2410 H   0  0  0  0  0  0  0  0  0  0  0  0
   40.7570   34.2960   44.8000 H   0  0  0  0  0  0  0  0  0  0  0  0
   36.9710   31.0060   44.0630 H   0  0  0  0  0  0  0  0  0  0  0  0
   36.2780   29.6510   50.8860 C   0  0  0  0  0  0  0  0  0  0  0  0
   36.9660   30.3620   49.8930 C   0  0  0  0  0  0  0  0  0  0  0  0
   36.5980   30.2060   48.5660 C   0  0  0  0  0  0  0  0  0  0  0  0
   35.5740   29.3560   48.2910 N   0  0  0  0  0  0  0  0  0  0  0  0
   34.9180   28.6740   49.2620 C   0  0  0  0  0  0  0  0  0  0  0  0
   35.2740   28.8260   50.5420 N   0  0  0  0  0  0  0  0  0  0  0  0
   36.5580   29.7670   51.9260 H   0  0  0  0  0  0  0  0  0  0  0  0
   37.7770   31.0320   50.1460 H   0  0  0  0  0  0  0  0  0  0  0  0
   33.8120   27.7720   48.8420 C   0  0  0  0  0  0  0  0  0  0  0  0
   32.5360   28.5500   48.5540 C   0  0  0  0  0  0  0  0  0  0  0  0
   31.3850   27.5960   48.7280 C   0  0  0  0  0  0  0  0  0  0  0  0
   31.7490   26.2850   48.0850 C   0  0  0  0  0  0  0  0  0  0  0  0
   32.8400   26.4300   47.0440 C   0  0  0  0  0  0  0  0  0  0  0  0
   34.1310   26.9240   47.6590 C   0  0  0  0  0  0  0  0  0  0  0  0
  1  2  1  0  0  0  0
  2  3  2  0  0  0  0
  2 17  1  0  0  0  0
  3 11  1  0  0  0  0
  4  3  1  0  0  0  0
  5  4  1  0  0  0  0
  5 12  1  0  0  0  0
  6  5  1  0  0  0  0
  7  6  2  0  0  0  0
  7  8  1  0  0  0  0
  8  4  2  0  0  0  0
  9  8  1  0  0  0  0
  9  1  2  0  0  0  0
 10  1  1  0  0  0  0
 13  6  1  0  0  0  0
 14  9  1  0  0  0  0
 15 21  1  0  0  0  0
 16 22  1  0  0  0  0
 16 15  2  0  0  0  0
 17 16  1  0  0  0  0
 18 17  2  0  0  0  0
 18 19  1  0  0  0  0
 19 20  2  0  0  0  0
 20 15  1  0  0  0  0
 23 19  1  0  0  0  0
 24 25  1  0  0  0  0
 24 23  1  0  0  0  0
 26 25  1  0  0  0  0
 27 28  1  0  0  0  0
 27 26  1  0  0  0  0
 28 23  1  0  0  0  0
M  END
>  <minimizedAffinity>
-6.3624053

>  <minimizedRMSD>
1.2032671

$$$$
