
 OpenBabel03272507063D

 28 31  0  0  0  0  0  0  0  0999 V2000
   36.3550   28.2200   34.3810 C   0  0  0  0  0  0  0  0  0  0  0  0
   36.6970   27.5030   33.2350 C   0  0  0  0  0  0  0  0  0  0  0  0
   36.4790   28.0410   31.9940 C   0  0  0  0  0  0  0  0  0  0  0  0
   35.9210   29.2930   31.8420 C   0  0  0  0  0  0  0  0  0  0  0  0
   35.6120   30.0290   30.7480 N   0  0  0  0  0  0  0  0  0  0  0  0
   35.0850   31.1810   31.2780 C   0  0  0  0  0  0  0  0  0  0  0  0
   35.0800   31.1390   32.6190 N   0  0  0  0  0  0  0  0  0  0  0  0
   35.5980   29.9670   32.9940 C   0  0  0  0  0  0  0  0  0  0  0  0
   35.7900   29.4840   34.2670 C   0  0  0  0  0  0  0  0  0  0  0  0
   36.5070   27.8380   35.3840 H   0  0  0  0  0  0  0  0  0  0  0  0
   36.7630   27.4420   31.1200 H   0  0  0  0  0  0  0  0  0  0  0  0
   35.7420   29.7810   29.7460 H   0  0  0  0  0  0  0  0  0  0  0  0
   34.7470   31.9640   30.6120 H   0  0  0  0  0  0  0  0  0  0  0  0
   35.5170   30.0580   35.1410 H   0  0  0  0  0  0  0  0  0  0  0  0
   37.9910   24.1400   32.4970 C   0  0  0  0  0  0  0  0  0  0  0  0
   38.4130   23.6940   33.7700 C   0  0  0  0  0  0  0  0  0  0  0  0
   38.2380   24.5810   34.8680 C   0  0  0  0  0  0  0  0  0  0  0  0
   37.6740   25.8020   34.6270 N   0  0  0  0  0  0  0  0  0  0  0  0
   37.2840   26.1870   33.3870 C   0  0  0  0  0  0  0  0  0  0  0  0
   37.4440   25.3630   32.3520 N   0  0  0  0  0  0  0  0  0  0  0  0
   38.1360   23.4490   31.6860 H   0  0  0  0  0  0  0  0  0  0  0  0
   38.8560   22.7390   33.9730 H   0  0  0  0  0  0  0  0  0  0  0  0
   38.6580   24.1800   36.2330 C   0  0  0  0  0  3  0  0  0  0  0  0
   39.9140   23.3830   36.2870 C   0  0  0  0  0  2  0  0  0  0  0  0
   40.0050   22.7270   37.6490 C   0  0  0  0  0  2  0  0  0  0  0  0
   39.1920   23.4700   38.6870 C   0  0  0  0  0  2  0  0  0  0  0  0
   37.7150   23.4410   38.3270 C   0  0  0  0  0  2  0  0  0  0  0  0
   37.5370   23.3270   36.8210 C   0  0  0  0  0  2  0  0  0  0  0  0
  1 10  1  0  0  0  0
  2 19  1  0  0  0  0
  2  1  2  0  0  0  0
  3  2  1  0  0  0  0
  4  3  2  0  0  0  0
  4  8  1  0  0  0  0
  5  6  1  0  0  0  0
  5  4  1  0  0  0  0
  6  7  2  0  0  0  0
  7  8  1  0  0  0  0
  8  9  2  0  0  0  0
  9  1  1  0  0  0  0
  9 14  1  0  0  0  0
 11  3  1  0  0  0  0
 12  5  1  0  0  0  0
 13  6  1  0  0  0  0
 15 16  1  0  0  0  0
 16 22  1  0  0  0  0
 16 17  2  0  0  0  0
 17 23  1  0  0  0  0
 18 17  1  0  0  0  0
 19 18  2  0  0  0  0
 20 15  2  0  0  0  0
 20 19  1  0  0  0  0
 21 15  1  0  0  0  0
 23 24  1  0  0  0  0
 23 28  1  0  0  0  0
 24 25  1  0  0  0  0
 25 26  1  0  0  0  0
 27 26  1  0  0  0  0
 28 27  1  0  0  0  0
M  END
>  <minimizedAffinity>
-5.81934214

$$$$

 OpenBabel03272507063D

 28 31  0  0  0  0  0  0  0  0999 V2000
   38.9620   25.3380   34.0210 C   0  0  0  0  0  0  0  0  0  0  0  0
   37.9630   26.0820   34.6480 C   0  0  0  0  0  0  0  0  0  0  0  0
   37.5900   25.7900   35.9330 C   0  0  0  0  0  0  0  0  0  0  0  0
   38.1830   24.7640   36.6370 C   0  0  0  0  0  0  0  0  0  0  0  0
   37.9950   24.2870   37.8920 N   0  0  0  0  0  0  0  0  0  0  0  0
   38.8990   23.2580   37.9800 C   0  0  0  0  0  0  0  0  0  0  0  0
   39.5940   23.1240   36.8400 N   0  0  0  0  0  0  0  0  0  0  0  0
   39.1620   24.0550   35.9860 C   0  0  0  0  0  0  0  0  0  0  0  0
   39.5820   24.2970   34.6990 C   0  0  0  0  0  0  0  0  0  0  0  0
   39.2920   25.5300   33.0060 H   0  0  0  0  0  0  0  0  0  0  0  0
   36.8000   26.4010   36.3880 H   0  0  0  0  0  0  0  0  0  0  0  0
   37.3260   24.6220   38.6150 H   0  0  0  0  0  0  0  0  0  0  0  0
   38.9660   22.6890   38.8980 H   0  0  0  0  0  0  0  0  0  0  0  0
   40.3590   23.7070   34.2330 H   0  0  0  0  0  0  0  0  0  0  0  0
   36.9370   28.3320   31.9250 C   0  0  0  0  0  0  0  0  0  0  0  0
   36.0960   29.2500   32.5930 C   0  0  0  0  0  0  0  0  0  0  0  0
   35.9010   29.0650   33.9900 C   0  0  0  0  0  0  0  0  0  0  0  0
   36.5360   28.0180   34.5970 N   0  0  0  0  0  0  0  0  0  0  0  0
   37.3350   27.1620   33.9140 C   0  0  0  0  0  0  0  0  0  0  0  0
   37.5230   27.3270   32.6050 N   0  0  0  0  0  0  0  0  0  0  0  0
   37.0660   28.4960   30.8700 H   0  0  0  0  0  0  0  0  0  0  0  0
   35.5930   30.0750   32.1310 H   0  0  0  0  0  0  0  0  0  0  0  0
   35.0310   29.9900   34.7580 C   0  0  0  0  0  3  0  0  0  0  0  0
   33.8970   30.5620   33.9810 C   0  0  0  0  0  2  0  0  0  0  0  0
   33.3490   31.7510   34.7430 C   0  0  0  0  0  2  0  0  0  0  0  0
   33.6710   31.6700   36.2190 C   0  0  0  0  0  2  0  0  0  0  0  0
   35.1750   31.7130   36.4400 C   0  0  0  0  0  2  0  0  0  0  0  0
   35.9050   31.1470   35.2310 C   0  0  0  0  0  2  0  0  0  0  0  0
  1  2  2  0  0  0  0
  1  9  1  0  0  0  0
  2  3  1  0  0  0  0
  3 11  1  0  0  0  0
  3  4  2  0  0  0  0
  4  5  1  0  0  0  0
  5  6  1  0  0  0  0
  5 12  1  0  0  0  0
  6 13  1  0  0  0  0
  7  6  2  0  0  0  0
  8  4  1  0  0  0  0
  8  7  1  0  0  0  0
  9  8  2  0  0  0  0
 10  1  1  0  0  0  0
 14  9  1  0  0  0  0
 15 16  2  0  0  0  0
 15 20  1  0  0  0  0
 16 17  1  0  0  0  0
 17 18  2  0  0  0  0
 17 23  1  0  0  0  0
 19 18  1  0  0  0  0
 19  2  1  0  0  0  0
 20 19  2  0  0  0  0
 21 15  1  0  0  0  0
 22 16  1  0  0  0  0
 23 28  1  0  0  0  0
 24 25  1  0  0  0  0
 24 23  1  0  0  0  0
 25 26  1  0  0  0  0
 26 27  1  0  0  0  0
 28 27  1  0  0  0  0
M  END
>  <minimizedAffinity>
-5.72053528

$$$$

 OpenBabel03272507063D

 28 31  0  0  0  0  0  0  0  0999 V2000
   37.4820   25.5870   32.9340 C   0  0  0  0  0  0  0  0  0  0  0  0
   37.1890   26.6360   33.8050 C   0  0  0  0  0  0  0  0  0  0  0  0
   37.3720   26.4840   35.1530 C   0  0  0  0  0  0  0  0  0  0  0  0
   37.8450   25.3040   35.6850 C   0  0  0  0  0  0  0  0  0  0  0  0
   38.1060   24.9130   36.9570 N   0  0  0  0  0  0  0  0  0  0  0  0
   38.5530   23.6230   36.8080 C   0  0  0  0  0  0  0  0  0  0  0  0
   38.5610   23.2590   35.5160 N   0  0  0  0  0  0  0  0  0  0  0  0
   38.1220   24.2940   34.7970 C   0  0  0  0  0  0  0  0  0  0  0  0
   37.9600   24.3830   33.4340 C   0  0  0  0  0  0  0  0  0  0  0  0
   37.3540   25.6580   31.8590 H   0  0  0  0  0  0  0  0  0  0  0  0
   37.1290   27.3350   35.8020 H   0  0  0  0  0  0  0  0  0  0  0  0
   37.9950   25.4590   37.8340 H   0  0  0  0  0  0  0  0  0  0  0  0
   38.8390   23.0570   37.6840 H   0  0  0  0  0  0  0  0  0  0  0  0
   38.1930   23.5560   32.7780 H   0  0  0  0  0  0  0  0  0  0  0  0
   36.3140   29.3160   31.4420 C   0  0  0  0  0  0  0  0  0  0  0  0
   35.7150   30.2780   32.2860 C   0  0  0  0  0  0  0  0  0  0  0  0
   35.6260   29.9710   33.6720 C   0  0  0  0  0  0  0  0  0  0  0  0
   36.1230   28.7720   34.1010 N   0  0  0  0  0  0  0  0  0  0  0  0
   36.6910   27.8800   33.2530 C   0  0  0  0  0  0  0  0  0  0  0  0
   36.7790   28.1580   31.9520 N   0  0  0  0  0  0  0  0  0  0  0  0
   36.3670   29.5750   30.4000 H   0  0  0  0  0  0  0  0  0  0  0  0
   35.3210   31.2210   31.9650 H   0  0  0  0  0  0  0  0  0  0  0  0
   35.0080   30.9330   34.6180 C   0  0  0  0  0  3  0  0  0  0  0  0
   35.8850   31.3350   35.7530 C   0  0  0  0  0  2  0  0  0  0  0  0
   35.0220   31.9820   36.8160 C   0  0  0  0  0  2  0  0  0  0  0  0
   33.7370   32.5360   36.2380 C   0  0  0  0  0  2  0  0  0  0  0  0
   32.8870   31.4150   35.6600 C   0  0  0  0  0  2  0  0  0  0  0  0
   33.7670   30.2630   35.2010 C   0  0  0  0  0  2  0  0  0  0  0  0
  1  9  2  0  0  0  0
  1  2  1  0  0  0  0
  2  3  2  0  0  0  0
  3  4  1  0  0  0  0
  3 11  1  0  0  0  0
  4  5  1  0  0  0  0
  5 12  1  0  0  0  0
  6  5  1  0  0  0  0
  6 13  1  0  0  0  0
  7  6  2  0  0  0  0
  8  7  1  0  0  0  0
  8  4  2  0  0  0  0
  9  8  1  0  0  0  0
 10  1  1  0  0  0  0
 14  9  1  0  0  0  0
 15 20  2  0  0  0  0
 15 16  1  0  0  0  0
 16 17  2  0  0  0  0
 17 18  1  0  0  0  0
 17 23  1  0  0  0  0
 19  2  1  0  0  0  0
 19 18  2  0  0  0  0
 20 19  1  0  0  0  0
 21 15  1  0  0  0  0
 22 16  1  0  0  0  0
 23 28  1  0  0  0  0
 23 24  1  0  0  0  0
 24 25  1  0  0  0  0
 26 25  1  0  0  0  0
 27 26  1  0  0  0  0
 28 27  1  0  0  0  0
M  END
>  <minimizedAffinity>
-5.70861006

$$$$

 OpenBabel03272507063D

 28 31  0  0  0  0  0  0  0  0999 V2000
   35.8680   31.0590   35.6400 C   0  0  0  0  0  0  0  0  0  0  0  0
   35.1840   30.1790   34.8020 C   0  0  0  0  0  0  0  0  0  0  0  0
   33.8160   30.1260   34.8270 C   0  0  0  0  0  0  0  0  0  0  0  0
   33.0820   30.9320   35.6720 C   0  0  0  0  0  0  0  0  0  0  0  0
   31.7490   31.0650   35.8810 N   0  0  0  0  0  0  0  0  0  0  0  0
   31.6740   32.0330   36.8510 C   0  0  0  0  0  0  0  0  0  0  0  0
   32.8970   32.4600   37.2050 N   0  0  0  0  0  0  0  0  0  0  0  0
   33.7910   31.7840   36.4810 C   0  0  0  0  0  0  0  0  0  0  0  0
   35.1630   31.8850   36.5040 C   0  0  0  0  0  0  0  0  0  0  0  0
   36.9500   31.1370   35.6570 H   0  0  0  0  0  0  0  0  0  0  0  0
   33.3180   29.4190   34.1520 H   0  0  0  0  0  0  0  0  0  0  0  0
   30.9710   30.5550   35.4170 H   0  0  0  0  0  0  0  0  0  0  0  0
   30.7040   32.3440   37.2160 H   0  0  0  0  0  0  0  0  0  0  0  0
   35.6720   32.5750   37.1620 H   0  0  0  0  0  0  0  0  0  0  0  0
   36.6730   28.7280   31.7670 C   0  0  0  0  0  0  0  0  0  0  0  0
   37.4370   27.6590   32.2880 C   0  0  0  0  0  0  0  0  0  0  0  0
   37.4180   27.4640   33.6970 C   0  0  0  0  0  0  0  0  0  0  0  0
   36.6670   28.3160   34.4560 N   0  0  0  0  0  0  0  0  0  0  0  0
   35.9490   29.3290   33.9110 C   0  0  0  0  0  0  0  0  0  0  0  0
   35.9600   29.5200   32.5930 N   0  0  0  0  0  0  0  0  0  0  0  0
   36.7070   28.8520   30.7000 H   0  0  0  0  0  0  0  0  0  0  0  0
   38.0300   26.9840   31.7050 H   0  0  0  0  0  0  0  0  0  0  0  0
   38.1960   26.3620   34.3150 C   0  0  0  0  0  3  0  0  0  0  0  0
   37.5450   25.7290   35.4950 C   0  0  0  0  0  2  0  0  0  0  0  0
   38.5880   24.9220   36.2390 C   0  0  0  0  0  2  0  0  0  0  0  0
   39.7400   24.5250   35.3410 C   0  0  0  0  0  2  0  0  0  0  0  0
   40.4730   25.7590   34.8380 C   0  0  0  0  0  2  0  0  0  0  0  0
   39.5280   26.9490   34.7750 C   0  0  0  0  0  2  0  0  0  0  0  0
  1 10  1  0  0  0  0
  1  9  1  0  0  0  0
  2  3  1  0  0  0  0
  2  1  2  0  0  0  0
  3  4  2  0  0  0  0
  4  5  1  0  0  0  0
  4  8  1  0  0  0  0
  5  6  1  0  0  0  0
  6  7  2  0  0  0  0
  6 13  1  0  0  0  0
  8  9  2  0  0  0  0
  8  7  1  0  0  0  0
  9 14  1  0  0  0  0
 11  3  1  0  0  0  0
 12  5  1  0  0  0  0
 15 16  2  0  0  0  0
 15 20  1  0  0  0  0
 16 17  1  0  0  0  0
 17 23  1  0  0  0  0
 17 18  2  0  0  0  0
 19 18  1  0  0  0  0
 19  2  1  0  0  0  0
 20 19  2  0  0  0  0
 21 15  1  0  0  0  0
 22 16  1  0  0  0  0
 23 28  1  0  0  0  0
 23 24  1  0  0  0  0
 24 25  1  0  0  0  0
 26 25  1  0  0  0  0
 27 26  1  0  0  0  0
 28 27  1  0  0  0  0
M  END
>  <minimizedAffinity>
-5.6935215

$$$$

 OpenBabel03272507063D

 28 31  0  0  0  0  0  0  0  0999 V2000
   39.8570   24.3540   33.6280 C   0  0  0  0  0  0  0  0  0  0  0  0
   38.5520   23.9430   33.8960 C   0  0  0  0  0  0  0  0  0  0  0  0
   38.2700   23.2440   35.0390 C   0  0  0  0  0  0  0  0  0  0  0  0
   39.2570   22.9280   35.9490 C   0  0  0  0  0  0  0  0  0  0  0  0
   39.2340   22.2600   37.1280 N   0  0  0  0  0  0  0  0  0  0  0  0
   40.5440   22.2910   37.5360 C   0  0  0  0  0  0  0  0  0  0  0  0
   41.3130   22.9430   36.6500 N   0  0  0  0  0  0  0  0  0  0  0  0
   40.5290   23.3500   35.6500 C   0  0  0  0  0  0  0  0  0  0  0  0
   40.8770   24.0540   34.5210 C   0  0  0  0  0  0  0  0  0  0  0  0
   40.1310   24.9100   32.7370 H   0  0  0  0  0  0  0  0  0  0  0  0
   37.2300   22.9410   35.2100 H   0  0  0  0  0  0  0  0  0  0  0  0
   38.4190   21.8280   37.6080 H   0  0  0  0  0  0  0  0  0  0  0  0
   40.8190   21.8200   38.4710 H   0  0  0  0  0  0  0  0  0  0  0  0
   41.8960   24.3620   34.3340 H   0  0  0  0  0  0  0  0  0  0  0  0
   35.8520   23.6390   31.4160 C   0  0  0  0  0  0  0  0  0  0  0  0
   35.5380   24.9900   31.1450 C   0  0  0  0  0  0  0  0  0  0  0  0
   36.2790   25.9870   31.8370 C   0  0  0  0  0  0  0  0  0  0  0  0
   37.2440   25.5820   32.7160 N   0  0  0  0  0  0  0  0  0  0  0  0
   37.5100   24.2720   32.9440 C   0  0  0  0  0  0  0  0  0  0  0  0
   36.8210   23.3300   32.3010 N   0  0  0  0  0  0  0  0  0  0  0  0
   35.2750   22.9070   30.8790 H   0  0  0  0  0  0  0  0  0  0  0  0
   34.7860   25.3230   30.4590 H   0  0  0  0  0  0  0  0  0  0  0  0
   36.0050   27.4270   31.6030 C   0  0  0  0  0  3  0  0  0  0  0  0
   36.6530   27.9920   30.3870 C   0  0  0  0  0  2  0  0  0  0  0  0
   36.6180   29.5030   30.4860 C   0  0  0  0  0  2  0  0  0  0  0  0
   35.5110   29.9820   31.4010 C   0  0  0  0  0  2  0  0  0  0  0  0
   35.7450   29.4930   32.8210 C   0  0  0  0  0  2  0  0  0  0  0  0
   36.5340   28.1920   32.8130 C   0  0  0  0  0  2  0  0  0  0  0  0
  1  2  2  0  0  0  0
  1  9  1  0  0  0  0
  2  3  1  0  0  0  0
  3 11  1  0  0  0  0
  3  4  2  0  0  0  0
  4  5  1  0  0  0  0
  5  6  1  0  0  0  0
  5 12  1  0  0  0  0
  6 13  1  0  0  0  0
  7  6  2  0  0  0  0
  8  4  1  0  0  0  0
  8  7  1  0  0  0  0
  9  8  2  0  0  0  0
 10  1  1  0  0  0  0
 14  9  1  0  0  0  0
 15 20  1  0  0  0  0
 16 15  2  0  0  0  0
 16 17  1  0  0  0  0
 17 18  2  0  0  0  0
 18 19  1  0  0  0  0
 19  2  1  0  0  0  0
 20 19  2  0  0  0  0
 21 15  1  0  0  0  0
 22 16  1  0  0  0  0
 23 17  1  0  0  0  0
 23 28  1  0  0  0  0
 24 25  1  0  0  0  0
 24 23  1  0  0  0  0
 25 26  1  0  0  0  0
 26 27  1  0  0  0  0
 28 27  1  0  0  0  0
M  END
>  <minimizedAffinity>
-5.65760231

$$$$

 OpenBabel03272507063D

 28 31  0  0  0  0  0  0  0  0999 V2000
   35.4210   25.4200   31.1350 C   0  0  0  0  0  0  0  0  0  0  0  0
   36.2900   26.1960   31.9000 C   0  0  0  0  0  0  0  0  0  0  0  0
   37.2390   25.5990   32.6860 C   0  0  0  0  0  0  0  0  0  0  0  0
   37.3620   24.2270   32.7440 C   0  0  0  0  0  0  0  0  0  0  0  0
   38.2010   23.4110   33.4290 N   0  0  0  0  0  0  0  0  0  0  0  0
   37.8030   22.1540   33.0490 C   0  0  0  0  0  0  0  0  0  0  0  0
   36.7810   22.2100   32.1810 N   0  0  0  0  0  0  0  0  0  0  0  0
   36.4880   23.4960   31.9770 C   0  0  0  0  0  0  0  0  0  0  0  0
   35.5150   24.0350   31.1680 C   0  0  0  0  0  0  0  0  0  0  0  0
   34.6540   25.8460   30.4970 H   0  0  0  0  0  0  0  0  0  0  0  0
   37.9020   26.2480   33.2720 H   0  0  0  0  0  0  0  0  0  0  0  0
   38.9630   23.6760   34.0850 H   0  0  0  0  0  0  0  0  0  0  0  0
   38.3150   21.2910   33.4550 H   0  0  0  0  0  0  0  0  0  0  0  0
   34.8520   23.4130   30.5840 H   0  0  0  0  0  0  0  0  0  0  0  0
   36.1690   29.6540   30.6510 C   0  0  0  0  0  0  0  0  0  0  0  0
   35.9150   30.3920   31.8300 C   0  0  0  0  0  0  0  0  0  0  0  0
   35.7880   29.6630   33.0450 C   0  0  0  0  0  0  0  0  0  0  0  0
   35.9210   28.3040   33.0000 N   0  0  0  0  0  0  0  0  0  0  0  0
   36.1660   27.6390   31.8440 C   0  0  0  0  0  0  0  0  0  0  0  0
   36.2860   28.3120   30.7000 N   0  0  0  0  0  0  0  0  0  0  0  0
   36.2600   30.2310   29.7480 H   0  0  0  0  0  0  0  0  0  0  0  0
   35.8090   31.4570   31.8810 H   0  0  0  0  0  0  0  0  0  0  0  0
   35.5210   30.3710   34.3220 C   0  0  0  0  0  3  0  0  0  0  0  0
   34.1280   30.2270   34.8300 C   0  0  0  0  0  2  0  0  0  0  0  0
   33.8940   31.2860   35.8870 C   0  0  0  0  0  2  0  0  0  0  0  0
   35.1920   31.7580   36.5080 C   0  0  0  0  0  2  0  0  0  0  0  0
   36.0720   32.4240   35.4620 C   0  0  0  0  0  2  0  0  0  0  0  0
   35.7790   31.8550   34.0820 C   0  0  0  0  0  2  0  0  0  0  0  0
  1  9  2  0  0  0  0
  1  2  1  0  0  0  0
  2  3  2  0  0  0  0
  3  4  1  0  0  0  0
  3 11  1  0  0  0  0
  4  5  1  0  0  0  0
  5 12  1  0  0  0  0
  6  5  1  0  0  0  0
  6 13  1  0  0  0  0
  7  6  2  0  0  0  0
  8  7  1  0  0  0  0
  8  4  2  0  0  0  0
  9  8  1  0  0  0  0
 10  1  1  0  0  0  0
 14  9  1  0  0  0  0
 15 20  2  0  0  0  0
 15 16  1  0  0  0  0
 16 22  1  0  0  0  0
 16 17  2  0  0  0  0
 17 23  1  0  0  0  0
 18 17  1  0  0  0  0
 19  2  1  0  0  0  0
 19 18  2  0  0  0  0
 20 19  1  0  0  0  0
 21 15  1  0  0  0  0
 23 24  1  0  0  0  0
 24 25  1  0  0  0  0
 25 26  1  0  0  0  0
 27 26  1  0  0  0  0
 28 23  1  0  0  0  0
 28 27  1  0  0  0  0
M  END
>  <minimizedAffinity>
-5.65005827

$$$$

 OpenBabel03272507063D

 28 31  0  0  0  0  0  0  0  0999 V2000
   33.6160   29.5990   33.8660 C   0  0  0  0  0  0  0  0  0  0  0  0
   34.9490   29.9140   33.6010 C   0  0  0  0  0  0  0  0  0  0  0  0
   35.6430   30.7380   34.4470 C   0  0  0  0  0  0  0  0  0  0  0  0
   35.0530   31.2740   35.5720 C   0  0  0  0  0  0  0  0  0  0  0  0
   35.5160   32.0970   36.5440 N   0  0  0  0  0  0  0  0  0  0  0  0
   34.4330   32.2520   37.3720 C   0  0  0  0  0  0  0  0  0  0  0  0
   33.3750   31.5590   36.9230 N   0  0  0  0  0  0  0  0  0  0  0  0
   33.7400   30.9400   35.7980 C   0  0  0  0  0  0  0  0  0  0  0  0
   32.9890   30.1200   34.9890 C   0  0  0  0  0  0  0  0  0  0  0  0
   33.0240   28.9520   33.2270 H   0  0  0  0  0  0  0  0  0  0  0  0
   36.6890   30.9600   34.2010 H   0  0  0  0  0  0  0  0  0  0  0  0
   36.4660   32.5110   36.6390 H   0  0  0  0  0  0  0  0  0  0  0  0
   34.5240   32.8760   38.2520 H   0  0  0  0  0  0  0  0  0  0  0  0
   31.9570   29.8900   35.2140 H   0  0  0  0  0  0  0  0  0  0  0  0
   36.5940   29.5990   30.3270 C   0  0  0  0  0  0  0  0  0  0  0  0
   36.7590   28.2000   30.2060 C   0  0  0  0  0  0  0  0  0  0  0  0
   36.2910   27.3890   31.2760 C   0  0  0  0  0  0  0  0  0  0  0  0
   35.7120   28.0080   32.3490 N   0  0  0  0  0  0  0  0  0  0  0  0
   35.5750   29.3540   32.4210 C   0  0  0  0  0  0  0  0  0  0  0  0
   36.0110   30.1230   31.4230 N   0  0  0  0  0  0  0  0  0  0  0  0
   36.9580   30.1860   29.5030 H   0  0  0  0  0  0  0  0  0  0  0  0
   37.2100   27.7020   29.3710 H   0  0  0  0  0  0  0  0  0  0  0  0
   36.4300   25.9130   31.2190 C   0  0  0  0  0  3  0  0  0  0  0  0
   35.1530   25.1780   31.0030 C   0  0  0  0  0  2  0  0  0  0  0  0
   35.3760   23.7210   31.3530 C   0  0  0  0  0  2  0  0  0  0  0  0
   36.8370   23.3350   31.2530 C   0  0  0  0  0  2  0  0  0  0  0  0
   37.6650   24.1200   32.2580 C   0  0  0  0  0  2  0  0  0  0  0  0
   37.0090   25.4600   32.5560 C   0  0  0  0  0  2  0  0  0  0  0  0
  1  9  1  0  0  0  0
  2  1  2  0  0  0  0
  2  3  1  0  0  0  0
  3  4  2  0  0  0  0
  4  8  1  0  0  0  0
  4  5  1  0  0  0  0
  5 12  1  0  0  0  0
  5  6  1  0  0  0  0
  6 13  1  0  0  0  0
  7  6  2  0  0  0  0
  8  7  1  0  0  0  0
  9 14  1  0  0  0  0
  9  8  2  0  0  0  0
 10  1  1  0  0  0  0
 11  3  1  0  0  0  0
 15 20  1  0  0  0  0
 16 15  2  0  0  0  0
 16 17  1  0  0  0  0
 17 18  2  0  0  0  0
 18 19  1  0  0  0  0
 19  2  1  0  0  0  0
 20 19  2  0  0  0  0
 21 15  1  0  0  0  0
 22 16  1  0  0  0  0
 23 17  1  0  0  0  0
 23 28  1  0  0  0  0
 24 23  1  0  0  0  0
 24 25  1  0  0  0  0
 26 25  1  0  0  0  0
 26 27  1  0  0  0  0
 27 28  1  0  0  0  0
M  END
>  <minimizedAffinity>
-5.62648106

$$$$

 OpenBabel03272507063D

 28 31  0  0  0  0  0  0  0  0999 V2000
   38.8570   25.8150   33.5660 C   0  0  0  0  0  0  0  0  0  0  0  0
   38.1520   25.8590   34.7680 C   0  0  0  0  0  0  0  0  0  0  0  0
   37.1450   26.7700   34.9440 C   0  0  0  0  0  0  0  0  0  0  0  0
   36.8020   27.6620   33.9490 C   0  0  0  0  0  0  0  0  0  0  0  0
   35.8650   28.6380   33.8790 N   0  0  0  0  0  0  0  0  0  0  0  0
   36.0400   29.1580   32.6210 C   0  0  0  0  0  0  0  0  0  0  0  0
   37.0280   28.5260   31.9690 N   0  0  0  0  0  0  0  0  0  0  0  0
   37.5190   27.5880   32.7810 C   0  0  0  0  0  0  0  0  0  0  0  0
   38.5400   26.6980   32.5430 C   0  0  0  0  0  0  0  0  0  0  0  0
   39.6620   25.1130   33.3790 H   0  0  0  0  0  0  0  0  0  0  0  0
   36.6160   26.7700   35.9050 H   0  0  0  0  0  0  0  0  0  0  0  0
   35.1780   28.9250   34.6060 H   0  0  0  0  0  0  0  0  0  0  0  0
   35.4080   29.9720   32.2910 H   0  0  0  0  0  0  0  0  0  0  0  0
   39.0740   26.6820   31.6020 H   0  0  0  0  0  0  0  0  0  0  0  0
   38.1200   23.9430   37.9080 C   0  0  0  0  0  0  0  0  0  0  0  0
   39.2570   23.1160   37.7680 C   0  0  0  0  0  0  0  0  0  0  0  0
   40.0170   23.2420   36.5720 C   0  0  0  0  0  0  0  0  0  0  0  0
   39.6050   24.1510   35.6380 N   0  0  0  0  0  0  0  0  0  0  0  0
   38.5070   24.9250   35.8180 C   0  0  0  0  0  0  0  0  0  0  0  0
   37.7880   24.8140   36.9340 N   0  0  0  0  0  0  0  0  0  0  0  0
   37.5650   23.8260   38.8220 H   0  0  0  0  0  0  0  0  0  0  0  0
   39.5920   22.3990   38.4910 H   0  0  0  0  0  0  0  0  0  0  0  0
   41.2230   22.4060   36.3550 C   0  0  0  0  0  3  0  0  0  0  0  0
   41.3730   21.2740   37.3110 C   0  0  0  0  0  2  0  0  0  0  0  0
   42.7970   20.7650   37.2280 C   0  0  0  0  0  2  0  0  0  0  0  0
   43.4420   21.1080   35.9020 C   0  0  0  0  0  2  0  0  0  0  0  0
   43.5450   22.6150   35.7330 C   0  0  0  0  0  2  0  0  0  0  0  0
   42.4400   23.3130   36.5110 C   0  0  0  0  0  2  0  0  0  0  0  0
  1  2  1  0  0  0  0
  2  3  2  0  0  0  0
  2 19  1  0  0  0  0
  3 11  1  0  0  0  0
  4  3  1  0  0  0  0
  5  4  1  0  0  0  0
  5 12  1  0  0  0  0
  6  5  1  0  0  0  0
  7  6  2  0  0  0  0
  7  8  1  0  0  0  0
  8  4  2  0  0  0  0
  9  8  1  0  0  0  0
  9  1  2  0  0  0  0
 10  1  1  0  0  0  0
 13  6  1  0  0  0  0
 14  9  1  0  0  0  0
 15 21  1  0  0  0  0
 16 15  1  0  0  0  0
 16 22  1  0  0  0  0
 17 16  2  0  0  0  0
 18 19  2  0  0  0  0
 18 17  1  0  0  0  0
 19 20  1  0  0  0  0
 20 15  2  0  0  0  0
 23 28  1  0  0  0  0
 23 17  1  0  0  0  0
 23 24  1  0  0  0  0
 25 24  1  0  0  0  0
 26 25  1  0  0  0  0
 27 26  1  0  0  0  0
 27 28  1  0  0  0  0
M  END
>  <minimizedAffinity>
-5.60684681

$$$$

 OpenBabel03272507063D

 28 31  0  0  0  0  0  0  0  0999 V2000
   36.8680   26.9230   33.2900 C   0  0  0  0  0  0  0  0  0  0  0  0
   37.1280   25.9430   32.3320 C   0  0  0  0  0  0  0  0  0  0  0  0
   37.2570   26.2860   31.0130 C   0  0  0  0  0  0  0  0  0  0  0  0
   37.1350   27.5940   30.5960 C   0  0  0  0  0  0  0  0  0  0  0  0
   37.2180   28.1770   29.3750 N   0  0  0  0  0  0  0  0  0  0  0  0
   37.0020   29.5060   29.6400 C   0  0  0  0  0  0  0  0  0  0  0  0
   36.8000   29.7110   30.9520 N   0  0  0  0  0  0  0  0  0  0  0  0
   36.8790   28.5300   31.5670 C   0  0  0  0  0  0  0  0  0  0  0  0
   36.7380   28.2510   32.9070 C   0  0  0  0  0  0  0  0  0  0  0  0
   36.7570   26.7020   34.3460 H   0  0  0  0  0  0  0  0  0  0  0  0
   37.4620   25.4830   30.2930 H   0  0  0  0  0  0  0  0  0  0  0  0
   37.4020   27.7240   28.4560 H   0  0  0  0  0  0  0  0  0  0  0  0
   37.0140   30.2180   28.8260 H   0  0  0  0  0  0  0  0  0  0  0  0
   36.5360   29.0280   33.6310 H   0  0  0  0  0  0  0  0  0  0  0  0
   36.8160   22.2820   32.4990 C   0  0  0  0  0  0  0  0  0  0  0  0
   37.5590   21.9680   33.6590 C   0  0  0  0  0  0  0  0  0  0  0  0
   38.1590   23.0470   34.3650 C   0  0  0  0  0  0  0  0  0  0  0  0
   37.9810   24.3140   33.8820 N   0  0  0  0  0  0  0  0  0  0  0  0
   37.2580   24.5660   32.7640 C   0  0  0  0  0  0  0  0  0  0  0  0
   36.6920   23.5620   32.0950 N   0  0  0  0  0  0  0  0  0  0  0  0
   36.3730   21.4470   31.9850 H   0  0  0  0  0  0  0  0  0  0  0  0
   37.7060   20.9820   34.0490 H   0  0  0  0  0  0  0  0  0  0  0  0
   38.9550   22.7940   35.5920 C   0  0  0  0  0  3  0  0  0  0  0  0
   38.2350   23.0720   36.8660 C   0  0  0  0  0  2  0  0  0  0  0  0
   39.2550   23.1520   37.9830 C   0  0  0  0  0  2  0  0  0  0  0  0
   40.5250   22.4030   37.6400 C   0  0  0  0  0  2  0  0  0  0  0  0
   41.2040   23.0300   36.4320 C   0  0  0  0  0  2  0  0  0  0  0  0
   40.1760   23.7070   35.5370 C   0  0  0  0  0  2  0  0  0  0  0  0
  1 10  1  0  0  0  0
  2 19  1  0  0  0  0
  2  1  2  0  0  0  0
  3  2  1  0  0  0  0
  4  3  2  0  0  0  0
  4  8  1  0  0  0  0
  5  6  1  0  0  0  0
  5  4  1  0  0  0  0
  6  7  2  0  0  0  0
  7  8  1  0  0  0  0
  8  9  2  0  0  0  0
  9  1  1  0  0  0  0
  9 14  1  0  0  0  0
 11  3  1  0  0  0  0
 12  5  1  0  0  0  0
 13  6  1  0  0  0  0
 15 16  1  0  0  0  0
 16 22  1  0  0  0  0
 16 17  2  0  0  0  0
 17 23  1  0  0  0  0
 18 17  1  0  0  0  0
 19 18  2  0  0  0  0
 20 15  2  0  0  0  0
 20 19  1  0  0  0  0
 21 15  1  0  0  0  0
 23 24  1  0  0  0  0
 24 25  1  0  0  0  0
 26 25  1  0  0  0  0
 27 26  1  0  0  0  0
 28 23  1  0  0  0  0
 28 27  1  0  0  0  0
M  END
>  <minimizedAffinity>
-5.5947032

$$$$
