
 OpenBabel03272507343D

 33 36  0  0  1  0  0  0  0  0999 V2000
   35.8470   29.2420   49.8070 C   0  0  0  0  0  0  0  0  0  0  0  0
   34.7560   29.6540   50.5370 C   0  0  0  0  0  0  0  0  0  0  0  0
   33.6250   29.0230   49.9960 C   0  0  0  0  0  0  0  0  0  0  0  0
   34.1090   28.2570   48.9580 C   0  0  0  0  0  0  0  0  0  0  0  0
   35.4130   28.4170   48.8840 O   0  0  0  0  0  0  0  0  0  0  0  0
   34.6810   30.3320   51.3830 H   0  0  0  0  0  0  0  0  0  0  0  0
   32.5930   29.0850   50.2840 H   0  0  0  0  0  0  0  0  0  0  0  0
   37.1930   29.7040   50.0970 C   0  0  0  0  0  0  0  0  0  0  0  0
   37.7810   29.2730   51.1010 O   0  0  0  0  0  0  0  0  0  0  0  0
   37.7680   30.6500   49.1830 C   0  0  0  0  0  0  0  0  0  0  0  0
   38.1300   31.8830   49.6890 C   0  0  0  0  0  0  0  0  0  0  0  0
   38.6900   32.8270   48.8300 C   0  0  0  0  0  0  0  0  0  0  0  0
   38.8570   32.4800   47.5050 N   0  0  0  0  0  0  0  0  0  0  0  0
   38.4940   31.2750   47.0510 C   0  0  0  0  0  0  0  0  0  0  0  0
   37.9560   30.3650   47.8750 N   0  0  0  0  0  0  0  0  0  0  0  0
   38.0140   32.1960   50.7320 H   0  0  0  0  0  0  0  0  0  0  0  0
   38.9940   33.8030   49.1470 H   0  0  0  0  0  0  0  0  0  0  0  0
   38.6810   31.1310   45.9870 H   0  0  0  0  0  0  0  0  0  0  0  0
   33.3110   27.4020   48.0790 C   0  0  0  0  0  0  0  0  0  0  0  0
   32.0420   27.4120   48.2200 O   0  0  0  0  0  0  0  0  0  0  0  0
   33.9780   26.5340   47.0510 C   0  0  1  0  0  0  0  0  0  0  0  0
   33.7350   25.0130   47.4110 C   0  0  0  0  0  0  0  0  0  0  0  0
   33.1780   25.6650   46.2020 C   0  0  2  0  0  0  0  0  0  0  0  0
   35.0750   26.7020   47.0300 H   0  0  0  0  0  0  0  0  0  0  0  0
   33.0720   24.7960   48.2470 H   0  0  0  0  0  0  0  0  0  0  0  0
   34.6070   24.3640   47.3620 H   0  0  0  0  0  0  0  0  0  0  0  0
   32.0690   25.8850   46.2620 H   0  0  0  0  0  0  0  0  0  0  0  0
   33.6090   25.0960   44.9090 C   0  0  0  0  0  3  0  0  0  0  0  0
   33.6680   26.0250   43.7360 C   0  0  0  0  0  2  0  0  0  0  0  0
   35.0120   26.6410   43.4990 C   0  0  0  0  0  2  0  0  0  0  0  0
   36.0910   25.6130   43.2450 C   0  0  0  0  0  2  0  0  0  0  0  0
   35.7520   24.2750   43.8550 C   0  0  0  0  0  2  0  0  0  0  0  0
   34.9830   24.4890   45.1160 C   0  0  0  0  0  2  0  0  0  0  0  0
  1  8  1  0  0  0  0
  1  2  2  0  0  0  0
  2  6  1  0  0  0  0
  3  7  1  0  0  0  0
  3  2  1  0  0  0  0
  4  3  2  0  0  0  0
  5  4  1  0  0  0  0
  5  1  1  0  0  0  0
  8  9  2  0  0  0  0
 10 11  1  0  0  0  0
 10  8  1  0  0  0  0
 11 16  1  0  0  0  0
 12 17  1  0  0  0  0
 12 11  2  0  0  0  0
 13 12  1  0  0  0  0
 14 13  2  0  0  0  0
 14 15  1  0  0  0  0
 15 10  2  0  0  0  0
 18 14  1  0  0  0  0
 19 20  2  0  0  0  0
 19  4  1  0  0  0  0
 21 24  1  6  0  0  0
 21 22  1  0  0  0  0
 21 19  1  0  0  0  0
 22 25  1  0  0  0  0
 23 27  1  1  0  0  0
 23 21  1  0  0  0  0
 23 22  1  0  0  0  0
 26 22  1  0  0  0  0
 28 33  1  0  0  0  0
 28 23  1  0  0  0  0
 29 28  1  0  0  0  0
 30 29  1  0  0  0  0
 31 30  1  0  0  0  0
 31 32  1  0  0  0  0
 32 33  1  0  0  0  0
M  END
>  <minimizedAffinity>
-5.21602869

>  <minimizedRMSD>
1.85955417

$$$$
