
 OpenBabel03262523383D

 42 45  0  0  1  0  0  0  0  0999 V2000
   35.2860   30.1530   49.6320 C   0  0  2  0  0  0  0  0  0  0  0  0
   36.1810   31.0620   48.8680 C   0  0  0  0  0  0  0  0  0  0  0  0
   37.6450   30.6240   48.8970 C   0  0  2  0  0  0  0  0  0  0  0  0
   38.1190   30.6780   50.3250 C   0  0  0  0  0  0  0  0  0  0  0  0
   37.1830   29.9360   51.2650 C   0  0  0  0  0  0  0  0  0  0  0  0
   36.0900   29.2200   50.5150 C   0  0  0  0  0  0  0  0  0  0  0  0
   34.6000   30.6820   50.3560 H   0  0  0  0  0  0  0  0  0  0  0  0
   36.2130   32.0190   49.5040 H   0  0  0  0  0  0  0  0  0  0  0  0
   35.9490   31.3960   47.8980 H   0  0  0  0  0  0  0  0  0  0  0  0
   37.6390   29.5570   48.5970 H   0  0  0  0  0  0  0  0  0  0  0  0
   38.0490   31.7640   50.6180 H   0  0  0  0  0  0  0  0  0  0  0  0
   39.1620   30.3960   50.4460 H   0  0  0  0  0  0  0  0  0  0  0  0
   36.7000   30.6020   52.0100 H   0  0  0  0  0  0  0  0  0  0  0  0
   37.7940   29.1980   51.7970 H   0  0  0  0  0  0  0  0  0  0  0  0
   35.4450   28.7370   51.2680 H   0  0  0  0  0  0  0  0  0  0  0  0
   36.5220   28.4290   49.8840 H   0  0  0  0  0  0  0  0  0  0  0  0
   38.4740   31.3550   47.9330 C   0  0  2  0  0  0  0  0  0  0  0  0
   38.9510   32.7240   48.3530 C   0  0  0  0  0  0  0  0  0  0  0  0
   39.5320   33.1600   46.9940 C   0  0  0  0  0  0  0  0  0  0  0  0
   38.6180   32.7180   46.0660 O   0  0  0  0  0  0  0  0  0  0  0  0
   37.8700   31.6770   46.6160 C   0  0  1  0  0  0  0  0  0  0  0  0
   39.4020   30.7860   47.7490 H   0  0  0  0  0  0  0  0  0  0  0  0
   38.1170   33.3820   48.6670 H   0  0  0  0  0  0  0  0  0  0  0  0
   39.7400   32.6310   49.1010 H   0  0  0  0  0  0  0  0  0  0  0  0
   40.4750   32.6210   46.8480 H   0  0  0  0  0  0  0  0  0  0  0  0
   39.6610   34.2530   46.9420 H   0  0  0  0  0  0  0  0  0  0  0  0
   36.8450   32.0710   46.6230 H   0  0  0  0  0  0  0  0  0  0  0  0
   37.8590   30.5750   45.6020 C   0  0  0  0  0  0  0  0  0  0  0  0
   36.6970   30.8110   44.6740 C   0  0  0  0  0  0  0  0  0  0  0  0
   36.7790   30.0960   43.3680 C   0  0  0  0  0  0  0  0  0  0  0  0
   37.6750   28.8930   43.3680 C   0  0  0  0  0  0  0  0  0  0  0  0
   39.0020   29.1230   44.0260 C   0  0  0  0  0  0  0  0  0  0  0  0
   39.0900   30.4230   44.7770 C   0  0  0  0  0  0  0  0  0  0  0  0
   34.4410   29.3110   48.7580 C   0  0  0  0  0  0  0  0  0  0  0  0
   34.5210   29.5840   47.3920 C   0  0  0  0  0  0  0  0  0  0  0  0
   33.7700   28.8190   46.5250 C   0  0  0  0  0  0  0  0  0  0  0  0
   32.9670   27.8100   47.0460 N   0  0  0  0  0  0  0  0  0  0  0  0
   32.9190   27.5790   48.3880 C   0  0  0  0  0  0  0  0  0  0  0  0
   33.6500   28.3270   49.2040 N   0  0  0  0  0  0  0  0  0  0  0  0
   35.0320   30.2730   46.7430 H   0  0  0  0  0  0  0  0  0  0  0  0
   33.6440   28.8090   45.4710 H   0  0  0  0  0  0  0  0  0  0  0  0
   32.2980   26.7980   48.8010 H   0  0  0  0  0  0  0  0  0  0  0  0
  1  7  1  1  0  0  0
  1  6  1  0  0  0  0
  2  3  1  0  0  0  0
  2  8  1  0  0  0  0
  2  1  1  0  0  0  0
  3 10  1  6  0  0  0
  3  4  1  0  0  0  0
  4 12  1  0  0  0  0
  4 11  1  0  0  0  0
  4  5  1  0  0  0  0
  5 14  1  0  0  0  0
  5 13  1  0  0  0  0
  6  5  1  0  0  0  0
  6 15  1  0  0  0  0
  9  2  1  0  0  0  0
 16  6  1  0  0  0  0
 17 22  1  6  0  0  0
 17 18  1  0  0  0  0
 17  3  1  0  0  0  0
 18 23  1  0  0  0  0
 18 24  1  0  0  0  0
 19 18  1  0  0  0  0
 20 21  1  0  0  0  0
 20 19  1  0  0  0  0
 21 27  1  1  0  0  0
 21 17  1  0  0  0  0
 25 19  1  0  0  0  0
 26 19  1  0  0  0  0
 28 21  1  0  0  0  0
 29 28  1  0  0  0  0
 30 31  1  0  0  0  0
 30 29  1  0  0  0  0
 31 32  1  0  0  0  0
 32 33  1  0  0  0  0
 33 28  1  0  0  0  0
 34 39  1  0  0  0  0
 34  1  1  0  0  0  0
 35 34  2  0  0  0  0
 36 37  2  0  0  0  0
 36 35  1  0  0  0  0
 37 38  1  0  0  0  0
 38 42  1  0  0  0  0
 38 39  2  0  0  0  0
 40 35  1  0  0  0  0
 41 36  1  0  0  0  0
M  END
>  <minimizedAffinity>
-6.93920231

>  <minimizedRMSD>
1.19616055

$$$$
