
 OpenBabel03272505043D

 42 45  0  0  1  0  0  0  0  0999 V2000
   38.5400   32.7020   43.5100 C   0  0  2  0  0  0  0  0  0  0  0  0
   37.0420   32.7320   43.0610 C   0  0  0  0  0  0  0  0  0  0  0  0
   36.8010   31.4840   42.2490 C   0  0  0  0  0  0  0  0  0  0  0  0
   37.4220   31.6700   40.8920 C   0  0  0  0  0  0  0  0  0  0  0  0
   38.5420   32.6360   41.0060 C   0  0  0  0  0  0  0  0  0  0  0  0
   39.3220   32.4560   42.2950 C   0  0  2  0  0  0  0  0  0  0  0  0
   38.6260   33.7070   43.9940 H   0  0  0  0  0  0  0  0  0  0  0  0
   36.3850   32.6620   43.9720 H   0  0  0  0  0  0  0  0  0  0  0  0
   36.8450   33.6480   42.5020 H   0  0  0  0  0  0  0  0  0  0  0  0
   37.4510   30.6250   42.6010 H   0  0  0  0  0  0  0  0  0  0  0  0
   35.7390   31.2180   42.2020 H   0  0  0  0  0  0  0  0  0  0  0  0
   37.6970   30.7380   40.3730 H   0  0  0  0  0  0  0  0  0  0  0  0
   36.6180   32.1340   40.2490 H   0  0  0  0  0  0  0  0  0  0  0  0
   39.1990   32.5070   40.1450 H   0  0  0  0  0  0  0  0  0  0  0  0
   38.1270   33.6640   40.9220 H   0  0  0  0  0  0  0  0  0  0  0  0
   40.0230   33.3620   42.2460 H   0  0  0  0  0  0  0  0  0  0  0  0
   40.2180   31.2970   42.1710 C   0  0  0  0  0  0  0  0  0  0  0  0
   40.5120   30.8410   40.7660 C   0  0  0  0  0  0  0  0  0  0  0  0
   41.6460   29.7990   40.8050 C   0  0  0  0  0  0  0  0  0  0  0  0
   41.4210   28.8300   41.9450 C   0  0  0  0  0  0  0  0  0  0  0  0
   39.9450   28.7840   42.1740 C   0  0  0  0  0  0  0  0  0  0  0  0
   39.5300   30.0900   42.8210 C   0  0  0  0  0  0  0  0  0  0  0  0
   38.6080   31.7090   44.4170 O   0  0  0  0  0  0  0  0  0  0  0  0
   36.4650   29.9700   45.3200 Cl  0  0  0  0  0  0  0  0  0  0  0  0
   37.4220   30.9900   46.3630 C   0  0  0  0  0  0  0  0  0  0  0  0
   37.1350   30.9640   47.6950 C   0  0  0  0  0  0  0  0  0  0  0  0
   37.9180   31.7980   48.4980 C   0  0  0  0  0  0  0  0  0  0  0  0
   38.9100   32.5790   47.9220 C   0  0  0  0  0  0  0  0  0  0  0  0
   39.1560   32.5650   46.5690 C   0  0  0  0  0  0  0  0  0  0  0  0
   38.3950   31.7530   45.7820 C   0  0  0  0  0  0  0  0  0  0  0  0
   37.7160   31.8020   49.5620 H   0  0  0  0  0  0  0  0  0  0  0  0
   39.4740   33.1990   48.6100 H   0  0  0  0  0  0  0  0  0  0  0  0
   39.9270   33.1740   46.1340 H   0  0  0  0  0  0  0  0  0  0  0  0
   36.3940   29.2260   49.3320 C   0  0  0  0  0  0  0  0  0  0  0  0
   36.0950   30.1510   48.3210 C   0  0  0  0  0  0  0  0  0  0  0  0
   34.7680   30.2760   47.9230 C   0  0  0  0  0  0  0  0  0  0  0  0
   33.8370   29.5030   48.5290 N   0  0  0  0  0  0  0  0  0  0  0  0
   34.1480   28.6280   49.4910 C   0  0  0  0  0  0  0  0  0  0  0  0
   35.4200   28.4850   49.8960 N   0  0  0  0  0  0  0  0  0  0  0  0
   37.4270   29.1810   49.5870 H   0  0  0  0  0  0  0  0  0  0  0  0
   34.4850   30.9700   47.1530 H   0  0  0  0  0  0  0  0  0  0  0  0
   33.4500   27.9880   50.0080 H   0  0  0  0  0  0  0  0  0  0  0  0
  1  7  1  1  0  0  0
  1 23  1  0  0  0  0
  2  1  1  0  0  0  0
  2  8  1  0  0  0  0
  3 10  1  0  0  0  0
  3  2  1  0  0  0  0
  4  5  1  0  0  0  0
  4  3  1  0  0  0  0
  5  6  1  0  0  0  0
  6 16  1  6  0  0  0
  6  1  1  0  0  0  0
  9  2  1  0  0  0  0
 11  3  1  0  0  0  0
 12  4  1  0  0  0  0
 13  4  1  0  0  0  0
 14  5  1  0  0  0  0
 15  5  1  0  0  0  0
 17  6  1  0  0  0  0
 17 22  1  0  0  0  0
 18 19  1  0  0  0  0
 18 17  1  0  0  0  0
 19 20  1  0  0  0  0
 20 21  1  0  0  0  0
 21 22  1  0  0  0  0
 23 30  1  0  0  0  0
 24 25  1  0  0  0  0
 25 26  1  0  0  0  0
 26 35  1  0  0  0  0
 26 27  2  0  0  0  0
 27 31  1  0  0  0  0
 28 27  1  0  0  0  0
 28 32  1  0  0  0  0
 29 28  2  0  0  0  0
 30 25  2  0  0  0  0
 30 29  1  0  0  0  0
 33 29  1  0  0  0  0
 34 40  1  0  0  0  0
 34 39  1  0  0  0  0
 35 34  2  0  0  0  0
 36 35  1  0  0  0  0
 36 37  2  0  0  0  0
 37 38  1  0  0  0  0
 38 39  2  0  0  0  0
 38 42  1  0  0  0  0
 41 36  1  0  0  0  0
M  END
>  <minimizedAffinity>
-5.99546242

>  <minimizedRMSD>
2.22028399

$$$$
