
 OpenBabel03272508063D

 32 35  0  0  0  0  0  0  0  0999 V2000
   38.8910   30.8840   45.7680 C   0  0  0  0  0  0  0  0  0  0  0  0
   40.1250   31.4370   46.0570 C   0  0  0  0  0  0  0  0  0  0  0  0
   40.9530   31.4140   44.9280 C   0  0  0  0  0  0  0  0  0  0  0  0
   40.1720   30.8420   43.9980 N   0  0  0  0  0  0  0  0  0  0  0  0
   38.9720   30.5310   44.4820 N   0  0  0  0  0  0  0  0  0  0  0  0
   40.4530   31.8460   47.0170 H   0  0  0  0  0  0  0  0  0  0  0  0
   41.9590   31.7480   44.7740 H   0  0  0  0  0  0  0  0  0  0  0  0
   37.7780   30.7380   46.6870 C   0  0  0  0  0  0  0  0  0  0  0  0
   38.0000   30.9610   48.0610 C   0  0  0  0  0  0  0  0  0  0  0  0
   36.9200   30.8180   48.9260 C   0  0  0  0  0  0  0  0  0  0  0  0
   35.7080   30.4690   48.3950 N   0  0  0  0  0  0  0  0  0  0  0  0
   35.5190   30.2600   47.0690 C   0  0  0  0  0  0  0  0  0  0  0  0
   36.5640   30.3980   46.2270 N   0  0  0  0  0  0  0  0  0  0  0  0
   38.9690   31.2350   48.4520 H   0  0  0  0  0  0  0  0  0  0  0  0
   34.5360   29.9880   46.7180 H   0  0  0  0  0  0  0  0  0  0  0  0
   37.1220   31.0450   50.3790 C   0  0  0  0  0  0  0  0  0  0  0  0
   36.6050   32.2900   50.6400 F   0  0  0  0  0  0  0  0  0  0  0  0
   36.4590   30.1070   51.1690 F   0  0  0  0  0  0  0  0  0  0  0  0
   38.4740   31.0600   50.7130 F   0  0  0  0  0  0  0  0  0  0  0  0
   40.4860   30.5450   42.5950 C   0  0  0  0  0  0  0  0  0  0  0  0
   40.0020   31.3430   41.5450 C   0  0  0  0  0  0  0  0  0  0  0  0
   40.3070   31.0330   40.2800 C   0  0  0  0  0  0  0  0  0  0  0  0
   41.1240   29.8920   40.0130 C   0  0  0  0  0  0  0  0  0  0  0  0
   41.4480   29.2570   41.7370 S   0  0  0  0  0  0  0  0  0  0  0  0
   39.3760   32.2190   41.7260 H   0  0  0  0  0  0  0  0  0  0  0  0
   40.0220   31.5310   39.3650 H   0  0  0  0  0  0  0  0  0  0  0  0
   41.6380   29.2730   38.8560 C   0  0  0  0  0  3  0  0  0  0  0  0
   42.1480   27.9180   39.2210 C   0  0  0  0  0  2  0  0  0  0  0  0
   41.2060   26.8170   38.7260 C   0  0  0  0  0  2  0  0  0  0  0  0
   41.3020   26.8630   37.1980 C   0  0  0  0  0  2  0  0  0  0  0  0
   40.9230   28.2330   36.6850 C   0  0  0  0  0  2  0  0  0  0  0  0
   40.5630   29.1830   37.7970 C   0  0  0  0  0  2  0  0  0  0  0  0
  1  2  1  0  0  0  0
  1  8  1  0  0  0  0
  2  6  1  0  0  0  0
  3  2  2  0  0  0  0
  4  5  1  0  0  0  0
  4  3  1  0  0  0  0
  5  1  2  0  0  0  0
  7  3  1  0  0  0  0
  8  9  1  0  0  0  0
  9 14  1  0  0  0  0
  9 10  2  0  0  0  0
 10 16  1  0  0  0  0
 11 10  1  0  0  0  0
 12 11  2  0  0  0  0
 13  8  2  0  0  0  0
 13 12  1  0  0  0  0
 15 12  1  0  0  0  0
 16 17  1  0  0  0  0
 16 19  1  0  0  0  0
 16 18  1  0  0  0  0
 20  4  1  0  0  0  0
 21 25  1  0  0  0  0
 21 20  2  0  0  0  0
 22 21  1  0  0  0  0
 23 22  2  0  0  0  0
 23 24  1  0  0  0  0
 24 20  1  0  0  0  0
 26 22  1  0  0  0  0
 27 28  1  0  0  0  0
 27 23  1  0  0  0  0
 29 28  1  0  0  0  0
 30 29  1  0  0  0  0
 31 30  1  0  0  0  0
 31 32  1  0  0  0  0
 32 27  1  0  0  0  0
M  END
>  <minimizedAffinity>
-6.07305765

>  <minimizedRMSD>
0.679574132

$$$$
