
 OpenBabel03272505383D

 28 30  0  0  0  0  0  0  0  0999 V2000
   36.2870   30.4610   46.6710 C   0  0  0  0  0  0  0  0  0  0  0  0
   34.9620   30.0410   46.6740 C   0  0  0  0  0  0  0  0  0  0  0  0
   34.2820   29.7980   45.5080 C   0  0  0  0  0  0  0  0  0  0  0  0
   34.9070   29.9670   44.2640 C   0  0  0  0  0  0  0  0  0  0  0  0
   36.2140   30.3820   44.2460 C   0  0  0  0  0  0  0  0  0  0  0  0
   36.8660   30.6160   45.4420 C   0  0  0  0  0  0  0  0  0  0  0  0
   34.4960   29.9140   47.6620 H   0  0  0  0  0  0  0  0  0  0  0  0
   33.2600   29.4750   45.6510 H   0  0  0  0  0  0  0  0  0  0  0  0
   34.2650   29.7460   43.4490 H   0  0  0  0  0  0  0  0  0  0  0  0
   36.6100   30.4860   43.2590 H   0  0  0  0  0  0  0  0  0  0  0  0
   37.3910   30.2630   50.1440 C   0  0  0  0  0  0  0  0  0  0  0  0
   38.2250   31.3750   50.2730 C   0  0  0  0  0  0  0  0  0  0  0  0
   38.4060   32.1810   49.1390 C   0  0  0  0  0  0  0  0  0  0  0  0
   37.7520   31.8100   48.0120 N   0  0  0  0  0  0  0  0  0  0  0  0
   36.9580   30.7370   47.9230 C   0  0  0  0  0  0  0  0  0  0  0  0
   36.7800   29.9660   48.9920 N   0  0  0  0  0  0  0  0  0  0  0  0
   38.7270   31.6290   51.2020 H   0  0  0  0  0  0  0  0  0  0  0  0
   39.0440   33.0580   49.1860 H   0  0  0  0  0  0  0  0  0  0  0  0
   37.1900   29.4030   51.3740 C   0  0  0  0  0  0  0  0  0  0  0  0
   35.8250   29.1430   51.5270 F   0  0  0  0  0  0  0  0  0  0  0  0
   37.9180   28.2800   51.2220 F   0  0  0  0  0  0  0  0  0  0  0  0
   37.5670   30.1410   52.4750 F   0  0  0  0  0  0  0  0  0  0  0  0
   38.2720   31.0630   45.2410 C   0  0  0  0  0  0  0  0  0  0  0  0
   38.2140   32.2220   44.2970 C   0  0  0  0  0  0  0  0  0  0  0  0
   39.4800   32.5350   43.5630 C   0  0  0  0  0  0  0  0  0  0  0  0
   40.5080   31.4300   43.5870 C   0  0  0  0  0  0  0  0  0  0  0  0
   39.6740   30.1600   43.3690 C   0  0  0  0  0  0  0  0  0  0  0  0
   39.0220   29.8720   44.6760 C   0  0  0  0  0  0  0  0  0  0  0  0
  1  2  1  0  0  0  0
  1 15  1  0  0  0  0
  2  7  1  0  0  0  0
  3  8  1  0  0  0  0
  3  2  2  0  0  0  0
  4  3  1  0  0  0  0
  5  4  2  0  0  0  0
  5  6  1  0  0  0  0
  6  1  2  0  0  0  0
  9  4  1  0  0  0  0
 10  5  1  0  0  0  0
 11 12  1  0  0  0  0
 11 19  1  0  0  0  0
 12 17  1  0  0  0  0
 13 18  1  0  0  0  0
 13 12  2  0  0  0  0
 14 13  1  0  0  0  0
 15 14  2  0  0  0  0
 15 16  1  0  0  0  0
 16 11  2  0  0  0  0
 19 20  1  0  0  0  0
 19 22  1  0  0  0  0
 21 19  1  0  0  0  0
 23  6  1  0  0  0  0
 24 23  1  0  0  0  0
 25 26  1  0  0  0  0
 25 24  1  0  0  0  0
 27 26  1  0  0  0  0
 27 28  1  0  0  0  0
 28 23  1  0  0  0  0
M  END
>  <minimizedAffinity>
-6.66028547

>  <minimizedRMSD>
0.963429749

$$$$
