
 OpenBabel03272510343D

 25 27  0  0  0  0  0  0  0  0999 V2000
   35.8380   30.0930   47.2580 C   0  0  0  0  0  0  0  0  0  0  0  0
   35.2870   30.2650   45.9980 C   0  0  0  0  0  0  0  0  0  0  0  0
   34.2490   29.4330   45.5800 C   0  0  0  0  0  0  0  0  0  0  0  0
   33.7980   28.4590   46.4330 C   0  0  0  0  0  0  0  0  0  0  0  0
   34.3510   28.2850   47.7030 C   0  0  0  0  0  0  0  0  0  0  0  0
   35.3800   29.1100   48.1160 C   0  0  0  0  0  0  0  0  0  0  0  0
   35.6060   31.0140   45.2890 H   0  0  0  0  0  0  0  0  0  0  0  0
   33.8130   29.5600   44.5960 H   0  0  0  0  0  0  0  0  0  0  0  0
   32.9900   27.8420   46.0570 H   0  0  0  0  0  0  0  0  0  0  0  0
   33.9070   27.5000   48.2560 H   0  0  0  0  0  0  0  0  0  0  0  0
   37.6880   32.6720   49.0510 C   0  0  0  0  0  0  0  0  0  0  0  0
   38.9030   32.7690   48.3790 C   0  0  0  0  0  0  0  0  0  0  0  0
   39.0840   31.9160   47.2770 C   0  0  0  0  0  0  0  0  0  0  0  0
   38.0920   31.0600   46.9270 N   0  0  0  0  0  0  0  0  0  0  0  0
   36.9190   30.9980   47.6100 C   0  0  0  0  0  0  0  0  0  0  0  0
   36.7540   31.8140   48.6600 N   0  0  0  0  0  0  0  0  0  0  0  0
   37.5980   33.3540   49.8960 H   0  0  0  0  0  0  0  0  0  0  0  0
   39.7410   33.4000   48.5700 H   0  0  0  0  0  0  0  0  0  0  0  0
   39.9590   31.8550   46.6440 H   0  0  0  0  0  0  0  0  0  0  0  0
   35.9430   28.9150   49.4660 C   0  0  0  0  0  3  0  0  0  0  0  0
   37.3980   29.2200   49.5650 C   0  0  0  0  0  2  0  0  0  0  0  0
   37.8380   28.7940   50.9710 C   0  0  0  0  0  2  0  0  0  0  0  0
   37.1890   29.7990   51.9010 C   0  0  0  0  0  2  0  0  0  0  0  0
   35.7150   29.6070   51.8670 C   0  0  0  0  0  2  0  0  0  0  0  0
   35.1050   29.6280   50.4900 C   0  0  0  0  0  2  0  0  0  0  0  0
  1 15  1  0  0  0  0
  1  6  1  0  0  0  0
  2  1  2  0  0  0  0
  3  2  1  0  0  0  0
  3  4  2  0  0  0  0
  4  5  1  0  0  0  0
  5  6  2  0  0  0  0
  5 10  1  0  0  0  0
  6 20  1  0  0  0  0
  7  2  1  0  0  0  0
  8  3  1  0  0  0  0
  9  4  1  0  0  0  0
 11 17  1  0  0  0  0
 12 18  1  0  0  0  0
 12 11  2  0  0  0  0
 13 12  1  0  0  0  0
 14 13  2  0  0  0  0
 14 15  1  0  0  0  0
 15 16  2  0  0  0  0
 16 11  1  0  0  0  0
 19 13  1  0  0  0  0
 20 21  1  0  0  0  0
 20 25  1  0  0  0  0
 21 22  1  0  0  0  0
 22 23  1  0  0  0  0
 24 23  1  0  0  0  0
 25 24  1  0  0  0  0
M  END
>  <minimizedAffinity>
-4.86789465

>  <minimizedRMSD>
1.61307478

$$$$
