
 OpenBabel03272506313D

 31 33  0  0  1  0  0  0  0  0999 V2000
   38.3040   24.8560   33.4290 C   0  0  1  0  0  0  0  0  0  0  0  0
   39.5860   25.3480   32.8870 C   0  0  0  0  0  0  0  0  0  0  0  0
   39.9600   26.7700   33.1990 C   0  0  0  0  0  0  0  0  0  0  0  0
   39.6140   27.1980   34.5750 C   0  0  0  0  0  0  0  0  0  0  0  0
   38.3270   26.7380   35.1120 C   0  0  0  0  0  0  0  0  0  0  0  0
   38.0430   25.2860   34.8240 C   0  0  2  0  0  0  0  0  0  0  0  0
   38.4040   23.7280   33.4850 H   0  0  0  0  0  0  0  0  0  0  0  0
   40.3880   24.7630   33.4500 H   0  0  0  0  0  0  0  0  0  0  0  0
   39.8140   25.1490   31.8580 H   0  0  0  0  0  0  0  0  0  0  0  0
   39.4030   27.4190   32.4870 H   0  0  0  0  0  0  0  0  0  0  0  0
   41.0290   26.9070   33.0010 H   0  0  0  0  0  0  0  0  0  0  0  0
   39.6220   28.3170   34.6210 H   0  0  0  0  0  0  0  0  0  0  0  0
   40.4290   26.8780   35.2660 H   0  0  0  0  0  0  0  0  0  0  0  0
   38.2430   26.9110   36.1840 H   0  0  0  0  0  0  0  0  0  0  0  0
   37.5190   27.3720   34.6470 H   0  0  0  0  0  0  0  0  0  0  0  0
   36.9800   25.1790   35.0670 H   0  0  0  0  0  0  0  0  0  0  0  0
   36.5950   26.2810   32.1630 C   0  0  0  0  0  0  0  0  0  0  0  0
   37.1360   25.0240   32.5220 C   0  0  0  0  0  0  0  0  0  0  0  0
   36.5270   23.9060   31.9910 C   0  0  0  0  0  0  0  0  0  0  0  0
   35.4580   24.0450   31.1680 N   0  0  0  0  0  0  0  0  0  0  0  0
   34.9700   25.2730   30.8480 C   0  0  0  0  0  0  0  0  0  0  0  0
   35.5480   26.3920   31.3540 N   0  0  0  0  0  0  0  0  0  0  0  0
   37.0460   27.1750   32.5600 H   0  0  0  0  0  0  0  0  0  0  0  0
   36.7510   22.8640   32.0990 H   0  0  0  0  0  0  0  0  0  0  0  0
   34.1170   25.4100   30.1930 H   0  0  0  0  0  0  0  0  0  0  0  0
   38.7650   24.4720   35.8760 C   0  0  0  0  0  3  0  0  0  0  0  0
   38.0750   24.6840   37.2260 C   0  0  0  0  0  2  0  0  0  0  0  0
   38.1420   23.4490   38.1010 C   0  0  0  0  0  2  0  0  0  0  0  0
   39.5370   22.9110   38.0670 C   0  0  0  0  0  2  0  0  0  0  0  0
   39.8050   22.4380   36.6690 C   0  0  0  0  0  2  0  0  0  0  0  0
   38.7920   23.0050   35.6570 C   0  0  0  0  0  2  0  0  0  0  0  0
  1  7  1  1  0  0  0
  1  6  1  0  0  0  0
  2  3  1  0  0  0  0
  2  1  1  0  0  0  0
  2  8  1  0  0  0  0
  3  4  1  0  0  0  0
  4 12  1  0  0  0  0
  4  5  1  0  0  0  0
  4 13  1  0  0  0  0
  5 14  1  0  0  0  0
  6 16  1  1  0  0  0
  6  5  1  0  0  0  0
  6 26  1  0  0  0  0
  9  2  1  0  0  0  0
 10  3  1  0  0  0  0
 11  3  1  0  0  0  0
 15  5  1  0  0  0  0
 17 18  1  0  0  0  0
 17 23  1  0  0  0  0
 18  1  1  0  0  0  0
 19 24  1  0  0  0  0
 19 18  2  0  0  0  0
 20 19  1  0  0  0  0
 21 20  2  0  0  0  0
 21 22  1  0  0  0  0
 22 17  2  0  0  0  0
 25 21  1  0  0  0  0
 26 27  1  0  0  0  0
 27 28  1  0  0  0  0
 29 28  1  0  0  0  0
 30 29  1  0  0  0  0
 31 26  1  0  0  0  0
 31 30  1  0  0  0  0
M  END
>  <minimizedAffinity>
-5.41367531

$$$$

 OpenBabel03272506313D

 31 33  0  0  1  0  0  0  0  0999 V2000
   35.7850   29.7240   33.6260 C   0  0  1  0  0  0  0  0  0  0  0  0
   35.8400   30.5260   32.3880 C   0  0  0  0  0  0  0  0  0  0  0  0
   34.6250   30.5010   31.5020 C   0  0  0  0  0  0  0  0  0  0  0  0
   33.3390   30.5060   32.2390 C   0  0  0  0  0  0  0  0  0  0  0  0
   33.2660   29.6870   33.4550 C   0  0  0  0  0  0  0  0  0  0  0  0
   34.4850   29.8090   34.3340 C   0  0  2  0  0  0  0  0  0  0  0  0
   36.5350   30.1950   34.3340 H   0  0  0  0  0  0  0  0  0  0  0  0
   35.8540   31.6120   32.7390 H   0  0  0  0  0  0  0  0  0  0  0  0
   36.7160   30.4550   31.7730 H   0  0  0  0  0  0  0  0  0  0  0  0
   34.6750   29.5640   30.9040 H   0  0  0  0  0  0  0  0  0  0  0  0
   34.6810   31.3420   30.8010 H   0  0  0  0  0  0  0  0  0  0  0  0
   32.5240   30.1660   31.5500 H   0  0  0  0  0  0  0  0  0  0  0  0
   33.0770   31.5590   32.4950 H   0  0  0  0  0  0  0  0  0  0  0  0
   32.3780   29.9070   34.0460 H   0  0  0  0  0  0  0  0  0  0  0  0
   33.1470   28.6120   33.1360 H   0  0  0  0  0  0  0  0  0  0  0  0
   34.3760   28.9800   35.0410 H   0  0  0  0  0  0  0  0  0  0  0  0
   36.3450   27.6240   32.2730 C   0  0  0  0  0  0  0  0  0  0  0  0
   36.3050   28.3350   33.4940 C   0  0  0  0  0  0  0  0  0  0  0  0
   36.7770   27.6820   34.6140 C   0  0  0  0  0  0  0  0  0  0  0  0
   37.2480   26.4150   34.5100 N   0  0  0  0  0  0  0  0  0  0  0  0
   37.2690   25.7670   33.3150 C   0  0  0  0  0  0  0  0  0  0  0  0
   36.8120   26.3830   32.1950 N   0  0  0  0  0  0  0  0  0  0  0  0
   35.9840   28.1030   31.3780 H   0  0  0  0  0  0  0  0  0  0  0  0
   36.8620   28.0030   35.6320 H   0  0  0  0  0  0  0  0  0  0  0  0
   37.6410   24.7540   33.2050 H   0  0  0  0  0  0  0  0  0  0  0  0
   34.3090   31.0580   35.1710 C   0  0  0  0  0  3  0  0  0  0  0  0
   33.0710   30.8900   36.0570 C   0  0  0  0  0  2  0  0  0  0  0  0
   33.2220   31.5990   37.3870 C   0  0  0  0  0  2  0  0  0  0  0  0
   33.7670   32.9710   37.1410 C   0  0  0  0  0  2  0  0  0  0  0  0
   35.1570   32.8140   36.6000 C   0  0  0  0  0  2  0  0  0  0  0  0
   35.4270   31.3870   36.0890 C   0  0  0  0  0  2  0  0  0  0  0  0
  1  7  1  1  0  0  0
  1  6  1  0  0  0  0
  2  8  1  0  0  0  0
  2  1  1  0  0  0  0
  3  4  1  0  0  0  0
  3  2  1  0  0  0  0
  4 13  1  0  0  0  0
  4  5  1  0  0  0  0
  5 14  1  0  0  0  0
  5  6  1  0  0  0  0
  6 16  1  1  0  0  0
  6 26  1  0  0  0  0
  9  2  1  0  0  0  0
 10  3  1  0  0  0  0
 11  3  1  0  0  0  0
 12  4  1  0  0  0  0
 15  5  1  0  0  0  0
 17 18  1  0  0  0  0
 18  1  1  0  0  0  0
 18 19  2  0  0  0  0
 19 24  1  0  0  0  0
 20 19  1  0  0  0  0
 21 20  2  0  0  0  0
 22 17  2  0  0  0  0
 22 21  1  0  0  0  0
 23 17  1  0  0  0  0
 25 21  1  0  0  0  0
 26 27  1  0  0  0  0
 26 31  1  0  0  0  0
 27 28  1  0  0  0  0
 29 28  1  0  0  0  0
 30 29  1  0  0  0  0
 31 30  1  0  0  0  0
M  END
>  <minimizedAffinity>
-5.14015102

$$$$

 OpenBabel03272506313D

 31 33  0  0  1  0  0  0  0  0999 V2000
   38.1910   26.3310   34.9510 C   0  0  1  0  0  0  0  0  0  0  0  0
   39.4860   26.9330   35.3230 C   0  0  0  0  0  0  0  0  0  0  0  0
   40.5680   26.9290   34.2790 C   0  0  0  0  0  0  0  0  0  0  0  0
   40.0820   27.1950   32.9040 C   0  0  0  0  0  0  0  0  0  0  0  0
   38.8100   26.5750   32.5160 C   0  0  0  0  0  0  0  0  0  0  0  0
   37.7460   26.6740   33.5790 C   0  0  2  0  0  0  0  0  0  0  0  0
   37.4200   26.8040   35.6350 H   0  0  0  0  0  0  0  0  0  0  0  0
   39.2710   28.0490   35.4350 H   0  0  0  0  0  0  0  0  0  0  0  0
   39.9180   26.6700   36.2680 H   0  0  0  0  0  0  0  0  0  0  0  0
   41.0290   25.9150   34.2910 H   0  0  0  0  0  0  0  0  0  0  0  0
   41.3440   27.6460   34.5700 H   0  0  0  0  0  0  0  0  0  0  0  0
   40.8620   26.8610   32.1720 H   0  0  0  0  0  0  0  0  0  0  0  0
   40.0070   28.2980   32.7580 H   0  0  0  0  0  0  0  0  0  0  0  0
   38.4210   26.9830   31.5840 H   0  0  0  0  0  0  0  0  0  0  0  0
   39.0140   25.4870   32.2970 H   0  0  0  0  0  0  0  0  0  0  0  0
   36.9760   25.9740   33.2380 H   0  0  0  0  0  0  0  0  0  0  0  0
   38.1740   23.8480   34.3250 C   0  0  0  0  0  0  0  0  0  0  0  0
   38.0570   24.8850   35.2800 C   0  0  0  0  0  0  0  0  0  0  0  0
   37.8010   24.5090   36.5820 C   0  0  0  0  0  0  0  0  0  0  0  0
   37.6720   23.1960   36.8940 N   0  0  0  0  0  0  0  0  0  0  0  0
   37.7910   22.2310   35.9450 C   0  0  0  0  0  0  0  0  0  0  0  0
   38.0440   22.5690   34.6540 N   0  0  0  0  0  0  0  0  0  0  0  0
   38.3730   24.1050   33.2980 H   0  0  0  0  0  0  0  0  0  0  0  0
   37.6840   25.0920   37.4730 H   0  0  0  0  0  0  0  0  0  0  0  0
   37.6920   21.1740   36.1680 H   0  0  0  0  0  0  0  0  0  0  0  0
   37.1110   28.0410   33.4500 C   0  0  0  0  0  3  0  0  0  0  0  0
   36.4310   28.1450   32.0820 C   0  0  0  0  0  2  0  0  0  0  0  0
   35.1930   29.0170   32.1260 C   0  0  0  0  0  2  0  0  0  0  0  0
   35.5130   30.2680   32.8820 C   0  0  0  0  0  2  0  0  0  0  0  0
   35.7900   29.8770   34.3040 C   0  0  0  0  0  2  0  0  0  0  0  0
   36.0680   28.3700   34.4510 C   0  0  0  0  0  2  0  0  0  0  0  0
  1 18  1  0  0  0  0
  1  2  1  0  0  0  0
  1  7  1  1  0  0  0
  2  8  1  0  0  0  0
  2  9  1  0  0  0  0
  3 10  1  0  0  0  0
  3 11  1  0  0  0  0
  3  2  1  0  0  0  0
  4  3  1  0  0  0  0
  5  4  1  0  0  0  0
  5  6  1  0  0  0  0
  6 16  1  6  0  0  0
  6  1  1  0  0  0  0
 12  4  1  0  0  0  0
 13  4  1  0  0  0  0
 14  5  1  0  0  0  0
 15  5  1  0  0  0  0
 17 22  2  0  0  0  0
 17 18  1  0  0  0  0
 18 19  2  0  0  0  0
 19 20  1  0  0  0  0
 19 24  1  0  0  0  0
 21 25  1  0  0  0  0
 21 20  2  0  0  0  0
 22 21  1  0  0  0  0
 23 17  1  0  0  0  0
 26  6  1  0  0  0  0
 26 31  1  0  0  0  0
 27 28  1  0  0  0  0
 27 26  1  0  0  0  0
 28 29  1  0  0  0  0
 29 30  1  0  0  0  0
 30 31  1  0  0  0  0
M  END
>  <minimizedAffinity>
-5.08983612

$$$$

 OpenBabel03272506313D

 31 33  0  0  1  0  0  0  0  0999 V2000
   38.8080   24.0180   34.4240 C   0  0  1  0  0  0  0  0  0  0  0  0
   38.9770   25.2720   35.1830 C   0  0  0  0  0  0  0  0  0  0  0  0
   38.1490   25.4370   36.4270 C   0  0  0  0  0  0  0  0  0  0  0  0
   37.9990   24.1950   37.2220 C   0  0  0  0  0  0  0  0  0  0  0  0
   37.8010   22.9470   36.4760 C   0  0  0  0  0  0  0  0  0  0  0  0
   38.7090   22.8120   35.2810 C   0  0  2  0  0  0  0  0  0  0  0  0
   39.7670   23.8800   33.8350 H   0  0  0  0  0  0  0  0  0  0  0  0
   40.0350   25.2200   35.6090 H   0  0  0  0  0  0  0  0  0  0  0  0
   38.9760   26.1990   34.6430 H   0  0  0  0  0  0  0  0  0  0  0  0
   37.1340   25.7620   36.1030 H   0  0  0  0  0  0  0  0  0  0  0  0
   38.5750   26.2450   37.0320 H   0  0  0  0  0  0  0  0  0  0  0  0
   37.1340   24.3150   37.9240 H   0  0  0  0  0  0  0  0  0  0  0  0
   38.8900   24.0850   37.8830 H   0  0  0  0  0  0  0  0  0  0  0  0
   37.9130   22.0670   37.1090 H   0  0  0  0  0  0  0  0  0  0  0  0
   36.7280   22.9240   36.1300 H   0  0  0  0  0  0  0  0  0  0  0  0
   38.2750   21.9770   34.7210 H   0  0  0  0  0  0  0  0  0  0  0  0
   37.2280   22.9260   32.7310 C   0  0  0  0  0  0  0  0  0  0  0  0
   37.7820   24.0720   33.3460 C   0  0  0  0  0  0  0  0  0  0  0  0
   37.3320   25.2990   32.9040 C   0  0  0  0  0  0  0  0  0  0  0  0
   36.4020   25.3630   31.9200 N   0  0  0  0  0  0  0  0  0  0  0  0
   35.8950   24.2350   31.3540 C   0  0  0  0  0  0  0  0  0  0  0  0
   36.3170   23.0130   31.7690 N   0  0  0  0  0  0  0  0  0  0  0  0
   37.5570   21.9510   33.0510 H   0  0  0  0  0  0  0  0  0  0  0  0
   37.5820   26.2930   33.2120 H   0  0  0  0  0  0  0  0  0  0  0  0
   35.1510   24.2590   30.5660 H   0  0  0  0  0  0  0  0  0  0  0  0
   40.0370   22.2910   35.7860 C   0  0  0  0  0  3  0  0  0  0  0  0
   41.1630   23.1320   35.1790 C   0  0  0  0  0  2  0  0  0  0  0  0
   42.3440   23.2670   36.1180 C   0  0  0  0  0  2  0  0  0  0  0  0
   42.6610   21.9210   36.6880 C   0  0  0  0  0  2  0  0  0  0  0  0
   41.5000   21.5090   37.5450 C   0  0  0  0  0  2  0  0  0  0  0  0
   40.2370   22.3410   37.2550 C   0  0  0  0  0  2  0  0  0  0  0  0
  1  7  1  6  0  0  0
  1  2  1  0  0  0  0
  1  6  1  0  0  0  0
  2  8  1  0  0  0  0
  2  3  1  0  0  0  0
  3 11  1  0  0  0  0
  3  4  1  0  0  0  0
  4 13  1  0  0  0  0
  4 12  1  0  0  0  0
  5 14  1  0  0  0  0
  5  4  1  0  0  0  0
  6 16  1  6  0  0  0
  6 26  1  0  0  0  0
  6  5  1  0  0  0  0
  9  2  1  0  0  0  0
 10  3  1  0  0  0  0
 15  5  1  0  0  0  0
 17 23  1  0  0  0  0
 17 18  1  0  0  0  0
 18  1  1  0  0  0  0
 19 24  1  0  0  0  0
 19 18  2  0  0  0  0
 20 19  1  0  0  0  0
 21 22  1  0  0  0  0
 21 20  2  0  0  0  0
 22 17  2  0  0  0  0
 25 21  1  0  0  0  0
 26 31  1  0  0  0  0
 27 26  1  0  0  0  0
 27 28  1  0  0  0  0
 28 29  1  0  0  0  0
 29 30  1  0  0  0  0
 31 30  1  0  0  0  0
M  END
>  <minimizedAffinity>
-5.04172087

$$$$

 OpenBabel03272506313D

 31 33  0  0  1  0  0  0  0  0999 V2000
   38.7430   25.3630   33.8530 C   0  0  1  0  0  0  0  0  0  0  0  0
   39.1170   26.7660   34.1160 C   0  0  0  0  0  0  0  0  0  0  0  0
   38.4650   27.4400   35.2910 C   0  0  0  0  0  0  0  0  0  0  0  0
   38.3000   26.5630   36.4750 C   0  0  0  0  0  0  0  0  0  0  0  0
   37.8990   25.1740   36.2250 C   0  0  0  0  0  0  0  0  0  0  0  0
   38.6390   24.5340   35.0780 C   0  0  2  0  0  0  0  0  0  0  0  0
   39.6070   24.9150   33.2700 H   0  0  0  0  0  0  0  0  0  0  0  0
   40.2090   26.7240   34.4440 H   0  0  0  0  0  0  0  0  0  0  0  0
   39.1350   27.4520   33.2920 H   0  0  0  0  0  0  0  0  0  0  0  0
   37.4530   27.7650   34.9610 H   0  0  0  0  0  0  0  0  0  0  0  0
   39.0340   28.3410   35.5440 H   0  0  0  0  0  0  0  0  0  0  0  0
   37.5420   27.0180   37.1620 H   0  0  0  0  0  0  0  0  0  0  0  0
   39.2510   26.5660   37.0580 H   0  0  0  0  0  0  0  0  0  0  0  0
   38.0060   24.5480   37.1110 H   0  0  0  0  0  0  0  0  0  0  0  0
   36.7950   25.1740   35.9980 H   0  0  0  0  0  0  0  0  0  0  0  0
   38.0660   23.6220   34.8790 H   0  0  0  0  0  0  0  0  0  0  0  0
   36.8600   26.2590   32.3670 C   0  0  0  0  0  0  0  0  0  0  0  0
   37.6030   25.1850   32.9120 C   0  0  0  0  0  0  0  0  0  0  0  0
   37.2280   23.9120   32.5370 C   0  0  0  0  0  0  0  0  0  0  0  0
   36.1880   23.7360   31.6850 N   0  0  0  0  0  0  0  0  0  0  0  0
   35.5010   24.7960   31.1840 C   0  0  0  0  0  0  0  0  0  0  0  0
   35.8460   26.0620   31.5330 N   0  0  0  0  0  0  0  0  0  0  0  0
   37.1250   27.2670   32.6380 H   0  0  0  0  0  0  0  0  0  0  0  0
   37.6310   22.9540   32.7970 H   0  0  0  0  0  0  0  0  0  0  0  0
   34.6660   24.6820   30.5020 H   0  0  0  0  0  0  0  0  0  0  0  0
   39.9660   24.0460   35.6190 C   0  0  0  0  0  3  0  0  0  0  0  0
   39.7050   23.1050   36.7970 C   0  0  0  0  0  2  0  0  0  0  0  0
   40.7500   22.0130   36.8970 C   0  0  0  0  0  2  0  0  0  0  0  0
   42.1040   22.6270   36.7360 C   0  0  0  0  0  2  0  0  0  0  0  0
   42.1960   23.1570   35.3360 C   0  0  0  0  0  2  0  0  0  0  0  0
   40.8150   23.2860   34.6690 C   0  0  0  0  0  2  0  0  0  0  0  0
  1  7  1  6  0  0  0
  1  2  1  0  0  0  0
  1  6  1  0  0  0  0
  2  8  1  0  0  0  0
  2  3  1  0  0  0  0
  3 11  1  0  0  0  0
  3  4  1  0  0  0  0
  4 13  1  0  0  0  0
  4 12  1  0  0  0  0
  5  4  1  0  0  0  0
  5 14  1  0  0  0  0
  6 16  1  6  0  0  0
  6 26  1  0  0  0  0
  6  5  1  0  0  0  0
  9  2  1  0  0  0  0
 10  3  1  0  0  0  0
 15  5  1  0  0  0  0
 17 23  1  0  0  0  0
 17 18  1  0  0  0  0
 18  1  1  0  0  0  0
 19 24  1  0  0  0  0
 19 18  2  0  0  0  0
 20 19  1  0  0  0  0
 21 22  1  0  0  0  0
 21 20  2  0  0  0  0
 22 17  2  0  0  0  0
 25 21  1  0  0  0  0
 26 27  1  0  0  0  0
 27 28  1  0  0  0  0
 29 28  1  0  0  0  0
 30 29  1  0  0  0  0
 31 30  1  0  0  0  0
 31 26  1  0  0  0  0
M  END
>  <minimizedAffinity>
-5.03492928

$$$$

 OpenBabel03272506313D

 31 33  0  0  1  0  0  0  0  0999 V2000
   35.4810   29.8330   33.5230 C   0  0  1  0  0  0  0  0  0  0  0  0
   34.6530   30.1610   32.3460 C   0  0  0  0  0  0  0  0  0  0  0  0
   33.1870   29.8370   32.4280 C   0  0  0  0  0  0  0  0  0  0  0  0
   32.5850   30.0980   33.7570 C   0  0  0  0  0  0  0  0  0  0  0  0
   33.3890   29.7480   34.9340 C   0  0  0  0  0  0  0  0  0  0  0  0
   34.8340   30.1610   34.8160 C   0  0  2  0  0  0  0  0  0  0  0  0
   36.3840   30.5160   33.4670 H   0  0  0  0  0  0  0  0  0  0  0  0
   34.6410   31.3010   32.3010 H   0  0  0  0  0  0  0  0  0  0  0  0
   35.0130   29.8800   31.3750 H   0  0  0  0  0  0  0  0  0  0  0  0
   33.0800   28.7500   32.2100 H   0  0  0  0  0  0  0  0  0  0  0  0
   32.6580   30.3850   31.6400 H   0  0  0  0  0  0  0  0  0  0  0  0
   31.6130   29.5450   33.8310 H   0  0  0  0  0  0  0  0  0  0  0  0
   32.3050   31.1760   33.8170 H   0  0  0  0  0  0  0  0  0  0  0  0
   32.9750   30.1600   35.8530 H   0  0  0  0  0  0  0  0  0  0  0  0
   33.3340   28.6290   35.0630 H   0  0  0  0  0  0  0  0  0  0  0  0
   35.3220   29.6250   35.6370 H   0  0  0  0  0  0  0  0  0  0  0  0
   36.6680   27.8500   34.6250 C   0  0  0  0  0  0  0  0  0  0  0  0
   36.1060   28.4820   33.4910 C   0  0  0  0  0  0  0  0  0  0  0  0
   36.1550   27.7880   32.3000 C   0  0  0  0  0  0  0  0  0  0  0  0
   36.7260   26.5590   32.2570 N   0  0  0  0  0  0  0  0  0  0  0  0
   37.2550   25.9880   33.3710 C   0  0  0  0  0  0  0  0  0  0  0  0
   37.2210   26.6450   34.5580 N   0  0  0  0  0  0  0  0  0  0  0  0
   36.6470   28.3630   35.5720 H   0  0  0  0  0  0  0  0  0  0  0  0
   35.7960   28.0400   31.3230 H   0  0  0  0  0  0  0  0  0  0  0  0
   37.7170   25.0070   33.3630 H   0  0  0  0  0  0  0  0  0  0  0  0
   34.9140   31.6210   35.2040 C   0  0  0  0  0  3  0  0  0  0  0  0
   34.0000   31.8650   36.4080 C   0  0  0  0  0  2  0  0  0  0  0  0
   34.5410   32.9420   37.3260 C   0  0  0  0  0  2  0  0  0  0  0  0
   34.9840   34.1040   36.4940 C   0  0  0  0  0  2  0  0  0  0  0  0
   36.1480   33.6490   35.6660 C   0  0  0  0  0  2  0  0  0  0  0  0
   36.2550   32.1140   35.6030 C   0  0  0  0  0  2  0  0  0  0  0  0
  1  7  1  6  0  0  0
  1  6  1  0  0  0  0
  2  3  1  0  0  0  0
  2  1  1  0  0  0  0
  3  4  1  0  0  0  0
  4 13  1  0  0  0  0
  4 12  1  0  0  0  0
  4  5  1  0  0  0  0
  5 15  1  0  0  0  0
  5 14  1  0  0  0  0
  6  5  1  0  0  0  0
  6 26  1  0  0  0  0
  6 16  1  1  0  0  0
  8  2  1  0  0  0  0
  9  2  1  0  0  0  0
 10  3  1  0  0  0  0
 11  3  1  0  0  0  0
 17 23  1  0  0  0  0
 18  1  1  0  0  0  0
 18 17  2  0  0  0  0
 19 18  1  0  0  0  0
 20 19  2  0  0  0  0
 20 21  1  0  0  0  0
 21 22  2  0  0  0  0
 22 17  1  0  0  0  0
 24 19  1  0  0  0  0
 25 21  1  0  0  0  0
 26 31  1  0  0  0  0
 26 27  1  0  0  0  0
 27 28  1  0  0  0  0
 29 28  1  0  0  0  0
 30 29  1  0  0  0  0
 31 30  1  0  0  0  0
M  END
>  <minimizedAffinity>
-4.88930941

$$$$

 OpenBabel03272506313D

 31 33  0  0  1  0  0  0  0  0999 V2000
   37.9420   26.4270   33.4280 C   0  0  1  0  0  0  0  0  0  0  0  0
   38.9910   26.4200   32.3890 C   0  0  0  0  0  0  0  0  0  0  0  0
   40.2690   27.1480   32.7020 C   0  0  0  0  0  0  0  0  0  0  0  0
   40.7230   26.9960   34.1050 C   0  0  0  0  0  0  0  0  0  0  0  0
   39.6900   27.0310   35.1470 C   0  0  0  0  0  0  0  0  0  0  0  0
   38.4630   26.2270   34.8010 C   0  0  2  0  0  0  0  0  0  0  0  0
   37.2980   25.5170   33.2240 H   0  0  0  0  0  0  0  0  0  0  0  0
   39.3440   25.3370   32.3330 H   0  0  0  0  0  0  0  0  0  0  0  0
   38.7080   26.6400   31.3780 H   0  0  0  0  0  0  0  0  0  0  0  0
   40.0830   28.2300   32.5160 H   0  0  0  0  0  0  0  0  0  0  0  0
   41.0440   26.8220   31.9990 H   0  0  0  0  0  0  0  0  0  0  0  0
   41.4680   27.8000   34.3360 H   0  0  0  0  0  0  0  0  0  0  0  0
   41.2950   26.0430   34.1950 H   0  0  0  0  0  0  0  0  0  0  0  0
   40.0700   26.7040   36.1140 H   0  0  0  0  0  0  0  0  0  0  0  0
   39.3950   28.1090   35.2970 H   0  0  0  0  0  0  0  0  0  0  0  0
   37.7260   26.5510   35.5440 H   0  0  0  0  0  0  0  0  0  0  0  0
   36.4040   28.2110   34.4310 C   0  0  0  0  0  0  0  0  0  0  0  0
   36.9600   27.5400   33.3170 C   0  0  0  0  0  0  0  0  0  0  0  0
   36.5490   27.9570   32.0670 C   0  0  0  0  0  0  0  0  0  0  0  0
   35.6510   28.9660   31.9520 N   0  0  0  0  0  0  0  0  0  0  0  0
   35.1410   29.5840   33.0500 C   0  0  0  0  0  0  0  0  0  0  0  0
   35.5260   29.1980   34.2930 N   0  0  0  0  0  0  0  0  0  0  0  0
   36.7020   27.9120   35.4220 H   0  0  0  0  0  0  0  0  0  0  0  0
   36.8270   27.6240   31.0880 H   0  0  0  0  0  0  0  0  0  0  0  0
   34.4220   30.3930   32.9850 H   0  0  0  0  0  0  0  0  0  0  0  0
   38.7600   24.7850   35.1550 C   0  0  0  0  0  3  0  0  0  0  0  0
   38.2790   24.5150   36.5830 C   0  0  0  0  0  2  0  0  0  0  0  0
   37.7960   23.0910   36.7620 C   0  0  0  0  0  2  0  0  0  0  0  0
   38.7890   22.1640   36.1350 C   0  0  0  0  0  2  0  0  0  0  0  0
   38.7750   22.4190   34.6580 C   0  0  0  0  0  2  0  0  0  0  0  0
   38.1080   23.7610   34.3030 C   0  0  0  0  0  2  0  0  0  0  0  0
  1  7  1  6  0  0  0
  1  6  1  0  0  0  0
  2  3  1  0  0  0  0
  2  1  1  0  0  0  0
  3  4  1  0  0  0  0
  4 13  1  0  0  0  0
  4 12  1  0  0  0  0
  4  5  1  0  0  0  0
  5 15  1  0  0  0  0
  5 14  1  0  0  0  0
  6  5  1  0  0  0  0
  6 26  1  0  0  0  0
  6 16  1  1  0  0  0
  8  2  1  0  0  0  0
  9  2  1  0  0  0  0
 10  3  1  0  0  0  0
 11  3  1  0  0  0  0
 17 23  1  0  0  0  0
 18  1  1  0  0  0  0
 18 17  2  0  0  0  0
 19 18  1  0  0  0  0
 20 19  2  0  0  0  0
 20 21  1  0  0  0  0
 21 22  2  0  0  0  0
 22 17  1  0  0  0  0
 24 19  1  0  0  0  0
 25 21  1  0  0  0  0
 26 27  1  0  0  0  0
 27 28  1  0  0  0  0
 29 28  1  0  0  0  0
 30 29  1  0  0  0  0
 31 30  1  0  0  0  0
 31 26  1  0  0  0  0
M  END
>  <minimizedAffinity>
-4.81660795

$$$$

 OpenBabel03272506313D

 31 33  0  0  1  0  0  0  0  0999 V2000
   38.1230   26.5350   33.2950 C   0  0  1  0  0  0  0  0  0  0  0  0
   39.2340   26.5420   32.3230 C   0  0  0  0  0  0  0  0  0  0  0  0
   40.5170   27.1980   32.7540 C   0  0  0  0  0  0  0  0  0  0  0  0
   40.8750   26.9500   34.1710 C   0  0  0  0  0  0  0  0  0  0  0  0
   39.7810   26.9710   35.1480 C   0  0  0  0  0  0  0  0  0  0  0  0
   38.5480   26.2380   34.6830 C   0  0  2  0  0  0  0  0  0  0  0  0
   37.4590   25.6650   33.0000 H   0  0  0  0  0  0  0  0  0  0  0  0
   39.5490   25.4490   32.2260 H   0  0  0  0  0  0  0  0  0  0  0  0
   39.0240   26.8280   31.3110 H   0  0  0  0  0  0  0  0  0  0  0  0
   40.3840   28.2950   32.6200 H   0  0  0  0  0  0  0  0  0  0  0  0
   41.3210   26.8790   32.0820 H   0  0  0  0  0  0  0  0  0  0  0  0
   41.6340   27.7090   34.4920 H   0  0  0  0  0  0  0  0  0  0  0  0
   41.4040   25.9710   34.2400 H   0  0  0  0  0  0  0  0  0  0  0  0
   40.0870   26.5750   36.1160 H   0  0  0  0  0  0  0  0  0  0  0  0
   39.5180   28.0500   35.3420 H   0  0  0  0  0  0  0  0  0  0  0  0
   37.7790   26.5510   35.3970 H   0  0  0  0  0  0  0  0  0  0  0  0
   36.9990   28.4380   32.0020 C   0  0  0  0  0  0  0  0  0  0  0  0
   37.1920   27.6920   33.1880 C   0  0  0  0  0  0  0  0  0  0  0  0
   36.4680   28.0800   34.2970 C   0  0  0  0  0  0  0  0  0  0  0  0
   35.6200   29.1350   34.2150 N   0  0  0  0  0  0  0  0  0  0  0  0
   35.4640   29.8260   33.0550 C   0  0  0  0  0  0  0  0  0  0  0  0
   36.1620   29.4670   31.9470 N   0  0  0  0  0  0  0  0  0  0  0  0
   37.5480   28.1630   31.1180 H   0  0  0  0  0  0  0  0  0  0  0  0
   36.4290   27.6780   35.2880 H   0  0  0  0  0  0  0  0  0  0  0  0
   34.7930   30.6730   32.9630 H   0  0  0  0  0  0  0  0  0  0  0  0
   38.7680   24.7680   34.9710 C   0  0  0  0  0  3  0  0  0  0  0  0
   38.3540   24.4780   36.4160 C   0  0  0  0  0  2  0  0  0  0  0  0
   37.7880   23.0820   36.5770 C   0  0  0  0  0  2  0  0  0  0  0  0
   38.6780   22.1170   35.8610 C   0  0  0  0  0  2  0  0  0  0  0  0
   38.5950   22.4260   34.3960 C   0  0  0  0  0  2  0  0  0  0  0  0
   38.0000   23.8200   34.1270 C   0  0  0  0  0  2  0  0  0  0  0  0
  1  7  1  6  0  0  0
  1  6  1  0  0  0  0
  2  3  1  0  0  0  0
  2  1  1  0  0  0  0
  3  4  1  0  0  0  0
  4 13  1  0  0  0  0
  4 12  1  0  0  0  0
  4  5  1  0  0  0  0
  5 15  1  0  0  0  0
  5 14  1  0  0  0  0
  6 26  1  0  0  0  0
  6  5  1  0  0  0  0
  6 16  1  1  0  0  0
  8  2  1  0  0  0  0
  9  2  1  0  0  0  0
 10  3  1  0  0  0  0
 11  3  1  0  0  0  0
 17 18  1  0  0  0  0
 18  1  1  0  0  0  0
 18 19  2  0  0  0  0
 19 24  1  0  0  0  0
 20 19  1  0  0  0  0
 21 20  2  0  0  0  0
 22 17  2  0  0  0  0
 22 21  1  0  0  0  0
 23 17  1  0  0  0  0
 25 21  1  0  0  0  0
 26 27  1  0  0  0  0
 27 28  1  0  0  0  0
 29 28  1  0  0  0  0
 30 29  1  0  0  0  0
 31 30  1  0  0  0  0
 31 26  1  0  0  0  0
M  END
>  <minimizedAffinity>
-4.81329393

$$$$

 OpenBabel03272506313D

 31 33  0  0  1  0  0  0  0  0999 V2000
   39.0840   24.4950   35.0530 C   0  0  1  0  0  0  0  0  0  0  0  0
   38.4830   25.3010   36.1330 C   0  0  0  0  0  0  0  0  0  0  0  0
   37.9190   24.5550   37.3110 C   0  0  0  0  0  0  0  0  0  0  0  0
   38.7270   23.3840   37.7270 C   0  0  0  0  0  0  0  0  0  0  0  0
   39.3040   22.5600   36.6590 C   0  0  0  0  0  0  0  0  0  0  0  0
   39.9140   23.3670   35.5420 C   0  0  2  0  0  0  0  0  0  0  0  0
   39.8120   25.1830   34.5210 H   0  0  0  0  0  0  0  0  0  0  0  0
   39.3570   25.8620   36.6050 H   0  0  0  0  0  0  0  0  0  0  0  0
   37.8030   26.0860   35.8650 H   0  0  0  0  0  0  0  0  0  0  0  0
   36.9110   24.1890   37.0140 H   0  0  0  0  0  0  0  0  0  0  0  0
   37.7830   25.2560   38.1420 H   0  0  0  0  0  0  0  0  0  0  0  0
   38.0960   22.7170   38.3700 H   0  0  0  0  0  0  0  0  0  0  0  0
   39.5460   23.7350   38.3970 H   0  0  0  0  0  0  0  0  0  0  0  0
   40.0470   21.8580   37.0370 H   0  0  0  0  0  0  0  0  0  0  0  0
   38.4780   21.9160   36.2420 H   0  0  0  0  0  0  0  0  0  0  0  0
   40.0690   22.6300   34.7470 H   0  0  0  0  0  0  0  0  0  0  0  0
   37.8410   22.7820   33.6120 C   0  0  0  0  0  0  0  0  0  0  0  0
   38.1480   24.1180   33.9580 C   0  0  0  0  0  0  0  0  0  0  0  0
   37.5350   25.1120   33.2220 C   0  0  0  0  0  0  0  0  0  0  0  0
   36.6850   24.7830   32.2190 N   0  0  0  0  0  0  0  0  0  0  0  0
   36.4170   23.4840   31.9190 C   0  0  0  0  0  0  0  0  0  0  0  0
   37.0040   22.4840   32.6250 N   0  0  0  0  0  0  0  0  0  0  0  0
   38.3020   21.9810   34.1650 H   0  0  0  0  0  0  0  0  0  0  0  0
   37.5920   26.1780   33.2950 H   0  0  0  0  0  0  0  0  0  0  0  0
   35.7410   23.1950   31.1220 H   0  0  0  0  0  0  0  0  0  0  0  0
   41.3070   23.7590   35.9830 C   0  0  0  0  0  3  0  0  0  0  0  0
   42.0380   22.5120   36.4860 C   0  0  0  0  0  2  0  0  0  0  0  0
   43.5260   22.5710   36.2060 C   0  0  0  0  0  2  0  0  0  0  0  0
   44.0340   23.9230   36.5930 C   0  0  0  0  0  2  0  0  0  0  0  0
   43.4030   24.9240   35.6700 C   0  0  0  0  0  2  0  0  0  0  0  0
   42.1770   24.3490   34.9370 C   0  0  0  0  0  2  0  0  0  0  0  0
  1  7  1  6  0  0  0
  1  6  1  0  0  0  0
  1  2  1  0  0  0  0
  2  8  1  0  0  0  0
  2  3  1  0  0  0  0
  3  4  1  0  0  0  0
  3 11  1  0  0  0  0
  4 12  1  0  0  0  0
  4 13  1  0  0  0  0
  5 14  1  0  0  0  0
  5  4  1  0  0  0  0
  6 16  1  6  0  0  0
  6 26  1  0  0  0  0
  6  5  1  0  0  0  0
  9  2  1  0  0  0  0
 10  3  1  0  0  0  0
 15  5  1  0  0  0  0
 17 18  1  0  0  0  0
 17 23  1  0  0  0  0
 18  1  1  0  0  0  0
 19 24  1  0  0  0  0
 19 18  2  0  0  0  0
 20 19  1  0  0  0  0
 21 20  2  0  0  0  0
 21 22  1  0  0  0  0
 22 17  2  0  0  0  0
 25 21  1  0  0  0  0
 26 27  1  0  0  0  0
 28 27  1  0  0  0  0
 28 29  1  0  0  0  0
 30 29  1  0  0  0  0
 31 30  1  0  0  0  0
 31 26  1  0  0  0  0
M  END
>  <minimizedAffinity>
-4.8125701

$$$$
