
 OpenBabel03272510273D

 42 46  0  0  1  0  0  0  0  0999 V2000
   36.2440   30.1750   46.9640 C   0  0  0  0  0  0  0  0  0  0  0  0
   37.0630   30.7640   47.9240 C   0  0  0  0  0  0  0  0  0  0  0  0
   38.0410   31.6960   47.5740 C   0  0  0  0  0  0  0  0  0  0  0  0
   38.1430   31.9940   46.2210 C   0  0  0  0  0  0  0  0  0  0  0  0
   39.0180   32.8660   45.6340 N   0  0  0  0  0  0  0  0  0  0  0  0
   38.7550   32.8260   44.3160 C   0  0  0  0  0  0  0  0  0  0  0  0
   37.7750   31.9860   44.0650 N   0  0  0  0  0  0  0  0  0  0  0  0
   37.3550   31.4350   45.2350 C   0  0  0  0  0  0  0  0  0  0  0  0
   36.3830   30.5050   45.6210 C   0  0  0  0  0  0  0  0  0  0  0  0
   35.4960   29.4630   47.2280 H   0  0  0  0  0  0  0  0  0  0  0  0
   38.6590   32.1380   48.3260 H   0  0  0  0  0  0  0  0  0  0  0  0
   39.7390   33.4380   46.1280 H   0  0  0  0  0  0  0  0  0  0  0  0
   35.7750   30.0770   44.8460 H   0  0  0  0  0  0  0  0  0  0  0  0
   37.4320   30.1130   51.5920 C   0  0  0  0  0  0  0  0  0  0  0  0
   37.7620   30.5760   50.3360 C   0  0  0  0  0  0  0  0  0  0  0  0
   36.8570   30.3490   49.3030 C   0  0  0  0  0  0  0  0  0  0  0  0
   35.7070   29.6870   49.6050 N   0  0  0  0  0  0  0  0  0  0  0  0
   35.4020   29.2430   50.8380 C   0  0  0  0  0  0  0  0  0  0  0  0
   36.2700   29.4630   51.8180 N   0  0  0  0  0  0  0  0  0  0  0  0
   38.1590   30.3060   52.3770 H   0  0  0  0  0  0  0  0  0  0  0  0
   38.6680   31.0960   50.1050 H   0  0  0  0  0  0  0  0  0  0  0  0
   34.4780   28.7250   51.0210 H   0  0  0  0  0  0  0  0  0  0  0  0
   39.4760   33.6110   43.4030 O   0  0  0  0  0  0  0  0  0  0  0  0
   39.7580   31.8760   41.9440 N   0  0  0  0  0  0  0  0  0  0  0  0
   39.3060   33.2820   42.0280 C   0  0  1  0  0  0  0  0  0  0  0  0
   37.9100   33.3470   41.6140 C   0  0  0  0  0  0  0  0  0  0  0  0
   37.8280   32.9910   40.2550 O   0  0  0  0  0  0  0  0  0  0  0  0
   38.3620   31.7760   39.9390 C   0  0  0  0  0  0  0  0  0  0  0  0
   39.7270   31.5520   40.5350 C   0  0  2  0  0  0  0  0  0  0  0  0
   40.7580   31.9120   42.2520 H   0  0  0  0  0  0  0  0  0  0  0  0
   39.9170   33.9210   41.3710 H   0  0  0  0  0  0  0  0  0  0  0  0
   37.1090   32.8300   42.0640 H   0  0  0  0  0  0  0  0  0  0  0  0
   37.6200   34.4430   41.6020 H   0  0  0  0  0  0  0  0  0  0  0  0
   38.4610   31.7470   38.8350 H   0  0  0  0  0  0  0  0  0  0  0  0
   37.6880   30.9180   40.1950 H   0  0  0  0  0  0  0  0  0  0  0  0
   40.4800   32.1880   40.0420 H   0  0  0  0  0  0  0  0  0  0  0  0
   40.0740   30.0800   40.4050 C   0  0  0  0  0  3  0  0  0  0  0  0
   39.2180   29.3790   39.3860 C   0  0  0  0  0  2  0  0  0  0  0  0
   40.0050   28.6520   38.3260 C   0  0  0  0  0  2  0  0  0  0  0  0
   41.0030   27.6800   38.9080 C   0  0  0  0  0  2  0  0  0  0  0  0
   41.7760   28.3830   40.0000 C   0  0  0  0  0  2  0  0  0  0  0  0
   41.5070   29.8750   39.9930 C   0  0  0  0  0  2  0  0  0  0  0  0
  1 10  1  0  0  0  0
  1  2  1  0  0  0  0
  2 16  1  0  0  0  0
  3  2  2  0  0  0  0
  3 11  1  0  0  0  0
  4  3  1  0  0  0  0
  5 12  1  0  0  0  0
  5  4  1  0  0  0  0
  6  5  1  0  0  0  0
  7  6  2  0  0  0  0
  7  8  1  0  0  0  0
  8  9  1  0  0  0  0
  8  4  2  0  0  0  0
  9  1  2  0  0  0  0
 13  9  1  0  0  0  0
 14 19  1  0  0  0  0
 14 20  1  0  0  0  0
 15 14  2  0  0  0  0
 16 17  2  0  0  0  0
 16 15  1  0  0  0  0
 17 18  1  0  0  0  0
 18 22  1  0  0  0  0
 18 19  2  0  0  0  0
 21 15  1  0  0  0  0
 23  6  1  0  0  0  0
 24 25  1  0  0  0  0
 24 30  1  0  0  0  0
 25 31  1  6  0  0  0
 25 23  1  0  0  0  0
 26 25  1  0  0  0  0
 26 32  1  0  0  0  0
 27 26  1  0  0  0  0
 28 35  1  0  0  0  0
 28 27  1  0  0  0  0
 28 29  1  0  0  0  0
 29 36  1  6  0  0  0
 29 24  1  0  0  0  0
 33 26  1  0  0  0  0
 34 28  1  0  0  0  0
 37 29  1  0  0  0  0
 38 37  1  0  0  0  0
 39 40  1  0  0  0  0
 39 38  1  0  0  0  0
 40 41  1  0  0  0  0
 42 41  1  0  0  0  0
 42 37  1  0  0  0  0
M  END
>  <minimizedAffinity>
-5.95713854

>  <minimizedRMSD>
0.465966552

$$$$
