
 OpenBabel03272500083D

 36 39  0  0  0  0  0  0  0  0999 V2000
   34.5490   28.3460   48.5370 C   0  0  0  0  0  0  0  0  0  0  0  0
   34.6000   29.6610   48.0110 C   0  0  0  0  0  0  0  0  0  0  0  0
   33.5740   30.0550   47.1660 C   0  0  0  0  0  0  0  0  0  0  0  0
   32.5820   29.1670   46.8910 N   0  0  0  0  0  0  0  0  0  0  0  0
   32.5500   27.9320   47.3940 C   0  0  0  0  0  0  0  0  0  0  0  0
   33.5410   27.5100   48.2280 N   0  0  0  0  0  0  0  0  0  0  0  0
   35.3530   28.0190   49.2060 H   0  0  0  0  0  0  0  0  0  0  0  0
   33.5980   31.0410   46.7640 H   0  0  0  0  0  0  0  0  0  0  0  0
   35.6930   30.4830   48.3820 N   0  0  0  0  0  0  0  0  0  0  0  0
   35.8490   30.9380   49.6310 C   0  0  0  0  0  0  0  0  0  0  0  0
   36.9450   31.7420   49.9280 C   0  0  0  0  0  0  0  0  0  0  0  0
   37.7860   31.9970   48.8740 C   0  0  0  0  0  0  0  0  0  0  0  0
   38.7950   32.7320   49.1310 O   0  0  0  0  0  0  0  0  0  0  0  0
   37.6620   31.5660   47.6360 N   0  0  0  0  0  0  0  0  0  0  0  0
   36.5790   30.7800   47.3740 C   0  0  0  0  0  0  0  0  0  0  0  0
   36.4400   30.3550   46.1930 O   0  0  0  0  0  0  0  0  0  0  0  0
   35.1380   30.6910   50.4070 H   0  0  0  0  0  0  0  0  0  0  0  0
   37.0910   32.1220   50.9320 H   0  0  0  0  0  0  0  0  0  0  0  0
   38.3500   31.8050   46.8870 H   0  0  0  0  0  0  0  0  0  0  0  0
   31.5300   27.0110   47.1150 O   0  0  0  0  0  0  0  0  0  0  0  0
   30.3810   27.1530   47.8910 C   0  0  0  0  0  0  0  0  0  0  0  0
   30.6500   27.5570   49.1990 C   0  0  0  0  0  0  0  0  0  0  0  0
   29.6250   27.7450   50.1030 C   0  0  0  0  0  0  0  0  0  0  0  0
   28.3170   27.5280   49.6950 C   0  0  0  0  0  0  0  0  0  0  0  0
   28.0790   27.1310   48.4030 C   0  0  0  0  0  0  0  0  0  0  0  0
   29.0810   26.9330   47.4740 C   0  0  0  0  0  0  0  0  0  0  0  0
   31.6550   27.7430   49.5780 H   0  0  0  0  0  0  0  0  0  0  0  0
   29.8350   28.0590   51.1160 H   0  0  0  0  0  0  0  0  0  0  0  0
   27.5360   27.6890   50.4390 H   0  0  0  0  0  0  0  0  0  0  0  0
   27.0620   26.9780   48.1450 H   0  0  0  0  0  0  0  0  0  0  0  0
   28.8560   26.4980   46.1020 C   0  0  0  0  0  0  0  0  0  0  0  0
   28.5800   24.9920   45.9980 C   0  0  0  0  0  0  0  0  0  0  0  0
   28.7710   24.6340   44.5430 C   0  0  0  0  0  0  0  0  0  0  0  0
   28.4450   25.7500   43.6140 C   0  0  0  0  0  0  0  0  0  0  0  0
   27.3740   26.6970   44.1000 C   0  0  0  0  0  0  0  0  0  0  0  0
   27.6280   27.1610   45.5150 C   0  0  0  0  0  0  0  0  0  0  0  0
  1  7  1  0  0  0  0
  2  9  1  0  0  0  0
  2  1  2  0  0  0  0
  3  2  1  0  0  0  0
  4  3  2  0  0  0  0
  4  5  1  0  0  0  0
  5  6  2  0  0  0  0
  6  1  1  0  0  0  0
  8  3  1  0  0  0  0
  9 10  1  0  0  0  0
 10 11  2  0  0  0  0
 10 17  1  0  0  0  0
 11 18  1  0  0  0  0
 12 13  2  0  0  0  0
 12 11  1  0  0  0  0
 14 12  1  0  0  0  0
 15 14  1  0  0  0  0
 15  9  1  0  0  0  0
 16 15  2  0  0  0  0
 19 14  1  0  0  0  0
 20  5  1  0  0  0  0
 20 21  1  0  0  0  0
 21 22  1  0  0  0  0
 22 27  1  0  0  0  0
 22 23  2  0  0  0  0
 23 28  1  0  0  0  0
 24 23  1  0  0  0  0
 24 29  1  0  0  0  0
 25 24  2  0  0  0  0
 26 21  2  0  0  0  0
 26 25  1  0  0  0  0
 30 25  1  0  0  0  0
 31 26  1  0  0  0  0
 32 31  1  0  0  0  0
 33 32  1  0  0  0  0
 34 35  1  0  0  0  0
 34 33  1  0  0  0  0
 35 36  1  0  0  0  0
 36 31  1  0  0  0  0
M  END
>  <minimizedAffinity>
-6.22513151

>  <minimizedRMSD>
2.03657579

$$$$
