
 OpenBabel03272508183D

 22 24  0  0  0  0  0  0  0  0999 V2000
   37.8870   32.0800   48.7780 C   0  0  0  0  0  0  0  0  0  0  0  0
   38.0270   31.2490   47.6460 C   0  0  0  0  0  0  0  0  0  0  0  0
   37.2760   30.0570   47.8600 C   0  0  0  0  0  0  0  0  0  0  0  0
   36.5500   29.7810   48.9720 N   0  0  0  0  0  0  0  0  0  0  0  0
   36.4790   30.6450   49.9980 C   0  0  0  0  0  0  0  0  0  0  0  0
   37.1580   31.7950   49.8860 N   0  0  0  0  0  0  0  0  0  0  0  0
   37.2250   29.2720   47.1490 H   0  0  0  0  0  0  0  0  0  0  0  0
   35.9710   30.6140   50.9420 H   0  0  0  0  0  0  0  0  0  0  0  0
   38.5840   33.4180   48.6370 C   0  0  0  0  0  0  0  0  0  0  0  0
   38.2910   34.4920   49.5450 C   0  0  0  0  0  0  0  0  0  0  0  0
   39.5040   33.6860   49.8560 C   0  0  0  0  0  0  0  0  0  0  0  0
   39.1430   33.5980   47.7180 H   0  0  0  0  0  0  0  0  0  0  0  0
   37.4260   34.3420   50.2560 H   0  0  0  0  0  0  0  0  0  0  0  0
   38.4210   35.5690   49.3330 H   0  0  0  0  0  0  0  0  0  0  0  0
   40.4700   34.1930   49.6840 H   0  0  0  0  0  0  0  0  0  0  0  0
   39.4600   32.9600   50.6510 H   0  0  0  0  0  0  0  0  0  0  0  0
   38.7390   31.4580   46.4240 C   0  0  0  0  0  0  0  0  0  0  0  0
   40.1180   31.9250   46.3580 C   0  0  0  0  0  0  0  0  0  0  0  0
   40.8040   31.3080   45.1440 C   0  0  0  0  0  0  0  0  0  0  0  0
   40.0420   31.6740   43.9230 C   0  0  0  0  0  0  0  0  0  0  0  0
   38.5500   31.4920   44.0000 C   0  0  0  0  0  0  0  0  0  0  0  0
   37.9820   32.0960   45.2860 C   0  0  0  0  0  0  0  0  0  0  0  0
  1  6  1  0  0  0  0
  2  3  1  0  0  0  0
  2  1  2  0  0  0  0
  3  4  2  0  0  0  0
  4  5  1  0  0  0  0
  5  8  1  0  0  0  0
  6  5  2  0  0  0  0
  7  3  1  0  0  0  0
  9  1  1  0  0  0  0
  9 10  1  0  0  0  0
  9 11  1  0  0  0  0
 10 11  1  0  0  0  0
 10 13  1  0  0  0  0
 11 16  1  0  0  0  0
 12  9  1  0  0  0  0
 14 10  1  0  0  0  0
 15 11  1  0  0  0  0
 17  2  1  0  0  0  0
 18 17  1  0  0  0  0
 19 18  1  0  0  0  0
 20 21  1  0  0  0  0
 20 19  1  0  0  0  0
 21 22  1  0  0  0  0
 22 17  1  0  0  0  0
M  END
>  <minimizedAffinity>
-4.10927248

>  <minimizedRMSD>
5.89771509

$$$$
