
 OpenBabel03272509053D

 30 32  0  0  0  0  0  0  0  0999 V2000
   34.7820   28.4440   49.7430 C   0  0  0  0  0  3  0  0  0  0  0  0
   34.3850   28.2320   48.5160 C   0  0  0  0  0  3  0  0  0  0  0  0
   37.5660   30.2730   51.2590 C   0  0  0  0  0  0  0  0  0  0  0  0
   38.0220   31.0460   50.1730 C   0  0  0  0  0  0  0  0  0  0  0  0
   37.3540   30.9150   48.9400 C   0  0  0  0  0  0  0  0  0  0  0  0
   36.3120   30.0520   48.8730 N   0  0  0  0  0  0  0  0  0  0  0  0
   35.9020   29.3270   49.9320 C   0  0  0  0  0  0  0  0  0  0  0  0
   36.5420   29.4530   51.1150 N   0  0  0  0  0  0  0  0  0  0  0  0
   38.0990   30.3960   52.1890 H   0  0  0  0  0  0  0  0  0  0  0  0
   38.8350   31.7320   50.1890 H   0  0  0  0  0  0  0  0  0  0  0  0
   37.7030   31.6520   47.6980 C   0  0  0  0  0  3  0  0  0  0  0  0
   39.1060   32.2100   47.7470 C   0  0  0  0  0  2  0  0  0  0  0  0
   39.3570   32.8040   46.3560 C   0  0  0  0  0  2  0  0  0  0  0  0
   39.5270   31.7140   45.3260 C   0  0  0  0  0  2  0  0  0  0  0  0
   38.9980   30.4340   45.9130 C   0  0  0  0  0  2  0  0  0  0  0  0
   37.6180   30.7460   46.4750 C   0  0  0  0  0  2  0  0  0  0  0  0
   33.2710   27.3770   48.0620 C   0  0  0  0  0  0  0  0  0  0  0  0
   32.5150   28.0360   47.5630 H   0  0  0  0  0  0  0  0  0  0  0  0
   32.7550   26.8490   48.8920 H   0  0  0  0  0  0  0  0  0  0  0  0
   33.7020   26.3610   47.0560 C   0  0  0  0  0  0  0  0  0  0  0  0
   33.9540   25.0420   47.3310 C   0  0  0  0  0  0  0  0  0  0  0  0
   34.3490   24.1780   46.3300 C   0  0  0  0  0  0  0  0  0  0  0  0
   34.5010   24.6340   45.0060 C   0  0  0  0  0  0  0  0  0  0  0  0
   34.2520   25.9480   44.7260 C   0  0  0  0  0  0  0  0  0  0  0  0
   33.8560   26.7990   45.7470 C   0  0  0  0  0  0  0  0  0  0  0  0
   33.8230   24.7360   48.3660 H   0  0  0  0  0  0  0  0  0  0  0  0
   34.5300   23.1620   46.6090 H   0  0  0  0  0  0  0  0  0  0  0  0
   34.8110   23.8710   44.3180 H   0  0  0  0  0  0  0  0  0  0  0  0
   34.3750   26.2760   43.7020 H   0  0  0  0  0  0  0  0  0  0  0  0
   33.6730   27.8350   45.4550 H   0  0  0  0  0  0  0  0  0  0  0  0
  1  7  1  0  0  0  0
  2  1  2  0  0  0  0
  3  9  1  0  0  0  0
  4 10  1  0  0  0  0
  4  3  2  0  0  0  0
  5  4  1  0  0  0  0
  6  5  2  0  0  0  0
  6  7  1  0  0  0  0
  7  8  2  0  0  0  0
  8  3  1  0  0  0  0
 11 12  1  0  0  0  0
 11  5  1  0  0  0  0
 13 12  1  0  0  0  0
 14 15  1  0  0  0  0
 14 13  1  0  0  0  0
 15 16  1  0  0  0  0
 16 11  1  0  0  0  0
 17  2  1  0  0  0  0
 17 19  1  0  0  0  0
 18 17  1  0  0  0  0
 20 21  1  0  0  0  0
 20 17  1  0  0  0  0
 21 26  1  0  0  0  0
 22 27  1  0  0  0  0
 22 21  2  0  0  0  0
 23 22  1  0  0  0  0
 24 23  2  0  0  0  0
 24 25  1  0  0  0  0
 25 20  2  0  0  0  0
 28 23  1  0  0  0  0
 29 24  1  0  0  0  0
 30 25  1  0  0  0  0
M  END
>  <minimizedAffinity>
-6.05666399

>  <minimizedRMSD>
0.937409401

$$$$
