
 OpenBabel03272510023D

 18 19  0  0  0  0  0  0  0  0999 V2000
   38.3370   31.5790   50.0030 C   0  0  0  0  0  0  0  0  0  0  0  0
   38.5760   31.6840   48.6230 C   0  0  0  0  0  0  0  0  0  0  0  0
   37.7290   31.0140   47.7590 C   0  0  0  0  0  0  0  0  0  0  0  0
   36.6980   30.2790   48.2880 N   0  0  0  0  0  0  0  0  0  0  0  0
   36.5060   30.2050   49.6240 C   0  0  0  0  0  0  0  0  0  0  0  0
   37.3230   30.8520   50.4610 N   0  0  0  0  0  0  0  0  0  0  0  0
   38.9460   32.0680   50.7510 H   0  0  0  0  0  0  0  0  0  0  0  0
   39.4110   32.2890   48.3780 H   0  0  0  0  0  0  0  0  0  0  0  0
   37.9880   31.1330   46.3340 C   0  0  0  0  0  3  0  0  0  0  0  0
   38.2250   32.4890   45.7890 C   0  0  0  0  0  2  0  0  0  0  0  0
   39.6640   32.7190   45.3710 C   0  0  0  0  0  2  0  0  0  0  0  0
   39.9630   31.7490   44.2480 C   0  0  0  0  0  2  0  0  0  0  0  0
   39.4580   30.3600   44.5370 C   0  0  0  0  0  2  0  0  0  0  0  0
   39.2290   30.2840   46.0220 C   0  0  0  0  0  2  0  0  0  0  0  0
   35.3710   29.3910   50.1090 C   0  0  0  0  0  0  0  0  0  0  0  0
   35.4470   29.1090   51.4650 F   0  0  0  0  0  0  0  0  0  0  0  0
   34.1620   30.0490   49.9170 F   0  0  0  0  0  0  0  0  0  0  0  0
   35.2420   28.1840   49.4630 F   0  0  0  0  0  0  0  0  0  0  0  0
  1  6  1  0  0  0  0
  1  7  1  0  0  0  0
  2  1  2  0  0  0  0
  3  4  2  0  0  0  0
  3  2  1  0  0  0  0
  4  5  1  0  0  0  0
  5 15  1  0  0  0  0
  5  6  2  0  0  0  0
  8  2  1  0  0  0  0
  9  3  1  0  0  0  0
 10  9  1  0  0  0  0
 11 10  1  0  0  0  0
 12 13  1  0  0  0  0
 12 11  1  0  0  0  0
 13 14  1  0  0  0  0
 14  9  1  0  0  0  0
 15 16  1  0  0  0  0
 17 15  1  0  0  0  0
 18 15  1  0  0  0  0
M  END
>  <minimizedAffinity>
-5.45447206

>  <minimizedRMSD>
0.829912961

$$$$
