
 OpenBabel03272506323D

 37 39  0  0  1  0  0  0  0  0999 V2000
   34.0810   29.3340   48.8650 C   0  0  1  0  0  0  0  0  0  0  0  0
   33.7980   29.8430   50.1890 C   0  0  0  0  0  0  0  0  0  0  0  0
   34.7140   29.3910   51.3090 C   0  0  0  0  0  0  0  0  0  0  0  0
   36.1500   29.2340   50.9450 C   0  0  0  0  0  0  0  0  0  0  0  0
   36.4620   28.7460   49.5770 C   0  0  0  0  0  0  0  0  0  0  0  0
   35.5570   29.3130   48.5500 C   0  0  2  0  0  0  0  0  0  0  0  0
   33.6850   30.0710   48.0970 H   0  0  0  0  0  0  0  0  0  0  0  0
   33.9800   30.9580   50.1510 H   0  0  0  0  0  0  0  0  0  0  0  0
   32.7860   29.7620   50.5730 H   0  0  0  0  0  0  0  0  0  0  0  0
   34.6420   30.1120   52.1500 H   0  0  0  0  0  0  0  0  0  0  0  0
   34.3070   28.4370   51.7180 H   0  0  0  0  0  0  0  0  0  0  0  0
   36.7020   30.1730   51.1820 H   0  0  0  0  0  0  0  0  0  0  0  0
   36.5700   28.4750   51.6560 H   0  0  0  0  0  0  0  0  0  0  0  0
   36.3380   27.6290   49.5760 H   0  0  0  0  0  0  0  0  0  0  0  0
   37.4850   29.0150   49.3180 H   0  0  0  0  0  0  0  0  0  0  0  0
   35.8000   28.8930   47.5740 H   0  0  0  0  0  0  0  0  0  0  0  0
   32.0540   27.7750   48.7830 C   0  0  0  0  0  0  0  0  0  0  0  0
   33.4170   28.0760   48.4780 C   0  0  0  0  0  0  0  0  0  0  0  0
   34.1040   27.0970   47.7820 C   0  0  0  0  0  0  0  0  0  0  0  0
   33.4610   25.9360   47.4370 N   0  0  0  0  0  0  0  0  0  0  0  0
   32.1740   25.7080   47.7520 C   0  0  0  0  0  0  0  0  0  0  0  0
   31.4620   26.6450   48.4350 N   0  0  0  0  0  0  0  0  0  0  0  0
   31.4960   28.5250   49.3270 H   0  0  0  0  0  0  0  0  0  0  0  0
   35.1210   27.2180   47.5060 H   0  0  0  0  0  0  0  0  0  0  0  0
   31.7560   24.7660   47.4380 H   0  0  0  0  0  0  0  0  0  0  0  0
   35.9480   30.8110   48.4490 C   0  0  0  0  0  0  0  0  0  0  0  0
   35.9680   31.2830   49.4530 H   0  0  0  0  0  0  0  0  0  0  0  0
   35.2310   31.3880   47.8720 H   0  0  0  0  0  0  0  0  0  0  0  0
   37.3690   30.9340   47.8950 C   0  0  0  0  0  0  0  0  0  0  0  0
   38.0060   30.1330   48.3250 H   0  0  0  0  0  0  0  0  0  0  0  0
   37.2990   30.7200   46.8080 H   0  0  0  0  0  0  0  0  0  0  0  0
   37.9700   32.2720   48.0850 C   0  0  0  0  0  0  0  0  0  0  0  0
   38.8230   32.6050   46.8780 C   0  0  0  0  0  0  0  0  0  0  0  0
   40.1050   33.3090   47.2850 C   0  0  0  0  0  0  0  0  0  0  0  0
   39.7310   34.4170   48.2200 C   0  0  0  0  0  0  0  0  0  0  0  0
   39.2460   33.8360   49.5190 C   0  0  0  0  0  0  0  0  0  0  0  0
   38.6840   32.4600   49.3930 C   0  0  0  0  0  0  0  0  0  0  0  0
  1  7  1  6  0  0  0
  1  2  1  0  0  0  0
  2  9  1  0  0  0  0
  2  3  1  0  0  0  0
  3 11  1  0  0  0  0
  3 10  1  0  0  0  0
  4 12  1  0  0  0  0
  4  3  1  0  0  0  0
  4 13  1  0  0  0  0
  5  4  1  0  0  0  0
  6 16  1  6  0  0  0
  6  1  1  0  0  0  0
  6  5  1  0  0  0  0
  8  2  1  0  0  0  0
 14  5  1  0  0  0  0
 15  5  1  0  0  0  0
 17 23  1  0  0  0  0
 18 17  1  0  0  0  0
 18  1  1  0  0  0  0
 19 18  2  0  0  0  0
 20 21  2  0  0  0  0
 20 19  1  0  0  0  0
 21 22  1  0  0  0  0
 22 17  2  0  0  0  0
 24 19  1  0  0  0  0
 25 21  1  0  0  0  0
 26  6  1  0  0  0  0
 26 27  1  0  0  0  0
 28 26  1  0  0  0  0
 29 32  1  0  0  0  0
 29 30  1  0  0  0  0
 29 26  1  0  0  0  0
 31 29  1  0  0  0  0
 32 37  1  0  0  0  0
 33 34  1  0  0  0  0
 33 32  1  0  0  0  0
 34 35  1  0  0  0  0
 35 36  1  0  0  0  0
 37 36  1  0  0  0  0
M  END
>  <minimizedAffinity>
-5.41394281

>  <minimizedRMSD>
2.84400201

$$$$
