
 OpenBabel03272500313D

 25 27  0  0  0  0  0  0  0  0999 V2000
   36.3330   30.4920   46.3780 Cl  0  0  0  0  0  0  0  0  0  0  0  0
   36.7810   30.5940   48.0750 C   0  0  0  0  0  0  0  0  0  0  0  0
   38.0140   31.1250   48.3360 C   0  0  0  0  0  0  0  0  0  0  0  0
   38.4070   31.2220   49.6770 C   0  0  0  0  0  0  0  0  0  0  0  0
   37.5400   30.7830   50.6590 C   0  0  0  0  0  0  0  0  0  0  0  0
   36.3160   30.2610   50.3060 C   0  0  0  0  0  0  0  0  0  0  0  0
   35.8850   30.1440   49.0170 C   0  0  0  0  0  0  0  0  0  0  0  0
   39.3800   31.6390   49.9110 H   0  0  0  0  0  0  0  0  0  0  0  0
   37.8970   30.8820   51.6830 H   0  0  0  0  0  0  0  0  0  0  0  0
   35.7090   29.9440   51.1410 H   0  0  0  0  0  0  0  0  0  0  0  0
   40.0400   33.3160   46.2430 C   0  0  0  0  0  0  0  0  0  0  0  0
   40.5830   32.4760   45.2700 C   0  0  0  0  0  0  0  0  0  0  0  0
   40.2340   31.1260   45.3490 C   0  0  0  0  0  0  0  0  0  0  0  0
   39.4020   30.7160   46.3510 N   0  0  0  0  0  0  0  0  0  0  0  0
   38.9060   31.5810   47.2680 C   0  0  0  0  0  0  0  0  0  0  0  0
   39.2260   32.8850   47.2130 N   0  0  0  0  0  0  0  0  0  0  0  0
   40.3110   34.3670   46.1820 H   0  0  0  0  0  0  0  0  0  0  0  0
   41.2390   32.8500   44.4940 H   0  0  0  0  0  0  0  0  0  0  0  0
   40.6240   30.4190   44.6200 H   0  0  0  0  0  0  0  0  0  0  0  0
   34.5520   29.5730   48.6790 C   0  0  0  0  0  0  0  0  0  0  0  0
   34.1710   30.0180   47.2970 C   0  0  0  0  0  0  0  0  0  0  0  0
   32.9100   29.2510   46.9410 C   0  0  0  0  0  0  0  0  0  0  0  0
   33.4210   27.8480   46.6470 C   0  0  0  0  0  0  0  0  0  0  0  0
   34.1240   27.2370   47.8010 C   0  0  0  0  0  0  0  0  0  0  0  0
   34.4950   28.1260   48.9310 C   0  0  0  0  0  0  0  0  0  0  0  0
  1  2  1  0  0  0  0
  2  3  2  0  0  0  0
  2  7  1  0  0  0  0
  3  4  1  0  0  0  0
  4  8  1  0  0  0  0
  4  5  2  0  0  0  0
  5  9  1  0  0  0  0
  6  5  1  0  0  0  0
  6 10  1  0  0  0  0
  7  6  2  0  0  0  0
 11 16  1  0  0  0  0
 12 13  1  0  0  0  0
 12 11  2  0  0  0  0
 13 14  2  0  0  0  0
 14 15  1  0  0  0  0
 15  3  1  0  0  0  0
 16 15  2  0  0  0  0
 17 11  1  0  0  0  0
 18 12  1  0  0  0  0
 19 13  1  0  0  0  0
 20 25  1  0  0  0  0
 20  7  1  0  0  0  0
 21 20  1  0  0  0  0
 22 21  1  0  0  0  0
 23 22  1  0  0  0  0
 23 24  1  0  0  0  0
 24 25  1  0  0  0  0
M  END
>  <minimizedAffinity>
-6.79282093

>  <minimizedRMSD>
0.881133556

$$$$
