
 OpenBabel03272507373D

 16 17  0  0  0  0  0  0  0  0999 V2000
   37.9960   27.1940   34.9720 C   0  0  0  0  0  0  0  0  0  0  0  0
   38.2370   25.8250   35.0820 C   0  0  0  0  0  0  0  0  0  0  0  0
   37.7740   24.9770   34.0810 C   0  0  0  0  0  0  0  0  0  0  0  0
   37.0950   25.5460   33.0320 N   0  0  0  0  0  0  0  0  0  0  0  0
   36.8750   26.8800   32.9510 C   0  0  0  0  0  0  0  0  0  0  0  0
   37.3280   27.6920   33.9220 N   0  0  0  0  0  0  0  0  0  0  0  0
   37.8860   23.9160   34.0370 H   0  0  0  0  0  0  0  0  0  0  0  0
   36.3350   27.2910   32.1050 H   0  0  0  0  0  0  0  0  0  0  0  0
   38.9680   25.1660   36.2010 C   0  0  0  0  0  3  0  0  0  0  0  0
   37.9730   24.6580   37.1700 C   0  0  0  0  0  2  0  0  0  0  0  0
   38.2990   23.3840   37.8720 C   0  0  0  0  0  2  0  0  0  0  0  0
   39.6500   22.8070   37.5430 C   0  0  0  0  0  2  0  0  0  0  0  0
   39.7160   22.7780   36.0170 C   0  0  0  0  0  2  0  0  0  0  0  0
   39.9510   24.2180   35.6270 C   0  0  0  0  0  2  0  0  0  0  0  0
   38.5230   27.8830   36.0450 O   0  0  0  0  0  0  0  0  0  0  0  0
   38.0240   28.7230   36.3290 H   0  0  0  0  0  0  0  0  0  0  0  0
  1  2  1  0  0  0  0
  1 15  1  0  0  0  0
  2  9  1  0  0  0  0
  3  2  2  0  0  0  0
  4  3  1  0  0  0  0
  5  4  2  0  0  0  0
  5  6  1  0  0  0  0
  6  1  2  0  0  0  0
  7  3  1  0  0  0  0
  8  5  1  0  0  0  0
  9 10  1  0  0  0  0
 10 11  1  0  0  0  0
 12 11  1  0  0  0  0
 13 12  1  0  0  0  0
 14 13  1  0  0  0  0
 14  9  1  0  0  0  0
 15 16  1  0  0  0  0
M  END
>  <minimizedAffinity>
-4.22852135

$$$$

 OpenBabel03272507373D

 16 17  0  0  0  0  0  0  0  0999 V2000
   39.3020   23.0080   37.1990 C   0  0  0  0  0  0  0  0  0  0  0  0
   39.3340   23.9520   36.1750 C   0  0  0  0  0  0  0  0  0  0  0  0
   40.5210   24.1490   35.4760 C   0  0  0  0  0  0  0  0  0  0  0  0
   41.6060   23.3920   35.8440 N   0  0  0  0  0  0  0  0  0  0  0  0
   41.5460   22.4810   36.8430 C   0  0  0  0  0  0  0  0  0  0  0  0
   40.3940   22.2970   37.5120 N   0  0  0  0  0  0  0  0  0  0  0  0
   40.6870   24.8350   34.6740 H   0  0  0  0  0  0  0  0  0  0  0  0
   42.4250   21.9020   37.1030 H   0  0  0  0  0  0  0  0  0  0  0  0
   38.1830   24.7950   35.7430 C   0  0  0  0  0  3  0  0  0  0  0  0
   38.3530   26.1460   36.3200 C   0  0  0  0  0  2  0  0  0  0  0  0
   37.8860   27.2980   35.4980 C   0  0  0  0  0  2  0  0  0  0  0  0
   37.2310   26.9230   34.1960 C   0  0  0  0  0  2  0  0  0  0  0  0
   38.2020   25.9570   33.5190 C   0  0  0  0  0  2  0  0  0  0  0  0
   38.0250   24.6620   34.2760 C   0  0  0  0  0  2  0  0  0  0  0  0
   38.0530   22.9420   37.7820 O   0  0  0  0  0  0  0  0  0  0  0  0
   38.0290   22.7040   38.7710 H   0  0  0  0  0  0  0  0  0  0  0  0
  1  6  1  0  0  0  0
  1 15  1  0  0  0  0
  2  1  2  0  0  0  0
  3  4  2  0  0  0  0
  3  2  1  0  0  0  0
  4  5  1  0  0  0  0
  5  8  1  0  0  0  0
  5  6  2  0  0  0  0
  7  3  1  0  0  0  0
  9  2  1  0  0  0  0
  9 10  1  0  0  0  0
 11 10  1  0  0  0  0
 12 11  1  0  0  0  0
 13 12  1  0  0  0  0
 13 14  1  0  0  0  0
 14  9  1  0  0  0  0
 15 16  1  0  0  0  0
M  END
>  <minimizedAffinity>
-4.20586014

$$$$

 OpenBabel03272507373D

 16 17  0  0  0  0  0  0  0  0999 V2000
   42.2060   26.1780   34.5800 C   0  0  0  0  0  0  0  0  0  0  0  0
   40.8270   26.0060   34.6910 C   0  0  0  0  0  0  0  0  0  0  0  0
   40.3330   24.7630   35.0740 C   0  0  0  0  0  0  0  0  0  0  0  0
   41.2440   23.7660   35.3210 N   0  0  0  0  0  0  0  0  0  0  0  0
   42.5790   23.9630   35.2050 C   0  0  0  0  0  0  0  0  0  0  0  0
   43.0480   25.1670   34.8350 N   0  0  0  0  0  0  0  0  0  0  0  0
   39.3070   24.4910   35.1980 H   0  0  0  0  0  0  0  0  0  0  0  0
   43.2670   23.1490   35.4100 H   0  0  0  0  0  0  0  0  0  0  0  0
   39.8030   27.0570   34.4330 C   0  0  0  0  0  3  0  0  0  0  0  0
   39.2090   26.8100   33.1020 C   0  0  0  0  0  2  0  0  0  0  0  0
   37.7640   27.1340   32.9340 C   0  0  0  0  0  2  0  0  0  0  0  0
   37.1060   27.7410   34.1440 C   0  0  0  0  0  2  0  0  0  0  0  0
   37.4630   26.8150   35.3060 C   0  0  0  0  0  2  0  0  0  0  0  0
   38.9070   27.1400   35.6090 C   0  0  0  0  0  2  0  0  0  0  0  0
   42.5200   27.4640   34.1930 O   0  0  0  0  0  0  0  0  0  0  0  0
   43.3600   27.5720   33.6280 H   0  0  0  0  0  0  0  0  0  0  0  0
  1  2  2  0  0  0  0
  1  6  1  0  0  0  0
  2  3  1  0  0  0  0
  3  7  1  0  0  0  0
  3  4  2  0  0  0  0
  5  4  1  0  0  0  0
  5  8  1  0  0  0  0
  6  5  2  0  0  0  0
  9  2  1  0  0  0  0
  9 14  1  0  0  0  0
 10  9  1  0  0  0  0
 11 10  1  0  0  0  0
 11 12  1  0  0  0  0
 12 13  1  0  0  0  0
 13 14  1  0  0  0  0
 15  1  1  0  0  0  0
 16 15  1  0  0  0  0
M  END
>  <minimizedAffinity>
-4.14153767

$$$$

 OpenBabel03272507373D

 16 17  0  0  0  0  0  0  0  0999 V2000
   39.9590   23.7350   36.1710 C   0  0  0  0  0  0  0  0  0  0  0  0
   38.9770   24.7100   36.0050 C   0  0  0  0  0  0  0  0  0  0  0  0
   37.9940   24.8490   36.9800 C   0  0  0  0  0  0  0  0  0  0  0  0
   38.0500   24.0050   38.0610 N   0  0  0  0  0  0  0  0  0  0  0  0
   39.0170   23.0670   38.1970 C   0  0  0  0  0  0  0  0  0  0  0  0
   39.9630   22.9400   37.2500 N   0  0  0  0  0  0  0  0  0  0  0  0
   37.1870   25.5480   36.9810 H   0  0  0  0  0  0  0  0  0  0  0  0
   39.0270   22.4190   39.0670 H   0  0  0  0  0  0  0  0  0  0  0  0
   38.8780   25.6450   34.8490 C   0  0  0  0  0  3  0  0  0  0  0  0
   37.8890   25.1010   33.8940 C   0  0  0  0  0  2  0  0  0  0  0  0
   37.0530   26.0850   33.1500 C   0  0  0  0  0  2  0  0  0  0  0  0
   37.3760   27.5290   33.4260 C   0  0  0  0  0  2  0  0  0  0  0  0
   37.3830   27.6580   34.9480 C   0  0  0  0  0  2  0  0  0  0  0  0
   38.6840   27.0180   35.3700 C   0  0  0  0  0  2  0  0  0  0  0  0
   40.8490   23.7350   35.1170 O   0  0  0  0  0  0  0  0  0  0  0  0
   41.2600   22.8370   34.8740 H   0  0  0  0  0  0  0  0  0  0  0  0
  1  6  1  0  0  0  0
  2  1  2  0  0  0  0
  2  3  1  0  0  0  0
  3  7  1  0  0  0  0
  3  4  2  0  0  0  0
  4  5  1  0  0  0  0
  5  8  1  0  0  0  0
  6  5  2  0  0  0  0
  9 14  1  0  0  0  0
  9  2  1  0  0  0  0
 10  9  1  0  0  0  0
 11 12  1  0  0  0  0
 11 10  1  0  0  0  0
 12 13  1  0  0  0  0
 13 14  1  0  0  0  0
 15  1  1  0  0  0  0
 16 15  1  0  0  0  0
M  END
>  <minimizedAffinity>
-4.04970026

$$$$

 OpenBabel03272507373D

 16 17  0  0  0  0  0  0  0  0999 V2000
   38.3750   26.3760   36.0250 C   0  0  0  0  0  0  0  0  0  0  0  0
   38.1950   26.2740   34.6470 C   0  0  0  0  0  0  0  0  0  0  0  0
   38.0020   25.0160   34.0840 C   0  0  0  0  0  0  0  0  0  0  0  0
   38.0020   23.9350   34.9310 N   0  0  0  0  0  0  0  0  0  0  0  0
   38.1800   24.0650   36.2670 C   0  0  0  0  0  0  0  0  0  0  0  0
   38.3650   25.2840   36.8020 N   0  0  0  0  0  0  0  0  0  0  0  0
   37.8520   24.7920   33.0510 H   0  0  0  0  0  0  0  0  0  0  0  0
   38.1730   23.1860   36.9030 H   0  0  0  0  0  0  0  0  0  0  0  0
   38.1870   27.4170   33.6910 C   0  0  0  0  0  3  0  0  0  0  0  0
   39.0840   27.0870   32.5630 C   0  0  0  0  0  2  0  0  0  0  0  0
   38.6920   27.5870   31.2160 C   0  0  0  0  0  2  0  0  0  0  0  0
   37.4470   28.4330   31.1910 C   0  0  0  0  0  2  0  0  0  0  0  0
   36.3950   27.6240   31.9470 C   0  0  0  0  0  2  0  0  0  0  0  0
   36.7800   27.7780   33.4000 C   0  0  0  0  0  2  0  0  0  0  0  0
   38.5520   27.6890   36.4110 O   0  0  0  0  0  0  0  0  0  0  0  0
   39.1490   27.8440   37.2210 H   0  0  0  0  0  0  0  0  0  0  0  0
  1 15  1  0  0  0  0
  1  6  1  0  0  0  0
  2  1  2  0  0  0  0
  3  2  1  0  0  0  0
  3  4  2  0  0  0  0
  4  5  1  0  0  0  0
  5  6  2  0  0  0  0
  5  8  1  0  0  0  0
  7  3  1  0  0  0  0
  9  2  1  0  0  0  0
 10  9  1  0  0  0  0
 11 10  1  0  0  0  0
 12 11  1  0  0  0  0
 12 13  1  0  0  0  0
 13 14  1  0  0  0  0
 14  9  1  0  0  0  0
 15 16  1  0  0  0  0
M  END
>  <minimizedAffinity>
-4.0073266

$$$$

 OpenBabel03272507373D

 16 17  0  0  0  0  0  0  0  0999 V2000
   36.4720   24.0830   32.1080 C   0  0  0  0  0  0  0  0  0  0  0  0
   36.9930   25.2800   32.5960 C   0  0  0  0  0  0  0  0  0  0  0  0
   36.4530   26.4810   32.1470 C   0  0  0  0  0  0  0  0  0  0  0  0
   35.4270   26.4160   31.2370 N   0  0  0  0  0  0  0  0  0  0  0  0
   34.9410   25.2370   30.7810 C   0  0  0  0  0  0  0  0  0  0  0  0
   35.4680   24.0810   31.2200 N   0  0  0  0  0  0  0  0  0  0  0  0
   36.7530   27.4650   32.4340 H   0  0  0  0  0  0  0  0  0  0  0  0
   34.1290   25.2270   30.0620 H   0  0  0  0  0  0  0  0  0  0  0  0
   38.1030   25.3990   33.5820 C   0  0  0  0  0  3  0  0  0  0  0  0
   39.2270   26.1080   32.9340 C   0  0  0  0  0  2  0  0  0  0  0  0
   40.0460   27.0100   33.7920 C   0  0  0  0  0  2  0  0  0  0  0  0
   39.6540   27.0290   35.2450 C   0  0  0  0  0  2  0  0  0  0  0  0
   38.1450   27.2700   35.2530 C   0  0  0  0  0  2  0  0  0  0  0  0
   37.5550   25.9400   34.8470 C   0  0  0  0  0  2  0  0  0  0  0  0
   37.1200   22.9950   32.6560 O   0  0  0  0  0  0  0  0  0  0  0  0
   37.1920   22.1690   32.0650 H   0  0  0  0  0  0  0  0  0  0  0  0
  1  2  1  0  0  0  0
  1 15  1  0  0  0  0
  2  9  1  0  0  0  0
  3  7  1  0  0  0  0
  3  2  2  0  0  0  0
  4  3  1  0  0  0  0
  5  6  1  0  0  0  0
  5  4  2  0  0  0  0
  6  1  2  0  0  0  0
  8  5  1  0  0  0  0
  9 14  1  0  0  0  0
 10  9  1  0  0  0  0
 10 11  1  0  0  0  0
 11 12  1  0  0  0  0
 12 13  1  0  0  0  0
 14 13  1  0  0  0  0
 16 15  1  0  0  0  0
M  END
>  <minimizedAffinity>
-3.97002649

$$$$

 OpenBabel03272507373D

 16 17  0  0  0  0  0  0  0  0999 V2000
   38.6500   26.4140   36.0080 C   0  0  0  0  0  0  0  0  0  0  0  0
   39.4090   26.1250   34.8750 C   0  0  0  0  0  0  0  0  0  0  0  0
   39.5510   24.7980   34.4810 C   0  0  0  0  0  0  0  0  0  0  0  0
   38.9290   23.8400   35.2430 N   0  0  0  0  0  0  0  0  0  0  0  0
   38.1980   24.1510   36.3390 C   0  0  0  0  0  0  0  0  0  0  0  0
   38.0650   25.4360   36.7120 N   0  0  0  0  0  0  0  0  0  0  0  0
   40.1000   24.4340   33.6400 H   0  0  0  0  0  0  0  0  0  0  0  0
   37.7210   23.3650   36.9150 H   0  0  0  0  0  0  0  0  0  0  0  0
   40.1010   27.1300   34.0200 C   0  0  0  0  0  3  0  0  0  0  0  0
   41.5590   26.9110   34.1320 C   0  0  0  0  0  2  0  0  0  0  0  0
   42.3780   27.1640   32.9130 C   0  0  0  0  0  2  0  0  0  0  0  0
   41.6070   27.6810   31.7280 C   0  0  0  0  0  2  0  0  0  0  0  0
   40.4270   26.7250   31.5650 C   0  0  0  0  0  2  0  0  0  0  0  0
   39.4790   27.1130   32.6760 C   0  0  0  0  0  2  0  0  0  0  0  0
   38.6140   27.7720   36.2530 O   0  0  0  0  0  0  0  0  0  0  0  0
   38.5450   28.0520   37.2290 H   0  0  0  0  0  0  0  0  0  0  0  0
  1 15  1  0  0  0  0
  1  6  1  0  0  0  0
  2  1  2  0  0  0  0
  3  2  1  0  0  0  0
  3  4  2  0  0  0  0
  4  5  1  0  0  0  0
  5  6  2  0  0  0  0
  5  8  1  0  0  0  0
  7  3  1  0  0  0  0
  9 10  1  0  0  0  0
  9  2  1  0  0  0  0
 11 10  1  0  0  0  0
 12 11  1  0  0  0  0
 13 12  1  0  0  0  0
 13 14  1  0  0  0  0
 14  9  1  0  0  0  0
 15 16  1  0  0  0  0
M  END
>  <minimizedAffinity>
-3.93434167

$$$$

 OpenBabel03272507373D

 16 17  0  0  0  0  0  0  0  0999 V2000
   37.7730   25.1970   33.9880 C   0  0  0  0  0  0  0  0  0  0  0  0
   38.4590   24.9580   35.1780 C   0  0  0  0  0  0  0  0  0  0  0  0
   38.5660   25.9830   36.1120 C   0  0  0  0  0  0  0  0  0  0  0  0
   37.9830   27.1870   35.8010 N   0  0  0  0  0  0  0  0  0  0  0  0
   37.3220   27.3910   34.6370 C   0  0  0  0  0  0  0  0  0  0  0  0
   37.2240   26.3940   33.7400 N   0  0  0  0  0  0  0  0  0  0  0  0
   39.0580   25.9400   37.0580 H   0  0  0  0  0  0  0  0  0  0  0  0
   36.8750   28.3570   34.4280 H   0  0  0  0  0  0  0  0  0  0  0  0
   39.1060   23.6700   35.5560 C   0  0  0  0  0  3  0  0  0  0  0  0
   40.5720   23.8540   35.5080 C   0  0  0  0  0  2  0  0  0  0  0  0
   41.3830   23.1100   36.5130 C   0  0  0  0  0  2  0  0  0  0  0  0
   40.5930   22.2020   37.4180 C   0  0  0  0  0  2  0  0  0  0  0  0
   39.4580   23.0660   37.9660 C   0  0  0  0  0  2  0  0  0  0  0  0
   38.4900   23.1850   36.8130 C   0  0  0  0  0  2  0  0  0  0  0  0
   37.7640   24.0780   33.1820 O   0  0  0  0  0  0  0  0  0  0  0  0
   37.7570   24.2450   32.1780 H   0  0  0  0  0  0  0  0  0  0  0  0
  1  2  1  0  0  0  0
  2  9  1  0  0  0  0
  2  3  2  0  0  0  0
  3  7  1  0  0  0  0
  4  3  1  0  0  0  0
  5  4  2  0  0  0  0
  6  1  2  0  0  0  0
  6  5  1  0  0  0  0
  8  5  1  0  0  0  0
  9 14  1  0  0  0  0
 10  9  1  0  0  0  0
 10 11  1  0  0  0  0
 11 12  1  0  0  0  0
 12 13  1  0  0  0  0
 14 13  1  0  0  0  0
 15  1  1  0  0  0  0
 16 15  1  0  0  0  0
M  END
>  <minimizedAffinity>
-3.92339087

$$$$

 OpenBabel03272507373D

 16 17  0  0  0  0  0  0  0  0999 V2000
   37.7060   25.7980   33.9600 C   0  0  0  0  0  0  0  0  0  0  0  0
   38.1370   24.6390   34.6020 C   0  0  0  0  0  0  0  0  0  0  0  0
   37.9510   23.4120   33.9730 C   0  0  0  0  0  0  0  0  0  0  0  0
   37.3450   23.4160   32.7410 N   0  0  0  0  0  0  0  0  0  0  0  0
   36.9370   24.5590   32.1410 C   0  0  0  0  0  0  0  0  0  0  0  0
   37.1200   25.7400   32.7560 N   0  0  0  0  0  0  0  0  0  0  0  0
   38.2310   22.4510   34.3460 H   0  0  0  0  0  0  0  0  0  0  0  0
   36.4620   24.5210   31.1660 H   0  0  0  0  0  0  0  0  0  0  0  0
   38.7980   24.5870   35.9360 C   0  0  0  0  0  3  0  0  0  0  0  0
   37.7740   24.2530   36.9500 C   0  0  0  0  0  2  0  0  0  0  0  0
   38.2070   23.4090   38.0990 C   0  0  0  0  0  2  0  0  0  0  0  0
   39.6700   23.0550   38.1100 C   0  0  0  0  0  2  0  0  0  0  0  0
   39.9630   22.5050   36.7150 C   0  0  0  0  0  2  0  0  0  0  0  0
   40.0020   23.7300   35.8330 C   0  0  0  0  0  2  0  0  0  0  0  0
   37.9670   26.9190   34.7220 O   0  0  0  0  0  0  0  0  0  0  0  0
   37.3110   27.6910   34.6270 H   0  0  0  0  0  0  0  0  0  0  0  0
  1  2  1  0  0  0  0
  1 15  1  0  0  0  0
  2  9  1  0  0  0  0
  3  7  1  0  0  0  0
  3  2  2  0  0  0  0
  4  3  1  0  0  0  0
  5  4  2  0  0  0  0
  5  6  1  0  0  0  0
  6  1  2  0  0  0  0
  8  5  1  0  0  0  0
  9 10  1  0  0  0  0
 10 11  1  0  0  0  0
 11 12  1  0  0  0  0
 13 12  1  0  0  0  0
 14  9  1  0  0  0  0
 14 13  1  0  0  0  0
 16 15  1  0  0  0  0
M  END
>  <minimizedAffinity>
-3.91086841

$$$$
