
 OpenBabel03272504493D

 24 26  0  0  0  0  0  0  0  0999 V2000
   37.2120   27.5070   34.8410 C   0  0  0  0  0  0  0  0  0  0  0  0
   36.9140   27.1680   33.5100 C   0  0  0  0  0  0  0  0  0  0  0  0
   37.2320   25.8770   33.1130 C   0  0  0  0  0  0  0  0  0  0  0  0
   37.8000   25.0270   34.0110 N   0  0  0  0  0  0  0  0  0  0  0  0
   38.0690   25.3910   35.2770 C   0  0  0  0  0  0  0  0  0  0  0  0
   37.7740   26.6390   35.6980 N   0  0  0  0  0  0  0  0  0  0  0  0
   36.9860   28.5110   35.2190 H   0  0  0  0  0  0  0  0  0  0  0  0
   37.0130   25.5930   32.0970 H   0  0  0  0  0  0  0  0  0  0  0  0
   38.6780   24.4470   36.1990 C   0  0  0  0  0  0  0  0  0  0  0  0
   38.1490   24.2740   37.4710 C   0  0  0  0  0  0  0  0  0  0  0  0
   38.7080   23.3840   38.3650 C   0  0  0  0  0  0  0  0  0  0  0  0
   39.8100   22.6870   37.9170 C   0  0  0  0  0  0  0  0  0  0  0  0
   40.3610   22.8380   36.6510 C   0  0  0  0  0  0  0  0  0  0  0  0
   39.7500   23.7370   35.8260 N   0  0  0  0  0  0  0  0  0  0  0  0
   37.2810   24.8640   37.7400 H   0  0  0  0  0  0  0  0  0  0  0  0
   38.2990   23.2540   39.3440 H   0  0  0  0  0  0  0  0  0  0  0  0
   40.2890   21.9740   38.5800 H   0  0  0  0  0  0  0  0  0  0  0  0
   41.2120   22.2810   36.3460 H   0  0  0  0  0  0  0  0  0  0  0  0
   36.2960   28.1850   32.6380 C   0  0  0  0  0  3  0  0  0  0  0  0
   35.8980   29.3870   33.4590 C   0  0  0  0  0  2  0  0  0  0  0  0
   35.5570   30.5780   32.5960 C   0  0  0  0  0  2  0  0  0  0  0  0
   35.3650   30.1350   31.1700 C   0  0  0  0  0  2  0  0  0  0  0  0
   36.6590   29.5910   30.6210 C   0  0  0  0  0  2  0  0  0  0  0  0
   37.2680   28.5480   31.5390 C   0  0  0  0  0  2  0  0  0  0  0  0
  1  7  1  0  0  0  0
  1  6  1  0  0  0  0
  2  1  2  0  0  0  0
  3  2  1  0  0  0  0
  3  4  2  0  0  0  0
  4  5  1  0  0  0  0
  5  6  2  0  0  0  0
  5  9  1  0  0  0  0
  8  3  1  0  0  0  0
  9 10  1  0  0  0  0
 10 15  1  0  0  0  0
 10 11  2  0  0  0  0
 11 16  1  0  0  0  0
 12 11  1  0  0  0  0
 12 17  1  0  0  0  0
 13 12  2  0  0  0  0
 14  9  2  0  0  0  0
 14 13  1  0  0  0  0
 18 13  1  0  0  0  0
 19 20  1  0  0  0  0
 19  2  1  0  0  0  0
 21 20  1  0  0  0  0
 22 21  1  0  0  0  0
 23 22  1  0  0  0  0
 23 24  1  0  0  0  0
 24 19  1  0  0  0  0
M  END
>  <minimizedAffinity>
-5.35797071

$$$$

 OpenBabel03272504493D

 24 26  0  0  0  0  0  0  0  0999 V2000
   37.9880   26.8920   35.7420 C   0  0  0  0  0  0  0  0  0  0  0  0
   38.2160   25.5760   35.3060 C   0  0  0  0  0  0  0  0  0  0  0  0
   37.7830   25.2650   34.0240 C   0  0  0  0  0  0  0  0  0  0  0  0
   37.1770   26.2260   33.2760 N   0  0  0  0  0  0  0  0  0  0  0  0
   36.9780   27.4750   33.7310 C   0  0  0  0  0  0  0  0  0  0  0  0
   37.3850   27.8130   34.9720 N   0  0  0  0  0  0  0  0  0  0  0  0
   38.3050   27.2040   36.7440 H   0  0  0  0  0  0  0  0  0  0  0  0
   37.9460   24.2610   33.6670 H   0  0  0  0  0  0  0  0  0  0  0  0
   36.3250   28.4660   32.8930 C   0  0  0  0  0  0  0  0  0  0  0  0
   36.8630   28.7980   31.6560 C   0  0  0  0  0  0  0  0  0  0  0  0
   36.2630   29.7360   30.8430 C   0  0  0  0  0  0  0  0  0  0  0  0
   35.1090   30.3120   31.3300 C   0  0  0  0  0  0  0  0  0  0  0  0
   34.5470   30.0010   32.5610 C   0  0  0  0  0  0  0  0  0  0  0  0
   35.2000   29.0640   33.3070 N   0  0  0  0  0  0  0  0  0  0  0  0
   37.7740   28.2960   31.3530 H   0  0  0  0  0  0  0  0  0  0  0  0
   36.6810   29.9900   29.8910 H   0  0  0  0  0  0  0  0  0  0  0  0
   34.5960   31.0570   30.7290 H   0  0  0  0  0  0  0  0  0  0  0  0
   33.6560   30.4690   32.8990 H   0  0  0  0  0  0  0  0  0  0  0  0
   38.8850   24.6300   36.2180 C   0  0  0  0  0  3  0  0  0  0  0  0
   38.0890   24.5020   37.4940 C   0  0  0  0  0  2  0  0  0  0  0  0
   38.5380   23.3270   38.3300 C   0  0  0  0  0  2  0  0  0  0  0  0
   39.8710   22.8320   37.8360 C   0  0  0  0  0  2  0  0  0  0  0  0
   39.7370   22.3050   36.4310 C   0  0  0  0  0  2  0  0  0  0  0  0
   39.0470   23.3000   35.5170 C   0  0  0  0  0  2  0  0  0  0  0  0
  1  7  1  0  0  0  0
  2  1  1  0  0  0  0
  2 19  1  0  0  0  0
  3  2  2  0  0  0  0
  4  5  2  0  0  0  0
  4  3  1  0  0  0  0
  5  6  1  0  0  0  0
  6  1  2  0  0  0  0
  8  3  1  0  0  0  0
  9 14  1  0  0  0  0
  9  5  1  0  0  0  0
 10  9  2  0  0  0  0
 11 12  2  0  0  0  0
 11 10  1  0  0  0  0
 12 13  1  0  0  0  0
 13 18  1  0  0  0  0
 13 14  2  0  0  0  0
 15 10  1  0  0  0  0
 16 11  1  0  0  0  0
 17 12  1  0  0  0  0
 19 20  1  0  0  0  0
 20 21  1  0  0  0  0
 22 21  1  0  0  0  0
 23 22  1  0  0  0  0
 24 19  1  0  0  0  0
 24 23  1  0  0  0  0
M  END
>  <minimizedAffinity>
-5.23463869

$$$$

 OpenBabel03272504493D

 24 26  0  0  0  0  0  0  0  0999 V2000
   37.1640   25.9960   33.3520 C   0  0  0  0  0  0  0  0  0  0  0  0
   36.9400   27.3110   33.7960 C   0  0  0  0  0  0  0  0  0  0  0  0
   37.4090   27.6250   35.0640 C   0  0  0  0  0  0  0  0  0  0  0  0
   38.0440   26.6680   35.7930 N   0  0  0  0  0  0  0  0  0  0  0  0
   38.2380   25.4200   35.3320 C   0  0  0  0  0  0  0  0  0  0  0  0
   37.7960   25.0800   34.1030 N   0  0  0  0  0  0  0  0  0  0  0  0
   36.8190   25.6830   32.3600 H   0  0  0  0  0  0  0  0  0  0  0  0
   37.2490   28.6270   35.4270 H   0  0  0  0  0  0  0  0  0  0  0  0
   38.9220   24.4330   36.1490 C   0  0  0  0  0  0  0  0  0  0  0  0
   40.0980   23.8470   35.6980 C   0  0  0  0  0  0  0  0  0  0  0  0
   40.7660   22.9070   36.4550 C   0  0  0  0  0  0  0  0  0  0  0  0
   40.1990   22.5940   37.6720 C   0  0  0  0  0  0  0  0  0  0  0  0
   39.0260   23.1630   38.1500 C   0  0  0  0  0  0  0  0  0  0  0  0
   38.4250   24.0840   37.3420 N   0  0  0  0  0  0  0  0  0  0  0  0
   40.4720   24.1520   34.7280 H   0  0  0  0  0  0  0  0  0  0  0  0
   41.6710   22.4570   36.1040 H   0  0  0  0  0  0  0  0  0  0  0  0
   40.6840   21.8600   38.3080 H   0  0  0  0  0  0  0  0  0  0  0  0
   38.6230   22.8940   39.0940 H   0  0  0  0  0  0  0  0  0  0  0  0
   36.2370   28.2530   32.9040 C   0  0  0  0  0  3  0  0  0  0  0  0
   35.8560   29.4940   33.6730 C   0  0  0  0  0  2  0  0  0  0  0  0
   35.4240   30.6180   32.7630 C   0  0  0  0  0  2  0  0  0  0  0  0
   35.1550   30.0790   31.3830 C   0  0  0  0  0  2  0  0  0  0  0  0
   36.4270   29.5360   30.7850 C   0  0  0  0  0  2  0  0  0  0  0  0
   37.1260   28.5710   31.7240 C   0  0  0  0  0  2  0  0  0  0  0  0
  1  2  2  0  0  0  0
  1  6  1  0  0  0  0
  2  3  1  0  0  0  0
  3  8  1  0  0  0  0
  3  4  2  0  0  0  0
  5  4  1  0  0  0  0
  5  9  1  0  0  0  0
  6  5  2  0  0  0  0
  7  1  1  0  0  0  0
  9 14  1  0  0  0  0
 10  9  2  0  0  0  0
 10 11  1  0  0  0  0
 11 12  2  0  0  0  0
 12 13  1  0  0  0  0
 12 17  1  0  0  0  0
 13 18  1  0  0  0  0
 14 13  2  0  0  0  0
 15 10  1  0  0  0  0
 16 11  1  0  0  0  0
 19 20  1  0  0  0  0
 19  2  1  0  0  0  0
 21 20  1  0  0  0  0
 22 21  1  0  0  0  0
 23 22  1  0  0  0  0
 23 24  1  0  0  0  0
 24 19  1  0  0  0  0
M  END
>  <minimizedAffinity>
-5.16115332

$$$$

 OpenBabel03272504493D

 24 26  0  0  0  0  0  0  0  0999 V2000
   37.3130   24.2000   31.0110 C   0  0  0  0  0  0  0  0  0  0  0  0
   36.0690   23.5540   31.1070 C   0  0  0  0  0  0  0  0  0  0  0  0
   34.9480   24.3720   31.1470 C   0  0  0  0  0  0  0  0  0  0  0  0
   35.1080   25.7220   31.0910 N   0  0  0  0  0  0  0  0  0  0  0  0
   36.3190   26.3010   30.9990 C   0  0  0  0  0  0  0  0  0  0  0  0
   37.4300   25.5360   30.9570 N   0  0  0  0  0  0  0  0  0  0  0  0
   38.2380   23.6120   30.9750 H   0  0  0  0  0  0  0  0  0  0  0  0
   33.9820   23.9010   31.2220 H   0  0  0  0  0  0  0  0  0  0  0  0
   36.4380   27.7480   30.9420 C   0  0  0  0  0  0  0  0  0  0  0  0
   36.0430   28.5230   32.0250 C   0  0  0  0  0  0  0  0  0  0  0  0
   36.1450   29.8980   31.9950 C   0  0  0  0  0  0  0  0  0  0  0  0
   36.6600   30.4440   30.8390 C   0  0  0  0  0  0  0  0  0  0  0  0
   37.0630   29.6950   29.7410 C   0  0  0  0  0  0  0  0  0  0  0  0
   36.9300   28.3410   29.8480 N   0  0  0  0  0  0  0  0  0  0  0  0
   35.6490   28.0100   32.8940 H   0  0  0  0  0  0  0  0  0  0  0  0
   35.8400   30.4930   32.8310 H   0  0  0  0  0  0  0  0  0  0  0  0
   36.7620   31.5220   30.7630 H   0  0  0  0  0  0  0  0  0  0  0  0
   37.4540   30.1550   28.8680 H   0  0  0  0  0  0  0  0  0  0  0  0
   36.0330   22.0800   31.1600 C   0  0  0  0  0  3  0  0  0  0  0  0
   37.4340   21.5420   31.3180 C   0  0  0  0  0  2  0  0  0  0  0  0
   37.4440   20.0800   31.6940 C   0  0  0  0  0  2  0  0  0  0  0  0
   36.0810   19.4860   31.4580 C   0  0  0  0  0  2  0  0  0  0  0  0
   35.0710   20.1350   32.3700 C   0  0  0  0  0  2  0  0  0  0  0  0
   35.1310   21.6490   32.2930 C   0  0  0  0  0  2  0  0  0  0  0  0
  1  2  1  0  0  0  0
  2  3  2  0  0  0  0
  2 19  1  0  0  0  0
  3  8  1  0  0  0  0
  4  3  1  0  0  0  0
  5  4  2  0  0  0  0
  6  5  1  0  0  0  0
  6  1  2  0  0  0  0
  7  1  1  0  0  0  0
  9  5  1  0  0  0  0
  9 10  1  0  0  0  0
 10 15  1  0  0  0  0
 11 10  2  0  0  0  0
 11 16  1  0  0  0  0
 12 11  1  0  0  0  0
 13 14  1  0  0  0  0
 13 12  2  0  0  0  0
 14  9  2  0  0  0  0
 17 12  1  0  0  0  0
 18 13  1  0  0  0  0
 19 20  1  0  0  0  0
 19 24  1  0  0  0  0
 20 21  1  0  0  0  0
 22 21  1  0  0  0  0
 22 23  1  0  0  0  0
 24 23  1  0  0  0  0
M  END
>  <minimizedAffinity>
-4.95241499

$$$$

 OpenBabel03272504493D

 24 26  0  0  0  0  0  0  0  0999 V2000
   35.0850   29.0680   32.6510 C   0  0  0  0  0  0  0  0  0  0  0  0
   35.5150   29.3660   33.9560 C   0  0  0  0  0  0  0  0  0  0  0  0
   36.4360   28.4930   34.5180 C   0  0  0  0  0  0  0  0  0  0  0  0
   36.8640   27.4220   33.7960 N   0  0  0  0  0  0  0  0  0  0  0  0
   36.4280   27.1730   32.5490 C   0  0  0  0  0  0  0  0  0  0  0  0
   35.5320   28.0010   31.9700 N   0  0  0  0  0  0  0  0  0  0  0  0
   34.3590   29.7180   32.1480 H   0  0  0  0  0  0  0  0  0  0  0  0
   36.7810   28.6990   35.5180 H   0  0  0  0  0  0  0  0  0  0  0  0
   36.9150   26.0160   31.8170 C   0  0  0  0  0  0  0  0  0  0  0  0
   36.0990   24.9070   31.6430 C   0  0  0  0  0  0  0  0  0  0  0  0
   36.5390   23.7960   30.9540 C   0  0  0  0  0  0  0  0  0  0  0  0
   37.8220   23.8600   30.4550 C   0  0  0  0  0  0  0  0  0  0  0  0
   38.6620   24.9550   30.6130 C   0  0  0  0  0  0  0  0  0  0  0  0
   38.1530   26.0140   31.3070 N   0  0  0  0  0  0  0  0  0  0  0  0
   35.1040   24.9420   32.0690 H   0  0  0  0  0  0  0  0  0  0  0  0
   35.9070   22.9420   30.8210 H   0  0  0  0  0  0  0  0  0  0  0  0
   38.2190   23.0130   29.9040 H   0  0  0  0  0  0  0  0  0  0  0  0
   39.6450   24.9640   30.2130 H   0  0  0  0  0  0  0  0  0  0  0  0
   34.9720   30.5600   34.6300 C   0  0  0  0  0  3  0  0  0  0  0  0
   33.6190   30.2420   35.2180 C   0  0  0  0  0  2  0  0  0  0  0  0
   33.1520   31.3070   36.1810 C   0  0  0  0  0  2  0  0  0  0  0  0
   33.9930   32.5450   36.0160 C   0  0  0  0  0  2  0  0  0  0  0  0
   35.4220   32.2520   36.3930 C   0  0  0  0  0  2  0  0  0  0  0  0
   35.9520   31.0200   35.6840 C   0  0  0  0  0  2  0  0  0  0  0  0
  1  2  1  0  0  0  0
  2  3  2  0  0  0  0
  2 19  1  0  0  0  0
  3  8  1  0  0  0  0
  4  3  1  0  0  0  0
  5  4  2  0  0  0  0
  6  5  1  0  0  0  0
  6  1  2  0  0  0  0
  7  1  1  0  0  0  0
  9  5  1  0  0  0  0
 10  9  1  0  0  0  0
 10 15  1  0  0  0  0
 11 10  2  0  0  0  0
 12 13  2  0  0  0  0
 12 11  1  0  0  0  0
 13 14  1  0  0  0  0
 14  9  2  0  0  0  0
 16 11  1  0  0  0  0
 17 12  1  0  0  0  0
 18 13  1  0  0  0  0
 19 20  1  0  0  0  0
 19 24  1  0  0  0  0
 20 21  1  0  0  0  0
 22 21  1  0  0  0  0
 22 23  1  0  0  0  0
 24 23  1  0  0  0  0
M  END
>  <minimizedAffinity>
-4.92080116

$$$$

 OpenBabel03272504493D

 24 26  0  0  0  0  0  0  0  0999 V2000
   37.5470   25.4550   32.6900 C   0  0  0  0  0  0  0  0  0  0  0  0
   38.1950   26.6770   32.4390 C   0  0  0  0  0  0  0  0  0  0  0  0
   39.0450   27.1410   33.4330 C   0  0  0  0  0  0  0  0  0  0  0  0
   39.2040   26.4090   34.5680 N   0  0  0  0  0  0  0  0  0  0  0  0
   38.5650   25.2430   34.7690 C   0  0  0  0  0  0  0  0  0  0  0  0
   37.7300   24.7600   33.8240 N   0  0  0  0  0  0  0  0  0  0  0  0
   36.8620   25.0310   31.9460 H   0  0  0  0  0  0  0  0  0  0  0  0
   39.5540   28.0760   33.2650 H   0  0  0  0  0  0  0  0  0  0  0  0
   38.7680   24.4970   35.9990 C   0  0  0  0  0  0  0  0  0  0  0  0
   37.9740   24.7540   37.1100 C   0  0  0  0  0  0  0  0  0  0  0  0
   38.1470   24.0600   38.2890 C   0  0  0  0  0  0  0  0  0  0  0  0
   39.1430   23.1080   38.2920 C   0  0  0  0  0  0  0  0  0  0  0  0
   39.9530   22.8290   37.1990 C   0  0  0  0  0  0  0  0  0  0  0  0
   39.7190   23.5580   36.0690 N   0  0  0  0  0  0  0  0  0  0  0  0
   37.2140   25.5200   37.0180 H   0  0  0  0  0  0  0  0  0  0  0  0
   37.5340   24.2600   39.1430 H   0  0  0  0  0  0  0  0  0  0  0  0
   39.3220   22.5320   39.1950 H   0  0  0  0  0  0  0  0  0  0  0  0
   40.7100   22.0860   37.2430 H   0  0  0  0  0  0  0  0  0  0  0  0
   37.9350   27.3720   31.1640 C   0  0  0  0  0  3  0  0  0  0  0  0
   37.0020   28.5340   31.3990 C   0  0  0  0  0  2  0  0  0  0  0  0
   36.9470   29.4680   30.2140 C   0  0  0  0  0  2  0  0  0  0  0  0
   37.5530   28.7980   29.0100 C   0  0  0  0  0  2  0  0  0  0  0  0
   39.0170   28.5310   29.2520 C   0  0  0  0  0  2  0  0  0  0  0  0
   39.2510   27.8150   30.5680 C   0  0  0  0  0  2  0  0  0  0  0  0
  1  6  1  0  0  0  0
  2  1  2  0  0  0  0
  2  3  1  0  0  0  0
  3  4  2  0  0  0  0
  4  5  1  0  0  0  0
  5  9  1  0  0  0  0
  6  5  2  0  0  0  0
  7  1  1  0  0  0  0
  8  3  1  0  0  0  0
  9 14  2  0  0  0  0
  9 10  1  0  0  0  0
 10 11  2  0  0  0  0
 11 12  1  0  0  0  0
 11 16  1  0  0  0  0
 12 17  1  0  0  0  0
 13 18  1  0  0  0  0
 13 12  2  0  0  0  0
 14 13  1  0  0  0  0
 15 10  1  0  0  0  0
 19 20  1  0  0  0  0
 19  2  1  0  0  0  0
 21 20  1  0  0  0  0
 22 23  1  0  0  0  0
 22 21  1  0  0  0  0
 23 24  1  0  0  0  0
 24 19  1  0  0  0  0
M  END
>  <minimizedAffinity>
-4.90802574

$$$$

 OpenBabel03272504493D

 24 26  0  0  0  0  0  0  0  0999 V2000
   37.7550   26.3230   35.4750 C   0  0  0  0  0  0  0  0  0  0  0  0
   38.1020   25.1010   34.8750 C   0  0  0  0  0  0  0  0  0  0  0  0
   37.8350   24.9780   33.5180 C   0  0  0  0  0  0  0  0  0  0  0  0
   37.2670   26.0230   32.8560 N   0  0  0  0  0  0  0  0  0  0  0  0
   36.9500   27.1770   33.4680 C   0  0  0  0  0  0  0  0  0  0  0  0
   37.1950   27.3310   34.7860 N   0  0  0  0  0  0  0  0  0  0  0  0
   37.9390   26.4860   36.5430 H   0  0  0  0  0  0  0  0  0  0  0  0
   38.0910   24.0500   33.0350 H   0  0  0  0  0  0  0  0  0  0  0  0
   36.3440   28.2640   32.7170 C   0  0  0  0  0  0  0  0  0  0  0  0
   36.8700   28.6400   31.4870 C   0  0  0  0  0  0  0  0  0  0  0  0
   36.3130   29.6680   30.7550 C   0  0  0  0  0  0  0  0  0  0  0  0
   35.2170   30.2870   31.3160 C   0  0  0  0  0  0  0  0  0  0  0  0
   34.6690   29.9340   32.5420 C   0  0  0  0  0  0  0  0  0  0  0  0
   35.2760   28.9070   33.2050 N   0  0  0  0  0  0  0  0  0  0  0  0
   37.7340   28.0980   31.1230 H   0  0  0  0  0  0  0  0  0  0  0  0
   36.7210   29.9550   29.8090 H   0  0  0  0  0  0  0  0  0  0  0  0
   34.7400   31.1030   30.7810 H   0  0  0  0  0  0  0  0  0  0  0  0
   33.8220   30.4370   32.9380 H   0  0  0  0  0  0  0  0  0  0  0  0
   38.7130   24.0470   35.7080 C   0  0  0  0  0  3  0  0  0  0  0  0
   40.2020   24.0050   35.4640 C   0  0  0  0  0  2  0  0  0  0  0  0
   40.9250   23.1810   36.5010 C   0  0  0  0  0  2  0  0  0  0  0  0
   39.9340   22.3490   37.2710 C   0  0  0  0  0  2  0  0  0  0  0  0
   38.9990   23.2440   38.0420 C   0  0  0  0  0  2  0  0  0  0  0  0
   38.3860   24.3150   37.1590 C   0  0  0  0  0  2  0  0  0  0  0  0
  1  7  1  0  0  0  0
  2  1  1  0  0  0  0
  2 19  1  0  0  0  0
  3  2  2  0  0  0  0
  4  5  2  0  0  0  0
  4  3  1  0  0  0  0
  5  6  1  0  0  0  0
  6  1  2  0  0  0  0
  8  3  1  0  0  0  0
  9 14  1  0  0  0  0
  9  5  1  0  0  0  0
 10  9  2  0  0  0  0
 11 12  2  0  0  0  0
 11 10  1  0  0  0  0
 12 13  1  0  0  0  0
 13 18  1  0  0  0  0
 13 14  2  0  0  0  0
 15 10  1  0  0  0  0
 16 11  1  0  0  0  0
 17 12  1  0  0  0  0
 19 24  1  0  0  0  0
 20 19  1  0  0  0  0
 20 21  1  0  0  0  0
 21 22  1  0  0  0  0
 22 23  1  0  0  0  0
 24 23  1  0  0  0  0
M  END
>  <minimizedAffinity>
-4.90181732

$$$$

 OpenBabel03272504493D

 24 26  0  0  0  0  0  0  0  0999 V2000
   39.3020   25.7250   33.8670 C   0  0  0  0  0  0  0  0  0  0  0  0
   38.5400   25.6020   35.0410 C   0  0  0  0  0  0  0  0  0  0  0  0
   37.3960   26.3830   35.1210 C   0  0  0  0  0  0  0  0  0  0  0  0
   37.0790   27.2070   34.0840 N   0  0  0  0  0  0  0  0  0  0  0  0
   37.8360   27.2940   32.9770 C   0  0  0  0  0  0  0  0  0  0  0  0
   38.9560   26.5490   32.8650 N   0  0  0  0  0  0  0  0  0  0  0  0
   40.2180   25.1360   33.7400 H   0  0  0  0  0  0  0  0  0  0  0  0
   36.7940   26.3080   36.0120 H   0  0  0  0  0  0  0  0  0  0  0  0
   37.4560   28.1890   31.8970 C   0  0  0  0  0  0  0  0  0  0  0  0
   36.3720   29.0430   32.0470 C   0  0  0  0  0  0  0  0  0  0  0  0
   35.9900   29.9010   31.0370 C   0  0  0  0  0  0  0  0  0  0  0  0
   36.7470   29.8560   29.8860 C   0  0  0  0  0  0  0  0  0  0  0  0
   37.8360   29.0130   29.7050 C   0  0  0  0  0  0  0  0  0  0  0  0
   38.1490   28.1950   30.7510 N   0  0  0  0  0  0  0  0  0  0  0  0
   35.8330   29.0120   32.9870 H   0  0  0  0  0  0  0  0  0  0  0  0
   35.1540   30.5580   31.1560 H   0  0  0  0  0  0  0  0  0  0  0  0
   36.4900   30.5110   29.0580 H   0  0  0  0  0  0  0  0  0  0  0  0
   38.3920   29.0100   28.8010 H   0  0  0  0  0  0  0  0  0  0  0  0
   38.9950   24.6710   36.0910 C   0  0  0  0  0  3  0  0  0  0  0  0
   37.9610   24.5960   37.1880 C   0  0  0  0  0  2  0  0  0  0  0  0
   38.2090   23.4380   38.1250 C   0  0  0  0  0  2  0  0  0  0  0  0
   39.6010   22.9050   37.9170 C   0  0  0  0  0  2  0  0  0  0  0  0
   39.7330   22.3390   36.5260 C   0  0  0  0  0  2  0  0  0  0  0  0
   39.2590   23.3190   35.4700 C   0  0  0  0  0  2  0  0  0  0  0  0
  1  2  1  0  0  0  0
  2  3  2  0  0  0  0
  2 19  1  0  0  0  0
  3  8  1  0  0  0  0
  4  3  1  0  0  0  0
  5  4  2  0  0  0  0
  6  5  1  0  0  0  0
  6  1  2  0  0  0  0
  7  1  1  0  0  0  0
  9 10  1  0  0  0  0
  9  5  1  0  0  0  0
 10 15  1  0  0  0  0
 11 16  1  0  0  0  0
 11 10  2  0  0  0  0
 12 11  1  0  0  0  0
 13 12  2  0  0  0  0
 13 14  1  0  0  0  0
 14  9  2  0  0  0  0
 17 12  1  0  0  0  0
 18 13  1  0  0  0  0
 19 20  1  0  0  0  0
 20 21  1  0  0  0  0
 22 21  1  0  0  0  0
 23 22  1  0  0  0  0
 24 19  1  0  0  0  0
 24 23  1  0  0  0  0
M  END
>  <minimizedAffinity>
-4.88677835

$$$$

 OpenBabel03272504493D

 24 26  0  0  0  0  0  0  0  0999 V2000
   35.1710   25.4840   30.9130 C   0  0  0  0  0  0  0  0  0  0  0  0
   36.0670   26.3510   31.5610 C   0  0  0  0  0  0  0  0  0  0  0  0
   37.0330   25.7580   32.3610 C   0  0  0  0  0  0  0  0  0  0  0  0
   37.0620   24.4020   32.4730 N   0  0  0  0  0  0  0  0  0  0  0  0
   36.1850   23.6070   31.8350 C   0  0  0  0  0  0  0  0  0  0  0  0
   35.2320   24.1500   31.0480 N   0  0  0  0  0  0  0  0  0  0  0  0
   34.3830   25.8880   30.2650 H   0  0  0  0  0  0  0  0  0  0  0  0
   37.7320   26.4010   32.8690 H   0  0  0  0  0  0  0  0  0  0  0  0
   36.2580   22.1640   31.9870 C   0  0  0  0  0  0  0  0  0  0  0  0
   35.1200   21.4390   32.3170 C   0  0  0  0  0  0  0  0  0  0  0  0
   35.1620   20.0690   32.4680 C   0  0  0  0  0  0  0  0  0  0  0  0
   36.3900   19.4750   32.2690 C   0  0  0  0  0  0  0  0  0  0  0  0
   37.5450   20.1720   31.9390 C   0  0  0  0  0  0  0  0  0  0  0  0
   37.4200   21.5250   31.8080 N   0  0  0  0  0  0  0  0  0  0  0  0
   34.1960   21.9890   32.4550 H   0  0  0  0  0  0  0  0  0  0  0  0
   34.2840   19.5140   32.7220 H   0  0  0  0  0  0  0  0  0  0  0  0
   36.4800   18.3980   32.3750 H   0  0  0  0  0  0  0  0  0  0  0  0
   38.4720   19.6750   31.7950 H   0  0  0  0  0  0  0  0  0  0  0  0
   35.9260   27.8050   31.3540 C   0  0  0  0  0  3  0  0  0  0  0  0
   35.7410   28.4930   32.6840 C   0  0  0  0  0  2  0  0  0  0  0  0
   35.9070   29.9900   32.5790 C   0  0  0  0  0  2  0  0  0  0  0  0
   35.8590   30.4070   31.1330 C   0  0  0  0  0  2  0  0  0  0  0  0
   37.0250   29.8130   30.3870 C   0  0  0  0  0  2  0  0  0  0  0  0
   37.1420   28.3180   30.6180 C   0  0  0  0  0  2  0  0  0  0  0  0
  1  6  2  0  0  0  0
  1  2  1  0  0  0  0
  2  3  2  0  0  0  0
  3  4  1  0  0  0  0
  3  8  1  0  0  0  0
  5  9  1  0  0  0  0
  5  4  2  0  0  0  0
  6  5  1  0  0  0  0
  7  1  1  0  0  0  0
  9 10  1  0  0  0  0
 10 15  1  0  0  0  0
 10 11  2  0  0  0  0
 11 16  1  0  0  0  0
 12 17  1  0  0  0  0
 12 11  1  0  0  0  0
 13 12  2  0  0  0  0
 14 13  1  0  0  0  0
 14  9  2  0  0  0  0
 18 13  1  0  0  0  0
 19  2  1  0  0  0  0
 19 20  1  0  0  0  0
 21 20  1  0  0  0  0
 22 21  1  0  0  0  0
 23 24  1  0  0  0  0
 23 22  1  0  0  0  0
 24 19  1  0  0  0  0
M  END
>  <minimizedAffinity>
-4.85824156

$$$$
