
 OpenBabel03272505123D

 36 39  0  0  0  0  0  0  0  0999 V2000
   36.4160   30.9000   45.7070 Cl  0  0  0  0  0  0  0  0  0  0  0  0
   36.6960   30.7830   47.4230 C   0  0  0  0  0  0  0  0  0  0  0  0
   37.9570   31.1220   47.8800 C   0  0  0  0  0  0  0  0  0  0  0  0
   38.1920   31.0310   49.2470 C   0  0  0  0  0  0  0  0  0  0  0  0
   37.1820   30.6170   50.0870 C   0  0  0  0  0  0  0  0  0  0  0  0
   35.9440   30.2950   49.5510 C   0  0  0  0  0  0  0  0  0  0  0  0
   35.6440   30.3610   48.2150 C   0  0  0  0  0  0  0  0  0  0  0  0
   39.1730   31.2920   49.6260 H   0  0  0  0  0  0  0  0  0  0  0  0
   37.3270   30.5350   51.1540 H   0  0  0  0  0  0  0  0  0  0  0  0
   35.1750   29.9720   50.2490 H   0  0  0  0  0  0  0  0  0  0  0  0
   40.2240   33.3250   46.0820 C   0  0  0  0  0  0  0  0  0  0  0  0
   40.9380   32.4760   45.2250 C   0  0  0  0  0  0  0  0  0  0  0  0
   40.6190   31.1070   45.2790 C   0  0  0  0  0  0  0  0  0  0  0  0
   39.6480   30.6930   46.1490 N   0  0  0  0  0  0  0  0  0  0  0  0
   39.0050   31.5600   46.9400 C   0  0  0  0  0  0  0  0  0  0  0  0
   39.2810   32.8640   46.9150 N   0  0  0  0  0  0  0  0  0  0  0  0
   40.5200   34.3620   45.9890 H   0  0  0  0  0  0  0  0  0  0  0  0
   41.7070   32.8530   44.5460 H   0  0  0  0  0  0  0  0  0  0  0  0
   41.1210   30.4060   44.6580 H   0  0  0  0  0  0  0  0  0  0  0  0
   34.0740   29.9540   47.5240 S   0  0  0  0  0  0  0  0  0  0  0  0
   33.9410   29.1620   44.4810 Cl  0  0  0  0  0  0  0  0  0  0  0  0
   33.8990   27.9460   45.7370 C   0  0  0  0  0  0  0  0  0  0  0  0
   33.9530   28.2150   47.1130 C   0  0  0  0  0  0  0  0  0  0  0  0
   33.9130   27.1760   48.0030 C   0  0  0  0  0  0  0  0  0  0  0  0
   33.8190   25.8790   47.5720 C   0  0  0  0  0  0  0  0  0  0  0  0
   33.7640   25.5730   46.2180 C   0  0  0  0  0  0  0  0  0  0  0  0
   33.8050   26.6140   45.3330 C   0  0  0  0  0  0  0  0  0  0  0  0
   33.9620   27.5070   49.0420 H   0  0  0  0  0  0  0  0  0  0  0  0
   33.7920   25.1060   48.3020 H   0  0  0  0  0  0  0  0  0  0  0  0
   33.6910   24.5310   45.9370 H   0  0  0  0  0  0  0  0  0  0  0  0
   33.7440   26.2860   43.8840 C   0  0  0  0  0  3  0  0  0  0  0  0
   34.9740   26.7170   43.1500 C   0  0  0  0  0  2  0  0  0  0  0  0
   34.9030   26.2650   41.7260 C   0  0  0  0  0  2  0  0  0  0  0  0
   33.5980   25.5840   41.3880 C   0  0  0  0  0  2  0  0  0  0  0  0
   32.3940   26.3560   41.8260 C   0  0  0  0  0  2  0  0  0  0  0  0
   32.5270   26.8970   43.2320 C   0  0  0  0  0  2  0  0  0  0  0  0
  1  2  1  0  0  0  0
  2  3  2  0  0  0  0
  2  7  1  0  0  0  0
  3  4  1  0  0  0  0
  4  8  1  0  0  0  0
  4  5  2  0  0  0  0
  5  9  1  0  0  0  0
  6  5  1  0  0  0  0
  6 10  1  0  0  0  0
  7  6  2  0  0  0  0
 11 16  1  0  0  0  0
 12 13  1  0  0  0  0
 12 11  2  0  0  0  0
 13 14  2  0  0  0  0
 14 15  1  0  0  0  0
 15  3  1  0  0  0  0
 16 15  2  0  0  0  0
 17 11  1  0  0  0  0
 18 12  1  0  0  0  0
 19 13  1  0  0  0  0
 20  7  1  0  0  0  0
 21 22  1  0  0  0  0
 22 23  1  0  0  0  0
 23 20  1  0  0  0  0
 23 24  2  0  0  0  0
 24 28  1  0  0  0  0
 25 24  1  0  0  0  0
 25 29  1  0  0  0  0
 26 25  2  0  0  0  0
 27 22  2  0  0  0  0
 27 26  1  0  0  0  0
 30 26  1  0  0  0  0
 31 27  1  0  0  0  0
 32 31  1  0  0  0  0
 33 32  1  0  0  0  0
 34 33  1  0  0  0  0
 34 35  1  0  0  0  0
 35 36  1  0  0  0  0
 36 31  1  0  0  0  0
M  END
>  <minimizedAffinity>
-5.71253633

>  <minimizedRMSD>
0.160941079

$$$$
