
 OpenBabel03272508123D

 31 33  0  0  0  0  0  0  0  0999 V2000
   36.6450   29.4130   44.0750 Cl  0  0  0  0  0  0  0  0  0  0  0  0
   38.2880   29.8120   43.5150 C   0  0  0  0  0  0  0  0  0  0  0  0
   39.2950   30.3110   44.3450 C   0  0  0  0  0  0  0  0  0  0  0  0
   40.5160   30.5720   43.7680 C   0  0  0  0  0  0  0  0  0  0  0  0
   40.7390   30.3530   42.4310 C   0  0  0  0  0  0  0  0  0  0  0  0
   39.7610   29.8650   41.6020 C   0  0  0  0  0  0  0  0  0  0  0  0
   38.5440   29.5980   42.1490 C   0  0  0  0  0  0  0  0  0  0  0  0
   41.2480   30.9550   44.4690 H   0  0  0  0  0  0  0  0  0  0  0  0
   41.7180   30.5770   42.0280 H   0  0  0  0  0  0  0  0  0  0  0  0
   39.9460   29.6950   40.5430 H   0  0  0  0  0  0  0  0  0  0  0  0
   37.4590   29.0630   41.2630 C   0  0  0  0  0  3  0  0  0  0  0  0
   36.4200   30.1720   41.2040 C   0  0  0  0  0  2  0  0  0  0  0  0
   35.2390   29.6820   40.4310 C   0  0  0  0  0  2  0  0  0  0  0  0
   35.5170   28.4000   39.6850 C   0  0  0  0  0  2  0  0  0  0  0  0
   35.9680   27.2910   40.6110 C   0  0  0  0  0  2  0  0  0  0  0  0
   36.8390   27.8030   41.7490 C   0  0  0  0  0  2  0  0  0  0  0  0
   38.8810   30.4590   45.6390 O   0  0  0  0  0  0  0  0  0  0  0  0
   39.4450   32.5140   47.1020 O   0  0  0  0  0  0  0  0  0  0  0  0
   38.3020   31.8410   46.4110 P   0  0  1  0  0  0  0  0  0  0  0  0
   37.7170   32.8480   45.1670 O   0  0  0  0  0  0  0  0  0  0  0  0
   37.4880   32.3540   44.3490 H   0  0  0  0  0  0  0  0  0  0  0  0
   37.0250   31.4160   47.4390 O   0  0  0  0  0  0  0  0  0  0  0  0
   37.6170   30.5300   50.9820 C   0  0  0  0  0  0  0  0  0  0  0  0
   37.7040   31.2970   49.8190 C   0  0  0  0  0  0  0  0  0  0  0  0
   37.0740   30.8460   48.6610 C   0  0  0  0  0  0  0  0  0  0  0  0
   36.3940   29.6530   48.7360 N   0  0  0  0  0  0  0  0  0  0  0  0
   36.3330   28.9420   49.8790 C   0  0  0  0  0  0  0  0  0  0  0  0
   36.9430   29.3820   50.9920 N   0  0  0  0  0  0  0  0  0  0  0  0
   38.1380   30.9550   51.8430 H   0  0  0  0  0  0  0  0  0  0  0  0
   38.2110   32.2330   49.6780 H   0  0  0  0  0  0  0  0  0  0  0  0
   35.7800   27.9910   49.9020 H   0  0  0  0  0  0  0  0  0  0  0  0
  2  1  1  0  0  0  0
  2  3  1  0  0  0  0
  3 17  1  0  0  0  0
  4  3  2  0  0  0  0
  4  8  1  0  0  0  0
  5  4  1  0  0  0  0
  6  7  1  0  0  0  0
  6  5  2  0  0  0  0
  7  2  2  0  0  0  0
  9  5  1  0  0  0  0
 10  6  1  0  0  0  0
 11 16  1  0  0  0  0
 11  7  1  0  0  0  0
 12 11  1  0  0  0  0
 13 12  1  0  0  0  0
 14 13  1  0  0  0  0
 14 15  1  0  0  0  0
 15 16  1  0  0  0  0
 17 19  1  0  0  0  0
 19 18  2  1  0  0  0
 19 22  1  0  0  0  0
 20 19  1  0  0  0  0
 21 20  1  0  0  0  0
 22 25  1  0  0  0  0
 23 28  1  0  0  0  0
 23 29  1  0  0  0  0
 24 23  2  0  0  0  0
 25 26  2  0  0  0  0
 25 24  1  0  0  0  0
 26 27  1  0  0  0  0
 27 31  1  0  0  0  0
 27 28  2  0  0  0  0
 30 24  1  0  0  0  0
M  END
>  <minimizedAffinity>
-4.83021784

>  <minimizedRMSD>
0.21257785

$$$$
