
 OpenBabel03272510283D

 42 46  0  0  1  0  0  0  0  0999 V2000
   37.9910   24.6000   33.8570 C   0  0  0  0  0  0  0  0  0  0  0  0
   37.9920   25.1690   35.1280 C   0  0  0  0  0  0  0  0  0  0  0  0
   37.5060   26.4590   35.3480 C   0  0  0  0  0  0  0  0  0  0  0  0
   37.0260   27.1290   34.2300 C   0  0  0  0  0  0  0  0  0  0  0  0
   36.5050   28.3930   34.1900 N   0  0  0  0  0  0  0  0  0  0  0  0
   36.1790   28.6190   32.9050 C   0  0  0  0  0  0  0  0  0  0  0  0
   36.4690   27.5730   32.1630 N   0  0  0  0  0  0  0  0  0  0  0  0
   37.0060   26.6050   32.9530 C   0  0  0  0  0  0  0  0  0  0  0  0
   37.5000   25.3090   32.7670 C   0  0  0  0  0  0  0  0  0  0  0  0
   38.3610   23.6150   33.6850 H   0  0  0  0  0  0  0  0  0  0  0  0
   37.5150   26.8770   36.3320 H   0  0  0  0  0  0  0  0  0  0  0  0
   36.3920   29.0360   35.0040 H   0  0  0  0  0  0  0  0  0  0  0  0
   37.4790   24.9120   31.7700 H   0  0  0  0  0  0  0  0  0  0  0  0
   38.6160   23.4600   38.4000 C   0  0  0  0  0  0  0  0  0  0  0  0
   37.9780   24.2620   37.4760 C   0  0  0  0  0  0  0  0  0  0  0  0
   38.5380   24.3590   36.2070 C   0  0  0  0  0  0  0  0  0  0  0  0
   39.6760   23.6550   35.9620 N   0  0  0  0  0  0  0  0  0  0  0  0
   40.2850   22.8770   36.8760 C   0  0  0  0  0  0  0  0  0  0  0  0
   39.7450   22.7890   38.0860 N   0  0  0  0  0  0  0  0  0  0  0  0
   38.1540   23.4040   39.3830 H   0  0  0  0  0  0  0  0  0  0  0  0
   37.0830   24.8130   37.6740 H   0  0  0  0  0  0  0  0  0  0  0  0
   41.1830   22.3410   36.6300 H   0  0  0  0  0  0  0  0  0  0  0  0
   35.6100   29.8360   32.4990 O   0  0  0  0  0  0  0  0  0  0  0  0
   33.6140   29.6640   33.5960 N   0  0  0  0  0  0  0  0  0  0  0  0
   34.2080   29.8160   32.2500 C   0  0  1  0  0  0  0  0  0  0  0  0
   33.7330   31.0670   31.6720 C   0  0  0  0  0  0  0  0  0  0  0  0
   32.3430   30.9710   31.4770 O   0  0  0  0  0  0  0  0  0  0  0  0
   31.6190   30.6580   32.5890 C   0  0  0  0  0  0  0  0  0  0  0  0
   32.1950   29.5030   33.3680 C   0  0  2  0  0  0  0  0  0  0  0  0
   33.9970   28.7530   33.9410 H   0  0  0  0  0  0  0  0  0  0  0  0
   33.9140   28.9740   31.6040 H   0  0  0  0  0  0  0  0  0  0  0  0
   33.8700   32.0280   32.0830 H   0  0  0  0  0  0  0  0  0  0  0  0
   34.1310   31.1120   30.6110 H   0  0  0  0  0  0  0  0  0  0  0  0
   30.6080   30.3660   32.2430 H   0  0  0  0  0  0  0  0  0  0  0  0
   31.4550   31.5330   33.2700 H   0  0  0  0  0  0  0  0  0  0  0  0
   32.0620   28.5560   32.8210 H   0  0  0  0  0  0  0  0  0  0  0  0
   31.5240   29.4580   34.7290 C   0  0  0  0  0  3  0  0  0  0  0  0
   30.8830   28.1240   35.0030 C   0  0  0  0  0  2  0  0  0  0  0  0
   31.3350   27.4850   36.2920 C   0  0  0  0  0  2  0  0  0  0  0  0
   31.1530   28.3930   37.4840 C   0  0  0  0  0  2  0  0  0  0  0  0
   31.7120   29.7540   37.1400 C   0  0  0  0  0  2  0  0  0  0  0  0
   32.4980   29.7160   35.8460 C   0  0  0  0  0  2  0  0  0  0  0  0
  1  2  1  0  0  0  0
  2  3  2  0  0  0  0
  2 16  1  0  0  0  0
  3 11  1  0  0  0  0
  4  3  1  0  0  0  0
  5  4  1  0  0  0  0
  5 12  1  0  0  0  0
  6  5  1  0  0  0  0
  7  6  2  0  0  0  0
  7  8  1  0  0  0  0
  8  4  2  0  0  0  0
  9  8  1  0  0  0  0
  9  1  2  0  0  0  0
 10  1  1  0  0  0  0
 13  9  1  0  0  0  0
 14 20  1  0  0  0  0
 15 21  1  0  0  0  0
 15 14  2  0  0  0  0
 16 15  1  0  0  0  0
 17 16  2  0  0  0  0
 17 18  1  0  0  0  0
 18 19  2  0  0  0  0
 19 14  1  0  0  0  0
 22 18  1  0  0  0  0
 23  6  1  0  0  0  0
 24 30  1  0  0  0  0
 25 31  1  6  0  0  0
 25 23  1  0  0  0  0
 25 24  1  0  0  0  0
 26 32  1  0  0  0  0
 26 25  1  0  0  0  0
 27 26  1  0  0  0  0
 27 28  1  0  0  0  0
 28 35  1  0  0  0  0
 28 29  1  0  0  0  0
 29 36  1  6  0  0  0
 29 24  1  0  0  0  0
 29 37  1  0  0  0  0
 33 26  1  0  0  0  0
 34 28  1  0  0  0  0
 37 38  1  0  0  0  0
 37 42  1  0  0  0  0
 38 39  1  0  0  0  0
 39 40  1  0  0  0  0
 41 40  1  0  0  0  0
 42 41  1  0  0  0  0
M  END
>  <minimizedAffinity>
-6.62635136

$$$$

 OpenBabel03272510283D

 42 46  0  0  1  0  0  0  0  0999 V2000
   34.9630   29.8540   32.7020 C   0  0  0  0  0  0  0  0  0  0  0  0
   35.4640   29.6410   33.9840 C   0  0  0  0  0  0  0  0  0  0  0  0
   36.4590   28.6930   34.2280 C   0  0  0  0  0  0  0  0  0  0  0  0
   36.9110   27.9850   33.1220 C   0  0  0  0  0  0  0  0  0  0  0  0
   37.8700   27.0090   33.1060 N   0  0  0  0  0  0  0  0  0  0  0  0
   37.9710   26.6100   31.8260 C   0  0  0  0  0  0  0  0  0  0  0  0
   37.1350   27.2800   31.0640 N   0  0  0  0  0  0  0  0  0  0  0  0
   36.4430   28.1610   31.8360 C   0  0  0  0  0  0  0  0  0  0  0  0
   35.4460   29.1200   31.6260 C   0  0  0  0  0  0  0  0  0  0  0  0
   34.2030   30.5770   32.5120 H   0  0  0  0  0  0  0  0  0  0  0  0
   36.8320   28.5450   35.2190 H   0  0  0  0  0  0  0  0  0  0  0  0
   38.4040   26.6600   33.9320 H   0  0  0  0  0  0  0  0  0  0  0  0
   35.0900   29.2490   30.6210 H   0  0  0  0  0  0  0  0  0  0  0  0
   34.9250   32.0380   36.8080 C   0  0  0  0  0  0  0  0  0  0  0  0
   35.6060   31.3560   35.8230 C   0  0  0  0  0  0  0  0  0  0  0  0
   34.8890   30.4440   35.0530 C   0  0  0  0  0  0  0  0  0  0  0  0
   33.5660   30.2900   35.3250 N   0  0  0  0  0  0  0  0  0  0  0  0
   32.9170   30.9660   36.2910 C   0  0  0  0  0  0  0  0  0  0  0  0
   33.6080   31.8340   37.0220 N   0  0  0  0  0  0  0  0  0  0  0  0
   35.5120   32.7430   37.3930 H   0  0  0  0  0  0  0  0  0  0  0  0
   36.6480   31.4810   35.6130 H   0  0  0  0  0  0  0  0  0  0  0  0
   31.8690   30.8060   36.4640 H   0  0  0  0  0  0  0  0  0  0  0  0
   38.8760   25.6070   31.4430 O   0  0  0  0  0  0  0  0  0  0  0  0
   39.1510   24.6320   33.4900 N   0  0  0  0  0  0  0  0  0  0  0  0
   38.7300   24.3520   32.1000 C   0  0  1  0  0  0  0  0  0  0  0  0
   37.3460   23.8960   32.1170 C   0  0  0  0  0  0  0  0  0  0  0  0
   37.2880   22.6660   32.7980 O   0  0  0  0  0  0  0  0  0  0  0  0
   37.8000   22.6760   34.0620 C   0  0  0  0  0  0  0  0  0  0  0  0
   39.1460   23.3470   34.1540 C   0  0  2  0  0  0  0  0  0  0  0  0
   40.1440   24.9500   33.3950 H   0  0  0  0  0  0  0  0  0  0  0  0
   39.3710   23.5750   31.6550 H   0  0  0  0  0  0  0  0  0  0  0  0
   36.5230   24.4370   32.4920 H   0  0  0  0  0  0  0  0  0  0  0  0
   37.0820   23.6050   31.0540 H   0  0  0  0  0  0  0  0  0  0  0  0
   37.9250   21.6180   34.3660 H   0  0  0  0  0  0  0  0  0  0  0  0
   37.1010   23.1180   34.8190 H   0  0  0  0  0  0  0  0  0  0  0  0
   39.9250   22.7330   33.6720 H   0  0  0  0  0  0  0  0  0  0  0  0
   39.4610   23.5970   35.6170 C   0  0  0  0  0  3  0  0  0  0  0  0
   38.3960   24.4130   36.2980 C   0  0  0  0  0  2  0  0  0  0  0  0
   37.8350   23.7670   37.5410 C   0  0  0  0  0  2  0  0  0  0  0  0
   38.9080   23.3960   38.5360 C   0  0  0  0  0  2  0  0  0  0  0  0
   40.0120   22.6700   37.8030 C   0  0  0  0  0  2  0  0  0  0  0  0
   39.5940   22.3130   36.3910 C   0  0  0  0  0  2  0  0  0  0  0  0
  1  2  1  0  0  0  0
  2  3  2  0  0  0  0
  2 16  1  0  0  0  0
  3 11  1  0  0  0  0
  4  3  1  0  0  0  0
  5  4  1  0  0  0  0
  5 12  1  0  0  0  0
  6  5  1  0  0  0  0
  7  6  2  0  0  0  0
  7  8  1  0  0  0  0
  8  4  2  0  0  0  0
  9  8  1  0  0  0  0
  9  1  2  0  0  0  0
 10  1  1  0  0  0  0
 13  9  1  0  0  0  0
 14 19  1  0  0  0  0
 14 20  1  0  0  0  0
 15 14  2  0  0  0  0
 16 17  2  0  0  0  0
 16 15  1  0  0  0  0
 17 18  1  0  0  0  0
 18 22  1  0  0  0  0
 18 19  2  0  0  0  0
 21 15  1  0  0  0  0
 23  6  1  0  0  0  0
 23 25  1  0  0  0  0
 24 29  1  0  0  0  0
 25 31  1  6  0  0  0
 25 26  1  0  0  0  0
 25 24  1  0  0  0  0
 26 32  1  0  0  0  0
 26 27  1  0  0  0  0
 27 28  1  0  0  0  0
 28 29  1  0  0  0  0
 28 34  1  0  0  0  0
 28 35  1  0  0  0  0
 29 36  1  6  0  0  0
 29 37  1  0  0  0  0
 30 24  1  0  0  0  0
 33 26  1  0  0  0  0
 37 38  1  0  0  0  0
 37 42  1  0  0  0  0
 38 39  1  0  0  0  0
 39 40  1  0  0  0  0
 41 40  1  0  0  0  0
 42 41  1  0  0  0  0
M  END
>  <minimizedAffinity>
-6.53825903

$$$$

 OpenBabel03272510283D

 42 46  0  0  1  0  0  0  0  0999 V2000
   39.9280   26.1260   34.6990 C   0  0  0  0  0  0  0  0  0  0  0  0
   38.7490   25.4890   35.0800 C   0  0  0  0  0  0  0  0  0  0  0  0
   37.5570   25.6840   34.3800 C   0  0  0  0  0  0  0  0  0  0  0  0
   37.6230   26.5450   33.2930 C   0  0  0  0  0  0  0  0  0  0  0  0
   36.5970   26.8950   32.4590 N   0  0  0  0  0  0  0  0  0  0  0  0
   37.1240   27.7470   31.5600 C   0  0  0  0  0  0  0  0  0  0  0  0
   38.4030   27.9360   31.7960 N   0  0  0  0  0  0  0  0  0  0  0  0
   38.7670   27.1980   32.8790 C   0  0  0  0  0  0  0  0  0  0  0  0
   39.9450   26.9800   33.6020 C   0  0  0  0  0  0  0  0  0  0  0  0
   40.8400   25.9790   35.2310 H   0  0  0  0  0  0  0  0  0  0  0  0
   36.6640   25.1850   34.6890 H   0  0  0  0  0  0  0  0  0  0  0  0
   35.6110   26.5590   32.5230 H   0  0  0  0  0  0  0  0  0  0  0  0
   40.8280   27.4920   33.2720 H   0  0  0  0  0  0  0  0  0  0  0  0
   39.6490   22.8210   37.5470 C   0  0  0  0  0  0  0  0  0  0  0  0
   39.7040   23.5580   36.3830 C   0  0  0  0  0  0  0  0  0  0  0  0
   38.8220   24.6250   36.2490 C   0  0  0  0  0  0  0  0  0  0  0  0
   37.9650   24.8690   37.2770 N   0  0  0  0  0  0  0  0  0  0  0  0
   37.9260   24.1400   38.4070 C   0  0  0  0  0  0  0  0  0  0  0  0
   38.7710   23.1220   38.5280 N   0  0  0  0  0  0  0  0  0  0  0  0
   40.3510   21.9940   37.6220 H   0  0  0  0  0  0  0  0  0  0  0  0
   40.3810   23.3610   35.5780 H   0  0  0  0  0  0  0  0  0  0  0  0
   37.2290   24.3770   39.1890 H   0  0  0  0  0  0  0  0  0  0  0  0
   36.3400   28.3100   30.5410 O   0  0  0  0  0  0  0  0  0  0  0  0
   35.4600   29.5590   32.2390 N   0  0  0  0  0  0  0  0  0  0  0  0
   35.8130   29.6070   30.8040 C   0  0  1  0  0  0  0  0  0  0  0  0
   36.8060   30.6560   30.6040 C   0  0  0  0  0  0  0  0  0  0  0  0
   36.2130   31.8960   30.9020 O   0  0  0  0  0  0  0  0  0  0  0  0
   35.6620   31.9940   32.1460 C   0  0  0  0  0  0  0  0  0  0  0  0
   34.7960   30.8150   32.5090 C   0  0  2  0  0  0  0  0  0  0  0  0
   34.7510   28.7920   32.3010 H   0  0  0  0  0  0  0  0  0  0  0  0
   34.9200   29.8220   30.1970 H   0  0  0  0  0  0  0  0  0  0  0  0
   37.7520   30.7050   31.0660 H   0  0  0  0  0  0  0  0  0  0  0  0
   36.9890   30.7290   29.4880 H   0  0  0  0  0  0  0  0  0  0  0  0
   35.0230   32.9000   32.1440 H   0  0  0  0  0  0  0  0  0  0  0  0
   36.4200   32.1730   32.9520 H   0  0  0  0  0  0  0  0  0  0  0  0
   33.8630   30.8180   31.9220 H   0  0  0  0  0  0  0  0  0  0  0  0
   34.5150   30.8640   33.9990 C   0  0  0  0  0  3  0  0  0  0  0  0
   35.7250   30.5060   34.8190 C   0  0  0  0  0  2  0  0  0  0  0  0
   36.0930   31.5460   35.8470 C   0  0  0  0  0  2  0  0  0  0  0  0
   34.9420   31.8910   36.7610 C   0  0  0  0  0  2  0  0  0  0  0  0
   33.7160   32.1430   35.9140 C   0  0  0  0  0  2  0  0  0  0  0  0
   34.0720   32.2320   34.4430 C   0  0  0  0  0  2  0  0  0  0  0  0
  1  2  1  0  0  0  0
  1 10  1  0  0  0  0
  2 16  1  0  0  0  0
  3 11  1  0  0  0  0
  3  2  2  0  0  0  0
  4  3  1  0  0  0  0
  5 12  1  0  0  0  0
  5  4  1  0  0  0  0
  6  7  2  0  0  0  0
  6  5  1  0  0  0  0
  7  8  1  0  0  0  0
  8  4  2  0  0  0  0
  8  9  1  0  0  0  0
  9  1  2  0  0  0  0
 13  9  1  0  0  0  0
 14 20  1  0  0  0  0
 14 19  1  0  0  0  0
 15 14  2  0  0  0  0
 16 15  1  0  0  0  0
 16 17  2  0  0  0  0
 17 18  1  0  0  0  0
 18 19  2  0  0  0  0
 18 22  1  0  0  0  0
 21 15  1  0  0  0  0
 23 25  1  0  0  0  0
 23  6  1  0  0  0  0
 24 30  1  0  0  0  0
 24 29  1  0  0  0  0
 25 31  1  6  0  0  0
 25 24  1  0  0  0  0
 26 25  1  0  0  0  0
 26 27  1  0  0  0  0
 26 32  1  0  0  0  0
 27 28  1  0  0  0  0
 28 29  1  0  0  0  0
 28 35  1  0  0  0  0
 29 36  1  6  0  0  0
 29 37  1  0  0  0  0
 33 26  1  0  0  0  0
 34 28  1  0  0  0  0
 37 42  1  0  0  0  0
 37 38  1  0  0  0  0
 38 39  1  0  0  0  0
 39 40  1  0  0  0  0
 41 40  1  0  0  0  0
 42 41  1  0  0  0  0
M  END
>  <minimizedAffinity>
-6.44300842

$$$$

 OpenBabel03272510283D

 42 46  0  0  1  0  0  0  0  0999 V2000
   37.5300   23.5160   32.9110 C   0  0  0  0  0  0  0  0  0  0  0  0
   36.6420   23.2550   31.8700 C   0  0  0  0  0  0  0  0  0  0  0  0
   36.1830   24.2730   31.0330 C   0  0  0  0  0  0  0  0  0  0  0  0
   36.6650   25.5480   31.3020 C   0  0  0  0  0  0  0  0  0  0  0  0
   36.3630   26.7000   30.6300 N   0  0  0  0  0  0  0  0  0  0  0  0
   37.0530   27.6790   31.2420 C   0  0  0  0  0  0  0  0  0  0  0  0
   37.7550   27.1940   32.2420 N   0  0  0  0  0  0  0  0  0  0  0  0
   37.5440   25.8530   32.3210 C   0  0  0  0  0  0  0  0  0  0  0  0
   37.9850   24.8080   33.1420 C   0  0  0  0  0  0  0  0  0  0  0  0
   37.8830   22.7400   33.5520 H   0  0  0  0  0  0  0  0  0  0  0  0
   35.5020   24.0520   30.2390 H   0  0  0  0  0  0  0  0  0  0  0  0
   35.7220   26.7820   29.8090 H   0  0  0  0  0  0  0  0  0  0  0  0
   38.6700   25.0570   33.9310 H   0  0  0  0  0  0  0  0  0  0  0  0
   34.8020   20.0020   32.0840 C   0  0  0  0  0  0  0  0  0  0  0  0
   35.0820   21.3310   32.3210 C   0  0  0  0  0  0  0  0  0  0  0  0
   36.2080   21.8750   31.7110 C   0  0  0  0  0  0  0  0  0  0  0  0
   36.9550   21.0580   30.9210 N   0  0  0  0  0  0  0  0  0  0  0  0
   36.6660   19.7630   30.7000 C   0  0  0  0  0  0  0  0  0  0  0  0
   35.5900   19.2500   31.2860 N   0  0  0  0  0  0  0  0  0  0  0  0
   33.9160   19.6060   32.5750 H   0  0  0  0  0  0  0  0  0  0  0  0
   34.4900   21.9690   32.9440 H   0  0  0  0  0  0  0  0  0  0  0  0
   37.2910   19.1620   30.0660 H   0  0  0  0  0  0  0  0  0  0  0  0
   36.9770   29.0100   30.8040 O   0  0  0  0  0  0  0  0  0  0  0  0
   35.7290   29.7160   32.5810 N   0  0  0  0  0  0  0  0  0  0  0  0
   35.7670   29.6970   31.1030 C   0  0  1  0  0  0  0  0  0  0  0  0
   35.7800   31.0730   30.6200 C   0  0  0  0  0  0  0  0  0  0  0  0
   34.5620   31.6820   30.9720 O   0  0  0  0  0  0  0  0  0  0  0  0
   34.2560   31.6480   32.3010 C   0  0  0  0  0  0  0  0  0  0  0  0
   34.4440   30.2870   32.9210 C   0  0  2  0  0  0  0  0  0  0  0  0
   35.7200   28.7040   32.8480 H   0  0  0  0  0  0  0  0  0  0  0  0
   34.8840   29.1730   30.7040 H   0  0  0  0  0  0  0  0  0  0  0  0
   36.5080   31.7990   30.8500 H   0  0  0  0  0  0  0  0  0  0  0  0
   35.7180   31.0260   29.4890 H   0  0  0  0  0  0  0  0  0  0  0  0
   33.1850   31.9190   32.3910 H   0  0  0  0  0  0  0  0  0  0  0  0
   34.8050   32.4190   32.9010 H   0  0  0  0  0  0  0  0  0  0  0  0
   33.6750   29.5830   32.5630 H   0  0  0  0  0  0  0  0  0  0  0  0
   34.4030   30.4350   34.4300 C   0  0  0  0  0  3  0  0  0  0  0  0
   35.7610   30.7260   35.0110 C   0  0  0  0  0  2  0  0  0  0  0  0
   35.8020   31.9640   35.8710 C   0  0  0  0  0  2  0  0  0  0  0  0
   34.7700   31.9400   36.9730 C   0  0  0  0  0  2  0  0  0  0  0  0
   33.4400   31.5430   36.3760 C   0  0  0  0  0  2  0  0  0  0  0  0
   33.4910   31.5520   34.8610 C   0  0  0  0  0  2  0  0  0  0  0  0
  1  9  1  0  0  0  0
  1 10  1  0  0  0  0
  2  1  2  0  0  0  0
  3  4  2  0  0  0  0
  3  2  1  0  0  0  0
  4  8  1  0  0  0  0
  5  6  1  0  0  0  0
  5  4  1  0  0  0  0
  6  7  2  0  0  0  0
  7  8  1  0  0  0  0
  8  9  2  0  0  0  0
  9 13  1  0  0  0  0
 11  3  1  0  0  0  0
 12  5  1  0  0  0  0
 14 15  1  0  0  0  0
 14 20  1  0  0  0  0
 15 21  1  0  0  0  0
 16  2  1  0  0  0  0
 16 15  2  0  0  0  0
 17 16  1  0  0  0  0
 18 17  2  0  0  0  0
 18 19  1  0  0  0  0
 19 14  2  0  0  0  0
 22 18  1  0  0  0  0
 23 25  1  0  0  0  0
 23  6  1  0  0  0  0
 24 30  1  0  0  0  0
 24 29  1  0  0  0  0
 25 31  1  6  0  0  0
 25 24  1  0  0  0  0
 26 32  1  0  0  0  0
 26 27  1  0  0  0  0
 26 25  1  0  0  0  0
 27 28  1  0  0  0  0
 28 34  1  0  0  0  0
 28 35  1  0  0  0  0
 28 29  1  0  0  0  0
 29 36  1  6  0  0  0
 29 37  1  0  0  0  0
 33 26  1  0  0  0  0
 37 42  1  0  0  0  0
 37 38  1  0  0  0  0
 38 39  1  0  0  0  0
 39 40  1  0  0  0  0
 41 40  1  0  0  0  0
 42 41  1  0  0  0  0
M  END
>  <minimizedAffinity>
-6.4305625

$$$$

 OpenBabel03272510283D

 42 46  0  0  1  0  0  0  0  0999 V2000
   35.2940   31.1430   32.9000 C   0  0  0  0  0  0  0  0  0  0  0  0
   35.2630   30.3550   34.0480 C   0  0  0  0  0  0  0  0  0  0  0  0
   35.7280   29.0390   34.0410 C   0  0  0  0  0  0  0  0  0  0  0  0
   36.2180   28.5730   32.8280 C   0  0  0  0  0  0  0  0  0  0  0  0
   36.7230   27.3280   32.5690 N   0  0  0  0  0  0  0  0  0  0  0  0
   37.0680   27.3300   31.2690 C   0  0  0  0  0  0  0  0  0  0  0  0
   36.8050   28.4970   30.7230 N   0  0  0  0  0  0  0  0  0  0  0  0
   36.2680   29.3160   31.6660 C   0  0  0  0  0  0  0  0  0  0  0  0
   35.7950   30.6320   31.7080 C   0  0  0  0  0  0  0  0  0  0  0  0
   34.9400   32.1490   32.9020 H   0  0  0  0  0  0  0  0  0  0  0  0
   35.6960   28.4510   34.9330 H   0  0  0  0  0  0  0  0  0  0  0  0
   36.8130   26.5470   33.2560 H   0  0  0  0  0  0  0  0  0  0  0  0
   35.8390   31.2010   30.7990 H   0  0  0  0  0  0  0  0  0  0  0  0
   34.7220   32.3970   37.1390 C   0  0  0  0  0  0  0  0  0  0  0  0
   35.3720   31.9120   36.0240 C   0  0  0  0  0  0  0  0  0  0  0  0
   34.7090   30.9680   35.2470 C   0  0  0  0  0  0  0  0  0  0  0  0
   33.4630   30.5880   35.6400 N   0  0  0  0  0  0  0  0  0  0  0  0
   32.8440   31.0720   36.7320 C   0  0  0  0  0  0  0  0  0  0  0  0
   33.4830   31.9730   37.4690 N   0  0  0  0  0  0  0  0  0  0  0  0
   35.2660   33.1330   37.7260 H   0  0  0  0  0  0  0  0  0  0  0  0
   36.3520   32.2150   35.7190 H   0  0  0  0  0  0  0  0  0  0  0  0
   31.8580   30.7380   36.9970 H   0  0  0  0  0  0  0  0  0  0  0  0
   37.6280   26.1970   30.6600 O   0  0  0  0  0  0  0  0  0  0  0  0
   36.9110   24.2220   31.5540 N   0  0  0  0  0  0  0  0  0  0  0  0
   38.0530   25.1620   31.5400 C   0  0  1  0  0  0  0  0  0  0  0  0
   39.2270   24.4580   31.0380 C   0  0  0  0  0  0  0  0  0  0  0  0
   39.5670   23.4440   31.9530 O   0  0  0  0  0  0  0  0  0  0  0  0
   38.5690   22.5590   32.2380 C   0  0  0  0  0  0  0  0  0  0  0  0
   37.2520   23.2240   32.5440 C   0  0  2  0  0  0  0  0  0  0  0  0
   36.1160   24.7940   31.9230 H   0  0  0  0  0  0  0  0  0  0  0  0
   38.2520   25.5370   32.5560 H   0  0  0  0  0  0  0  0  0  0  0  0
   39.3120   23.9940   30.0960 H   0  0  0  0  0  0  0  0  0  0  0  0
   40.1020   25.1740   31.1240 H   0  0  0  0  0  0  0  0  0  0  0  0
   38.8860   21.9970   33.1390 H   0  0  0  0  0  0  0  0  0  0  0  0
   38.4270   21.7820   31.4420 H   0  0  0  0  0  0  0  0  0  0  0  0
   37.2900   23.7390   33.5190 H   0  0  0  0  0  0  0  0  0  0  0  0
   36.1610   22.1700   32.5150 C   0  0  0  0  0  3  0  0  0  0  0  0
   35.9010   21.6580   31.1240 C   0  0  0  0  0  2  0  0  0  0  0  0
   35.9980   20.1570   31.0010 C   0  0  0  0  0  2  0  0  0  0  0  0
   35.1080   19.4360   31.9840 C   0  0  0  0  0  2  0  0  0  0  0  0
   35.3150   20.0440   33.3520 C   0  0  0  0  0  2  0  0  0  0  0  0
   36.5070   20.9790   33.3660 C   0  0  0  0  0  2  0  0  0  0  0  0
  1 10  1  0  0  0  0
  1  2  1  0  0  0  0
  2 16  1  0  0  0  0
  3  2  2  0  0  0  0
  3 11  1  0  0  0  0
  4  3  1  0  0  0  0
  5  4  1  0  0  0  0
  5 12  1  0  0  0  0
  6  5  1  0  0  0  0
  7  6  2  0  0  0  0
  7  8  1  0  0  0  0
  8  9  1  0  0  0  0
  8  4  2  0  0  0  0
  9  1  2  0  0  0  0
 13  9  1  0  0  0  0
 14 19  1  0  0  0  0
 14 20  1  0  0  0  0
 15 14  2  0  0  0  0
 16 17  2  0  0  0  0
 16 15  1  0  0  0  0
 17 18  1  0  0  0  0
 18 22  1  0  0  0  0
 18 19  2  0  0  0  0
 21 15  1  0  0  0  0
 23  6  1  0  0  0  0
 23 25  1  0  0  0  0
 24 30  1  0  0  0  0
 24 29  1  0  0  0  0
 25 24  1  0  0  0  0
 25 31  1  1  0  0  0
 26 33  1  0  0  0  0
 26 25  1  0  0  0  0
 26 27  1  0  0  0  0
 27 28  1  0  0  0  0
 28 29  1  0  0  0  0
 28 34  1  0  0  0  0
 29 36  1  1  0  0  0
 32 26  1  0  0  0  0
 35 28  1  0  0  0  0
 37 29  1  0  0  0  0
 37 42  1  0  0  0  0
 38 37  1  0  0  0  0
 39 38  1  0  0  0  0
 39 40  1  0  0  0  0
 40 41  1  0  0  0  0
 41 42  1  0  0  0  0
M  END
>  <minimizedAffinity>
-6.29829836

$$$$

 OpenBabel03272510283D

 42 46  0  0  1  0  0  0  0  0999 V2000
   38.3590   24.6510   33.6890 C   0  0  0  0  0  0  0  0  0  0  0  0
   38.0930   25.1570   34.9590 C   0  0  0  0  0  0  0  0  0  0  0  0
   37.4050   26.3590   35.1350 C   0  0  0  0  0  0  0  0  0  0  0  0
   37.0080   27.0090   33.9740 C   0  0  0  0  0  0  0  0  0  0  0  0
   36.3290   28.1930   33.8870 N   0  0  0  0  0  0  0  0  0  0  0  0
   36.1690   28.4320   32.5730 C   0  0  0  0  0  0  0  0  0  0  0  0
   36.7070   27.4700   31.8580 N   0  0  0  0  0  0  0  0  0  0  0  0
   37.2500   26.5470   32.6960 C   0  0  0  0  0  0  0  0  0  0  0  0
   37.9410   25.3380   32.5550 C   0  0  0  0  0  0  0  0  0  0  0  0
   38.8830   23.7330   33.5510 H   0  0  0  0  0  0  0  0  0  0  0  0
   37.2110   26.7290   36.1190 H   0  0  0  0  0  0  0  0  0  0  0  0
   36.0080   28.7780   34.6890 H   0  0  0  0  0  0  0  0  0  0  0  0
   38.1230   24.9880   31.5570 H   0  0  0  0  0  0  0  0  0  0  0  0
   40.0120   22.8390   37.1870 C   0  0  0  0  0  0  0  0  0  0  0  0
   39.6740   23.5190   36.0360 C   0  0  0  0  0  0  0  0  0  0  0  0
   38.5800   24.3780   36.0880 C   0  0  0  0  0  0  0  0  0  0  0  0
   37.9190   24.4880   37.2720 N   0  0  0  0  0  0  0  0  0  0  0  0
   38.2630   23.8160   38.3860 C   0  0  0  0  0  0  0  0  0  0  0  0
   39.3080   22.9980   38.3290 N   0  0  0  0  0  0  0  0  0  0  0  0
   40.8700   22.1760   37.1140 H   0  0  0  0  0  0  0  0  0  0  0  0
   40.1980   23.4290   35.1080 H   0  0  0  0  0  0  0  0  0  0  0  0
   37.7060   23.9400   39.2960 H   0  0  0  0  0  0  0  0  0  0  0  0
   35.5020   29.5800   32.1150 O   0  0  0  0  0  0  0  0  0  0  0  0
   34.4930   30.4650   33.9630 N   0  0  0  0  0  0  0  0  0  0  0  0
   34.2100   29.8120   32.6670 C   0  0  1  0  0  0  0  0  0  0  0  0
   33.4190   30.7250   31.8510 C   0  0  0  0  0  0  0  0  0  0  0  0
   32.1710   30.9150   32.4730 O   0  0  0  0  0  0  0  0  0  0  0  0
   32.2250   31.3560   33.7620 C   0  0  0  0  0  0  0  0  0  0  0  0
   33.2070   30.5920   34.6120 C   0  0  2  0  0  0  0  0  0  0  0  0
   35.0570   29.7550   34.4870 H   0  0  0  0  0  0  0  0  0  0  0  0
   33.6520   28.8760   32.8230 H   0  0  0  0  0  0  0  0  0  0  0  0
   33.7080   31.6930   31.5520 H   0  0  0  0  0  0  0  0  0  0  0  0
   33.1420   30.1650   30.9040 H   0  0  0  0  0  0  0  0  0  0  0  0
   31.2150   31.2110   34.1940 H   0  0  0  0  0  0  0  0  0  0  0  0
   32.4240   32.4560   33.8450 H   0  0  0  0  0  0  0  0  0  0  0  0
   32.8440   29.5700   34.8100 H   0  0  0  0  0  0  0  0  0  0  0  0
   33.4290   31.3620   35.9020 C   0  0  0  0  0  3  0  0  0  0  0  0
   34.8880   31.6080   36.1740 C   0  0  0  0  0  2  0  0  0  0  0  0
   35.2290   33.0600   36.3960 C   0  0  0  0  0  2  0  0  0  0  0  0
   34.3940   33.6920   37.4840 C   0  0  0  0  0  2  0  0  0  0  0  0
   32.9450   33.3390   37.2410 C   0  0  0  0  0  2  0  0  0  0  0  0
   32.7520   32.7050   35.8780 C   0  0  0  0  0  2  0  0  0  0  0  0
  1  2  1  0  0  0  0
  2  3  2  0  0  0  0
  2 16  1  0  0  0  0
  3 11  1  0  0  0  0
  4  3  1  0  0  0  0
  5  4  1  0  0  0  0
  5 12  1  0  0  0  0
  6  5  1  0  0  0  0
  7  6  2  0  0  0  0
  7  8  1  0  0  0  0
  8  4  2  0  0  0  0
  9  8  1  0  0  0  0
  9  1  2  0  0  0  0
 10  1  1  0  0  0  0
 13  9  1  0  0  0  0
 14 19  1  0  0  0  0
 15 16  1  0  0  0  0
 15 14  2  0  0  0  0
 16 17  2  0  0  0  0
 17 18  1  0  0  0  0
 18 22  1  0  0  0  0
 19 18  2  0  0  0  0
 20 14  1  0  0  0  0
 21 15  1  0  0  0  0
 23  6  1  0  0  0  0
 23 25  1  0  0  0  0
 24 30  1  0  0  0  0
 24 29  1  0  0  0  0
 25 31  1  1  0  0  0
 25 24  1  0  0  0  0
 26 27  1  0  0  0  0
 26 25  1  0  0  0  0
 27 28  1  0  0  0  0
 28 35  1  0  0  0  0
 28 34  1  0  0  0  0
 28 29  1  0  0  0  0
 29 36  1  1  0  0  0
 29 37  1  0  0  0  0
 32 26  1  0  0  0  0
 33 26  1  0  0  0  0
 37 38  1  0  0  0  0
 38 39  1  0  0  0  0
 39 40  1  0  0  0  0
 41 40  1  0  0  0  0
 42 37  1  0  0  0  0
 42 41  1  0  0  0  0
M  END
>  <minimizedAffinity>
-6.26790237

$$$$

 OpenBabel03272510283D

 42 46  0  0  1  0  0  0  0  0999 V2000
   35.7850   30.8230   32.1810 C   0  0  0  0  0  0  0  0  0  0  0  0
   35.6010   30.3730   33.4870 C   0  0  0  0  0  0  0  0  0  0  0  0
   35.8230   29.0400   33.8360 C   0  0  0  0  0  0  0  0  0  0  0  0
   36.2340   28.2020   32.8080 C   0  0  0  0  0  0  0  0  0  0  0  0
   36.5100   26.8650   32.8990 N   0  0  0  0  0  0  0  0  0  0  0  0
   36.8640   26.4740   31.6610 C   0  0  0  0  0  0  0  0  0  0  0  0
   36.8200   27.4880   30.8260 N   0  0  0  0  0  0  0  0  0  0  0  0
   36.4290   28.6020   31.5020 C   0  0  0  0  0  0  0  0  0  0  0  0
   36.1990   29.9450   31.1860 C   0  0  0  0  0  0  0  0  0  0  0  0
   35.6180   31.8400   31.9120 H   0  0  0  0  0  0  0  0  0  0  0  0
   35.6760   28.7150   34.8440 H   0  0  0  0  0  0  0  0  0  0  0  0
   36.4520   26.2830   33.7630 H   0  0  0  0  0  0  0  0  0  0  0  0
   36.3540   30.2460   30.1670 H   0  0  0  0  0  0  0  0  0  0  0  0
   35.3370   32.7060   36.4030 C   0  0  0  0  0  0  0  0  0  0  0  0
   35.8990   31.7700   35.5610 C   0  0  0  0  0  0  0  0  0  0  0  0
   35.1530   31.3580   34.4600 C   0  0  0  0  0  0  0  0  0  0  0  0
   33.9210   31.9090   34.2900 N   0  0  0  0  0  0  0  0  0  0  0  0
   33.3890   32.8220   35.1230 C   0  0  0  0  0  0  0  0  0  0  0  0
   34.1060   33.2100   36.1710 N   0  0  0  0  0  0  0  0  0  0  0  0
   35.9440   33.0080   37.2530 H   0  0  0  0  0  0  0  0  0  0  0  0
   36.8690   31.3410   35.6990 H   0  0  0  0  0  0  0  0  0  0  0  0
   32.4100   33.2260   34.9410 H   0  0  0  0  0  0  0  0  0  0  0  0
   37.2180   25.1440   31.3880 O   0  0  0  0  0  0  0  0  0  0  0  0
   37.8210   24.3490   33.4430 N   0  0  0  0  0  0  0  0  0  0  0  0
   38.3490   24.6430   32.0930 C   0  0  1  0  0  0  0  0  0  0  0  0
   38.8560   23.4050   31.5130 C   0  0  0  0  0  0  0  0  0  0  0  0
   39.9540   22.9690   32.2760 O   0  0  0  0  0  0  0  0  0  0  0  0
   39.7090   22.8040   33.6080 C   0  0  0  0  0  0  0  0  0  0  0  0
   38.9740   23.9650   34.2260 C   0  0  2  0  0  0  0  0  0  0  0  0
   37.4810   25.2770   33.7890 H   0  0  0  0  0  0  0  0  0  0  0  0
   39.1620   25.3840   32.1520 H   0  0  0  0  0  0  0  0  0  0  0  0
   38.2950   22.5280   31.3450 H   0  0  0  0  0  0  0  0  0  0  0  0
   39.3330   23.6760   30.5210 H   0  0  0  0  0  0  0  0  0  0  0  0
   40.6950   22.7190   34.1080 H   0  0  0  0  0  0  0  0  0  0  0  0
   39.1770   21.8470   33.8440 H   0  0  0  0  0  0  0  0  0  0  0  0
   39.6260   24.8520   34.2940 H   0  0  0  0  0  0  0  0  0  0  0  0
   38.4680   23.5430   35.5930 C   0  0  0  0  0  3  0  0  0  0  0  0
   39.3610   22.5170   36.2390 C   0  0  0  0  0  2  0  0  0  0  0  0
   39.8360   22.9050   37.6170 C   0  0  0  0  0  2  0  0  0  0  0  0
   38.6970   23.2480   38.5470 C   0  0  0  0  0  2  0  0  0  0  0  0
   37.7630   24.1970   37.8320 C   0  0  0  0  0  2  0  0  0  0  0  0
   38.3750   24.7060   36.5430 C   0  0  0  0  0  2  0  0  0  0  0  0
  1  2  1  0  0  0  0
  2  3  2  0  0  0  0
  2 16  1  0  0  0  0
  3 11  1  0  0  0  0
  4  5  1  0  0  0  0
  4  3  1  0  0  0  0
  5 12  1  0  0  0  0
  6  5  1  0  0  0  0
  7  8  1  0  0  0  0
  7  6  2  0  0  0  0
  8  4  2  0  0  0  0
  9  8  1  0  0  0  0
  9  1  2  0  0  0  0
 10  1  1  0  0  0  0
 13  9  1  0  0  0  0
 14 20  1  0  0  0  0
 15 21  1  0  0  0  0
 15 14  2  0  0  0  0
 16 15  1  0  0  0  0
 17 16  2  0  0  0  0
 17 18  1  0  0  0  0
 18 19  2  0  0  0  0
 19 14  1  0  0  0  0
 22 18  1  0  0  0  0
 23  6  1  0  0  0  0
 23 25  1  0  0  0  0
 24 30  1  0  0  0  0
 24 29  1  0  0  0  0
 25 31  1  1  0  0  0
 25 24  1  0  0  0  0
 26 25  1  0  0  0  0
 26 27  1  0  0  0  0
 27 28  1  0  0  0  0
 28 35  1  0  0  0  0
 28 34  1  0  0  0  0
 28 29  1  0  0  0  0
 29 36  1  1  0  0  0
 29 37  1  0  0  0  0
 32 26  1  0  0  0  0
 33 26  1  0  0  0  0
 37 38  1  0  0  0  0
 37 42  1  0  0  0  0
 38 39  1  0  0  0  0
 39 40  1  0  0  0  0
 41 40  1  0  0  0  0
 42 41  1  0  0  0  0
M  END
>  <minimizedAffinity>
-6.2223959

$$$$

 OpenBabel03272510283D

 42 46  0  0  1  0  0  0  0  0999 V2000
   35.4310   23.4060   31.4170 C   0  0  0  0  0  0  0  0  0  0  0  0
   36.4480   22.4710   31.2400 C   0  0  0  0  0  0  0  0  0  0  0  0
   37.7530   22.8630   30.9360 C   0  0  0  0  0  0  0  0  0  0  0  0
   37.9670   24.2310   30.8230 C   0  0  0  0  0  0  0  0  0  0  0  0
   39.1480   24.8560   30.5320 N   0  0  0  0  0  0  0  0  0  0  0  0
   38.8780   26.1740   30.5230 C   0  0  0  0  0  0  0  0  0  0  0  0
   37.6090   26.3880   30.7910 N   0  0  0  0  0  0  0  0  0  0  0  0
   36.9910   25.1920   30.9880 C   0  0  0  0  0  0  0  0  0  0  0  0
   35.6940   24.7650   31.2930 C   0  0  0  0  0  0  0  0  0  0  0  0
   34.4340   23.1100   31.6500 H   0  0  0  0  0  0  0  0  0  0  0  0
   38.5200   22.1300   30.8060 H   0  0  0  0  0  0  0  0  0  0  0  0
   40.0640   24.3870   30.3550 H   0  0  0  0  0  0  0  0  0  0  0  0
   34.9430   25.5220   31.4200 H   0  0  0  0  0  0  0  0  0  0  0  0
   34.8200   19.2440   32.2140 C   0  0  0  0  0  0  0  0  0  0  0  0
   35.0460   20.6040   32.1820 C   0  0  0  0  0  0  0  0  0  0  0  0
   36.0790   21.0690   31.3750 C   0  0  0  0  0  0  0  0  0  0  0  0
   36.7940   20.1510   30.6710 N   0  0  0  0  0  0  0  0  0  0  0  0
   36.5590   18.8270   30.7150 C   0  0  0  0  0  0  0  0  0  0  0  0
   35.5710   18.3890   31.4880 N   0  0  0  0  0  0  0  0  0  0  0  0
   34.0060   18.9110   32.8540 H   0  0  0  0  0  0  0  0  0  0  0  0
   34.4790   21.3220   32.7380 H   0  0  0  0  0  0  0  0  0  0  0  0
   37.1540   18.1440   30.1380 H   0  0  0  0  0  0  0  0  0  0  0  0
   39.8770   27.1230   30.2570 O   0  0  0  0  0  0  0  0  0  0  0  0
   40.0540   26.8160   32.5130 N   0  0  0  0  0  0  0  0  0  0  0  0
   40.6710   27.5220   31.3690 C   0  0  1  0  0  0  0  0  0  0  0  0
   42.0550   27.0830   31.2450 C   0  0  0  0  0  0  0  0  0  0  0  0
   42.7620   27.5000   32.3880 O   0  0  0  0  0  0  0  0  0  0  0  0
   42.2380   27.0880   33.5780 C   0  0  0  0  0  0  0  0  0  0  0  0
   40.7510   27.3060   33.6820 C   0  0  2  0  0  0  0  0  0  0  0  0
   39.0730   27.1810   32.5380 H   0  0  0  0  0  0  0  0  0  0  0  0
   40.6400   28.6110   31.5300 H   0  0  0  0  0  0  0  0  0  0  0  0
   42.3760   26.0910   31.0910 H   0  0  0  0  0  0  0  0  0  0  0  0
   42.5250   27.7050   30.4210 H   0  0  0  0  0  0  0  0  0  0  0  0
   42.7280   27.6890   34.3700 H   0  0  0  0  0  0  0  0  0  0  0  0
   42.4850   26.0230   33.8240 H   0  0  0  0  0  0  0  0  0  0  0  0
   40.5170   28.3800   33.7690 H   0  0  0  0  0  0  0  0  0  0  0  0
   40.2310   26.5250   34.8750 C   0  0  0  0  0  3  0  0  0  0  0  0
   39.0630   27.2060   35.5350 C   0  0  0  0  0  2  0  0  0  0  0  0
   37.8440   26.3270   35.6700 C   0  0  0  0  0  2  0  0  0  0  0  0
   38.1420   25.0260   36.3750 C   0  0  0  0  0  2  0  0  0  0  0  0
   39.3810   24.4200   35.7590 C   0  0  0  0  0  2  0  0  0  0  0  0
   39.7760   25.1440   34.4880 C   0  0  0  0  0  2  0  0  0  0  0  0
  1 10  1  0  0  0  0
  2 16  1  0  0  0  0
  2  1  2  0  0  0  0
  3  2  1  0  0  0  0
  4  3  2  0  0  0  0
  4  8  1  0  0  0  0
  5  4  1  0  0  0  0
  6  5  1  0  0  0  0
  6  7  2  0  0  0  0
  7  8  1  0  0  0  0
  8  9  2  0  0  0  0
  9  1  1  0  0  0  0
  9 13  1  0  0  0  0
 11  3  1  0  0  0  0
 12  5  1  0  0  0  0
 14 20  1  0  0  0  0
 15 14  1  0  0  0  0
 15 21  1  0  0  0  0
 16 15  2  0  0  0  0
 17 18  2  0  0  0  0
 17 16  1  0  0  0  0
 18 19  1  0  0  0  0
 19 14  2  0  0  0  0
 22 18  1  0  0  0  0
 23  6  1  0  0  0  0
 23 25  1  0  0  0  0
 24 30  1  0  0  0  0
 24 29  1  0  0  0  0
 25 31  1  1  0  0  0
 25 24  1  0  0  0  0
 26 25  1  0  0  0  0
 26 27  1  0  0  0  0
 27 28  1  0  0  0  0
 28 29  1  0  0  0  0
 28 35  1  0  0  0  0
 28 34  1  0  0  0  0
 29 36  1  1  0  0  0
 29 37  1  0  0  0  0
 32 26  1  0  0  0  0
 33 26  1  0  0  0  0
 37 38  1  0  0  0  0
 38 39  1  0  0  0  0
 39 40  1  0  0  0  0
 41 40  1  0  0  0  0
 42 37  1  0  0  0  0
 42 41  1  0  0  0  0
M  END
>  <minimizedAffinity>
-6.19968796

$$$$

 OpenBabel03272510283D

 42 46  0  0  1  0  0  0  0  0999 V2000
   38.7770   24.1350   36.4460 C   0  0  0  0  0  0  0  0  0  0  0  0
   39.9280   24.1530   35.6620 C   0  0  0  0  0  0  0  0  0  0  0  0
   40.0460   25.0050   34.5620 C   0  0  0  0  0  0  0  0  0  0  0  0
   38.9540   25.8230   34.3050 C   0  0  0  0  0  0  0  0  0  0  0  0
   38.8290   26.7330   33.2920 N   0  0  0  0  0  0  0  0  0  0  0  0
   37.6100   27.2830   33.4340 C   0  0  0  0  0  0  0  0  0  0  0  0
   36.9860   26.7640   34.4690 N   0  0  0  0  0  0  0  0  0  0  0  0
   37.7940   25.8380   35.0530 C   0  0  0  0  0  0  0  0  0  0  0  0
   37.7080   24.9720   36.1490 C   0  0  0  0  0  0  0  0  0  0  0  0
   38.6830   23.4850   37.2870 H   0  0  0  0  0  0  0  0  0  0  0  0
   40.9380   25.0050   33.9740 H   0  0  0  0  0  0  0  0  0  0  0  0
   39.5470   26.9440   32.5640 H   0  0  0  0  0  0  0  0  0  0  0  0
   36.8010   24.9930   36.7240 H   0  0  0  0  0  0  0  0  0  0  0  0
   43.1910   22.3500   36.0010 C   0  0  0  0  0  0  0  0  0  0  0  0
   42.2950   23.3010   35.5600 C   0  0  0  0  0  0  0  0  0  0  0  0
   40.9900   23.2320   36.0380 C   0  0  0  0  0  0  0  0  0  0  0  0
   40.6880   22.2320   36.9090 N   0  0  0  0  0  0  0  0  0  0  0  0
   41.5760   21.3120   37.3290 C   0  0  0  0  0  0  0  0  0  0  0  0
   42.8200   21.3840   36.8680 N   0  0  0  0  0  0  0  0  0  0  0  0
   44.2020   22.4300   35.6090 H   0  0  0  0  0  0  0  0  0  0  0  0
   42.5390   24.0860   34.8750 H   0  0  0  0  0  0  0  0  0  0  0  0
   41.2850   20.5430   38.0190 H   0  0  0  0  0  0  0  0  0  0  0  0
   37.1460   28.2710   32.5520 O   0  0  0  0  0  0  0  0  0  0  0  0
   35.8690   29.4130   34.0630 N   0  0  0  0  0  0  0  0  0  0  0  0
   35.8100   28.7150   32.7600 C   0  0  1  0  0  0  0  0  0  0  0  0
   35.3810   29.6680   31.7430 C   0  0  0  0  0  0  0  0  0  0  0  0
   34.0630   30.0690   32.0310 O   0  0  0  0  0  0  0  0  0  0  0  0
   33.8730   30.5880   33.2780 C   0  0  0  0  0  0  0  0  0  0  0  0
   34.4990   29.7600   34.3700 C   0  0  2  0  0  0  0  0  0  0  0  0
   36.1800   28.6720   34.7340 H   0  0  0  0  0  0  0  0  0  0  0  0
   35.0970   27.8770   32.8070 H   0  0  0  0  0  0  0  0  0  0  0  0
   35.8740   30.5640   31.4910 H   0  0  0  0  0  0  0  0  0  0  0  0
   35.2580   29.0860   30.7780 H   0  0  0  0  0  0  0  0  0  0  0  0
   32.7790   30.6130   33.4520 H   0  0  0  0  0  0  0  0  0  0  0  0
   34.2080   31.6540   33.3680 H   0  0  0  0  0  0  0  0  0  0  0  0
   33.9510   28.8130   34.5080 H   0  0  0  0  0  0  0  0  0  0  0  0
   34.5190   30.5810   35.6460 C   0  0  0  0  0  3  0  0  0  0  0  0
   35.7970   31.3600   35.8020 C   0  0  0  0  0  2  0  0  0  0  0  0
   35.5860   32.8390   36.0140 C   0  0  0  0  0  2  0  0  0  0  0  0
   34.6650   33.1330   37.1730 C   0  0  0  0  0  2  0  0  0  0  0  0
   33.4390   32.2590   37.0450 C   0  0  0  0  0  2  0  0  0  0  0  0
   33.3890   31.5740   35.6940 C   0  0  0  0  0  2  0  0  0  0  0  0
  1 10  1  0  0  0  0
  2 16  1  0  0  0  0
  2  1  2  0  0  0  0
  3  2  1  0  0  0  0
  4  3  2  0  0  0  0
  4  8  1  0  0  0  0
  5  6  1  0  0  0  0
  5  4  1  0  0  0  0
  6  7  2  0  0  0  0
  7  8  1  0  0  0  0
  8  9  2  0  0  0  0
  9  1  1  0  0  0  0
  9 13  1  0  0  0  0
 11  3  1  0  0  0  0
 12  5  1  0  0  0  0
 14 19  1  0  0  0  0
 15 14  2  0  0  0  0
 15 16  1  0  0  0  0
 16 17  2  0  0  0  0
 17 18  1  0  0  0  0
 18 22  1  0  0  0  0
 19 18  2  0  0  0  0
 20 14  1  0  0  0  0
 21 15  1  0  0  0  0
 23 25  1  0  0  0  0
 23  6  1  0  0  0  0
 24 29  1  0  0  0  0
 24 30  1  0  0  0  0
 25 31  1  1  0  0  0
 25 24  1  0  0  0  0
 26 27  1  0  0  0  0
 26 25  1  0  0  0  0
 27 28  1  0  0  0  0
 28 35  1  0  0  0  0
 28 34  1  0  0  0  0
 28 29  1  0  0  0  0
 29 36  1  1  0  0  0
 29 37  1  0  0  0  0
 32 26  1  0  0  0  0
 33 26  1  0  0  0  0
 37 42  1  0  0  0  0
 37 38  1  0  0  0  0
 38 39  1  0  0  0  0
 39 40  1  0  0  0  0
 41 40  1  0  0  0  0
 42 41  1  0  0  0  0
M  END
>  <minimizedAffinity>
-6.15957117

$$$$
