
 OpenBabel03272508123D

 31 33  0  0  0  0  0  0  0  0999 V2000
   36.6460   29.4500   44.0230 Cl  0  0  0  0  0  0  0  0  0  0  0  0
   38.3050   29.8310   43.4960 C   0  0  0  0  0  0  0  0  0  0  0  0
   39.3040   30.3080   44.3470 C   0  0  0  0  0  0  0  0  0  0  0  0
   40.5390   30.5580   43.7950 C   0  0  0  0  0  0  0  0  0  0  0  0
   40.7820   30.3480   42.4600 C   0  0  0  0  0  0  0  0  0  0  0  0
   39.8120   29.8810   41.6100 C   0  0  0  0  0  0  0  0  0  0  0  0
   38.5820   29.6260   42.1320 C   0  0  0  0  0  0  0  0  0  0  0  0
   41.2630   30.9240   44.5120 H   0  0  0  0  0  0  0  0  0  0  0  0
   41.7710   30.5620   42.0760 H   0  0  0  0  0  0  0  0  0  0  0  0
   40.0130   29.7180   40.5520 H   0  0  0  0  0  0  0  0  0  0  0  0
   37.5050   29.1150   41.2220 C   0  0  0  0  0  3  0  0  0  0  0  0
   37.8490   27.6520   40.9960 C   0  0  0  0  0  2  0  0  0  0  0  0
   36.8890   27.0810   40.0000 C   0  0  0  0  0  2  0  0  0  0  0  0
   35.7060   27.9830   39.7480 C   0  0  0  0  0  2  0  0  0  0  0  0
   36.1280   29.3540   39.2640 C   0  0  0  0  0  2  0  0  0  0  0  0
   37.4150   29.8290   39.9220 C   0  0  0  0  0  2  0  0  0  0  0  0
   38.8700   30.4510   45.6350 O   0  0  0  0  0  0  0  0  0  0  0  0
   39.4420   32.5030   47.0990 O   0  0  0  0  0  0  0  0  0  0  0  0
   38.2960   31.8340   46.4110 P   0  0  1  0  0  0  0  0  0  0  0  0
   37.7110   32.8440   45.1680 O   0  0  0  0  0  0  0  0  0  0  0  0
   37.4780   32.3510   44.3510 H   0  0  0  0  0  0  0  0  0  0  0  0
   37.0200   31.4110   47.4410 O   0  0  0  0  0  0  0  0  0  0  0  0
   37.6160   30.5280   50.9840 C   0  0  0  0  0  0  0  0  0  0  0  0
   37.7020   31.2940   49.8200 C   0  0  0  0  0  0  0  0  0  0  0  0
   37.0700   30.8420   48.6640 C   0  0  0  0  0  0  0  0  0  0  0  0
   36.3910   29.6490   48.7410 N   0  0  0  0  0  0  0  0  0  0  0  0
   36.3320   28.9390   49.8840 C   0  0  0  0  0  0  0  0  0  0  0  0
   36.9430   29.3810   50.9960 N   0  0  0  0  0  0  0  0  0  0  0  0
   38.1380   30.9550   51.8440 H   0  0  0  0  0  0  0  0  0  0  0  0
   38.2090   32.2300   49.6780 H   0  0  0  0  0  0  0  0  0  0  0  0
   35.7790   27.9880   49.9090 H   0  0  0  0  0  0  0  0  0  0  0  0
  2  1  1  0  0  0  0
  2  3  1  0  0  0  0
  3 17  1  0  0  0  0
  4  3  2  0  0  0  0
  4  8  1  0  0  0  0
  5  4  1  0  0  0  0
  6  7  1  0  0  0  0
  6  5  2  0  0  0  0
  7  2  2  0  0  0  0
  9  5  1  0  0  0  0
 10  6  1  0  0  0  0
 11  7  1  0  0  0  0
 12 11  1  0  0  0  0
 13 12  1  0  0  0  0
 14 13  1  0  0  0  0
 15 14  1  0  0  0  0
 15 16  1  0  0  0  0
 16 11  1  0  0  0  0
 17 19  1  0  0  0  0
 19 18  2  1  0  0  0
 19 22  1  0  0  0  0
 20 19  1  0  0  0  0
 21 20  1  0  0  0  0
 22 25  1  0  0  0  0
 23 28  1  0  0  0  0
 23 29  1  0  0  0  0
 24 23  2  0  0  0  0
 25 26  2  0  0  0  0
 25 24  1  0  0  0  0
 26 27  1  0  0  0  0
 27 31  1  0  0  0  0
 27 28  2  0  0  0  0
 30 24  1  0  0  0  0
M  END
>  <minimizedAffinity>
-4.8279357

>  <minimizedRMSD>
0.153178394

$$$$
