
 OpenBabel03272508063D

 32 35  0  0  0  0  0  0  0  0999 V2000
   38.9100   30.8640   45.7230 C   0  0  0  0  0  0  0  0  0  0  0  0
   40.1190   31.4880   45.9660 C   0  0  0  0  0  0  0  0  0  0  0  0
   40.9470   31.4170   44.8390 C   0  0  0  0  0  0  0  0  0  0  0  0
   40.1920   30.7440   43.9570 N   0  0  0  0  0  0  0  0  0  0  0  0
   39.0050   30.4200   44.4660 N   0  0  0  0  0  0  0  0  0  0  0  0
   40.4290   31.9810   46.8920 H   0  0  0  0  0  0  0  0  0  0  0  0
   41.9380   31.7810   44.6580 H   0  0  0  0  0  0  0  0  0  0  0  0
   37.8040   30.7380   46.6530 C   0  0  0  0  0  0  0  0  0  0  0  0
   38.0370   30.9870   48.0210 C   0  0  0  0  0  0  0  0  0  0  0  0
   36.9640   30.8640   48.8970 C   0  0  0  0  0  0  0  0  0  0  0  0
   35.7480   30.5090   48.3830 N   0  0  0  0  0  0  0  0  0  0  0  0
   35.5470   30.2750   47.0630 C   0  0  0  0  0  0  0  0  0  0  0  0
   36.5850   30.3940   46.2090 N   0  0  0  0  0  0  0  0  0  0  0  0
   39.0100   31.2650   48.3980 H   0  0  0  0  0  0  0  0  0  0  0  0
   34.5600   30.0000   46.7250 H   0  0  0  0  0  0  0  0  0  0  0  0
   37.1790   31.1180   50.3440 C   0  0  0  0  0  0  0  0  0  0  0  0
   36.6690   32.3700   50.5860 F   0  0  0  0  0  0  0  0  0  0  0  0
   36.5190   30.1970   51.1580 F   0  0  0  0  0  0  0  0  0  0  0  0
   38.5340   31.1340   50.6670 F   0  0  0  0  0  0  0  0  0  0  0  0
   40.5180   30.3580   42.5790 C   0  0  0  0  0  0  0  0  0  0  0  0
   40.2170   31.1890   41.4870 C   0  0  0  0  0  0  0  0  0  0  0  0
   40.5260   30.7960   40.2470 C   0  0  0  0  0  0  0  0  0  0  0  0
   41.1600   29.5320   40.0470 C   0  0  0  0  0  0  0  0  0  0  0  0
   41.2990   28.9070   41.8000 S   0  0  0  0  0  0  0  0  0  0  0  0
   39.7330   32.1600   41.6150 H   0  0  0  0  0  0  0  0  0  0  0  0
   40.3680   31.3040   39.3070 H   0  0  0  0  0  0  0  0  0  0  0  0
   41.6210   28.8030   38.9330 C   0  0  0  0  0  3  0  0  0  0  0  0
   41.0800   29.4270   37.6890 C   0  0  0  0  0  2  0  0  0  0  0  0
   42.1660   30.2030   36.9400 C   0  0  0  0  0  2  0  0  0  0  0  0
   43.1460   29.1370   36.4380 C   0  0  0  0  0  2  0  0  0  0  0  0
   43.6930   28.3360   37.5940 C   0  0  0  0  0  2  0  0  0  0  0  0
   43.1330   28.7810   38.9190 C   0  0  0  0  0  2  0  0  0  0  0  0
  1  2  1  0  0  0  0
  1  8  1  0  0  0  0
  2  6  1  0  0  0  0
  3  2  2  0  0  0  0
  4  5  1  0  0  0  0
  4  3  1  0  0  0  0
  5  1  2  0  0  0  0
  7  3  1  0  0  0  0
  8  9  1  0  0  0  0
  9 14  1  0  0  0  0
  9 10  2  0  0  0  0
 10 16  1  0  0  0  0
 11 10  1  0  0  0  0
 12 11  2  0  0  0  0
 13  8  2  0  0  0  0
 13 12  1  0  0  0  0
 15 12  1  0  0  0  0
 16 17  1  0  0  0  0
 16 19  1  0  0  0  0
 16 18  1  0  0  0  0
 20  4  1  0  0  0  0
 21 25  1  0  0  0  0
 21 20  2  0  0  0  0
 22 21  1  0  0  0  0
 23 22  2  0  0  0  0
 23 24  1  0  0  0  0
 24 20  1  0  0  0  0
 26 22  1  0  0  0  0
 27 23  1  0  0  0  0
 28 27  1  0  0  0  0
 29 28  1  0  0  0  0
 30 29  1  0  0  0  0
 30 31  1  0  0  0  0
 31 32  1  0  0  0  0
 32 27  1  0  0  0  0
M  END
>  <minimizedAffinity>
-6.20913601

>  <minimizedRMSD>
0.149171501

$$$$
