
 OpenBabel03272506473D

 39 42  0  0  1  0  0  0  0  0999 V2000
   32.1240   28.4990   47.4410 C   0  0  2  0  0  0  0  0  0  0  0  0
   33.3720   28.3250   48.2550 C   0  0  1  0  0  0  0  0  0  0  0  0
   33.7600   27.0220   48.1570 O   0  0  0  0  0  0  0  0  0  0  0  0
   33.0540   26.4120   47.1260 C   0  0  0  0  0  0  0  0  0  0  0  0
   32.4470   27.5020   46.2830 C   0  0  1  0  0  0  0  0  0  0  0  0
   31.1980   28.1780   47.9070 H   0  0  0  0  0  0  0  0  0  0  0  0
   33.1790   28.6680   49.2920 H   0  0  0  0  0  0  0  0  0  0  0  0
   32.3760   25.6990   47.5650 H   0  0  0  0  0  0  0  0  0  0  0  0
   33.8060   25.8520   46.5030 H   0  0  0  0  0  0  0  0  0  0  0  0
   33.1540   28.0160   45.6400 H   0  0  0  0  0  0  0  0  0  0  0  0
   32.0520   29.8050   46.9120 O   0  0  0  0  0  0  0  0  0  0  0  0
   32.7080   29.8620   46.1820 H   0  0  0  0  0  0  0  0  0  0  0  0
   34.6800   29.3690   47.4950 S   0  0  0  0  0  0  0  0  0  0  0  0
   37.1020   29.2800   50.6290 C   0  0  0  0  0  0  0  0  0  0  0  0
   37.5880   30.5840   50.7450 C   0  0  0  0  0  0  0  0  0  0  0  0
   37.1520   31.5280   49.8180 C   0  0  0  0  0  0  0  0  0  0  0  0
   36.2750   31.1390   48.8480 N   0  0  0  0  0  0  0  0  0  0  0  0
   35.8290   29.8660   48.7710 C   0  0  0  0  0  0  0  0  0  0  0  0
   36.2350   28.9210   49.6580 N   0  0  0  0  0  0  0  0  0  0  0  0
   37.4660   28.5940   51.3610 H   0  0  0  0  0  0  0  0  0  0  0  0
   38.2880   30.8470   51.5380 H   0  0  0  0  0  0  0  0  0  0  0  0
   37.5130   32.5420   49.8880 H   0  0  0  0  0  0  0  0  0  0  0  0
   31.2950   27.0300   45.7030 O   0  0  0  0  0  0  0  0  0  0  0  0
   29.8730   29.1660   44.2600 Cl  0  0  0  0  0  0  0  0  0  0  0  0
   29.2970   28.1700   45.5740 C   0  0  0  0  0  0  0  0  0  0  0  0
   30.0590   27.1870   46.1650 C   0  0  0  0  0  0  0  0  0  0  0  0
   29.4800   26.4370   47.1910 C   0  0  0  0  0  0  0  0  0  0  0  0
   28.1840   26.6800   47.5930 C   0  0  0  0  0  0  0  0  0  0  0  0
   27.4110   27.6650   47.0060 C   0  0  0  0  0  0  0  0  0  0  0  0
   27.9900   28.4050   45.9910 C   0  0  0  0  0  0  0  0  0  0  0  0
   30.0010   25.6470   47.7030 H   0  0  0  0  0  0  0  0  0  0  0  0
   27.6970   26.1240   48.3810 H   0  0  0  0  0  0  0  0  0  0  0  0
   26.3950   27.8460   47.3320 H   0  0  0  0  0  0  0  0  0  0  0  0
   27.1630   29.4670   45.3560 C   0  0  0  0  0  3  0  0  0  0  0  0
   26.9770   29.2630   43.8800 C   0  0  0  0  0  2  0  0  0  0  0  0
   26.8190   30.5990   43.1510 C   0  0  0  0  0  2  0  0  0  0  0  0
   26.0330   31.5940   43.9580 C   0  0  0  0  0  2  0  0  0  0  0  0
   26.8280   31.9230   45.2020 C   0  0  0  0  0  2  0  0  0  0  0  0
   27.7970   30.8220   45.5480 C   0  0  0  0  0  2  0  0  0  0  0  0
  1  6  1  1  0  0  0
  1  2  1  0  0  0  0
  2  7  1  1  0  0  0
  3  2  1  0  0  0  0
  4  8  1  0  0  0  0
  4  3  1  0  0  0  0
  5 10  1  6  0  0  0
  5  4  1  0  0  0  0
  5  1  1  0  0  0  0
  9  4  1  0  0  0  0
 11  1  1  0  0  0  0
 12 11  1  0  0  0  0
 13  2  1  0  0  0  0
 13 18  1  0  0  0  0
 14 15  1  0  0  0  0
 14 20  1  0  0  0  0
 15 21  1  0  0  0  0
 16 22  1  0  0  0  0
 16 15  2  0  0  0  0
 17 16  1  0  0  0  0
 18 17  2  0  0  0  0
 18 19  1  0  0  0  0
 19 14  2  0  0  0  0
 23 26  1  0  0  0  0
 23  5  1  0  0  0  0
 24 25  1  0  0  0  0
 25 30  2  0  0  0  0
 25 26  1  0  0  0  0
 26 27  2  0  0  0  0
 27 28  1  0  0  0  0
 27 31  1  0  0  0  0
 28 32  1  0  0  0  0
 29 33  1  0  0  0  0
 29 28  2  0  0  0  0
 30 29  1  0  0  0  0
 34 39  1  0  0  0  0
 34 30  1  0  0  0  0
 35 34  1  0  0  0  0
 36 35  1  0  0  0  0
 36 37  1  0  0  0  0
 37 38  1  0  0  0  0
 38 39  1  0  0  0  0
M  END
>  <minimizedAffinity>
-5.24356937

>  <minimizedRMSD>
0.486272901

$$$$
