
 OpenBabel03272506303D

 31 33  0  0  1  0  0  0  0  0999 V2000
   33.9660   29.1080   47.8220 C   0  0  1  0  0  0  0  0  0  0  0  0
   33.9140   29.2110   46.3510 C   0  0  0  0  0  0  0  0  0  0  0  0
   34.2150   27.9640   45.5670 C   0  0  0  0  0  0  0  0  0  0  0  0
   33.6620   26.7260   46.1650 C   0  0  0  0  0  0  0  0  0  0  0  0
   33.7370   26.6020   47.6260 C   0  0  0  0  0  0  0  0  0  0  0  0
   33.3570   27.8660   48.3540 C   0  0  2  0  0  0  0  0  0  0  0  0
   33.3100   29.9460   48.2150 H   0  0  0  0  0  0  0  0  0  0  0  0
   32.8130   29.3850   46.1050 H   0  0  0  0  0  0  0  0  0  0  0  0
   34.4040   30.0410   45.8810 H   0  0  0  0  0  0  0  0  0  0  0  0
   35.3230   27.8620   45.5270 H   0  0  0  0  0  0  0  0  0  0  0  0
   33.8600   28.0980   44.5380 H   0  0  0  0  0  0  0  0  0  0  0  0
   34.1870   25.8410   45.7210 H   0  0  0  0  0  0  0  0  0  0  0  0
   32.6000   26.6170   45.8460 H   0  0  0  0  0  0  0  0  0  0  0  0
   33.1290   25.7790   48.0000 H   0  0  0  0  0  0  0  0  0  0  0  0
   34.7980   26.3270   47.8910 H   0  0  0  0  0  0  0  0  0  0  0  0
   33.6930   27.6810   49.3810 H   0  0  0  0  0  0  0  0  0  0  0  0
   36.2340   30.2960   47.8260 C   0  0  0  0  0  0  0  0  0  0  0  0
   35.2870   29.4330   48.4260 C   0  0  0  0  0  0  0  0  0  0  0  0
   35.6330   28.8710   49.6380 C   0  0  0  0  0  0  0  0  0  0  0  0
   36.8360   29.1550   50.1960 N   0  0  0  0  0  0  0  0  0  0  0  0
   37.7170   29.9900   49.5840 C   0  0  0  0  0  0  0  0  0  0  0  0
   37.4050   30.5600   48.3920 N   0  0  0  0  0  0  0  0  0  0  0  0
   35.9970   30.7530   46.8790 H   0  0  0  0  0  0  0  0  0  0  0  0
   35.0960   28.2090   50.2850 H   0  0  0  0  0  0  0  0  0  0  0  0
   38.6850   30.2330   50.0100 H   0  0  0  0  0  0  0  0  0  0  0  0
   31.8460   27.8940   48.4400 C   0  0  0  0  0  0  0  0  0  0  0  0
   31.2910   28.5820   47.1900 C   0  0  0  0  0  0  0  0  0  0  0  0
   29.9510   28.0120   46.7740 C   0  0  0  0  0  0  0  0  0  0  0  0
   29.0840   27.8860   47.9870 C   0  0  0  0  0  0  0  0  0  0  0  0
   29.7070   26.8560   48.8820 C   0  0  0  0  0  0  0  0  0  0  0  0
   31.1750   26.5730   48.5120 C   0  0  0  0  0  0  0  0  0  0  0  0
  1  7  1  1  0  0  0
  1  6  1  0  0  0  0
  1 18  1  0  0  0  0
  2  1  1  0  0  0  0
  3  4  1  0  0  0  0
  3  2  1  0  0  0  0
  4  5  1  0  0  0  0
  5 15  1  0  0  0  0
  5 14  1  0  0  0  0
  5  6  1  0  0  0  0
  6 26  1  0  0  0  0
  6 16  1  1  0  0  0
  8  2  1  0  0  0  0
  9  2  1  0  0  0  0
 10  3  1  0  0  0  0
 11  3  1  0  0  0  0
 12  4  1  0  0  0  0
 13  4  1  0  0  0  0
 17 22  2  0  0  0  0
 17 18  1  0  0  0  0
 18 19  2  0  0  0  0
 19 20  1  0  0  0  0
 19 24  1  0  0  0  0
 21 25  1  0  0  0  0
 21 20  2  0  0  0  0
 22 21  1  0  0  0  0
 23 17  1  0  0  0  0
 26 31  1  0  0  0  0
 27 26  1  0  0  0  0
 28 27  1  0  0  0  0
 28 29  1  0  0  0  0
 29 30  1  0  0  0  0
 31 30  1  0  0  0  0
M  END
>  <minimizedAffinity>
-4.68305874

>  <minimizedRMSD>
1.7832036

$$$$
