
 OpenBabel03272510273D

 42 46  0  0  1  0  0  0  0  0999 V2000
   36.2360   30.2080   46.9120 C   0  0  0  0  0  0  0  0  0  0  0  0
   37.0670   30.7810   47.8720 C   0  0  0  0  0  0  0  0  0  0  0  0
   38.0590   31.6980   47.5210 C   0  0  0  0  0  0  0  0  0  0  0  0
   38.1610   31.9980   46.1680 C   0  0  0  0  0  0  0  0  0  0  0  0
   39.0490   32.8580   45.5820 N   0  0  0  0  0  0  0  0  0  0  0  0
   38.7810   32.8260   44.2640 C   0  0  0  0  0  0  0  0  0  0  0  0
   37.7880   32.0020   44.0140 N   0  0  0  0  0  0  0  0  0  0  0  0
   37.3610   31.4550   45.1840 C   0  0  0  0  0  0  0  0  0  0  0  0
   36.3760   30.5390   45.5700 C   0  0  0  0  0  0  0  0  0  0  0  0
   35.4760   29.5080   47.1770 H   0  0  0  0  0  0  0  0  0  0  0  0
   38.6860   32.1270   48.2720 H   0  0  0  0  0  0  0  0  0  0  0  0
   39.7800   33.4160   46.0750 H   0  0  0  0  0  0  0  0  0  0  0  0
   35.7590   30.1240   44.7950 H   0  0  0  0  0  0  0  0  0  0  0  0
   37.4300   30.1260   51.5390 C   0  0  0  0  0  0  0  0  0  0  0  0
   37.7630   30.5880   50.2840 C   0  0  0  0  0  0  0  0  0  0  0  0
   36.8580   30.3650   49.2500 C   0  0  0  0  0  0  0  0  0  0  0  0
   35.7060   29.7070   49.5500 N   0  0  0  0  0  0  0  0  0  0  0  0
   35.3970   29.2630   50.7820 C   0  0  0  0  0  0  0  0  0  0  0  0
   36.2660   29.4790   51.7640 N   0  0  0  0  0  0  0  0  0  0  0  0
   38.1570   30.3150   52.3250 H   0  0  0  0  0  0  0  0  0  0  0  0
   38.6710   31.1060   50.0540 H   0  0  0  0  0  0  0  0  0  0  0  0
   34.4720   28.7490   50.9650 H   0  0  0  0  0  0  0  0  0  0  0  0
   39.5120   33.6010   43.3510 O   0  0  0  0  0  0  0  0  0  0  0  0
   39.6790   31.8730   41.8670 N   0  0  0  0  0  0  0  0  0  0  0  0
   39.3080   33.3010   41.9740 C   0  0  1  0  0  0  0  0  0  0  0  0
   37.9130   33.4500   41.5790 C   0  0  0  0  0  0  0  0  0  0  0  0
   37.7960   33.1170   40.2170 O   0  0  0  0  0  0  0  0  0  0  0  0
   38.2550   31.8790   39.8780 C   0  0  0  0  0  0  0  0  0  0  0  0
   39.6130   31.5690   40.4540 C   0  0  2  0  0  0  0  0  0  0  0  0
   40.6820   31.8480   42.1630 H   0  0  0  0  0  0  0  0  0  0  0  0
   39.9470   33.9130   41.3180 H   0  0  0  0  0  0  0  0  0  0  0  0
   37.0890   32.9730   42.0320 H   0  0  0  0  0  0  0  0  0  0  0  0
   37.6860   34.5600   41.5850 H   0  0  0  0  0  0  0  0  0  0  0  0
   38.3400   31.8590   38.7730 H   0  0  0  0  0  0  0  0  0  0  0  0
   37.5370   31.0560   40.1320 H   0  0  0  0  0  0  0  0  0  0  0  0
   40.3950   32.1690   39.9600 H   0  0  0  0  0  0  0  0  0  0  0  0
   39.8740   30.0820   40.3020 C   0  0  0  0  0  3  0  0  0  0  0  0
   41.0750   29.6310   41.0880 C   0  0  0  0  0  2  0  0  0  0  0  0
   40.7910   28.4900   42.0320 C   0  0  0  0  0  2  0  0  0  0  0  0
   40.1630   27.3060   41.3370 C   0  0  0  0  0  2  0  0  0  0  0  0
   39.0270   27.8040   40.4740 C   0  0  0  0  0  2  0  0  0  0  0  0
   38.7060   29.2560   40.7680 C   0  0  0  0  0  2  0  0  0  0  0  0
  1 10  1  0  0  0  0
  1  2  1  0  0  0  0
  2 16  1  0  0  0  0
  3  2  2  0  0  0  0
  3 11  1  0  0  0  0
  4  3  1  0  0  0  0
  5 12  1  0  0  0  0
  5  4  1  0  0  0  0
  6  5  1  0  0  0  0
  7  6  2  0  0  0  0
  7  8  1  0  0  0  0
  8  9  1  0  0  0  0
  8  4  2  0  0  0  0
  9  1  2  0  0  0  0
 13  9  1  0  0  0  0
 14 19  1  0  0  0  0
 14 20  1  0  0  0  0
 15 14  2  0  0  0  0
 16 17  2  0  0  0  0
 16 15  1  0  0  0  0
 17 18  1  0  0  0  0
 18 22  1  0  0  0  0
 18 19  2  0  0  0  0
 21 15  1  0  0  0  0
 23  6  1  0  0  0  0
 24 25  1  0  0  0  0
 24 30  1  0  0  0  0
 25 31  1  6  0  0  0
 25 23  1  0  0  0  0
 26 33  1  0  0  0  0
 26 25  1  0  0  0  0
 26 32  1  0  0  0  0
 27 26  1  0  0  0  0
 28 35  1  0  0  0  0
 28 27  1  0  0  0  0
 28 29  1  0  0  0  0
 29 36  1  6  0  0  0
 29 24  1  0  0  0  0
 34 28  1  0  0  0  0
 37 29  1  0  0  0  0
 37 42  1  0  0  0  0
 37 38  1  0  0  0  0
 38 39  1  0  0  0  0
 40 39  1  0  0  0  0
 41 42  1  0  0  0  0
 41 40  1  0  0  0  0
M  END
>  <minimizedAffinity>
-6.20654488

>  <minimizedRMSD>
0.179750532

$$$$
