
 OpenBabel03262522373D

 24 26  0  0  0  0  0  0  0  0999 V2000
   38.5450   31.4500   47.9700 C   0  0  0  0  0  0  0  0  0  0  0  0
   38.9970   32.7410   48.0940 C   0  0  0  0  0  0  0  0  0  0  0  0
   39.6790   33.4220   47.1250 C   0  0  0  0  0  0  0  0  0  0  0  0
   39.9510   32.7930   45.9200 C   0  0  0  0  0  0  0  0  0  0  0  0
   39.4910   31.4870   45.8000 C   0  0  0  0  0  0  0  0  0  0  0  0
   38.8280   30.8590   46.7730 N   0  0  0  0  0  0  0  0  0  0  0  0
   38.8130   33.2740   49.0080 H   0  0  0  0  0  0  0  0  0  0  0  0
   40.0090   34.4410   47.2840 H   0  0  0  0  0  0  0  0  0  0  0  0
   40.4910   33.3020   45.1260 H   0  0  0  0  0  0  0  0  0  0  0  0
   37.2970   30.1970   51.2880 C   0  0  0  0  0  0  0  0  0  0  0  0
   38.0540   30.9400   50.3740 C   0  0  0  0  0  0  0  0  0  0  0  0
   37.8240   30.7390   49.0040 C   0  0  0  0  0  0  0  0  0  0  0  0
   36.8850   29.8390   48.6300 N   0  0  0  0  0  0  0  0  0  0  0  0
   36.1620   29.1280   49.5410 C   0  0  0  0  0  0  0  0  0  0  0  0
   36.3710   29.3090   50.8520 N   0  0  0  0  0  0  0  0  0  0  0  0
   37.4760   30.3540   52.3420 H   0  0  0  0  0  0  0  0  0  0  0  0
   38.8080   31.6630   50.6740 H   0  0  0  0  0  0  0  0  0  0  0  0
   35.4300   28.4270   49.1470 H   0  0  0  0  0  0  0  0  0  0  0  0
   39.7910   30.8290   44.5030 C   0  0  0  0  0  0  0  0  0  0  0  0
   39.6300   31.7660   43.3280 C   0  0  0  0  0  0  0  0  0  0  0  0
   40.2900   31.0620   42.1370 C   0  0  0  0  0  0  0  0  0  0  0  0
   39.6180   29.7520   41.8540 C   0  0  0  0  0  0  0  0  0  0  0  0
   39.3670   28.9000   43.0480 C   0  0  0  0  0  0  0  0  0  0  0  0
   38.9130   29.6200   44.2780 C   0  0  0  0  0  0  0  0  0  0  0  0
  1  2  1  0  0  0  0
  1 12  1  0  0  0  0
  2  7  1  0  0  0  0
  3  8  1  0  0  0  0
  3  2  2  0  0  0  0
  4  3  1  0  0  0  0
  5  4  2  0  0  0  0
  5  6  1  0  0  0  0
  6  1  2  0  0  0  0
  9  4  1  0  0  0  0
 10 16  1  0  0  0  0
 11 17  1  0  0  0  0
 11 10  2  0  0  0  0
 12 11  1  0  0  0  0
 13 12  2  0  0  0  0
 13 14  1  0  0  0  0
 14 15  2  0  0  0  0
 15 10  1  0  0  0  0
 18 14  1  0  0  0  0
 19  5  1  0  0  0  0
 20 19  1  0  0  0  0
 21 20  1  0  0  0  0
 22 21  1  0  0  0  0
 22 23  1  0  0  0  0
 23 24  1  0  0  0  0
 24 19  1  0  0  0  0
M  END
>  <minimizedAffinity>
-5.86304522

>  <minimizedRMSD>
0.640738189

$$$$
