
 OpenBabel03272510333D

 25 27  0  0  0  0  0  0  0  0999 V2000
   36.0960   29.9720   48.0910 C   0  0  0  0  0  0  0  0  0  0  0  0
   35.1190   29.9010   47.1110 C   0  0  0  0  0  0  0  0  0  0  0  0
   34.0170   29.0670   47.2950 C   0  0  0  0  0  0  0  0  0  0  0  0
   33.9300   28.3320   48.4500 C   0  0  0  0  0  0  0  0  0  0  0  0
   34.9140   28.4030   49.4390 C   0  0  0  0  0  0  0  0  0  0  0  0
   36.0050   29.2310   49.2540 C   0  0  0  0  0  0  0  0  0  0  0  0
   35.1410   30.4570   46.1850 H   0  0  0  0  0  0  0  0  0  0  0  0
   33.2480   29.0050   46.5340 H   0  0  0  0  0  0  0  0  0  0  0  0
   33.0530   27.7010   48.5400 H   0  0  0  0  0  0  0  0  0  0  0  0
   34.7190   27.7860   50.2760 H   0  0  0  0  0  0  0  0  0  0  0  0
   38.3700   32.8040   48.4120 C   0  0  0  0  0  0  0  0  0  0  0  0
   39.2980   32.6320   47.3900 C   0  0  0  0  0  0  0  0  0  0  0  0
   39.1300   31.5030   46.5700 C   0  0  0  0  0  0  0  0  0  0  0  0
   38.0980   30.6550   46.8050 N   0  0  0  0  0  0  0  0  0  0  0  0
   37.2130   30.8610   47.8160 C   0  0  0  0  0  0  0  0  0  0  0  0
   37.3790   31.9390   48.5930 N   0  0  0  0  0  0  0  0  0  0  0  0
   38.5440   33.6930   49.0180 H   0  0  0  0  0  0  0  0  0  0  0  0
   40.1380   33.2310   47.1210 H   0  0  0  0  0  0  0  0  0  0  0  0
   39.7530   31.2130   45.7350 H   0  0  0  0  0  0  0  0  0  0  0  0
   37.0270   29.2980   50.3170 C   0  0  0  0  0  3  0  0  0  0  0  0
   36.5610   29.9660   51.5640 C   0  0  0  0  0  2  0  0  0  0  0  0
   37.7890   30.1030   52.4710 C   0  0  0  0  0  2  0  0  0  0  0  0
   38.1060   28.6880   52.9090 C   0  0  0  0  0  2  0  0  0  0  0  0
   38.5650   27.9080   51.7300 C   0  0  0  0  0  2  0  0  0  0  0  0
   37.6320   27.9410   50.5470 C   0  0  0  0  0  2  0  0  0  0  0  0
  1  6  1  0  0  0  0
  2  3  1  0  0  0  0
  2  1  2  0  0  0  0
  3  4  2  0  0  0  0
  4  9  1  0  0  0  0
  4  5  1  0  0  0  0
  5 10  1  0  0  0  0
  6  5  2  0  0  0  0
  6 20  1  0  0  0  0
  7  2  1  0  0  0  0
  8  3  1  0  0  0  0
 11 16  1  0  0  0  0
 11 17  1  0  0  0  0
 12 11  2  0  0  0  0
 13 14  2  0  0  0  0
 13 12  1  0  0  0  0
 14 15  1  0  0  0  0
 15  1  1  0  0  0  0
 15 16  2  0  0  0  0
 18 12  1  0  0  0  0
 19 13  1  0  0  0  0
 20 25  1  0  0  0  0
 20 21  1  0  0  0  0
 21 22  1  0  0  0  0
 22 23  1  0  0  0  0
 24 23  1  0  0  0  0
 25 24  1  0  0  0  0
M  END
>  <minimizedAffinity>
-2.54568839

>  <minimizedRMSD>
0.813012064

$$$$
