
 OpenBabel03272501233D

 37 40  0  0  0  0  0  0  0  0999 V2000
   36.2330   28.9030   33.4290 C   0  0  0  0  0  0  0  0  0  0  0  0
   35.7400   30.1970   33.5100 C   0  0  0  0  0  0  0  0  0  0  0  0
   35.8990   30.9590   32.3720 C   0  0  0  0  0  0  0  0  0  0  0  0
   36.5200   30.4340   31.2310 C   0  0  0  0  0  0  0  0  0  0  0  0
   36.9870   29.1330   31.2240 C   0  0  0  0  0  0  0  0  0  0  0  0
   36.8380   28.3630   32.3420 C   0  0  0  0  0  0  0  0  0  0  0  0
   35.5540   31.9900   32.3090 H   0  0  0  0  0  0  0  0  0  0  0  0
   36.6560   31.0140   30.3270 H   0  0  0  0  0  0  0  0  0  0  0  0
   37.4660   28.7320   30.3440 H   0  0  0  0  0  0  0  0  0  0  0  0
   33.7440   30.5550   34.9010 C   0  0  0  0  0  0  0  0  0  0  0  0
   35.1100   30.7160   34.6800 C   0  0  0  0  0  0  0  0  0  0  0  0
   35.8250   31.4150   35.6700 C   0  0  0  0  0  0  0  0  0  0  0  0
   35.1490   31.8810   36.7590 N   0  0  0  0  0  0  0  0  0  0  0  0
   33.8200   31.6890   36.9110 C   0  0  0  0  0  0  0  0  0  0  0  0
   33.1070   31.0220   35.9790 N   0  0  0  0  0  0  0  0  0  0  0  0
   33.1770   30.0160   34.1440 H   0  0  0  0  0  0  0  0  0  0  0  0
   36.8710   31.5500   35.5210 H   0  0  0  0  0  0  0  0  0  0  0  0
   33.3100   32.0710   37.7890 H   0  0  0  0  0  0  0  0  0  0  0  0
   36.1140   28.0510   34.5450 O   0  0  0  0  0  0  0  0  0  0  0  0
   36.7860   28.0300   35.2950 H   0  0  0  0  0  0  0  0  0  0  0  0
   37.3150   27.0490   32.3240 O   0  0  0  0  0  0  0  0  0  0  0  0
   38.1940   24.3500   33.3570 Cl  0  0  0  0  0  0  0  0  0  0  0  0
   36.8220   24.6200   32.2960 C   0  0  0  0  0  0  0  0  0  0  0  0
   36.5920   25.9430   31.9390 C   0  0  0  0  0  0  0  0  0  0  0  0
   35.5240   26.2000   31.1090 C   0  0  0  0  0  0  0  0  0  0  0  0
   34.6910   25.2160   30.6260 C   0  0  0  0  0  0  0  0  0  0  0  0
   34.9360   23.8950   30.9920 C   0  0  0  0  0  0  0  0  0  0  0  0
   35.9960   23.6210   31.8210 C   0  0  0  0  0  0  0  0  0  0  0  0
   35.2590   27.1960   30.7720 H   0  0  0  0  0  0  0  0  0  0  0  0
   33.8490   25.4060   29.9720 H   0  0  0  0  0  0  0  0  0  0  0  0
   34.3200   23.0950   30.6460 H   0  0  0  0  0  0  0  0  0  0  0  0
   36.3620   22.2640   32.2820 C   0  0  0  0  0  3  0  0  0  0  0  0
   35.1490   21.4030   32.5670 C   0  0  0  0  0  2  0  0  0  0  0  0
   35.7220   20.2070   33.3420 C   0  0  0  0  0  2  0  0  0  0  0  0
   36.4410   19.3830   32.2820 C   0  0  0  0  0  2  0  0  0  0  0  0
   37.5660   20.1790   31.6970 C   0  0  0  0  0  2  0  0  0  0  0  0
   37.1280   21.5150   31.1860 C   0  0  0  0  0  2  0  0  0  0  0  0
  1  2  1  0  0  0  0
  1 19  1  0  0  0  0
  2 11  1  0  0  0  0
  3  2  2  0  0  0  0
  4  3  1  0  0  0  0
  5  4  2  0  0  0  0
  5  6  1  0  0  0  0
  6  1  2  0  0  0  0
  7  3  1  0  0  0  0
  8  4  1  0  0  0  0
  9  5  1  0  0  0  0
 10 15  1  0  0  0  0
 11 10  2  0  0  0  0
 11 12  1  0  0  0  0
 12 13  2  0  0  0  0
 13 14  1  0  0  0  0
 14 18  1  0  0  0  0
 15 14  2  0  0  0  0
 16 10  1  0  0  0  0
 17 12  1  0  0  0  0
 19 20  1  0  0  0  0
 21  6  1  0  0  0  0
 23 22  1  0  0  0  0
 24 23  1  0  0  0  0
 24 21  1  0  0  0  0
 25 24  2  0  0  0  0
 26 27  2  0  0  0  0
 26 25  1  0  0  0  0
 27 28  1  0  0  0  0
 28 32  1  0  0  0  0
 28 23  2  0  0  0  0
 29 25  1  0  0  0  0
 30 26  1  0  0  0  0
 31 27  1  0  0  0  0
 32 33  1  0  0  0  0
 33 34  1  0  0  0  0
 35 34  1  0  0  0  0
 36 35  1  0  0  0  0
 37 36  1  0  0  0  0
 37 32  1  0  0  0  0
M  END
>  <minimizedAffinity>
-6.51482677

$$$$

 OpenBabel03272501233D

 37 40  0  0  0  0  0  0  0  0999 V2000
   39.5920   25.0490   33.9920 C   0  0  0  0  0  0  0  0  0  0  0  0
   40.7220   24.8500   34.7710 C   0  0  0  0  0  0  0  0  0  0  0  0
   41.6510   25.8670   34.7310 C   0  0  0  0  0  0  0  0  0  0  0  0
   41.4390   27.0100   33.9470 C   0  0  0  0  0  0  0  0  0  0  0  0
   40.2870   27.1390   33.1960 C   0  0  0  0  0  0  0  0  0  0  0  0
   39.3540   26.1420   33.2230 C   0  0  0  0  0  0  0  0  0  0  0  0
   42.5810   25.8300   35.2970 H   0  0  0  0  0  0  0  0  0  0  0  0
   42.1550   27.8200   33.9010 H   0  0  0  0  0  0  0  0  0  0  0  0
   40.1260   28.0210   32.5940 H   0  0  0  0  0  0  0  0  0  0  0  0
   41.8830   22.7300   35.2220 C   0  0  0  0  0  0  0  0  0  0  0  0
   40.9220   23.6790   35.5620 C   0  0  0  0  0  0  0  0  0  0  0  0
   40.1680   23.4180   36.7210 C   0  0  0  0  0  0  0  0  0  0  0  0
   40.4210   22.2760   37.4220 N   0  0  0  0  0  0  0  0  0  0  0  0
   41.3700   21.3960   37.0360 C   0  0  0  0  0  0  0  0  0  0  0  0
   42.1110   21.6190   35.9290 N   0  0  0  0  0  0  0  0  0  0  0  0
   42.4760   22.9180   34.3290 H   0  0  0  0  0  0  0  0  0  0  0  0
   39.4270   24.1320   36.9990 H   0  0  0  0  0  0  0  0  0  0  0  0
   41.5490   20.4960   37.6150 H   0  0  0  0  0  0  0  0  0  0  0  0
   38.5870   24.0620   33.9710 O   0  0  0  0  0  0  0  0  0  0  0  0
   38.6100   23.2680   33.3520 H   0  0  0  0  0  0  0  0  0  0  0  0
   38.1920   26.2840   32.4600 O   0  0  0  0  0  0  0  0  0  0  0  0
   36.8770   27.2550   34.9990 Cl  0  0  0  0  0  0  0  0  0  0  0  0
   36.7260   28.0300   33.4320 C   0  0  0  0  0  0  0  0  0  0  0  0
   37.4150   27.4170   32.3920 C   0  0  0  0  0  0  0  0  0  0  0  0
   37.3240   27.9930   31.1440 C   0  0  0  0  0  0  0  0  0  0  0  0
   36.5910   29.1300   30.8910 C   0  0  0  0  0  0  0  0  0  0  0  0
   35.9070   29.7310   31.9440 C   0  0  0  0  0  0  0  0  0  0  0  0
   35.9860   29.1720   33.1950 C   0  0  0  0  0  0  0  0  0  0  0  0
   37.8220   27.5940   30.2680 H   0  0  0  0  0  0  0  0  0  0  0  0
   36.5130   29.5920   29.9150 H   0  0  0  0  0  0  0  0  0  0  0  0
   35.3240   30.6150   31.8010 H   0  0  0  0  0  0  0  0  0  0  0  0
   35.3080   29.7110   34.3930 C   0  0  0  0  0  3  0  0  0  0  0  0
   35.6290   31.1730   34.6310 C   0  0  0  0  0  2  0  0  0  0  0  0
   35.1320   31.4300   36.0610 C   0  0  0  0  0  2  0  0  0  0  0  0
   33.6150   31.4660   35.9300 C   0  0  0  0  0  2  0  0  0  0  0  0
   33.1140   30.1340   35.4630 C   0  0  0  0  0  2  0  0  0  0  0  0
   33.7860   29.6670   34.2120 C   0  0  0  0  0  2  0  0  0  0  0  0
  1  2  1  0  0  0  0
  2 11  1  0  0  0  0
  3  2  2  0  0  0  0
  3  7  1  0  0  0  0
  4  3  1  0  0  0  0
  5  6  1  0  0  0  0
  5  4  2  0  0  0  0
  6  1  2  0  0  0  0
  8  4  1  0  0  0  0
  9  5  1  0  0  0  0
 10 11  2  0  0  0  0
 10 15  1  0  0  0  0
 11 12  1  0  0  0  0
 12 17  1  0  0  0  0
 12 13  2  0  0  0  0
 14 13  1  0  0  0  0
 14 18  1  0  0  0  0
 15 14  2  0  0  0  0
 16 10  1  0  0  0  0
 19  1  1  0  0  0  0
 20 19  1  0  0  0  0
 21  6  1  0  0  0  0
 23 22  1  0  0  0  0
 24 21  1  0  0  0  0
 24 23  2  0  0  0  0
 25 24  1  0  0  0  0
 26 25  2  0  0  0  0
 26 27  1  0  0  0  0
 27 28  2  0  0  0  0
 28 23  1  0  0  0  0
 28 32  1  0  0  0  0
 29 25  1  0  0  0  0
 30 26  1  0  0  0  0
 31 27  1  0  0  0  0
 32 33  1  0  0  0  0
 33 34  1  0  0  0  0
 35 34  1  0  0  0  0
 36 35  1  0  0  0  0
 37 32  1  0  0  0  0
 37 36  1  0  0  0  0
M  END
>  <minimizedAffinity>
-6.18651676

$$$$

 OpenBabel03272501233D

 37 40  0  0  0  0  0  0  0  0999 V2000
   36.4630   28.2400   33.6590 C   0  0  0  0  0  0  0  0  0  0  0  0
   35.9070   29.5010   33.5040 C   0  0  0  0  0  0  0  0  0  0  0  0
   36.0460   30.0570   32.2500 C   0  0  0  0  0  0  0  0  0  0  0  0
   36.7090   29.3680   31.2240 C   0  0  0  0  0  0  0  0  0  0  0  0
   37.2380   28.1120   31.4530 C   0  0  0  0  0  0  0  0  0  0  0  0
   37.1100   27.5460   32.6890 C   0  0  0  0  0  0  0  0  0  0  0  0
   35.6540   31.0420   32.0020 H   0  0  0  0  0  0  0  0  0  0  0  0
   36.8300   29.7850   30.2330 H   0  0  0  0  0  0  0  0  0  0  0  0
   37.7480   27.5850   30.6610 H   0  0  0  0  0  0  0  0  0  0  0  0
   35.9280   31.0160   35.4420 C   0  0  0  0  0  0  0  0  0  0  0  0
   35.2360   30.1890   34.5600 C   0  0  0  0  0  0  0  0  0  0  0  0
   33.8500   30.0730   34.7690 C   0  0  0  0  0  0  0  0  0  0  0  0
   33.2840   30.7630   35.8000 N   0  0  0  0  0  0  0  0  0  0  0  0
   34.0150   31.5490   36.6200 C   0  0  0  0  0  0  0  0  0  0  0  0
   35.3470   31.6810   36.4450 N   0  0  0  0  0  0  0  0  0  0  0  0
   37.0010   31.1170   35.2930 H   0  0  0  0  0  0  0  0  0  0  0  0
   33.3010   29.4450   34.1050 H   0  0  0  0  0  0  0  0  0  0  0  0
   33.5370   32.0860   37.4330 H   0  0  0  0  0  0  0  0  0  0  0  0
   36.3690   27.5950   34.9080 O   0  0  0  0  0  0  0  0  0  0  0  0
   37.0300   27.7410   35.6530 H   0  0  0  0  0  0  0  0  0  0  0  0
   37.6480   26.2750   32.9080 O   0  0  0  0  0  0  0  0  0  0  0  0
   38.0770   23.5110   34.0480 Cl  0  0  0  0  0  0  0  0  0  0  0  0
   39.2450   24.8190   34.1220 C   0  0  0  0  0  0  0  0  0  0  0  0
   38.8460   26.0130   33.5340 C   0  0  0  0  0  0  0  0  0  0  0  0
   39.7330   27.0660   33.5680 C   0  0  0  0  0  0  0  0  0  0  0  0
   40.9770   26.9830   34.1520 C   0  0  0  0  0  0  0  0  0  0  0  0
   41.3620   25.7800   34.7360 C   0  0  0  0  0  0  0  0  0  0  0  0
   40.4900   24.7200   34.7110 C   0  0  0  0  0  0  0  0  0  0  0  0
   39.5190   28.0370   33.1390 H   0  0  0  0  0  0  0  0  0  0  0  0
   41.6830   27.8040   34.1840 H   0  0  0  0  0  0  0  0  0  0  0  0
   42.3160   25.6640   35.2020 H   0  0  0  0  0  0  0  0  0  0  0  0
   40.7770   23.3920   35.2950 C   0  0  0  0  0  3  0  0  0  0  0  0
   42.2620   23.0890   35.3430 C   0  0  0  0  0  2  0  0  0  0  0  0
   42.3190   21.5840   35.6400 C   0  0  0  0  0  2  0  0  0  0  0  0
   41.9370   21.4770   37.1110 C   0  0  0  0  0  2  0  0  0  0  0  0
   40.5360   21.9670   37.3070 C   0  0  0  0  0  2  0  0  0  0  0  0
   40.3180   23.3400   36.7570 C   0  0  0  0  0  2  0  0  0  0  0  0
  1 19  1  0  0  0  0
  2  1  1  0  0  0  0
  2 11  1  0  0  0  0
  3  2  2  0  0  0  0
  4  5  2  0  0  0  0
  4  3  1  0  0  0  0
  5  6  1  0  0  0  0
  6 21  1  0  0  0  0
  6  1  2  0  0  0  0
  7  3  1  0  0  0  0
  8  4  1  0  0  0  0
  9  5  1  0  0  0  0
 10 15  1  0  0  0  0
 11 12  1  0  0  0  0
 11 10  2  0  0  0  0
 12 13  2  0  0  0  0
 13 14  1  0  0  0  0
 14 18  1  0  0  0  0
 15 14  2  0  0  0  0
 16 10  1  0  0  0  0
 17 12  1  0  0  0  0
 19 20  1  0  0  0  0
 21 24  1  0  0  0  0
 22 23  1  0  0  0  0
 23 28  1  0  0  0  0
 24 25  1  0  0  0  0
 24 23  2  0  0  0  0
 25 26  2  0  0  0  0
 26 30  1  0  0  0  0
 26 27  1  0  0  0  0
 27 31  1  0  0  0  0
 28 27  2  0  0  0  0
 28 32  1  0  0  0  0
 29 25  1  0  0  0  0
 32 33  1  0  0  0  0
 32 37  1  0  0  0  0
 33 34  1  0  0  0  0
 34 35  1  0  0  0  0
 35 36  1  0  0  0  0
 37 36  1  0  0  0  0
M  END
>  <minimizedAffinity>
-6.1557889

$$$$

 OpenBabel03272501233D

 37 40  0  0  0  0  0  0  0  0999 V2000
   39.0180   24.7920   33.9350 C   0  0  0  0  0  0  0  0  0  0  0  0
   38.8780   23.4800   34.3610 C   0  0  0  0  0  0  0  0  0  0  0  0
   37.9220   22.7440   33.6940 C   0  0  0  0  0  0  0  0  0  0  0  0
   37.1620   23.3120   32.6620 C   0  0  0  0  0  0  0  0  0  0  0  0
   37.3590   24.6280   32.2910 C   0  0  0  0  0  0  0  0  0  0  0  0
   38.3010   25.3730   32.9410 C   0  0  0  0  0  0  0  0  0  0  0  0
   37.7160   21.7020   33.9340 H   0  0  0  0  0  0  0  0  0  0  0  0
   36.4070   22.7530   32.1250 H   0  0  0  0  0  0  0  0  0  0  0  0
   36.7720   25.0630   31.4960 H   0  0  0  0  0  0  0  0  0  0  0  0
   40.8060   22.1730   35.1480 C   0  0  0  0  0  0  0  0  0  0  0  0
   39.6590   22.9170   35.4140 C   0  0  0  0  0  0  0  0  0  0  0  0
   39.3210   23.0800   36.7700 C   0  0  0  0  0  0  0  0  0  0  0  0
   40.1200   22.5100   37.7170 N   0  0  0  0  0  0  0  0  0  0  0  0
   41.2200   21.7980   37.3890 C   0  0  0  0  0  0  0  0  0  0  0  0
   41.5720   21.6250   36.0960 N   0  0  0  0  0  0  0  0  0  0  0  0
   41.0820   22.0380   34.1030 H   0  0  0  0  0  0  0  0  0  0  0  0
   38.4470   23.6460   36.9960 H   0  0  0  0  0  0  0  0  0  0  0  0
   41.8370   21.3570   38.1640 H   0  0  0  0  0  0  0  0  0  0  0  0
   39.9720   25.6200   34.5600 O   0  0  0  0  0  0  0  0  0  0  0  0
   39.7810   26.1400   35.4010 H   0  0  0  0  0  0  0  0  0  0  0  0
   38.4910   26.7040   32.5580 O   0  0  0  0  0  0  0  0  0  0  0  0
   37.3400   27.7630   35.1410 Cl  0  0  0  0  0  0  0  0  0  0  0  0
   36.8470   28.2780   33.5370 C   0  0  0  0  0  0  0  0  0  0  0  0
   37.5060   27.6610   32.4810 C   0  0  0  0  0  0  0  0  0  0  0  0
   37.1500   28.0370   31.2050 C   0  0  0  0  0  0  0  0  0  0  0  0
   36.1840   28.9810   30.9390 C   0  0  0  0  0  0  0  0  0  0  0  0
   35.5330   29.5880   32.0090 C   0  0  0  0  0  0  0  0  0  0  0  0
   35.8750   29.2270   33.2880 C   0  0  0  0  0  0  0  0  0  0  0  0
   37.6030   27.6170   30.3140 H   0  0  0  0  0  0  0  0  0  0  0  0
   35.8960   29.2830   29.9400 H   0  0  0  0  0  0  0  0  0  0  0  0
   34.7760   30.3270   31.8560 H   0  0  0  0  0  0  0  0  0  0  0  0
   35.2600   29.7960   34.5070 C   0  0  0  0  0  3  0  0  0  0  0  0
   35.6490   31.2440   34.7290 C   0  0  0  0  0  2  0  0  0  0  0  0
   35.2110   31.5230   36.1750 C   0  0  0  0  0  2  0  0  0  0  0  0
   33.6930   31.6210   36.0940 C   0  0  0  0  0  2  0  0  0  0  0  0
   33.1220   30.3110   35.6480 C   0  0  0  0  0  2  0  0  0  0  0  0
   33.7320   29.8140   34.3760 C   0  0  0  0  0  2  0  0  0  0  0  0
  1  2  1  0  0  0  0
  1 19  1  0  0  0  0
  2 11  1  0  0  0  0
  3  7  1  0  0  0  0
  3  2  2  0  0  0  0
  4  3  1  0  0  0  0
  5  4  2  0  0  0  0
  5  6  1  0  0  0  0
  6  1  2  0  0  0  0
  8  4  1  0  0  0  0
  9  5  1  0  0  0  0
 10 11  2  0  0  0  0
 10 15  1  0  0  0  0
 11 12  1  0  0  0  0
 12 17  1  0  0  0  0
 12 13  2  0  0  0  0
 14 13  1  0  0  0  0
 14 18  1  0  0  0  0
 15 14  2  0  0  0  0
 16 10  1  0  0  0  0
 19 20  1  0  0  0  0
 21  6  1  0  0  0  0
 23 22  1  0  0  0  0
 24 21  1  0  0  0  0
 24 23  2  0  0  0  0
 25 24  1  0  0  0  0
 26 25  2  0  0  0  0
 26 27  1  0  0  0  0
 27 28  2  0  0  0  0
 28 23  1  0  0  0  0
 28 32  1  0  0  0  0
 29 25  1  0  0  0  0
 30 26  1  0  0  0  0
 31 27  1  0  0  0  0
 32 33  1  0  0  0  0
 33 34  1  0  0  0  0
 35 34  1  0  0  0  0
 36 35  1  0  0  0  0
 37 32  1  0  0  0  0
 37 36  1  0  0  0  0
M  END
>  <minimizedAffinity>
-6.08236074

$$$$

 OpenBabel03272501233D

 37 40  0  0  0  0  0  0  0  0999 V2000
   36.0770   28.8520   33.6800 C   0  0  0  0  0  0  0  0  0  0  0  0
   34.9170   29.6030   33.5680 C   0  0  0  0  0  0  0  0  0  0  0  0
   34.5620   29.9500   32.2810 C   0  0  0  0  0  0  0  0  0  0  0  0
   35.3430   29.5570   31.1850 C   0  0  0  0  0  0  0  0  0  0  0  0
   36.4890   28.8080   31.3750 C   0  0  0  0  0  0  0  0  0  0  0  0
   36.8560   28.4550   32.6420 C   0  0  0  0  0  0  0  0  0  0  0  0
   33.6730   30.5380   32.0600 H   0  0  0  0  0  0  0  0  0  0  0  0
   35.0850   29.8190   30.1670 H   0  0  0  0  0  0  0  0  0  0  0  0
   37.0890   28.5070   30.5300 H   0  0  0  0  0  0  0  0  0  0  0  0
   32.9920   29.2890   35.0660 C   0  0  0  0  0  0  0  0  0  0  0  0
   34.1330   29.9950   34.6940 C   0  0  0  0  0  0  0  0  0  0  0  0
   34.4650   31.1090   35.4880 C   0  0  0  0  0  0  0  0  0  0  0  0
   33.6640   31.4180   36.5480 N   0  0  0  0  0  0  0  0  0  0  0  0
   32.5690   30.6890   36.8530 C   0  0  0  0  0  0  0  0  0  0  0  0
   32.2250   29.6140   36.1110 N   0  0  0  0  0  0  0  0  0  0  0  0
   32.7220   28.4240   34.4620 H   0  0  0  0  0  0  0  0  0  0  0  0
   35.3350   31.6640   35.2210 H   0  0  0  0  0  0  0  0  0  0  0  0
   31.9510   30.9590   37.7020 H   0  0  0  0  0  0  0  0  0  0  0  0
   36.5170   28.4510   34.9580 O   0  0  0  0  0  0  0  0  0  0  0  0
   37.0900   29.0310   35.5480 H   0  0  0  0  0  0  0  0  0  0  0  0
   38.0170   27.6970   32.8230 O   0  0  0  0  0  0  0  0  0  0  0  0
   39.6130   26.9700   35.2810 Cl  0  0  0  0  0  0  0  0  0  0  0  0
   38.7250   25.8280   34.2880 C   0  0  0  0  0  0  0  0  0  0  0  0
   38.0560   26.3750   33.1990 C   0  0  0  0  0  0  0  0  0  0  0  0
   37.3450   25.5130   32.3940 C   0  0  0  0  0  0  0  0  0  0  0  0
   37.2730   24.1570   32.6200 C   0  0  0  0  0  0  0  0  0  0  0  0
   37.9490   23.6260   33.7150 C   0  0  0  0  0  0  0  0  0  0  0  0
   38.6620   24.4700   34.5290 C   0  0  0  0  0  0  0  0  0  0  0  0
   36.7900   25.8380   31.5220 H   0  0  0  0  0  0  0  0  0  0  0  0
   36.7170   23.4710   31.9930 H   0  0  0  0  0  0  0  0  0  0  0  0
   37.9240   22.5810   33.9340 H   0  0  0  0  0  0  0  0  0  0  0  0
   39.4220   24.0320   35.7200 C   0  0  0  0  0  3  0  0  0  0  0  0
   38.6380   23.0650   36.5840 C   0  0  0  0  0  2  0  0  0  0  0  0
   39.4340   23.0160   37.8960 C   0  0  0  0  0  2  0  0  0  0  0  0
   40.6680   22.1910   37.5540 C   0  0  0  0  0  2  0  0  0  0  0  0
   41.4770   22.8960   36.5090 C   0  0  0  0  0  2  0  0  0  0  0  0
   40.6760   23.2570   35.3000 C   0  0  0  0  0  2  0  0  0  0  0  0
  1 19  1  0  0  0  0
  2  1  1  0  0  0  0
  2 11  1  0  0  0  0
  3  2  2  0  0  0  0
  4  5  2  0  0  0  0
  4  3  1  0  0  0  0
  5  6  1  0  0  0  0
  6 21  1  0  0  0  0
  6  1  2  0  0  0  0
  7  3  1  0  0  0  0
  8  4  1  0  0  0  0
  9  5  1  0  0  0  0
 10 15  1  0  0  0  0
 11 10  2  0  0  0  0
 11 12  1  0  0  0  0
 12 13  2  0  0  0  0
 13 14  1  0  0  0  0
 14 18  1  0  0  0  0
 15 14  2  0  0  0  0
 16 10  1  0  0  0  0
 17 12  1  0  0  0  0
 19 20  1  0  0  0  0
 21 24  1  0  0  0  0
 23 28  1  0  0  0  0
 23 22  1  0  0  0  0
 24 23  2  0  0  0  0
 25 26  2  0  0  0  0
 25 24  1  0  0  0  0
 26 27  1  0  0  0  0
 27 31  1  0  0  0  0
 27 28  2  0  0  0  0
 28 32  1  0  0  0  0
 29 25  1  0  0  0  0
 30 26  1  0  0  0  0
 32 33  1  0  0  0  0
 33 34  1  0  0  0  0
 35 34  1  0  0  0  0
 36 35  1  0  0  0  0
 37 32  1  0  0  0  0
 37 36  1  0  0  0  0
M  END
>  <minimizedAffinity>
-6.04214382

$$$$

 OpenBabel03272501233D

 37 40  0  0  0  0  0  0  0  0999 V2000
   37.7230   23.6260   33.1640 C   0  0  0  0  0  0  0  0  0  0  0  0
   37.5040   22.3710   33.7120 C   0  0  0  0  0  0  0  0  0  0  0  0
   37.8240   22.2480   35.0480 C   0  0  0  0  0  0  0  0  0  0  0  0
   38.3340   23.3340   35.7720 C   0  0  0  0  0  0  0  0  0  0  0  0
   38.5250   24.5570   35.1570 C   0  0  0  0  0  0  0  0  0  0  0  0
   38.2140   24.6980   33.8360 C   0  0  0  0  0  0  0  0  0  0  0  0
   37.6980   21.3140   35.5930 H   0  0  0  0  0  0  0  0  0  0  0  0
   38.5920   23.2600   36.8210 H   0  0  0  0  0  0  0  0  0  0  0  0
   38.9190   25.3920   35.7180 H   0  0  0  0  0  0  0  0  0  0  0  0
   35.6190   21.0050   32.9200 C   0  0  0  0  0  0  0  0  0  0  0  0
   36.9850   21.2750   32.9600 C   0  0  0  0  0  0  0  0  0  0  0  0
   37.8140   20.4100   32.2230 C   0  0  0  0  0  0  0  0  0  0  0  0
   37.2390   19.3850   31.5310 N   0  0  0  0  0  0  0  0  0  0  0  0
   35.9040   19.1800   31.5340 C   0  0  0  0  0  0  0  0  0  0  0  0
   35.0820   19.9930   32.2320 N   0  0  0  0  0  0  0  0  0  0  0  0
   34.9630   21.6660   33.4850 H   0  0  0  0  0  0  0  0  0  0  0  0
   38.8630   20.5980   32.2400 H   0  0  0  0  0  0  0  0  0  0  0  0
   35.4760   18.3560   30.9740 H   0  0  0  0  0  0  0  0  0  0  0  0
   37.4240   23.8450   31.8050 O   0  0  0  0  0  0  0  0  0  0  0  0
   38.0720   23.6440   31.0600 H   0  0  0  0  0  0  0  0  0  0  0  0
   38.4120   25.9390   33.2240 O   0  0  0  0  0  0  0  0  0  0  0  0
   37.5860   27.6900   35.5420 Cl  0  0  0  0  0  0  0  0  0  0  0  0
   36.9140   27.7860   33.9240 C   0  0  0  0  0  0  0  0  0  0  0  0
   37.4370   26.8850   33.0040 C   0  0  0  0  0  0  0  0  0  0  0  0
   36.9380   26.9260   31.7210 C   0  0  0  0  0  0  0  0  0  0  0  0
   35.9600   27.8090   31.3210 C   0  0  0  0  0  0  0  0  0  0  0  0
   35.4470   28.7040   32.2550 C   0  0  0  0  0  0  0  0  0  0  0  0
   35.9330   28.6780   33.5390 C   0  0  0  0  0  0  0  0  0  0  0  0
   37.2780   26.2680   30.9300 H   0  0  0  0  0  0  0  0  0  0  0  0
   35.5610   27.8500   30.3150 H   0  0  0  0  0  0  0  0  0  0  0  0
   34.6870   29.4090   31.9960 H   0  0  0  0  0  0  0  0  0  0  0  0
   35.4720   29.5740   34.6220 C   0  0  0  0  0  3  0  0  0  0  0  0
   36.0060   30.9840   34.4720 C   0  0  0  0  0  2  0  0  0  0  0  0
   35.7140   31.6330   35.8330 C   0  0  0  0  0  2  0  0  0  0  0  0
   34.2100   31.8700   35.8210 C   0  0  0  0  0  2  0  0  0  0  0  0
   33.4900   30.5600   35.7320 C   0  0  0  0  0  2  0  0  0  0  0  0
   33.9470   29.7230   34.5810 C   0  0  0  0  0  2  0  0  0  0  0  0
  1  2  2  0  0  0  0
  1  6  1  0  0  0  0
  2  3  1  0  0  0  0
  3  7  1  0  0  0  0
  3  4  2  0  0  0  0
  4  8  1  0  0  0  0
  5  9  1  0  0  0  0
  5  4  1  0  0  0  0
  6  5  2  0  0  0  0
 10 11  1  0  0  0  0
 10 16  1  0  0  0  0
 11  2  1  0  0  0  0
 12 17  1  0  0  0  0
 12 11  2  0  0  0  0
 13 14  2  0  0  0  0
 13 12  1  0  0  0  0
 14 15  1  0  0  0  0
 15 10  2  0  0  0  0
 18 14  1  0  0  0  0
 19  1  1  0  0  0  0
 20 19  1  0  0  0  0
 21  6  1  0  0  0  0
 23 22  1  0  0  0  0
 24 21  1  0  0  0  0
 24 23  2  0  0  0  0
 25 24  1  0  0  0  0
 26 25  2  0  0  0  0
 26 27  1  0  0  0  0
 27 28  2  0  0  0  0
 28 23  1  0  0  0  0
 28 32  1  0  0  0  0
 29 25  1  0  0  0  0
 30 26  1  0  0  0  0
 31 27  1  0  0  0  0
 33 32  1  0  0  0  0
 33 34  1  0  0  0  0
 35 34  1  0  0  0  0
 36 35  1  0  0  0  0
 37 32  1  0  0  0  0
 37 36  1  0  0  0  0
M  END
>  <minimizedAffinity>
-5.99556351

$$$$

 OpenBabel03272501233D

 37 40  0  0  0  0  0  0  0  0999 V2000
   36.3200   25.7540   31.6010 C   0  0  0  0  0  0  0  0  0  0  0  0
   37.0080   24.6650   32.1150 C   0  0  0  0  0  0  0  0  0  0  0  0
   37.8990   24.9550   33.1270 C   0  0  0  0  0  0  0  0  0  0  0  0
   38.0740   26.2700   33.5810 C   0  0  0  0  0  0  0  0  0  0  0  0
   37.3520   27.3060   33.0200 C   0  0  0  0  0  0  0  0  0  0  0  0
   36.4650   27.0380   32.0170 C   0  0  0  0  0  0  0  0  0  0  0  0
   38.4990   24.1870   33.6130 H   0  0  0  0  0  0  0  0  0  0  0  0
   38.7680   26.5210   34.3730 H   0  0  0  0  0  0  0  0  0  0  0  0
   37.4900   28.3180   33.3710 H   0  0  0  0  0  0  0  0  0  0  0  0
   35.6150   22.6580   31.8380 C   0  0  0  0  0  0  0  0  0  0  0  0
   36.8180   23.3330   31.6410 C   0  0  0  0  0  0  0  0  0  0  0  0
   37.8240   22.6290   30.9550 C   0  0  0  0  0  0  0  0  0  0  0  0
   37.5630   21.3580   30.5350 N   0  0  0  0  0  0  0  0  0  0  0  0
   36.3720   20.7620   30.7590 C   0  0  0  0  0  0  0  0  0  0  0  0
   35.3860   21.4110   31.4140 N   0  0  0  0  0  0  0  0  0  0  0  0
   34.8260   23.1890   32.3670 H   0  0  0  0  0  0  0  0  0  0  0  0
   38.7530   23.1270   30.7940 H   0  0  0  0  0  0  0  0  0  0  0  0
   36.1940   19.7490   30.4120 H   0  0  0  0  0  0  0  0  0  0  0  0
   35.3880   25.5530   30.5640 O   0  0  0  0  0  0  0  0  0  0  0  0
   35.6460   25.5300   29.5910 H   0  0  0  0  0  0  0  0  0  0  0  0
   35.7400   28.0940   31.4570 O   0  0  0  0  0  0  0  0  0  0  0  0
   34.4830   29.0930   34.0150 Cl  0  0  0  0  0  0  0  0  0  0  0  0
   35.4000   30.0840   32.8940 C   0  0  0  0  0  0  0  0  0  0  0  0
   35.8930   29.4240   31.7750 C   0  0  0  0  0  0  0  0  0  0  0  0
   36.6190   30.1650   30.8690 C   0  0  0  0  0  0  0  0  0  0  0  0
   36.8710   31.5090   31.0250 C   0  0  0  0  0  0  0  0  0  0  0  0
   36.3700   32.1550   32.1520 C   0  0  0  0  0  0  0  0  0  0  0  0
   35.6440   31.4320   33.0660 C   0  0  0  0  0  0  0  0  0  0  0  0
   37.0460   29.7460   29.9650 H   0  0  0  0  0  0  0  0  0  0  0  0
   37.4410   32.1010   30.3200 H   0  0  0  0  0  0  0  0  0  0  0  0
   36.5380   33.1970   32.3200 H   0  0  0  0  0  0  0  0  0  0  0  0
   35.0590   31.9990   34.3000 C   0  0  0  0  0  3  0  0  0  0  0  0
   35.9860   31.8700   35.4920 C   0  0  0  0  0  2  0  0  0  0  0  0
   35.0820   32.1830   36.6940 C   0  0  0  0  0  2  0  0  0  0  0  0
   34.8770   33.6910   36.6270 C   0  0  0  0  0  2  0  0  0  0  0  0
   34.1600   34.0490   35.3620 C   0  0  0  0  0  2  0  0  0  0  0  0
   34.8310   33.5070   34.1400 C   0  0  0  0  0  2  0  0  0  0  0  0
  1  6  2  0  0  0  0
  1  2  1  0  0  0  0
  2  3  2  0  0  0  0
  3  4  1  0  0  0  0
  3  7  1  0  0  0  0
  4  8  1  0  0  0  0
  5  9  1  0  0  0  0
  5  4  2  0  0  0  0
  6  5  1  0  0  0  0
 10 16  1  0  0  0  0
 11 10  1  0  0  0  0
 11  2  1  0  0  0  0
 12 11  2  0  0  0  0
 13 14  2  0  0  0  0
 13 12  1  0  0  0  0
 14 15  1  0  0  0  0
 15 10  2  0  0  0  0
 17 12  1  0  0  0  0
 18 14  1  0  0  0  0
 19  1  1  0  0  0  0
 20 19  1  0  0  0  0
 21 24  1  0  0  0  0
 21  6  1  0  0  0  0
 23 28  1  0  0  0  0
 23 22  1  0  0  0  0
 24 23  2  0  0  0  0
 25 26  2  0  0  0  0
 25 24  1  0  0  0  0
 26 27  1  0  0  0  0
 27 31  1  0  0  0  0
 27 28  2  0  0  0  0
 28 32  1  0  0  0  0
 29 25  1  0  0  0  0
 30 26  1  0  0  0  0
 32 33  1  0  0  0  0
 33 34  1  0  0  0  0
 35 34  1  0  0  0  0
 36 35  1  0  0  0  0
 37 32  1  0  0  0  0
 37 36  1  0  0  0  0
M  END
>  <minimizedAffinity>
-5.97947168

$$$$

 OpenBabel03272501233D

 37 40  0  0  0  0  0  0  0  0999 V2000
   37.5320   25.0070   31.4520 C   0  0  0  0  0  0  0  0  0  0  0  0
   37.0210   23.7240   31.3270 C   0  0  0  0  0  0  0  0  0  0  0  0
   35.6640   23.6500   31.0980 C   0  0  0  0  0  0  0  0  0  0  0  0
   34.8820   24.8100   31.0050 C   0  0  0  0  0  0  0  0  0  0  0  0
   35.4620   26.0570   31.1400 C   0  0  0  0  0  0  0  0  0  0  0  0
   36.8050   26.1500   31.3670 C   0  0  0  0  0  0  0  0  0  0  0  0
   35.1430   22.7010   30.9820 H   0  0  0  0  0  0  0  0  0  0  0  0
   33.8150   24.7760   30.8260 H   0  0  0  0  0  0  0  0  0  0  0  0
   34.8570   26.9490   31.0680 H   0  0  0  0  0  0  0  0  0  0  0  0
   38.5010   22.0390   30.3170 C   0  0  0  0  0  0  0  0  0  0  0  0
   37.8310   22.5530   31.4250 C   0  0  0  0  0  0  0  0  0  0  0  0
   37.9980   21.8550   32.6350 C   0  0  0  0  0  0  0  0  0  0  0  0
   38.7890   20.7440   32.6460 N   0  0  0  0  0  0  0  0  0  0  0  0
   39.4110   20.2990   31.5320 C   0  0  0  0  0  0  0  0  0  0  0  0
   39.2710   20.9470   30.3560 N   0  0  0  0  0  0  0  0  0  0  0  0
   38.3820   22.5680   29.3730 H   0  0  0  0  0  0  0  0  0  0  0  0
   37.4940   22.2310   33.4960 H   0  0  0  0  0  0  0  0  0  0  0  0
   40.0340   19.4120   31.5720 H   0  0  0  0  0  0  0  0  0  0  0  0
   38.9110   25.1790   31.6870 O   0  0  0  0  0  0  0  0  0  0  0  0
   39.3170   25.1600   32.6080 H   0  0  0  0  0  0  0  0  0  0  0  0
   37.3810   27.4160   31.5020 O   0  0  0  0  0  0  0  0  0  0  0  0
   36.5480   27.8930   34.3660 Cl  0  0  0  0  0  0  0  0  0  0  0  0
   36.2290   28.9880   33.0330 C   0  0  0  0  0  0  0  0  0  0  0  0
   36.7000   28.5760   31.7920 C   0  0  0  0  0  0  0  0  0  0  0  0
   36.4720   29.4070   30.7180 C   0  0  0  0  0  0  0  0  0  0  0  0
   35.8060   30.6080   30.8230 C   0  0  0  0  0  0  0  0  0  0  0  0
   35.3410   31.0060   32.0730 C   0  0  0  0  0  0  0  0  0  0  0  0
   35.5600   30.1900   33.1550 C   0  0  0  0  0  0  0  0  0  0  0  0
   36.7980   29.1790   29.7100 H   0  0  0  0  0  0  0  0  0  0  0  0
   35.6220   31.2690   29.9850 H   0  0  0  0  0  0  0  0  0  0  0  0
   34.8190   31.9290   32.2080 H   0  0  0  0  0  0  0  0  0  0  0  0
   35.1170   30.4970   34.5320 C   0  0  0  0  0  3  0  0  0  0  0  0
   35.5890   31.8580   35.0030 C   0  0  0  0  0  2  0  0  0  0  0  0
   35.3370   31.8310   36.5170 C   0  0  0  0  0  2  0  0  0  0  0  0
   33.8250   31.9690   36.6470 C   0  0  0  0  0  2  0  0  0  0  0  0
   33.1510   30.7930   36.0120 C   0  0  0  0  0  2  0  0  0  0  0  0
   33.5870   30.5670   34.5990 C   0  0  0  0  0  2  0  0  0  0  0  0
  1 19  1  0  0  0  0
  2 11  1  0  0  0  0
  2  1  2  0  0  0  0
  3  2  1  0  0  0  0
  4  3  2  0  0  0  0
  4  5  1  0  0  0  0
  5  6  2  0  0  0  0
  6  1  1  0  0  0  0
  6 21  1  0  0  0  0
  7  3  1  0  0  0  0
  8  4  1  0  0  0  0
  9  5  1  0  0  0  0
 10 15  2  0  0  0  0
 10 11  1  0  0  0  0
 11 12  2  0  0  0  0
 12 13  1  0  0  0  0
 12 17  1  0  0  0  0
 14 18  1  0  0  0  0
 14 13  2  0  0  0  0
 15 14  1  0  0  0  0
 16 10  1  0  0  0  0
 19 20  1  0  0  0  0
 21 24  1  0  0  0  0
 23 28  1  0  0  0  0
 23 22  1  0  0  0  0
 24 23  2  0  0  0  0
 25 26  2  0  0  0  0
 25 24  1  0  0  0  0
 26 27  1  0  0  0  0
 27 31  1  0  0  0  0
 27 28  2  0  0  0  0
 28 32  1  0  0  0  0
 29 25  1  0  0  0  0
 30 26  1  0  0  0  0
 32 37  1  0  0  0  0
 32 33  1  0  0  0  0
 33 34  1  0  0  0  0
 34 35  1  0  0  0  0
 36 35  1  0  0  0  0
 37 36  1  0  0  0  0
M  END
>  <minimizedAffinity>
-5.96583939

$$$$

 OpenBabel03272501233D

 37 40  0  0  0  0  0  0  0  0999 V2000
   36.2340   27.9360   31.9670 C   0  0  0  0  0  0  0  0  0  0  0  0
   35.5720   28.7980   32.8280 C   0  0  0  0  0  0  0  0  0  0  0  0
   35.9750   28.7400   34.1450 C   0  0  0  0  0  0  0  0  0  0  0  0
   36.9860   27.8590   34.5530 C   0  0  0  0  0  0  0  0  0  0  0  0
   37.6020   27.0280   33.6360 C   0  0  0  0  0  0  0  0  0  0  0  0
   37.2160   27.0720   32.3270 C   0  0  0  0  0  0  0  0  0  0  0  0
   35.5330   29.3660   34.9180 H   0  0  0  0  0  0  0  0  0  0  0  0
   37.3180   27.7960   35.5810 H   0  0  0  0  0  0  0  0  0  0  0  0
   38.3800   26.3500   33.9540 H   0  0  0  0  0  0  0  0  0  0  0  0
   33.2140   29.4900   32.7560 C   0  0  0  0  0  0  0  0  0  0  0  0
   34.5440   29.6890   32.3960 C   0  0  0  0  0  0  0  0  0  0  0  0
   34.8120   30.8100   31.5890 C   0  0  0  0  0  0  0  0  0  0  0  0
   33.7730   31.6120   31.2180 N   0  0  0  0  0  0  0  0  0  0  0  0
   32.5030   31.3610   31.6040 C   0  0  0  0  0  0  0  0  0  0  0  0
   32.2150   30.2930   32.3790 N   0  0  0  0  0  0  0  0  0  0  0  0
   32.9900   28.6270   33.3810 H   0  0  0  0  0  0  0  0  0  0  0  0
   35.8240   30.9810   31.3010 H   0  0  0  0  0  0  0  0  0  0  0  0
   31.6970   32.0170   31.2930 H   0  0  0  0  0  0  0  0  0  0  0  0
   35.8880   27.9270   30.6010 O   0  0  0  0  0  0  0  0  0  0  0  0
   35.1340   27.3740   30.2290 H   0  0  0  0  0  0  0  0  0  0  0  0
   37.8460   26.2270   31.4090 O   0  0  0  0  0  0  0  0  0  0  0  0
   35.6020   24.2090   31.5170 Cl  0  0  0  0  0  0  0  0  0  0  0  0
   37.3040   23.8290   31.7170 C   0  0  0  0  0  0  0  0  0  0  0  0
   38.1730   24.9090   31.6310 C   0  0  0  0  0  0  0  0  0  0  0  0
   39.5190   24.6550   31.7800 C   0  0  0  0  0  0  0  0  0  0  0  0
   40.0260   23.3960   32.0080 C   0  0  0  0  0  0  0  0  0  0  0  0
   39.1420   22.3250   32.0910 C   0  0  0  0  0  0  0  0  0  0  0  0
   37.7970   22.5590   31.9440 C   0  0  0  0  0  0  0  0  0  0  0  0
   40.2780   25.4270   31.7300 H   0  0  0  0  0  0  0  0  0  0  0  0
   41.0820   23.1850   32.1270 H   0  0  0  0  0  0  0  0  0  0  0  0
   39.4850   21.3280   32.2660 H   0  0  0  0  0  0  0  0  0  0  0  0
   36.7570   21.5100   32.0120 C   0  0  0  0  0  3  0  0  0  0  0  0
   37.1890   20.2230   31.3390 C   0  0  0  0  0  2  0  0  0  0  0  0
   35.8860   19.4200   31.2140 C   0  0  0  0  0  2  0  0  0  0  0  0
   35.6000   18.9440   32.6320 C   0  0  0  0  0  2  0  0  0  0  0  0
   35.3710   20.1230   33.5260 C   0  0  0  0  0  2  0  0  0  0  0  0
   36.4840   21.1200   33.4690 C   0  0  0  0  0  2  0  0  0  0  0  0
  1  6  2  0  0  0  0
  1  2  1  0  0  0  0
  2  3  2  0  0  0  0
  3  4  1  0  0  0  0
  3  7  1  0  0  0  0
  4  8  1  0  0  0  0
  5  9  1  0  0  0  0
  5  4  2  0  0  0  0
  6  5  1  0  0  0  0
 10 16  1  0  0  0  0
 11 10  1  0  0  0  0
 11  2  1  0  0  0  0
 12 11  2  0  0  0  0
 13 12  1  0  0  0  0
 13 14  2  0  0  0  0
 14 15  1  0  0  0  0
 15 10  2  0  0  0  0
 17 12  1  0  0  0  0
 18 14  1  0  0  0  0
 19  1  1  0  0  0  0
 20 19  1  0  0  0  0
 21 24  1  0  0  0  0
 21  6  1  0  0  0  0
 22 23  1  0  0  0  0
 23 28  1  0  0  0  0
 24 23  2  0  0  0  0
 24 25  1  0  0  0  0
 25 26  2  0  0  0  0
 26 27  1  0  0  0  0
 26 30  1  0  0  0  0
 27 31  1  0  0  0  0
 28 32  1  0  0  0  0
 28 27  2  0  0  0  0
 29 25  1  0  0  0  0
 32 37  1  0  0  0  0
 33 32  1  0  0  0  0
 34 33  1  0  0  0  0
 34 35  1  0  0  0  0
 35 36  1  0  0  0  0
 37 36  1  0  0  0  0
M  END
>  <minimizedAffinity>
-5.84263706

$$$$
