
 OpenBabel03262520173D

 15 16  0  0  0  0  0  0  0  0999 V2000
   36.2240   29.4360   51.3590 C   0  0  0  0  0  0  0  0  0  0  0  0
   37.1100   30.2620   50.6320 C   0  0  0  0  0  0  0  0  0  0  0  0
   36.6220   30.8530   49.4570 C   0  0  0  0  0  0  0  0  0  0  0  0
   35.3320   30.6000   49.0880 N   0  0  0  0  0  0  0  0  0  0  0  0
   34.5190   29.8050   49.8080 C   0  0  0  0  0  0  0  0  0  0  0  0
   34.9630   29.2220   50.9450 N   0  0  0  0  0  0  0  0  0  0  0  0
   36.6260   28.9910   52.2640 H   0  0  0  0  0  0  0  0  0  0  0  0
   38.1140   30.4290   50.9690 H   0  0  0  0  0  0  0  0  0  0  0  0
   33.5160   29.6600   49.4420 H   0  0  0  0  0  0  0  0  0  0  0  0
   37.5090   31.7180   48.6760 C   0  0  0  0  0  3  0  0  0  0  0  0
   38.6120   32.3730   49.4250 C   0  0  0  0  0  2  0  0  0  0  0  0
   39.1430   33.4780   48.5330 C   0  0  0  0  0  2  0  0  0  0  0  0
   39.2520   33.0410   47.1190 C   0  0  0  0  0  2  0  0  0  0  0  0
   39.2390   31.5720   46.8680 C   0  0  0  0  0  2  0  0  0  0  0  0
   38.1960   30.8160   47.6420 C   0  0  0  0  0  2  0  0  0  0  0  0
  1  7  1  0  0  0  0
  2  8  1  0  0  0  0
  2  1  2  0  0  0  0
  3  2  1  0  0  0  0
  4  3  2  0  0  0  0
  4  5  1  0  0  0  0
  5  6  2  0  0  0  0
  6  1  1  0  0  0  0
  9  5  1  0  0  0  0
 10 11  1  0  0  0  0
 10  3  1  0  0  0  0
 12 11  1  0  0  0  0
 13 12  1  0  0  0  0
 14 13  1  0  0  0  0
 14 15  1  0  0  0  0
 15 10  1  0  0  0  0
M  END
>  <minimizedAffinity>
-4.84631062

>  <minimizedRMSD>
1.59030724

$$$$
