
 OpenBabel03272501443D

 31 34  0  0  0  0  0  0  0  0999 V2000
   35.3760   28.8070   49.1560 C   0  0  0  0  0  0  0  0  0  0  0  0
   35.2940   29.9320   48.2860 C   0  0  0  0  0  0  0  0  0  0  0  0
   34.2490   29.9540   47.3730 C   0  0  0  0  0  0  0  0  0  0  0  0
   33.3740   28.9270   47.3550 N   0  0  0  0  0  0  0  0  0  0  0  0
   33.4750   27.8630   48.2000 C   0  0  0  0  0  0  0  0  0  0  0  0
   34.4840   27.8210   49.0960 N   0  0  0  0  0  0  0  0  0  0  0  0
   36.1140   28.6090   49.9260 H   0  0  0  0  0  0  0  0  0  0  0  0
   34.2140   30.8180   46.7280 H   0  0  0  0  0  0  0  0  0  0  0  0
   36.4220   31.5140   49.7350 C   0  0  0  0  0  0  0  0  0  0  0  0
   36.3270   30.9220   48.4770 C   0  0  0  0  0  0  0  0  0  0  0  0
   37.2270   31.3340   47.5130 C   0  0  0  0  0  0  0  0  0  0  0  0
   38.1770   32.3060   47.8320 C   0  0  0  0  0  0  0  0  0  0  0  0
   39.1580   32.8930   47.1200 N   0  0  0  0  0  0  0  0  0  0  0  0
   39.8040   33.7700   47.8710 C   0  0  0  0  0  0  0  0  0  0  0  0
   39.2480   33.7680   49.0980 N   0  0  0  0  0  0  0  0  0  0  0  0
   38.2540   32.8740   49.0710 C   0  0  0  0  0  0  0  0  0  0  0  0
   37.3630   32.4740   50.0440 C   0  0  0  0  0  0  0  0  0  0  0  0
   35.7810   31.2970   50.6020 H   0  0  0  0  0  0  0  0  0  0  0  0
   37.1660   30.8850   46.5350 H   0  0  0  0  0  0  0  0  0  0  0  0
   39.3730   32.6830   46.1240 H   0  0  0  0  0  0  0  0  0  0  0  0
   40.6490   34.4060   47.5830 H   0  0  0  0  0  0  0  0  0  0  0  0
   37.4540   32.9470   51.0210 H   0  0  0  0  0  0  0  0  0  0  0  0
   32.4670   26.7760   48.1160 C   0  0  0  0  0  0  0  0  0  0  0  0
   32.4800   26.2550   49.1000 H   0  0  0  0  0  0  0  0  0  0  0  0
   31.4410   27.1580   47.9910 H   0  0  0  0  0  0  0  0  0  0  0  0
   32.7370   25.8060   47.0070 C   0  0  0  0  0  0  0  0  0  0  0  0
   32.6550   24.3740   47.4030 C   0  0  0  0  0  0  0  0  0  0  0  0
   34.0470   23.7820   47.6580 C   0  0  0  0  0  0  0  0  0  0  0  0
   34.6870   23.6550   46.2740 C   0  0  0  0  0  0  0  0  0  0  0  0
   34.5460   24.9510   45.5040 C   0  0  0  0  0  0  0  0  0  0  0  0
   34.0930   26.0800   46.4120 C   0  0  0  0  0  0  0  0  0  0  0  0
  1  7  1  0  0  0  0
  2 10  1  0  0  0  0
  2  1  2  0  0  0  0
  3  2  1  0  0  0  0
  4  3  2  0  0  0  0
  4  5  1  0  0  0  0
  5  6  2  0  0  0  0
  6  1  1  0  0  0  0
  8  3  1  0  0  0  0
  9 17  1  0  0  0  0
  9 18  1  0  0  0  0
 10  9  2  0  0  0  0
 11 12  2  0  0  0  0
 11 10  1  0  0  0  0
 12 16  1  0  0  0  0
 13 12  1  0  0  0  0
 13 14  1  0  0  0  0
 14 15  2  0  0  0  0
 16 15  1  0  0  0  0
 16 17  2  0  0  0  0
 17 22  1  0  0  0  0
 19 11  1  0  0  0  0
 20 13  1  0  0  0  0
 21 14  1  0  0  0  0
 23  5  1  0  0  0  0
 23 24  1  0  0  0  0
 25 23  1  0  0  0  0
 26 27  1  0  0  0  0
 26 23  1  0  0  0  0
 27 28  1  0  0  0  0
 29 28  1  0  0  0  0
 30 29  1  0  0  0  0
 30 31  1  0  0  0  0
 31 26  1  0  0  0  0
M  END
>  <minimizedAffinity>
-5.94486904

>  <minimizedRMSD>
1.69074309

$$$$
