
 OpenBabel03272507103D

 24 26  0  0  0  0  0  0  0  0999 V2000
   36.0140   29.6230   48.8890 C   0  0  0  0  0  0  0  0  0  0  0  0
   35.1730   30.5190   48.3080 C   0  0  0  0  0  0  0  0  0  0  0  0
   34.0550   29.8190   47.8560 C   0  0  0  0  0  0  0  0  0  0  0  0
   34.3050   28.4890   48.2100 C   0  0  0  0  0  0  0  0  0  0  0  0
   35.4600   28.4270   48.8100 O   0  0  0  0  0  0  0  0  0  0  0  0
   35.2040   31.6010   48.1400 H   0  0  0  0  0  0  0  0  0  0  0  0
   33.1320   30.0840   47.3400 H   0  0  0  0  0  0  0  0  0  0  0  0
   33.5620   27.2360   48.0430 C   0  0  0  0  0  0  0  0  0  0  0  0
   33.6850   26.6840   46.6290 C   0  0  0  0  0  0  0  0  0  0  0  0
   33.1470   25.2690   46.6810 C   0  0  0  0  0  0  0  0  0  0  0  0
   32.2010   25.0170   47.8080 C   0  0  0  0  0  0  0  0  0  0  0  0
   31.3000   26.1880   48.1360 C   0  0  0  0  0  0  0  0  0  0  0  0
   32.0840   27.4780   48.2580 C   0  0  0  0  0  0  0  0  0  0  0  0
   37.2870   30.0120   49.4730 C   0  0  0  0  0  0  0  0  0  0  0  0
   37.6860   29.4090   50.4940 O   0  0  0  0  0  0  0  0  0  0  0  0
   38.0190   31.0870   48.8230 C   0  0  0  0  0  0  0  0  0  0  0  0
   38.1770   32.2600   49.5530 C   0  0  0  0  0  0  0  0  0  0  0  0
   38.8690   33.3140   48.9700 C   0  0  0  0  0  0  0  0  0  0  0  0
   39.3550   33.1250   47.6950 N   0  0  0  0  0  0  0  0  0  0  0  0
   39.1850   31.9850   47.0200 C   0  0  0  0  0  0  0  0  0  0  0  0
   38.5170   30.9740   47.5880 N   0  0  0  0  0  0  0  0  0  0  0  0
   37.7620   32.3380   50.5670 H   0  0  0  0  0  0  0  0  0  0  0  0
   39.0170   34.2380   49.4970 H   0  0  0  0  0  0  0  0  0  0  0  0
   39.5940   31.9000   46.0130 H   0  0  0  0  0  0  0  0  0  0  0  0
  1 14  1  0  0  0  0
  2  1  2  0  0  0  0
  3  4  2  0  0  0  0
  3  2  1  0  0  0  0
  4  5  1  0  0  0  0
  5  1  1  0  0  0  0
  6  2  1  0  0  0  0
  7  3  1  0  0  0  0
  8  4  1  0  0  0  0
  8 13  1  0  0  0  0
  9 10  1  0  0  0  0
  9  8  1  0  0  0  0
 10 11  1  0  0  0  0
 11 12  1  0  0  0  0
 12 13  1  0  0  0  0
 14 15  2  0  0  0  0
 16 14  1  0  0  0  0
 16 17  1  0  0  0  0
 17 22  1  0  0  0  0
 18 23  1  0  0  0  0
 18 17  2  0  0  0  0
 19 18  1  0  0  0  0
 20 21  1  0  0  0  0
 20 19  2  0  0  0  0
 21 16  2  0  0  0  0
 24 20  1  0  0  0  0
M  END
>  <minimizedAffinity>
-5.38276815

>  <minimizedRMSD>
1.81129074

$$$$
