
 OpenBabel03262523003D

 35 39  0  0  0  0  0  0  0  0999 V2000
   34.7020   28.6410   49.2350 C   0  0  0  0  0  0  0  0  0  0  0  0
   34.7270   27.6440   48.2600 C   0  0  0  0  0  0  0  0  0  0  0  0
   33.4400   27.2130   48.0550 C   0  0  0  0  0  0  0  0  0  0  0  0
   32.6440   27.9520   48.9080 N   0  0  0  0  0  0  0  0  0  0  0  0
   33.4340   28.7800   49.5830 N   0  0  0  0  0  0  0  0  0  0  0  0
   30.5000   27.1630   48.0040 N   0  0  0  0  0  0  0  0  0  0  0  0
   31.2440   27.7710   48.9670 C   0  0  0  0  0  0  0  0  0  0  0  0
   30.3730   28.1380   49.9340 N   0  0  0  0  0  0  0  0  0  0  0  0
   29.1140   27.7800   49.6070 C   0  0  0  0  0  0  0  0  0  0  0  0
   27.8660   27.8730   50.1540 C   0  0  0  0  0  0  0  0  0  0  0  0
   26.8110   27.3730   49.4920 N   0  0  0  0  0  0  0  0  0  0  0  0
   26.9380   26.7760   48.2930 C   0  0  0  0  0  0  0  0  0  0  0  0
   28.1450   26.6640   47.7240 N   0  0  0  0  0  0  0  0  0  0  0  0
   29.2030   27.1590   48.3760 C   0  0  0  0  0  0  0  0  0  0  0  0
   35.5990   27.2460   47.7260 H   0  0  0  0  0  0  0  0  0  0  0  0
   33.1250   26.4580   47.3730 H   0  0  0  0  0  0  0  0  0  0  0  0
   30.8740   26.7540   47.0970 H   0  0  0  0  0  0  0  0  0  0  0  0
   26.0720   26.3730   47.7640 H   0  0  0  0  0  0  0  0  0  0  0  0
   37.1840   30.0440   51.5430 C   0  0  0  0  0  0  0  0  0  0  0  0
   38.0850   30.6920   50.6300 C   0  0  0  0  0  0  0  0  0  0  0  0
   37.8170   30.6270   49.2740 C   0  0  0  0  0  0  0  0  0  0  0  0
   36.7130   29.9560   48.8640 N   0  0  0  0  0  0  0  0  0  0  0  0
   35.8720   29.3490   49.7300 C   0  0  0  0  0  0  0  0  0  0  0  0
   36.1150   29.3990   51.0500 N   0  0  0  0  0  0  0  0  0  0  0  0
   37.3110   30.0390   52.6130 H   0  0  0  0  0  0  0  0  0  0  0  0
   38.9190   31.1900   51.0620 H   0  0  0  0  0  0  0  0  0  0  0  0
   38.7410   31.2930   48.3300 C   0  0  0  0  0  0  0  0  0  0  0  0
   38.5980   30.8680   46.9100 C   0  0  0  0  0  0  0  0  0  0  0  0
   38.3100   32.1170   46.0720 C   0  0  0  0  0  0  0  0  0  0  0  0
   39.4610   33.0710   46.2460 C   0  0  0  0  0  0  0  0  0  0  0  0
   39.6460   33.4470   47.6850 C   0  0  0  0  0  0  0  0  0  0  0  0
   38.5730   32.7860   48.5160 C   0  0  0  0  0  0  0  0  0  0  0  0
   27.7620   28.5110   51.4220 N   0  0  0  0  0  0  0  0  0  0  0  0
   28.4740   28.2060   52.1450 H   0  0  0  0  0  0  0  0  0  0  0  0
   27.0560   29.2290   51.6710 H   0  0  0  0  0  0  0  0  0  0  0  0
  1  5  2  0  0  0  0
  1 23  1  0  0  0  0
  2  1  1  0  0  0  0
  3  2  2  0  0  0  0
  3  4  1  0  0  0  0
  4  7  1  0  0  0  0
  4  5  1  0  0  0  0
  6 14  1  0  0  0  0
  6  7  1  0  0  0  0
  7  8  2  0  0  0  0
  9  8  1  0  0  0  0
  9 10  1  0  0  0  0
 10 33  1  0  0  0  0
 11 10  2  0  0  0  0
 12 11  1  0  0  0  0
 13 12  2  0  0  0  0
 13 14  1  0  0  0  0
 14  9  2  0  0  0  0
 15  2  1  0  0  0  0
 16  3  1  0  0  0  0
 17  6  1  0  0  0  0
 18 12  1  0  0  0  0
 19 25  1  0  0  0  0
 20 26  1  0  0  0  0
 20 19  2  0  0  0  0
 21 20  1  0  0  0  0
 22 21  2  0  0  0  0
 22 23  1  0  0  0  0
 23 24  2  0  0  0  0
 24 19  1  0  0  0  0
 27 32  1  0  0  0  0
 27 21  1  0  0  0  0
 28 27  1  0  0  0  0
 29 30  1  0  0  0  0
 29 28  1  0  0  0  0
 30 31  1  0  0  0  0
 31 32  1  0  0  0  0
 33 35  1  0  0  0  0
 33 34  1  0  0  0  0
M  END
>  <minimizedAffinity>
-8.02685547

>  <minimizedRMSD>
1.58023393

$$$$
