
 OpenBabel03272506483D

 39 42  0  0  1  0  0  0  0  0999 V2000
   32.1290   28.5020   47.4400 C   0  0  2  0  0  0  0  0  0  0  0  0
   33.3770   28.3270   48.2540 C   0  0  1  0  0  0  0  0  0  0  0  0
   33.7630   27.0240   48.1580 O   0  0  0  0  0  0  0  0  0  0  0  0
   33.0570   26.4140   47.1260 C   0  0  0  0  0  0  0  0  0  0  0  0
   32.4520   27.5040   46.2830 C   0  0  1  0  0  0  0  0  0  0  0  0
   31.2030   28.1830   47.9060 H   0  0  0  0  0  0  0  0  0  0  0  0
   33.1840   28.6710   49.2910 H   0  0  0  0  0  0  0  0  0  0  0  0
   32.3780   25.7020   47.5660 H   0  0  0  0  0  0  0  0  0  0  0  0
   33.8090   25.8530   46.5040 H   0  0  0  0  0  0  0  0  0  0  0  0
   33.1590   28.0170   45.6390 H   0  0  0  0  0  0  0  0  0  0  0  0
   32.0590   29.8080   46.9100 O   0  0  0  0  0  0  0  0  0  0  0  0
   32.7160   29.8640   46.1800 H   0  0  0  0  0  0  0  0  0  0  0  0
   34.6860   29.3690   47.4940 S   0  0  0  0  0  0  0  0  0  0  0  0
   37.1030   29.2830   50.6320 C   0  0  0  0  0  0  0  0  0  0  0  0
   37.5920   30.5860   50.7450 C   0  0  0  0  0  0  0  0  0  0  0  0
   37.1600   31.5280   49.8150 C   0  0  0  0  0  0  0  0  0  0  0  0
   36.2840   31.1390   48.8450 N   0  0  0  0  0  0  0  0  0  0  0  0
   35.8350   29.8680   48.7710 C   0  0  0  0  0  0  0  0  0  0  0  0
   36.2360   28.9240   49.6610 N   0  0  0  0  0  0  0  0  0  0  0  0
   37.4640   28.5980   51.3670 H   0  0  0  0  0  0  0  0  0  0  0  0
   38.2920   30.8490   51.5390 H   0  0  0  0  0  0  0  0  0  0  0  0
   37.5240   32.5410   49.8830 H   0  0  0  0  0  0  0  0  0  0  0  0
   31.2990   27.0340   45.7020 O   0  0  0  0  0  0  0  0  0  0  0  0
   29.8740   29.1690   44.2590 Cl  0  0  0  0  0  0  0  0  0  0  0  0
   29.3000   28.1720   45.5750 C   0  0  0  0  0  0  0  0  0  0  0  0
   30.0630   27.1900   46.1650 C   0  0  0  0  0  0  0  0  0  0  0  0
   29.4860   26.4390   47.1910 C   0  0  0  0  0  0  0  0  0  0  0  0
   28.1900   26.6820   47.5950 C   0  0  0  0  0  0  0  0  0  0  0  0
   27.4160   27.6660   47.0080 C   0  0  0  0  0  0  0  0  0  0  0  0
   27.9930   28.4060   45.9930 C   0  0  0  0  0  0  0  0  0  0  0  0
   30.0080   25.6500   47.7040 H   0  0  0  0  0  0  0  0  0  0  0  0
   27.7040   26.1250   48.3840 H   0  0  0  0  0  0  0  0  0  0  0  0
   26.4000   27.8460   47.3350 H   0  0  0  0  0  0  0  0  0  0  0  0
   27.1650   29.4670   45.3580 C   0  0  0  0  0  3  0  0  0  0  0  0
   26.9770   29.2630   43.8820 C   0  0  0  0  0  2  0  0  0  0  0  0
   26.8180   30.5980   43.1530 C   0  0  0  0  0  2  0  0  0  0  0  0
   26.0320   31.5930   43.9600 C   0  0  0  0  0  2  0  0  0  0  0  0
   26.8280   31.9230   45.2040 C   0  0  0  0  0  2  0  0  0  0  0  0
   27.7970   30.8230   45.5500 C   0  0  0  0  0  2  0  0  0  0  0  0
  1  6  1  1  0  0  0
  1  2  1  0  0  0  0
  2  7  1  1  0  0  0
  3  2  1  0  0  0  0
  4  8  1  0  0  0  0
  4  3  1  0  0  0  0
  5 10  1  6  0  0  0
  5  4  1  0  0  0  0
  5  1  1  0  0  0  0
  9  4  1  0  0  0  0
 11  1  1  0  0  0  0
 12 11  1  0  0  0  0
 13  2  1  0  0  0  0
 13 18  1  0  0  0  0
 14 15  1  0  0  0  0
 14 20  1  0  0  0  0
 15 21  1  0  0  0  0
 16 22  1  0  0  0  0
 16 15  2  0  0  0  0
 17 16  1  0  0  0  0
 18 17  2  0  0  0  0
 18 19  1  0  0  0  0
 19 14  2  0  0  0  0
 23 26  1  0  0  0  0
 23  5  1  0  0  0  0
 24 25  1  0  0  0  0
 25 30  2  0  0  0  0
 25 26  1  0  0  0  0
 26 27  2  0  0  0  0
 27 28  1  0  0  0  0
 27 31  1  0  0  0  0
 28 32  1  0  0  0  0
 29 33  1  0  0  0  0
 29 28  2  0  0  0  0
 30 29  1  0  0  0  0
 34 39  1  0  0  0  0
 34 30  1  0  0  0  0
 35 34  1  0  0  0  0
 36 35  1  0  0  0  0
 36 37  1  0  0  0  0
 37 38  1  0  0  0  0
 38 39  1  0  0  0  0
M  END
>  <minimizedAffinity>
-5.24467802

>  <minimizedRMSD>
0.209483474

$$$$
