
 OpenBabel03272509063D

 30 32  0  0  0  0  0  0  0  0999 V2000
   36.6690   25.0080   31.7460 C   0  0  0  0  0  3  0  0  0  0  0  0
   36.7540   23.7160   31.9300 C   0  0  0  0  0  3  0  0  0  0  0  0
   36.7500   27.8970   33.9910 C   0  0  0  0  0  0  0  0  0  0  0  0
   37.4360   27.3720   35.1040 C   0  0  0  0  0  0  0  0  0  0  0  0
   37.8550   26.0280   35.0500 C   0  0  0  0  0  0  0  0  0  0  0  0
   37.5710   25.3200   33.9310 N   0  0  0  0  0  0  0  0  0  0  0  0
   36.9120   25.8540   32.8840 C   0  0  0  0  0  0  0  0  0  0  0  0
   36.5110   27.1430   32.9350 N   0  0  0  0  0  0  0  0  0  0  0  0
   36.4430   28.9290   34.0630 H   0  0  0  0  0  0  0  0  0  0  0  0
   37.6760   27.8970   35.9970 H   0  0  0  0  0  0  0  0  0  0  0  0
   38.5870   25.3190   36.1320 C   0  0  0  0  0  3  0  0  0  0  0  0
   37.7120   24.3130   36.8420 C   0  0  0  0  0  2  0  0  0  0  0  0
   38.6450   23.5770   37.8120 C   0  0  0  0  0  2  0  0  0  0  0  0
   39.5800   22.6570   37.0680 C   0  0  0  0  0  2  0  0  0  0  0  0
   39.5730   23.0580   35.6190 C   0  0  0  0  0  2  0  0  0  0  0  0
   39.7910   24.5650   35.5800 C   0  0  0  0  0  2  0  0  0  0  0  0
   36.5520   22.6470   30.9330 C   0  0  0  0  0  0  0  0  0  0  0  0
   37.5230   22.4900   30.3980 H   0  0  0  0  0  0  0  0  0  0  0  0
   35.7870   22.8980   30.1680 H   0  0  0  0  0  0  0  0  0  0  0  0
   36.1770   21.3430   31.5600 C   0  0  0  0  0  0  0  0  0  0  0  0
   36.1360   20.1400   30.9050 C   0  0  0  0  0  0  0  0  0  0  0  0
   35.7770   18.9880   31.5730 C   0  0  0  0  0  0  0  0  0  0  0  0
   35.4460   19.0240   32.9410 C   0  0  0  0  0  0  0  0  0  0  0  0
   35.4850   20.2210   33.6000 C   0  0  0  0  0  0  0  0  0  0  0  0
   35.8490   21.3670   32.9090 C   0  0  0  0  0  0  0  0  0  0  0  0
   36.4000   20.1610   29.8500 H   0  0  0  0  0  0  0  0  0  0  0  0
   35.7640   18.0820   31.0060 H   0  0  0  0  0  0  0  0  0  0  0  0
   35.1850   18.0670   33.3500 H   0  0  0  0  0  0  0  0  0  0  0  0
   35.2270   20.2250   34.6510 H   0  0  0  0  0  0  0  0  0  0  0  0
   35.8600   22.2880   33.4950 H   0  0  0  0  0  0  0  0  0  0  0  0
  1  2  2  0  0  0  0
  1  7  1  0  0  0  0
  3  9  1  0  0  0  0
  3  4  1  0  0  0  0
  4 10  1  0  0  0  0
  5  4  2  0  0  0  0
  5 11  1  0  0  0  0
  6  5  1  0  0  0  0
  7  8  1  0  0  0  0
  7  6  2  0  0  0  0
  8  3  2  0  0  0  0
 11 12  1  0  0  0  0
 12 13  1  0  0  0  0
 14 13  1  0  0  0  0
 15 14  1  0  0  0  0
 16 15  1  0  0  0  0
 16 11  1  0  0  0  0
 17 20  1  0  0  0  0
 17  2  1  0  0  0  0
 18 17  1  0  0  0  0
 19 17  1  0  0  0  0
 20 25  1  0  0  0  0
 21 20  2  0  0  0  0
 21 22  1  0  0  0  0
 22 23  2  0  0  0  0
 23 28  1  0  0  0  0
 23 24  1  0  0  0  0
 24 29  1  0  0  0  0
 25 30  1  0  0  0  0
 25 24  2  0  0  0  0
 26 21  1  0  0  0  0
 27 22  1  0  0  0  0
M  END
>  <minimizedAffinity>
-5.78450918

$$$$

 OpenBabel03272509063D

 30 32  0  0  0  0  0  0  0  0999 V2000
   38.3350   25.0870   33.0690 C   0  0  0  0  0  3  0  0  0  0  0  0
   38.8660   24.0690   33.6950 C   0  0  0  0  0  3  0  0  0  0  0  0
   35.3590   25.5580   30.9920 C   0  0  0  0  0  0  0  0  0  0  0  0
   34.9680   24.2260   30.7500 C   0  0  0  0  0  0  0  0  0  0  0  0
   35.7460   23.1950   31.3140 C   0  0  0  0  0  0  0  0  0  0  0  0
   36.8240   23.5470   32.0540 N   0  0  0  0  0  0  0  0  0  0  0  0
   37.1710   24.8330   32.2640 C   0  0  0  0  0  0  0  0  0  0  0  0
   36.4250   25.8210   31.7240 N   0  0  0  0  0  0  0  0  0  0  0  0
   34.7430   26.3240   30.5470 H   0  0  0  0  0  0  0  0  0  0  0  0
   34.1300   23.9130   30.1760 H   0  0  0  0  0  0  0  0  0  0  0  0
   35.4760   21.7420   31.1600 C   0  0  0  0  0  3  0  0  0  0  0  0
   36.7450   20.9510   30.9410 C   0  0  0  0  0  2  0  0  0  0  0  0
   36.3140   19.4800   30.9490 C   0  0  0  0  0  2  0  0  0  0  0  0
   35.9440   19.0340   32.3420 C   0  0  0  0  0  2  0  0  0  0  0  0
   35.7300   20.2620   33.1820 C   0  0  0  0  0  2  0  0  0  0  0  0
   34.7940   21.1730   32.3970 C   0  0  0  0  0  2  0  0  0  0  0  0
   40.0510   24.0680   34.5740 C   0  0  0  0  0  0  0  0  0  0  0  0
   40.4880   25.1000   34.5610 H   0  0  0  0  0  0  0  0  0  0  0  0
   40.8450   23.3670   34.2410 H   0  0  0  0  0  0  0  0  0  0  0  0
   39.7120   23.7510   35.9940 C   0  0  0  0  0  0  0  0  0  0  0  0
   40.4410   22.9280   36.8110 C   0  0  0  0  0  0  0  0  0  0  0  0
   40.0440   22.6970   38.1120 C   0  0  0  0  0  0  0  0  0  0  0  0
   38.8810   23.3020   38.6260 C   0  0  0  0  0  0  0  0  0  0  0  0
   38.1490   24.1250   37.8160 C   0  0  0  0  0  0  0  0  0  0  0  0
   38.5670   24.3440   36.5120 C   0  0  0  0  0  0  0  0  0  0  0  0
   41.3300   22.4830   36.3700 H   0  0  0  0  0  0  0  0  0  0  0  0
   40.6550   22.0450   38.6980 H   0  0  0  0  0  0  0  0  0  0  0  0
   38.6750   23.0480   39.6480 H   0  0  0  0  0  0  0  0  0  0  0  0
   37.2600   24.5790   38.2330 H   0  0  0  0  0  0  0  0  0  0  0  0
   37.9370   25.0100   35.9200 H   0  0  0  0  0  0  0  0  0  0  0  0
  1  2  2  0  0  0  0
  2 17  1  0  0  0  0
  3  8  1  0  0  0  0
  4  3  2  0  0  0  0
  4  5  1  0  0  0  0
  5  6  2  0  0  0  0
  6  7  1  0  0  0  0
  7  1  1  0  0  0  0
  8  7  2  0  0  0  0
  9  3  1  0  0  0  0
 10  4  1  0  0  0  0
 11  5  1  0  0  0  0
 11 16  1  0  0  0  0
 12 13  1  0  0  0  0
 12 11  1  0  0  0  0
 13 14  1  0  0  0  0
 14 15  1  0  0  0  0
 16 15  1  0  0  0  0
 17 20  1  0  0  0  0
 18 17  1  0  0  0  0
 19 17  1  0  0  0  0
 20 25  2  0  0  0  0
 20 21  1  0  0  0  0
 21 22  2  0  0  0  0
 22 23  1  0  0  0  0
 22 27  1  0  0  0  0
 23 28  1  0  0  0  0
 24 29  1  0  0  0  0
 24 23  2  0  0  0  0
 25 24  1  0  0  0  0
 26 21  1  0  0  0  0
 30 25  1  0  0  0  0
M  END
>  <minimizedAffinity>
-5.72862339

$$$$

 OpenBabel03272509063D

 30 32  0  0  0  0  0  0  0  0999 V2000
   36.9310   28.0150   32.6120 C   0  0  0  0  0  3  0  0  0  0  0  0
   36.0360   28.6420   33.3300 C   0  0  0  0  0  3  0  0  0  0  0  0
   37.2080   24.3720   32.4110 C   0  0  0  0  0  0  0  0  0  0  0  0
   37.7360   24.0570   33.6790 C   0  0  0  0  0  0  0  0  0  0  0  0
   37.9840   25.1160   34.5750 C   0  0  0  0  0  0  0  0  0  0  0  0
   37.7000   26.3740   34.1610 N   0  0  0  0  0  0  0  0  0  0  0  0
   37.1960   26.6400   32.9400 C   0  0  0  0  0  0  0  0  0  0  0  0
   36.9580   25.6240   32.0820 N   0  0  0  0  0  0  0  0  0  0  0  0
   37.0300   23.5380   31.7490 H   0  0  0  0  0  0  0  0  0  0  0  0
   37.9700   23.0830   34.0370 H   0  0  0  0  0  0  0  0  0  0  0  0
   38.5360   24.9630   35.9460 C   0  0  0  0  0  3  0  0  0  0  0  0
   37.5410   24.3270   36.8880 C   0  0  0  0  0  2  0  0  0  0  0  0
   38.3060   24.1090   38.1990 C   0  0  0  0  0  2  0  0  0  0  0  0
   39.3090   22.9920   38.0590 C   0  0  0  0  0  2  0  0  0  0  0  0
   39.5170   22.7340   36.5920 C   0  0  0  0  0  2  0  0  0  0  0  0
   39.7830   24.0870   35.9440 C   0  0  0  0  0  2  0  0  0  0  0  0
   35.5890   30.0420   33.1950 C   0  0  0  0  0  0  0  0  0  0  0  0
   34.7950   30.0730   32.4050 H   0  0  0  0  0  0  0  0  0  0  0  0
   36.3980   30.7340   32.8800 H   0  0  0  0  0  0  0  0  0  0  0  0
   34.9820   30.5730   34.4520 C   0  0  0  0  0  0  0  0  0  0  0  0
   33.6820   30.3750   34.8410 C   0  0  0  0  0  0  0  0  0  0  0  0
   33.2150   30.9090   36.0240 C   0  0  0  0  0  0  0  0  0  0  0  0
   34.0620   31.6660   36.8560 C   0  0  0  0  0  0  0  0  0  0  0  0
   35.3580   31.8660   36.4730 C   0  0  0  0  0  0  0  0  0  0  0  0
   35.8080   31.3210   35.2810 C   0  0  0  0  0  0  0  0  0  0  0  0
   33.0670   29.7850   34.1670 H   0  0  0  0  0  0  0  0  0  0  0  0
   32.1920   30.7190   36.2710 H   0  0  0  0  0  0  0  0  0  0  0  0
   33.5850   32.0270   37.7470 H   0  0  0  0  0  0  0  0  0  0  0  0
   35.9910   32.4510   37.1280 H   0  0  0  0  0  0  0  0  0  0  0  0
   36.8530   31.5190   35.0350 H   0  0  0  0  0  0  0  0  0  0  0  0
  1  7  1  0  0  0  0
  1  2  2  0  0  0  0
  3  4  1  0  0  0  0
  4 10  1  0  0  0  0
  4  5  2  0  0  0  0
  5 11  1  0  0  0  0
  6  5  1  0  0  0  0
  7  6  2  0  0  0  0
  8  3  2  0  0  0  0
  8  7  1  0  0  0  0
  9  3  1  0  0  0  0
 11 12  1  0  0  0  0
 12 13  1  0  0  0  0
 14 13  1  0  0  0  0
 15 14  1  0  0  0  0
 16 11  1  0  0  0  0
 16 15  1  0  0  0  0
 17  2  1  0  0  0  0
 17 20  1  0  0  0  0
 18 17  1  0  0  0  0
 19 17  1  0  0  0  0
 20 21  2  0  0  0  0
 20 25  1  0  0  0  0
 21 22  1  0  0  0  0
 22 27  1  0  0  0  0
 22 23  2  0  0  0  0
 23 28  1  0  0  0  0
 24 23  1  0  0  0  0
 24 29  1  0  0  0  0
 25 24  2  0  0  0  0
 26 21  1  0  0  0  0
 30 25  1  0  0  0  0
M  END
>  <minimizedAffinity>
-5.72783327

$$$$

 OpenBabel03272509063D

 30 32  0  0  0  0  0  0  0  0999 V2000
   36.6910   27.8490   33.4410 C   0  0  0  0  0  3  0  0  0  0  0  0
   36.1170   28.7100   34.2400 C   0  0  0  0  0  3  0  0  0  0  0  0
   38.1300   25.4820   35.8340 C   0  0  0  0  0  0  0  0  0  0  0  0
   38.2180   24.3110   35.0560 C   0  0  0  0  0  0  0  0  0  0  0  0
   37.7770   24.3690   33.7180 C   0  0  0  0  0  0  0  0  0  0  0  0
   37.2930   25.5490   33.2620 N   0  0  0  0  0  0  0  0  0  0  0  0
   37.2220   26.6500   34.0350 C   0  0  0  0  0  0  0  0  0  0  0  0
   37.6450   26.5950   35.3160 N   0  0  0  0  0  0  0  0  0  0  0  0
   38.4760   25.4040   36.8530 H   0  0  0  0  0  0  0  0  0  0  0  0
   38.5920   23.3690   35.3790 H   0  0  0  0  0  0  0  0  0  0  0  0
   37.8000   23.2310   32.7620 C   0  0  0  0  0  3  0  0  0  0  0  0
   37.2320   21.9700   33.3700 C   0  0  0  0  0  2  0  0  0  0  0  0
   37.1930   20.9500   32.2270 C   0  0  0  0  0  2  0  0  0  0  0  0
   36.1100   21.2930   31.2340 C   0  0  0  0  0  2  0  0  0  0  0  0
   35.7000   22.7210   31.4680 C   0  0  0  0  0  2  0  0  0  0  0  0
   36.9820   23.5420   31.5150 C   0  0  0  0  0  2  0  0  0  0  0  0
   35.5010   30.0030   33.8810 C   0  0  0  0  0  0  0  0  0  0  0  0
   34.6770   29.7980   33.1510 H   0  0  0  0  0  0  0  0  0  0  0  0
   36.2090   30.7070   33.3940 H   0  0  0  0  0  0  0  0  0  0  0  0
   34.8890   30.6910   35.0560 C   0  0  0  0  0  0  0  0  0  0  0  0
   35.5520   31.5440   35.8990 C   0  0  0  0  0  0  0  0  0  0  0  0
   34.8970   32.1330   36.9610 C   0  0  0  0  0  0  0  0  0  0  0  0
   33.5340   31.8700   37.2000 C   0  0  0  0  0  0  0  0  0  0  0  0
   32.8680   31.0200   36.3620 C   0  0  0  0  0  0  0  0  0  0  0  0
   33.5450   30.4400   35.3010 C   0  0  0  0  0  0  0  0  0  0  0  0
   36.6020   31.7170   35.6760 H   0  0  0  0  0  0  0  0  0  0  0  0
   35.4700   32.7890   37.5820 H   0  0  0  0  0  0  0  0  0  0  0  0
   33.1360   32.3860   38.0530 H   0  0  0  0  0  0  0  0  0  0  0  0
   31.8210   30.8330   36.5650 H   0  0  0  0  0  0  0  0  0  0  0  0
   32.9540   29.7720   34.6720 H   0  0  0  0  0  0  0  0  0  0  0  0
  1  7  1  0  0  0  0
  1  2  2  0  0  0  0
  3  9  1  0  0  0  0
  4 10  1  0  0  0  0
  4  3  2  0  0  0  0
  5  4  1  0  0  0  0
  6  5  2  0  0  0  0
  6  7  1  0  0  0  0
  7  8  2  0  0  0  0
  8  3  1  0  0  0  0
 11 12  1  0  0  0  0
 11  5  1  0  0  0  0
 13 12  1  0  0  0  0
 14 15  1  0  0  0  0
 14 13  1  0  0  0  0
 15 16  1  0  0  0  0
 16 11  1  0  0  0  0
 17  2  1  0  0  0  0
 17 20  1  0  0  0  0
 18 17  1  0  0  0  0
 19 17  1  0  0  0  0
 20 25  2  0  0  0  0
 20 21  1  0  0  0  0
 21 22  2  0  0  0  0
 22 23  1  0  0  0  0
 22 27  1  0  0  0  0
 23 28  1  0  0  0  0
 24 29  1  0  0  0  0
 24 23  2  0  0  0  0
 25 24  1  0  0  0  0
 26 21  1  0  0  0  0
 30 25  1  0  0  0  0
M  END
>  <minimizedAffinity>
-5.68423319

$$$$

 OpenBabel03272509063D

 30 32  0  0  0  0  0  0  0  0999 V2000
   36.6350   28.2970   34.8110 C   0  0  0  0  0  3  0  0  0  0  0  0
   35.6650   28.8270   34.1110 C   0  0  0  0  0  3  0  0  0  0  0  0
   38.3050   26.0200   32.4840 C   0  0  0  0  0  0  0  0  0  0  0  0
   38.5480   24.9010   33.3060 C   0  0  0  0  0  0  0  0  0  0  0  0
   38.1260   24.9630   34.6490 C   0  0  0  0  0  0  0  0  0  0  0  0
   37.5130   26.0960   35.0690 N   0  0  0  0  0  0  0  0  0  0  0  0
   37.2980   27.1480   34.2550 C   0  0  0  0  0  0  0  0  0  0  0  0
   37.7010   27.0880   32.9670 N   0  0  0  0  0  0  0  0  0  0  0  0
   38.6400   25.9410   31.4610 H   0  0  0  0  0  0  0  0  0  0  0  0
   39.0240   23.9980   33.0110 H   0  0  0  0  0  0  0  0  0  0  0  0
   38.3020   23.8780   35.6490 C   0  0  0  0  0  3  0  0  0  0  0  0
   39.7170   23.8170   36.1750 C   0  0  0  0  0  2  0  0  0  0  0  0
   39.6920   22.7600   37.2850 C   0  0  0  0  0  2  0  0  0  0  0  0
   38.9640   23.2720   38.5020 C   0  0  0  0  0  2  0  0  0  0  0  0
   38.1610   24.4750   38.0920 C   0  0  0  0  0  2  0  0  0  0  0  0
   37.3800   24.0760   36.8460 C   0  0  0  0  0  2  0  0  0  0  0  0
   34.8370   29.9980   34.4590 C   0  0  0  0  0  0  0  0  0  0  0  0
   34.5500   29.9060   35.5370 H   0  0  0  0  0  0  0  0  0  0  0  0
   33.8980   30.0630   33.8700 H   0  0  0  0  0  0  0  0  0  0  0  0
   35.5750   31.2870   34.3070 C   0  0  0  0  0  0  0  0  0  0  0  0
   35.8680   31.8880   33.1100 C   0  0  0  0  0  0  0  0  0  0  0  0
   36.5580   33.0820   33.0740 C   0  0  0  0  0  0  0  0  0  0  0  0
   36.9740   33.7080   34.2650 C   0  0  0  0  0  0  0  0  0  0  0  0
   36.6850   33.1140   35.4610 C   0  0  0  0  0  0  0  0  0  0  0  0
   35.9910   31.9140   35.4750 C   0  0  0  0  0  0  0  0  0  0  0  0
   35.5270   31.3680   32.2190 H   0  0  0  0  0  0  0  0  0  0  0  0
   36.7550   33.5000   32.1090 H   0  0  0  0  0  0  0  0  0  0  0  0
   37.5000   34.6310   34.1090 H   0  0  0  0  0  0  0  0  0  0  0  0
   37.0140   33.6130   36.3630 H   0  0  0  0  0  0  0  0  0  0  0  0
   35.7930   31.4940   36.4630 H   0  0  0  0  0  0  0  0  0  0  0  0
  2 17  1  0  0  0  0
  2  1  2  0  0  0  0
  3  8  2  0  0  0  0
  3  4  1  0  0  0  0
  4  5  2  0  0  0  0
  5  6  1  0  0  0  0
  5 11  1  0  0  0  0
  7  1  1  0  0  0  0
  7  6  2  0  0  0  0
  8  7  1  0  0  0  0
  9  3  1  0  0  0  0
 10  4  1  0  0  0  0
 11 12  1  0  0  0  0
 11 16  1  0  0  0  0
 12 13  1  0  0  0  0
 13 14  1  0  0  0  0
 15 14  1  0  0  0  0
 16 15  1  0  0  0  0
 17 18  1  0  0  0  0
 19 17  1  0  0  0  0
 20 17  1  0  0  0  0
 20 25  1  0  0  0  0
 21 20  2  0  0  0  0
 22 21  1  0  0  0  0
 22 23  2  0  0  0  0
 23 24  1  0  0  0  0
 24 25  2  0  0  0  0
 24 29  1  0  0  0  0
 25 30  1  0  0  0  0
 26 21  1  0  0  0  0
 27 22  1  0  0  0  0
 28 23  1  0  0  0  0
M  END
>  <minimizedAffinity>
-5.61758089

$$$$

 OpenBabel03272509063D

 30 32  0  0  0  0  0  0  0  0999 V2000
   36.9240   26.9480   33.3650 C   0  0  0  0  0  3  0  0  0  0  0  0
   37.2620   27.0540   34.6240 C   0  0  0  0  0  3  0  0  0  0  0  0
   36.0790   29.4280   30.8100 C   0  0  0  0  0  0  0  0  0  0  0  0
   35.4570   30.4290   31.5810 C   0  0  0  0  0  0  0  0  0  0  0  0
   35.3440   30.2210   32.9700 C   0  0  0  0  0  0  0  0  0  0  0  0
   35.8410   29.0690   33.4800 N   0  0  0  0  0  0  0  0  0  0  0  0
   36.4300   28.1310   32.7120 C   0  0  0  0  0  0  0  0  0  0  0  0
   36.5390   28.3310   31.3810 N   0  0  0  0  0  0  0  0  0  0  0  0
   36.1500   29.6170   29.7500 H   0  0  0  0  0  0  0  0  0  0  0  0
   35.0560   31.3440   31.2150 H   0  0  0  0  0  0  0  0  0  0  0  0
   34.7180   31.1710   33.9270 C   0  0  0  0  0  3  0  0  0  0  0  0
   33.9920   30.4540   35.0410 C   0  0  0  0  0  2  0  0  0  0  0  0
   33.5380   31.5570   36.0040 C   0  0  0  0  0  2  0  0  0  0  0  0
   34.7100   32.1310   36.7600 C   0  0  0  0  0  2  0  0  0  0  0  0
   35.9680   31.7280   36.0410 C   0  0  0  0  0  2  0  0  0  0  0  0
   35.7630   32.0730   34.5720 C   0  0  0  0  0  2  0  0  0  0  0  0
   37.7900   25.9970   35.5080 C   0  0  0  0  0  0  0  0  0  0  0  0
   37.2140   25.0590   35.3030 H   0  0  0  0  0  0  0  0  0  0  0  0
   37.6750   26.2290   36.5880 H   0  0  0  0  0  0  0  0  0  0  0  0
   39.2300   25.6970   35.2460 C   0  0  0  0  0  0  0  0  0  0  0  0
   39.8050   24.4580   35.3510 C   0  0  0  0  0  0  0  0  0  0  0  0
   41.1480   24.2820   35.0860 C   0  0  0  0  0  0  0  0  0  0  0  0
   41.9540   25.3710   34.7030 C   0  0  0  0  0  0  0  0  0  0  0  0
   41.3850   26.6090   34.5960 C   0  0  0  0  0  0  0  0  0  0  0  0
   40.0340   26.7640   34.8660 C   0  0  0  0  0  0  0  0  0  0  0  0
   39.1450   23.6480   35.6500 H   0  0  0  0  0  0  0  0  0  0  0  0
   41.5370   23.2910   35.1860 H   0  0  0  0  0  0  0  0  0  0  0  0
   42.9790   25.1100   34.5230 H   0  0  0  0  0  0  0  0  0  0  0  0
   42.0230   27.4310   34.2990 H   0  0  0  0  0  0  0  0  0  0  0  0
   39.6450   27.7780   34.7620 H   0  0  0  0  0  0  0  0  0  0  0  0
  1  2  2  0  0  0  0
  2 17  1  0  0  0  0
  3  8  2  0  0  0  0
  3  4  1  0  0  0  0
  4  5  2  0  0  0  0
  5  6  1  0  0  0  0
  5 11  1  0  0  0  0
  7  1  1  0  0  0  0
  7  6  2  0  0  0  0
  8  7  1  0  0  0  0
  9  3  1  0  0  0  0
 10  4  1  0  0  0  0
 11 16  1  0  0  0  0
 11 12  1  0  0  0  0
 12 13  1  0  0  0  0
 13 14  1  0  0  0  0
 15 14  1  0  0  0  0
 16 15  1  0  0  0  0
 17 19  1  0  0  0  0
 18 17  1  0  0  0  0
 20 21  1  0  0  0  0
 20 17  1  0  0  0  0
 21 26  1  0  0  0  0
 22 27  1  0  0  0  0
 22 21  2  0  0  0  0
 23 22  1  0  0  0  0
 24 23  2  0  0  0  0
 24 25  1  0  0  0  0
 25 20  2  0  0  0  0
 28 23  1  0  0  0  0
 29 24  1  0  0  0  0
 30 25  1  0  0  0  0
M  END
>  <minimizedAffinity>
-5.45908594

$$$$

 OpenBabel03272509063D

 30 32  0  0  0  0  0  0  0  0999 V2000
   37.1620   27.4000   34.8590 C   0  0  0  0  0  3  0  0  0  0  0  0
   38.4060   27.1200   34.5680 C   0  0  0  0  0  3  0  0  0  0  0  0
   35.9120   29.0480   31.8400 C   0  0  0  0  0  0  0  0  0  0  0  0
   35.0810   30.0460   32.3850 C   0  0  0  0  0  0  0  0  0  0  0  0
   34.9730   30.1260   33.7880 C   0  0  0  0  0  0  0  0  0  0  0  0
   35.6760   29.2350   34.5280 N   0  0  0  0  0  0  0  0  0  0  0  0
   36.4610   28.2910   33.9730 C   0  0  0  0  0  0  0  0  0  0  0  0
   36.5650   28.2150   32.6280 N   0  0  0  0  0  0  0  0  0  0  0  0
   35.9730   29.0140   30.7630 H   0  0  0  0  0  0  0  0  0  0  0  0
   34.5160   30.7610   31.8360 H   0  0  0  0  0  0  0  0  0  0  0  0
   34.1450   31.1150   34.5260 C   0  0  0  0  0  3  0  0  0  0  0  0
   33.2780   30.4560   35.5730 C   0  0  0  0  0  2  0  0  0  0  0  0
   32.6090   31.6100   36.3300 C   0  0  0  0  0  2  0  0  0  0  0  0
   33.6040   32.3310   37.2040 C   0  0  0  0  0  2  0  0  0  0  0  0
   34.9850   31.9520   36.7470 C   0  0  0  0  0  2  0  0  0  0  0  0
   35.0150   32.1430   35.2360 C   0  0  0  0  0  2  0  0  0  0  0  0
   39.3320   26.2430   35.3100 C   0  0  0  0  0  0  0  0  0  0  0  0
   39.5670   26.7420   36.2850 H   0  0  0  0  0  0  0  0  0  0  0  0
   40.2940   26.0730   34.7830 H   0  0  0  0  0  0  0  0  0  0  0  0
   38.7300   24.9140   35.6280 C   0  0  0  0  0  0  0  0  0  0  0  0
   38.1990   24.5620   36.8420 C   0  0  0  0  0  0  0  0  0  0  0  0
   37.6650   23.3050   37.0370 C   0  0  0  0  0  0  0  0  0  0  0  0
   37.6520   22.3590   35.9940 C   0  0  0  0  0  0  0  0  0  0  0  0
   38.1800   22.7040   34.7820 C   0  0  0  0  0  0  0  0  0  0  0  0
   38.7110   23.9730   34.6070 C   0  0  0  0  0  0  0  0  0  0  0  0
   38.2310   25.3240   37.6160 H   0  0  0  0  0  0  0  0  0  0  0  0
   37.2670   23.0920   38.0070 H   0  0  0  0  0  0  0  0  0  0  0  0
   37.2110   21.4200   36.2660 H   0  0  0  0  0  0  0  0  0  0  0  0
   38.1590   21.9620   33.9950 H   0  0  0  0  0  0  0  0  0  0  0  0
   39.1160   24.1830   33.6150 H   0  0  0  0  0  0  0  0  0  0  0  0
  2  1  2  0  0  0  0
  2 17  1  0  0  0  0
  3  4  2  0  0  0  0
  3  8  1  0  0  0  0
  4  5  1  0  0  0  0
  5 11  1  0  0  0  0
  5  6  2  0  0  0  0
  7  6  1  0  0  0  0
  7  1  1  0  0  0  0
  8  7  2  0  0  0  0
  9  3  1  0  0  0  0
 10  4  1  0  0  0  0
 11 16  1  0  0  0  0
 11 12  1  0  0  0  0
 12 13  1  0  0  0  0
 13 14  1  0  0  0  0
 15 14  1  0  0  0  0
 16 15  1  0  0  0  0
 17 20  1  0  0  0  0
 17 18  1  0  0  0  0
 19 17  1  0  0  0  0
 20 21  1  0  0  0  0
 21 22  2  0  0  0  0
 21 26  1  0  0  0  0
 22 27  1  0  0  0  0
 23 28  1  0  0  0  0
 23 22  1  0  0  0  0
 24 23  2  0  0  0  0
 25 24  1  0  0  0  0
 25 20  2  0  0  0  0
 29 24  1  0  0  0  0
 30 25  1  0  0  0  0
M  END
>  <minimizedAffinity>
-5.40169334

$$$$

 OpenBabel03272509063D

 30 32  0  0  0  0  0  0  0  0999 V2000
   38.8430   25.8560   33.9670 C   0  0  0  0  0  3  0  0  0  0  0  0
   38.1090   26.1500   32.9250 C   0  0  0  0  0  3  0  0  0  0  0  0
   38.4620   23.3460   36.6030 C   0  0  0  0  0  0  0  0  0  0  0  0
   37.9350   22.2560   35.8820 C   0  0  0  0  0  0  0  0  0  0  0  0
   37.7230   22.4170   34.4980 C   0  0  0  0  0  0  0  0  0  0  0  0
   38.0390   23.6120   33.9440 N   0  0  0  0  0  0  0  0  0  0  0  0
   38.5420   24.6340   34.6640 C   0  0  0  0  0  0  0  0  0  0  0  0
   38.7460   24.4800   35.9900 N   0  0  0  0  0  0  0  0  0  0  0  0
   38.6130   23.1900   37.6600 H   0  0  0  0  0  0  0  0  0  0  0  0
   37.6760   21.3060   36.2830 H   0  0  0  0  0  0  0  0  0  0  0  0
   37.1760   21.3740   33.5920 C   0  0  0  0  0  3  0  0  0  0  0  0
   35.9170   20.7490   34.1450 C   0  0  0  0  0  2  0  0  0  0  0  0
   35.4090   19.8150   33.0400 C   0  0  0  0  0  2  0  0  0  0  0  0
   34.8440   20.6030   31.8840 C   0  0  0  0  0  2  0  0  0  0  0  0
   35.3270   22.0220   32.0090 C   0  0  0  0  0  2  0  0  0  0  0  0
   36.8330   21.9540   32.2260 C   0  0  0  0  0  2  0  0  0  0  0  0
   38.2160   27.3330   32.0500 C   0  0  0  0  0  0  0  0  0  0  0  0
   38.2320   26.9740   30.9890 H   0  0  0  0  0  0  0  0  0  0  0  0
   39.1440   27.9210   32.2160 H   0  0  0  0  0  0  0  0  0  0  0  0
   37.0480   28.2530   32.1870 C   0  0  0  0  0  0  0  0  0  0  0  0
   36.2730   28.3770   33.3100 C   0  0  0  0  0  0  0  0  0  0  0  0
   35.2110   29.2580   33.3380 C   0  0  0  0  0  0  0  0  0  0  0  0
   34.9030   30.0480   32.2140 C   0  0  0  0  0  0  0  0  0  0  0  0
   35.6720   29.9290   31.0910 C   0  0  0  0  0  0  0  0  0  0  0  0
   36.7340   29.0380   31.0840 C   0  0  0  0  0  0  0  0  0  0  0  0
   36.5480   27.7480   34.1520 H   0  0  0  0  0  0  0  0  0  0  0  0
   34.6460   29.3080   34.2440 H   0  0  0  0  0  0  0  0  0  0  0  0
   34.0580   30.6940   32.3560 H   0  0  0  0  0  0  0  0  0  0  0  0
   35.4170   30.5450   30.2390 H   0  0  0  0  0  0  0  0  0  0  0  0
   37.3070   28.9920   30.1560 H   0  0  0  0  0  0  0  0  0  0  0  0
  1  7  1  0  0  0  0
  2  1  2  0  0  0  0
  3  9  1  0  0  0  0
  4 10  1  0  0  0  0
  4  3  2  0  0  0  0
  5  4  1  0  0  0  0
  6  5  2  0  0  0  0
  6  7  1  0  0  0  0
  7  8  2  0  0  0  0
  8  3  1  0  0  0  0
 11 12  1  0  0  0  0
 11  5  1  0  0  0  0
 13 12  1  0  0  0  0
 14 15  1  0  0  0  0
 14 13  1  0  0  0  0
 15 16  1  0  0  0  0
 16 11  1  0  0  0  0
 17 20  1  0  0  0  0
 17 19  1  0  0  0  0
 17  2  1  0  0  0  0
 18 17  1  0  0  0  0
 20 21  1  0  0  0  0
 21 22  2  0  0  0  0
 21 26  1  0  0  0  0
 22 27  1  0  0  0  0
 23 28  1  0  0  0  0
 23 22  1  0  0  0  0
 24 23  2  0  0  0  0
 25 24  1  0  0  0  0
 25 20  2  0  0  0  0
 29 24  1  0  0  0  0
 30 25  1  0  0  0  0
M  END
>  <minimizedAffinity>
-5.35150623

$$$$

 OpenBabel03272509063D

 30 32  0  0  0  0  0  0  0  0999 V2000
   38.0210   26.2710   35.4550 C   0  0  0  0  0  3  0  0  0  0  0  0
   37.0700   26.6920   34.6620 C   0  0  0  0  0  3  0  0  0  0  0  0
   38.9050   22.9410   36.6890 C   0  0  0  0  0  0  0  0  0  0  0  0
   38.5970   22.1350   35.5750 C   0  0  0  0  0  0  0  0  0  0  0  0
   38.0900   22.7650   34.4200 C   0  0  0  0  0  0  0  0  0  0  0  0
   37.9280   24.1100   34.4530 N   0  0  0  0  0  0  0  0  0  0  0  0
   38.2320   24.8500   35.5370 C   0  0  0  0  0  0  0  0  0  0  0  0
   38.7190   24.2470   36.6430 N   0  0  0  0  0  0  0  0  0  0  0  0
   39.2910   22.4280   37.5560 H   0  0  0  0  0  0  0  0  0  0  0  0
   38.7120   21.0800   35.5130 H   0  0  0  0  0  0  0  0  0  0  0  0
   37.7160   22.0680   33.1620 C   0  0  0  0  0  3  0  0  0  0  0  0
   36.5180   21.1670   33.3500 C   0  0  0  0  0  2  0  0  0  0  0  0
   36.1780   20.6470   31.9490 C   0  0  0  0  0  2  0  0  0  0  0  0
   35.5750   21.7370   31.0990 C   0  0  0  0  0  2  0  0  0  0  0  0
   35.8760   23.0570   31.7550 C   0  0  0  0  0  2  0  0  0  0  0  0
   37.3680   23.0630   32.0630 C   0  0  0  0  0  2  0  0  0  0  0  0
   36.6590   28.0860   34.4050 C   0  0  0  0  0  0  0  0  0  0  0  0
   37.4140   28.7590   34.8850 H   0  0  0  0  0  0  0  0  0  0  0  0
   35.6670   28.3380   34.8360 H   0  0  0  0  0  0  0  0  0  0  0  0
   36.6350   28.4170   32.9490 C   0  0  0  0  0  0  0  0  0  0  0  0
   35.9210   29.4440   32.3880 C   0  0  0  0  0  0  0  0  0  0  0  0
   35.9650   29.6700   31.0280 C   0  0  0  0  0  0  0  0  0  0  0  0
   36.7420   28.8490   30.1880 C   0  0  0  0  0  0  0  0  0  0  0  0
   37.4560   27.8240   30.7410 C   0  0  0  0  0  0  0  0  0  0  0  0
   37.3990   27.6150   32.1100 C   0  0  0  0  0  0  0  0  0  0  0  0
   35.3360   30.0490   33.0760 H   0  0  0  0  0  0  0  0  0  0  0  0
   35.3860   30.4870   30.6530 H   0  0  0  0  0  0  0  0  0  0  0  0
   36.6960   29.1230   29.1510 H   0  0  0  0  0  0  0  0  0  0  0  0
   38.0470   27.2070   30.0760 H   0  0  0  0  0  0  0  0  0  0  0  0
   37.9920   26.7790   32.4860 H   0  0  0  0  0  0  0  0  0  0  0  0
  1  7  1  0  0  0  0
  2  1  2  0  0  0  0
  3  9  1  0  0  0  0
  4  3  2  0  0  0  0
  5  6  2  0  0  0  0
  5  4  1  0  0  0  0
  6  7  1  0  0  0  0
  7  8  2  0  0  0  0
  8  3  1  0  0  0  0
 10  4  1  0  0  0  0
 11 12  1  0  0  0  0
 11  5  1  0  0  0  0
 13 12  1  0  0  0  0
 14 15  1  0  0  0  0
 14 13  1  0  0  0  0
 15 16  1  0  0  0  0
 16 11  1  0  0  0  0
 17  2  1  0  0  0  0
 17 19  1  0  0  0  0
 17 18  1  0  0  0  0
 20 17  1  0  0  0  0
 21 20  1  0  0  0  0
 21 26  1  0  0  0  0
 22 21  2  0  0  0  0
 23 24  2  0  0  0  0
 23 22  1  0  0  0  0
 24 25  1  0  0  0  0
 25 30  1  0  0  0  0
 25 20  2  0  0  0  0
 27 22  1  0  0  0  0
 28 23  1  0  0  0  0
 29 24  1  0  0  0  0
M  END
>  <minimizedAffinity>
-5.34306574

$$$$
