
 OpenBabel03262522323D

 24 26  0  0  0  0  0  0  0  0999 V2000
   38.0860   32.1000   49.1300 C   0  0  0  0  0  0  0  0  0  0  0  0
   38.6260   33.1880   49.7580 C   0  0  0  0  0  0  0  0  0  0  0  0
   39.4580   34.1240   49.1910 C   0  0  0  0  0  0  0  0  0  0  0  0
   39.7920   33.9620   47.8520 C   0  0  0  0  0  0  0  0  0  0  0  0
   39.2460   32.8600   47.2080 C   0  0  0  0  0  0  0  0  0  0  0  0
   38.4370   31.9840   47.8270 N   0  0  0  0  0  0  0  0  0  0  0  0
   38.3930   33.3570   50.8120 H   0  0  0  0  0  0  0  0  0  0  0  0
   39.8620   34.9700   49.7300 H   0  0  0  0  0  0  0  0  0  0  0  0
   40.4360   34.6370   47.3120 H   0  0  0  0  0  0  0  0  0  0  0  0
   37.5440   30.4610   50.9570 C   0  0  0  0  0  0  0  0  0  0  0  0
   37.2110   31.1360   49.7630 C   0  0  0  0  0  0  0  0  0  0  0  0
   35.9820   30.8670   49.1570 C   0  0  0  0  0  0  0  0  0  0  0  0
   35.1610   29.9540   49.7590 N   0  0  0  0  0  0  0  0  0  0  0  0
   35.5040   29.3270   50.8930 C   0  0  0  0  0  0  0  0  0  0  0  0
   36.6890   29.5700   51.5020 N   0  0  0  0  0  0  0  0  0  0  0  0
   38.4980   30.6770   51.4190 H   0  0  0  0  0  0  0  0  0  0  0  0
   35.6230   31.3130   48.2560 H   0  0  0  0  0  0  0  0  0  0  0  0
   34.8770   28.6010   51.3930 H   0  0  0  0  0  0  0  0  0  0  0  0
   39.6020   32.6820   45.7690 C   0  0  0  0  0  0  0  0  0  0  0  0
   40.5860   31.5740   45.5450 C   0  0  0  0  0  0  0  0  0  0  0  0
   40.3380   30.9420   44.1920 C   0  0  0  0  0  0  0  0  0  0  0  0
   39.9850   32.0580   43.2230 C   0  0  0  0  0  0  0  0  0  0  0  0
   38.5650   32.4750   43.5050 C   0  0  0  0  0  0  0  0  0  0  0  0
   38.3050   32.4510   44.9930 C   0  0  0  0  0  0  0  0  0  0  0  0
  1  2  1  0  0  0  0
  1 11  1  0  0  0  0
  2  7  1  0  0  0  0
  3  8  1  0  0  0  0
  3  2  2  0  0  0  0
  4  3  1  0  0  0  0
  5  6  1  0  0  0  0
  5  4  2  0  0  0  0
  6  1  2  0  0  0  0
  9  4  1  0  0  0  0
 10 16  1  0  0  0  0
 10 15  1  0  0  0  0
 11 10  2  0  0  0  0
 12 13  2  0  0  0  0
 12 11  1  0  0  0  0
 13 14  1  0  0  0  0
 14 18  1  0  0  0  0
 14 15  2  0  0  0  0
 17 12  1  0  0  0  0
 19  5  1  0  0  0  0
 20 19  1  0  0  0  0
 21 20  1  0  0  0  0
 22 23  1  0  0  0  0
 22 21  1  0  0  0  0
 23 24  1  0  0  0  0
 24 19  1  0  0  0  0
M  END
>  <minimizedAffinity>
-6.45461559

>  <minimizedRMSD>
0.620910406

$$$$
