
 OpenBabel03272500133D

 18 19  0  0  1  0  0  0  0  0999 V2000
   37.2040   26.1000   32.9180 C   0  0  0  0  0  0  0  0  0  0  0  0
   36.9120   27.3340   33.5240 C   0  0  0  0  0  0  0  0  0  0  0  0
   37.1500   27.4700   34.8940 C   0  0  0  0  0  0  0  0  0  0  0  0
   37.6520   26.3940   35.5650 N   0  0  0  0  0  0  0  0  0  0  0  0
   37.9210   25.2190   34.9500 C   0  0  0  0  0  0  0  0  0  0  0  0
   37.7010   25.0710   33.6430 N   0  0  0  0  0  0  0  0  0  0  0  0
   37.0400   25.9370   31.8580 H   0  0  0  0  0  0  0  0  0  0  0  0
   36.9210   28.4140   35.3310 H   0  0  0  0  0  0  0  0  0  0  0  0
   38.4660   24.1250   35.7970 C   0  0  1  0  0  3  0  0  0  0  0  0
   39.9520   23.9790   35.7250 C   0  0  0  0  0  2  0  0  0  0  0  0
   40.2660   22.7060   36.4790 C   0  0  0  0  0  2  0  0  0  0  0  0
   39.8270   22.7200   37.8950 C   0  0  0  0  0  3  0  0  0  0  0  0
   38.6210   23.5070   38.2320 C   0  0  0  0  0  3  0  0  0  0  0  0
   38.1070   24.4520   37.2250 C   0  0  0  0  0  2  0  0  0  0  0  0
   36.3640   28.4260   32.6600 C   0  0  0  0  0  0  0  0  0  0  0  0
   35.1770   27.9970   32.0400 F   0  0  0  0  0  0  0  0  0  0  0  0
   36.0230   29.4770   33.4820 F   0  0  0  0  0  0  0  0  0  0  0  0
   37.2290   28.8500   31.6890 F   0  0  0  0  0  0  0  0  0  0  0  0
  1  2  2  0  0  0  0
  1  6  1  0  0  0  0
  2  3  1  0  0  0  0
  3  8  1  0  0  0  0
  3  4  2  0  0  0  0
  5  4  1  0  0  0  0
  6  5  2  0  0  0  0
  7  1  1  0  0  0  0
  9  5  1  6  0  0  0
  9 14  1  0  0  0  0
 10  9  1  0  0  0  0
 10 11  1  0  0  0  0
 11 12  1  0  0  0  0
 12 13  2  0  0  0  0
 14 13  1  0  0  0  0
 15 17  1  0  0  0  0
 15  2  1  0  0  0  0
 16 15  1  0  0  0  0
 18 15  1  0  0  0  0
M  END
>  <minimizedAffinity>
-4.77509356

$$$$

 OpenBabel03272500133D

 18 19  0  0  1  0  0  0  0  0999 V2000
   36.8770   27.6770   34.2200 C   0  0  0  0  0  0  0  0  0  0  0  0
   36.7190   27.0400   32.9770 C   0  0  0  0  0  0  0  0  0  0  0  0
   37.1770   25.7280   32.8440 C   0  0  0  0  0  0  0  0  0  0  0  0
   37.7520   25.1390   33.9320 N   0  0  0  0  0  0  0  0  0  0  0  0
   37.8880   25.7810   35.1150 C   0  0  0  0  0  0  0  0  0  0  0  0
   37.4570   27.0340   35.2600 N   0  0  0  0  0  0  0  0  0  0  0  0
   36.5410   28.6950   34.3820 H   0  0  0  0  0  0  0  0  0  0  0  0
   37.0470   25.2660   31.8930 H   0  0  0  0  0  0  0  0  0  0  0  0
   38.5330   25.0240   36.2210 C   0  0  1  0  0  3  0  0  0  0  0  0
   37.5840   24.2010   37.0320 C   0  0  0  0  0  2  0  0  0  0  0  0
   38.3950   23.6930   38.2030 C   0  0  0  0  0  2  0  0  0  0  0  0
   39.5690   22.8760   37.8140 C   0  0  0  0  0  3  0  0  0  0  0  0
   40.2330   23.1930   36.5320 C   0  0  0  0  0  3  0  0  0  0  0  0
   39.5300   24.0840   35.5910 C   0  0  0  0  0  2  0  0  0  0  0  0
   36.0690   27.8140   31.8730 C   0  0  0  0  0  0  0  0  0  0  0  0
   34.8270   28.3110   32.3030 F   0  0  0  0  0  0  0  0  0  0  0  0
   36.8630   28.9080   31.6080 F   0  0  0  0  0  0  0  0  0  0  0  0
   35.8720   27.0890   30.7300 F   0  0  0  0  0  0  0  0  0  0  0  0
  1  7  1  0  0  0  0
  1  6  1  0  0  0  0
  2  1  2  0  0  0  0
  3  2  1  0  0  0  0
  3  4  2  0  0  0  0
  4  5  1  0  0  0  0
  5  6  2  0  0  0  0
  8  3  1  0  0  0  0
  9  5  1  6  0  0  0
  9 10  1  0  0  0  0
 10 11  1  0  0  0  0
 12 11  1  0  0  0  0
 13 12  2  0  0  0  0
 14  9  1  0  0  0  0
 14 13  1  0  0  0  0
 15 16  1  0  0  0  0
 15  2  1  0  0  0  0
 17 15  1  0  0  0  0
 18 15  1  0  0  0  0
M  END
>  <minimizedAffinity>
-4.77283764

$$$$

 OpenBabel03272500133D

 18 19  0  0  1  0  0  0  0  0999 V2000
   38.1380   25.8750   36.6500 C   0  0  0  0  0  0  0  0  0  0  0  0
   38.1990   24.4740   36.7510 C   0  0  0  0  0  0  0  0  0  0  0  0
   38.1750   23.7250   35.5720 C   0  0  0  0  0  0  0  0  0  0  0  0
   38.0940   24.3980   34.3890 N   0  0  0  0  0  0  0  0  0  0  0  0
   38.0360   25.7490   34.3270 C   0  0  0  0  0  0  0  0  0  0  0  0
   38.0580   26.4800   35.4420 N   0  0  0  0  0  0  0  0  0  0  0  0
   38.1520   26.5070   37.5300 H   0  0  0  0  0  0  0  0  0  0  0  0
   38.2220   22.6650   35.6740 H   0  0  0  0  0  0  0  0  0  0  0  0
   37.9500   26.3580   32.9740 C   0  0  1  0  0  3  0  0  0  0  0  0
   37.1590   27.6260   32.9240 C   0  0  0  0  0  2  0  0  0  0  0  0
   37.0230   27.9560   31.4540 C   0  0  0  0  0  2  0  0  0  0  0  0
   38.3180   28.1400   30.7560 C   0  0  0  0  0  3  0  0  0  0  0  0
   39.4760   27.3590   31.2400 C   0  0  0  0  0  3  0  0  0  0  0  0
   39.3590   26.6820   32.5440 C   0  0  0  0  0  2  0  0  0  0  0  0
   38.2850   23.8750   38.1190 C   0  0  0  0  0  0  0  0  0  0  0  0
   38.0320   24.8600   39.0900 F   0  0  0  0  0  0  0  0  0  0  0  0
   37.2760   22.9430   38.2300 F   0  0  0  0  0  0  0  0  0  0  0  0
   39.4920   23.2960   38.3950 F   0  0  0  0  0  0  0  0  0  0  0  0
  1  2  1  0  0  0  0
  1  7  1  0  0  0  0
  2 15  1  0  0  0  0
  3  8  1  0  0  0  0
  3  2  2  0  0  0  0
  4  3  1  0  0  0  0
  5  4  2  0  0  0  0
  5  6  1  0  0  0  0
  6  1  2  0  0  0  0
  9  5  1  1  0  0  0
 10  9  1  0  0  0  0
 11 10  1  0  0  0  0
 12 13  2  0  0  0  0
 12 11  1  0  0  0  0
 13 14  1  0  0  0  0
 14  9  1  0  0  0  0
 15 17  1  0  0  0  0
 15 18  1  0  0  0  0
 15 16  1  0  0  0  0
M  END
>  <minimizedAffinity>
-4.76588392

$$$$

 OpenBabel03272500133D

 18 19  0  0  1  0  0  0  0  0999 V2000
   35.4990   25.8450   31.2290 C   0  0  0  0  0  0  0  0  0  0  0  0
   36.5010   26.1960   32.1490 C   0  0  0  0  0  0  0  0  0  0  0  0
   37.2590   25.1740   32.7240 C   0  0  0  0  0  0  0  0  0  0  0  0
   36.9820   23.8900   32.3570 N   0  0  0  0  0  0  0  0  0  0  0  0
   36.0090   23.5850   31.4670 C   0  0  0  0  0  0  0  0  0  0  0  0
   35.2750   24.5490   30.9090 N   0  0  0  0  0  0  0  0  0  0  0  0
   34.8790   26.5950   30.7510 H   0  0  0  0  0  0  0  0  0  0  0  0
   38.0130   25.4650   33.4190 H   0  0  0  0  0  0  0  0  0  0  0  0
   35.8090   22.1450   31.1540 C   0  0  1  0  0  3  0  0  0  0  0  0
   37.0790   21.3760   30.9810 C   0  0  0  0  0  2  0  0  0  0  0  0
   36.6570   20.0160   30.4730 C   0  0  0  0  0  2  0  0  0  0  0  0
   35.7460   19.2870   31.3870 C   0  0  0  0  0  3  0  0  0  0  0  0
   34.8250   20.0890   32.2210 C   0  0  0  0  0  3  0  0  0  0  0  0
   35.0630   21.5390   32.3170 C   0  0  0  0  0  2  0  0  0  0  0  0
   36.6900   27.6490   32.4550 C   0  0  0  0  0  0  0  0  0  0  0  0
   37.0250   27.8140   33.8110 F   0  0  0  0  0  0  0  0  0  0  0  0
   37.7710   28.0900   31.7240 F   0  0  0  0  0  0  0  0  0  0  0  0
   35.5940   28.4190   32.1840 F   0  0  0  0  0  0  0  0  0  0  0  0
  1  2  1  0  0  0  0
  2 15  1  0  0  0  0
  2  3  2  0  0  0  0
  3  8  1  0  0  0  0
  4  3  1  0  0  0  0
  5  4  2  0  0  0  0
  6  1  2  0  0  0  0
  6  5  1  0  0  0  0
  7  1  1  0  0  0  0
  9  5  1  1  0  0  0
  9 14  1  0  0  0  0
 10  9  1  0  0  0  0
 11 10  1  0  0  0  0
 11 12  1  0  0  0  0
 12 13  2  0  0  0  0
 13 14  1  0  0  0  0
 15 16  1  0  0  0  0
 17 15  1  0  0  0  0
 18 15  1  0  0  0  0
M  END
>  <minimizedAffinity>
-4.73244715

$$$$

 OpenBabel03272500133D

 18 19  0  0  1  0  0  0  0  0999 V2000
   37.1300   27.2840   34.6890 C   0  0  0  0  0  0  0  0  0  0  0  0
   36.9420   27.0630   33.3140 C   0  0  0  0  0  0  0  0  0  0  0  0
   37.3150   25.8240   32.7880 C   0  0  0  0  0  0  0  0  0  0  0  0
   37.8400   24.8990   33.6410 N   0  0  0  0  0  0  0  0  0  0  0  0
   38.0080   25.1450   34.9610 C   0  0  0  0  0  0  0  0  0  0  0  0
   37.6580   26.3220   35.4810 N   0  0  0  0  0  0  0  0  0  0  0  0
   36.8600   28.2260   35.1530 H   0  0  0  0  0  0  0  0  0  0  0  0
   37.1620   25.6790   31.7430 H   0  0  0  0  0  0  0  0  0  0  0  0
   38.5930   24.0510   35.7810 C   0  0  1  0  0  3  0  0  0  0  0  0
   40.0820   23.9520   35.6930 C   0  0  0  0  0  2  0  0  0  0  0  0
   40.4410   22.6740   36.4180 C   0  0  0  0  0  2  0  0  0  0  0  0
   40.0150   22.6460   37.8370 C   0  0  0  0  0  3  0  0  0  0  0  0
   38.7900   23.3890   38.2010 C   0  0  0  0  0  3  0  0  0  0  0  0
   38.2380   24.3380   37.2190 C   0  0  0  0  0  2  0  0  0  0  0  0
   36.3530   28.1730   32.5010 C   0  0  0  0  0  0  0  0  0  0  0  0
   36.2080   29.3230   33.2960 F   0  0  0  0  0  0  0  0  0  0  0  0
   37.2570   28.4880   31.5100 F   0  0  0  0  0  0  0  0  0  0  0  0
   35.1380   27.8720   31.9510 F   0  0  0  0  0  0  0  0  0  0  0  0
  1  7  1  0  0  0  0
  1  6  1  0  0  0  0
  2  1  2  0  0  0  0
  3  2  1  0  0  0  0
  3  4  2  0  0  0  0
  4  5  1  0  0  0  0
  5  6  2  0  0  0  0
  8  3  1  0  0  0  0
  9  5  1  6  0  0  0
  9 14  1  0  0  0  0
 10  9  1  0  0  0  0
 10 11  1  0  0  0  0
 11 12  1  0  0  0  0
 12 13  2  0  0  0  0
 14 13  1  0  0  0  0
 15 16  1  0  0  0  0
 15  2  1  0  0  0  0
 17 15  1  0  0  0  0
 18 15  1  0  0  0  0
M  END
>  <minimizedAffinity>
-4.72757483

$$$$

 OpenBabel03272500133D

 18 19  0  0  1  0  0  0  0  0999 V2000
   38.1490   26.1620   36.8140 C   0  0  0  0  0  0  0  0  0  0  0  0
   38.1490   24.7590   36.7320 C   0  0  0  0  0  0  0  0  0  0  0  0
   38.1490   24.1710   35.4650 C   0  0  0  0  0  0  0  0  0  0  0  0
   38.1480   24.9950   34.3780 N   0  0  0  0  0  0  0  0  0  0  0  0
   38.1480   26.3430   34.4930 C   0  0  0  0  0  0  0  0  0  0  0  0
   38.1480   26.9220   35.6940 N   0  0  0  0  0  0  0  0  0  0  0  0
   38.1480   26.6740   37.7700 H   0  0  0  0  0  0  0  0  0  0  0  0
   38.1490   23.1060   35.4280 H   0  0  0  0  0  0  0  0  0  0  0  0
   38.1480   27.1260   33.2280 C   0  0  1  0  0  3  0  0  0  0  0  0
   38.2320   26.2890   31.9920 C   0  0  0  0  0  2  0  0  0  0  0  0
   38.4260   27.2700   30.8580 C   0  0  0  0  0  2  0  0  0  0  0  0
   37.3320   28.2610   30.7240 C   0  0  0  0  0  3  0  0  0  0  0  0
   36.6270   28.6770   31.9560 C   0  0  0  0  0  3  0  0  0  0  0  0
   36.8440   27.8840   33.1780 C   0  0  0  0  0  2  0  0  0  0  0  0
   38.1490   23.9840   38.0120 C   0  0  0  0  0  0  0  0  0  0  0  0
   39.4050   23.3840   38.2100 F   0  0  0  0  0  0  0  0  0  0  0  0
   37.9730   24.8820   39.0420 F   0  0  0  0  0  0  0  0  0  0  0  0
   37.1910   23.0100   38.0700 F   0  0  0  0  0  0  0  0  0  0  0  0
  1  7  1  0  0  0  0
  2  1  1  0  0  0  0
  2 15  1  0  0  0  0
  3  2  2  0  0  0  0
  4  5  2  0  0  0  0
  4  3  1  0  0  0  0
  5  6  1  0  0  0  0
  6  1  2  0  0  0  0
  8  3  1  0  0  0  0
  9  5  1  1  0  0  0
 10  9  1  0  0  0  0
 11 10  1  0  0  0  0
 12 11  1  0  0  0  0
 12 13  2  0  0  0  0
 13 14  1  0  0  0  0
 14  9  1  0  0  0  0
 15 18  1  0  0  0  0
 15 16  1  0  0  0  0
 15 17  1  0  0  0  0
M  END
>  <minimizedAffinity>
-4.72183371

$$$$

 OpenBabel03272500133D

 18 19  0  0  1  0  0  0  0  0999 V2000
   38.1430   22.7650   36.1290 C   0  0  0  0  0  0  0  0  0  0  0  0
   38.1390   23.9240   36.9250 C   0  0  0  0  0  0  0  0  0  0  0  0
   38.0880   25.1640   36.2860 C   0  0  0  0  0  0  0  0  0  0  0  0
   38.0440   25.1800   34.9230 N   0  0  0  0  0  0  0  0  0  0  0  0
   38.0490   24.0450   34.1860 C   0  0  0  0  0  0  0  0  0  0  0  0
   38.0980   22.8520   34.7790 N   0  0  0  0  0  0  0  0  0  0  0  0
   38.1820   21.7750   36.5690 H   0  0  0  0  0  0  0  0  0  0  0  0
   38.0860   26.0280   36.9110 H   0  0  0  0  0  0  0  0  0  0  0  0
   37.9980   24.2020   32.7080 C   0  0  1  0  0  3  0  0  0  0  0  0
   39.1280   24.9980   32.1400 C   0  0  0  0  0  2  0  0  0  0  0  0
   38.7760   25.2090   30.6840 C   0  0  0  0  0  2  0  0  0  0  0  0
   38.6070   23.9520   29.9170 C   0  0  0  0  0  3  0  0  0  0  0  0
   38.0980   22.7680   30.6420 C   0  0  0  0  0  3  0  0  0  0  0  0
   38.0710   22.8170   32.1140 C   0  0  0  0  0  2  0  0  0  0  0  0
   38.1920   23.7510   38.4110 C   0  0  0  0  0  0  0  0  0  0  0  0
   39.4890   23.3800   38.8050 F   0  0  0  0  0  0  0  0  0  0  0  0
   37.9400   24.9790   38.9820 F   0  0  0  0  0  0  0  0  0  0  0  0
   37.3120   22.8200   38.8910 F   0  0  0  0  0  0  0  0  0  0  0  0
  1  7  1  0  0  0  0
  1  2  1  0  0  0  0
  2 15  1  0  0  0  0
  3  8  1  0  0  0  0
  3  2  2  0  0  0  0
  4  3  1  0  0  0  0
  5  6  1  0  0  0  0
  5  4  2  0  0  0  0
  6  1  2  0  0  0  0
  9  5  1  1  0  0  0
 10  9  1  0  0  0  0
 11 10  1  0  0  0  0
 12 13  2  0  0  0  0
 12 11  1  0  0  0  0
 13 14  1  0  0  0  0
 14  9  1  0  0  0  0
 15 16  1  0  0  0  0
 15 18  1  0  0  0  0
 15 17  1  0  0  0  0
M  END
>  <minimizedAffinity>
-4.63365555

$$$$

 OpenBabel03272500133D

 18 19  0  0  1  0  0  0  0  0999 V2000
   38.3980   24.2950   36.6870 C   0  0  0  0  0  0  0  0  0  0  0  0
   39.6160   23.8050   36.1860 C   0  0  0  0  0  0  0  0  0  0  0  0
   40.0370   24.2430   34.9290 C   0  0  0  0  0  0  0  0  0  0  0  0
   39.2400   25.1230   34.2590 N   0  0  0  0  0  0  0  0  0  0  0  0
   38.0720   25.5760   34.7710 C   0  0  0  0  0  0  0  0  0  0  0  0
   37.6540   25.1690   35.9690 N   0  0  0  0  0  0  0  0  0  0  0  0
   38.0210   23.9910   37.6570 H   0  0  0  0  0  0  0  0  0  0  0  0
   40.9640   23.8570   34.5690 H   0  0  0  0  0  0  0  0  0  0  0  0
   37.2980   26.5340   33.9370 C   0  0  1  0  0  3  0  0  0  0  0  0
   36.9380   27.8030   34.6410 C   0  0  0  0  0  2  0  0  0  0  0  0
   35.9960   28.5260   33.7040 C   0  0  0  0  0  2  0  0  0  0  0  0
   36.5820   28.8320   32.3780 C   0  0  0  0  0  3  0  0  0  0  0  0
   37.5920   27.8960   31.8400 C   0  0  0  0  0  3  0  0  0  0  0  0
   38.1670   26.8960   32.7580 C   0  0  0  0  0  2  0  0  0  0  0  0
   40.3840   22.8410   37.0350 C   0  0  0  0  0  0  0  0  0  0  0  0
   40.0100   22.9860   38.3830 F   0  0  0  0  0  0  0  0  0  0  0  0
   40.0160   21.5680   36.6570 F   0  0  0  0  0  0  0  0  0  0  0  0
   41.7410   22.9840   36.9460 F   0  0  0  0  0  0  0  0  0  0  0  0
  1  7  1  0  0  0  0
  2  1  1  0  0  0  0
  2 15  1  0  0  0  0
  3  2  2  0  0  0  0
  4  5  2  0  0  0  0
  4  3  1  0  0  0  0
  5  6  1  0  0  0  0
  6  1  2  0  0  0  0
  8  3  1  0  0  0  0
  9 10  1  0  0  0  0
  9  5  1  1  0  0  0
 11 10  1  0  0  0  0
 12 11  1  0  0  0  0
 13 12  2  0  0  0  0
 13 14  1  0  0  0  0
 14  9  1  0  0  0  0
 15 16  1  0  0  0  0
 17 15  1  0  0  0  0
 18 15  1  0  0  0  0
M  END
>  <minimizedAffinity>
-4.62158298

$$$$

 OpenBabel03272500133D

 18 19  0  0  1  0  0  0  0  0999 V2000
   38.4580   25.9580   32.4540 C   0  0  0  0  0  0  0  0  0  0  0  0
   37.6440   27.0800   32.6810 C   0  0  0  0  0  0  0  0  0  0  0  0
   37.0720   27.2360   33.9450 C   0  0  0  0  0  0  0  0  0  0  0  0
   37.3380   26.2890   34.8890 N   0  0  0  0  0  0  0  0  0  0  0  0
   38.1270   25.2180   34.6370 C   0  0  0  0  0  0  0  0  0  0  0  0
   38.6810   25.0530   33.4360 N   0  0  0  0  0  0  0  0  0  0  0  0
   38.9290   25.7840   31.4930 H   0  0  0  0  0  0  0  0  0  0  0  0
   36.4580   28.0950   34.0940 H   0  0  0  0  0  0  0  0  0  0  0  0
   38.3360   24.2590   35.7530 C   0  0  1  0  0  3  0  0  0  0  0  0
   39.7610   23.8470   35.9450 C   0  0  0  0  0  2  0  0  0  0  0  0
   39.7210   22.7340   36.9690 C   0  0  0  0  0  2  0  0  0  0  0  0
   39.1300   23.1320   38.2680 C   0  0  0  0  0  3  0  0  0  0  0  0
   38.0760   24.1690   38.2550 C   0  0  0  0  0  3  0  0  0  0  0  0
   37.8850   24.9460   37.0180 C   0  0  0  0  0  2  0  0  0  0  0  0
   37.4420   28.0370   31.5490 C   0  0  0  0  0  0  0  0  0  0  0  0
   38.6600   28.2560   30.8820 F   0  0  0  0  0  0  0  0  0  0  0  0
   36.5970   27.4360   30.6410 F   0  0  0  0  0  0  0  0  0  0  0  0
   36.9350   29.2480   31.9310 F   0  0  0  0  0  0  0  0  0  0  0  0
  1  2  2  0  0  0  0
  1  6  1  0  0  0  0
  2  3  1  0  0  0  0
  3  8  1  0  0  0  0
  3  4  2  0  0  0  0
  5  4  1  0  0  0  0
  6  5  2  0  0  0  0
  7  1  1  0  0  0  0
  9  5  1  6  0  0  0
  9 10  1  0  0  0  0
  9 14  1  0  0  0  0
 10 11  1  0  0  0  0
 11 12  1  0  0  0  0
 13 12  2  0  0  0  0
 14 13  1  0  0  0  0
 15 18  1  0  0  0  0
 15  2  1  0  0  0  0
 16 15  1  0  0  0  0
 17 15  1  0  0  0  0
M  END
>  <minimizedAffinity>
-4.57989311

$$$$
