
 OpenBabel03272510203D

 33 36  0  0  0  0  0  0  0  0999 V2000
   37.3490   29.1640   50.8170 Br  0  0  0  0  0  0  0  0  0  0  0  0
   35.9800   29.3000   49.4960 C   0  0  0  0  0  0  0  0  0  0  0  0
   36.0100   30.3360   48.5520 C   0  0  0  0  0  0  0  0  0  0  0  0
   34.9830   30.3710   47.6240 C   0  0  0  0  0  0  0  0  0  0  0  0
   33.9560   29.4380   47.6030 C   0  0  0  0  0  0  0  0  0  0  0  0
   33.9640   28.4490   48.5380 C   0  0  0  0  0  0  0  0  0  0  0  0
   34.9740   28.3930   49.4710 C   0  0  0  0  0  0  0  0  0  0  0  0
   34.9460   31.1420   46.8690 H   0  0  0  0  0  0  0  0  0  0  0  0
   33.1680   27.7160   48.5320 H   0  0  0  0  0  0  0  0  0  0  0  0
   34.9280   27.5800   50.1930 H   0  0  0  0  0  0  0  0  0  0  0  0
   37.9710   33.2230   49.5810 C   0  0  0  0  0  0  0  0  0  0  0  0
   39.0410   33.2450   48.6450 C   0  0  0  0  0  0  0  0  0  0  0  0
   39.0630   32.2590   47.6740 C   0  0  0  0  0  0  0  0  0  0  0  0
   38.0710   31.3150   47.6520 N   0  0  0  0  0  0  0  0  0  0  0  0
   37.0740   31.3240   48.5520 C   0  0  0  0  0  0  0  0  0  0  0  0
   37.0310   32.2820   49.5150 N   0  0  0  0  0  0  0  0  0  0  0  0
   37.8720   33.9500   50.3700 H   0  0  0  0  0  0  0  0  0  0  0  0
   39.7360   34.0410   48.7910 H   0  0  0  0  0  0  0  0  0  0  0  0
   39.8710   32.2910   46.9830 H   0  0  0  0  0  0  0  0  0  0  0  0
   32.8820   29.4810   46.6290 C   0  0  0  0  0  0  0  0  0  0  0  0
   32.0020   28.4380   46.3870 C   0  0  0  0  0  0  0  0  0  0  0  0
   30.9840   28.5300   45.4370 C   0  0  0  0  0  0  0  0  0  0  0  0
   30.8350   29.6490   44.7250 N   0  0  0  0  0  0  0  0  0  0  0  0
   31.6920   30.6690   44.9580 C   0  0  0  0  0  0  0  0  0  0  0  0
   32.6630   30.5670   45.8720 N   0  0  0  0  0  0  0  0  0  0  0  0
   32.1170   27.5260   46.9620 H   0  0  0  0  0  0  0  0  0  0  0  0
   30.3400   27.6530   45.3200 H   0  0  0  0  0  0  0  0  0  0  0  0
   31.5170   31.9060   44.1620 C   0  0  0  0  0  3  0  0  0  0  0  0
   30.2110   31.9060   43.3960 C   0  0  0  0  0  2  0  0  0  0  0  0
   29.7770   33.2840   43.0040 C   0  0  0  0  0  2  0  0  0  0  0  0
   30.9280   34.2510   42.8710 C   0  0  0  0  0  2  0  0  0  0  0  0
   31.8170   34.3220   44.0690 C   0  0  0  0  0  2  0  0  0  0  0  0
   31.5000   33.1610   45.0140 C   0  0  0  0  0  2  0  0  0  0  0  0
  2  1  1  0  0  0  0
  3  2  2  0  0  0  0
  4  3  1  0  0  0  0
  5  4  2  0  0  0  0
  5  6  1  0  0  0  0
  6  7  2  0  0  0  0
  7  2  1  0  0  0  0
  7 10  1  0  0  0  0
  8  4  1  0  0  0  0
  9  6  1  0  0  0  0
 11 17  1  0  0  0  0
 12 18  1  0  0  0  0
 12 11  2  0  0  0  0
 13 12  1  0  0  0  0
 14 13  2  0  0  0  0
 14 15  1  0  0  0  0
 15  3  1  0  0  0  0
 15 16  2  0  0  0  0
 16 11  1  0  0  0  0
 19 13  1  0  0  0  0
 20  5  1  0  0  0  0
 21 20  1  0  0  0  0
 21 26  1  0  0  0  0
 22 21  2  0  0  0  0
 23 24  2  0  0  0  0
 23 22  1  0  0  0  0
 24 25  1  0  0  0  0
 25 20  2  0  0  0  0
 27 22  1  0  0  0  0
 28 24  1  0  0  0  0
 28 33  1  0  0  0  0
 29 28  1  0  0  0  0
 30 29  1  0  0  0  0
 31 30  1  0  0  0  0
 31 32  1  0  0  0  0
 32 33  1  0  0  0  0
M  END
>  <minimizedAffinity>
-6.63711643

>  <minimizedRMSD>
0.784790337

$$$$
