
 OpenBabel03272507453D

 30 32  0  0  0  0  0  0  0  0999 V2000
   35.1260   29.5740   49.1330 N   0  0  0  0  0  0  0  0  0  0  0  0
   35.0560   30.6240   50.1140 C   0  0  0  0  0  0  0  0  0  0  0  0
   36.0600   31.6970   50.0330 C   0  0  0  0  0  0  0  0  0  0  0  0
   37.3520   31.4160   49.3810 C   0  0  0  0  0  0  0  0  0  0  0  0
   37.3070   30.2740   48.3880 C   0  0  0  0  0  0  0  0  0  0  0  0
   36.4980   29.1370   49.0040 C   0  0  0  0  0  0  0  0  0  0  0  0
   34.0360   31.0780   49.9970 H   0  0  0  0  0  0  0  0  0  0  0  0
   35.0400   30.1420   51.1150 H   0  0  0  0  0  0  0  0  0  0  0  0
   35.6240   32.6110   49.5370 H   0  0  0  0  0  0  0  0  0  0  0  0
   36.2650   32.0570   51.0710 H   0  0  0  0  0  0  0  0  0  0  0  0
   38.1140   31.1350   50.1420 H   0  0  0  0  0  0  0  0  0  0  0  0
   38.3200   29.9000   48.1680 H   0  0  0  0  0  0  0  0  0  0  0  0
   36.7330   30.5640   47.4760 H   0  0  0  0  0  0  0  0  0  0  0  0
   36.9770   28.9420   49.9960 H   0  0  0  0  0  0  0  0  0  0  0  0
   36.5690   28.2190   48.3850 H   0  0  0  0  0  0  0  0  0  0  0  0
   34.0070   29.0550   48.4100 C   0  0  0  0  0  0  0  0  0  0  0  0
   33.6900   29.4140   47.0850 C   0  0  0  0  0  0  0  0  0  0  0  0
   32.5600   28.8160   46.5230 C   0  0  0  0  0  0  0  0  0  0  0  0
   31.8430   27.9350   47.2770 N   0  0  0  0  0  0  0  0  0  0  0  0
   32.1900   27.6310   48.5290 C   0  0  0  0  0  0  0  0  0  0  0  0
   33.2580   28.1820   49.0930 N   0  0  0  0  0  0  0  0  0  0  0  0
   34.3440   30.1260   46.6020 H   0  0  0  0  0  0  0  0  0  0  0  0
   32.3430   29.1110   45.5060 H   0  0  0  0  0  0  0  0  0  0  0  0
   31.5430   26.9120   49.0430 H   0  0  0  0  0  0  0  0  0  0  0  0
   37.9150   32.6550   48.6880 C   0  0  0  0  0  0  0  0  0  0  0  0
   38.2680   32.4270   47.2550 C   0  0  0  0  0  0  0  0  0  0  0  0
   39.7390   32.6340   46.9600 C   0  0  0  0  0  0  0  0  0  0  0  0
   40.2660   33.9570   47.4400 C   0  0  0  0  0  0  0  0  0  0  0  0
   39.5890   34.4170   48.6920 C   0  0  0  0  0  0  0  0  0  0  0  0
   39.0520   33.2440   49.5000 C   0  0  0  0  0  0  0  0  0  0  0  0
  1  2  1  0  0  0  0
  2  8  1  0  0  0  0
  3  2  1  0  0  0  0
  3 10  1  0  0  0  0
  4  3  1  0  0  0  0
  4 11  1  0  0  0  0
  5  6  1  0  0  0  0
  5  4  1  0  0  0  0
  6  1  1  0  0  0  0
  6 14  1  0  0  0  0
  7  2  1  0  0  0  0
  9  3  1  0  0  0  0
 12  5  1  0  0  0  0
 13  5  1  0  0  0  0
 15  6  1  0  0  0  0
 16 21  1  0  0  0  0
 16  1  1  0  0  0  0
 17 16  2  0  0  0  0
 18 17  1  0  0  0  0
 18 19  2  0  0  0  0
 19 20  1  0  0  0  0
 20 24  1  0  0  0  0
 20 21  2  0  0  0  0
 22 17  1  0  0  0  0
 23 18  1  0  0  0  0
 25  4  1  0  0  0  0
 25 30  1  0  0  0  0
 26 25  1  0  0  0  0
 27 26  1  0  0  0  0
 27 28  1  0  0  0  0
 28 29  1  0  0  0  0
 29 30  1  0  0  0  0
M  END
>  <minimizedAffinity>
-5.02661324

>  <minimizedRMSD>
2.24745965

$$$$
