
 OpenBabel03272507333D

 33 36  0  0  1  0  0  0  0  0999 V2000
   35.7650   29.1420   49.8150 C   0  0  0  0  0  0  0  0  0  0  0  0
   34.6450   29.5880   50.4770 C   0  0  0  0  0  0  0  0  0  0  0  0
   33.5340   28.9480   49.9060 C   0  0  0  0  0  0  0  0  0  0  0  0
   34.0590   28.1420   48.9190 C   0  0  0  0  0  0  0  0  0  0  0  0
   35.3670   28.2890   48.9020 O   0  0  0  0  0  0  0  0  0  0  0  0
   34.5360   30.2960   51.2950 H   0  0  0  0  0  0  0  0  0  0  0  0
   32.4900   29.0280   50.1420 H   0  0  0  0  0  0  0  0  0  0  0  0
   37.1000   29.6030   50.1520 C   0  0  0  0  0  0  0  0  0  0  0  0
   37.6690   29.1390   51.1520 O   0  0  0  0  0  0  0  0  0  0  0  0
   37.6880   30.5860   49.2880 C   0  0  0  0  0  0  0  0  0  0  0  0
   38.0170   31.8060   49.8450 C   0  0  0  0  0  0  0  0  0  0  0  0
   38.5880   32.7860   49.0350 C   0  0  0  0  0  0  0  0  0  0  0  0
   38.7970   32.4870   47.7030 N   0  0  0  0  0  0  0  0  0  0  0  0
   38.4640   31.2930   47.2000 C   0  0  0  0  0  0  0  0  0  0  0  0
   37.9160   30.3500   47.9760 N   0  0  0  0  0  0  0  0  0  0  0  0
   37.8690   32.0820   50.8940 H   0  0  0  0  0  0  0  0  0  0  0  0
   38.8700   33.7550   49.3930 H   0  0  0  0  0  0  0  0  0  0  0  0
   38.6830   31.1880   46.1370 H   0  0  0  0  0  0  0  0  0  0  0  0
   33.2950   27.2630   48.0330 C   0  0  0  0  0  0  0  0  0  0  0  0
   32.0280   27.2180   48.1780 O   0  0  0  0  0  0  0  0  0  0  0  0
   33.9950   26.4350   46.9950 C   0  0  1  0  0  0  0  0  0  0  0  0
   33.7970   24.9010   47.3260 C   0  0  0  0  0  0  0  0  0  0  0  0
   33.2280   25.5570   46.1250 C   0  0  2  0  0  0  0  0  0  0  0  0
   35.0870   26.6370   46.9840 H   0  0  0  0  0  0  0  0  0  0  0  0
   33.1350   24.6490   48.1540 H   0  0  0  0  0  0  0  0  0  0  0  0
   34.6890   24.2800   47.2720 H   0  0  0  0  0  0  0  0  0  0  0  0
   32.1120   25.7410   46.1820 H   0  0  0  0  0  0  0  0  0  0  0  0
   33.6840   25.0240   44.8250 C   0  0  0  0  0  3  0  0  0  0  0  0
   33.7270   25.9770   43.6710 C   0  0  0  0  0  2  0  0  0  0  0  0
   35.0570   26.6330   43.4550 C   0  0  0  0  0  2  0  0  0  0  0  0
   36.1630   25.6390   43.1920 C   0  0  0  0  0  2  0  0  0  0  0  0
   35.8560   24.2810   43.7730 C   0  0  0  0  0  2  0  0  0  0  0  0
   35.0710   24.4490   45.0320 C   0  0  0  0  0  2  0  0  0  0  0  0
  1  8  1  0  0  0  0
  1  2  2  0  0  0  0
  2  6  1  0  0  0  0
  3  7  1  0  0  0  0
  3  2  1  0  0  0  0
  4  3  2  0  0  0  0
  5  4  1  0  0  0  0
  5  1  1  0  0  0  0
  8  9  2  0  0  0  0
 10 11  1  0  0  0  0
 10  8  1  0  0  0  0
 11 16  1  0  0  0  0
 12 17  1  0  0  0  0
 12 11  2  0  0  0  0
 13 12  1  0  0  0  0
 14 13  2  0  0  0  0
 14 15  1  0  0  0  0
 15 10  2  0  0  0  0
 18 14  1  0  0  0  0
 19 20  2  0  0  0  0
 19  4  1  0  0  0  0
 21 24  1  6  0  0  0
 21 22  1  0  0  0  0
 21 19  1  0  0  0  0
 22 25  1  0  0  0  0
 23 27  1  1  0  0  0
 23 21  1  0  0  0  0
 23 22  1  0  0  0  0
 26 22  1  0  0  0  0
 28 33  1  0  0  0  0
 28 23  1  0  0  0  0
 29 28  1  0  0  0  0
 30 29  1  0  0  0  0
 31 30  1  0  0  0  0
 31 32  1  0  0  0  0
 32 33  1  0  0  0  0
M  END
>  <minimizedAffinity>
-5.21345139

>  <minimizedRMSD>
1.64899862

$$$$
