
 OpenBabel03272506483D

 39 42  0  0  1  0  0  0  0  0999 V2000
   32.2100   28.2060   47.6120 C   0  0  2  0  0  0  0  0  0  0  0  0
   33.4860   28.1560   48.3990 C   0  0  1  0  0  0  0  0  0  0  0  0
   34.0070   26.9030   48.2780 O   0  0  0  0  0  0  0  0  0  0  0  0
   33.3480   26.2330   47.2530 C   0  0  0  0  0  0  0  0  0  0  0  0
   32.6130   27.2620   46.4350 C   0  0  1  0  0  0  0  0  0  0  0  0
   31.3330   27.7850   48.0920 H   0  0  0  0  0  0  0  0  0  0  0  0
   33.2790   28.4660   49.4450 H   0  0  0  0  0  0  0  0  0  0  0  0
   32.7580   25.4480   47.6950 H   0  0  0  0  0  0  0  0  0  0  0  0
   34.1420   25.7620   46.6080 H   0  0  0  0  0  0  0  0  0  0  0  0
   33.2480   27.8540   45.7850 H   0  0  0  0  0  0  0  0  0  0  0  0
   31.9910   29.5030   47.1010 O   0  0  0  0  0  0  0  0  0  0  0  0
   32.6220   29.6370   46.3590 H   0  0  0  0  0  0  0  0  0  0  0  0
   34.6610   29.3410   47.6280 S   0  0  0  0  0  0  0  0  0  0  0  0
   37.2340   29.2900   50.6400 C   0  0  0  0  0  0  0  0  0  0  0  0
   37.6550   30.6150   50.7750 C   0  0  0  0  0  0  0  0  0  0  0  0
   37.1250   31.5610   49.9010 C   0  0  0  0  0  0  0  0  0  0  0  0
   36.2240   31.1540   48.9610 N   0  0  0  0  0  0  0  0  0  0  0  0
   35.8430   29.8620   48.8640 C   0  0  0  0  0  0  0  0  0  0  0  0
   36.3410   28.9140   49.7000 N   0  0  0  0  0  0  0  0  0  0  0  0
   37.6690   28.6040   51.3320 H   0  0  0  0  0  0  0  0  0  0  0  0
   38.3780   30.8920   51.5430 H   0  0  0  0  0  0  0  0  0  0  0  0
   37.4350   32.5900   49.9870 H   0  0  0  0  0  0  0  0  0  0  0  0
   31.5050   26.6770   45.8710 O   0  0  0  0  0  0  0  0  0  0  0  0
   30.4640   28.6500   43.9490 Cl  0  0  0  0  0  0  0  0  0  0  0  0
   29.6430   27.9070   45.3000 C   0  0  0  0  0  0  0  0  0  0  0  0
   30.2370   26.9820   46.1270 C   0  0  0  0  0  0  0  0  0  0  0  0
   29.4700   26.4370   47.1600 C   0  0  0  0  0  0  0  0  0  0  0  0
   28.1580   26.8210   47.3370 C   0  0  0  0  0  0  0  0  0  0  0  0
   27.5520   27.7500   46.5110 C   0  0  0  0  0  0  0  0  0  0  0  0
   28.3170   28.2860   45.4910 C   0  0  0  0  0  0  0  0  0  0  0  0
   29.8540   25.7050   47.8490 H   0  0  0  0  0  0  0  0  0  0  0  0
   27.5290   26.4250   48.1220 H   0  0  0  0  0  0  0  0  0  0  0  0
   26.5220   28.0430   46.6620 H   0  0  0  0  0  0  0  0  0  0  0  0
   27.6710   29.2870   44.6000 C   0  0  0  0  0  3  0  0  0  0  0  0
   27.6490   30.6700   45.1840 C   0  0  0  0  0  2  0  0  0  0  0  0
   26.4330   31.4600   44.6970 C   0  0  0  0  0  2  0  0  0  0  0  0
   26.1040   31.1600   43.2610 C   0  0  0  0  0  2  0  0  0  0  0  0
   25.6850   29.7090   43.1690 C   0  0  0  0  0  2  0  0  0  0  0  0
   26.2420   28.8970   44.3080 C   0  0  0  0  0  2  0  0  0  0  0  0
  1  6  1  1  0  0  0
  1  2  1  0  0  0  0
  2  7  1  1  0  0  0
  3  2  1  0  0  0  0
  4  8  1  0  0  0  0
  4  3  1  0  0  0  0
  5 10  1  6  0  0  0
  5  4  1  0  0  0  0
  5  1  1  0  0  0  0
  9  4  1  0  0  0  0
 11  1  1  0  0  0  0
 12 11  1  0  0  0  0
 13  2  1  0  0  0  0
 13 18  1  0  0  0  0
 14 15  1  0  0  0  0
 14 20  1  0  0  0  0
 15 21  1  0  0  0  0
 16 22  1  0  0  0  0
 16 15  2  0  0  0  0
 17 16  1  0  0  0  0
 18 17  2  0  0  0  0
 18 19  1  0  0  0  0
 19 14  2  0  0  0  0
 23 26  1  0  0  0  0
 23  5  1  0  0  0  0
 24 25  1  0  0  0  0
 25 30  2  0  0  0  0
 25 26  1  0  0  0  0
 26 27  2  0  0  0  0
 27 28  1  0  0  0  0
 27 31  1  0  0  0  0
 28 32  1  0  0  0  0
 29 33  1  0  0  0  0
 29 28  2  0  0  0  0
 30 29  1  0  0  0  0
 34 35  1  0  0  0  0
 34 30  1  0  0  0  0
 36 35  1  0  0  0  0
 37 36  1  0  0  0  0
 38 37  1  0  0  0  0
 38 39  1  0  0  0  0
 39 34  1  0  0  0  0
M  END
>  <minimizedAffinity>
-5.20868015

>  <minimizedRMSD>
0.864907444

$$$$
