
 OpenBabel03272507053D

 28 31  0  0  0  0  0  0  0  0999 V2000
   34.4000   27.9080   48.9460 C   0  0  0  0  0  0  0  0  0  0  0  0
   34.8260   29.2180   48.7280 C   0  0  0  0  0  0  0  0  0  0  0  0
   34.1720   30.0150   47.8270 C   0  0  0  0  0  0  0  0  0  0  0  0
   33.0860   29.5530   47.1160 C   0  0  0  0  0  0  0  0  0  0  0  0
   32.2860   30.1320   46.1870 N   0  0  0  0  0  0  0  0  0  0  0  0
   31.3940   29.1390   45.8710 C   0  0  0  0  0  0  0  0  0  0  0  0
   31.6430   28.0220   46.5730 N   0  0  0  0  0  0  0  0  0  0  0  0
   32.6970   28.2580   47.3570 C   0  0  0  0  0  0  0  0  0  0  0  0
   33.3100   27.4080   48.2470 C   0  0  0  0  0  0  0  0  0  0  0  0
   34.8850   27.2380   49.6480 H   0  0  0  0  0  0  0  0  0  0  0  0
   34.5410   31.0390   47.6880 H   0  0  0  0  0  0  0  0  0  0  0  0
   32.3370   31.0980   45.8060 H   0  0  0  0  0  0  0  0  0  0  0  0
   30.6230   29.3330   45.1370 H   0  0  0  0  0  0  0  0  0  0  0  0
   32.9620   26.3950   48.3980 H   0  0  0  0  0  0  0  0  0  0  0  0
   37.2810   29.7750   51.4100 C   0  0  0  0  0  0  0  0  0  0  0  0
   38.1680   30.7030   50.8190 C   0  0  0  0  0  0  0  0  0  0  0  0
   37.8910   31.1180   49.4870 C   0  0  0  0  0  0  0  0  0  0  0  0
   36.7910   30.5990   48.8650 N   0  0  0  0  0  0  0  0  0  0  0  0
   35.9670   29.7110   49.4730 C   0  0  0  0  0  0  0  0  0  0  0  0
   36.2190   29.3150   50.7210 N   0  0  0  0  0  0  0  0  0  0  0  0
   37.5160   29.4790   52.4170 H   0  0  0  0  0  0  0  0  0  0  0  0
   39.0340   31.1180   51.2940 H   0  0  0  0  0  0  0  0  0  0  0  0
   38.7790   32.0900   48.8020 C   0  0  0  0  0  3  0  0  0  0  0  0
   38.8620   33.4250   49.4570 C   0  0  0  0  0  2  0  0  0  0  0  0
   39.4610   34.4060   48.4720 C   0  0  0  0  0  2  0  0  0  0  0  0
   40.2870   33.7050   47.4140 C   0  0  0  0  0  2  0  0  0  0  0  0
   39.4130   32.7820   46.5790 C   0  0  0  0  0  2  0  0  0  0  0  0
   38.2250   32.2950   47.3950 C   0  0  0  0  0  2  0  0  0  0  0  0
  1 10  1  0  0  0  0
  2  1  1  0  0  0  0
  2 19  1  0  0  0  0
  3  2  2  0  0  0  0
  4  8  2  0  0  0  0
  4  3  1  0  0  0  0
  5  4  1  0  0  0  0
  6  5  1  0  0  0  0
  6  7  2  0  0  0  0
  7  8  1  0  0  0  0
  8  9  1  0  0  0  0
  9 14  1  0  0  0  0
  9  1  2  0  0  0  0
 11  3  1  0  0  0  0
 12  5  1  0  0  0  0
 13  6  1  0  0  0  0
 15 21  1  0  0  0  0
 16 22  1  0  0  0  0
 16 15  1  0  0  0  0
 17 16  2  0  0  0  0
 18 19  2  0  0  0  0
 18 17  1  0  0  0  0
 19 20  1  0  0  0  0
 20 15  2  0  0  0  0
 23 24  1  0  0  0  0
 23 17  1  0  0  0  0
 25 24  1  0  0  0  0
 26 25  1  0  0  0  0
 27 28  1  0  0  0  0
 27 26  1  0  0  0  0
 28 23  1  0  0  0  0
M  END
>  <minimizedAffinity>
-6.49540949

>  <minimizedRMSD>
0.661318541

$$$$
