
 OpenBabel03272508123D

 31 33  0  0  0  0  0  0  0  0999 V2000
   36.6650   29.4850   44.1980 Cl  0  0  0  0  0  0  0  0  0  0  0  0
   38.2970   29.8540   43.5830 C   0  0  0  0  0  0  0  0  0  0  0  0
   39.3350   30.3500   44.3750 C   0  0  0  0  0  0  0  0  0  0  0  0
   40.5410   30.5870   43.7580 C   0  0  0  0  0  0  0  0  0  0  0  0
   40.7200   30.3460   42.4170 C   0  0  0  0  0  0  0  0  0  0  0  0
   39.7110   29.8600   41.6260 C   0  0  0  0  0  0  0  0  0  0  0  0
   38.5080   29.6180   42.2130 C   0  0  0  0  0  0  0  0  0  0  0  0
   41.2990   30.9690   44.4310 H   0  0  0  0  0  0  0  0  0  0  0  0
   41.6890   30.5510   41.9820 H   0  0  0  0  0  0  0  0  0  0  0  0
   39.8620   29.6720   40.5640 H   0  0  0  0  0  0  0  0  0  0  0  0
   37.3890   29.0850   41.3680 C   0  0  0  0  0  3  0  0  0  0  0  0
   36.3670   30.2090   41.3200 C   0  0  0  0  0  2  0  0  0  0  0  0
   35.1550   29.7260   40.5900 C   0  0  0  0  0  2  0  0  0  0  0  0
   35.3920   28.4270   39.8590 C   0  0  0  0  0  2  0  0  0  0  0  0
   35.8530   27.3260   40.7910 C   0  0  0  0  0  2  0  0  0  0  0  0
   36.7640   27.8430   41.8930 C   0  0  0  0  0  2  0  0  0  0  0  0
   38.9630   30.5220   45.6780 O   0  0  0  0  0  0  0  0  0  0  0  0
   39.4980   32.5910   47.1340 O   0  0  0  0  0  0  0  0  0  0  0  0
   38.3670   31.9080   46.4340 P   0  0  1  0  0  0  0  0  0  0  0  0
   37.7940   32.9030   45.1740 O   0  0  0  0  0  0  0  0  0  0  0  0
   37.5780   32.4020   44.3570 H   0  0  0  0  0  0  0  0  0  0  0  0
   37.0790   31.4840   47.4480 O   0  0  0  0  0  0  0  0  0  0  0  0
   37.6280   30.5260   50.9790 C   0  0  0  0  0  0  0  0  0  0  0  0
   37.7290   31.3160   49.8320 C   0  0  0  0  0  0  0  0  0  0  0  0
   37.1130   30.8890   48.6580 C   0  0  0  0  0  0  0  0  0  0  0  0
   36.4320   29.6960   48.7010 N   0  0  0  0  0  0  0  0  0  0  0  0
   36.3570   28.9620   49.8290 C   0  0  0  0  0  0  0  0  0  0  0  0
   36.9540   29.3790   50.9570 N   0  0  0  0  0  0  0  0  0  0  0  0
   38.1390   30.9330   51.8540 H   0  0  0  0  0  0  0  0  0  0  0  0
   38.2390   32.2540   49.7160 H   0  0  0  0  0  0  0  0  0  0  0  0
   35.8030   28.0110   49.8260 H   0  0  0  0  0  0  0  0  0  0  0  0
  2  1  1  0  0  0  0
  2  3  1  0  0  0  0
  3 17  1  0  0  0  0
  4  3  2  0  0  0  0
  4  8  1  0  0  0  0
  5  4  1  0  0  0  0
  6  7  1  0  0  0  0
  6  5  2  0  0  0  0
  7  2  2  0  0  0  0
  9  5  1  0  0  0  0
 10  6  1  0  0  0  0
 11 16  1  0  0  0  0
 11  7  1  0  0  0  0
 12 11  1  0  0  0  0
 13 12  1  0  0  0  0
 14 13  1  0  0  0  0
 14 15  1  0  0  0  0
 15 16  1  0  0  0  0
 17 19  1  0  0  0  0
 19 18  2  1  0  0  0
 19 22  1  0  0  0  0
 20 19  1  0  0  0  0
 21 20  1  0  0  0  0
 22 25  1  0  0  0  0
 23 29  1  0  0  0  0
 24 23  2  0  0  0  0
 25 26  2  0  0  0  0
 25 24  1  0  0  0  0
 26 27  1  0  0  0  0
 27 28  2  0  0  0  0
 28 23  1  0  0  0  0
 30 24  1  0  0  0  0
 31 27  1  0  0  0  0
M  END
>  <minimizedAffinity>
-4.82369661

>  <minimizedRMSD>
0.549751639

$$$$
