
 OpenBabel03272508123D

 31 33  0  0  0  0  0  0  0  0999 V2000
   36.6740   29.4270   44.0110 Cl  0  0  0  0  0  0  0  0  0  0  0  0
   38.3290   29.8290   43.4890 C   0  0  0  0  0  0  0  0  0  0  0  0
   39.3190   30.3180   44.3430 C   0  0  0  0  0  0  0  0  0  0  0  0
   40.5530   30.5840   43.7940 C   0  0  0  0  0  0  0  0  0  0  0  0
   40.8020   30.3770   42.4590 C   0  0  0  0  0  0  0  0  0  0  0  0
   39.8400   29.8990   41.6060 C   0  0  0  0  0  0  0  0  0  0  0  0
   38.6120   29.6280   42.1260 C   0  0  0  0  0  0  0  0  0  0  0  0
   41.2700   30.9590   44.5120 H   0  0  0  0  0  0  0  0  0  0  0  0
   41.7890   30.6040   42.0780 H   0  0  0  0  0  0  0  0  0  0  0  0
   40.0460   29.7380   40.5490 H   0  0  0  0  0  0  0  0  0  0  0  0
   37.5440   29.1030   41.2130 C   0  0  0  0  0  3  0  0  0  0  0  0
   38.2290   28.0210   40.3930 C   0  0  0  0  0  2  0  0  0  0  0  0
   37.2660   27.5160   39.3670 C   0  0  0  0  0  2  0  0  0  0  0  0
   35.8490   27.9670   39.6210 C   0  0  0  0  0  2  0  0  0  0  0  0
   35.7350   29.4760   39.6710 C   0  0  0  0  0  2  0  0  0  0  0  0
   36.9490   30.1290   40.3160 C   0  0  0  0  0  2  0  0  0  0  0  0
   38.8800   30.4550   45.6290 O   0  0  0  0  0  0  0  0  0  0  0  0
   39.4340   32.5080   47.1000 O   0  0  0  0  0  0  0  0  0  0  0  0
   38.2950   31.8330   46.4060 P   0  0  1  0  0  0  0  0  0  0  0  0
   37.7070   32.8410   45.1640 O   0  0  0  0  0  0  0  0  0  0  0  0
   37.4810   32.3490   44.3450 H   0  0  0  0  0  0  0  0  0  0  0  0
   37.0180   31.3990   47.4310 O   0  0  0  0  0  0  0  0  0  0  0  0
   37.6140   30.5310   50.9780 C   0  0  0  0  0  0  0  0  0  0  0  0
   37.7000   31.2920   49.8100 C   0  0  0  0  0  0  0  0  0  0  0  0
   37.0680   30.8350   48.6560 C   0  0  0  0  0  0  0  0  0  0  0  0
   36.3880   29.6430   48.7380 N   0  0  0  0  0  0  0  0  0  0  0  0
   36.3290   28.9380   49.8850 C   0  0  0  0  0  0  0  0  0  0  0  0
   36.9400   29.3840   50.9940 N   0  0  0  0  0  0  0  0  0  0  0  0
   38.1360   30.9610   51.8360 H   0  0  0  0  0  0  0  0  0  0  0  0
   38.2070   32.2270   49.6640 H   0  0  0  0  0  0  0  0  0  0  0  0
   35.7750   27.9880   49.9130 H   0  0  0  0  0  0  0  0  0  0  0  0
  2  1  1  0  0  0  0
  2  3  1  0  0  0  0
  3 17  1  0  0  0  0
  4  3  2  0  0  0  0
  4  8  1  0  0  0  0
  5  4  1  0  0  0  0
  6  7  1  0  0  0  0
  6  5  2  0  0  0  0
  7  2  2  0  0  0  0
  9  5  1  0  0  0  0
 10  6  1  0  0  0  0
 11  7  1  0  0  0  0
 12 11  1  0  0  0  0
 13 14  1  0  0  0  0
 13 12  1  0  0  0  0
 14 15  1  0  0  0  0
 15 16  1  0  0  0  0
 16 11  1  0  0  0  0
 17 19  1  0  0  0  0
 19 18  2  1  0  0  0
 19 22  1  0  0  0  0
 20 19  1  0  0  0  0
 21 20  1  0  0  0  0
 22 25  1  0  0  0  0
 23 28  1  0  0  0  0
 23 29  1  0  0  0  0
 24 23  2  0  0  0  0
 25 26  2  0  0  0  0
 25 24  1  0  0  0  0
 26 27  1  0  0  0  0
 27 31  1  0  0  0  0
 27 28  2  0  0  0  0
 30 24  1  0  0  0  0
M  END
>  <minimizedAffinity>
-4.81869698

>  <minimizedRMSD>
0.476811796

$$$$
