
 OpenBabel03272510213D

 33 36  0  0  0  0  0  0  0  0999 V2000
   37.4130   29.1690   50.8250 Br  0  0  0  0  0  0  0  0  0  0  0  0
   36.0180   29.3040   49.5310 C   0  0  0  0  0  0  0  0  0  0  0  0
   36.0290   30.3410   48.5870 C   0  0  0  0  0  0  0  0  0  0  0  0
   34.9840   30.3750   47.6780 C   0  0  0  0  0  0  0  0  0  0  0  0
   33.9580   29.4410   47.6770 C   0  0  0  0  0  0  0  0  0  0  0  0
   33.9850   28.4520   48.6110 C   0  0  0  0  0  0  0  0  0  0  0  0
   35.0120   28.3970   49.5240 C   0  0  0  0  0  0  0  0  0  0  0  0
   34.9320   31.1470   46.9250 H   0  0  0  0  0  0  0  0  0  0  0  0
   33.1890   27.7180   48.6200 H   0  0  0  0  0  0  0  0  0  0  0  0
   34.9820   27.5830   50.2470 H   0  0  0  0  0  0  0  0  0  0  0  0
   37.9990   33.2370   49.5700 C   0  0  0  0  0  0  0  0  0  0  0  0
   39.0580   33.2530   48.6210 C   0  0  0  0  0  0  0  0  0  0  0  0
   39.0700   32.2600   47.6580 C   0  0  0  0  0  0  0  0  0  0  0  0
   38.0790   31.3140   47.6550 N   0  0  0  0  0  0  0  0  0  0  0  0
   37.0920   31.3300   48.5670 C   0  0  0  0  0  0  0  0  0  0  0  0
   37.0590   32.2950   49.5220 N   0  0  0  0  0  0  0  0  0  0  0  0
   37.9080   33.9700   50.3540 H   0  0  0  0  0  0  0  0  0  0  0  0
   39.7530   34.0510   48.7530 H   0  0  0  0  0  0  0  0  0  0  0  0
   39.8690   32.2860   46.9570 H   0  0  0  0  0  0  0  0  0  0  0  0
   32.8650   29.4830   46.7240 C   0  0  0  0  0  0  0  0  0  0  0  0
   31.9190   28.4820   46.5720 C   0  0  0  0  0  0  0  0  0  0  0  0
   30.8860   28.5720   45.6370 C   0  0  0  0  0  0  0  0  0  0  0  0
   30.7870   29.6470   44.8540 N   0  0  0  0  0  0  0  0  0  0  0  0
   31.7080   30.6270   44.9990 C   0  0  0  0  0  0  0  0  0  0  0  0
   32.6930   30.5280   45.8980 N   0  0  0  0  0  0  0  0  0  0  0  0
   31.9950   27.6050   47.2060 H   0  0  0  0  0  0  0  0  0  0  0  0
   30.1890   27.7290   45.5940 H   0  0  0  0  0  0  0  0  0  0  0  0
   31.5880   31.8150   44.1230 C   0  0  0  0  0  3  0  0  0  0  0  0
   31.3640   33.0830   44.9200 C   0  0  0  0  0  2  0  0  0  0  0  0
   31.7300   34.3150   44.1490 C   0  0  0  0  0  2  0  0  0  0  0  0
   31.6310   34.1290   42.6560 C   0  0  0  0  0  2  0  0  0  0  0  0
   32.3890   32.9560   42.1260 C   0  0  0  0  0  2  0  0  0  0  0  0
   32.8300   32.0620   43.2870 C   0  0  0  0  0  2  0  0  0  0  0  0
  2  1  1  0  0  0  0
  3  2  2  0  0  0  0
  4  3  1  0  0  0  0
  5  4  2  0  0  0  0
  5  6  1  0  0  0  0
  6  9  1  0  0  0  0
  6  7  2  0  0  0  0
  7  2  1  0  0  0  0
  7 10  1  0  0  0  0
  8  4  1  0  0  0  0
 11 17  1  0  0  0  0
 12 18  1  0  0  0  0
 12 11  2  0  0  0  0
 13 12  1  0  0  0  0
 14 13  2  0  0  0  0
 14 15  1  0  0  0  0
 15  3  1  0  0  0  0
 15 16  2  0  0  0  0
 16 11  1  0  0  0  0
 19 13  1  0  0  0  0
 20  5  1  0  0  0  0
 21 20  1  0  0  0  0
 21 26  1  0  0  0  0
 22 21  2  0  0  0  0
 23 24  2  0  0  0  0
 23 22  1  0  0  0  0
 24 25  1  0  0  0  0
 25 20  2  0  0  0  0
 27 22  1  0  0  0  0
 28 29  1  0  0  0  0
 28 24  1  0  0  0  0
 30 29  1  0  0  0  0
 31 30  1  0  0  0  0
 32 31  1  0  0  0  0
 32 33  1  0  0  0  0
 33 28  1  0  0  0  0
M  END
>  <minimizedAffinity>
-6.61025143

>  <minimizedRMSD>
0.939857364

$$$$
