
 OpenBabel03272507343D

 33 36  0  0  1  0  0  0  0  0999 V2000
   35.8850   29.2090   49.8450 C   0  0  0  0  0  0  0  0  0  0  0  0
   34.9440   29.7110   50.7140 C   0  0  0  0  0  0  0  0  0  0  0  0
   33.6900   29.2390   50.2970 C   0  0  0  0  0  0  0  0  0  0  0  0
   33.9540   28.4680   49.1860 C   0  0  0  0  0  0  0  0  0  0  0  0
   35.2500   28.4800   48.9580 O   0  0  0  0  0  0  0  0  0  0  0  0
   35.0500   30.3560   51.5830 H   0  0  0  0  0  0  0  0  0  0  0  0
   32.7140   29.4060   50.7100 H   0  0  0  0  0  0  0  0  0  0  0  0
   37.3010   29.5000   49.9820 C   0  0  0  0  0  0  0  0  0  0  0  0
   37.9830   28.8380   50.7800 O   0  0  0  0  0  0  0  0  0  0  0  0
   37.8310   30.5570   49.1680 C   0  0  0  0  0  0  0  0  0  0  0  0
   38.1760   31.7340   49.8030 C   0  0  0  0  0  0  0  0  0  0  0  0
   38.6920   32.7830   49.0430 C   0  0  0  0  0  0  0  0  0  0  0  0
   38.8330   32.5920   47.6840 N   0  0  0  0  0  0  0  0  0  0  0  0
   38.4870   31.4370   47.1050 C   0  0  0  0  0  0  0  0  0  0  0  0
   37.9910   30.4270   47.8330 N   0  0  0  0  0  0  0  0  0  0  0  0
   38.0800   31.9250   50.8760 H   0  0  0  0  0  0  0  0  0  0  0  0
   38.9810   33.7250   49.4620 H   0  0  0  0  0  0  0  0  0  0  0  0
   38.6500   31.4180   46.0270 H   0  0  0  0  0  0  0  0  0  0  0  0
   32.9620   27.7490   48.3860 C   0  0  0  0  0  0  0  0  0  0  0  0
   31.7650   27.6880   48.8260 O   0  0  0  0  0  0  0  0  0  0  0  0
   33.3560   27.0980   47.0920 C   0  0  1  0  0  0  0  0  0  0  0  0
   33.8010   25.6050   47.3690 C   0  0  0  0  0  0  0  0  0  0  0  0
   32.5950   25.9660   46.5860 C   0  0  2  0  0  0  0  0  0  0  0  0
   34.2140   27.6200   46.6200 H   0  0  0  0  0  0  0  0  0  0  0  0
   33.6770   25.2270   48.3830 H   0  0  0  0  0  0  0  0  0  0  0  0
   34.7210   25.2830   46.8890 H   0  0  0  0  0  0  0  0  0  0  0  0
   31.6180   25.8060   47.1360 H   0  0  0  0  0  0  0  0  0  0  0  0
   32.5780   25.5020   45.1830 C   0  0  0  0  0  3  0  0  0  0  0  0
   31.2580   25.0790   44.6180 C   0  0  0  0  0  2  0  0  0  0  0  0
   30.5210   26.1580   43.8860 C   0  0  0  0  0  2  0  0  0  0  0  0
   31.2990   26.7060   42.7130 C   0  0  0  0  0  2  0  0  0  0  0  0
   32.7870   26.5170   42.8800 C   0  0  0  0  0  2  0  0  0  0  0  0
   33.1370   26.6220   44.3280 C   0  0  0  0  0  2  0  0  0  0  0  0
  1  8  1  0  0  0  0
  1  2  2  0  0  0  0
  2  6  1  0  0  0  0
  3  7  1  0  0  0  0
  3  2  1  0  0  0  0
  4  3  2  0  0  0  0
  5  4  1  0  0  0  0
  5  1  1  0  0  0  0
  8  9  2  0  0  0  0
 10 11  1  0  0  0  0
 10  8  1  0  0  0  0
 11 16  1  0  0  0  0
 12 17  1  0  0  0  0
 12 11  2  0  0  0  0
 13 12  1  0  0  0  0
 14 13  2  0  0  0  0
 14 15  1  0  0  0  0
 15 10  2  0  0  0  0
 18 14  1  0  0  0  0
 19 20  2  0  0  0  0
 19  4  1  0  0  0  0
 21 24  1  6  0  0  0
 21 22  1  0  0  0  0
 21 19  1  0  0  0  0
 22 25  1  0  0  0  0
 23 21  1  0  0  0  0
 23 27  1  1  0  0  0
 23 22  1  0  0  0  0
 26 22  1  0  0  0  0
 28 23  1  0  0  0  0
 29 28  1  0  0  0  0
 30 29  1  0  0  0  0
 31 32  1  0  0  0  0
 31 30  1  0  0  0  0
 32 33  1  0  0  0  0
 33 28  1  0  0  0  0
M  END
>  <minimizedAffinity>
-4.87710714

>  <minimizedRMSD>
0.386452377

$$$$
