
 OpenBabel03262522523D

 30 33  0  0  0  0  0  0  0  0999 V2000
   36.0240   30.0890   48.7970 C   0  0  0  0  0  0  0  0  0  0  0  0
   36.0500   29.0170   49.5870 C   0  0  0  0  0  0  0  0  0  0  0  0
   34.9490   28.1930   49.6410 C   0  0  0  0  0  0  0  0  0  0  0  0
   33.8880   28.5450   48.8650 C   0  0  0  0  0  0  0  0  0  0  0  0
   34.4750   30.0700   48.0480 S   0  0  0  0  0  0  0  0  0  0  0  0
   36.9500   28.7970   50.1900 H   0  0  0  0  0  0  0  0  0  0  0  0
   34.8660   27.2950   50.2510 H   0  0  0  0  0  0  0  0  0  0  0  0
   38.1090   33.0420   49.2340 C   0  0  0  0  0  0  0  0  0  0  0  0
   39.0170   32.9680   48.1790 C   0  0  0  0  0  0  0  0  0  0  0  0
   38.9110   31.8750   47.2930 C   0  0  0  0  0  0  0  0  0  0  0  0
   37.9260   30.9580   47.5240 N   0  0  0  0  0  0  0  0  0  0  0  0
   37.0710   31.0970   48.5780 C   0  0  0  0  0  0  0  0  0  0  0  0
   37.1410   32.1080   49.4290 N   0  0  0  0  0  0  0  0  0  0  0  0
   38.2140   33.8970   49.9020 H   0  0  0  0  0  0  0  0  0  0  0  0
   39.7820   33.7020   48.0210 H   0  0  0  0  0  0  0  0  0  0  0  0
   39.5790   31.7460   46.4490 H   0  0  0  0  0  0  0  0  0  0  0  0
   32.5890   27.8870   48.7070 C   0  0  0  0  0  0  0  0  0  0  0  0
   32.4260   26.9280   47.7800 C   0  0  0  0  0  0  0  0  0  0  0  0
   31.1700   26.3550   47.6900 C   0  0  0  0  0  0  0  0  0  0  0  0
   30.1400   26.7300   48.4910 N   0  0  0  0  0  0  0  0  0  0  0  0
   30.4140   27.7180   49.4030 C   0  0  0  0  0  0  0  0  0  0  0  0
   31.6120   28.3200   49.5460 N   0  0  0  0  0  0  0  0  0  0  0  0
   33.2000   26.5830   47.1120 H   0  0  0  0  0  0  0  0  0  0  0  0
   30.9730   25.5790   46.9650 H   0  0  0  0  0  0  0  0  0  0  0  0
   29.3270   28.1720   50.3090 C   0  0  0  0  0  0  0  0  0  0  0  0
   28.4740   26.9600   50.6050 C   0  0  0  0  0  0  0  0  0  0  0  0
   27.0400   27.3380   50.9000 C   0  0  0  0  0  0  0  0  0  0  0  0
   26.3960   28.0620   49.7410 C   0  0  0  0  0  0  0  0  0  0  0  0
   27.4140   28.6640   48.8010 C   0  0  0  0  0  0  0  0  0  0  0  0
   28.5220   29.2680   49.6350 C   0  0  0  0  0  0  0  0  0  0  0  0
  1  2  2  0  0  0  0
  2  3  1  0  0  0  0
  2  6  1  0  0  0  0
  3  7  1  0  0  0  0
  4  3  2  0  0  0  0
  5  1  1  0  0  0  0
  5  4  1  0  0  0  0
  8 13  1  0  0  0  0
  8 14  1  0  0  0  0
  9  8  2  0  0  0  0
 10 11  2  0  0  0  0
 10  9  1  0  0  0  0
 11 12  1  0  0  0  0
 12  1  1  0  0  0  0
 12 13  2  0  0  0  0
 15  9  1  0  0  0  0
 16 10  1  0  0  0  0
 17  4  1  0  0  0  0
 17 22  1  0  0  0  0
 18 17  2  0  0  0  0
 19 18  1  0  0  0  0
 19 20  2  0  0  0  0
 20 21  1  0  0  0  0
 21 22  2  0  0  0  0
 21 25  1  0  0  0  0
 23 18  1  0  0  0  0
 24 19  1  0  0  0  0
 25 26  1  0  0  0  0
 26 27  1  0  0  0  0
 28 27  1  0  0  0  0
 29 30  1  0  0  0  0
 29 28  1  0  0  0  0
 30 25  1  0  0  0  0
M  END
>  <minimizedAffinity>
-6.84788513

>  <minimizedRMSD>
1.38456249

$$$$
