
 OpenBabel03272505123D

 36 39  0  0  0  0  0  0  0  0999 V2000
   36.4010   30.9040   45.7290 Cl  0  0  0  0  0  0  0  0  0  0  0  0
   36.6950   30.7810   47.4420 C   0  0  0  0  0  0  0  0  0  0  0  0
   37.9600   31.1140   47.8890 C   0  0  0  0  0  0  0  0  0  0  0  0
   38.2060   31.0190   49.2540 C   0  0  0  0  0  0  0  0  0  0  0  0
   37.2020   30.6060   50.1000 C   0  0  0  0  0  0  0  0  0  0  0  0
   35.9580   30.2890   49.5740 C   0  0  0  0  0  0  0  0  0  0  0  0
   35.6480   30.3600   48.2410 C   0  0  0  0  0  0  0  0  0  0  0  0
   39.1910   31.2750   49.6250 H   0  0  0  0  0  0  0  0  0  0  0  0
   37.3550   30.5200   51.1660 H   0  0  0  0  0  0  0  0  0  0  0  0
   35.1940   29.9670   50.2770 H   0  0  0  0  0  0  0  0  0  0  0  0
   40.2240   33.3150   46.0830 C   0  0  0  0  0  0  0  0  0  0  0  0
   40.9250   32.4660   45.2140 C   0  0  0  0  0  0  0  0  0  0  0  0
   40.5980   31.0990   45.2630 C   0  0  0  0  0  0  0  0  0  0  0  0
   39.6330   30.6860   46.1400 N   0  0  0  0  0  0  0  0  0  0  0  0
   39.0020   31.5510   46.9420 C   0  0  0  0  0  0  0  0  0  0  0  0
   39.2860   32.8540   46.9220 N   0  0  0  0  0  0  0  0  0  0  0  0
   40.5250   34.3500   45.9930 H   0  0  0  0  0  0  0  0  0  0  0  0
   41.6900   32.8430   44.5300 H   0  0  0  0  0  0  0  0  0  0  0  0
   41.0890   30.3990   44.6340 H   0  0  0  0  0  0  0  0  0  0  0  0
   34.0710   29.9610   47.5620 S   0  0  0  0  0  0  0  0  0  0  0  0
   33.8570   29.2170   44.5110 Cl  0  0  0  0  0  0  0  0  0  0  0  0
   33.8580   27.9800   45.7470 C   0  0  0  0  0  0  0  0  0  0  0  0
   33.9490   28.2270   47.1250 C   0  0  0  0  0  0  0  0  0  0  0  0
   33.9390   27.1740   48.0000 C   0  0  0  0  0  0  0  0  0  0  0  0
   33.8420   25.8830   47.5500 C   0  0  0  0  0  0  0  0  0  0  0  0
   33.7500   25.5990   46.1930 C   0  0  0  0  0  0  0  0  0  0  0  0
   33.7600   26.6540   45.3250 C   0  0  0  0  0  0  0  0  0  0  0  0
   34.0160   27.4880   49.0420 H   0  0  0  0  0  0  0  0  0  0  0  0
   33.8390   25.0990   48.2670 H   0  0  0  0  0  0  0  0  0  0  0  0
   33.6750   24.5610   45.8980 H   0  0  0  0  0  0  0  0  0  0  0  0
   33.6600   26.3490   43.8720 C   0  0  0  0  0  3  0  0  0  0  0  0
   34.8700   26.7930   43.1130 C   0  0  0  0  0  2  0  0  0  0  0  0
   34.7610   26.3650   41.6840 C   0  0  0  0  0  2  0  0  0  0  0  0
   33.4470   25.6890   41.3710 C   0  0  0  0  0  2  0  0  0  0  0  0
   32.2560   26.4520   41.8540 C   0  0  0  0  0  2  0  0  0  0  0  0
   32.4260   26.9710   43.2630 C   0  0  0  0  0  2  0  0  0  0  0  0
  1  2  1  0  0  0  0
  2  3  2  0  0  0  0
  2  7  1  0  0  0  0
  3  4  1  0  0  0  0
  4  8  1  0  0  0  0
  4  5  2  0  0  0  0
  5  9  1  0  0  0  0
  6  5  1  0  0  0  0
  6 10  1  0  0  0  0
  7  6  2  0  0  0  0
 11 16  1  0  0  0  0
 12 13  1  0  0  0  0
 12 11  2  0  0  0  0
 13 14  2  0  0  0  0
 14 15  1  0  0  0  0
 15  3  1  0  0  0  0
 16 15  2  0  0  0  0
 17 11  1  0  0  0  0
 18 12  1  0  0  0  0
 19 13  1  0  0  0  0
 20  7  1  0  0  0  0
 21 22  1  0  0  0  0
 22 23  1  0  0  0  0
 23 20  1  0  0  0  0
 23 24  2  0  0  0  0
 24 28  1  0  0  0  0
 25 24  1  0  0  0  0
 25 29  1  0  0  0  0
 26 25  2  0  0  0  0
 27 22  2  0  0  0  0
 27 26  1  0  0  0  0
 30 26  1  0  0  0  0
 31 27  1  0  0  0  0
 32 31  1  0  0  0  0
 33 32  1  0  0  0  0
 34 33  1  0  0  0  0
 34 35  1  0  0  0  0
 35 36  1  0  0  0  0
 36 31  1  0  0  0  0
M  END
>  <minimizedAffinity>
-5.70071268

>  <minimizedRMSD>
0.378561556

$$$$
