
 OpenBabel03272508393D

 29 31  0  0  1  0  0  0  0  0999 V2000
   38.3700   31.4910   45.8840 N   0  0  0  0  0  0  0  0  0  0  0  0
   38.0810   30.3690   46.7670 C   0  0  0  0  0  0  0  0  0  0  0  0
   38.0470   30.7170   48.2070 C   0  0  1  0  0  0  0  0  0  0  0  0
   38.9530   31.7200   48.6110 N   0  0  0  0  0  0  0  0  0  0  0  0
   38.9600   32.8700   47.7050 C   0  0  0  0  0  0  0  0  0  0  0  0
   39.4450   32.2920   46.3950 C   0  0  0  0  0  0  0  0  0  0  0  0
   38.9410   29.6620   46.6030 H   0  0  0  0  0  0  0  0  0  0  0  0
   37.1890   29.8990   46.3720 H   0  0  0  0  0  0  0  0  0  0  0  0
   38.3090   29.7860   48.7800 H   0  0  0  0  0  0  0  0  0  0  0  0
   39.9470   31.3530   48.5840 H   0  0  0  0  0  0  0  0  0  0  0  0
   39.7040   33.6050   48.0770 H   0  0  0  0  0  0  0  0  0  0  0  0
   37.9530   33.2930   47.5860 H   0  0  0  0  0  0  0  0  0  0  0  0
   39.7340   33.1000   45.6820 H   0  0  0  0  0  0  0  0  0  0  0  0
   40.3540   31.6780   46.5680 H   0  0  0  0  0  0  0  0  0  0  0  0
   37.6560   31.7320   44.6790 C   0  0  0  0  0  0  0  0  0  0  0  0
   38.1020   32.6370   43.6960 C   0  0  0  0  0  0  0  0  0  0  0  0
   37.3440   32.8150   42.5450 C   0  0  0  0  0  0  0  0  0  0  0  0
   36.1880   32.0940   42.4190 N   0  0  0  0  0  0  0  0  0  0  0  0
   35.7930   31.2350   43.3840 C   0  0  0  0  0  0  0  0  0  0  0  0
   36.5040   31.0410   44.5090 N   0  0  0  0  0  0  0  0  0  0  0  0
   39.0170   33.1280   43.9260 H   0  0  0  0  0  0  0  0  0  0  0  0
   37.7100   33.5140   41.8080 H   0  0  0  0  0  0  0  0  0  0  0  0
   34.8700   30.7320   43.1640 H   0  0  0  0  0  0  0  0  0  0  0  0
   36.6850   31.1280   48.7120 C   0  0  0  0  0  0  0  0  0  0  0  0
   35.5840   30.1990   48.3600 C   0  0  0  0  0  0  0  0  0  0  0  0
   35.6690   28.8940   49.1530 C   0  0  0  0  0  0  0  0  0  0  0  0
   35.4440   29.2820   50.6010 C   0  0  0  0  0  0  0  0  0  0  0  0
   36.6620   30.1070   51.0000 C   0  0  0  0  0  0  0  0  0  0  0  0
   36.7030   31.3840   50.1950 C   0  0  0  0  0  0  0  0  0  0  0  0
  1  6  1  0  0  0  0
  1  2  1  0  0  0  0
  2  3  1  0  0  0  0
  3  4  1  0  0  0  0
  3 24  1  0  0  0  0
  3  9  1  1  0  0  0
  5 11  1  0  0  0  0
  5  4  1  0  0  0  0
  6 14  1  0  0  0  0
  6  5  1  0  0  0  0
  7  2  1  0  0  0  0
  8  2  1  0  0  0  0
 10  4  1  0  0  0  0
 12  5  1  0  0  0  0
 13  6  1  0  0  0  0
 15  1  1  0  0  0  0
 16 21  1  0  0  0  0
 16 15  2  0  0  0  0
 17 16  1  0  0  0  0
 18 17  2  0  0  0  0
 18 19  1  0  0  0  0
 19 20  2  0  0  0  0
 20 15  1  0  0  0  0
 22 17  1  0  0  0  0
 23 19  1  0  0  0  0
 24 29  1  0  0  0  0
 25 24  1  0  0  0  0
 25 26  1  0  0  0  0
 26 27  1  0  0  0  0
 27 28  1  0  0  0  0
 29 28  1  0  0  0  0
M  END
>  <minimizedAffinity>
-5.63876867

>  <minimizedRMSD>
4.32709646

$$$$
