
 OpenBabel03272510073D

 27 29  0  0  0  0  0  0  0  0999 V2000
   37.4480   23.8870   32.7160 C   0  0  0  0  0  0  0  0  0  0  0  0
   36.4990   23.1090   32.0300 C   0  0  0  0  0  0  0  0  0  0  0  0
   35.5280   23.7720   31.2480 C   0  0  0  0  0  0  0  0  0  0  0  0
   35.5680   25.1260   31.2030 N   0  0  0  0  0  0  0  0  0  0  0  0
   36.4850   25.8400   31.8690 C   0  0  0  0  0  0  0  0  0  0  0  0
   37.4300   25.2390   32.6290 N   0  0  0  0  0  0  0  0  0  0  0  0
   36.4580   27.2740   31.7700 N   0  0  0  0  0  0  0  0  0  0  0  0
   36.5970   27.9940   30.5140 C   0  0  0  0  0  0  0  0  0  0  0  0
   36.2150   29.3970   30.8280 C   0  0  0  0  0  0  0  0  0  0  0  0
   35.6900   29.3980   32.2530 C   0  0  0  0  0  0  0  0  0  0  0  0
   36.2910   28.1960   32.8930 C   0  0  0  0  0  0  0  0  0  0  0  0
   38.2020   23.4090   33.3230 H   0  0  0  0  0  0  0  0  0  0  0  0
   34.7940   23.1820   30.7160 H   0  0  0  0  0  0  0  0  0  0  0  0
   35.8290   27.5650   29.8140 H   0  0  0  0  0  0  0  0  0  0  0  0
   37.6260   27.8900   30.1080 H   0  0  0  0  0  0  0  0  0  0  0  0
   35.4230   29.7630   30.1100 H   0  0  0  0  0  0  0  0  0  0  0  0
   37.1110   30.0320   30.7180 H   0  0  0  0  0  0  0  0  0  0  0  0
   34.6010   29.4380   32.3290 H   0  0  0  0  0  0  0  0  0  0  0  0
   36.0890   30.3420   32.7270 H   0  0  0  0  0  0  0  0  0  0  0  0
   37.2640   28.3800   33.4020 H   0  0  0  0  0  0  0  0  0  0  0  0
   35.5310   27.7320   33.5620 H   0  0  0  0  0  0  0  0  0  0  0  0
   36.5500   21.6340   32.1510 C   0  0  0  0  0  3  0  0  0  0  0  0
   35.2100   21.1180   32.5890 C   0  0  0  0  0  2  0  0  0  0  0  0
   35.3870   19.6620   32.9590 C   0  0  0  0  0  2  0  0  0  0  0  0
   35.8400   18.8760   31.7790 C   0  0  0  0  0  2  0  0  0  0  0  0
   36.2820   19.6590   30.5960 C   0  0  0  0  0  2  0  0  0  0  0  0
   36.9520   20.9570   30.8660 C   0  0  0  0  0  2  0  0  0  0  0  0
  1 12  1  0  0  0  0
  2 22  1  0  0  0  0
  2  1  2  0  0  0  0
  3  2  1  0  0  0  0
  4  3  2  0  0  0  0
  4  5  1  0  0  0  0
  5  6  2  0  0  0  0
  6  1  1  0  0  0  0
  7  5  1  0  0  0  0
  7 11  1  0  0  0  0
  8  9  1  0  0  0  0
  8  7  1  0  0  0  0
  9 10  1  0  0  0  0
 10 18  1  0  0  0  0
 10 19  1  0  0  0  0
 10 11  1  0  0  0  0
 11 20  1  0  0  0  0
 11 21  1  0  0  0  0
 13  3  1  0  0  0  0
 14  8  1  0  0  0  0
 15  8  1  0  0  0  0
 16  9  1  0  0  0  0
 17  9  1  0  0  0  0
 22 23  1  0  0  0  0
 23 24  1  0  0  0  0
 25 24  1  0  0  0  0
 26 27  1  0  0  0  0
 26 25  1  0  0  0  0
 27 22  1  0  0  0  0
M  END
>  <minimizedAffinity>
-5.0957613

$$$$

 OpenBabel03272510073D

 27 29  0  0  0  0  0  0  0  0999 V2000
   35.6390   23.7030   31.1400 C   0  0  0  0  0  0  0  0  0  0  0  0
   36.5410   23.1330   32.0560 C   0  0  0  0  0  0  0  0  0  0  0  0
   37.3630   23.9950   32.8130 C   0  0  0  0  0  0  0  0  0  0  0  0
   37.2340   25.3300   32.6120 N   0  0  0  0  0  0  0  0  0  0  0  0
   36.3650   25.8430   31.7310 C   0  0  0  0  0  0  0  0  0  0  0  0
   35.5620   25.0470   30.9880 N   0  0  0  0  0  0  0  0  0  0  0  0
   36.2910   27.2710   31.5780 N   0  0  0  0  0  0  0  0  0  0  0  0
   35.9500   28.1780   32.6630 C   0  0  0  0  0  0  0  0  0  0  0  0
   36.2810   29.5350   32.1510 C   0  0  0  0  0  0  0  0  0  0  0  0
   36.9800   29.3390   30.8170 C   0  0  0  0  0  0  0  0  0  0  0  0
   36.5400   28.0010   30.3360 C   0  0  0  0  0  0  0  0  0  0  0  0
   34.9980   23.0690   30.5460 H   0  0  0  0  0  0  0  0  0  0  0  0
   38.0590   23.5660   33.5210 H   0  0  0  0  0  0  0  0  0  0  0  0
   36.6490   27.9370   33.5100 H   0  0  0  0  0  0  0  0  0  0  0  0
   34.8870   28.0590   32.9620 H   0  0  0  0  0  0  0  0  0  0  0  0
   36.9520   30.0800   32.8770 H   0  0  0  0  0  0  0  0  0  0  0  0
   35.3410   30.1030   32.0440 H   0  0  0  0  0  0  0  0  0  0  0  0
   38.0660   29.4560   30.8580 H   0  0  0  0  0  0  0  0  0  0  0  0
   36.5860   30.1530   30.1410 H   0  0  0  0  0  0  0  0  0  0  0  0
   35.6290   28.0160   29.6950 H   0  0  0  0  0  0  0  0  0  0  0  0
   37.4060   27.4960   29.8500 H   0  0  0  0  0  0  0  0  0  0  0  0
   36.5960   21.6590   32.1930 C   0  0  0  0  0  3  0  0  0  0  0  0
   35.2890   21.1540   32.7300 C   0  0  0  0  0  2  0  0  0  0  0  0
   35.4870   19.7020   33.1060 C   0  0  0  0  0  2  0  0  0  0  0  0
   35.8550   18.8990   31.9090 C   0  0  0  0  0  2  0  0  0  0  0  0
   36.2160   19.6650   30.6870 C   0  0  0  0  0  2  0  0  0  0  0  0
   36.9060   20.9630   30.8930 C   0  0  0  0  0  2  0  0  0  0  0  0
  1  2  1  0  0  0  0
  2 22  1  0  0  0  0
  2  3  2  0  0  0  0
  3 13  1  0  0  0  0
  4  3  1  0  0  0  0
  5  4  2  0  0  0  0
  6  1  2  0  0  0  0
  6  5  1  0  0  0  0
  7  5  1  0  0  0  0
  7  8  1  0  0  0  0
  8 15  1  0  0  0  0
  8 14  1  0  0  0  0
  9  8  1  0  0  0  0
  9 16  1  0  0  0  0
 10 18  1  0  0  0  0
 10  9  1  0  0  0  0
 11 10  1  0  0  0  0
 11  7  1  0  0  0  0
 12  1  1  0  0  0  0
 17  9  1  0  0  0  0
 19 10  1  0  0  0  0
 20 11  1  0  0  0  0
 21 11  1  0  0  0  0
 22 23  1  0  0  0  0
 23 24  1  0  0  0  0
 25 24  1  0  0  0  0
 26 27  1  0  0  0  0
 26 25  1  0  0  0  0
 27 22  1  0  0  0  0
M  END
>  <minimizedAffinity>
-5.0173502

$$$$

 OpenBabel03272510073D

 27 29  0  0  0  0  0  0  0  0999 V2000
   35.3770   29.8050   32.2470 C   0  0  0  0  0  0  0  0  0  0  0  0
   35.6640   29.9320   33.6170 C   0  0  0  0  0  0  0  0  0  0  0  0
   36.1610   28.8040   34.3060 C   0  0  0  0  0  0  0  0  0  0  0  0
   36.3330   27.6580   33.6020 N   0  0  0  0  0  0  0  0  0  0  0  0
   36.0500   27.5680   32.2960 C   0  0  0  0  0  0  0  0  0  0  0  0
   35.5720   28.6280   31.6040 N   0  0  0  0  0  0  0  0  0  0  0  0
   36.2600   26.3150   31.6230 N   0  0  0  0  0  0  0  0  0  0  0  0
   37.5550   25.6580   31.5360 C   0  0  0  0  0  0  0  0  0  0  0  0
   37.2610   24.2880   31.0360 C   0  0  0  0  0  0  0  0  0  0  0  0
   35.7490   24.1460   31.0160 C   0  0  0  0  0  0  0  0  0  0  0  0
   35.2250   25.5370   30.9420 C   0  0  0  0  0  0  0  0  0  0  0  0
   34.9950   30.6490   31.6940 H   0  0  0  0  0  0  0  0  0  0  0  0
   36.3860   28.8920   35.3600 H   0  0  0  0  0  0  0  0  0  0  0  0
   37.9420   25.5770   32.5890 H   0  0  0  0  0  0  0  0  0  0  0  0
   38.2490   26.2320   30.8870 H   0  0  0  0  0  0  0  0  0  0  0  0
   37.7260   23.5110   31.7110 H   0  0  0  0  0  0  0  0  0  0  0  0
   37.6980   24.1860   30.0280 H   0  0  0  0  0  0  0  0  0  0  0  0
   35.3420   23.5660   31.8490 H   0  0  0  0  0  0  0  0  0  0  0  0
   35.5050   23.5790   30.0710 H   0  0  0  0  0  0  0  0  0  0  0  0
   35.0610   25.9160   29.9080 H   0  0  0  0  0  0  0  0  0  0  0  0
   34.3150   25.6090   31.5820 H   0  0  0  0  0  0  0  0  0  0  0  0
   35.4380   31.2340   34.2850 C   0  0  0  0  0  3  0  0  0  0  0  0
   35.9480   31.1720   35.6950 C   0  0  0  0  0  2  0  0  0  0  0  0
   35.4530   32.4110   36.4090 C   0  0  0  0  0  2  0  0  0  0  0  0
   35.9920   33.6370   35.7580 C   0  0  0  0  0  2  0  0  0  0  0  0
   36.6480   33.4480   34.4390 C   0  0  0  0  0  2  0  0  0  0  0  0
   36.0960   32.3820   33.5640 C   0  0  0  0  0  2  0  0  0  0  0  0
  1  2  1  0  0  0  0
  2 22  1  0  0  0  0
  2  3  2  0  0  0  0
  3 13  1  0  0  0  0
  4  3  1  0  0  0  0
  5  4  2  0  0  0  0
  6  1  2  0  0  0  0
  6  5  1  0  0  0  0
  7  5  1  0  0  0  0
  8  7  1  0  0  0  0
  8 14  1  0  0  0  0
  9  8  1  0  0  0  0
  9 16  1  0  0  0  0
 10  9  1  0  0  0  0
 10 18  1  0  0  0  0
 11 10  1  0  0  0  0
 11 21  1  0  0  0  0
 11  7  1  0  0  0  0
 12  1  1  0  0  0  0
 15  8  1  0  0  0  0
 17  9  1  0  0  0  0
 19 10  1  0  0  0  0
 20 11  1  0  0  0  0
 22 23  1  0  0  0  0
 23 24  1  0  0  0  0
 25 24  1  0  0  0  0
 26 25  1  0  0  0  0
 27 22  1  0  0  0  0
 27 26  1  0  0  0  0
M  END
>  <minimizedAffinity>
-4.967031

$$$$

 OpenBabel03272510073D

 27 29  0  0  0  0  0  0  0  0999 V2000
   37.7140   24.9710   33.4440 C   0  0  0  0  0  0  0  0  0  0  0  0
   37.8500   25.1990   34.8250 C   0  0  0  0  0  0  0  0  0  0  0  0
   37.5120   26.4720   35.3320 C   0  0  0  0  0  0  0  0  0  0  0  0
   37.0730   27.4070   34.4530 N   0  0  0  0  0  0  0  0  0  0  0  0
   36.9540   27.1600   33.1410 C   0  0  0  0  0  0  0  0  0  0  0  0
   37.2690   25.9510   32.6210 N   0  0  0  0  0  0  0  0  0  0  0  0
   36.4810   28.2060   32.2760 N   0  0  0  0  0  0  0  0  0  0  0  0
   35.1820   28.8420   32.4220 C   0  0  0  0  0  0  0  0  0  0  0  0
   35.2330   30.0360   31.5370 C   0  0  0  0  0  0  0  0  0  0  0  0
   36.6620   30.1420   31.0300 C   0  0  0  0  0  0  0  0  0  0  0  0
   37.2220   28.7680   31.1470 C   0  0  0  0  0  0  0  0  0  0  0  0
   37.9650   24.0080   33.0280 H   0  0  0  0  0  0  0  0  0  0  0  0
   37.6130   26.6570   36.3920 H   0  0  0  0  0  0  0  0  0  0  0  0
   35.1170   29.1930   33.4890 H   0  0  0  0  0  0  0  0  0  0  0  0
   34.3620   28.1350   32.1730 H   0  0  0  0  0  0  0  0  0  0  0  0
   34.9420   30.9670   32.1070 H   0  0  0  0  0  0  0  0  0  0  0  0
   34.5140   29.8880   30.7130 H   0  0  0  0  0  0  0  0  0  0  0  0
   37.2600   30.9050   31.5340 H   0  0  0  0  0  0  0  0  0  0  0  0
   36.5820   30.4470   29.9460 H   0  0  0  0  0  0  0  0  0  0  0  0
   37.0970   28.1380   30.2370 H   0  0  0  0  0  0  0  0  0  0  0  0
   38.2820   28.8440   31.4820 H   0  0  0  0  0  0  0  0  0  0  0  0
   38.3400   24.1030   35.6930 C   0  0  0  0  0  3  0  0  0  0  0  0
   39.8350   24.1780   35.8020 C   0  0  0  0  0  2  0  0  0  0  0  0
   40.3040   22.8990   36.4600 C   0  0  0  0  0  2  0  0  0  0  0  0
   39.7290   22.7760   37.8280 C   0  0  0  0  0  2  0  0  0  0  0  0
   38.6430   23.7290   38.1740 C   0  0  0  0  0  2  0  0  0  0  0  0
   37.7350   24.1360   37.0720 C   0  0  0  0  0  2  0  0  0  0  0  0
  1  2  1  0  0  0  0
  2  3  2  0  0  0  0
  2 22  1  0  0  0  0
  3 13  1  0  0  0  0
  4  3  1  0  0  0  0
  5  4  2  0  0  0  0
  6  5  1  0  0  0  0
  6  1  2  0  0  0  0
  7  8  1  0  0  0  0
  7  5  1  0  0  0  0
  8 14  1  0  0  0  0
  9 16  1  0  0  0  0
  9  8  1  0  0  0  0
 10 11  1  0  0  0  0
 10 18  1  0  0  0  0
 10  9  1  0  0  0  0
 11 21  1  0  0  0  0
 11  7  1  0  0  0  0
 12  1  1  0  0  0  0
 15  8  1  0  0  0  0
 17  9  1  0  0  0  0
 19 10  1  0  0  0  0
 20 11  1  0  0  0  0
 22 23  1  0  0  0  0
 22 27  1  0  0  0  0
 23 24  1  0  0  0  0
 24 25  1  0  0  0  0
 25 26  1  0  0  0  0
 27 26  1  0  0  0  0
M  END
>  <minimizedAffinity>
-4.95594358

$$$$

 OpenBabel03272510073D

 27 29  0  0  0  0  0  0  0  0999 V2000
   38.2380   26.1490   35.5490 C   0  0  0  0  0  0  0  0  0  0  0  0
   38.2560   24.8850   34.9330 C   0  0  0  0  0  0  0  0  0  0  0  0
   37.6810   24.7570   33.6510 C   0  0  0  0  0  0  0  0  0  0  0  0
   37.1410   25.8650   33.0850 N   0  0  0  0  0  0  0  0  0  0  0  0
   37.1390   27.0560   33.6980 C   0  0  0  0  0  0  0  0  0  0  0  0
   37.6810   27.2160   34.9270 N   0  0  0  0  0  0  0  0  0  0  0  0
   36.5450   28.1820   33.0300 N   0  0  0  0  0  0  0  0  0  0  0  0
   37.0020   28.6820   31.7420 C   0  0  0  0  0  0  0  0  0  0  0  0
   35.9440   29.6310   31.2990 C   0  0  0  0  0  0  0  0  0  0  0  0
   34.8040   29.5080   32.2950 C   0  0  0  0  0  0  0  0  0  0  0  0
   35.4230   28.9700   33.5360 C   0  0  0  0  0  0  0  0  0  0  0  0
   38.6690   26.2780   36.5300 H   0  0  0  0  0  0  0  0  0  0  0  0
   37.6900   23.7890   33.1680 H   0  0  0  0  0  0  0  0  0  0  0  0
   37.0060   27.8020   31.0420 H   0  0  0  0  0  0  0  0  0  0  0  0
   38.0090   29.1430   31.8290 H   0  0  0  0  0  0  0  0  0  0  0  0
   35.5940   29.3740   30.2560 H   0  0  0  0  0  0  0  0  0  0  0  0
   36.3740   30.6470   31.2870 H   0  0  0  0  0  0  0  0  0  0  0  0
   33.9560   28.9190   31.9350 H   0  0  0  0  0  0  0  0  0  0  0  0
   34.4270   30.5600   32.4620 H   0  0  0  0  0  0  0  0  0  0  0  0
   35.7750   29.7470   34.2520 H   0  0  0  0  0  0  0  0  0  0  0  0
   34.7180   28.2410   33.9980 H   0  0  0  0  0  0  0  0  0  0  0  0
   38.8730   23.7430   35.6450 C   0  0  0  0  0  3  0  0  0  0  0  0
   40.3650   23.9120   35.6690 C   0  0  0  0  0  2  0  0  0  0  0  0
   40.9580   22.6080   36.1550 C   0  0  0  0  0  2  0  0  0  0  0  0
   40.4890   22.3030   37.5340 C   0  0  0  0  0  2  0  0  0  0  0  0
   39.3700   23.1360   38.0480 C   0  0  0  0  0  2  0  0  0  0  0  0
   38.3640   23.5900   37.0550 C   0  0  0  0  0  2  0  0  0  0  0  0
  1 12  1  0  0  0  0
  2  1  1  0  0  0  0
  2 22  1  0  0  0  0
  3  2  2  0  0  0  0
  4  3  1  0  0  0  0
  4  5  2  0  0  0  0
  5  6  1  0  0  0  0
  6  1  2  0  0  0  0
  7 11  1  0  0  0  0
  7  5  1  0  0  0  0
  8 15  1  0  0  0  0
  8  7  1  0  0  0  0
  9  8  1  0  0  0  0
  9 10  1  0  0  0  0
 10 19  1  0  0  0  0
 10 11  1  0  0  0  0
 11 21  1  0  0  0  0
 11 20  1  0  0  0  0
 13  3  1  0  0  0  0
 14  8  1  0  0  0  0
 16  9  1  0  0  0  0
 17  9  1  0  0  0  0
 18 10  1  0  0  0  0
 22 23  1  0  0  0  0
 22 27  1  0  0  0  0
 23 24  1  0  0  0  0
 24 25  1  0  0  0  0
 25 26  1  0  0  0  0
 27 26  1  0  0  0  0
M  END
>  <minimizedAffinity>
-4.91768456

$$$$

 OpenBabel03272510073D

 27 29  0  0  0  0  0  0  0  0999 V2000
   36.4710   28.5470   34.4550 C   0  0  0  0  0  0  0  0  0  0  0  0
   35.7330   29.4780   33.7040 C   0  0  0  0  0  0  0  0  0  0  0  0
   35.3640   29.1350   32.3850 C   0  0  0  0  0  0  0  0  0  0  0  0
   35.7460   27.9210   31.9170 N   0  0  0  0  0  0  0  0  0  0  0  0
   36.4500   27.0540   32.6580 C   0  0  0  0  0  0  0  0  0  0  0  0
   36.8200   27.3500   33.9250 N   0  0  0  0  0  0  0  0  0  0  0  0
   36.8150   25.7870   32.0860 N   0  0  0  0  0  0  0  0  0  0  0  0
   35.8460   24.8140   31.6070 C   0  0  0  0  0  0  0  0  0  0  0  0
   36.6440   23.8170   30.8430 C   0  0  0  0  0  0  0  0  0  0  0  0
   38.0610   24.3600   30.7640 C   0  0  0  0  0  0  0  0  0  0  0  0
   38.1840   25.3020   31.9100 C   0  0  0  0  0  0  0  0  0  0  0  0
   36.7680   28.7810   35.4650 H   0  0  0  0  0  0  0  0  0  0  0  0
   34.7960   29.8440   31.8000 H   0  0  0  0  0  0  0  0  0  0  0  0
   35.1770   25.3600   30.8860 H   0  0  0  0  0  0  0  0  0  0  0  0
   35.2710   24.3750   32.4500 H   0  0  0  0  0  0  0  0  0  0  0  0
   36.2140   23.6730   29.8090 H   0  0  0  0  0  0  0  0  0  0  0  0
   36.6020   22.8550   31.3800 H   0  0  0  0  0  0  0  0  0  0  0  0
   38.3160   24.8060   29.7990 H   0  0  0  0  0  0  0  0  0  0  0  0
   38.7400   23.4700   30.9070 H   0  0  0  0  0  0  0  0  0  0  0  0
   38.5650   24.8410   32.8490 H   0  0  0  0  0  0  0  0  0  0  0  0
   38.7820   26.1830   31.5830 H   0  0  0  0  0  0  0  0  0  0  0  0
   35.3710   30.7760   34.3170 C   0  0  0  0  0  3  0  0  0  0  0  0
   36.0100   30.8890   35.6710 C   0  0  0  0  0  2  0  0  0  0  0  0
   35.3980   32.0880   36.3610 C   0  0  0  0  0  2  0  0  0  0  0  0
   35.6810   33.3310   35.5930 C   0  0  0  0  0  2  0  0  0  0  0  0
   36.2370   33.1490   34.2260 C   0  0  0  0  0  2  0  0  0  0  0  0
   35.7780   31.9550   33.4720 C   0  0  0  0  0  2  0  0  0  0  0  0
  1 12  1  0  0  0  0
  2 22  1  0  0  0  0
  2  1  2  0  0  0  0
  3  2  1  0  0  0  0
  4  3  2  0  0  0  0
  4  5  1  0  0  0  0
  5  6  2  0  0  0  0
  6  1  1  0  0  0  0
  7  5  1  0  0  0  0
  8  7  1  0  0  0  0
  8 15  1  0  0  0  0
  9 17  1  0  0  0  0
  9  8  1  0  0  0  0
 10  9  1  0  0  0  0
 10 19  1  0  0  0  0
 10 11  1  0  0  0  0
 11  7  1  0  0  0  0
 11 20  1  0  0  0  0
 13  3  1  0  0  0  0
 14  8  1  0  0  0  0
 16  9  1  0  0  0  0
 18 10  1  0  0  0  0
 21 11  1  0  0  0  0
 22 23  1  0  0  0  0
 23 24  1  0  0  0  0
 25 24  1  0  0  0  0
 26 25  1  0  0  0  0
 27 26  1  0  0  0  0
 27 22  1  0  0  0  0
M  END
>  <minimizedAffinity>
-4.8725791

$$$$

 OpenBabel03272510073D

 27 29  0  0  0  0  0  0  0  0999 V2000
   37.7370   25.6900   33.1870 C   0  0  0  0  0  0  0  0  0  0  0  0
   38.6440   26.7490   33.0050 C   0  0  0  0  0  0  0  0  0  0  0  0
   39.7220   26.8710   33.9090 C   0  0  0  0  0  0  0  0  0  0  0  0
   39.8200   25.9560   34.9040 N   0  0  0  0  0  0  0  0  0  0  0  0
   38.9390   24.9570   35.0510 C   0  0  0  0  0  0  0  0  0  0  0  0
   37.8940   24.8100   34.2040 N   0  0  0  0  0  0  0  0  0  0  0  0
   39.1140   24.0280   36.1340 N   0  0  0  0  0  0  0  0  0  0  0  0
   40.2990   23.2010   36.2980 C   0  0  0  0  0  0  0  0  0  0  0  0
   40.1910   22.6370   37.6700 C   0  0  0  0  0  0  0  0  0  0  0  0
   39.0020   23.3150   38.3280 C   0  0  0  0  0  0  0  0  0  0  0  0
   38.1470   23.7850   37.2040 C   0  0  0  0  0  0  0  0  0  0  0  0
   36.9030   25.5720   32.5120 H   0  0  0  0  0  0  0  0  0  0  0  0
   40.4250   27.6820   33.7770 H   0  0  0  0  0  0  0  0  0  0  0  0
   41.1810   23.8990   36.2690 H   0  0  0  0  0  0  0  0  0  0  0  0
   40.3590   22.4300   35.5000 H   0  0  0  0  0  0  0  0  0  0  0  0
   41.1370   22.8340   38.2550 H   0  0  0  0  0  0  0  0  0  0  0  0
   40.0490   21.5460   37.5860 H   0  0  0  0  0  0  0  0  0  0  0  0
   39.2710   24.1040   39.0350 H   0  0  0  0  0  0  0  0  0  0  0  0
   38.4750   22.5090   38.9170 H   0  0  0  0  0  0  0  0  0  0  0  0
   37.3700   23.0560   36.8770 H   0  0  0  0  0  0  0  0  0  0  0  0
   37.7250   24.7810   37.4700 H   0  0  0  0  0  0  0  0  0  0  0  0
   38.4380   27.6920   31.8820 C   0  0  0  0  0  3  0  0  0  0  0  0
   38.6710   26.9810   30.5800 C   0  0  0  0  0  2  0  0  0  0  0  0
   38.7200   28.0330   29.4940 C   0  0  0  0  0  2  0  0  0  0  0  0
   37.4240   28.7630   29.4170 C   0  0  0  0  0  2  0  0  0  0  0  0
   36.4730   28.5350   30.5350 C   0  0  0  0  0  2  0  0  0  0  0  0
   37.0630   28.3060   31.8790 C   0  0  0  0  0  2  0  0  0  0  0  0
  1  6  1  0  0  0  0
  2  1  2  0  0  0  0
  2  3  1  0  0  0  0
  3  4  2  0  0  0  0
  4  5  1  0  0  0  0
  5  7  1  0  0  0  0
  6  5  2  0  0  0  0
  7  8  1  0  0  0  0
  7 11  1  0  0  0  0
  8  9  1  0  0  0  0
  9 16  1  0  0  0  0
  9 10  1  0  0  0  0
 10 19  1  0  0  0  0
 10 18  1  0  0  0  0
 11 21  1  0  0  0  0
 11 10  1  0  0  0  0
 12  1  1  0  0  0  0
 13  3  1  0  0  0  0
 14  8  1  0  0  0  0
 15  8  1  0  0  0  0
 17  9  1  0  0  0  0
 20 11  1  0  0  0  0
 22  2  1  0  0  0  0
 23 22  1  0  0  0  0
 24 23  1  0  0  0  0
 25 24  1  0  0  0  0
 25 26  1  0  0  0  0
 26 27  1  0  0  0  0
 27 22  1  0  0  0  0
M  END
>  <minimizedAffinity>
-4.83557606

$$$$

 OpenBabel03272510073D

 27 29  0  0  0  0  0  0  0  0999 V2000
   37.6520   25.5430   32.3580 C   0  0  0  0  0  0  0  0  0  0  0  0
   36.6880   26.3930   31.7890 C   0  0  0  0  0  0  0  0  0  0  0  0
   35.5490   25.8110   31.1920 C   0  0  0  0  0  0  0  0  0  0  0  0
   35.4500   24.4580   31.2030 N   0  0  0  0  0  0  0  0  0  0  0  0
   36.3870   23.6740   31.7530 C   0  0  0  0  0  0  0  0  0  0  0  0
   37.4910   24.1980   32.3330 N   0  0  0  0  0  0  0  0  0  0  0  0
   36.2070   22.2480   31.7220 N   0  0  0  0  0  0  0  0  0  0  0  0
   35.0730   21.5690   32.3300 C   0  0  0  0  0  0  0  0  0  0  0  0
   35.1310   20.1770   31.8090 C   0  0  0  0  0  0  0  0  0  0  0  0
   36.2270   20.1500   30.7570 C   0  0  0  0  0  0  0  0  0  0  0  0
   37.1180   21.2950   31.0890 C   0  0  0  0  0  0  0  0  0  0  0  0
   38.5340   25.9580   32.8210 H   0  0  0  0  0  0  0  0  0  0  0  0
   34.8010   26.4570   30.7530 H   0  0  0  0  0  0  0  0  0  0  0  0
   34.1490   22.0630   31.9210 H   0  0  0  0  0  0  0  0  0  0  0  0
   35.1170   21.6350   33.4380 H   0  0  0  0  0  0  0  0  0  0  0  0
   34.1390   19.8790   31.3600 H   0  0  0  0  0  0  0  0  0  0  0  0
   35.3540   19.5010   32.6520 H   0  0  0  0  0  0  0  0  0  0  0  0
   35.8600   20.1630   29.7280 H   0  0  0  0  0  0  0  0  0  0  0  0
   36.7690   19.1700   30.9020 H   0  0  0  0  0  0  0  0  0  0  0  0
   37.9620   21.0420   31.7700 H   0  0  0  0  0  0  0  0  0  0  0  0
   37.4520   21.7720   30.1400 H   0  0  0  0  0  0  0  0  0  0  0  0
   36.9000   27.8580   31.8350 C   0  0  0  0  0  3  0  0  0  0  0  0
   36.4850   28.4680   30.5270 C   0  0  0  0  0  2  0  0  0  0  0  0
   36.9700   29.9010   30.5240 C   0  0  0  0  0  2  0  0  0  0  0  0
   36.3370   30.6670   31.6320 C   0  0  0  0  0  2  0  0  0  0  0  0
   35.6050   29.8700   32.6510 C   0  0  0  0  0  2  0  0  0  0  0  0
   36.1460   28.5210   32.9580 C   0  0  0  0  0  2  0  0  0  0  0  0
  1 12  1  0  0  0  0
  2 22  1  0  0  0  0
  2  1  2  0  0  0  0
  3  4  2  0  0  0  0
  3  2  1  0  0  0  0
  4  5  1  0  0  0  0
  5  6  2  0  0  0  0
  6  1  1  0  0  0  0
  7  5  1  0  0  0  0
  7  8  1  0  0  0  0
  8 15  1  0  0  0  0
  9  8  1  0  0  0  0
  9 17  1  0  0  0  0
 10 19  1  0  0  0  0
 10 11  1  0  0  0  0
 10  9  1  0  0  0  0
 11  7  1  0  0  0  0
 11 20  1  0  0  0  0
 13  3  1  0  0  0  0
 14  8  1  0  0  0  0
 16  9  1  0  0  0  0
 18 10  1  0  0  0  0
 21 11  1  0  0  0  0
 22 27  1  0  0  0  0
 23 22  1  0  0  0  0
 24 23  1  0  0  0  0
 24 25  1  0  0  0  0
 25 26  1  0  0  0  0
 26 27  1  0  0  0  0
M  END
>  <minimizedAffinity>
-4.81895542

$$$$

 OpenBabel03272510073D

 27 29  0  0  0  0  0  0  0  0999 V2000
   37.7210   24.2920   32.9190 C   0  0  0  0  0  0  0  0  0  0  0  0
   36.8220   25.0390   32.1370 C   0  0  0  0  0  0  0  0  0  0  0  0
   35.7840   24.3540   31.4690 C   0  0  0  0  0  0  0  0  0  0  0  0
   35.7140   23.0080   31.6210 N   0  0  0  0  0  0  0  0  0  0  0  0
   36.5860   22.3240   32.3740 C   0  0  0  0  0  0  0  0  0  0  0  0
   37.5930   22.9470   33.0280 N   0  0  0  0  0  0  0  0  0  0  0  0
   36.4430   20.8970   32.4820 N   0  0  0  0  0  0  0  0  0  0  0  0
   35.2540   20.2490   33.0130 C   0  0  0  0  0  0  0  0  0  0  0  0
   35.4100   18.8100   32.6660 C   0  0  0  0  0  0  0  0  0  0  0  0
   36.6350   18.7080   31.7740 C   0  0  0  0  0  0  0  0  0  0  0  0
   37.4490   19.9140   32.0860 C   0  0  0  0  0  0  0  0  0  0  0  0
   38.5250   24.7870   33.4410 H   0  0  0  0  0  0  0  0  0  0  0  0
   35.0880   24.9190   30.8660 H   0  0  0  0  0  0  0  0  0  0  0  0
   34.3810   20.6610   32.4340 H   0  0  0  0  0  0  0  0  0  0  0  0
   35.1490   20.4380   34.1030 H   0  0  0  0  0  0  0  0  0  0  0  0
   34.4920   18.4300   32.1300 H   0  0  0  0  0  0  0  0  0  0  0  0
   35.5330   18.2400   33.6030 H   0  0  0  0  0  0  0  0  0  0  0  0
   36.4070   18.5930   30.7110 H   0  0  0  0  0  0  0  0  0  0  0  0
   37.1740   17.7700   32.0980 H   0  0  0  0  0  0  0  0  0  0  0  0
   38.2020   19.7680   32.8940 H   0  0  0  0  0  0  0  0  0  0  0  0
   37.8960   20.2950   31.1390 H   0  0  0  0  0  0  0  0  0  0  0  0
   36.9950   26.5070   32.0430 C   0  0  0  0  0  3  0  0  0  0  0  0
   35.9760   27.0730   31.0970 C   0  0  0  0  0  2  0  0  0  0  0  0
   36.3630   28.5100   30.8260 C   0  0  0  0  0  2  0  0  0  0  0  0
   36.3390   29.3020   32.0850 C   0  0  0  0  0  2  0  0  0  0  0  0
   36.2230   28.5280   33.3490 C   0  0  0  0  0  2  0  0  0  0  0  0
   36.8760   27.1950   33.3780 C   0  0  0  0  0  2  0  0  0  0  0  0
  1  6  1  0  0  0  0
  1 12  1  0  0  0  0
  2  1  2  0  0  0  0
  3  4  2  0  0  0  0
  3  2  1  0  0  0  0
  4  5  1  0  0  0  0
  5  7  1  0  0  0  0
  5  6  2  0  0  0  0
  7  8  1  0  0  0  0
  8 15  1  0  0  0  0
  9  8  1  0  0  0  0
  9 17  1  0  0  0  0
 10 11  1  0  0  0  0
 10 19  1  0  0  0  0
 10  9  1  0  0  0  0
 11  7  1  0  0  0  0
 11 20  1  0  0  0  0
 13  3  1  0  0  0  0
 14  8  1  0  0  0  0
 16  9  1  0  0  0  0
 18 10  1  0  0  0  0
 21 11  1  0  0  0  0
 22  2  1  0  0  0  0
 22 27  1  0  0  0  0
 23 22  1  0  0  0  0
 24 23  1  0  0  0  0
 24 25  1  0  0  0  0
 25 26  1  0  0  0  0
 26 27  1  0  0  0  0
M  END
>  <minimizedAffinity>
-4.77206373

$$$$
