
 OpenBabel03272505123D

 36 39  0  0  0  0  0  0  0  0999 V2000
   36.4180   30.8980   45.7080 Cl  0  0  0  0  0  0  0  0  0  0  0  0
   36.6950   30.7860   47.4250 C   0  0  0  0  0  0  0  0  0  0  0  0
   37.9540   31.1280   47.8820 C   0  0  0  0  0  0  0  0  0  0  0  0
   38.1870   31.0420   49.2500 C   0  0  0  0  0  0  0  0  0  0  0  0
   37.1770   30.6290   50.0890 C   0  0  0  0  0  0  0  0  0  0  0  0
   35.9400   30.3030   49.5520 C   0  0  0  0  0  0  0  0  0  0  0  0
   35.6420   30.3650   48.2160 C   0  0  0  0  0  0  0  0  0  0  0  0
   39.1670   31.3050   49.6300 H   0  0  0  0  0  0  0  0  0  0  0  0
   37.3190   30.5500   51.1570 H   0  0  0  0  0  0  0  0  0  0  0  0
   35.1700   29.9810   50.2490 H   0  0  0  0  0  0  0  0  0  0  0  0
   40.2280   33.3290   46.0880 C   0  0  0  0  0  0  0  0  0  0  0  0
   40.9390   32.4790   45.2300 C   0  0  0  0  0  0  0  0  0  0  0  0
   40.6160   31.1110   45.2810 C   0  0  0  0  0  0  0  0  0  0  0  0
   39.6450   30.6980   46.1500 N   0  0  0  0  0  0  0  0  0  0  0  0
   39.0030   31.5650   46.9430 C   0  0  0  0  0  0  0  0  0  0  0  0
   39.2840   32.8680   46.9210 N   0  0  0  0  0  0  0  0  0  0  0  0
   40.5260   34.3640   45.9970 H   0  0  0  0  0  0  0  0  0  0  0  0
   41.7090   32.8550   44.5510 H   0  0  0  0  0  0  0  0  0  0  0  0
   41.1160   30.4100   44.6590 H   0  0  0  0  0  0  0  0  0  0  0  0
   34.0740   29.9540   47.5230 S   0  0  0  0  0  0  0  0  0  0  0  0
   34.0050   29.1450   44.4820 Cl  0  0  0  0  0  0  0  0  0  0  0  0
   33.9320   27.9350   45.7440 C   0  0  0  0  0  0  0  0  0  0  0  0
   33.9560   28.2120   47.1190 C   0  0  0  0  0  0  0  0  0  0  0  0
   33.8920   27.1790   48.0140 C   0  0  0  0  0  0  0  0  0  0  0  0
   33.8030   25.8790   47.5880 C   0  0  0  0  0  0  0  0  0  0  0  0
   33.7760   25.5660   46.2350 C   0  0  0  0  0  0  0  0  0  0  0  0
   33.8410   26.6010   45.3460 C   0  0  0  0  0  0  0  0  0  0  0  0
   33.9200   27.5150   49.0520 H   0  0  0  0  0  0  0  0  0  0  0  0
   33.7570   25.1110   48.3210 H   0  0  0  0  0  0  0  0  0  0  0  0
   33.7050   24.5220   45.9590 H   0  0  0  0  0  0  0  0  0  0  0  0
   33.8110   26.2650   43.8970 C   0  0  0  0  0  3  0  0  0  0  0  0
   32.8060   25.2030   43.5780 C   0  0  0  0  0  2  0  0  0  0  0  0
   32.7450   24.9880   42.1000 C   0  0  0  0  0  2  0  0  0  0  0  0
   33.7540   25.8170   41.3410 C   0  0  0  0  0  2  0  0  0  0  0  0
   35.1390   25.7240   41.8970 C   0  0  0  0  0  2  0  0  0  0  0  0
   35.1720   25.8380   43.4040 C   0  0  0  0  0  2  0  0  0  0  0  0
  1  2  1  0  0  0  0
  2  3  2  0  0  0  0
  2  7  1  0  0  0  0
  3  4  1  0  0  0  0
  4  8  1  0  0  0  0
  4  5  2  0  0  0  0
  5  9  1  0  0  0  0
  6  5  1  0  0  0  0
  6 10  1  0  0  0  0
  7  6  2  0  0  0  0
 11 16  1  0  0  0  0
 12 13  1  0  0  0  0
 12 11  2  0  0  0  0
 13 14  2  0  0  0  0
 14 15  1  0  0  0  0
 15  3  1  0  0  0  0
 16 15  2  0  0  0  0
 17 11  1  0  0  0  0
 18 12  1  0  0  0  0
 19 13  1  0  0  0  0
 20  7  1  0  0  0  0
 21 22  1  0  0  0  0
 22 23  1  0  0  0  0
 23 20  1  0  0  0  0
 23 24  2  0  0  0  0
 24 28  1  0  0  0  0
 25 24  1  0  0  0  0
 25 29  1  0  0  0  0
 26 25  2  0  0  0  0
 27 22  2  0  0  0  0
 27 26  1  0  0  0  0
 30 26  1  0  0  0  0
 31 27  1  0  0  0  0
 32 31  1  0  0  0  0
 33 32  1  0  0  0  0
 34 35  1  0  0  0  0
 34 33  1  0  0  0  0
 35 36  1  0  0  0  0
 36 31  1  0  0  0  0
M  END
>  <minimizedAffinity>
-5.74577951

>  <minimizedRMSD>
0.918283403

$$$$
