
 OpenBabel03272508053D

 32 35  0  0  0  0  0  0  0  0999 V2000
   38.9010   30.8710   45.7380 C   0  0  0  0  0  0  0  0  0  0  0  0
   40.1300   31.4470   45.9990 C   0  0  0  0  0  0  0  0  0  0  0  0
   40.9500   31.3980   44.8650 C   0  0  0  0  0  0  0  0  0  0  0  0
   40.1700   30.7860   43.9600 N   0  0  0  0  0  0  0  0  0  0  0  0
   38.9760   30.4770   44.4630 N   0  0  0  0  0  0  0  0  0  0  0  0
   40.4600   31.8920   46.9430 H   0  0  0  0  0  0  0  0  0  0  0  0
   41.9500   31.7390   44.6930 H   0  0  0  0  0  0  0  0  0  0  0  0
   37.7960   30.7410   46.6690 C   0  0  0  0  0  0  0  0  0  0  0  0
   38.0310   30.9860   48.0370 C   0  0  0  0  0  0  0  0  0  0  0  0
   36.9590   30.8590   48.9150 C   0  0  0  0  0  0  0  0  0  0  0  0
   35.7420   30.5030   48.4000 N   0  0  0  0  0  0  0  0  0  0  0  0
   35.5400   30.2730   47.0800 C   0  0  0  0  0  0  0  0  0  0  0  0
   36.5770   30.3960   46.2260 N   0  0  0  0  0  0  0  0  0  0  0  0
   39.0040   31.2650   48.4140 H   0  0  0  0  0  0  0  0  0  0  0  0
   34.5540   29.9970   46.7430 H   0  0  0  0  0  0  0  0  0  0  0  0
   37.1750   31.1090   50.3620 C   0  0  0  0  0  0  0  0  0  0  0  0
   36.6650   32.3600   50.6070 F   0  0  0  0  0  0  0  0  0  0  0  0
   36.5160   30.1860   51.1730 F   0  0  0  0  0  0  0  0  0  0  0  0
   38.5300   31.1250   50.6830 F   0  0  0  0  0  0  0  0  0  0  0  0
   40.4770   30.4480   42.5650 C   0  0  0  0  0  0  0  0  0  0  0  0
   40.1030   31.2850   41.5020 C   0  0  0  0  0  0  0  0  0  0  0  0
   40.3970   30.9360   40.2450 C   0  0  0  0  0  0  0  0  0  0  0  0
   41.0910   29.7120   39.9990 C   0  0  0  0  0  0  0  0  0  0  0  0
   41.3110   29.0580   41.7330 S   0  0  0  0  0  0  0  0  0  0  0  0
   39.5710   32.2250   41.6650 H   0  0  0  0  0  0  0  0  0  0  0  0
   40.1850   31.4550   39.3210 H   0  0  0  0  0  0  0  0  0  0  0  0
   41.5580   29.0320   38.8570 C   0  0  0  0  0  3  0  0  0  0  0  0
   41.4180   29.9270   37.6700 C   0  0  0  0  0  2  0  0  0  0  0  0
   42.7750   30.4770   37.2260 C   0  0  0  0  0  2  0  0  0  0  0  0
   43.5450   29.2630   36.6980 C   0  0  0  0  0  2  0  0  0  0  0  0
   43.6650   28.2060   37.7710 C   0  0  0  0  0  2  0  0  0  0  0  0
   42.9980   28.6130   39.0570 C   0  0  0  0  0  2  0  0  0  0  0  0
  1  2  1  0  0  0  0
  1  8  1  0  0  0  0
  2  6  1  0  0  0  0
  3  2  2  0  0  0  0
  4  5  1  0  0  0  0
  4  3  1  0  0  0  0
  5  1  2  0  0  0  0
  7  3  1  0  0  0  0
  8  9  1  0  0  0  0
  9 14  1  0  0  0  0
  9 10  2  0  0  0  0
 10 16  1  0  0  0  0
 11 10  1  0  0  0  0
 12 11  2  0  0  0  0
 13  8  2  0  0  0  0
 13 12  1  0  0  0  0
 15 12  1  0  0  0  0
 16 17  1  0  0  0  0
 16 19  1  0  0  0  0
 16 18  1  0  0  0  0
 20  4  1  0  0  0  0
 21 25  1  0  0  0  0
 21 20  2  0  0  0  0
 22 21  1  0  0  0  0
 23 22  2  0  0  0  0
 23 24  1  0  0  0  0
 24 20  1  0  0  0  0
 26 22  1  0  0  0  0
 27 32  1  0  0  0  0
 27 23  1  0  0  0  0
 28 27  1  0  0  0  0
 29 28  1  0  0  0  0
 30 29  1  0  0  0  0
 30 31  1  0  0  0  0
 31 32  1  0  0  0  0
M  END
>  <minimizedAffinity>
-6.23903322

>  <minimizedRMSD>
0.214919135

$$$$
