
 OpenBabel03262520083D

 15 16  0  0  0  0  0  0  0  0999 V2000
   39.0050   23.2010   38.2930 C   0  0  0  0  0  0  0  0  0  0  0  0
   40.1580   22.6330   37.7000 C   0  0  0  0  0  0  0  0  0  0  0  0
   40.5030   23.0590   36.3980 C   0  0  0  0  0  0  0  0  0  0  0  0
   39.7030   23.9890   35.8020 N   0  0  0  0  0  0  0  0  0  0  0  0
   38.6100   24.5090   36.4030 C   0  0  0  0  0  0  0  0  0  0  0  0
   38.2690   24.1100   37.6470 N   0  0  0  0  0  0  0  0  0  0  0  0
   38.8160   22.8120   39.3020 H   0  0  0  0  0  0  0  0  0  0  0  0
   40.8020   21.9020   38.1460 H   0  0  0  0  0  0  0  0  0  0  0  0
   41.3760   22.6560   35.8990 H   0  0  0  0  0  0  0  0  0  0  0  0
   37.7860   25.5210   35.6860 C   0  0  0  0  0  3  0  0  0  0  0  0
   38.2490   26.8740   36.1610 C   0  0  0  0  0  2  0  0  0  0  0  0
   37.8180   28.0190   35.3120 C   0  0  0  0  0  2  0  0  0  0  0  0
   36.7630   27.5060   34.3490 C   0  0  0  0  0  2  0  0  0  0  0  0
   37.4750   26.5430   33.4200 C   0  0  0  0  0  2  0  0  0  0  0  0
   37.8810   25.3260   34.2140 C   0  0  0  0  0  2  0  0  0  0  0  0
  1  7  1  0  0  0  0
  2  8  1  0  0  0  0
  2  1  1  0  0  0  0
  3  2  2  0  0  0  0
  4  3  1  0  0  0  0
  4  5  2  0  0  0  0
  5  6  1  0  0  0  0
  6  1  2  0  0  0  0
  9  3  1  0  0  0  0
 10 11  1  0  0  0  0
 10  5  1  0  0  0  0
 12 11  1  0  0  0  0
 13 12  1  0  0  0  0
 14 15  1  0  0  0  0
 14 13  1  0  0  0  0
 15 10  1  0  0  0  0
M  END
>  <minimizedAffinity>
-4.08146715

$$$$

 OpenBabel03262520083D

 15 16  0  0  0  0  0  0  0  0999 V2000
   40.3230   22.9660   36.4520 C   0  0  0  0  0  0  0  0  0  0  0  0
   40.0260   22.6050   37.7880 C   0  0  0  0  0  0  0  0  0  0  0  0
   38.9360   23.2510   38.4140 C   0  0  0  0  0  0  0  0  0  0  0  0
   38.2450   24.1760   37.6880 N   0  0  0  0  0  0  0  0  0  0  0  0
   38.5600   24.4920   36.4130 C   0  0  0  0  0  0  0  0  0  0  0  0
   39.6000   23.8820   35.8040 N   0  0  0  0  0  0  0  0  0  0  0  0
   41.1830   22.4140   36.0490 H   0  0  0  0  0  0  0  0  0  0  0  0
   40.5520   21.8820   38.3790 H   0  0  0  0  0  0  0  0  0  0  0  0
   38.6660   23.0100   39.4350 H   0  0  0  0  0  0  0  0  0  0  0  0
   37.7580   25.5150   35.6870 C   0  0  0  0  0  3  0  0  0  0  0  0
   38.2520   26.8610   36.1490 C   0  0  0  0  0  2  0  0  0  0  0  0
   37.8450   28.0080   35.2910 C   0  0  0  0  0  2  0  0  0  0  0  0
   36.7780   27.5100   34.3330 C   0  0  0  0  0  2  0  0  0  0  0  0
   37.4680   26.5240   33.4120 C   0  0  0  0  0  2  0  0  0  0  0  0
   37.8470   25.3050   34.2170 C   0  0  0  0  0  2  0  0  0  0  0  0
  1  2  1  0  0  0  0
  2  8  1  0  0  0  0
  2  3  2  0  0  0  0
  3  9  1  0  0  0  0
  4  3  1  0  0  0  0
  5  4  2  0  0  0  0
  6  5  1  0  0  0  0
  6  1  2  0  0  0  0
  7  1  1  0  0  0  0
 10 11  1  0  0  0  0
 10  5  1  0  0  0  0
 12 11  1  0  0  0  0
 13 12  1  0  0  0  0
 14 15  1  0  0  0  0
 14 13  1  0  0  0  0
 15 10  1  0  0  0  0
M  END
>  <minimizedAffinity>
-4.07264853

$$$$

 OpenBabel03262520083D

 15 16  0  0  0  0  0  0  0  0999 V2000
   35.4300   26.5100   31.1860 C   0  0  0  0  0  0  0  0  0  0  0  0
   35.0010   25.2100   30.8280 C   0  0  0  0  0  0  0  0  0  0  0  0
   35.6750   24.1130   31.4130 C   0  0  0  0  0  0  0  0  0  0  0  0
   36.6910   24.3830   32.2820 N   0  0  0  0  0  0  0  0  0  0  0  0
   37.0700   25.6410   32.5990 C   0  0  0  0  0  0  0  0  0  0  0  0
   36.4350   26.6970   32.0460 N   0  0  0  0  0  0  0  0  0  0  0  0
   34.8510   27.2960   30.6850 H   0  0  0  0  0  0  0  0  0  0  0  0
   34.2070   24.9710   30.1500 H   0  0  0  0  0  0  0  0  0  0  0  0
   35.3850   23.0970   31.1730 H   0  0  0  0  0  0  0  0  0  0  0  0
   38.1910   25.8530   33.5550 C   0  0  0  0  0  3  0  0  0  0  0  0
   39.2790   26.5670   32.7970 C   0  0  0  0  0  2  0  0  0  0  0  0
   40.3290   27.1960   33.6460 C   0  0  0  0  0  2  0  0  0  0  0  0
   40.1510   26.6730   35.0600 C   0  0  0  0  0  2  0  0  0  0  0  0
   38.8290   27.2300   35.5500 C   0  0  0  0  0  2  0  0  0  0  0  0
   37.7170   26.5770   34.7660 C   0  0  0  0  0  2  0  0  0  0  0  0
  1  6  1  0  0  0  0
  2  1  2  0  0  0  0
  2  3  1  0  0  0  0
  3  4  2  0  0  0  0
  4  5  1  0  0  0  0
  5 10  1  0  0  0  0
  6  5  2  0  0  0  0
  7  1  1  0  0  0  0
  8  2  1  0  0  0  0
  9  3  1  0  0  0  0
 10 15  1  0  0  0  0
 11 10  1  0  0  0  0
 11 12  1  0  0  0  0
 12 13  1  0  0  0  0
 13 14  1  0  0  0  0
 15 14  1  0  0  0  0
M  END
>  <minimizedAffinity>
-4.03075314

$$$$

 OpenBabel03262520083D

 15 16  0  0  0  0  0  0  0  0999 V2000
   37.1140   27.4890   34.5770 C   0  0  0  0  0  0  0  0  0  0  0  0
   36.7920   27.0080   33.2850 C   0  0  0  0  0  0  0  0  0  0  0  0
   37.1940   25.6930   32.9560 C   0  0  0  0  0  0  0  0  0  0  0  0
   37.8630   24.9790   33.9060 N   0  0  0  0  0  0  0  0  0  0  0  0
   38.1500   25.4750   35.1300 C   0  0  0  0  0  0  0  0  0  0  0  0
   37.7720   26.7300   35.4560 N   0  0  0  0  0  0  0  0  0  0  0  0
   36.7630   28.5160   34.7420 H   0  0  0  0  0  0  0  0  0  0  0  0
   36.2680   27.5480   32.5230 H   0  0  0  0  0  0  0  0  0  0  0  0
   36.9710   25.2770   31.9820 H   0  0  0  0  0  0  0  0  0  0  0  0
   38.8850   24.6320   36.1130 C   0  0  0  0  0  3  0  0  0  0  0  0
   38.0110   24.5290   37.3360 C   0  0  0  0  0  2  0  0  0  0  0  0
   38.3850   23.4450   38.2860 C   0  0  0  0  0  2  0  0  0  0  0  0
   39.7540   22.9280   37.8790 C   0  0  0  0  0  2  0  0  0  0  0  0
   39.5660   22.2570   36.5340 C   0  0  0  0  0  2  0  0  0  0  0  0
   39.2470   23.3200   35.5110 C   0  0  0  0  0  2  0  0  0  0  0  0
  1  7  1  0  0  0  0
  1  6  1  0  0  0  0
  2  1  2  0  0  0  0
  3  2  1  0  0  0  0
  3  4  2  0  0  0  0
  4  5  1  0  0  0  0
  5  6  2  0  0  0  0
  5 10  1  0  0  0  0
  8  2  1  0  0  0  0
  9  3  1  0  0  0  0
 10 11  1  0  0  0  0
 11 12  1  0  0  0  0
 13 12  1  0  0  0  0
 14 13  1  0  0  0  0
 15 10  1  0  0  0  0
 15 14  1  0  0  0  0
M  END
>  <minimizedAffinity>
-3.9165163

$$$$

 OpenBabel03262520083D

 15 16  0  0  0  0  0  0  0  0999 V2000
   37.5900   24.6370   32.4880 C   0  0  0  0  0  0  0  0  0  0  0  0
   36.8840   25.6730   31.8300 C   0  0  0  0  0  0  0  0  0  0  0  0
   35.6620   25.3390   31.2040 C   0  0  0  0  0  0  0  0  0  0  0  0
   35.2460   24.0420   31.2780 N   0  0  0  0  0  0  0  0  0  0  0  0
   35.9490   23.0810   31.9180 C   0  0  0  0  0  0  0  0  0  0  0  0
   37.1190   23.3880   32.5190 N   0  0  0  0  0  0  0  0  0  0  0  0
   38.5240   24.9890   32.9430 H   0  0  0  0  0  0  0  0  0  0  0  0
   37.1890   26.6980   31.7580 H   0  0  0  0  0  0  0  0  0  0  0  0
   35.0830   26.0940   30.6880 H   0  0  0  0  0  0  0  0  0  0  0  0
   35.4280   21.6870   31.9530 C   0  0  0  0  0  3  0  0  0  0  0  0
   36.1400   20.9310   30.8610 C   0  0  0  0  0  2  0  0  0  0  0  0
   36.0410   19.4480   30.9570 C   0  0  0  0  0  2  0  0  0  0  0  0
   34.9790   19.1230   31.9920 C   0  0  0  0  0  2  0  0  0  0  0  0
   35.5330   19.5910   33.3230 C   0  0  0  0  0  2  0  0  0  0  0  0
   35.5950   21.0990   33.3100 C   0  0  0  0  0  2  0  0  0  0  0  0
  1  6  1  0  0  0  0
  1  7  1  0  0  0  0
  2  1  2  0  0  0  0
  3  4  2  0  0  0  0
  3  2  1  0  0  0  0
  4  5  1  0  0  0  0
  5 10  1  0  0  0  0
  5  6  2  0  0  0  0
  8  2  1  0  0  0  0
  9  3  1  0  0  0  0
 10 15  1  0  0  0  0
 11 12  1  0  0  0  0
 11 10  1  0  0  0  0
 12 13  1  0  0  0  0
 13 14  1  0  0  0  0
 15 14  1  0  0  0  0
M  END
>  <minimizedAffinity>
-3.90245628

$$$$

 OpenBabel03262520083D

 15 16  0  0  0  0  0  0  0  0999 V2000
   35.9650   23.7490   31.5940 C   0  0  0  0  0  0  0  0  0  0  0  0
   35.0790   24.6270   30.9260 C   0  0  0  0  0  0  0  0  0  0  0  0
   35.2920   26.0160   31.0810 C   0  0  0  0  0  0  0  0  0  0  0  0
   36.3360   26.4140   31.8640 N   0  0  0  0  0  0  0  0  0  0  0  0
   37.1610   25.5420   32.4850 C   0  0  0  0  0  0  0  0  0  0  0  0
   36.9680   24.2130   32.3440 N   0  0  0  0  0  0  0  0  0  0  0  0
   35.7240   22.6930   31.4150 H   0  0  0  0  0  0  0  0  0  0  0  0
   34.2530   24.3410   30.3070 H   0  0  0  0  0  0  0  0  0  0  0  0
   34.6430   26.7310   30.5910 H   0  0  0  0  0  0  0  0  0  0  0  0
   38.2790   26.0550   33.3230 C   0  0  0  0  0  3  0  0  0  0  0  0
   37.6660   26.9790   34.3440 C   0  0  0  0  0  2  0  0  0  0  0  0
   38.5460   27.3120   35.4990 C   0  0  0  0  0  2  0  0  0  0  0  0
   39.9490   26.8420   35.1590 C   0  0  0  0  0  2  0  0  0  0  0  0
   39.8840   25.3290   35.1050 C   0  0  0  0  0  2  0  0  0  0  0  0
   39.0550   24.9290   33.9100 C   0  0  0  0  0  2  0  0  0  0  0  0
  1  6  1  0  0  0  0
  2  3  1  0  0  0  0
  2  1  2  0  0  0  0
  3  4  2  0  0  0  0
  4  5  1  0  0  0  0
  5 10  1  0  0  0  0
  6  5  2  0  0  0  0
  7  1  1  0  0  0  0
  8  2  1  0  0  0  0
  9  3  1  0  0  0  0
 10 15  1  0  0  0  0
 10 11  1  0  0  0  0
 11 12  1  0  0  0  0
 13 12  1  0  0  0  0
 14 13  1  0  0  0  0
 15 14  1  0  0  0  0
M  END
>  <minimizedAffinity>
-3.79969144

$$$$

 OpenBabel03262520083D

 15 16  0  0  0  0  0  0  0  0999 V2000
   37.6690   27.4950   35.3300 C   0  0  0  0  0  0  0  0  0  0  0  0
   37.0980   27.4850   34.0360 C   0  0  0  0  0  0  0  0  0  0  0  0
   37.1370   26.2720   33.3110 C   0  0  0  0  0  0  0  0  0  0  0  0
   37.7220   25.1950   33.9090 N   0  0  0  0  0  0  0  0  0  0  0  0
   38.2550   25.2440   35.1500 C   0  0  0  0  0  0  0  0  0  0  0  0
   38.2240   26.3980   35.8520 N   0  0  0  0  0  0  0  0  0  0  0  0
   37.5920   28.4760   35.8160 H   0  0  0  0  0  0  0  0  0  0  0  0
   36.6340   28.3160   33.5440 H   0  0  0  0  0  0  0  0  0  0  0  0
   36.7140   26.2110   32.3160 H   0  0  0  0  0  0  0  0  0  0  0  0
   38.8770   24.0240   35.7340 C   0  0  0  0  0  3  0  0  0  0  0  0
   40.3490   24.0940   35.4180 C   0  0  0  0  0  2  0  0  0  0  0  0
   41.2060   23.1730   36.2140 C   0  0  0  0  0  2  0  0  0  0  0  0
   40.2920   22.1940   36.9290 C   0  0  0  0  0  2  0  0  0  0  0  0
   39.5090   23.0110   37.9370 C   0  0  0  0  0  2  0  0  0  0  0  0
   38.5700   23.9230   37.1860 C   0  0  0  0  0  2  0  0  0  0  0  0
  1  7  1  0  0  0  0
  1  6  1  0  0  0  0
  2  1  2  0  0  0  0
  3  4  2  0  0  0  0
  3  2  1  0  0  0  0
  4  5  1  0  0  0  0
  5 10  1  0  0  0  0
  5  6  2  0  0  0  0
  8  2  1  0  0  0  0
  9  3  1  0  0  0  0
 10 15  1  0  0  0  0
 11 10  1  0  0  0  0
 11 12  1  0  0  0  0
 12 13  1  0  0  0  0
 13 14  1  0  0  0  0
 15 14  1  0  0  0  0
M  END
>  <minimizedAffinity>
-3.7843411

$$$$

 OpenBabel03262520083D

 15 16  0  0  0  0  0  0  0  0999 V2000
   31.2690   28.9860   33.5870 C   0  0  0  0  0  0  0  0  0  0  0  0
   30.8320   28.1250   34.6210 C   0  0  0  0  0  0  0  0  0  0  0  0
   31.3830   28.3140   35.9090 C   0  0  0  0  0  0  0  0  0  0  0  0
   32.2970   29.3140   36.0670 N   0  0  0  0  0  0  0  0  0  0  0  0
   32.6880   30.1170   35.0530 C   0  0  0  0  0  0  0  0  0  0  0  0
   32.1690   29.9460   33.8180 N   0  0  0  0  0  0  0  0  0  0  0  0
   30.7890   28.7660   32.6250 H   0  0  0  0  0  0  0  0  0  0  0  0
   30.1160   27.3330   34.5230 H   0  0  0  0  0  0  0  0  0  0  0  0
   31.0810   27.6810   36.7350 H   0  0  0  0  0  0  0  0  0  0  0  0
   33.6920   31.1860   35.3060 C   0  0  0  0  0  3  0  0  0  0  0  0
   33.4150   31.7230   36.6860 C   0  0  0  0  0  2  0  0  0  0  0  0
   34.5160   32.5350   37.2770 C   0  0  0  0  0  2  0  0  0  0  0  0
   35.5090   32.8380   36.1690 C   0  0  0  0  0  2  0  0  0  0  0  0
   36.1300   31.5100   35.7870 C   0  0  0  0  0  2  0  0  0  0  0  0
   35.0730   30.6640   35.1210 C   0  0  0  0  0  2  0  0  0  0  0  0
  1  6  2  0  0  0  0
  1  2  1  0  0  0  0
  2  3  2  0  0  0  0
  3  4  1  0  0  0  0
  3  9  1  0  0  0  0
  5 10  1  0  0  0  0
  5  4  2  0  0  0  0
  6  5  1  0  0  0  0
  7  1  1  0  0  0  0
  8  2  1  0  0  0  0
 10 11  1  0  0  0  0
 11 12  1  0  0  0  0
 13 12  1  0  0  0  0
 14 13  1  0  0  0  0
 15 10  1  0  0  0  0
 15 14  1  0  0  0  0
M  END
>  <minimizedAffinity>
-3.75579453

$$$$

 OpenBabel03262520083D

 15 16  0  0  0  0  0  0  0  0999 V2000
   36.0300   29.3380   31.3110 C   0  0  0  0  0  0  0  0  0  0  0  0
   36.7140   29.3050   30.0730 C   0  0  0  0  0  0  0  0  0  0  0  0
   37.8700   28.4960   29.9840 C   0  0  0  0  0  0  0  0  0  0  0  0
   38.2460   27.8030   31.0970 N   0  0  0  0  0  0  0  0  0  0  0  0
   37.5640   27.8610   32.2620 C   0  0  0  0  0  0  0  0  0  0  0  0
   36.4580   28.6310   32.3600 N   0  0  0  0  0  0  0  0  0  0  0  0
   35.1470   29.9900   31.2860 H   0  0  0  0  0  0  0  0  0  0  0  0
   36.4390   29.8380   29.1850 H   0  0  0  0  0  0  0  0  0  0  0  0
   38.4290   28.4350   29.0580 H   0  0  0  0  0  0  0  0  0  0  0  0
   38.0390   27.0750   33.4340 C   0  0  0  0  0  3  0  0  0  0  0  0
   39.5450   27.1090   33.3960 C   0  0  0  0  0  2  0  0  0  0  0  0
   40.2150   26.7010   34.6620 C   0  0  0  0  0  2  0  0  0  0  0  0
   39.1620   26.0740   35.5580 C   0  0  0  0  0  2  0  0  0  0  0  0
   38.2090   27.1910   35.9310 C   0  0  0  0  0  2  0  0  0  0  0  0
   37.4500   27.6040   34.6940 C   0  0  0  0  0  2  0  0  0  0  0  0
  1  6  1  0  0  0  0
  2  1  2  0  0  0  0
  3  2  1  0  0  0  0
  3  4  2  0  0  0  0
  4  5  1  0  0  0  0
  5  6  2  0  0  0  0
  5 10  1  0  0  0  0
  7  1  1  0  0  0  0
  8  2  1  0  0  0  0
  9  3  1  0  0  0  0
 10 15  1  0  0  0  0
 11 10  1  0  0  0  0
 11 12  1  0  0  0  0
 12 13  1  0  0  0  0
 13 14  1  0  0  0  0
 15 14  1  0  0  0  0
M  END
>  <minimizedAffinity>
-3.72963881

$$$$
