
 OpenBabel03272508063D

 32 35  0  0  0  0  0  0  0  0999 V2000
   38.8910   30.8360   45.6930 C   0  0  0  0  0  0  0  0  0  0  0  0
   40.1340   31.3860   45.9460 C   0  0  0  0  0  0  0  0  0  0  0  0
   40.9420   31.3250   44.8040 C   0  0  0  0  0  0  0  0  0  0  0  0
   40.1410   30.7340   43.9040 N   0  0  0  0  0  0  0  0  0  0  0  0
   38.9460   30.4470   44.4160 N   0  0  0  0  0  0  0  0  0  0  0  0
   40.4830   31.8180   46.8890 H   0  0  0  0  0  0  0  0  0  0  0  0
   41.9480   31.6470   44.6230 H   0  0  0  0  0  0  0  0  0  0  0  0
   37.7930   30.7240   46.6350 C   0  0  0  0  0  0  0  0  0  0  0  0
   38.0400   30.9820   47.9990 C   0  0  0  0  0  0  0  0  0  0  0  0
   36.9750   30.8710   48.8860 C   0  0  0  0  0  0  0  0  0  0  0  0
   35.7510   30.5200   48.3850 N   0  0  0  0  0  0  0  0  0  0  0  0
   35.5370   30.2770   47.0690 C   0  0  0  0  0  0  0  0  0  0  0  0
   36.5680   30.3840   46.2050 N   0  0  0  0  0  0  0  0  0  0  0  0
   39.0180   31.2570   48.3650 H   0  0  0  0  0  0  0  0  0  0  0  0
   34.5460   30.0050   46.7420 H   0  0  0  0  0  0  0  0  0  0  0  0
   37.2040   31.1360   50.3280 C   0  0  0  0  0  0  0  0  0  0  0  0
   36.6920   32.3870   50.5680 F   0  0  0  0  0  0  0  0  0  0  0  0
   36.5570   30.2170   51.1540 F   0  0  0  0  0  0  0  0  0  0  0  0
   38.5620   31.1590   50.6360 F   0  0  0  0  0  0  0  0  0  0  0  0
   40.4280   30.3970   42.5040 C   0  0  0  0  0  0  0  0  0  0  0  0
   40.1430   31.2870   41.4560 C   0  0  0  0  0  0  0  0  0  0  0  0
   40.4140   30.9380   40.1940 C   0  0  0  0  0  0  0  0  0  0  0  0
   40.9930   29.6590   39.9270 C   0  0  0  0  0  0  0  0  0  0  0  0
   41.1360   28.9520   41.6480 S   0  0  0  0  0  0  0  0  0  0  0  0
   39.7000   32.2700   41.6350 H   0  0  0  0  0  0  0  0  0  0  0  0
   40.2600   31.4930   39.2800 H   0  0  0  0  0  0  0  0  0  0  0  0
   41.4050   28.9620   38.7740 C   0  0  0  0  0  3  0  0  0  0  0  0
   42.7430   29.4730   38.3530 C   0  0  0  0  0  2  0  0  0  0  0  0
   43.8510   28.4720   38.6860 C   0  0  0  0  0  2  0  0  0  0  0  0
   43.5950   27.2700   37.7710 C   0  0  0  0  0  2  0  0  0  0  0  0
   42.2120   26.7110   38.0060 C   0  0  0  0  0  2  0  0  0  0  0  0
   41.4540   27.4770   39.0570 C   0  0  0  0  0  2  0  0  0  0  0  0
  1  2  1  0  0  0  0
  1  8  1  0  0  0  0
  2  6  1  0  0  0  0
  3  2  2  0  0  0  0
  4  5  1  0  0  0  0
  4  3  1  0  0  0  0
  5  1  2  0  0  0  0
  7  3  1  0  0  0  0
  8  9  1  0  0  0  0
  9 14  1  0  0  0  0
  9 10  2  0  0  0  0
 10 16  1  0  0  0  0
 11 10  1  0  0  0  0
 12 11  2  0  0  0  0
 13  8  2  0  0  0  0
 13 12  1  0  0  0  0
 15 12  1  0  0  0  0
 16 17  1  0  0  0  0
 16 19  1  0  0  0  0
 16 18  1  0  0  0  0
 20  4  1  0  0  0  0
 21 25  1  0  0  0  0
 21 20  2  0  0  0  0
 22 21  1  0  0  0  0
 23 22  2  0  0  0  0
 23 24  1  0  0  0  0
 24 20  1  0  0  0  0
 26 22  1  0  0  0  0
 27 32  1  0  0  0  0
 27 23  1  0  0  0  0
 28 29  1  0  0  0  0
 28 27  1  0  0  0  0
 30 31  1  0  0  0  0
 30 29  1  0  0  0  0
 31 32  1  0  0  0  0
M  END
>  <minimizedAffinity>
-6.26683331

>  <minimizedRMSD>
0.357843816

$$$$
