
 OpenBabel03272505053D

 42 45  0  0  1  0  0  0  0  0999 V2000
   38.9750   24.0290   35.1480 C   0  0  2  0  0  0  0  0  0  0  0  0
   37.8430   23.7900   36.2010 C   0  0  0  0  0  0  0  0  0  0  0  0
   38.4220   24.1300   37.5520 C   0  0  0  0  0  0  0  0  0  0  0  0
   39.3340   23.0110   37.9770 C   0  0  0  0  0  0  0  0  0  0  0  0
   39.8520   22.3300   36.7650 C   0  0  0  0  0  0  0  0  0  0  0  0
   40.1500   23.3070   35.6440 C   0  0  2  0  0  0  0  0  0  0  0  0
   38.4750   23.6440   34.2230 H   0  0  0  0  0  0  0  0  0  0  0  0
   37.0060   24.5170   36.0110 H   0  0  0  0  0  0  0  0  0  0  0  0
   37.4940   22.7590   36.1350 H   0  0  0  0  0  0  0  0  0  0  0  0
   39.2040   24.9470   37.4780 H   0  0  0  0  0  0  0  0  0  0  0  0
   37.6450   24.3540   38.2910 H   0  0  0  0  0  0  0  0  0  0  0  0
   40.1220   23.2960   38.6910 H   0  0  0  0  0  0  0  0  0  0  0  0
   38.6800   22.2820   38.5410 H   0  0  0  0  0  0  0  0  0  0  0  0
   40.7530   21.7790   37.0370 H   0  0  0  0  0  0  0  0  0  0  0  0
   39.1100   21.5640   36.4500 H   0  0  0  0  0  0  0  0  0  0  0  0
   40.3930   22.5810   34.7900 H   0  0  0  0  0  0  0  0  0  0  0  0
   41.4230   23.9920   35.9120 C   0  0  0  0  0  3  0  0  0  0  0  0
   42.1990   24.4360   34.6990 C   0  0  0  0  0  2  0  0  0  0  0  0
   43.3580   25.3440   35.1520 C   0  0  0  0  0  2  0  0  0  0  0  0
   44.0270   24.7610   36.3780 C   0  0  0  0  0  2  0  0  0  0  0  0
   43.8160   23.2830   36.3080 C   0  0  0  0  0  2  0  0  0  0  0  0
   42.3590   23.0010   36.6150 C   0  0  0  0  0  2  0  0  0  0  0  0
   39.1290   25.3660   35.1050 O   0  0  0  0  0  0  0  0  0  0  0  0
   39.8600   25.8090   32.3300 Cl  0  0  0  0  0  0  0  0  0  0  0  0
   38.5680   26.6390   33.1620 C   0  0  0  0  0  0  0  0  0  0  0  0
   37.8590   27.5600   32.4520 C   0  0  0  0  0  0  0  0  0  0  0  0
   36.8380   28.2070   33.1520 C   0  0  0  0  0  0  0  0  0  0  0  0
   36.6060   27.8920   34.4830 C   0  0  0  0  0  0  0  0  0  0  0  0
   37.3540   26.9510   35.1510 C   0  0  0  0  0  0  0  0  0  0  0  0
   38.3510   26.3180   34.4720 C   0  0  0  0  0  0  0  0  0  0  0  0
   36.2550   28.9470   32.6170 H   0  0  0  0  0  0  0  0  0  0  0  0
   35.7970   28.4360   34.9570 H   0  0  0  0  0  0  0  0  0  0  0  0
   37.1650   26.7140   36.1820 H   0  0  0  0  0  0  0  0  0  0  0  0
   39.3730   27.8760   30.4870 C   0  0  0  0  0  0  0  0  0  0  0  0
   38.0890   27.9080   31.0520 C   0  0  0  0  0  0  0  0  0  0  0  0
   37.0270   28.2850   30.2350 C   0  0  0  0  0  0  0  0  0  0  0  0
   37.2850   28.6000   28.9440 N   0  0  0  0  0  0  0  0  0  0  0  0
   38.5190   28.5610   28.4300 C   0  0  0  0  0  0  0  0  0  0  0  0
   39.5640   28.2010   29.1940 N   0  0  0  0  0  0  0  0  0  0  0  0
   40.1380   27.5800   31.1660 H   0  0  0  0  0  0  0  0  0  0  0  0
   36.0240   28.3270   30.6180 H   0  0  0  0  0  0  0  0  0  0  0  0
   38.7840   28.8000   27.4120 H   0  0  0  0  0  0  0  0  0  0  0  0
  1  7  1  6  0  0  0
  1  6  1  0  0  0  0
  1  2  1  0  0  0  0
  2  3  1  0  0  0  0
  3  4  1  0  0  0  0
  3 11  1  0  0  0  0
  4 13  1  0  0  0  0
  4 12  1  0  0  0  0
  5 14  1  0  0  0  0
  5  4  1  0  0  0  0
  6 16  1  6  0  0  0
  6 17  1  0  0  0  0
  6  5  1  0  0  0  0
  8  2  1  0  0  0  0
  9  2  1  0  0  0  0
 10  3  1  0  0  0  0
 15  5  1  0  0  0  0
 17 22  1  0  0  0  0
 18 19  1  0  0  0  0
 18 17  1  0  0  0  0
 19 20  1  0  0  0  0
 21 20  1  0  0  0  0
 21 22  1  0  0  0  0
 23  1  1  0  0  0  0
 24 25  1  0  0  0  0
 25 30  1  0  0  0  0
 26 27  1  0  0  0  0
 26 25  2  0  0  0  0
 27 28  2  0  0  0  0
 28 32  1  0  0  0  0
 28 29  1  0  0  0  0
 29 33  1  0  0  0  0
 30 23  1  0  0  0  0
 30 29  2  0  0  0  0
 31 27  1  0  0  0  0
 34 35  1  0  0  0  0
 34 40  1  0  0  0  0
 35 26  1  0  0  0  0
 36 41  1  0  0  0  0
 36 35  2  0  0  0  0
 37 36  1  0  0  0  0
 38 37  2  0  0  0  0
 38 39  1  0  0  0  0
 39 34  2  0  0  0  0
 42 38  1  0  0  0  0
M  END
>  <minimizedAffinity>
-6.02849436

$$$$

 OpenBabel03272505053D

 42 45  0  0  1  0  0  0  0  0999 V2000
   38.8220   22.8380   35.2580 C   0  0  2  0  0  0  0  0  0  0  0  0
   37.7580   22.7960   36.4040 C   0  0  0  0  0  0  0  0  0  0  0  0
   38.1920   23.8000   37.4440 C   0  0  0  0  0  0  0  0  0  0  0  0
   39.3450   23.2200   38.2160 C   0  0  0  0  0  0  0  0  0  0  0  0
   40.0540   22.2420   37.3550 C   0  0  0  0  0  0  0  0  0  0  0  0
   40.1260   22.7000   35.9100 C   0  0  2  0  0  0  0  0  0  0  0  0
   38.4630   21.9930   34.6180 H   0  0  0  0  0  0  0  0  0  0  0  0
   36.7690   23.1490   36.0000 H   0  0  0  0  0  0  0  0  0  0  0  0
   37.6840   21.7820   36.7980 H   0  0  0  0  0  0  0  0  0  0  0  0
   38.7430   24.6730   36.9760 H   0  0  0  0  0  0  0  0  0  0  0  0
   37.3630   24.1180   38.0840 H   0  0  0  0  0  0  0  0  0  0  0  0
   40.0140   23.9600   38.6830 H   0  0  0  0  0  0  0  0  0  0  0  0
   38.8820   22.6600   39.0810 H   0  0  0  0  0  0  0  0  0  0  0  0
   41.0580   22.0930   37.7560 H   0  0  0  0  0  0  0  0  0  0  0  0
   39.5410   21.2600   37.4450 H   0  0  0  0  0  0  0  0  0  0  0  0
   40.5710   21.7650   35.4150 H   0  0  0  0  0  0  0  0  0  0  0  0
   41.1760   23.7200   35.7690 C   0  0  0  0  0  3  0  0  0  0  0  0
   41.6950   23.9390   34.3710 C   0  0  0  0  0  2  0  0  0  0  0  0
   42.5880   25.1940   34.3610 C   0  0  0  0  0  2  0  0  0  0  0  0
   43.4910   25.1990   35.5750 C   0  0  0  0  0  2  0  0  0  0  0  0
   43.6960   23.7680   35.9530 C   0  0  0  0  0  2  0  0  0  0  0  0
   42.4050   23.2520   36.5570 C   0  0  0  0  0  2  0  0  0  0  0  0
   38.6330   24.0280   34.6560 O   0  0  0  0  0  0  0  0  0  0  0  0
   38.3470   26.8770   34.1750 Cl  0  0  0  0  0  0  0  0  0  0  0  0
   37.6830   25.6260   33.1550 C   0  0  0  0  0  0  0  0  0  0  0  0
   36.9790   26.0240   32.0570 C   0  0  0  0  0  0  0  0  0  0  0  0
   36.4590   24.9960   31.2690 C   0  0  0  0  0  0  0  0  0  0  0  0
   36.6750   23.6720   31.6270 C   0  0  0  0  0  0  0  0  0  0  0  0
   37.3950   23.3290   32.7470 C   0  0  0  0  0  0  0  0  0  0  0  0
   37.9040   24.3290   33.5200 C   0  0  0  0  0  0  0  0  0  0  0  0
   35.8930   25.2770   30.3880 H   0  0  0  0  0  0  0  0  0  0  0  0
   36.2400   22.9330   30.9640 H   0  0  0  0  0  0  0  0  0  0  0  0
   37.5570   22.3000   33.0150 H   0  0  0  0  0  0  0  0  0  0  0  0
   35.5930   28.1040   32.0810 C   0  0  0  0  0  0  0  0  0  0  0  0
   36.7380   27.4100   31.6640 C   0  0  0  0  0  0  0  0  0  0  0  0
   37.6510   28.0830   30.8570 C   0  0  0  0  0  0  0  0  0  0  0  0
   37.3880   29.3660   30.5160 N   0  0  0  0  0  0  0  0  0  0  0  0
   36.2870   30.0050   30.9270 C   0  0  0  0  0  0  0  0  0  0  0  0
   35.3890   29.3820   31.7070 N   0  0  0  0  0  0  0  0  0  0  0  0
   34.9380   27.5310   32.6950 H   0  0  0  0  0  0  0  0  0  0  0  0
   38.5440   27.5980   30.5100 H   0  0  0  0  0  0  0  0  0  0  0  0
   36.0270   31.0250   30.6880 H   0  0  0  0  0  0  0  0  0  0  0  0
  1  7  1  6  0  0  0
  1  6  1  0  0  0  0
  1  2  1  0  0  0  0
  2  9  1  0  0  0  0
  2  3  1  0  0  0  0
  3 11  1  0  0  0  0
  3  4  1  0  0  0  0
  4 12  1  0  0  0  0
  4 13  1  0  0  0  0
  5 15  1  0  0  0  0
  5 14  1  0  0  0  0
  5  4  1  0  0  0  0
  6 16  1  6  0  0  0
  6  5  1  0  0  0  0
  8  2  1  0  0  0  0
 10  3  1  0  0  0  0
 17  6  1  0  0  0  0
 17 22  1  0  0  0  0
 18 17  1  0  0  0  0
 19 18  1  0  0  0  0
 19 20  1  0  0  0  0
 20 21  1  0  0  0  0
 21 22  1  0  0  0  0
 23  1  1  0  0  0  0
 25 30  1  0  0  0  0
 25 24  1  0  0  0  0
 26 25  2  0  0  0  0
 27 28  2  0  0  0  0
 27 26  1  0  0  0  0
 28 29  1  0  0  0  0
 29 33  1  0  0  0  0
 29 30  2  0  0  0  0
 30 23  1  0  0  0  0
 31 27  1  0  0  0  0
 32 28  1  0  0  0  0
 34 40  1  0  0  0  0
 35 26  1  0  0  0  0
 35 34  2  0  0  0  0
 36 35  1  0  0  0  0
 37 36  2  0  0  0  0
 37 38  1  0  0  0  0
 38 39  2  0  0  0  0
 39 34  1  0  0  0  0
 41 36  1  0  0  0  0
 42 38  1  0  0  0  0
M  END
>  <minimizedAffinity>
-5.8407855

$$$$

 OpenBabel03272505053D

 42 45  0  0  1  0  0  0  0  0999 V2000
   34.5120   31.2710   33.8720 C   0  0  2  0  0  0  0  0  0  0  0  0
   35.8060   31.9250   34.4610 C   0  0  0  0  0  0  0  0  0  0  0  0
   35.9950   31.3560   35.8450 C   0  0  0  0  0  0  0  0  0  0  0  0
   35.0000   32.0060   36.7690 C   0  0  0  0  0  0  0  0  0  0  0  0
   33.8250   32.4440   35.9760 C   0  0  0  0  0  0  0  0  0  0  0  0
   33.4700   31.4490   34.8860 C   0  0  2  0  0  0  0  0  0  0  0  0
   34.4160   31.8410   32.9140 H   0  0  0  0  0  0  0  0  0  0  0  0
   36.6920   31.6000   33.8490 H   0  0  0  0  0  0  0  0  0  0  0  0
   35.7010   33.0110   34.4580 H   0  0  0  0  0  0  0  0  0  0  0  0
   35.6030   30.2950   35.9180 H   0  0  0  0  0  0  0  0  0  0  0  0
   37.0290   31.4500   36.1940 H   0  0  0  0  0  0  0  0  0  0  0  0
   34.7340   31.4150   37.6590 H   0  0  0  0  0  0  0  0  0  0  0  0
   35.5160   32.9260   37.1740 H   0  0  0  0  0  0  0  0  0  0  0  0
   32.9830   32.5800   36.6540 H   0  0  0  0  0  0  0  0  0  0  0  0
   34.0430   33.4490   35.5530 H   0  0  0  0  0  0  0  0  0  0  0  0
   32.6560   32.0320   34.3260 H   0  0  0  0  0  0  0  0  0  0  0  0
   32.7580   30.3060   35.4760 C   0  0  0  0  0  3  0  0  0  0  0  0
   31.8010   29.5860   34.5620 C   0  0  0  0  0  2  0  0  0  0  0  0
   31.3400   28.2850   35.2460 C   0  0  0  0  0  2  0  0  0  0  0  0
   31.0340   28.5440   36.7040 C   0  0  0  0  0  2  0  0  0  0  0  0
   30.6310   29.9800   36.8010 C   0  0  0  0  0  2  0  0  0  0  0  0
   31.8710   30.8300   36.6120 C   0  0  0  0  0  2  0  0  0  0  0  0
   34.8470   29.9850   33.6500 O   0  0  0  0  0  0  0  0  0  0  0  0
   36.6200   27.9050   34.6280 Cl  0  0  0  0  0  0  0  0  0  0  0  0
   36.5570   28.4580   32.9740 C   0  0  0  0  0  0  0  0  0  0  0  0
   37.4060   27.8690   32.0850 C   0  0  0  0  0  0  0  0  0  0  0  0
   37.3300   28.3420   30.7740 C   0  0  0  0  0  0  0  0  0  0  0  0
   36.4310   29.3490   30.4520 C   0  0  0  0  0  0  0  0  0  0  0  0
   35.5970   29.9080   31.3910 C   0  0  0  0  0  0  0  0  0  0  0  0
   35.6670   29.4500   32.6730 C   0  0  0  0  0  0  0  0  0  0  0  0
   37.9920   27.8950   30.0410 H   0  0  0  0  0  0  0  0  0  0  0  0
   36.4320   29.6620   29.4140 H   0  0  0  0  0  0  0  0  0  0  0  0
   34.9030   30.6870   31.1320 H   0  0  0  0  0  0  0  0  0  0  0  0
   39.6690   27.1000   32.8160 C   0  0  0  0  0  0  0  0  0  0  0  0
   38.3600   26.8100   32.4030 C   0  0  0  0  0  0  0  0  0  0  0  0
   37.9900   25.4720   32.3010 C   0  0  0  0  0  0  0  0  0  0  0  0
   38.9060   24.5240   32.6050 N   0  0  0  0  0  0  0  0  0  0  0  0
   40.1480   24.8270   32.9970 C   0  0  0  0  0  0  0  0  0  0  0  0
   40.5350   26.1080   33.1040 N   0  0  0  0  0  0  0  0  0  0  0  0
   39.8850   28.1410   32.8720 H   0  0  0  0  0  0  0  0  0  0  0  0
   37.0000   25.1960   31.9900 H   0  0  0  0  0  0  0  0  0  0  0  0
   40.9180   24.1150   33.2520 H   0  0  0  0  0  0  0  0  0  0  0  0
  1  7  1  6  0  0  0
  1  2  1  0  0  0  0
  1  6  1  0  0  0  0
  2  3  1  0  0  0  0
  3 10  1  0  0  0  0
  3 11  1  0  0  0  0
  3  4  1  0  0  0  0
  4 13  1  0  0  0  0
  4 12  1  0  0  0  0
  5 14  1  0  0  0  0
  5  4  1  0  0  0  0
  6 16  1  6  0  0  0
  6 17  1  0  0  0  0
  6  5  1  0  0  0  0
  8  2  1  0  0  0  0
  9  2  1  0  0  0  0
 15  5  1  0  0  0  0
 17 22  1  0  0  0  0
 18 19  1  0  0  0  0
 18 17  1  0  0  0  0
 19 20  1  0  0  0  0
 20 21  1  0  0  0  0
 22 21  1  0  0  0  0
 23  1  1  0  0  0  0
 25 24  1  0  0  0  0
 26 35  1  0  0  0  0
 26 25  2  0  0  0  0
 27 26  1  0  0  0  0
 28 27  2  0  0  0  0
 28 29  1  0  0  0  0
 29 30  2  0  0  0  0
 30 25  1  0  0  0  0
 30 23  1  0  0  0  0
 31 27  1  0  0  0  0
 32 28  1  0  0  0  0
 33 29  1  0  0  0  0
 34 40  1  0  0  0  0
 34 39  1  0  0  0  0
 35 34  2  0  0  0  0
 36 35  1  0  0  0  0
 36 37  2  0  0  0  0
 37 38  1  0  0  0  0
 38 39  2  0  0  0  0
 38 42  1  0  0  0  0
 41 36  1  0  0  0  0
M  END
>  <minimizedAffinity>
-5.74851465

$$$$

 OpenBabel03272505053D

 42 45  0  0  1  0  0  0  0  0999 V2000
   33.9970   29.3260   33.8850 C   0  0  2  0  0  0  0  0  0  0  0  0
   32.7810   29.1690   32.9130 C   0  0  0  0  0  0  0  0  0  0  0  0
   32.3060   30.5600   32.5740 C   0  0  0  0  0  0  0  0  0  0  0  0
   31.5520   31.1090   33.7550 C   0  0  0  0  0  0  0  0  0  0  0  0
   32.0500   30.4510   34.9880 C   0  0  0  0  0  0  0  0  0  0  0  0
   33.5500   30.2280   34.9500 C   0  0  2  0  0  0  0  0  0  0  0  0
   34.1840   28.2550   34.1490 H   0  0  0  0  0  0  0  0  0  0  0  0
   33.1370   28.7010   31.9530 H   0  0  0  0  0  0  0  0  0  0  0  0
   32.0100   28.5600   33.3870 H   0  0  0  0  0  0  0  0  0  0  0  0
   33.1610   31.3050   32.5770 H   0  0  0  0  0  0  0  0  0  0  0  0
   31.7270   30.5860   31.6450 H   0  0  0  0  0  0  0  0  0  0  0  0
   31.5260   32.2080   33.8230 H   0  0  0  0  0  0  0  0  0  0  0  0
   30.4760   30.8010   33.5990 H   0  0  0  0  0  0  0  0  0  0  0  0
   31.7810   31.0720   35.8430 H   0  0  0  0  0  0  0  0  0  0  0  0
   31.5000   29.4950   35.1210 H   0  0  0  0  0  0  0  0  0  0  0  0
   33.6940   29.6030   35.9010 H   0  0  0  0  0  0  0  0  0  0  0  0
   34.2440   31.4920   35.2380 C   0  0  0  0  0  3  0  0  0  0  0  0
   35.6720   31.3680   35.7020 C   0  0  0  0  0  2  0  0  0  0  0  0
   36.3180   32.7660   35.7120 C   0  0  0  0  0  2  0  0  0  0  0  0
   35.3580   33.7780   36.2960 C   0  0  0  0  0  2  0  0  0  0  0  0
   34.4710   33.0240   37.2350 C   0  0  0  0  0  2  0  0  0  0  0  0
   33.5260   32.1750   36.4080 C   0  0  0  0  0  2  0  0  0  0  0  0
   34.9860   29.8280   33.1210 O   0  0  0  0  0  0  0  0  0  0  0  0
   36.7270   28.0550   34.6230 Cl  0  0  0  0  0  0  0  0  0  0  0  0
   36.8000   28.2890   32.8950 C   0  0  0  0  0  0  0  0  0  0  0  0
   37.7470   27.5870   32.2100 C   0  0  0  0  0  0  0  0  0  0  0  0
   37.7790   27.8050   30.8310 C   0  0  0  0  0  0  0  0  0  0  0  0
   36.8810   28.6890   30.2490 C   0  0  0  0  0  0  0  0  0  0  0  0
   35.9450   29.3700   30.9900 C   0  0  0  0  0  0  0  0  0  0  0  0
   35.9100   29.1620   32.3370 C   0  0  0  0  0  0  0  0  0  0  0  0
   38.5200   27.2630   30.2550 H   0  0  0  0  0  0  0  0  0  0  0  0
   36.9690   28.8030   29.1750 H   0  0  0  0  0  0  0  0  0  0  0  0
   35.2540   30.0530   30.5300 H   0  0  0  0  0  0  0  0  0  0  0  0
   39.9500   27.0830   33.2780 C   0  0  0  0  0  0  0  0  0  0  0  0
   38.7020   26.6540   32.8030 C   0  0  0  0  0  0  0  0  0  0  0  0
   38.3920   25.3020   32.9110 C   0  0  0  0  0  0  0  0  0  0  0  0
   39.3060   24.4730   33.4660 N   0  0  0  0  0  0  0  0  0  0  0  0
   40.4900   24.9070   33.9120 C   0  0  0  0  0  0  0  0  0  0  0  0
   40.8170   26.2060   33.8210 N   0  0  0  0  0  0  0  0  0  0  0  0
   40.1220   28.1280   33.1650 H   0  0  0  0  0  0  0  0  0  0  0  0
   37.4510   24.9220   32.5620 H   0  0  0  0  0  0  0  0  0  0  0  0
   41.2550   24.2940   34.3630 H   0  0  0  0  0  0  0  0  0  0  0  0
  1  7  1  1  0  0  0
  1  6  1  0  0  0  0
  2  9  1  0  0  0  0
  2  1  1  0  0  0  0
  3 10  1  0  0  0  0
  3  2  1  0  0  0  0
  3  4  1  0  0  0  0
  4 12  1  0  0  0  0
  4  5  1  0  0  0  0
  5 15  1  0  0  0  0
  5 14  1  0  0  0  0
  6  5  1  0  0  0  0
  6 17  1  0  0  0  0
  6 16  1  1  0  0  0
  8  2  1  0  0  0  0
 11  3  1  0  0  0  0
 13  4  1  0  0  0  0
 17 18  1  0  0  0  0
 17 22  1  0  0  0  0
 18 19  1  0  0  0  0
 19 20  1  0  0  0  0
 20 21  1  0  0  0  0
 22 21  1  0  0  0  0
 23  1  1  0  0  0  0
 25 24  1  0  0  0  0
 26 35  1  0  0  0  0
 26 25  2  0  0  0  0
 27 26  1  0  0  0  0
 28 27  2  0  0  0  0
 28 29  1  0  0  0  0
 29 30  2  0  0  0  0
 30 25  1  0  0  0  0
 30 23  1  0  0  0  0
 31 27  1  0  0  0  0
 32 28  1  0  0  0  0
 33 29  1  0  0  0  0
 34 39  1  0  0  0  0
 35 36  1  0  0  0  0
 35 34  2  0  0  0  0
 36 37  2  0  0  0  0
 37 38  1  0  0  0  0
 38 42  1  0  0  0  0
 39 38  2  0  0  0  0
 40 34  1  0  0  0  0
 41 36  1  0  0  0  0
M  END
>  <minimizedAffinity>
-5.70949602

$$$$

 OpenBabel03272505053D

 42 45  0  0  1  0  0  0  0  0999 V2000
   33.0390   29.4700   35.0240 C   0  0  2  0  0  0  0  0  0  0  0  0
   31.5900   29.2670   34.4720 C   0  0  0  0  0  0  0  0  0  0  0  0
   31.0570   30.6350   34.1230 C   0  0  0  0  0  0  0  0  0  0  0  0
   30.6900   31.3440   35.3990 C   0  0  0  0  0  0  0  0  0  0  0  0
   31.5180   30.8010   36.5030 C   0  0  0  0  0  0  0  0  0  0  0  0
   32.9370   30.5020   36.0590 C   0  0  2  0  0  0  0  0  0  0  0  0
   33.2800   28.4260   35.3470 H   0  0  0  0  0  0  0  0  0  0  0  0
   31.6410   28.6820   33.5120 H   0  0  0  0  0  0  0  0  0  0  0  0
   30.9820   28.7510   35.2160 H   0  0  0  0  0  0  0  0  0  0  0  0
   31.8850   31.3340   33.7910 H   0  0  0  0  0  0  0  0  0  0  0  0
   30.2310   30.5880   33.4060 H   0  0  0  0  0  0  0  0  0  0  0  0
   30.7010   32.4440   35.3410 H   0  0  0  0  0  0  0  0  0  0  0  0
   29.6110   31.0740   35.5980 H   0  0  0  0  0  0  0  0  0  0  0  0
   31.5200   31.5230   37.3200 H   0  0  0  0  0  0  0  0  0  0  0  0
   31.0160   29.8920   36.9010 H   0  0  0  0  0  0  0  0  0  0  0  0
   33.3450   29.9770   36.9950 H   0  0  0  0  0  0  0  0  0  0  0  0
   33.7040   31.7550   35.9830 C   0  0  0  0  0  3  0  0  0  0  0  0
   35.1760   31.6440   36.2840 C   0  0  0  0  0  2  0  0  0  0  0  0
   35.8620   32.9730   35.9160 C   0  0  0  0  0  2  0  0  0  0  0  0
   35.0210   34.1400   36.3840 C   0  0  0  0  0  2  0  0  0  0  0  0
   34.2430   33.6510   37.5630 C   0  0  0  0  0  2  0  0  0  0  0  0
   33.1700   32.7070   37.0600 C   0  0  0  0  0  2  0  0  0  0  0  0
   33.7680   29.8370   33.9530 O   0  0  0  0  0  0  0  0  0  0  0  0
   34.4890   30.7900   31.3070 Cl  0  0  0  0  0  0  0  0  0  0  0  0
   35.4280   29.6560   32.2440 C   0  0  0  0  0  0  0  0  0  0  0  0
   36.5800   29.1870   31.6850 C   0  0  0  0  0  0  0  0  0  0  0  0
   37.3010   28.2770   32.4620 C   0  0  0  0  0  0  0  0  0  0  0  0
   36.8290   27.9100   33.7140 C   0  0  0  0  0  0  0  0  0  0  0  0
   35.6580   28.4160   34.2290 C   0  0  0  0  0  0  0  0  0  0  0  0
   34.9510   29.3040   33.4750 C   0  0  0  0  0  0  0  0  0  0  0  0
   38.2210   27.8840   32.0470 H   0  0  0  0  0  0  0  0  0  0  0  0
   37.4440   27.2010   34.2550 H   0  0  0  0  0  0  0  0  0  0  0  0
   35.3020   28.1260   35.2000 H   0  0  0  0  0  0  0  0  0  0  0  0
   37.3720   30.8930   30.0390 C   0  0  0  0  0  0  0  0  0  0  0  0
   37.0930   29.5590   30.3690 C   0  0  0  0  0  0  0  0  0  0  0  0
   37.3190   28.5860   29.4000 C   0  0  0  0  0  0  0  0  0  0  0  0
   37.7950   28.9740   28.1940 N   0  0  0  0  0  0  0  0  0  0  0  0
   38.0530   30.2540   27.9040 C   0  0  0  0  0  0  0  0  0  0  0  0
   37.8440   31.2150   28.8180 N   0  0  0  0  0  0  0  0  0  0  0  0
   37.1760   31.5840   30.8250 H   0  0  0  0  0  0  0  0  0  0  0  0
   37.1220   27.5500   29.6020 H   0  0  0  0  0  0  0  0  0  0  0  0
   38.4320   30.6210   26.9630 H   0  0  0  0  0  0  0  0  0  0  0  0
  1  7  1  1  0  0  0
  1  6  1  0  0  0  0
  2  1  1  0  0  0  0
  2  9  1  0  0  0  0
  3  2  1  0  0  0  0
  3  4  1  0  0  0  0
  4 13  1  0  0  0  0
  4  5  1  0  0  0  0
  5 15  1  0  0  0  0
  5 14  1  0  0  0  0
  6  5  1  0  0  0  0
  6 16  1  1  0  0  0
  8  2  1  0  0  0  0
 10  3  1  0  0  0  0
 11  3  1  0  0  0  0
 12  4  1  0  0  0  0
 17  6  1  0  0  0  0
 17 18  1  0  0  0  0
 17 22  1  0  0  0  0
 19 18  1  0  0  0  0
 19 20  1  0  0  0  0
 20 21  1  0  0  0  0
 22 21  1  0  0  0  0
 23  1  1  0  0  0  0
 24 25  1  0  0  0  0
 25 30  1  0  0  0  0
 26 25  2  0  0  0  0
 26 27  1  0  0  0  0
 27 28  2  0  0  0  0
 28 29  1  0  0  0  0
 28 32  1  0  0  0  0
 29 33  1  0  0  0  0
 30 23  1  0  0  0  0
 30 29  2  0  0  0  0
 31 27  1  0  0  0  0
 34 35  1  0  0  0  0
 34 40  1  0  0  0  0
 35 26  1  0  0  0  0
 36 41  1  0  0  0  0
 36 35  2  0  0  0  0
 37 36  1  0  0  0  0
 38 37  2  0  0  0  0
 38 39  1  0  0  0  0
 39 34  2  0  0  0  0
 42 38  1  0  0  0  0
M  END
>  <minimizedAffinity>
-5.60151911

$$$$

 OpenBabel03272505053D

 42 45  0  0  1  0  0  0  0  0999 V2000
   39.9160   26.9880   33.9500 C   0  0  2  0  0  0  0  0  0  0  0  0
   40.9070   27.2380   32.7660 C   0  0  0  0  0  0  0  0  0  0  0  0
   41.2220   25.8910   32.1640 C   0  0  0  0  0  0  0  0  0  0  0  0
   42.1750   25.1700   33.0780 C   0  0  0  0  0  0  0  0  0  0  0  0
   41.9840   25.6720   34.4610 C   0  0  0  0  0  0  0  0  0  0  0  0
   40.5240   25.9410   34.7750 C   0  0  2  0  0  0  0  0  0  0  0  0
   39.8480   28.0200   34.3780 H   0  0  0  0  0  0  0  0  0  0  0  0
   40.3850   27.8390   31.9710 H   0  0  0  0  0  0  0  0  0  0  0  0
   41.7940   27.7570   33.1340 H   0  0  0  0  0  0  0  0  0  0  0  0
   40.3460   25.1770   32.2590 H   0  0  0  0  0  0  0  0  0  0  0  0
   41.5910   25.9730   31.1360 H   0  0  0  0  0  0  0  0  0  0  0  0
   42.1520   24.0710   33.0030 H   0  0  0  0  0  0  0  0  0  0  0  0
   43.2090   25.4640   32.7340 H   0  0  0  0  0  0  0  0  0  0  0  0
   42.3910   24.9360   35.1550 H   0  0  0  0  0  0  0  0  0  0  0  0
   42.6030   26.5870   34.5890 H   0  0  0  0  0  0  0  0  0  0  0  0
   40.6180   26.4380   35.8040 H   0  0  0  0  0  0  0  0  0  0  0  0
   39.8370   24.6700   35.0470 C   0  0  0  0  0  3  0  0  0  0  0  0
   38.7470   24.7220   36.0860 C   0  0  0  0  0  2  0  0  0  0  0  0
   37.9720   23.3910   36.0650 C   0  0  0  0  0  2  0  0  0  0  0  0
   38.9360   22.2300   35.9530 C   0  0  0  0  0  2  0  0  0  0  0  0
   40.2200   22.6880   36.5670 C   0  0  0  0  0  2  0  0  0  0  0  0
   40.8610   23.6870   35.6240 C   0  0  0  0  0  2  0  0  0  0  0  0
   38.7620   26.6210   33.3610 O   0  0  0  0  0  0  0  0  0  0  0  0
   37.3330   28.0370   35.4550 Cl  0  0  0  0  0  0  0  0  0  0  0  0
   36.9610   28.1430   33.7530 C   0  0  0  0  0  0  0  0  0  0  0  0
   35.9230   28.9480   33.3900 C   0  0  0  0  0  0  0  0  0  0  0  0
   35.6520   29.0020   32.0210 C   0  0  0  0  0  0  0  0  0  0  0  0
   36.4220   28.2650   31.1330 C   0  0  0  0  0  0  0  0  0  0  0  0
   37.4600   27.4680   31.5560 C   0  0  0  0  0  0  0  0  0  0  0  0
   37.7280   27.4110   32.8920 C   0  0  0  0  0  0  0  0  0  0  0  0
   34.8320   29.6330   31.6980 H   0  0  0  0  0  0  0  0  0  0  0  0
   36.1500   28.3600   30.0880 H   0  0  0  0  0  0  0  0  0  0  0  0
   38.0510   26.9010   30.8600 H   0  0  0  0  0  0  0  0  0  0  0  0
   35.5910   30.8850   34.9350 C   0  0  0  0  0  0  0  0  0  0  0  0
   35.0990   29.7300   34.3080 C   0  0  0  0  0  0  0  0  0  0  0  0
   33.7910   29.3440   34.5860 C   0  0  0  0  0  0  0  0  0  0  0  0
   33.0640   30.0980   35.4420 N   0  0  0  0  0  0  0  0  0  0  0  0
   33.5560   31.1950   36.0270 C   0  0  0  0  0  0  0  0  0  0  0  0
   34.8150   31.5930   35.7790 N   0  0  0  0  0  0  0  0  0  0  0  0
   36.5970   31.1230   34.6780 H   0  0  0  0  0  0  0  0  0  0  0  0
   33.3660   28.4680   34.1320 H   0  0  0  0  0  0  0  0  0  0  0  0
   33.0240   31.8330   36.7150 H   0  0  0  0  0  0  0  0  0  0  0  0
  1  7  1  1  0  0  0
  1  6  1  0  0  0  0
  2  9  1  0  0  0  0
  2  1  1  0  0  0  0
  3 10  1  0  0  0  0
  3  2  1  0  0  0  0
  3  4  1  0  0  0  0
  4  5  1  0  0  0  0
  5 15  1  0  0  0  0
  5  6  1  0  0  0  0
  5 14  1  0  0  0  0
  6 17  1  0  0  0  0
  6 16  1  1  0  0  0
  8  2  1  0  0  0  0
 11  3  1  0  0  0  0
 12  4  1  0  0  0  0
 13  4  1  0  0  0  0
 17 22  1  0  0  0  0
 17 18  1  0  0  0  0
 19 18  1  0  0  0  0
 20 19  1  0  0  0  0
 20 21  1  0  0  0  0
 22 21  1  0  0  0  0
 23  1  1  0  0  0  0
 25 24  1  0  0  0  0
 26 25  1  0  0  0  0
 26 35  1  0  0  0  0
 27 26  2  0  0  0  0
 28 29  2  0  0  0  0
 28 27  1  0  0  0  0
 29 30  1  0  0  0  0
 30 23  1  0  0  0  0
 30 25  2  0  0  0  0
 31 27  1  0  0  0  0
 32 28  1  0  0  0  0
 33 29  1  0  0  0  0
 34 39  1  0  0  0  0
 35 36  1  0  0  0  0
 35 34  2  0  0  0  0
 36 37  2  0  0  0  0
 37 38  1  0  0  0  0
 38 42  1  0  0  0  0
 39 38  2  0  0  0  0
 40 34  1  0  0  0  0
 41 36  1  0  0  0  0
M  END
>  <minimizedAffinity>
-5.56371307

$$$$

 OpenBabel03272505053D

 42 45  0  0  1  0  0  0  0  0999 V2000
   37.7300   26.5940   30.6770 C   0  0  2  0  0  0  0  0  0  0  0  0
   39.0630   26.6830   29.8630 C   0  0  0  0  0  0  0  0  0  0  0  0
   39.8030   27.8990   30.3650 C   0  0  0  0  0  0  0  0  0  0  0  0
   39.1400   29.1270   29.8030 C   0  0  0  0  0  0  0  0  0  0  0  0
   37.7160   28.8180   29.5250 C   0  0  0  0  0  0  0  0  0  0  0  0
   37.1100   27.9180   30.5860 C   0  0  2  0  0  0  0  0  0  0  0  0
   37.2300   25.7430   30.1500 H   0  0  0  0  0  0  0  0  0  0  0  0
   39.7020   25.7890   30.1050 H   0  0  0  0  0  0  0  0  0  0  0  0
   38.8390   26.7320   28.7970 H   0  0  0  0  0  0  0  0  0  0  0  0
   39.5900   28.0950   31.4600 H   0  0  0  0  0  0  0  0  0  0  0  0
   40.8750   27.8520   30.1450 H   0  0  0  0  0  0  0  0  0  0  0  0
   39.2820   30.0460   30.3930 H   0  0  0  0  0  0  0  0  0  0  0  0
   39.6570   29.3300   28.8190 H   0  0  0  0  0  0  0  0  0  0  0  0
   37.1640   29.7560   29.4640 H   0  0  0  0  0  0  0  0  0  0  0  0
   37.6490   28.3580   28.5150 H   0  0  0  0  0  0  0  0  0  0  0  0
   36.0870   27.6970   30.1160 H   0  0  0  0  0  0  0  0  0  0  0  0
   36.7960   28.7110   31.7840 C   0  0  0  0  0  3  0  0  0  0  0  0
   35.8260   28.0840   32.7520 C   0  0  0  0  0  2  0  0  0  0  0  0
   35.8050   28.9150   34.0480 C   0  0  0  0  0  2  0  0  0  0  0  0
   35.7860   30.3910   33.7180 C   0  0  0  0  0  2  0  0  0  0  0  0
   35.1300   30.5150   32.3800 C   0  0  0  0  0  2  0  0  0  0  0  0
   36.0970   29.9990   31.3340 C   0  0  0  0  0  2  0  0  0  0  0  0
   38.1100   26.2500   31.9220 O   0  0  0  0  0  0  0  0  0  0  0  0
   38.7020   26.3710   34.7620 Cl  0  0  0  0  0  0  0  0  0  0  0  0
   38.2520   24.9200   33.9030 C   0  0  0  0  0  0  0  0  0  0  0  0
   38.1790   23.7650   34.6230 C   0  0  0  0  0  0  0  0  0  0  0  0
   37.8230   22.6240   33.9000 C   0  0  0  0  0  0  0  0  0  0  0  0
   37.5700   22.7190   32.5390 C   0  0  0  0  0  0  0  0  0  0  0  0
   37.6590   23.9130   31.8630 C   0  0  0  0  0  0  0  0  0  0  0  0
   38.0070   25.0290   32.5630 C   0  0  0  0  0  0  0  0  0  0  0  0
   37.7550   21.6890   34.4430 H   0  0  0  0  0  0  0  0  0  0  0  0
   37.2990   21.7910   32.0490 H   0  0  0  0  0  0  0  0  0  0  0  0
   37.4610   23.9750   30.8080 H   0  0  0  0  0  0  0  0  0  0  0  0
   37.5400   24.1300   37.0120 C   0  0  0  0  0  0  0  0  0  0  0  0
   38.4430   23.6430   36.0550 C   0  0  0  0  0  0  0  0  0  0  0  0
   39.6090   23.0360   36.5080 C   0  0  0  0  0  0  0  0  0  0  0  0
   39.8140   22.9450   37.8430 N   0  0  0  0  0  0  0  0  0  0  0  0
   38.9370   23.4170   38.7350 C   0  0  0  0  0  0  0  0  0  0  0  0
   37.8020   24.0090   38.3280 N   0  0  0  0  0  0  0  0  0  0  0  0
   36.6700   24.5820   36.5980 H   0  0  0  0  0  0  0  0  0  0  0  0
   40.3330   22.6470   35.8170 H   0  0  0  0  0  0  0  0  0  0  0  0
   39.0460   23.3720   39.8080 H   0  0  0  0  0  0  0  0  0  0  0  0
  1  7  1  6  0  0  0
  1 23  1  0  0  0  0
  2  8  1  0  0  0  0
  2  3  1  0  0  0  0
  2  1  1  0  0  0  0
  3 10  1  0  0  0  0
  4  3  1  0  0  0  0
  4 12  1  0  0  0  0
  5  4  1  0  0  0  0
  5  6  1  0  0  0  0
  6 16  1  6  0  0  0
  6  1  1  0  0  0  0
  6 17  1  0  0  0  0
  9  2  1  0  0  0  0
 11  3  1  0  0  0  0
 13  4  1  0  0  0  0
 14  5  1  0  0  0  0
 15  5  1  0  0  0  0
 17 18  1  0  0  0  0
 18 19  1  0  0  0  0
 20 19  1  0  0  0  0
 21 20  1  0  0  0  0
 22 17  1  0  0  0  0
 22 21  1  0  0  0  0
 23 30  1  0  0  0  0
 25 26  1  0  0  0  0
 25 24  1  0  0  0  0
 26 35  1  0  0  0  0
 27 31  1  0  0  0  0
 27 26  2  0  0  0  0
 28 27  1  0  0  0  0
 29 28  2  0  0  0  0
 29 30  1  0  0  0  0
 30 25  2  0  0  0  0
 32 28  1  0  0  0  0
 33 29  1  0  0  0  0
 34 39  1  0  0  0  0
 35 36  1  0  0  0  0
 35 34  2  0  0  0  0
 36 37  2  0  0  0  0
 37 38  1  0  0  0  0
 38 42  1  0  0  0  0
 39 38  2  0  0  0  0
 40 34  1  0  0  0  0
 41 36  1  0  0  0  0
M  END
>  <minimizedAffinity>
-5.55959558

$$$$

 OpenBabel03272505053D

 42 45  0  0  1  0  0  0  0  0999 V2000
   34.8740   30.0380   33.9760 C   0  0  2  0  0  0  0  0  0  0  0  0
   35.9870   31.0640   34.3700 C   0  0  0  0  0  0  0  0  0  0  0  0
   35.8820   31.2760   35.8600 C   0  0  0  0  0  0  0  0  0  0  0  0
   34.6910   32.1540   36.1340 C   0  0  0  0  0  0  0  0  0  0  0  0
   33.7080   31.9840   35.0350 C   0  0  0  0  0  0  0  0  0  0  0  0
   33.6290   30.5470   34.5570 C   0  0  2  0  0  0  0  0  0  0  0  0
   34.9760   30.0470   32.8620 H   0  0  0  0  0  0  0  0  0  0  0  0
   36.9950   30.6040   34.1750 H   0  0  0  0  0  0  0  0  0  0  0  0
   35.8560   31.9830   33.7990 H   0  0  0  0  0  0  0  0  0  0  0  0
   35.5120   30.3450   36.3890 H   0  0  0  0  0  0  0  0  0  0  0  0
   36.8100   31.6670   36.2890 H   0  0  0  0  0  0  0  0  0  0  0  0
   34.2510   32.0440   37.1370 H   0  0  0  0  0  0  0  0  0  0  0  0
   35.0790   33.2140   36.1010 H   0  0  0  0  0  0  0  0  0  0  0  0
   32.7330   32.3200   35.3900 H   0  0  0  0  0  0  0  0  0  0  0  0
   33.9860   32.6730   34.2080 H   0  0  0  0  0  0  0  0  0  0  0  0
   32.9430   30.6650   33.6450 H   0  0  0  0  0  0  0  0  0  0  0  0
   32.8360   29.7540   35.5080 C   0  0  0  0  0  3  0  0  0  0  0  0
   31.8840   28.7580   34.8990 C   0  0  0  0  0  2  0  0  0  0  0  0
   31.3300   27.8500   36.0140 C   0  0  0  0  0  2  0  0  0  0  0  0
   30.9750   28.6780   37.2290 C   0  0  0  0  0  2  0  0  0  0  0  0
   30.6410   30.0440   36.7250 C   0  0  0  0  0  2  0  0  0  0  0  0
   31.9290   30.7120   36.2890 C   0  0  0  0  0  2  0  0  0  0  0  0
   35.2850   28.8660   34.4990 O   0  0  0  0  0  0  0  0  0  0  0  0
   35.9490   28.1170   31.7740 Cl  0  0  0  0  0  0  0  0  0  0  0  0
   36.9670   27.8230   33.1600 C   0  0  0  0  0  0  0  0  0  0  0  0
   38.1560   27.1930   32.9400 C   0  0  0  0  0  0  0  0  0  0  0  0
   38.9400   26.9700   34.0740 C   0  0  0  0  0  0  0  0  0  0  0  0
   38.4890   27.3840   35.3190 C   0  0  0  0  0  0  0  0  0  0  0  0
   37.2790   28.0160   35.4830 C   0  0  0  0  0  0  0  0  0  0  0  0
   36.5100   28.2350   34.3790 C   0  0  0  0  0  0  0  0  0  0  0  0
   39.8920   26.4710   33.9340 H   0  0  0  0  0  0  0  0  0  0  0  0
   39.1540   27.1750   36.1490 H   0  0  0  0  0  0  0  0  0  0  0  0
   36.9390   28.3330   36.4520 H   0  0  0  0  0  0  0  0  0  0  0  0
   38.4080   25.4490   31.1670 C   0  0  0  0  0  0  0  0  0  0  0  0
   38.6480   26.7480   31.6380 C   0  0  0  0  0  0  0  0  0  0  0  0
   39.3760   27.6120   30.8270 C   0  0  0  0  0  0  0  0  0  0  0  0
   39.8130   27.1590   29.6290 N   0  0  0  0  0  0  0  0  0  0  0  0
   39.5710   25.9150   29.2020 C   0  0  0  0  0  0  0  0  0  0  0  0
   38.8710   25.0580   29.9630 N   0  0  0  0  0  0  0  0  0  0  0  0
   37.8460   24.8410   31.8360 H   0  0  0  0  0  0  0  0  0  0  0  0
   39.5880   28.6170   31.1410 H   0  0  0  0  0  0  0  0  0  0  0  0
   39.8930   25.4990   28.2600 H   0  0  0  0  0  0  0  0  0  0  0  0
  1  7  1  6  0  0  0
  1  2  1  0  0  0  0
  1 23  1  0  0  0  0
  1  6  1  0  0  0  0
  2  3  1  0  0  0  0
  3  4  1  0  0  0  0
  3 11  1  0  0  0  0
  3 10  1  0  0  0  0
  4 12  1  0  0  0  0
  5 14  1  0  0  0  0
  5  4  1  0  0  0  0
  6 16  1  6  0  0  0
  6  5  1  0  0  0  0
  6 17  1  0  0  0  0
  8  2  1  0  0  0  0
  9  2  1  0  0  0  0
 13  4  1  0  0  0  0
 15  5  1  0  0  0  0
 17 22  1  0  0  0  0
 18 17  1  0  0  0  0
 18 19  1  0  0  0  0
 19 20  1  0  0  0  0
 21 20  1  0  0  0  0
 22 21  1  0  0  0  0
 24 25  1  0  0  0  0
 25 30  1  0  0  0  0
 26 25  2  0  0  0  0
 26 27  1  0  0  0  0
 27 28  2  0  0  0  0
 28 29  1  0  0  0  0
 28 32  1  0  0  0  0
 29 33  1  0  0  0  0
 30 23  1  0  0  0  0
 30 29  2  0  0  0  0
 31 27  1  0  0  0  0
 34 35  1  0  0  0  0
 34 40  1  0  0  0  0
 35 26  1  0  0  0  0
 36 41  1  0  0  0  0
 36 35  2  0  0  0  0
 37 36  1  0  0  0  0
 38 37  2  0  0  0  0
 38 39  1  0  0  0  0
 39 34  2  0  0  0  0
 42 38  1  0  0  0  0
M  END
>  <minimizedAffinity>
-5.55174494

$$$$

 OpenBabel03272505053D

 42 45  0  0  1  0  0  0  0  0999 V2000
   38.4770   24.5820   35.5130 C   0  0  2  0  0  0  0  0  0  0  0  0
   37.4160   24.8180   36.6390 C   0  0  0  0  0  0  0  0  0  0  0  0
   38.1500   24.7450   37.9550 C   0  0  0  0  0  0  0  0  0  0  0  0
   38.4480   23.3010   38.2560 C   0  0  0  0  0  0  0  0  0  0  0  0
   38.5280   22.5520   36.9790 C   0  0  0  0  0  0  0  0  0  0  0  0
   39.1970   23.3610   35.8830 C   0  0  2  0  0  0  0  0  0  0  0  0
   37.8120   24.5470   34.6140 H   0  0  0  0  0  0  0  0  0  0  0  0
   37.0110   25.8630   36.5470 H   0  0  0  0  0  0  0  0  0  0  0  0
   36.6210   24.0770   36.5530 H   0  0  0  0  0  0  0  0  0  0  0  0
   39.2190   25.1070   37.8580 H   0  0  0  0  0  0  0  0  0  0  0  0
   37.6050   25.2480   38.7610 H   0  0  0  0  0  0  0  0  0  0  0  0
   39.3100   23.1310   38.9200 H   0  0  0  0  0  0  0  0  0  0  0  0
   37.5560   22.9200   38.8350 H   0  0  0  0  0  0  0  0  0  0  0  0
   39.0770   21.6270   37.1550 H   0  0  0  0  0  0  0  0  0  0  0  0
   37.5000   22.2460   36.6870 H   0  0  0  0  0  0  0  0  0  0  0  0
   39.0300   22.6740   34.9810 H   0  0  0  0  0  0  0  0  0  0  0  0
   40.6540   23.3510   36.0830 C   0  0  0  0  0  3  0  0  0  0  0  0
   41.4840   23.0710   34.8570 C   0  0  0  0  0  2  0  0  0  0  0  0
   42.9640   23.3450   35.1820 C   0  0  0  0  0  2  0  0  0  0  0  0
   43.3090   22.7850   36.5440 C   0  0  0  0  0  2  0  0  0  0  0  0
   42.3790   21.6390   36.7770 C   0  0  0  0  0  2  0  0  0  0  0  0
   40.9960   22.2020   37.0400 C   0  0  0  0  0  2  0  0  0  0  0  0
   39.2390   25.6930   35.5200 O   0  0  0  0  0  0  0  0  0  0  0  0
   37.4520   26.3760   33.3360 Cl  0  0  0  0  0  0  0  0  0  0  0  0
   39.1630   26.7190   33.3630 C   0  0  0  0  0  0  0  0  0  0  0  0
   39.6900   27.3500   32.2760 C   0  0  0  0  0  0  0  0  0  0  0  0
   41.0630   27.6020   32.3310 C   0  0  0  0  0  0  0  0  0  0  0  0
   41.7930   27.2130   33.4460 C   0  0  0  0  0  0  0  0  0  0  0  0
   41.2070   26.5790   34.5160 C   0  0  0  0  0  0  0  0  0  0  0  0
   39.8680   26.3300   34.4660 C   0  0  0  0  0  0  0  0  0  0  0  0
   41.5150   28.1020   31.4830 H   0  0  0  0  0  0  0  0  0  0  0  0
   42.8510   27.4440   33.4140 H   0  0  0  0  0  0  0  0  0  0  0  0
   41.7820   26.2820   35.3740 H   0  0  0  0  0  0  0  0  0  0  0  0
   37.7120   28.4350   31.1990 C   0  0  0  0  0  0  0  0  0  0  0  0
   38.9400   27.7660   31.0930 C   0  0  0  0  0  0  0  0  0  0  0  0
   39.4320   27.5030   29.8180 C   0  0  0  0  0  0  0  0  0  0  0  0
   38.7050   27.9060   28.7500 N   0  0  0  0  0  0  0  0  0  0  0  0
   37.5360   28.5430   28.8790 C   0  0  0  0  0  0  0  0  0  0  0  0
   37.0350   28.8090   30.0960 N   0  0  0  0  0  0  0  0  0  0  0  0
   37.3950   28.6030   32.2020 H   0  0  0  0  0  0  0  0  0  0  0  0
   40.3670   26.9930   29.6820 H   0  0  0  0  0  0  0  0  0  0  0  0
   36.9150   28.8860   28.0660 H   0  0  0  0  0  0  0  0  0  0  0  0
  1  7  1  6  0  0  0
  1 23  1  0  0  0  0
  1  6  1  0  0  0  0
  1  2  1  0  0  0  0
  2  3  1  0  0  0  0
  3  4  1  0  0  0  0
  3 11  1  0  0  0  0
  4 13  1  0  0  0  0
  4 12  1  0  0  0  0
  5 14  1  0  0  0  0
  5  4  1  0  0  0  0
  6 16  1  6  0  0  0
  6 17  1  0  0  0  0
  6  5  1  0  0  0  0
  8  2  1  0  0  0  0
  9  2  1  0  0  0  0
 10  3  1  0  0  0  0
 15  5  1  0  0  0  0
 17 22  1  0  0  0  0
 18 19  1  0  0  0  0
 18 17  1  0  0  0  0
 19 20  1  0  0  0  0
 20 21  1  0  0  0  0
 21 22  1  0  0  0  0
 24 25  1  0  0  0  0
 25 30  1  0  0  0  0
 26 27  1  0  0  0  0
 26 25  2  0  0  0  0
 27 28  2  0  0  0  0
 28 29  1  0  0  0  0
 29 33  1  0  0  0  0
 30 29  2  0  0  0  0
 30 23  1  0  0  0  0
 31 27  1  0  0  0  0
 32 28  1  0  0  0  0
 34 40  1  0  0  0  0
 35 34  1  0  0  0  0
 35 26  1  0  0  0  0
 36 35  2  0  0  0  0
 37 38  2  0  0  0  0
 37 36  1  0  0  0  0
 38 39  1  0  0  0  0
 39 34  2  0  0  0  0
 41 36  1  0  0  0  0
 42 38  1  0  0  0  0
M  END
>  <minimizedAffinity>
-5.53798866

$$$$
