
 OpenBabel03262523103D

 17 18  0  0  0  0  0  0  0  0999 V2000
   37.4860   30.3160   50.9270 C   0  0  0  0  0  0  0  0  0  0  0  0
   38.3820   31.1560   50.2100 C   0  0  0  0  0  0  0  0  0  0  0  0
   37.9430   31.6570   48.9730 C   0  0  0  0  0  0  0  0  0  0  0  0
   36.6940   31.3040   48.5500 N   0  0  0  0  0  0  0  0  0  0  0  0
   35.8780   30.5080   49.2570 C   0  0  0  0  0  0  0  0  0  0  0  0
   36.2840   30.0260   50.4340 N   0  0  0  0  0  0  0  0  0  0  0  0
   39.3340   31.3660   50.6340 H   0  0  0  0  0  0  0  0  0  0  0  0
   38.6010   32.2920   48.4130 H   0  0  0  0  0  0  0  0  0  0  0  0
   34.5340   30.2100   48.6620 C   0  0  0  0  0  0  0  0  0  0  0  0
   34.5900   30.0780   47.1780 C   0  0  0  0  0  0  0  0  0  0  0  0
   33.6270   29.0650   46.6150 C   0  0  0  0  0  0  0  0  0  0  0  0
   33.7470   27.6980   47.2210 C   0  0  0  0  0  0  0  0  0  0  0  0
   34.3510   27.7130   48.6060 C   0  0  0  0  0  0  0  0  0  0  0  0
   34.0020   28.9690   49.3420 C   0  0  0  0  0  0  0  0  0  0  0  0
   37.8510   29.7620   52.1970 N   0  0  0  0  0  0  0  0  0  0  0  0
   38.3330   30.2560   52.9780 H   0  0  0  0  0  0  0  0  0  0  0  0
   37.6080   28.7550   52.3490 H   0  0  0  0  0  0  0  0  0  0  0  0
  1 15  1  0  0  0  0
  2  7  1  0  0  0  0
  2  1  2  0  0  0  0
  3  2  1  0  0  0  0
  4  3  2  0  0  0  0
  4  5  1  0  0  0  0
  5  6  2  0  0  0  0
  6  1  1  0  0  0  0
  8  3  1  0  0  0  0
  9  5  1  0  0  0  0
  9 14  1  0  0  0  0
 10  9  1  0  0  0  0
 11 10  1  0  0  0  0
 11 12  1  0  0  0  0
 12 13  1  0  0  0  0
 13 14  1  0  0  0  0
 15 17  1  0  0  0  0
 15 16  1  0  0  0  0
M  END
>  <minimizedAffinity>
-5.08867073

>  <minimizedRMSD>
1.8753221

$$$$
