
 OpenBabel03272508193D

 29 31  0  0  0  0  0  0  0  0999 V2000
   37.1060   31.1610   49.9830 C   0  0  0  0  0  0  0  0  0  0  0  0
   35.9140   30.5050   49.6350 C   0  0  0  0  0  0  0  0  0  0  0  0
   35.5690   29.5030   50.5100 C   0  0  0  0  0  0  0  0  0  0  0  0
   36.3090   29.1890   51.5900 N   0  0  0  0  0  0  0  0  0  0  0  0
   37.4510   29.8360   51.8980 C   0  0  0  0  0  0  0  0  0  0  0  0
   37.8490   30.8240   51.0910 N   0  0  0  0  0  0  0  0  0  0  0  0
   34.6450   28.9390   50.3090 H   0  0  0  0  0  0  0  0  0  0  0  0
   37.9810   29.5260   52.7720 H   0  0  0  0  0  0  0  0  0  0  0  0
   37.5000   32.3630   49.1330 C   0  0  0  0  0  0  0  0  0  0  0  0
   38.7370   33.0320   49.2910 C   0  0  0  0  0  0  0  0  0  0  0  0
   38.7080   31.9460   48.2280 C   0  0  0  0  0  0  0  0  0  0  0  0
   36.6780   32.7640   48.4690 H   0  0  0  0  0  0  0  0  0  0  0  0
   38.8450   34.0760   48.9420 H   0  0  0  0  0  0  0  0  0  0  0  0
   39.3910   32.7910   50.1620 H   0  0  0  0  0  0  0  0  0  0  0  0
   39.2250   31.0170   48.4340 H   0  0  0  0  0  0  0  0  0  0  0  0
   38.6360   32.3150   47.2000 H   0  0  0  0  0  0  0  0  0  0  0  0
   35.1770   30.8430   48.4240 C   0  0  0  0  0  0  0  0  0  0  0  0
   34.1180   31.1500   48.5950 H   0  0  0  0  0  0  0  0  0  0  0  0
   35.6540   31.7530   47.9910 H   0  0  0  0  0  0  0  0  0  0  0  0
   35.1340   29.7900   47.3840 C   0  0  0  0  0  0  0  0  0  0  0  0
   35.4340   28.8130   47.8240 H   0  0  0  0  0  0  0  0  0  0  0  0
   35.7480   29.9950   46.5030 H   0  0  0  0  0  0  0  0  0  0  0  0
   33.7410   29.6120   46.9050 C   0  0  0  0  0  0  0  0  0  0  0  0
   32.9260   30.3690   46.0920 C   0  0  0  0  0  0  0  0  0  0  0  0
   31.6590   29.9480   45.7940 C   0  0  0  0  0  0  0  0  0  0  0  0
   31.1380   30.6520   45.1430 H   0  0  0  0  0  0  0  0  0  0  0  0
   31.2060   28.7840   46.2990 N   0  0  0  0  0  0  0  0  0  0  0  0
   31.9830   28.0410   47.0850 C   0  0  0  0  0  0  0  0  0  0  0  0
   33.2300   28.4550   47.3790 N   0  0  0  0  0  0  0  0  0  0  0  0
  1  6  1  0  0  0  0
  2  1  2  0  0  0  0
  2  3  1  0  0  0  0
  3  4  2  0  0  0  0
  4  5  1  0  0  0  0
  5  8  1  0  0  0  0
  6  5  2  0  0  0  0
  7  3  1  0  0  0  0
  9 10  1  0  0  0  0
  9  1  1  0  0  0  0
 10 14  1  0  0  0  0
 11 15  1  0  0  0  0
 11  9  1  0  0  0  0
 11 10  1  0  0  0  0
 12  9  1  0  0  0  0
 13 10  1  0  0  0  0
 16 11  1  0  0  0  0
 17 18  1  0  0  0  0
 17  2  1  0  0  0  0
 19 17  1  0  0  0  0
 20 21  1  0  0  0  0
 20 17  1  0  0  0  0
 22 20  1  0  0  0  0
 23 29  1  0  0  0  0
 23 20  1  0  0  0  0
 24 23  2  0  0  0  0
 25 24  1  0  0  0  0
 25 27  2  0  0  0  0
 26 25  1  0  0  0  0
 27 28  1  0  0  0  0
 28 29  2  0  0  0  0
M  END
>  <minimizedAffinity>
-4.65090895

>  <minimizedRMSD>
6.59956408

$$$$
