
 OpenBabel03272502273D

 38 41  0  0  0  0  0  0  0  0999 V2000
   35.3900   20.6020   33.1540 C   0  0  0  0  0  0  0  0  0  0  0  0
   36.2840   20.8570   34.2040 C   0  0  0  0  0  0  0  0  0  0  0  0
   37.1850   21.8870   34.0390 C   0  0  0  0  0  0  0  0  0  0  0  0
   37.1460   22.5750   32.8880 N   0  0  0  0  0  0  0  0  0  0  0  0
   36.2870   22.3250   31.8890 C   0  0  0  0  0  0  0  0  0  0  0  0
   35.4070   21.3340   32.0270 N   0  0  0  0  0  0  0  0  0  0  0  0
   34.7120   19.7930   33.3320 H   0  0  0  0  0  0  0  0  0  0  0  0
   36.2940   20.2840   35.1230 H   0  0  0  0  0  0  0  0  0  0  0  0
   38.1560   22.2590   35.0480 C   0  0  0  0  0  0  0  0  0  0  0  0
   39.5190   22.1480   34.8060 C   0  0  0  0  0  0  0  0  0  0  0  0
   40.4790   22.4900   35.7250 C   0  0  0  0  0  0  0  0  0  0  0  0
   40.0870   22.9610   36.9320 N   0  0  0  0  0  0  0  0  0  0  0  0
   38.7750   23.0640   37.1510 C   0  0  0  0  0  0  0  0  0  0  0  0
   37.8120   22.7350   36.2680 N   0  0  0  0  0  0  0  0  0  0  0  0
   39.8470   21.7710   33.8450 H   0  0  0  0  0  0  0  0  0  0  0  0
   41.5280   22.3710   35.4510 H   0  0  0  0  0  0  0  0  0  0  0  0
   38.3160   23.5800   38.4690 C   0  0  0  0  0  0  0  0  0  0  0  0
   37.8810   24.9090   38.2670 F   0  0  0  0  0  0  0  0  0  0  0  0
   37.3370   22.8020   39.0050 F   0  0  0  0  0  0  0  0  0  0  0  0
   39.3690   23.6960   39.3610 F   0  0  0  0  0  0  0  0  0  0  0  0
   36.3830   23.1380   30.7620 O   0  0  0  0  0  0  0  0  0  0  0  0
   39.1700   25.5080   30.5260 N   0  0  0  0  0  0  0  0  0  0  0  0
   38.5460   24.3250   30.4580 C   0  0  0  0  0  0  0  0  0  0  0  0
   37.2090   24.2390   30.7670 C   0  0  0  0  0  0  0  0  0  0  0  0
   36.5340   25.4050   31.1470 C   0  0  0  0  0  0  0  0  0  0  0  0
   35.3160   25.5520   31.4690 O   0  0  0  0  0  0  0  0  0  0  0  0
   37.2230   26.5700   31.1970 N   0  0  0  0  0  0  0  0  0  0  0  0
   38.5270   26.6260   30.8900 C   0  0  0  0  0  0  0  0  0  0  0  0
   39.2010   27.6970   30.9260 O   0  0  0  0  0  0  0  0  0  0  0  0
   40.1810   25.4780   30.2760 H   0  0  0  0  0  0  0  0  0  0  0  0
   38.9960   23.3850   30.1740 H   0  0  0  0  0  0  0  0  0  0  0  0
   36.6480   27.8110   31.5670 C   0  0  0  0  0  0  0  0  0  0  0  0
   36.4320   28.1880   32.8670 C   0  0  0  0  0  3  0  0  0  0  0  0
   35.8780   29.3810   33.2790 C   0  0  0  0  0  0  0  0  0  0  0  0
   35.7240   29.6430   34.3140 H   0  0  0  0  0  0  0  0  0  0  0  0
   35.5280   30.2310   32.2760 N   0  0  0  0  0  0  0  0  0  0  0  0
   35.7240   29.8930   30.9890 C   0  0  0  0  0  3  0  0  0  0  0  0
   36.2710   28.7150   30.6190 N   0  0  0  0  0  0  0  0  0  0  0  0
  1  7  1  0  0  0  0
  1  2  1  0  0  0  0
  2  8  1  0  0  0  0
  3  2  2  0  0  0  0
  3  9  1  0  0  0  0
  4  3  1  0  0  0  0
  5  6  1  0  0  0  0
  5  4  2  0  0  0  0
  6  1  2  0  0  0  0
  9 14  1  0  0  0  0
 10  9  2  0  0  0  0
 10 11  1  0  0  0  0
 11 12  2  0  0  0  0
 12 13  1  0  0  0  0
 13 17  1  0  0  0  0
 14 13  2  0  0  0  0
 15 10  1  0  0  0  0
 16 11  1  0  0  0  0
 17 19  1  0  0  0  0
 17 20  1  0  0  0  0
 18 17  1  0  0  0  0
 21 24  1  0  0  0  0
 21  5  1  0  0  0  0
 22 28  1  0  0  0  0
 23 22  1  0  0  0  0
 23 24  2  0  0  0  0
 24 25  1  0  0  0  0
 25 27  1  0  0  0  0
 25 26  2  0  0  0  0
 27 32  1  0  0  0  0
 28 29  2  0  0  0  0
 28 27  1  0  0  0  0
 30 22  1  0  0  0  0
 31 23  1  0  0  0  0
 32 33  1  0  0  0  0
 33 34  2  0  0  0  0
 34 35  1  0  0  0  0
 36 34  1  0  0  0  0
 37 36  2  0  0  0  0
 38 37  1  0  0  0  0
 38 32  2  0  0  0  0
M  END
>  <minimizedAffinity>
-6.83785963

$$$$

 OpenBabel03272502273D

 38 41  0  0  0  0  0  0  0  0999 V2000
   36.8490   24.1080   31.5940 C   0  0  0  0  0  0  0  0  0  0  0  0
   37.3810   23.4400   32.7060 C   0  0  0  0  0  0  0  0  0  0  0  0
   38.0970   24.1880   33.6160 C   0  0  0  0  0  0  0  0  0  0  0  0
   38.2380   25.5010   33.3780 N   0  0  0  0  0  0  0  0  0  0  0  0
   37.7240   26.1320   32.3110 C   0  0  0  0  0  0  0  0  0  0  0  0
   37.0280   25.4290   31.4180 N   0  0  0  0  0  0  0  0  0  0  0  0
   36.3020   23.4840   30.9180 H   0  0  0  0  0  0  0  0  0  0  0  0
   37.2530   22.3780   32.8740 H   0  0  0  0  0  0  0  0  0  0  0  0
   38.6920   23.6230   34.8110 C   0  0  0  0  0  0  0  0  0  0  0  0
   39.7670   22.7470   34.7300 C   0  0  0  0  0  0  0  0  0  0  0  0
   40.3690   22.1880   35.8300 C   0  0  0  0  0  0  0  0  0  0  0  0
   39.8980   22.5010   37.0590 N   0  0  0  0  0  0  0  0  0  0  0  0
   38.8660   23.3430   37.1230 C   0  0  0  0  0  0  0  0  0  0  0  0
   38.2560   23.9060   36.0610 N   0  0  0  0  0  0  0  0  0  0  0  0
   40.1530   22.4870   33.7520 H   0  0  0  0  0  0  0  0  0  0  0  0
   41.2090   21.5090   35.6740 H   0  0  0  0  0  0  0  0  0  0  0  0
   38.3290   23.7040   38.4620 C   0  0  0  0  0  0  0  0  0  0  0  0
   37.9130   25.0530   38.3950 F   0  0  0  0  0  0  0  0  0  0  0  0
   37.3150   22.8800   38.8410 F   0  0  0  0  0  0  0  0  0  0  0  0
   39.3240   23.7010   39.4240 F   0  0  0  0  0  0  0  0  0  0  0  0
   37.9650   27.5000   32.2180 O   0  0  0  0  0  0  0  0  0  0  0  0
   35.4840   29.7500   30.7270 N   0  0  0  0  0  0  0  0  0  0  0  0
   36.5260   28.9090   30.7610 C   0  0  0  0  0  0  0  0  0  0  0  0
   36.9330   28.3730   31.9600 C   0  0  0  0  0  0  0  0  0  0  0  0
   36.2350   28.7260   33.1210 C   0  0  0  0  0  0  0  0  0  0  0  0
   36.4370   28.3530   34.3170 O   0  0  0  0  0  0  0  0  0  0  0  0
   35.1900   29.5810   33.0200 N   0  0  0  0  0  0  0  0  0  0  0  0
   34.8150   30.0900   31.8370 C   0  0  0  0  0  0  0  0  0  0  0  0
   33.8440   30.8920   31.7050 O   0  0  0  0  0  0  0  0  0  0  0  0
   35.2480   30.1060   29.7770 H   0  0  0  0  0  0  0  0  0  0  0  0
   37.1120   28.5900   29.9120 H   0  0  0  0  0  0  0  0  0  0  0  0
   34.4120   30.0110   34.1230 C   0  0  0  0  0  0  0  0  0  0  0  0
   34.7480   31.0750   34.9190 C   0  0  0  0  0  3  0  0  0  0  0  0
   34.0270   31.5320   36.0010 C   0  0  0  0  0  0  0  0  0  0  0  0
   34.3240   32.3750   36.6050 H   0  0  0  0  0  0  0  0  0  0  0  0
   32.8880   30.8380   36.2690 N   0  0  0  0  0  0  0  0  0  0  0  0
   32.5280   29.7880   35.5090 C   0  0  0  0  0  3  0  0  0  0  0  0
   33.2570   29.3670   34.4550 N   0  0  0  0  0  0  0  0  0  0  0  0
  1  2  1  0  0  0  0
  2  8  1  0  0  0  0
  2  3  2  0  0  0  0
  3  9  1  0  0  0  0
  4  3  1  0  0  0  0
  5  4  2  0  0  0  0
  6  1  2  0  0  0  0
  6  5  1  0  0  0  0
  7  1  1  0  0  0  0
  9 14  1  0  0  0  0
 10  9  2  0  0  0  0
 10 11  1  0  0  0  0
 11 12  2  0  0  0  0
 12 13  1  0  0  0  0
 13 17  1  0  0  0  0
 14 13  2  0  0  0  0
 15 10  1  0  0  0  0
 16 11  1  0  0  0  0
 17 19  1  0  0  0  0
 17 20  1  0  0  0  0
 18 17  1  0  0  0  0
 21  5  1  0  0  0  0
 22 23  1  0  0  0  0
 22 28  1  0  0  0  0
 23 24  2  0  0  0  0
 24 21  1  0  0  0  0
 24 25  1  0  0  0  0
 25 26  2  0  0  0  0
 27 25  1  0  0  0  0
 27 32  1  0  0  0  0
 28 27  1  0  0  0  0
 29 28  2  0  0  0  0
 30 22  1  0  0  0  0
 31 23  1  0  0  0  0
 32 38  2  0  0  0  0
 32 33  1  0  0  0  0
 33 34  2  0  0  0  0
 34 36  1  0  0  0  0
 34 35  1  0  0  0  0
 37 36  2  0  0  0  0
 38 37  1  0  0  0  0
M  END
>  <minimizedAffinity>
-6.78096247

$$$$

 OpenBabel03272502273D

 38 41  0  0  0  0  0  0  0  0999 V2000
   37.0980   28.7530   29.8660 C   0  0  0  0  0  0  0  0  0  0  0  0
   36.1670   29.3490   30.7290 C   0  0  0  0  0  0  0  0  0  0  0  0
   36.2200   29.0010   32.0620 C   0  0  0  0  0  0  0  0  0  0  0  0
   37.1550   28.1190   32.4440 N   0  0  0  0  0  0  0  0  0  0  0  0
   38.0430   27.5540   31.6110 C   0  0  0  0  0  0  0  0  0  0  0  0
   38.0100   27.8750   30.3180 N   0  0  0  0  0  0  0  0  0  0  0  0
   37.0150   29.0560   28.8430 H   0  0  0  0  0  0  0  0  0  0  0  0
   35.4210   30.0580   30.3940 H   0  0  0  0  0  0  0  0  0  0  0  0
   35.3220   29.5490   33.0590 C   0  0  0  0  0  0  0  0  0  0  0  0
   33.9740   29.2140   33.0700 C   0  0  0  0  0  0  0  0  0  0  0  0
   33.0830   29.7010   33.9940 C   0  0  0  0  0  0  0  0  0  0  0  0
   33.5320   30.5520   34.9460 N   0  0  0  0  0  0  0  0  0  0  0  0
   34.8280   30.8650   34.9240 C   0  0  0  0  0  0  0  0  0  0  0  0
   35.7240   30.4030   34.0290 N   0  0  0  0  0  0  0  0  0  0  0  0
   33.6010   28.5340   32.3130 H   0  0  0  0  0  0  0  0  0  0  0  0
   32.0410   29.3840   33.9290 H   0  0  0  0  0  0  0  0  0  0  0  0
   35.3480   31.7980   35.9590 C   0  0  0  0  0  0  0  0  0  0  0  0
   35.1320   33.1110   35.4830 F   0  0  0  0  0  0  0  0  0  0  0  0
   34.7570   31.5940   37.1680 F   0  0  0  0  0  0  0  0  0  0  0  0
   36.7230   31.7020   36.0830 F   0  0  0  0  0  0  0  0  0  0  0  0
   38.9470   26.6580   32.1760 O   0  0  0  0  0  0  0  0  0  0  0  0
   37.5790   23.2790   32.5660 N   0  0  0  0  0  0  0  0  0  0  0  0
   37.9190   24.4090   31.9310 C   0  0  0  0  0  0  0  0  0  0  0  0
   38.5210   25.4290   32.6260 C   0  0  0  0  0  0  0  0  0  0  0  0
   38.7640   25.2550   33.9940 C   0  0  0  0  0  0  0  0  0  0  0  0
   39.3030   26.0570   34.8170 O   0  0  0  0  0  0  0  0  0  0  0  0
   38.3970   24.0900   34.5780 N   0  0  0  0  0  0  0  0  0  0  0  0
   37.8100   23.1100   33.8750 C   0  0  0  0  0  0  0  0  0  0  0  0
   37.4530   22.0080   34.3880 O   0  0  0  0  0  0  0  0  0  0  0  0
   37.1280   22.5620   31.9610 H   0  0  0  0  0  0  0  0  0  0  0  0
   37.7650   24.6170   30.8830 H   0  0  0  0  0  0  0  0  0  0  0  0
   38.5900   23.8000   35.9510 C   0  0  0  0  0  0  0  0  0  0  0  0
   39.6920   23.1460   36.4390 C   0  0  0  0  0  3  0  0  0  0  0  0
   39.9280   22.8410   37.7630 C   0  0  0  0  0  0  0  0  0  0  0  0
   40.8090   22.3250   38.1090 H   0  0  0  0  0  0  0  0  0  0  0  0
   38.9570   23.2400   38.6280 N   0  0  0  0  0  0  0  0  0  0  0  0
   37.8630   23.8830   38.1840 C   0  0  0  0  0  3  0  0  0  0  0  0
   37.6620   24.1670   36.8790 N   0  0  0  0  0  0  0  0  0  0  0  0
  1  6  2  0  0  0  0
  1  2  1  0  0  0  0
  2  3  2  0  0  0  0
  3  4  1  0  0  0  0
  3  9  1  0  0  0  0
  5 21  1  0  0  0  0
  5  4  2  0  0  0  0
  6  5  1  0  0  0  0
  7  1  1  0  0  0  0
  8  2  1  0  0  0  0
  9 10  2  0  0  0  0
  9 14  1  0  0  0  0
 10 11  1  0  0  0  0
 11 12  2  0  0  0  0
 13 12  1  0  0  0  0
 13 17  1  0  0  0  0
 14 13  2  0  0  0  0
 15 10  1  0  0  0  0
 16 11  1  0  0  0  0
 17 20  1  0  0  0  0
 17 19  1  0  0  0  0
 18 17  1  0  0  0  0
 21 24  1  0  0  0  0
 22 28  1  0  0  0  0
 23 22  1  0  0  0  0
 23 24  2  0  0  0  0
 24 25  1  0  0  0  0
 25 27  1  0  0  0  0
 25 26  2  0  0  0  0
 27 32  1  0  0  0  0
 28 29  2  0  0  0  0
 28 27  1  0  0  0  0
 30 22  1  0  0  0  0
 31 23  1  0  0  0  0
 32 33  2  0  0  0  0
 32 38  1  0  0  0  0
 33 34  1  0  0  0  0
 34 35  1  0  0  0  0
 34 36  2  0  0  0  0
 37 36  1  0  0  0  0
 38 37  2  0  0  0  0
M  END
>  <minimizedAffinity>
-6.55719995

$$$$

 OpenBabel03272502273D

 38 41  0  0  0  0  0  0  0  0999 V2000
   37.3190   28.8080   29.8420 C   0  0  0  0  0  0  0  0  0  0  0  0
   36.2710   29.2980   30.6350 C   0  0  0  0  0  0  0  0  0  0  0  0
   36.2050   28.8650   31.9420 C   0  0  0  0  0  0  0  0  0  0  0  0
   37.1440   28.0050   32.3660 N   0  0  0  0  0  0  0  0  0  0  0  0
   38.1430   27.5420   31.6000 C   0  0  0  0  0  0  0  0  0  0  0  0
   38.2270   27.9480   30.3340 N   0  0  0  0  0  0  0  0  0  0  0  0
   37.3260   29.1750   28.8360 H   0  0  0  0  0  0  0  0  0  0  0  0
   35.5260   29.9910   30.2660 H   0  0  0  0  0  0  0  0  0  0  0  0
   35.1800   29.3000   32.8690 C   0  0  0  0  0  0  0  0  0  0  0  0
   35.4960   30.0840   33.9710 C   0  0  0  0  0  0  0  0  0  0  0  0
   34.5630   30.5260   34.8750 C   0  0  0  0  0  0  0  0  0  0  0  0
   33.2670   30.1850   34.6930 N   0  0  0  0  0  0  0  0  0  0  0  0
   32.9760   29.4320   33.6300 C   0  0  0  0  0  0  0  0  0  0  0  0
   33.8710   28.9840   32.7270 N   0  0  0  0  0  0  0  0  0  0  0  0
   36.5310   30.3640   34.1290 H   0  0  0  0  0  0  0  0  0  0  0  0
   34.9000   31.1390   35.7130 H   0  0  0  0  0  0  0  0  0  0  0  0
   31.5580   29.0430   33.4060 C   0  0  0  0  0  0  0  0  0  0  0  0
   30.9540   30.0820   32.6620 F   0  0  0  0  0  0  0  0  0  0  0  0
   31.4550   27.8430   32.7740 F   0  0  0  0  0  0  0  0  0  0  0  0
   30.8470   29.0140   34.5930 F   0  0  0  0  0  0  0  0  0  0  0  0
   39.0330   26.6560   32.2020 O   0  0  0  0  0  0  0  0  0  0  0  0
   37.6410   23.2870   32.5950 N   0  0  0  0  0  0  0  0  0  0  0  0
   37.9900   24.4130   31.9580 C   0  0  0  0  0  0  0  0  0  0  0  0
   38.5970   25.4310   32.6530 C   0  0  0  0  0  0  0  0  0  0  0  0
   38.8350   25.2570   34.0220 C   0  0  0  0  0  0  0  0  0  0  0  0
   39.3770   26.0570   34.8450 O   0  0  0  0  0  0  0  0  0  0  0  0
   38.4580   24.0950   34.6070 N   0  0  0  0  0  0  0  0  0  0  0  0
   37.8670   23.1180   33.9050 C   0  0  0  0  0  0  0  0  0  0  0  0
   37.5010   22.0200   34.4180 O   0  0  0  0  0  0  0  0  0  0  0  0
   37.1860   22.5720   31.9890 H   0  0  0  0  0  0  0  0  0  0  0  0
   37.8400   24.6210   30.9090 H   0  0  0  0  0  0  0  0  0  0  0  0
   38.6460   23.8070   35.9810 C   0  0  0  0  0  0  0  0  0  0  0  0
   37.7590   24.1710   36.9610 C   0  0  0  0  0  3  0  0  0  0  0  0
   37.8950   23.9150   38.3080 C   0  0  0  0  0  0  0  0  0  0  0  0
   37.1740   24.2180   39.0500 H   0  0  0  0  0  0  0  0  0  0  0  0
   39.0230   23.2370   38.6550 N   0  0  0  0  0  0  0  0  0  0  0  0
   39.9150   22.8640   37.7200 C   0  0  0  0  0  3  0  0  0  0  0  0
   39.7510   23.1310   36.4070 N   0  0  0  0  0  0  0  0  0  0  0  0
  1  6  2  0  0  0  0
  1  2  1  0  0  0  0
  2  3  2  0  0  0  0
  3  4  1  0  0  0  0
  3  9  1  0  0  0  0
  5 21  1  0  0  0  0
  5  4  2  0  0  0  0
  6  5  1  0  0  0  0
  7  1  1  0  0  0  0
  8  2  1  0  0  0  0
  9 10  1  0  0  0  0
 10 15  1  0  0  0  0
 10 11  2  0  0  0  0
 11 16  1  0  0  0  0
 12 11  1  0  0  0  0
 13 12  2  0  0  0  0
 14  9  2  0  0  0  0
 14 13  1  0  0  0  0
 17 13  1  0  0  0  0
 17 20  1  0  0  0  0
 18 17  1  0  0  0  0
 19 17  1  0  0  0  0
 21 24  1  0  0  0  0
 22 28  1  0  0  0  0
 23 22  1  0  0  0  0
 23 24  2  0  0  0  0
 24 25  1  0  0  0  0
 25 27  1  0  0  0  0
 25 26  2  0  0  0  0
 27 32  1  0  0  0  0
 28 29  2  0  0  0  0
 28 27  1  0  0  0  0
 30 22  1  0  0  0  0
 31 23  1  0  0  0  0
 32 38  2  0  0  0  0
 32 33  1  0  0  0  0
 33 34  2  0  0  0  0
 34 36  1  0  0  0  0
 34 35  1  0  0  0  0
 37 36  2  0  0  0  0
 38 37  1  0  0  0  0
M  END
>  <minimizedAffinity>
-6.45895576

$$$$

 OpenBabel03272502273D

 38 41  0  0  0  0  0  0  0  0999 V2000
   37.0760   23.9880   32.0370 C   0  0  0  0  0  0  0  0  0  0  0  0
   37.5090   23.4390   33.2530 C   0  0  0  0  0  0  0  0  0  0  0  0
   38.1080   24.2890   34.1580 C   0  0  0  0  0  0  0  0  0  0  0  0
   38.2380   25.5790   33.8160 N   0  0  0  0  0  0  0  0  0  0  0  0
   37.8210   26.0960   32.6510 C   0  0  0  0  0  0  0  0  0  0  0  0
   37.2380   25.2940   31.7600 N   0  0  0  0  0  0  0  0  0  0  0  0
   36.6180   23.2880   31.3690 H   0  0  0  0  0  0  0  0  0  0  0  0
   37.3920   22.3930   33.5020 H   0  0  0  0  0  0  0  0  0  0  0  0
   38.5920   23.8520   35.4520 C   0  0  0  0  0  0  0  0  0  0  0  0
   37.8690   24.1070   36.6100 C   0  0  0  0  0  0  0  0  0  0  0  0
   38.2800   23.7120   37.8590 C   0  0  0  0  0  0  0  0  0  0  0  0
   39.4480   23.0380   37.9770 N   0  0  0  0  0  0  0  0  0  0  0  0
   40.1330   22.8000   36.8570 C   0  0  0  0  0  0  0  0  0  0  0  0
   39.7530   23.1760   35.6200 N   0  0  0  0  0  0  0  0  0  0  0  0
   36.9330   24.6460   36.5300 H   0  0  0  0  0  0  0  0  0  0  0  0
   37.6490   23.9540   38.7150 H   0  0  0  0  0  0  0  0  0  0  0  0
   41.4200   22.0610   36.9590 C   0  0  0  0  0  0  0  0  0  0  0  0
   42.4530   23.0250   36.9810 F   0  0  0  0  0  0  0  0  0  0  0  0
   41.4560   21.2540   38.0530 F   0  0  0  0  0  0  0  0  0  0  0  0
   41.6690   21.3190   35.8170 F   0  0  0  0  0  0  0  0  0  0  0  0
   38.0340   27.4590   32.4590 O   0  0  0  0  0  0  0  0  0  0  0  0
   35.5140   29.5530   30.8150 N   0  0  0  0  0  0  0  0  0  0  0  0
   36.5740   28.7400   30.9080 C   0  0  0  0  0  0  0  0  0  0  0  0
   36.9840   28.2900   32.1400 C   0  0  0  0  0  0  0  0  0  0  0  0
   36.2720   28.7000   33.2730 C   0  0  0  0  0  0  0  0  0  0  0  0
   36.4740   28.4080   34.4910 O   0  0  0  0  0  0  0  0  0  0  0  0
   35.2090   29.5240   33.1120 N   0  0  0  0  0  0  0  0  0  0  0  0
   34.8300   29.9480   31.8980 C   0  0  0  0  0  0  0  0  0  0  0  0
   33.8420   30.7170   31.7110 O   0  0  0  0  0  0  0  0  0  0  0  0
   35.2760   29.8430   29.8440 H   0  0  0  0  0  0  0  0  0  0  0  0
   37.1720   28.3810   30.0840 H   0  0  0  0  0  0  0  0  0  0  0  0
   34.4140   30.0040   34.1820 C   0  0  0  0  0  0  0  0  0  0  0  0
   34.7250   31.1190   34.9160 C   0  0  0  0  0  3  0  0  0  0  0  0
   33.9870   31.6280   35.9630 C   0  0  0  0  0  0  0  0  0  0  0  0
   34.2650   32.5100   36.5180 H   0  0  0  0  0  0  0  0  0  0  0  0
   32.8580   30.9320   36.2630 N   0  0  0  0  0  0  0  0  0  0  0  0
   32.5220   29.8320   35.5650 C   0  0  0  0  0  3  0  0  0  0  0  0
   33.2670   29.3610   34.5430 N   0  0  0  0  0  0  0  0  0  0  0  0
  1  2  1  0  0  0  0
  2  8  1  0  0  0  0
  2  3  2  0  0  0  0
  3  9  1  0  0  0  0
  4  3  1  0  0  0  0
  5  4  2  0  0  0  0
  6  1  2  0  0  0  0
  6  5  1  0  0  0  0
  7  1  1  0  0  0  0
  9 14  2  0  0  0  0
  9 10  1  0  0  0  0
 10 11  2  0  0  0  0
 11 12  1  0  0  0  0
 11 16  1  0  0  0  0
 13 17  1  0  0  0  0
 13 12  2  0  0  0  0
 14 13  1  0  0  0  0
 15 10  1  0  0  0  0
 17 18  1  0  0  0  0
 17 19  1  0  0  0  0
 20 17  1  0  0  0  0
 21  5  1  0  0  0  0
 22 23  1  0  0  0  0
 22 28  1  0  0  0  0
 23 24  2  0  0  0  0
 24 21  1  0  0  0  0
 24 25  1  0  0  0  0
 25 26  2  0  0  0  0
 27 25  1  0  0  0  0
 27 32  1  0  0  0  0
 28 27  1  0  0  0  0
 29 28  2  0  0  0  0
 30 22  1  0  0  0  0
 31 23  1  0  0  0  0
 32 38  2  0  0  0  0
 32 33  1  0  0  0  0
 33 34  2  0  0  0  0
 34 36  1  0  0  0  0
 34 35  1  0  0  0  0
 37 36  2  0  0  0  0
 38 37  1  0  0  0  0
M  END
>  <minimizedAffinity>
-6.37777424

$$$$

 OpenBabel03272502273D

 38 41  0  0  0  0  0  0  0  0999 V2000
   35.9020   26.2450   31.5500 C   0  0  0  0  0  0  0  0  0  0  0  0
   35.9150   24.9030   31.1440 C   0  0  0  0  0  0  0  0  0  0  0  0
   36.7320   24.0360   31.8380 C   0  0  0  0  0  0  0  0  0  0  0  0
   37.4580   24.5320   32.8510 N   0  0  0  0  0  0  0  0  0  0  0  0
   37.4390   25.8180   33.2320 C   0  0  0  0  0  0  0  0  0  0  0  0
   36.6560   26.6750   32.5760 N   0  0  0  0  0  0  0  0  0  0  0  0
   35.2530   26.8770   30.9800 H   0  0  0  0  0  0  0  0  0  0  0  0
   35.3190   24.5290   30.3220 H   0  0  0  0  0  0  0  0  0  0  0  0
   36.8320   22.6240   31.5270 C   0  0  0  0  0  0  0  0  0  0  0  0
   37.8080   22.1490   30.6600 C   0  0  0  0  0  0  0  0  0  0  0  0
   37.9490   20.8220   30.3360 C   0  0  0  0  0  0  0  0  0  0  0  0
   37.0980   19.9240   30.8840 N   0  0  0  0  0  0  0  0  0  0  0  0
   36.1650   20.3930   31.7150 C   0  0  0  0  0  0  0  0  0  0  0  0
   36.0040   21.6890   32.0500 N   0  0  0  0  0  0  0  0  0  0  0  0
   38.4960   22.8570   30.2140 H   0  0  0  0  0  0  0  0  0  0  0  0
   38.7450   20.5370   29.6470 H   0  0  0  0  0  0  0  0  0  0  0  0
   35.2170   19.4280   32.3310 C   0  0  0  0  0  0  0  0  0  0  0  0
   35.5580   18.1440   31.8500 F   0  0  0  0  0  0  0  0  0  0  0  0
   35.2480   19.4840   33.6900 F   0  0  0  0  0  0  0  0  0  0  0  0
   33.9240   19.6300   31.8800 F   0  0  0  0  0  0  0  0  0  0  0  0
   38.2550   26.1640   34.3060 O   0  0  0  0  0  0  0  0  0  0  0  0
   38.3550   23.8870   37.1770 N   0  0  0  0  0  0  0  0  0  0  0  0
   37.8530   24.8200   36.3580 C   0  0  0  0  0  0  0  0  0  0  0  0
   38.5770   25.2310   35.2650 C   0  0  0  0  0  0  0  0  0  0  0  0
   39.8320   24.6520   35.0380 C   0  0  0  0  0  0  0  0  0  0  0  0
   40.6580   24.8800   34.1020 O   0  0  0  0  0  0  0  0  0  0  0  0
   40.2840   23.7140   35.9040 N   0  0  0  0  0  0  0  0  0  0  0  0
   39.5560   23.3320   36.9630 C   0  0  0  0  0  0  0  0  0  0  0  0
   39.9470   22.4580   37.7930 O   0  0  0  0  0  0  0  0  0  0  0  0
   37.7380   23.6380   37.9790 H   0  0  0  0  0  0  0  0  0  0  0  0
   36.8970   25.3100   36.4660 H   0  0  0  0  0  0  0  0  0  0  0  0
   41.5350   23.0620   35.7780 C   0  0  0  0  0  0  0  0  0  0  0  0
   42.7030   23.5550   36.2990 C   0  0  0  0  0  3  0  0  0  0  0  0
   43.9430   22.9600   36.2050 C   0  0  0  0  0  0  0  0  0  0  0  0
   44.8410   23.3800   36.6290 H   0  0  0  0  0  0  0  0  0  0  0  0
   43.9660   21.7810   35.5280 N   0  0  0  0  0  0  0  0  0  0  0  0
   42.8390   21.2670   35.0030 C   0  0  0  0  0  3  0  0  0  0  0  0
   41.6390   21.8760   35.1140 N   0  0  0  0  0  0  0  0  0  0  0  0
  1  6  1  0  0  0  0
  2  1  2  0  0  0  0
  2  3  1  0  0  0  0
  3  4  2  0  0  0  0
  4  5  1  0  0  0  0
  5 21  1  0  0  0  0
  6  5  2  0  0  0  0
  7  1  1  0  0  0  0
  8  2  1  0  0  0  0
  9  3  1  0  0  0  0
  9 14  1  0  0  0  0
 10  9  2  0  0  0  0
 11 10  1  0  0  0  0
 11 12  2  0  0  0  0
 12 13  1  0  0  0  0
 13 14  2  0  0  0  0
 13 17  1  0  0  0  0
 15 10  1  0  0  0  0
 16 11  1  0  0  0  0
 17 19  1  0  0  0  0
 18 17  1  0  0  0  0
 20 17  1  0  0  0  0
 21 24  1  0  0  0  0
 22 30  1  0  0  0  0
 23 31  1  0  0  0  0
 23 22  1  0  0  0  0
 24 23  2  0  0  0  0
 25 24  1  0  0  0  0
 25 27  1  0  0  0  0
 26 25  2  0  0  0  0
 27 28  1  0  0  0  0
 28 22  1  0  0  0  0
 28 29  2  0  0  0  0
 32 27  1  0  0  0  0
 32 33  1  0  0  0  0
 34 33  2  0  0  0  0
 34 35  1  0  0  0  0
 36 34  1  0  0  0  0
 37 38  1  0  0  0  0
 37 36  2  0  0  0  0
 38 32  2  0  0  0  0
M  END
>  <minimizedAffinity>
-6.32198334

$$$$

 OpenBabel03272502273D

 38 41  0  0  0  0  0  0  0  0999 V2000
   40.2910   27.1870   32.7960 C   0  0  0  0  0  0  0  0  0  0  0  0
   40.0520   26.1650   33.7270 C   0  0  0  0  0  0  0  0  0  0  0  0
   38.8470   25.5020   33.6510 C   0  0  0  0  0  0  0  0  0  0  0  0
   37.9840   25.8770   32.6940 N   0  0  0  0  0  0  0  0  0  0  0  0
   38.2200   26.8550   31.8070 C   0  0  0  0  0  0  0  0  0  0  0  0
   39.3800   27.5100   31.8620 N   0  0  0  0  0  0  0  0  0  0  0  0
   41.2410   27.6700   32.8980 H   0  0  0  0  0  0  0  0  0  0  0  0
   40.7670   25.8840   34.4900 H   0  0  0  0  0  0  0  0  0  0  0  0
   38.4790   24.4230   34.5460 C   0  0  0  0  0  0  0  0  0  0  0  0
   38.0670   23.1920   34.0520 C   0  0  0  0  0  0  0  0  0  0  0  0
   37.7130   22.1370   34.8550 C   0  0  0  0  0  0  0  0  0  0  0  0
   37.7640   22.2960   36.1980 N   0  0  0  0  0  0  0  0  0  0  0  0
   38.1610   23.4830   36.6600 C   0  0  0  0  0  0  0  0  0  0  0  0
   38.5140   24.5340   35.8940 N   0  0  0  0  0  0  0  0  0  0  0  0
   38.0210   23.0510   32.9790 H   0  0  0  0  0  0  0  0  0  0  0  0
   37.4010   21.2050   34.3830 H   0  0  0  0  0  0  0  0  0  0  0  0
   38.2270   23.6840   38.1320 C   0  0  0  0  0  0  0  0  0  0  0  0
   39.4900   23.2160   38.5600 F   0  0  0  0  0  0  0  0  0  0  0  0
   38.0260   24.9840   38.4750 F   0  0  0  0  0  0  0  0  0  0  0  0
   37.3200   22.8750   38.7940 F   0  0  0  0  0  0  0  0  0  0  0  0
   37.2150   27.1140   30.8790 O   0  0  0  0  0  0  0  0  0  0  0  0
   36.5830   30.5100   29.6510 N   0  0  0  0  0  0  0  0  0  0  0  0
   37.1330   29.2890   29.6790 C   0  0  0  0  0  0  0  0  0  0  0  0
   36.7780   28.4020   30.6670 C   0  0  0  0  0  0  0  0  0  0  0  0
   35.8410   28.8070   31.6250 C   0  0  0  0  0  0  0  0  0  0  0  0
   35.3760   28.1560   32.6100 O   0  0  0  0  0  0  0  0  0  0  0  0
   35.3220   30.0550   31.5420 N   0  0  0  0  0  0  0  0  0  0  0  0
   35.6860   30.9000   30.5680 C   0  0  0  0  0  0  0  0  0  0  0  0
   35.2210   32.0740   30.4600 O   0  0  0  0  0  0  0  0  0  0  0  0
   36.9100   31.1140   28.8690 H   0  0  0  0  0  0  0  0  0  0  0  0
   37.8590   28.9040   28.9790 H   0  0  0  0  0  0  0  0  0  0  0  0
   34.3690   30.5750   32.4530 C   0  0  0  0  0  0  0  0  0  0  0  0
   33.0150   30.4570   32.2820 C   0  0  0  0  0  3  0  0  0  0  0  0
   32.0480   30.9430   33.1360 C   0  0  0  0  0  0  0  0  0  0  0  0
   30.9890   30.8300   32.9670 H   0  0  0  0  0  0  0  0  0  0  0  0
   32.5230   31.5920   34.2330 N   0  0  0  0  0  0  0  0  0  0  0  0
   33.8460   31.7270   34.4330 C   0  0  0  0  0  3  0  0  0  0  0  0
   34.7670   31.2370   33.5760 N   0  0  0  0  0  0  0  0  0  0  0  0
  1  7  1  0  0  0  0
  1  2  1  0  0  0  0
  2  8  1  0  0  0  0
  3  2  2  0  0  0  0
  3  9  1  0  0  0  0
  4  3  1  0  0  0  0
  5  6  1  0  0  0  0
  5  4  2  0  0  0  0
  6  1  2  0  0  0  0
  9 14  1  0  0  0  0
 10  9  2  0  0  0  0
 10 11  1  0  0  0  0
 11 12  2  0  0  0  0
 12 13  1  0  0  0  0
 13 17  1  0  0  0  0
 14 13  2  0  0  0  0
 15 10  1  0  0  0  0
 16 11  1  0  0  0  0
 17 19  1  0  0  0  0
 17 18  1  0  0  0  0
 17 20  1  0  0  0  0
 21  5  1  0  0  0  0
 22 23  1  0  0  0  0
 22 28  1  0  0  0  0
 23 24  2  0  0  0  0
 24 21  1  0  0  0  0
 24 25  1  0  0  0  0
 25 26  2  0  0  0  0
 27 25  1  0  0  0  0
 27 32  1  0  0  0  0
 28 27  1  0  0  0  0
 29 28  2  0  0  0  0
 30 22  1  0  0  0  0
 31 23  1  0  0  0  0
 32 38  1  0  0  0  0
 33 32  2  0  0  0  0
 33 34  1  0  0  0  0
 34 36  2  0  0  0  0
 35 34  1  0  0  0  0
 36 37  1  0  0  0  0
 38 37  2  0  0  0  0
M  END
>  <minimizedAffinity>
-6.17135239

$$$$

 OpenBabel03272502273D

 38 41  0  0  0  0  0  0  0  0999 V2000
   38.6820   27.4220   32.0420 C   0  0  0  0  0  0  0  0  0  0  0  0
   39.0290   26.3050   32.8150 C   0  0  0  0  0  0  0  0  0  0  0  0
   38.1340   25.8960   33.7810 C   0  0  0  0  0  0  0  0  0  0  0  0
   36.9950   26.5920   33.9170 N   0  0  0  0  0  0  0  0  0  0  0  0
   36.6720   27.6600   33.1710 C   0  0  0  0  0  0  0  0  0  0  0  0
   37.5210   28.0730   32.2310 N   0  0  0  0  0  0  0  0  0  0  0  0
   39.4100   27.6990   31.3070 H   0  0  0  0  0  0  0  0  0  0  0  0
   39.9560   25.7620   32.6850 H   0  0  0  0  0  0  0  0  0  0  0  0
   38.3660   24.7540   34.6420 C   0  0  0  0  0  0  0  0  0  0  0  0
   38.7560   23.5280   34.1160 C   0  0  0  0  0  0  0  0  0  0  0  0
   38.9920   22.4170   34.8860 C   0  0  0  0  0  0  0  0  0  0  0  0
   38.8410   22.5110   36.2280 N   0  0  0  0  0  0  0  0  0  0  0  0
   38.4670   23.6930   36.7200 C   0  0  0  0  0  0  0  0  0  0  0  0
   38.2280   24.7990   35.9870 N   0  0  0  0  0  0  0  0  0  0  0  0
   38.8800   23.4390   33.0430 H   0  0  0  0  0  0  0  0  0  0  0  0
   39.2950   21.4950   34.3900 H   0  0  0  0  0  0  0  0  0  0  0  0
   38.2940   23.8240   38.1910 C   0  0  0  0  0  0  0  0  0  0  0  0
   39.4910   23.3770   38.7930 F   0  0  0  0  0  0  0  0  0  0  0  0
   37.9900   25.0990   38.5550 F   0  0  0  0  0  0  0  0  0  0  0  0
   37.3270   22.9550   38.6670 F   0  0  0  0  0  0  0  0  0  0  0  0
   35.4470   28.2650   33.4440 O   0  0  0  0  0  0  0  0  0  0  0  0
   36.0840   30.9500   35.8570 N   0  0  0  0  0  0  0  0  0  0  0  0
   36.3690   29.9070   35.0670 C   0  0  0  0  0  0  0  0  0  0  0  0
   35.3750   29.3300   34.3120 C   0  0  0  0  0  0  0  0  0  0  0  0
   34.0810   29.8590   34.3940 C   0  0  0  0  0  0  0  0  0  0  0  0
   33.0280   29.4860   33.7920 O   0  0  0  0  0  0  0  0  0  0  0  0
   33.8580   30.9140   35.2130 N   0  0  0  0  0  0  0  0  0  0  0  0
   34.8460   31.4580   35.9380 C   0  0  0  0  0  0  0  0  0  0  0  0
   34.6750   32.4440   36.7130 O   0  0  0  0  0  0  0  0  0  0  0  0
   36.8980   31.3220   36.3910 H   0  0  0  0  0  0  0  0  0  0  0  0
   37.3380   29.4450   34.9500 H   0  0  0  0  0  0  0  0  0  0  0  0
   32.5940   31.5310   35.3780 C   0  0  0  0  0  0  0  0  0  0  0  0
   31.6800   31.1450   36.3230 C   0  0  0  0  0  3  0  0  0  0  0  0
   30.4400   31.7120   36.5250 C   0  0  0  0  0  0  0  0  0  0  0  0
   29.7460   31.3790   37.2810 H   0  0  0  0  0  0  0  0  0  0  0  0
   30.1340   32.7420   35.6910 N   0  0  0  0  0  0  0  0  0  0  0  0
   31.0070   33.1470   34.7510 C   0  0  0  0  0  3  0  0  0  0  0  0
   32.2160   32.5710   34.5810 N   0  0  0  0  0  0  0  0  0  0  0  0
  1  6  2  0  0  0  0
  1  2  1  0  0  0  0
  2  3  2  0  0  0  0
  3  4  1  0  0  0  0
  3  9  1  0  0  0  0
  5 21  1  0  0  0  0
  5  4  2  0  0  0  0
  6  5  1  0  0  0  0
  7  1  1  0  0  0  0
  8  2  1  0  0  0  0
  9 14  1  0  0  0  0
 10  9  2  0  0  0  0
 10 11  1  0  0  0  0
 11 12  2  0  0  0  0
 12 13  1  0  0  0  0
 13 17  1  0  0  0  0
 14 13  2  0  0  0  0
 15 10  1  0  0  0  0
 16 11  1  0  0  0  0
 17 19  1  0  0  0  0
 17 20  1  0  0  0  0
 17 18  1  0  0  0  0
 21 24  1  0  0  0  0
 22 28  1  0  0  0  0
 22 30  1  0  0  0  0
 23 22  1  0  0  0  0
 24 25  1  0  0  0  0
 24 23  2  0  0  0  0
 25 27  1  0  0  0  0
 26 25  2  0  0  0  0
 27 32  1  0  0  0  0
 27 28  1  0  0  0  0
 28 29  2  0  0  0  0
 31 23  1  0  0  0  0
 32 33  1  0  0  0  0
 33 34  2  0  0  0  0
 34 35  1  0  0  0  0
 36 34  1  0  0  0  0
 37 36  2  0  0  0  0
 38 37  1  0  0  0  0
 38 32  2  0  0  0  0
M  END
>  <minimizedAffinity>
-6.13744688

$$$$

 OpenBabel03272502273D

 38 41  0  0  0  0  0  0  0  0999 V2000
   37.0410   27.4720   34.1660 C   0  0  0  0  0  0  0  0  0  0  0  0
   37.4900   26.7580   35.2860 C   0  0  0  0  0  0  0  0  0  0  0  0
   37.9000   25.4570   35.0900 C   0  0  0  0  0  0  0  0  0  0  0  0
   37.8410   24.9610   33.8450 N   0  0  0  0  0  0  0  0  0  0  0  0
   37.4100   25.6520   32.7780 C   0  0  0  0  0  0  0  0  0  0  0  0
   37.0090   26.9120   32.9440 N   0  0  0  0  0  0  0  0  0  0  0  0
   36.7340   28.4770   34.3710 H   0  0  0  0  0  0  0  0  0  0  0  0
   37.5270   27.1830   36.2810 H   0  0  0  0  0  0  0  0  0  0  0  0
   38.3940   24.6140   36.1590 C   0  0  0  0  0  0  0  0  0  0  0  0
   37.7260   24.5340   37.3750 C   0  0  0  0  0  0  0  0  0  0  0  0
   38.1480   23.7470   38.4180 C   0  0  0  0  0  0  0  0  0  0  0  0
   39.2720   23.0090   38.2630 N   0  0  0  0  0  0  0  0  0  0  0  0
   39.9040   23.0940   37.0910 C   0  0  0  0  0  0  0  0  0  0  0  0
   39.5120   23.8580   36.0510 N   0  0  0  0  0  0  0  0  0  0  0  0
   36.8260   25.1200   37.5130 H   0  0  0  0  0  0  0  0  0  0  0  0
   37.5630   23.7450   39.3380 H   0  0  0  0  0  0  0  0  0  0  0  0
   41.1410   22.2930   36.8940 C   0  0  0  0  0  0  0  0  0  0  0  0
   42.2100   23.2060   36.7500 F   0  0  0  0  0  0  0  0  0  0  0  0
   41.3510   21.4250   37.9200 F   0  0  0  0  0  0  0  0  0  0  0  0
   41.1140   21.6060   35.6920 F   0  0  0  0  0  0  0  0  0  0  0  0
   37.4150   24.9840   31.5570 O   0  0  0  0  0  0  0  0  0  0  0  0
   35.2110   22.0590   31.4040 N   0  0  0  0  0  0  0  0  0  0  0  0
   35.5440   23.3480   31.5450 C   0  0  0  0  0  0  0  0  0  0  0  0
   36.8610   23.7290   31.4460 C   0  0  0  0  0  0  0  0  0  0  0  0
   37.8240   22.7450   31.1980 C   0  0  0  0  0  0  0  0  0  0  0  0
   39.0800   22.8730   31.0700 O   0  0  0  0  0  0  0  0  0  0  0  0
   37.4240   21.4580   31.0660 N   0  0  0  0  0  0  0  0  0  0  0  0
   36.1320   21.1140   31.1670 C   0  0  0  0  0  0  0  0  0  0  0  0
   35.7210   19.9220   31.0480 O   0  0  0  0  0  0  0  0  0  0  0  0
   34.1920   21.8630   31.4940 H   0  0  0  0  0  0  0  0  0  0  0  0
   34.8610   24.1620   31.7370 H   0  0  0  0  0  0  0  0  0  0  0  0
   38.3060   20.3790   30.8140 C   0  0  0  0  0  0  0  0  0  0  0  0
   38.6610   19.9670   29.5560 C   0  0  0  0  0  3  0  0  0  0  0  0
   39.5130   18.9260   29.2580 C   0  0  0  0  0  0  0  0  0  0  0  0
   39.7690   18.6310   28.2530 H   0  0  0  0  0  0  0  0  0  0  0  0
   40.0260   18.2750   30.3360 N   0  0  0  0  0  0  0  0  0  0  0  0
   39.6990   18.6510   31.5860 C   0  0  0  0  0  3  0  0  0  0  0  0
   38.8610   19.6770   31.8430 N   0  0  0  0  0  0  0  0  0  0  0  0
  1  7  1  0  0  0  0
  1  2  1  0  0  0  0
  2  8  1  0  0  0  0
  3  2  2  0  0  0  0
  3  9  1  0  0  0  0
  4  3  1  0  0  0  0
  5  6  1  0  0  0  0
  5  4  2  0  0  0  0
  6  1  2  0  0  0  0
  9 10  1  0  0  0  0
 10 15  1  0  0  0  0
 10 11  2  0  0  0  0
 11 16  1  0  0  0  0
 12 11  1  0  0  0  0
 13 12  2  0  0  0  0
 14  9  2  0  0  0  0
 14 13  1  0  0  0  0
 17 13  1  0  0  0  0
 17 19  1  0  0  0  0
 18 17  1  0  0  0  0
 20 17  1  0  0  0  0
 21  5  1  0  0  0  0
 22 30  1  0  0  0  0
 22 23  1  0  0  0  0
 23 31  1  0  0  0  0
 24 23  2  0  0  0  0
 24 21  1  0  0  0  0
 25 24  1  0  0  0  0
 26 25  2  0  0  0  0
 27 28  1  0  0  0  0
 27 25  1  0  0  0  0
 28 22  1  0  0  0  0
 29 28  2  0  0  0  0
 32 27  1  0  0  0  0
 32 38  1  0  0  0  0
 33 32  2  0  0  0  0
 34 33  1  0  0  0  0
 34 36  2  0  0  0  0
 35 34  1  0  0  0  0
 36 37  1  0  0  0  0
 37 38  2  0  0  0  0
M  END
>  <minimizedAffinity>
-6.0661006

$$$$
