
 OpenBabel03272502233D

 27 29  0  0  0  0  0  0  0  0999 V2000
   36.7620   29.5350   49.5220 C   0  0  0  0  0  0  0  0  0  0  0  0
   37.4390   30.2410   48.5130 C   0  0  0  0  0  0  0  0  0  0  0  0
   36.7760   30.4570   47.3180 C   0  0  0  0  0  0  0  0  0  0  0  0
   35.5220   29.9760   47.1950 N   0  0  0  0  0  0  0  0  0  0  0  0
   34.8930   29.3040   48.1710 C   0  0  0  0  0  0  0  0  0  0  0  0
   35.5160   29.0810   49.3440 N   0  0  0  0  0  0  0  0  0  0  0  0
   37.2890   29.3750   50.4470 H   0  0  0  0  0  0  0  0  0  0  0  0
   38.4440   30.6250   48.6160 H   0  0  0  0  0  0  0  0  0  0  0  0
   37.3620   31.1720   46.1900 C   0  0  0  0  0  0  0  0  0  0  0  0
   36.8140   31.1120   44.9220 C   0  0  0  0  0  0  0  0  0  0  0  0
   37.3570   31.7860   43.8400 C   0  0  0  0  0  0  0  0  0  0  0  0
   38.4620   32.5330   44.0120 N   0  0  0  0  0  0  0  0  0  0  0  0
   38.9830   32.5820   45.2490 C   0  0  0  0  0  0  0  0  0  0  0  0
   38.4700   31.9370   46.3030 N   0  0  0  0  0  0  0  0  0  0  0  0
   35.9180   30.5110   44.7650 H   0  0  0  0  0  0  0  0  0  0  0  0
   36.8580   31.6790   42.8820 H   0  0  0  0  0  0  0  0  0  0  0  0
   40.2070   33.3990   45.4780 C   0  0  0  0  0  0  0  0  0  0  0  0
   40.2230   33.7930   46.8130 F   0  0  0  0  0  0  0  0  0  0  0  0
   41.3540   32.6880   45.1690 F   0  0  0  0  0  0  0  0  0  0  0  0
   40.2080   34.5390   44.7240 F   0  0  0  0  0  0  0  0  0  0  0  0
   33.5350   28.8120   47.9670 C   0  0  0  0  0  0  0  0  0  0  0  0
   32.8730   29.0760   46.7860 C   0  0  0  0  0  3  0  0  0  0  0  0
   31.5920   28.5810   46.6610 C   0  0  0  0  0  0  0  0  0  0  0  0
   31.1190   28.8210   45.7030 H   0  0  0  0  0  0  0  0  0  0  0  0
   30.9730   27.8600   47.6370 N   0  0  0  0  0  0  0  0  0  0  0  0
   31.6610   27.6260   48.7810 C   0  0  0  0  0  3  0  0  0  0  0  0
   32.9320   28.1000   48.9410 N   0  0  0  0  0  0  0  0  0  0  0  0
  1  7  1  0  0  0  0
  2  8  1  0  0  0  0
  2  1  2  0  0  0  0
  3  2  1  0  0  0  0
  4  3  2  0  0  0  0
  4  5  1  0  0  0  0
  5  6  2  0  0  0  0
  6  1  1  0  0  0  0
  9 14  1  0  0  0  0
  9  3  1  0  0  0  0
 10  9  2  0  0  0  0
 11 12  2  0  0  0  0
 11 10  1  0  0  0  0
 12 13  1  0  0  0  0
 13 17  1  0  0  0  0
 13 14  2  0  0  0  0
 15 10  1  0  0  0  0
 16 11  1  0  0  0  0
 17 18  1  0  0  0  0
 19 17  1  0  0  0  0
 20 17  1  0  0  0  0
 21  5  1  0  0  0  0
 21 27  1  0  0  0  0
 22 21  2  0  0  0  0
 23 22  1  0  0  0  0
 23 25  2  0  0  0  0
 24 23  1  0  0  0  0
 25 26  1  0  0  0  0
 26 27  2  0  0  0  0
M  END
>  <minimizedAffinity>
-5.96179676

>  <minimizedRMSD>
2.18077612

$$$$
