
 OpenBabel03272508023D

 26 28  0  0  0  0  0  0  0  0999 V2000
   38.7620   30.7470   45.5800 C   0  0  0  0  0  0  0  0  0  0  0  0
   39.8020   31.6340   45.5060 C   0  0  0  0  0  0  0  0  0  0  0  0
   40.6090   31.3320   44.4150 C   0  0  0  0  0  0  0  0  0  0  0  0
   40.0140   30.2490   43.8590 N   0  0  0  0  0  0  0  0  0  0  0  0
   38.9420   29.9140   44.5390 N   0  0  0  0  0  0  0  0  0  0  0  0
   39.9920   32.4560   46.1800 H   0  0  0  0  0  0  0  0  0  0  0  0
   41.5050   31.8060   44.0470 H   0  0  0  0  0  0  0  0  0  0  0  0
   37.6800   30.6890   46.5610 C   0  0  0  0  0  0  0  0  0  0  0  0
   38.0180   30.9990   47.9140 C   0  0  0  0  0  0  0  0  0  0  0  0
   36.9930   30.9470   48.8580 C   0  0  0  0  0  0  0  0  0  0  0  0
   35.7480   30.6080   48.4420 N   0  0  0  0  0  0  0  0  0  0  0  0
   35.4580   30.3190   47.1520 C   0  0  0  0  0  0  0  0  0  0  0  0
   36.4430   30.3670   46.2330 N   0  0  0  0  0  0  0  0  0  0  0  0
   39.0360   31.2580   48.1480 H   0  0  0  0  0  0  0  0  0  0  0  0
   34.4530   30.0510   46.8480 H   0  0  0  0  0  0  0  0  0  0  0  0
   37.3130   31.2650   50.2780 C   0  0  0  0  0  0  0  0  0  0  0  0
   36.7880   32.5180   50.5000 F   0  0  0  0  0  0  0  0  0  0  0  0
   36.7490   30.3690   51.1650 F   0  0  0  0  0  0  0  0  0  0  0  0
   38.6870   31.3500   50.4950 F   0  0  0  0  0  0  0  0  0  0  0  0
   40.3910   29.4970   42.7120 C   0  0  0  0  0  0  0  0  0  0  0  0
   39.7850   28.2660   42.4430 C   0  0  0  0  0  3  0  0  0  0  0  0
   40.0790   27.4600   41.3590 C   0  0  0  0  0  0  0  0  0  0  0  0
   39.5330   26.5300   41.2730 H   0  0  0  0  0  0  0  0  0  0  0  0
   41.0220   27.9280   40.5240 N   0  0  0  0  0  0  0  0  0  0  0  0
   41.6330   29.1120   40.7440 C   0  0  0  0  0  3  0  0  0  0  0  0
   41.3220   29.8840   41.8230 N   0  0  0  0  0  0  0  0  0  0  0  0
  1  8  1  0  0  0  0
  2  1  1  0  0  0  0
  2  6  1  0  0  0  0
  3  2  2  0  0  0  0
  4  3  1  0  0  0  0
  4  5  1  0  0  0  0
  5  1  2  0  0  0  0
  7  3  1  0  0  0  0
  8  9  1  0  0  0  0
  9 14  1  0  0  0  0
  9 10  2  0  0  0  0
 10 16  1  0  0  0  0
 11 10  1  0  0  0  0
 12 11  2  0  0  0  0
 13  8  2  0  0  0  0
 13 12  1  0  0  0  0
 15 12  1  0  0  0  0
 16 19  1  0  0  0  0
 16 17  1  0  0  0  0
 16 18  1  0  0  0  0
 20  4  1  0  0  0  0
 21 20  1  0  0  0  0
 22 21  2  0  0  0  0
 23 22  1  0  0  0  0
 24 25  2  0  0  0  0
 24 22  1  0  0  0  0
 25 26  1  0  0  0  0
 26 20  2  0  0  0  0
M  END
>  <minimizedAffinity>
-5.94461775

>  <minimizedRMSD>
1.0499146

$$$$
