
 OpenBabel03272510333D

 26 28  0  0  0  0  0  0  0  0999 V2000
   35.8520   30.0930   47.1770 C   0  0  0  0  0  0  0  0  0  0  0  0
   35.1100   30.0530   46.0270 C   0  0  0  0  0  0  0  0  0  0  0  0
   33.8910   29.4080   45.9670 C   0  0  0  0  0  0  0  0  0  0  0  0
   33.4280   28.7950   47.1020 C   0  0  0  0  0  0  0  0  0  0  0  0
   34.1470   28.8120   48.2870 C   0  0  0  0  0  0  0  0  0  0  0  0
   35.3710   29.4680   48.3200 C   0  0  0  0  0  0  0  0  0  0  0  0
   35.4480   30.5300   45.1020 H   0  0  0  0  0  0  0  0  0  0  0  0
   33.3210   29.3890   45.0430 H   0  0  0  0  0  0  0  0  0  0  0  0
   32.4680   28.3000   47.0150 H   0  0  0  0  0  0  0  0  0  0  0  0
   33.7390   28.3140   49.1530 H   0  0  0  0  0  0  0  0  0  0  0  0
   38.4100   32.5410   47.9940 C   0  0  0  0  0  0  0  0  0  0  0  0
   39.4850   32.2170   47.1670 C   0  0  0  0  0  0  0  0  0  0  0  0
   39.3080   31.1200   46.3080 C   0  0  0  0  0  0  0  0  0  0  0  0
   38.1300   30.4510   46.3280 N   0  0  0  0  0  0  0  0  0  0  0  0
   37.1240   30.7970   47.1390 C   0  0  0  0  0  0  0  0  0  0  0  0
   37.2690   31.8530   47.9790 N   0  0  0  0  0  0  0  0  0  0  0  0
   38.5950   33.4060   48.6480 H   0  0  0  0  0  0  0  0  0  0  0  0
   40.4370   32.7070   47.1060 H   0  0  0  0  0  0  0  0  0  0  0  0
   40.0500   30.7290   45.5920 H   0  0  0  0  0  0  0  0  0  0  0  0
   36.1610   29.5100   49.5470 C   0  0  0  0  0  0  0  0  0  0  0  0
   35.7030   30.2920   50.5880 C   0  0  0  0  0  3  0  0  0  0  0  0
   36.4320   30.3370   51.7340 C   0  0  0  0  0  0  0  0  0  0  0  0
   36.2190   30.8970   52.6430 H   0  0  0  0  0  0  0  0  0  0  0  0
   37.5670   29.6430   51.8610 N   0  0  0  0  0  0  0  0  0  0  0  0
   38.0420   28.8620   50.8470 C   0  0  0  0  0  3  0  0  0  0  0  0
   37.2970   28.8460   49.7400 N   0  0  0  0  0  0  0  0  0  0  0  0
  1  6  1  0  0  0  0
  2  1  2  0  0  0  0
  3  2  1  0  0  0  0
  3  4  2  0  0  0  0
  4  5  1  0  0  0  0
  5  6  2  0  0  0  0
  5 10  1  0  0  0  0
  6 20  1  0  0  0  0
  7  2  1  0  0  0  0
  8  3  1  0  0  0  0
  9  4  1  0  0  0  0
 11 17  1  0  0  0  0
 12 11  2  0  0  0  0
 13 14  2  0  0  0  0
 13 12  1  0  0  0  0
 14 15  1  0  0  0  0
 15  1  1  0  0  0  0
 15 16  2  0  0  0  0
 16 11  1  0  0  0  0
 18 12  1  0  0  0  0
 19 13  1  0  0  0  0
 20 26  2  0  0  0  0
 20 21  1  0  0  0  0
 21 22  2  0  0  0  0
 22 24  1  0  0  0  0
 22 23  1  0  0  0  0
 25 24  2  0  0  0  0
 26 25  1  0  0  0  0
M  END
>  <minimizedAffinity>
-3.63641143

>  <minimizedRMSD>
1.63943326

$$$$
