
 OpenBabel03272510263D

 43 47  0  0  1  0  0  0  0  0999 V2000
   36.1620   30.2270   46.8710 C   0  0  0  0  0  0  0  0  0  0  0  0
   37.0550   30.7710   47.7930 C   0  0  0  0  0  0  0  0  0  0  0  0
   38.0630   31.6420   47.3920 C   0  0  0  0  0  0  0  0  0  0  0  0
   38.1240   31.9320   46.0330 C   0  0  0  0  0  0  0  0  0  0  0  0
   39.0180   32.7470   45.4010 N   0  0  0  0  0  0  0  0  0  0  0  0
   38.7010   32.7230   44.0990 C   0  0  0  0  0  0  0  0  0  0  0  0
   37.6640   31.9390   43.9030 N   0  0  0  0  0  0  0  0  0  0  0  0
   37.2660   31.4190   45.0900 C   0  0  0  0  0  0  0  0  0  0  0  0
   36.2600   30.5450   45.5200 C   0  0  0  0  0  0  0  0  0  0  0  0
   35.3730   29.5520   47.1520 H   0  0  0  0  0  0  0  0  0  0  0  0
   38.7460   32.0560   48.1160 H   0  0  0  0  0  0  0  0  0  0  0  0
   39.8000   33.2820   45.8730 H   0  0  0  0  0  0  0  0  0  0  0  0
   35.5970   30.1550   44.7590 H   0  0  0  0  0  0  0  0  0  0  0  0
   37.5470   30.1870   51.4670 C   0  0  0  0  0  0  0  0  0  0  0  0
   37.8080   30.6160   50.1790 C   0  0  0  0  0  0  0  0  0  0  0  0
   36.8780   30.3710   49.1750 C   0  0  0  0  0  0  0  0  0  0  0  0
   35.7310   29.7080   49.5140 N   0  0  0  0  0  0  0  0  0  0  0  0
   35.4900   29.2940   50.7840 C   0  0  0  0  0  0  0  0  0  0  0  0
   36.3760   29.5280   51.7290 N   0  0  0  0  0  0  0  0  0  0  0  0
   38.2510   30.3680   52.2430 H   0  0  0  0  0  0  0  0  0  0  0  0
   38.7170   31.1420   49.9140 H   0  0  0  0  0  0  0  0  0  0  0  0
   34.5440   28.7650   50.9780 H   0  0  0  0  0  0  0  0  0  0  0  0
   39.4250   33.4610   43.1480 O   0  0  0  0  0  0  0  0  0  0  0  0
   38.9280   31.6550   41.8420 N   0  0  0  0  0  0  0  0  0  0  0  0
   39.2020   33.1030   41.7900 C   0  0  1  0  0  0  0  0  0  0  0  0
   38.0460   33.7830   41.2200 C   0  0  0  0  0  0  0  0  0  0  0  0
   37.8940   33.3680   39.8850 O   0  0  0  0  0  0  0  0  0  0  0  0
   37.7960   32.0160   39.7050 C   0  0  0  0  0  0  0  0  0  0  0  0
   38.8260   31.2340   40.4590 C   0  0  1  0  0  0  0  0  0  0  0  0
   39.7910   31.2300   42.2520 H   0  0  0  0  0  0  0  0  0  0  0  0
   40.0890   33.3150   41.1810 H   0  0  0  0  0  0  0  0  0  0  0  0
   37.0630   33.7480   41.6050 H   0  0  0  0  0  0  0  0  0  0  0  0
   38.3140   34.8770   41.1160 H   0  0  0  0  0  0  0  0  0  0  0  0
   36.7940   31.7100   40.0980 H   0  0  0  0  0  0  0  0  0  0  0  0
   37.8960   31.8150   38.6280 H   0  0  0  0  0  0  0  0  0  0  0  0
   38.4160   30.1830   40.5180 H   0  0  0  0  0  0  0  0  0  0  0  0
   40.1300   31.1120   39.8050 C   0  0  0  0  0  0  0  0  0  0  0  0
   41.2930   30.5220   40.2060 C   0  0  0  0  0  3  0  0  0  0  0  0
   42.4220   30.5280   39.4120 C   0  0  0  0  0  0  0  0  0  0  0  0
   43.2840   30.0260   39.8450 H   0  0  0  0  0  0  0  0  0  0  0  0
   42.4230   31.1270   38.1870 N   0  0  0  0  0  0  0  0  0  0  0  0
   41.2620   31.7000   37.8180 C   0  0  0  0  0  3  0  0  0  0  0  0
   40.1270   31.7130   38.5780 N   0  0  0  0  0  0  0  0  0  0  0  0
  1 10  1  0  0  0  0
  1  2  1  0  0  0  0
  2 16  1  0  0  0  0
  3  2  2  0  0  0  0
  3 11  1  0  0  0  0
  4  3  1  0  0  0  0
  5 12  1  0  0  0  0
  5  4  1  0  0  0  0
  6  5  1  0  0  0  0
  7  6  2  0  0  0  0
  7  8  1  0  0  0  0
  8  9  1  0  0  0  0
  8  4  2  0  0  0  0
  9  1  2  0  0  0  0
 13  9  1  0  0  0  0
 14 19  1  0  0  0  0
 14 20  1  0  0  0  0
 15 14  2  0  0  0  0
 16 17  2  0  0  0  0
 16 15  1  0  0  0  0
 17 18  1  0  0  0  0
 18 22  1  0  0  0  0
 18 19  2  0  0  0  0
 21 15  1  0  0  0  0
 23  6  1  0  0  0  0
 24 30  1  0  0  0  0
 25 31  1  6  0  0  0
 25 24  1  0  0  0  0
 25 23  1  0  0  0  0
 26 32  1  0  0  0  0
 26 25  1  0  0  0  0
 27 26  1  0  0  0  0
 28 27  1  0  0  0  0
 28 34  1  0  0  0  0
 28 29  1  0  0  0  0
 29 36  1  1  0  0  0
 29 24  1  0  0  0  0
 33 26  1  0  0  0  0
 35 28  1  0  0  0  0
 37 38  1  0  0  0  0
 37 29  1  0  0  0  0
 39 40  1  0  0  0  0
 39 38  2  0  0  0  0
 41 39  1  0  0  0  0
 42 41  2  0  0  0  0
 42 43  1  0  0  0  0
 43 37  2  0  0  0  0
M  END
>  <minimizedAffinity>
-5.98222446

>  <minimizedRMSD>
0.862710476

$$$$
