
 OpenBabel03272510333D

 26 28  0  0  0  0  0  0  0  0999 V2000
   35.8460   30.1230   46.6940 C   0  0  0  0  0  0  0  0  0  0  0  0
   35.2650   30.1420   45.4540 C   0  0  0  0  0  0  0  0  0  0  0  0
   34.0640   29.5100   45.2010 C   0  0  0  0  0  0  0  0  0  0  0  0
   33.4520   28.8480   46.2340 C   0  0  0  0  0  0  0  0  0  0  0  0
   34.0060   28.8050   47.5030 C   0  0  0  0  0  0  0  0  0  0  0  0
   35.2160   29.4490   47.7310 C   0  0  0  0  0  0  0  0  0  0  0  0
   35.7250   30.6600   44.6060 H   0  0  0  0  0  0  0  0  0  0  0  0
   33.6230   29.5400   44.2090 H   0  0  0  0  0  0  0  0  0  0  0  0
   32.5120   28.3650   45.9950 H   0  0  0  0  0  0  0  0  0  0  0  0
   33.4850   28.2700   48.2830 H   0  0  0  0  0  0  0  0  0  0  0  0
   38.2770   32.5040   47.9660 C   0  0  0  0  0  0  0  0  0  0  0  0
   39.4510   32.2170   47.2710 C   0  0  0  0  0  0  0  0  0  0  0  0
   39.3870   31.1670   46.3390 C   0  0  0  0  0  0  0  0  0  0  0  0
   38.2160   30.5080   46.1690 N   0  0  0  0  0  0  0  0  0  0  0  0
   37.1120   30.8180   46.8600 C   0  0  0  0  0  0  0  0  0  0  0  0
   37.1470   31.8270   47.7660 N   0  0  0  0  0  0  0  0  0  0  0  0
   38.3760   33.3320   48.6840 H   0  0  0  0  0  0  0  0  0  0  0  0
   40.4030   32.7010   47.3610 H   0  0  0  0  0  0  0  0  0  0  0  0
   40.2160   30.8090   45.7060 H   0  0  0  0  0  0  0  0  0  0  0  0
   35.8340   29.4270   49.0530 C   0  0  0  0  0  0  0  0  0  0  0  0
   35.0110   29.5380   50.1560 C   0  0  0  0  0  3  0  0  0  0  0  0
   35.5790   29.5190   51.3920 C   0  0  0  0  0  0  0  0  0  0  0  0
   35.0830   29.5950   52.3580 H   0  0  0  0  0  0  0  0  0  0  0  0
   36.8990   29.3950   51.5460 N   0  0  0  0  0  0  0  0  0  0  0  0
   37.7350   29.2830   50.4720 C   0  0  0  0  0  3  0  0  0  0  0  0
   37.1390   29.3070   49.2780 N   0  0  0  0  0  0  0  0  0  0  0  0
  1 15  1  0  0  0  0
  1  6  1  0  0  0  0
  2  1  2  0  0  0  0
  3  2  1  0  0  0  0
  3  4  2  0  0  0  0
  4  5  1  0  0  0  0
  5  6  2  0  0  0  0
  5 10  1  0  0  0  0
  6 20  1  0  0  0  0
  7  2  1  0  0  0  0
  8  3  1  0  0  0  0
  9  4  1  0  0  0  0
 11 17  1  0  0  0  0
 12 18  1  0  0  0  0
 12 11  2  0  0  0  0
 13 12  1  0  0  0  0
 14 13  2  0  0  0  0
 14 15  1  0  0  0  0
 15 16  2  0  0  0  0
 16 11  1  0  0  0  0
 19 13  1  0  0  0  0
 20 26  2  0  0  0  0
 20 21  1  0  0  0  0
 21 22  2  0  0  0  0
 22 24  1  0  0  0  0
 22 23  1  0  0  0  0
 25 24  2  0  0  0  0
 26 25  1  0  0  0  0
M  END
>  <minimizedAffinity>
-4.59570694

>  <minimizedRMSD>
2.06400156

$$$$
