
 OpenBabel03272506093D

 42 45  0  0  0  0  0  0  0  0999 V2000
   34.2070   28.0460   48.9310 C   0  0  0  0  0  0  0  0  0  0  0  0
   35.0210   28.2670   48.2270 H   0  0  0  0  0  0  0  0  0  0  0  0
   34.3910   26.9910   49.2660 H   0  0  0  0  0  0  0  0  0  0  0  0
   32.8750   28.1020   48.2370 C   0  0  0  0  0  0  0  0  0  0  0  0
   32.8010   28.5920   46.8920 C   0  0  0  0  0  0  0  0  0  0  0  0
   31.0690   28.4520   46.5590 S   0  0  0  0  0  0  0  0  0  0  0  0
   30.6470   27.7600   48.2450 C   0  0  0  0  0  0  0  0  0  0  0  0
   31.7310   27.7440   48.7310 N   0  0  0  0  0  0  0  0  0  0  0  0
   29.3830   27.3490   48.8330 N   0  0  0  0  0  0  0  0  0  0  0  0
   28.4020   26.8540   47.9360 C   0  0  0  0  0  0  0  0  0  0  0  0
   27.0130   26.8360   48.4740 C   0  0  0  0  0  0  0  0  0  0  0  0
   26.8840   27.4950   49.7660 N   0  0  0  0  0  0  0  0  0  0  0  0
   27.8820   26.8630   50.6330 C   0  0  0  0  0  0  0  0  0  0  0  0
   29.2020   27.4620   50.2520 C   0  0  0  0  0  0  0  0  0  0  0  0
   33.6620   28.9460   46.2930 H   0  0  0  0  0  0  0  0  0  0  0  0
   28.7110   25.8200   47.6090 H   0  0  0  0  0  0  0  0  0  0  0  0
   28.4110   27.4640   46.9960 H   0  0  0  0  0  0  0  0  0  0  0  0
   26.6870   25.7830   48.6450 H   0  0  0  0  0  0  0  0  0  0  0  0
   26.2850   27.2520   47.7470 H   0  0  0  0  0  0  0  0  0  0  0  0
   25.9100   27.3260   50.1010 H   0  0  0  0  0  0  0  0  0  0  0  0
   27.8520   25.7730   50.5900 H   0  0  0  0  0  0  0  0  0  0  0  0
   27.6380   27.1920   51.6750 H   0  0  0  0  0  0  0  0  0  0  0  0
   30.0580   27.0480   50.8330 H   0  0  0  0  0  0  0  0  0  0  0  0
   29.1670   28.5430   50.4860 H   0  0  0  0  0  0  0  0  0  0  0  0
   34.2480   28.9430   50.1070 C   0  0  0  0  0  0  0  0  0  0  0  0
   33.4460   29.6840   50.0890 H   0  0  0  0  0  0  0  0  0  0  0  0
   34.1310   28.3470   51.0580 H   0  0  0  0  0  0  0  0  0  0  0  0
   37.4760   30.1170   51.4950 C   0  0  0  0  0  0  0  0  0  0  0  0
   38.0940   30.7160   50.3830 C   0  0  0  0  0  0  0  0  0  0  0  0
   37.3920   30.7060   49.1790 C   0  0  0  0  0  0  0  0  0  0  0  0
   36.1740   30.1250   49.1620 N   0  0  0  0  0  0  0  0  0  0  0  0
   35.6150   29.5610   50.2520 C   0  0  0  0  0  0  0  0  0  0  0  0
   36.2620   29.5590   51.4010 N   0  0  0  0  0  0  0  0  0  0  0  0
   38.0170   30.1190   52.4440 H   0  0  0  0  0  0  0  0  0  0  0  0
   39.0520   31.1710   50.4010 H   0  0  0  0  0  0  0  0  0  0  0  0
   37.8820   31.2790   47.9310 C   0  0  0  0  0  0  0  0  0  0  0  0
   37.2960   31.0350   46.7080 C   0  0  0  0  0  0  0  0  0  0  0  0
   37.7230   31.5540   45.5070 C   0  0  0  0  0  0  0  0  0  0  0  0
   37.2230   31.3270   44.5700 H   0  0  0  0  0  0  0  0  0  0  0  0
   38.8000   32.3660   45.5270 N   0  0  0  0  0  0  0  0  0  0  0  0
   39.3910   32.6190   46.7290 C   0  0  0  0  0  0  0  0  0  0  0  0
   38.9510   32.0970   47.8870 N   0  0  0  0  0  0  0  0  0  0  0  0
  1  3  1  0  0  0  0
  1 25  1  0  0  0  0
  2  1  1  0  0  0  0
  4  8  1  0  0  0  0
  4  1  1  0  0  0  0
  5  4  2  0  0  0  0
  6  5  1  0  0  0  0
  6  7  1  0  0  0  0
  7  8  2  0  0  0  0
  7  9  1  0  0  0  0
  9 14  1  0  0  0  0
 10 11  1  0  0  0  0
 10  9  1  0  0  0  0
 11 18  1  0  0  0  0
 11 12  1  0  0  0  0
 12 20  1  0  0  0  0
 12 13  1  0  0  0  0
 13 22  1  0  0  0  0
 14 24  1  0  0  0  0
 14 13  1  0  0  0  0
 14 23  1  0  0  0  0
 15  5  1  0  0  0  0
 16 10  1  0  0  0  0
 17 10  1  0  0  0  0
 19 11  1  0  0  0  0
 21 13  1  0  0  0  0
 25 32  1  0  0  0  0
 25 27  1  0  0  0  0
 26 25  1  0  0  0  0
 28 34  1  0  0  0  0
 29 35  1  0  0  0  0
 29 28  2  0  0  0  0
 30 29  1  0  0  0  0
 31 30  2  0  0  0  0
 31 32  1  0  0  0  0
 32 33  2  0  0  0  0
 33 28  1  0  0  0  0
 36 30  1  0  0  0  0
 37 36  2  0  0  0  0
 38 40  2  0  0  0  0
 38 37  1  0  0  0  0
 39 38  1  0  0  0  0
 40 41  1  0  0  0  0
 41 42  2  0  0  0  0
 42 36  1  0  0  0  0
M  END
>  <minimizedAffinity>
-7.29316282

>  <minimizedRMSD>
1.91184068

$$$$
