
 OpenBabel03262522043D

 37 40  0  0  1  0  0  0  0  0999 V2000
   37.3560   23.0300   31.3170 C   0  0  2  0  0  0  0  0  0  0  0  0
   37.3280   24.4660   30.8790 C   0  0  0  0  0  0  0  0  0  0  0  0
   37.9790   25.2750   31.8930 N   0  0  0  0  0  0  0  0  0  0  0  0
   38.8300   26.1970   32.5800 C   0  0  0  0  0  0  0  0  0  0  0  0
   39.6340   27.1120   32.2770 O   0  0  0  0  0  0  0  0  0  0  0  0
   38.4580   25.7180   33.9100 C   0  0  1  0  0  0  0  0  0  0  0  0
   37.3720   24.9890   33.1680 C   0  0  2  0  0  0  0  0  0  0  0  0
   37.5440   23.1740   33.1300 S   0  0  0  0  0  0  0  0  0  0  0  0
   37.9580   24.5080   29.9550 H   0  0  0  0  0  0  0  0  0  0  0  0
   36.3420   24.8330   30.5850 H   0  0  0  0  0  0  0  0  0  0  0  0
   37.9690   26.3930   34.6290 H   0  0  0  0  0  0  0  0  0  0  0  0
   36.3420   25.3450   33.3040 H   0  0  0  0  0  0  0  0  0  0  0  0
   38.4350   22.2050   30.6750 C   0  0  0  0  0  0  0  0  0  0  0  0
   39.3910   22.7360   30.6040 H   0  0  0  0  0  0  0  0  0  0  0  0
   38.5880   21.3120   31.3000 H   0  0  0  0  0  0  0  0  0  0  0  0
   38.0850   21.8510   29.6850 H   0  0  0  0  0  0  0  0  0  0  0  0
   35.9810   22.4090   31.1050 C   0  0  0  0  0  0  0  0  0  0  0  0
   35.6550   22.6290   30.0650 H   0  0  0  0  0  0  0  0  0  0  0  0
   35.2750   22.9950   31.7530 H   0  0  0  0  0  0  0  0  0  0  0  0
   35.9240   20.9810   31.4340 C   0  0  0  0  0  0  0  0  0  0  0  0
   35.5150   20.4620   32.6450 C   0  0  0  0  0  3  0  0  0  0  0  0
   35.4790   19.1030   32.9120 C   0  0  0  0  0  0  0  0  0  0  0  0
   35.1510   18.7340   33.8790 H   0  0  0  0  0  0  0  0  0  0  0  0
   35.8710   18.2960   31.9040 N   0  0  0  0  0  0  0  0  0  0  0  0
   36.2670   18.8120   30.7280 C   0  0  0  0  0  3  0  0  0  0  0  0
   36.3060   20.1290   30.4610 N   0  0  0  0  0  0  0  0  0  0  0  0
   39.4730   24.8850   34.5960 C   0  0  0  0  0  0  0  0  0  0  0  0
   40.5380   24.7180   33.9350 O   0  0  0  0  0  0  0  0  0  0  0  0
   39.2590   24.3210   35.9040 C   0  0  0  0  0  0  0  0  0  0  0  0
   40.1210   23.3190   36.3150 C   0  0  0  0  0  0  0  0  0  0  0  0
   39.9160   22.7580   37.6010 C   0  0  0  0  0  0  0  0  0  0  0  0
   38.8740   23.2470   38.3540 N   0  0  0  0  0  0  0  0  0  0  0  0
   38.0750   24.2080   37.9170 C   0  0  0  0  0  0  0  0  0  0  0  0
   38.2610   24.7490   36.6970 N   0  0  0  0  0  0  0  0  0  0  0  0
   40.9270   22.9510   35.7120 H   0  0  0  0  0  0  0  0  0  0  0  0
   40.5570   21.9720   37.9770 H   0  0  0  0  0  0  0  0  0  0  0  0
   37.2480   24.6140   38.4860 H   0  0  0  0  0  0  0  0  0  0  0  0
  1 13  1  6  0  0  0
  1  8  1  0  0  0  0
  2  1  1  0  0  0  0
  2  3  1  0  0  0  0
  3  4  1  0  0  0  0
  3  7  1  0  0  0  0
  4  6  1  0  0  0  0
  5  4  2  0  0  0  0
  6 27  1  0  0  0  0
  6 11  1  1  0  0  0
  7 12  1  1  0  0  0
  7  6  1  0  0  0  0
  8  7  1  0  0  0  0
  9  2  1  0  0  0  0
 10  2  1  0  0  0  0
 13 15  1  0  0  0  0
 14 13  1  0  0  0  0
 16 13  1  0  0  0  0
 17  1  1  0  0  0  0
 17 20  1  0  0  0  0
 17 19  1  0  0  0  0
 18 17  1  0  0  0  0
 20 21  1  0  0  0  0
 21 22  2  0  0  0  0
 22 23  1  0  0  0  0
 24 22  1  0  0  0  0
 25 24  2  0  0  0  0
 26 25  1  0  0  0  0
 26 20  2  0  0  0  0
 27 29  1  0  0  0  0
 28 27  2  0  0  0  0
 29 30  2  0  0  0  0
 29 34  1  0  0  0  0
 30 31  1  0  0  0  0
 31 36  1  0  0  0  0
 31 32  2  0  0  0  0
 33 32  1  0  0  0  0
 33 37  1  0  0  0  0
 34 33  2  0  0  0  0
 35 30  1  0  0  0  0
M  END
>  <minimizedAffinity>
-5.2678833

$$$$

 OpenBabel03262522043D

 37 40  0  0  1  0  0  0  0  0999 V2000
   37.2320   24.7870   31.4860 C   0  0  2  0  0  0  0  0  0  0  0  0
   37.8070   23.6510   30.6880 C   0  0  0  0  0  0  0  0  0  0  0  0
   38.1330   22.5640   31.5930 N   0  0  0  0  0  0  0  0  0  0  0  0
   38.2330   21.2860   32.2290 C   0  0  0  0  0  0  0  0  0  0  0  0
   37.9640   20.0930   31.9480 O   0  0  0  0  0  0  0  0  0  0  0  0
   38.8090   21.8230   33.4600 C   0  0  1  0  0  0  0  0  0  0  0  0
   38.9640   23.0800   32.6500 C   0  0  2  0  0  0  0  0  0  0  0  0
   37.8950   24.4670   33.1600 S   0  0  0  0  0  0  0  0  0  0  0  0
   36.9760   23.3030   30.0240 H   0  0  0  0  0  0  0  0  0  0  0  0
   38.6250   23.9330   30.0200 H   0  0  0  0  0  0  0  0  0  0  0  0
   39.8150   21.5150   33.7850 H   0  0  0  0  0  0  0  0  0  0  0  0
   39.9830   23.3740   32.3640 H   0  0  0  0  0  0  0  0  0  0  0  0
   35.7330   24.8740   31.4510 C   0  0  0  0  0  0  0  0  0  0  0  0
   35.2470   23.8950   31.5330 H   0  0  0  0  0  0  0  0  0  0  0  0
   35.4150   25.4840   32.3110 H   0  0  0  0  0  0  0  0  0  0  0  0
   35.4190   25.4160   30.5370 H   0  0  0  0  0  0  0  0  0  0  0  0
   37.8760   26.0940   31.0430 C   0  0  0  0  0  0  0  0  0  0  0  0
   38.0300   26.0520   29.9420 H   0  0  0  0  0  0  0  0  0  0  0  0
   38.9140   26.0890   31.4740 H   0  0  0  0  0  0  0  0  0  0  0  0
   37.1400   27.2870   31.4740 C   0  0  0  0  0  0  0  0  0  0  0  0
   36.9160   27.6490   32.7860 C   0  0  0  0  0  3  0  0  0  0  0  0
   36.2130   28.7870   33.1460 C   0  0  0  0  0  0  0  0  0  0  0  0
   36.0560   29.0370   34.1910 H   0  0  0  0  0  0  0  0  0  0  0  0
   35.7500   29.5390   32.1270 N   0  0  0  0  0  0  0  0  0  0  0  0
   35.9750   29.1770   30.8510 C   0  0  0  0  0  3  0  0  0  0  0  0
   36.6550   28.0750   30.4930 N   0  0  0  0  0  0  0  0  0  0  0  0
   37.8910   21.8850   34.6200 C   0  0  0  0  0  0  0  0  0  0  0  0
   36.7190   21.4800   34.3760 O   0  0  0  0  0  0  0  0  0  0  0  0
   38.3070   22.3660   35.9140 C   0  0  0  0  0  0  0  0  0  0  0  0
   39.6410   22.2110   36.2520 C   0  0  0  0  0  0  0  0  0  0  0  0
   40.0580   22.6790   37.5230 C   0  0  0  0  0  0  0  0  0  0  0  0
   39.1100   23.2570   38.3360 N   0  0  0  0  0  0  0  0  0  0  0  0
   37.8440   23.3820   37.9670 C   0  0  0  0  0  0  0  0  0  0  0  0
   37.4370   22.9410   36.7610 N   0  0  0  0  0  0  0  0  0  0  0  0
   40.3640   21.7580   35.6050 H   0  0  0  0  0  0  0  0  0  0  0  0
   41.0870   22.5870   37.8440 H   0  0  0  0  0  0  0  0  0  0  0  0
   37.0750   23.8320   38.5840 H   0  0  0  0  0  0  0  0  0  0  0  0
  1 17  1  6  0  0  0
  1  8  1  0  0  0  0
  2  1  1  0  0  0  0
  2  3  1  0  0  0  0
  3  4  1  0  0  0  0
  3  7  1  0  0  0  0
  4  6  1  0  0  0  0
  5  4  2  0  0  0  0
  6 11  1  1  0  0  0
  6 27  1  0  0  0  0
  7 12  1  6  0  0  0
  7  8  1  0  0  0  0
  7  6  1  0  0  0  0
  9  2  1  0  0  0  0
 10  2  1  0  0  0  0
 13  1  1  0  0  0  0
 13 14  1  0  0  0  0
 13 15  1  0  0  0  0
 16 13  1  0  0  0  0
 17 19  1  0  0  0  0
 17 20  1  0  0  0  0
 18 17  1  0  0  0  0
 20 21  1  0  0  0  0
 21 22  2  0  0  0  0
 22 23  1  0  0  0  0
 24 22  1  0  0  0  0
 25 24  2  0  0  0  0
 26 25  1  0  0  0  0
 26 20  2  0  0  0  0
 27 29  1  0  0  0  0
 28 27  2  0  0  0  0
 29 30  2  0  0  0  0
 29 34  1  0  0  0  0
 30 31  1  0  0  0  0
 31 36  1  0  0  0  0
 31 32  2  0  0  0  0
 33 32  1  0  0  0  0
 33 37  1  0  0  0  0
 34 33  2  0  0  0  0
 35 30  1  0  0  0  0
M  END
>  <minimizedAffinity>
-5.26345205

$$$$

 OpenBabel03262522043D

 37 40  0  0  1  0  0  0  0  0999 V2000
   37.4940   26.4100   31.5650 C   0  0  2  0  0  0  0  0  0  0  0  0
   38.4680   27.5450   31.7140 C   0  0  0  0  0  0  0  0  0  0  0  0
   39.3190   27.2800   32.8590 N   0  0  0  0  0  0  0  0  0  0  0  0
   40.4450   27.0830   33.7200 C   0  0  0  0  0  0  0  0  0  0  0  0
   41.6830   27.2820   33.6790 O   0  0  0  0  0  0  0  0  0  0  0  0
   39.6520   26.5080   34.8050 C   0  0  1  0  0  0  0  0  0  0  0  0
   38.4830   27.0060   34.0000 C   0  0  2  0  0  0  0  0  0  0  0  0
   37.4480   25.7050   33.2510 S   0  0  0  0  0  0  0  0  0  0  0  0
   39.1090   27.5100   30.7980 H   0  0  0  0  0  0  0  0  0  0  0  0
   38.0100   28.5370   31.7220 H   0  0  0  0  0  0  0  0  0  0  0  0
   39.6090   27.0050   35.7880 H   0  0  0  0  0  0  0  0  0  0  0  0
   37.9210   27.8590   34.4020 H   0  0  0  0  0  0  0  0  0  0  0  0
   37.8700   25.4040   30.5140 C   0  0  0  0  0  0  0  0  0  0  0  0
   38.9400   25.1630   30.5190 H   0  0  0  0  0  0  0  0  0  0  0  0
   37.3120   24.4780   30.7250 H   0  0  0  0  0  0  0  0  0  0  0  0
   37.5330   25.7670   29.5230 H   0  0  0  0  0  0  0  0  0  0  0  0
   36.0980   26.9690   31.3250 C   0  0  0  0  0  0  0  0  0  0  0  0
   35.3780   26.3860   31.9410 H   0  0  0  0  0  0  0  0  0  0  0  0
   35.8390   26.7080   30.2630 H   0  0  0  0  0  0  0  0  0  0  0  0
   35.9980   28.4150   31.5440 C   0  0  0  0  0  0  0  0  0  0  0  0
   35.6710   29.0160   32.7420 C   0  0  0  0  0  3  0  0  0  0  0  0
   35.5880   30.3890   32.9020 C   0  0  0  0  0  0  0  0  0  0  0  0
   35.3260   30.8230   33.8620 H   0  0  0  0  0  0  0  0  0  0  0  0
   35.8490   31.1250   31.8020 N   0  0  0  0  0  0  0  0  0  0  0  0
   36.1670   30.5300   30.6390 C   0  0  0  0  0  3  0  0  0  0  0  0
   36.2500   29.1990   30.4750 N   0  0  0  0  0  0  0  0  0  0  0  0
   39.7690   25.0420   34.9750 C   0  0  0  0  0  0  0  0  0  0  0  0
   40.2320   24.4390   33.9640 O   0  0  0  0  0  0  0  0  0  0  0  0
   39.3890   24.3680   36.1910 C   0  0  0  0  0  0  0  0  0  0  0  0
   38.2510   24.8180   36.8390 C   0  0  0  0  0  0  0  0  0  0  0  0
   37.8710   24.1620   38.0370 C   0  0  0  0  0  0  0  0  0  0  0  0
   38.6570   23.1220   38.4750 N   0  0  0  0  0  0  0  0  0  0  0  0
   39.7390   22.7290   37.8190 C   0  0  0  0  0  0  0  0  0  0  0  0
   40.1090   23.3450   36.6790 N   0  0  0  0  0  0  0  0  0  0  0  0
   37.6510   25.6310   36.4810 H   0  0  0  0  0  0  0  0  0  0  0  0
   36.9920   24.4680   38.5870 H   0  0  0  0  0  0  0  0  0  0  0  0
   40.3770   21.9140   38.1380 H   0  0  0  0  0  0  0  0  0  0  0  0
  1 13  1  6  0  0  0
  1  2  1  0  0  0  0
  1  8  1  0  0  0  0
  2 10  1  0  0  0  0
  2  3  1  0  0  0  0
  3  4  1  0  0  0  0
  3  7  1  0  0  0  0
  4  6  1  0  0  0  0
  5  4  2  0  0  0  0
  6 27  1  0  0  0  0
  6 11  1  1  0  0  0
  7 12  1  1  0  0  0
  7  6  1  0  0  0  0
  8  7  1  0  0  0  0
  9  2  1  0  0  0  0
 13 14  1  0  0  0  0
 13 15  1  0  0  0  0
 16 13  1  0  0  0  0
 17 20  1  0  0  0  0
 17  1  1  0  0  0  0
 17 18  1  0  0  0  0
 19 17  1  0  0  0  0
 20 21  1  0  0  0  0
 21 22  2  0  0  0  0
 22 23  1  0  0  0  0
 24 22  1  0  0  0  0
 25 24  2  0  0  0  0
 26 25  1  0  0  0  0
 26 20  2  0  0  0  0
 27 29  1  0  0  0  0
 28 27  2  0  0  0  0
 29 34  2  0  0  0  0
 29 30  1  0  0  0  0
 30 31  2  0  0  0  0
 31 32  1  0  0  0  0
 31 36  1  0  0  0  0
 33 37  1  0  0  0  0
 33 32  2  0  0  0  0
 34 33  1  0  0  0  0
 35 30  1  0  0  0  0
M  END
>  <minimizedAffinity>
-5.13808966

$$$$

 OpenBabel03262522043D

 37 40  0  0  1  0  0  0  0  0999 V2000
   39.2120   26.3170   34.3250 C   0  0  2  0  0  0  0  0  0  0  0  0
   40.0680   26.8420   33.2070 C   0  0  0  0  0  0  0  0  0  0  0  0
   39.2150   27.1520   32.0750 N   0  0  0  0  0  0  0  0  0  0  0  0
   38.5590   27.8070   30.9840 C   0  0  0  0  0  0  0  0  0  0  0  0
   38.7070   28.8600   30.3180 O   0  0  0  0  0  0  0  0  0  0  0  0
   37.5310   26.7780   30.8420 C   0  0  1  0  0  0  0  0  0  0  0  0
   38.4160   25.9920   31.7700 C   0  0  2  0  0  0  0  0  0  0  0  0
   37.7330   25.7090   33.4370 S   0  0  0  0  0  0  0  0  0  0  0  0
   40.4930   27.8060   33.5850 H   0  0  0  0  0  0  0  0  0  0  0  0
   40.9260   26.2130   32.9580 H   0  0  0  0  0  0  0  0  0  0  0  0
   37.4430   26.2030   29.9060 H   0  0  0  0  0  0  0  0  0  0  0  0
   38.9530   25.1330   31.3470 H   0  0  0  0  0  0  0  0  0  0  0  0
   38.8890   27.3280   35.3870 C   0  0  0  0  0  0  0  0  0  0  0  0
   38.6440   28.3150   34.9760 H   0  0  0  0  0  0  0  0  0  0  0  0
   38.0090   26.9620   35.9390 H   0  0  0  0  0  0  0  0  0  0  0  0
   39.7260   27.3790   36.1110 H   0  0  0  0  0  0  0  0  0  0  0  0
   39.8610   25.0740   34.9190 C   0  0  0  0  0  0  0  0  0  0  0  0
   40.6950   25.3980   35.5800 H   0  0  0  0  0  0  0  0  0  0  0  0
   40.3670   24.5510   34.0620 H   0  0  0  0  0  0  0  0  0  0  0  0
   38.9130   24.1780   35.5890 C   0  0  0  0  0  0  0  0  0  0  0  0
   38.3040   24.4320   36.8000 C   0  0  0  0  0  3  0  0  0  0  0  0
   37.4130   23.5540   37.3970 C   0  0  0  0  0  0  0  0  0  0  0  0
   36.9550   23.7900   38.3520 H   0  0  0  0  0  0  0  0  0  0  0  0
   37.1670   22.4150   36.7180 N   0  0  0  0  0  0  0  0  0  0  0  0
   37.7660   22.1780   35.5370 C   0  0  0  0  0  3  0  0  0  0  0  0
   38.6310   23.0240   34.9520 N   0  0  0  0  0  0  0  0  0  0  0  0
   36.1880   27.1420   31.3490 C   0  0  0  0  0  0  0  0  0  0  0  0
   35.3430   26.2040   31.2990 O   0  0  0  0  0  0  0  0  0  0  0  0
   35.8810   28.4550   31.8590 C   0  0  0  0  0  0  0  0  0  0  0  0
   35.8960   28.6250   33.2330 C   0  0  0  0  0  0  0  0  0  0  0  0
   35.5940   29.9130   33.7420 C   0  0  0  0  0  0  0  0  0  0  0  0
   35.3070   30.9080   32.8370 N   0  0  0  0  0  0  0  0  0  0  0  0
   35.3050   30.6960   31.5300 C   0  0  0  0  0  0  0  0  0  0  0  0
   35.5910   29.4760   31.0350 N   0  0  0  0  0  0  0  0  0  0  0  0
   36.1220   27.8360   33.9220 H   0  0  0  0  0  0  0  0  0  0  0  0
   35.5900   30.1070   34.8060 H   0  0  0  0  0  0  0  0  0  0  0  0
   35.0840   31.4590   30.7930 H   0  0  0  0  0  0  0  0  0  0  0  0
  1 17  1  1  0  0  0
  1 13  1  0  0  0  0
  2  9  1  0  0  0  0
  2  1  1  0  0  0  0
  3  2  1  0  0  0  0
  4  3  1  0  0  0  0
  5  4  2  0  0  0  0
  6 11  1  6  0  0  0
  6  4  1  0  0  0  0
  6 27  1  0  0  0  0
  6  7  1  0  0  0  0
  7 12  1  6  0  0  0
  7  3  1  0  0  0  0
  7  8  1  0  0  0  0
  8  1  1  0  0  0  0
 10  2  1  0  0  0  0
 13 15  1  0  0  0  0
 13 16  1  0  0  0  0
 14 13  1  0  0  0  0
 17 18  1  0  0  0  0
 17 20  1  0  0  0  0
 19 17  1  0  0  0  0
 20 21  1  0  0  0  0
 21 22  2  0  0  0  0
 22 23  1  0  0  0  0
 24 22  1  0  0  0  0
 25 24  2  0  0  0  0
 26 25  1  0  0  0  0
 26 20  2  0  0  0  0
 27 29  1  0  0  0  0
 28 27  2  0  0  0  0
 29 30  1  0  0  0  0
 30 31  2  0  0  0  0
 30 35  1  0  0  0  0
 31 36  1  0  0  0  0
 32 31  1  0  0  0  0
 33 32  2  0  0  0  0
 34 33  1  0  0  0  0
 34 29  2  0  0  0  0
 37 33  1  0  0  0  0
M  END
>  <minimizedAffinity>
-5.05427122

$$$$

 OpenBabel03262522043D

 37 40  0  0  1  0  0  0  0  0999 V2000
   38.3390   25.9490   34.3600 C   0  0  2  0  0  0  0  0  0  0  0  0
   37.1120   26.5740   33.7590 C   0  0  0  0  0  0  0  0  0  0  0  0
   36.7380   25.8200   32.5760 N   0  0  0  0  0  0  0  0  0  0  0  0
   36.0200   25.0660   31.5950 C   0  0  0  0  0  0  0  0  0  0  0  0
   34.8250   24.7680   31.3550 O   0  0  0  0  0  0  0  0  0  0  0  0
   37.2190   24.6850   30.8510 C   0  0  1  0  0  0  0  0  0  0  0  0
   37.8880   25.7200   31.7130 C   0  0  2  0  0  0  0  0  0  0  0  0
   39.0690   25.0640   32.9370 S   0  0  0  0  0  0  0  0  0  0  0  0
   36.3030   26.4350   34.5200 H   0  0  0  0  0  0  0  0  0  0  0  0
   37.1850   27.6510   33.5930 H   0  0  0  0  0  0  0  0  0  0  0  0
   37.3470   24.9980   29.8030 H   0  0  0  0  0  0  0  0  0  0  0  0
   38.2080   26.6510   31.2260 H   0  0  0  0  0  0  0  0  0  0  0  0
   38.0670   25.0550   35.5360 C   0  0  0  0  0  0  0  0  0  0  0  0
   37.1870   24.4170   35.3920 H   0  0  0  0  0  0  0  0  0  0  0  0
   38.9440   24.4010   35.6660 H   0  0  0  0  0  0  0  0  0  0  0  0
   37.9850   25.6710   36.4530 H   0  0  0  0  0  0  0  0  0  0  0  0
   39.3420   27.0400   34.7110 C   0  0  0  0  0  0  0  0  0  0  0  0
   39.2160   27.2980   35.7860 H   0  0  0  0  0  0  0  0  0  0  0  0
   39.0050   27.9590   34.1590 H   0  0  0  0  0  0  0  0  0  0  0  0
   40.7250   26.7010   34.3610 C   0  0  0  0  0  0  0  0  0  0  0  0
   41.4790   25.7190   34.9690 C   0  0  0  0  0  3  0  0  0  0  0  0
   42.7850   25.4340   34.6050 C   0  0  0  0  0  0  0  0  0  0  0  0
   43.3460   24.6530   35.1090 H   0  0  0  0  0  0  0  0  0  0  0  0
   43.2920   26.1820   33.6040 N   0  0  0  0  0  0  0  0  0  0  0  0
   42.5490   27.1370   33.0180 C   0  0  0  0  0  3  0  0  0  0  0  0
   41.2810   27.4200   33.3650 N   0  0  0  0  0  0  0  0  0  0  0  0
   37.6610   23.2830   31.0270 C   0  0  0  0  0  0  0  0  0  0  0  0
   38.7500   23.0070   30.4470 O   0  0  0  0  0  0  0  0  0  0  0  0
   36.9110   22.3240   31.7980 C   0  0  0  0  0  0  0  0  0  0  0  0
   35.9470   21.5850   31.1320 C   0  0  0  0  0  0  0  0  0  0  0  0
   35.2040   20.6410   31.8840 C   0  0  0  0  0  0  0  0  0  0  0  0
   35.4900   20.5210   33.2240 N   0  0  0  0  0  0  0  0  0  0  0  0
   36.4220   21.2510   33.8160 C   0  0  0  0  0  0  0  0  0  0  0  0
   37.1350   22.1520   33.1120 N   0  0  0  0  0  0  0  0  0  0  0  0
   35.7400   21.6940   30.0870 H   0  0  0  0  0  0  0  0  0  0  0  0
   34.4390   20.0340   31.4200 H   0  0  0  0  0  0  0  0  0  0  0  0
   36.6700   21.1800   34.8690 H   0  0  0  0  0  0  0  0  0  0  0  0
  1 17  1  1  0  0  0
  1 13  1  0  0  0  0
  2  1  1  0  0  0  0
  2  9  1  0  0  0  0
  3  2  1  0  0  0  0
  4  3  1  0  0  0  0
  5  4  2  0  0  0  0
  6 11  1  6  0  0  0
  6 27  1  0  0  0  0
  6  4  1  0  0  0  0
  6  7  1  0  0  0  0
  7 12  1  6  0  0  0
  7  3  1  0  0  0  0
  7  8  1  0  0  0  0
  8  1  1  0  0  0  0
 10  2  1  0  0  0  0
 13 15  1  0  0  0  0
 13 16  1  0  0  0  0
 14 13  1  0  0  0  0
 17 18  1  0  0  0  0
 19 17  1  0  0  0  0
 20 17  1  0  0  0  0
 20 21  1  0  0  0  0
 22 21  2  0  0  0  0
 22 23  1  0  0  0  0
 24 22  1  0  0  0  0
 25 26  1  0  0  0  0
 25 24  2  0  0  0  0
 26 20  2  0  0  0  0
 27 29  1  0  0  0  0
 28 27  2  0  0  0  0
 29 34  1  0  0  0  0
 30 29  2  0  0  0  0
 30 31  1  0  0  0  0
 31 32  2  0  0  0  0
 32 33  1  0  0  0  0
 33 37  1  0  0  0  0
 34 33  2  0  0  0  0
 35 30  1  0  0  0  0
 36 31  1  0  0  0  0
M  END
>  <minimizedAffinity>
-5.01699734

$$$$

 OpenBabel03262522043D

 37 40  0  0  1  0  0  0  0  0999 V2000
   36.6640   27.8930   32.5110 C   0  0  2  0  0  0  0  0  0  0  0  0
   37.9710   27.8680   31.7700 C   0  0  0  0  0  0  0  0  0  0  0  0
   38.8080   26.8280   32.3390 N   0  0  0  0  0  0  0  0  0  0  0  0
   39.6560   25.6890   32.5200 C   0  0  0  0  0  0  0  0  0  0  0  0
   40.3200   24.9100   31.7950 O   0  0  0  0  0  0  0  0  0  0  0  0
   39.5150   25.6790   33.9750 C   0  0  1  0  0  0  0  0  0  0  0  0
   38.8900   27.0310   33.7630 C   0  0  2  0  0  0  0  0  0  0  0  0
   37.1020   27.1210   34.1100 S   0  0  0  0  0  0  0  0  0  0  0  0
   37.7150   27.5640   30.7240 H   0  0  0  0  0  0  0  0  0  0  0  0
   38.4650   28.8390   31.6870 H   0  0  0  0  0  0  0  0  0  0  0  0
   40.3960   25.8220   34.6210 H   0  0  0  0  0  0  0  0  0  0  0  0
   39.4620   27.9080   34.0940 H   0  0  0  0  0  0  0  0  0  0  0  0
   35.5380   27.1920   31.8070 C   0  0  0  0  0  0  0  0  0  0  0  0
   35.8460   26.2460   31.3460 H   0  0  0  0  0  0  0  0  0  0  0  0
   34.7640   26.9680   32.5570 H   0  0  0  0  0  0  0  0  0  0  0  0
   35.0820   27.8820   31.0690 H   0  0  0  0  0  0  0  0  0  0  0  0
   36.3000   29.3330   32.8470 C   0  0  0  0  0  0  0  0  0  0  0  0
   36.6480   29.9850   32.0160 H   0  0  0  0  0  0  0  0  0  0  0  0
   36.9460   29.6190   33.7210 H   0  0  0  0  0  0  0  0  0  0  0  0
   34.8810   29.5200   33.1670 C   0  0  0  0  0  0  0  0  0  0  0  0
   33.9080   29.8960   32.2640 C   0  0  0  0  0  3  0  0  0  0  0  0
   32.5770   30.0630   32.6120 C   0  0  0  0  0  0  0  0  0  0  0  0
   31.8410   30.3600   31.8720 H   0  0  0  0  0  0  0  0  0  0  0  0
   32.2760   29.8330   33.9070 N   0  0  0  0  0  0  0  0  0  0  0  0
   33.2320   29.4670   34.7790 C   0  0  0  0  0  3  0  0  0  0  0  0
   34.5250   29.3040   34.4490 N   0  0  0  0  0  0  0  0  0  0  0  0
   38.6400   24.6190   34.5250 C   0  0  0  0  0  0  0  0  0  0  0  0
   37.7890   24.1710   33.7030 O   0  0  0  0  0  0  0  0  0  0  0  0
   38.7570   24.1410   35.8790 C   0  0  0  0  0  0  0  0  0  0  0  0
   37.8290   24.6010   36.8000 C   0  0  0  0  0  0  0  0  0  0  0  0
   37.9390   24.1370   38.1340 C   0  0  0  0  0  0  0  0  0  0  0  0
   38.9580   23.2620   38.4270 N   0  0  0  0  0  0  0  0  0  0  0  0
   39.8220   22.8510   37.5110 C   0  0  0  0  0  0  0  0  0  0  0  0
   39.7270   23.2840   36.2390 N   0  0  0  0  0  0  0  0  0  0  0  0
   37.0420   25.2850   36.5510 H   0  0  0  0  0  0  0  0  0  0  0  0
   37.2440   24.4610   38.8980 H   0  0  0  0  0  0  0  0  0  0  0  0
   40.6340   22.1620   37.7110 H   0  0  0  0  0  0  0  0  0  0  0  0
  1 13  1  6  0  0  0
  1 17  1  0  0  0  0
  1  8  1  0  0  0  0
  2  3  1  0  0  0  0
  2  1  1  0  0  0  0
  3  4  1  0  0  0  0
  3  7  1  0  0  0  0
  4  6  1  0  0  0  0
  5  4  2  0  0  0  0
  6 27  1  0  0  0  0
  6 11  1  1  0  0  0
  7  6  1  0  0  0  0
  7 12  1  1  0  0  0
  7  8  1  0  0  0  0
  9  2  1  0  0  0  0
 10  2  1  0  0  0  0
 13 15  1  0  0  0  0
 14 13  1  0  0  0  0
 16 13  1  0  0  0  0
 17 20  1  0  0  0  0
 17 19  1  0  0  0  0
 18 17  1  0  0  0  0
 20 26  1  0  0  0  0
 21 22  1  0  0  0  0
 21 20  2  0  0  0  0
 22 24  2  0  0  0  0
 23 22  1  0  0  0  0
 24 25  1  0  0  0  0
 26 25  2  0  0  0  0
 27 29  1  0  0  0  0
 28 27  2  0  0  0  0
 29 34  2  0  0  0  0
 29 30  1  0  0  0  0
 30 31  2  0  0  0  0
 31 32  1  0  0  0  0
 31 36  1  0  0  0  0
 33 37  1  0  0  0  0
 33 32  2  0  0  0  0
 34 33  1  0  0  0  0
 35 30  1  0  0  0  0
M  END
>  <minimizedAffinity>
-4.98761702

$$$$

 OpenBabel03262522043D

 37 40  0  0  1  0  0  0  0  0999 V2000
   37.3880   23.6600   31.2800 C   0  0  2  0  0  0  0  0  0  0  0  0
   37.3010   25.1600   31.2820 C   0  0  0  0  0  0  0  0  0  0  0  0
   38.1790   25.6750   32.3160 N   0  0  0  0  0  0  0  0  0  0  0  0
   39.1830   26.4000   33.0340 C   0  0  0  0  0  0  0  0  0  0  0  0
   39.9230   27.3930   32.8340 O   0  0  0  0  0  0  0  0  0  0  0  0
   39.1010   25.5520   34.2220 C   0  0  1  0  0  0  0  0  0  0  0  0
   37.8600   25.0190   33.5590 C   0  0  2  0  0  0  0  0  0  0  0  0
   37.9740   23.2960   32.9730 S   0  0  0  0  0  0  0  0  0  0  0  0
   37.7130   25.4840   30.2940 H   0  0  0  0  0  0  0  0  0  0  0  0
   36.2830   25.5560   31.3270 H   0  0  0  0  0  0  0  0  0  0  0  0
   38.7980   25.9790   35.1910 H   0  0  0  0  0  0  0  0  0  0  0  0
   36.8950   25.2830   34.0110 H   0  0  0  0  0  0  0  0  0  0  0  0
   38.2790   23.0920   30.2120 C   0  0  0  0  0  0  0  0  0  0  0  0
   39.2090   23.6580   30.0870 H   0  0  0  0  0  0  0  0  0  0  0  0
   38.5430   22.0650   30.5100 H   0  0  0  0  0  0  0  0  0  0  0  0
   37.7100   23.0170   29.2640 H   0  0  0  0  0  0  0  0  0  0  0  0
   35.9860   23.0710   31.2060 C   0  0  0  0  0  0  0  0  0  0  0  0
   35.5880   23.2410   30.1810 H   0  0  0  0  0  0  0  0  0  0  0  0
   35.3450   23.7150   31.8680 H   0  0  0  0  0  0  0  0  0  0  0  0
   35.9150   21.6670   31.6220 C   0  0  0  0  0  0  0  0  0  0  0  0
   36.1940   20.5850   30.8120 C   0  0  0  0  0  3  0  0  0  0  0  0
   36.1130   19.2730   31.2480 C   0  0  0  0  0  0  0  0  0  0  0  0
   36.3400   18.4490   30.5800 H   0  0  0  0  0  0  0  0  0  0  0  0
   35.7390   19.1040   32.5330 N   0  0  0  0  0  0  0  0  0  0  0  0
   35.4700   20.1640   33.3140 C   0  0  0  0  0  3  0  0  0  0  0  0
   35.5460   21.4410   32.8980 N   0  0  0  0  0  0  0  0  0  0  0  0
   40.2200   24.6000   34.4060 C   0  0  0  0  0  0  0  0  0  0  0  0
   41.0550   24.5920   33.4560 O   0  0  0  0  0  0  0  0  0  0  0  0
   40.3420   23.7620   35.5710 C   0  0  0  0  0  0  0  0  0  0  0  0
   41.4860   22.9880   35.6830 C   0  0  0  0  0  0  0  0  0  0  0  0
   41.6120   22.1600   36.8260 C   0  0  0  0  0  0  0  0  0  0  0  0
   40.5920   22.1790   37.7480 N   0  0  0  0  0  0  0  0  0  0  0  0
   39.5160   22.9370   37.5960 C   0  0  0  0  0  0  0  0  0  0  0  0
   39.3850   23.7280   36.5140 N   0  0  0  0  0  0  0  0  0  0  0  0
   42.2700   22.9870   34.9530 H   0  0  0  0  0  0  0  0  0  0  0  0
   42.4820   21.5340   36.9700 H   0  0  0  0  0  0  0  0  0  0  0  0
   38.6960   22.9740   38.3030 H   0  0  0  0  0  0  0  0  0  0  0  0
  1 13  1  6  0  0  0
  1  2  1  0  0  0  0
  1  8  1  0  0  0  0
  2 10  1  0  0  0  0
  2  3  1  0  0  0  0
  3  4  1  0  0  0  0
  3  7  1  0  0  0  0
  4  6  1  0  0  0  0
  5  4  2  0  0  0  0
  6 27  1  0  0  0  0
  6 11  1  1  0  0  0
  7 12  1  1  0  0  0
  7  6  1  0  0  0  0
  8  7  1  0  0  0  0
  9  2  1  0  0  0  0
 13 15  1  0  0  0  0
 14 13  1  0  0  0  0
 16 13  1  0  0  0  0
 17  1  1  0  0  0  0
 17 20  1  0  0  0  0
 17 19  1  0  0  0  0
 18 17  1  0  0  0  0
 20 26  1  0  0  0  0
 21 22  1  0  0  0  0
 21 20  2  0  0  0  0
 22 24  2  0  0  0  0
 23 22  1  0  0  0  0
 24 25  1  0  0  0  0
 26 25  2  0  0  0  0
 27 29  1  0  0  0  0
 28 27  2  0  0  0  0
 29 30  2  0  0  0  0
 29 34  1  0  0  0  0
 30 31  1  0  0  0  0
 31 36  1  0  0  0  0
 31 32  2  0  0  0  0
 33 32  1  0  0  0  0
 33 37  1  0  0  0  0
 34 33  2  0  0  0  0
 35 30  1  0  0  0  0
M  END
>  <minimizedAffinity>
-4.98710012

$$$$

 OpenBabel03262522043D

 37 40  0  0  1  0  0  0  0  0999 V2000
   37.9740   25.6460   32.0750 C   0  0  2  0  0  0  0  0  0  0  0  0
   38.4990   24.6380   31.0940 C   0  0  0  0  0  0  0  0  0  0  0  0
   38.6900   23.3750   31.7820 N   0  0  0  0  0  0  0  0  0  0  0  0
   38.6560   21.9950   32.1620 C   0  0  0  0  0  0  0  0  0  0  0  0
   38.3100   20.9060   31.6450 O   0  0  0  0  0  0  0  0  0  0  0  0
   39.2060   22.2360   33.4940 C   0  0  1  0  0  0  0  0  0  0  0  0
   39.5020   23.6060   32.9500 C   0  0  2  0  0  0  0  0  0  0  0  0
   38.5190   24.9580   33.6790 S   0  0  0  0  0  0  0  0  0  0  0  0
   37.6800   24.4960   30.3450 H   0  0  0  0  0  0  0  0  0  0  0  0
   39.3710   24.9690   30.5250 H   0  0  0  0  0  0  0  0  0  0  0  0
   40.1670   21.7850   33.7910 H   0  0  0  0  0  0  0  0  0  0  0  0
   40.5540   23.8590   32.7650 H   0  0  0  0  0  0  0  0  0  0  0  0
   36.4900   25.8690   32.0020 C   0  0  0  0  0  0  0  0  0  0  0  0
   35.9250   24.9380   31.8740 H   0  0  0  0  0  0  0  0  0  0  0  0
   36.1750   26.3300   32.9520 H   0  0  0  0  0  0  0  0  0  0  0  0
   36.2690   26.6000   31.1990 H   0  0  0  0  0  0  0  0  0  0  0  0
   38.7400   26.9530   31.9180 C   0  0  0  0  0  0  0  0  0  0  0  0
   39.8240   26.7420   32.0550 H   0  0  0  0  0  0  0  0  0  0  0  0
   38.4610   27.5840   32.8050 H   0  0  0  0  0  0  0  0  0  0  0  0
   38.4490   27.6580   30.6660 C   0  0  0  0  0  0  0  0  0  0  0  0
   39.0970   27.4460   29.4670 C   0  0  0  0  0  3  0  0  0  0  0  0
   38.7880   28.1390   28.3070 C   0  0  0  0  0  0  0  0  0  0  0  0
   39.3230   27.9430   27.3830 H   0  0  0  0  0  0  0  0  0  0  0  0
   37.7990   29.0500   28.4130 N   0  0  0  0  0  0  0  0  0  0  0  0
   37.1730   29.2480   29.5870 C   0  0  0  0  0  3  0  0  0  0  0  0
   37.4670   28.5810   30.7160 N   0  0  0  0  0  0  0  0  0  0  0  0
   38.2350   22.1560   34.6100 C   0  0  0  0  0  0  0  0  0  0  0  0
   37.0860   21.7540   34.2690 O   0  0  0  0  0  0  0  0  0  0  0  0
   38.5800   22.5060   35.9650 C   0  0  0  0  0  0  0  0  0  0  0  0
   37.5810   23.0470   36.7570 C   0  0  0  0  0  0  0  0  0  0  0  0
   37.9120   23.3950   38.0900 C   0  0  0  0  0  0  0  0  0  0  0  0
   39.2030   23.1720   38.5090 N   0  0  0  0  0  0  0  0  0  0  0  0
   40.1250   22.6520   37.7130 C   0  0  0  0  0  0  0  0  0  0  0  0
   39.8210   22.3170   36.4440 N   0  0  0  0  0  0  0  0  0  0  0  0
   36.5800   23.2130   36.4120 H   0  0  0  0  0  0  0  0  0  0  0  0
   37.1750   23.8210   38.7570 H   0  0  0  0  0  0  0  0  0  0  0  0
   41.1490   22.4640   38.0130 H   0  0  0  0  0  0  0  0  0  0  0  0
  1 17  1  6  0  0  0
  1  8  1  0  0  0  0
  2  3  1  0  0  0  0
  2  1  1  0  0  0  0
  3  4  1  0  0  0  0
  3  7  1  0  0  0  0
  4  6  1  0  0  0  0
  5  4  2  0  0  0  0
  6 11  1  1  0  0  0
  6 27  1  0  0  0  0
  7 12  1  6  0  0  0
  7  6  1  0  0  0  0
  7  8  1  0  0  0  0
  9  2  1  0  0  0  0
 10  2  1  0  0  0  0
 13  1  1  0  0  0  0
 13 15  1  0  0  0  0
 14 13  1  0  0  0  0
 16 13  1  0  0  0  0
 17 18  1  0  0  0  0
 17 19  1  0  0  0  0
 20 26  1  0  0  0  0
 20 17  1  0  0  0  0
 21 20  2  0  0  0  0
 22 24  2  0  0  0  0
 22 21  1  0  0  0  0
 23 22  1  0  0  0  0
 24 25  1  0  0  0  0
 25 26  2  0  0  0  0
 27 29  1  0  0  0  0
 28 27  2  0  0  0  0
 29 34  2  0  0  0  0
 29 30  1  0  0  0  0
 30 31  2  0  0  0  0
 31 32  1  0  0  0  0
 31 36  1  0  0  0  0
 33 37  1  0  0  0  0
 33 32  2  0  0  0  0
 34 33  1  0  0  0  0
 35 30  1  0  0  0  0
M  END
>  <minimizedAffinity>
-4.88038826

$$$$

 OpenBabel03262522043D

 37 40  0  0  1  0  0  0  0  0999 V2000
   39.2180   25.4160   32.6190 C   0  0  2  0  0  0  0  0  0  0  0  0
   37.9430   24.6210   32.6380 C   0  0  0  0  0  0  0  0  0  0  0  0
   36.8670   25.4580   32.1410 N   0  0  0  0  0  0  0  0  0  0  0  0
   35.7500   25.9730   31.4090 C   0  0  0  0  0  0  0  0  0  0  0  0
   34.8940   25.5350   30.6040 O   0  0  0  0  0  0  0  0  0  0  0  0
   35.9000   27.3320   31.9260 C   0  0  1  0  0  0  0  0  0  0  0  0
   36.8580   26.6890   32.8900 C   0  0  2  0  0  0  0  0  0  0  0  0
   38.6100   27.1390   32.6590 S   0  0  0  0  0  0  0  0  0  0  0  0
   38.0980   23.7930   31.9010 H   0  0  0  0  0  0  0  0  0  0  0  0
   37.7240   24.1360   33.5920 H   0  0  0  0  0  0  0  0  0  0  0  0
   35.0960   27.7940   32.5210 H   0  0  0  0  0  0  0  0  0  0  0  0
   36.5430   26.6130   33.9390 H   0  0  0  0  0  0  0  0  0  0  0  0
   40.1100   25.1310   31.4450 C   0  0  0  0  0  0  0  0  0  0  0  0
   39.5570   25.0310   30.5040 H   0  0  0  0  0  0  0  0  0  0  0  0
   40.8060   25.9780   31.3410 H   0  0  0  0  0  0  0  0  0  0  0  0
   40.7240   24.2340   31.6600 H   0  0  0  0  0  0  0  0  0  0  0  0
   39.9550   25.2200   33.9380 C   0  0  0  0  0  0  0  0  0  0  0  0
   40.2830   26.2180   34.3060 H   0  0  0  0  0  0  0  0  0  0  0  0
   40.9100   24.6860   33.6810 H   0  0  0  0  0  0  0  0  0  0  0  0
   39.1890   24.4650   34.9340 C   0  0  0  0  0  0  0  0  0  0  0  0
   38.3610   25.0230   35.8860 C   0  0  0  0  0  3  0  0  0  0  0  0
   37.6550   24.2690   36.8100 C   0  0  0  0  0  0  0  0  0  0  0  0
   37.0140   24.7460   37.5450 H   0  0  0  0  0  0  0  0  0  0  0  0
   37.8220   22.9330   36.7270 N   0  0  0  0  0  0  0  0  0  0  0  0
   38.6310   22.4000   35.7950 C   0  0  0  0  0  3  0  0  0  0  0  0
   39.3190   23.1240   34.8960 N   0  0  0  0  0  0  0  0  0  0  0  0
   36.4690   28.3170   30.9770 C   0  0  0  0  0  0  0  0  0  0  0  0
   36.9400   27.8060   29.9210 O   0  0  0  0  0  0  0  0  0  0  0  0
   36.4770   29.7340   31.2420 C   0  0  0  0  0  0  0  0  0  0  0  0
   35.8160   30.1740   32.3760 C   0  0  0  0  0  0  0  0  0  0  0  0
   35.8190   31.5660   32.6420 C   0  0  0  0  0  0  0  0  0  0  0  0
   36.4770   32.3870   31.7570 N   0  0  0  0  0  0  0  0  0  0  0  0
   37.0960   31.9170   30.6840 C   0  0  0  0  0  0  0  0  0  0  0  0
   37.1000   30.5960   30.4210 N   0  0  0  0  0  0  0  0  0  0  0  0
   35.3080   29.5180   33.0540 H   0  0  0  0  0  0  0  0  0  0  0  0
   35.3200   31.9700   33.5130 H   0  0  0  0  0  0  0  0  0  0  0  0
   37.6230   32.5370   29.9690 H   0  0  0  0  0  0  0  0  0  0  0  0
  1 13  1  6  0  0  0
  1  2  1  0  0  0  0
  1  8  1  0  0  0  0
  1 17  1  0  0  0  0
  2 10  1  0  0  0  0
  3  2  1  0  0  0  0
  3  7  1  0  0  0  0
  4  6  1  0  0  0  0
  4  3  1  0  0  0  0
  5  4  2  0  0  0  0
  6 11  1  1  0  0  0
  6  7  1  0  0  0  0
  7 12  1  1  0  0  0
  8  7  1  0  0  0  0
  9  2  1  0  0  0  0
 13 16  1  0  0  0  0
 14 13  1  0  0  0  0
 15 13  1  0  0  0  0
 17 18  1  0  0  0  0
 17 20  1  0  0  0  0
 19 17  1  0  0  0  0
 20 21  1  0  0  0  0
 21 22  2  0  0  0  0
 22 23  1  0  0  0  0
 24 22  1  0  0  0  0
 25 24  2  0  0  0  0
 26 20  2  0  0  0  0
 26 25  1  0  0  0  0
 27 29  1  0  0  0  0
 27  6  1  0  0  0  0
 28 27  2  0  0  0  0
 29 30  1  0  0  0  0
 30 31  2  0  0  0  0
 30 35  1  0  0  0  0
 31 36  1  0  0  0  0
 32 31  1  0  0  0  0
 33 32  2  0  0  0  0
 34 33  1  0  0  0  0
 34 29  2  0  0  0  0
 37 33  1  0  0  0  0
M  END
>  <minimizedAffinity>
-4.78264856

$$$$
