
 OpenBabel03272510043D

 35 37  0  0  0  0  0  0  0  0999 V2000
   39.0190   31.2380   42.1460 C   0  0  0  0  0  0  0  0  0  0  0  0
   38.3970   32.1780   42.9090 C   0  0  0  0  0  0  0  0  0  0  0  0
   37.4950   33.0570   42.3200 C   0  0  0  0  0  0  0  0  0  0  0  0
   37.1980   33.0200   40.9710 C   0  0  0  0  0  0  0  0  0  0  0  0
   37.8070   32.0910   40.1730 C   0  0  0  0  0  0  0  0  0  0  0  0
   38.6910   31.2370   40.7860 C   0  0  0  0  0  0  0  0  0  0  0  0
   37.0050   33.8040   42.9620 H   0  0  0  0  0  0  0  0  0  0  0  0
   36.4830   33.7470   40.6240 H   0  0  0  0  0  0  0  0  0  0  0  0
   37.5420   32.1110   39.1470 H   0  0  0  0  0  0  0  0  0  0  0  0
   39.1130   30.5470   40.0440 H   0  0  0  0  0  0  0  0  0  0  0  0
   39.9970   33.2850   46.0260 C   0  0  0  0  0  0  0  0  0  0  0  0
   39.6880   33.1320   44.6820 C   0  0  0  0  0  0  0  0  0  0  0  0
   38.6710   32.3140   44.2970 C   0  0  0  0  0  0  0  0  0  0  0  0
   37.9860   31.6710   45.2820 N   0  0  0  0  0  0  0  0  0  0  0  0
   38.2780   31.8190   46.5820 C   0  0  0  0  0  0  0  0  0  0  0  0
   39.2810   32.6220   46.9430 N   0  0  0  0  0  0  0  0  0  0  0  0
   40.7630   33.8830   46.4960 H   0  0  0  0  0  0  0  0  0  0  0  0
   40.3680   33.7830   44.1860 H   0  0  0  0  0  0  0  0  0  0  0  0
   37.4010   31.1090   47.5510 C   0  0  0  0  0  0  0  0  0  0  0  0
   38.0490   30.0510   48.1580 F   0  0  0  0  0  0  0  0  0  0  0  0
   37.1390   31.9950   48.6660 F   0  0  0  0  0  0  0  0  0  0  0  0
   36.2010   30.7670   47.1410 F   0  0  0  0  0  0  0  0  0  0  0  0
   40.1200   30.0860   42.7560 S   0  0  0  0  0  0  0  0  0  0  0  0
   40.9720   30.6440   43.8310 O   0  0  0  0  0  0  0  0  0  0  0  0
   41.1630   30.1500   41.6590 O   0  0  0  0  0  0  0  0  0  0  0  0
   40.1420   28.4040   42.5280 C   0  0  0  0  0  0  0  0  0  0  0  0
   40.3190   28.2820   41.3880 H   0  0  0  0  0  0  0  0  0  0  0  0
   41.0510   27.8890   42.8890 H   0  0  0  0  0  0  0  0  0  0  0  0
   38.8810   27.6980   42.6900 C   0  0  0  0  0  0  0  0  0  0  0  0
   39.0000   26.3400   42.9050 C   0  0  0  0  0  3  0  0  0  0  0  0
   37.9010   25.4980   43.0830 C   0  0  0  0  0  0  0  0  0  0  0  0
   37.9990   24.4330   43.2520 H   0  0  0  0  0  0  0  0  0  0  0  0
   36.6450   26.0320   43.0450 N   0  0  0  0  0  0  0  0  0  0  0  0
   36.5770   27.3590   42.8330 C   0  0  0  0  0  3  0  0  0  0  0  0
   37.6350   28.2020   42.6550 N   0  0  0  0  0  0  0  0  0  0  0  0
  1 23  1  0  0  0  0
  1  2  1  0  0  0  0
  2 13  1  0  0  0  0
  3  2  2  0  0  0  0
  3  7  1  0  0  0  0
  4  3  1  0  0  0  0
  5  6  1  0  0  0  0
  5  4  2  0  0  0  0
  6  1  2  0  0  0  0
  8  4  1  0  0  0  0
  9  5  1  0  0  0  0
 10  6  1  0  0  0  0
 11 17  1  0  0  0  0
 11 16  1  0  0  0  0
 12 11  2  0  0  0  0
 13 12  1  0  0  0  0
 13 14  2  0  0  0  0
 14 15  1  0  0  0  0
 15 16  2  0  0  0  0
 15 19  1  0  0  0  0
 18 12  1  0  0  0  0
 19 20  1  0  0  0  0
 19 21  1  0  0  0  0
 22 19  1  0  0  0  0
 23 24  2  0  0  0  0
 25 23  2  0  0  0  0
 26 29  1  0  0  0  0
 26 23  1  0  0  0  0
 26 28  1  0  0  0  0
 27 26  1  0  0  0  0
 29 30  1  0  0  0  0
 30 31  2  0  0  0  0
 31 32  1  0  0  0  0
 33 31  1  0  0  0  0
 34 33  2  0  0  0  0
 35 29  2  0  0  0  0
 35 34  1  0  0  0  0
M  END
>  <minimizedAffinity>
-4.9658041

>  <minimizedRMSD>
5.36870098

$$$$
