
 OpenBabel03272508083D

 22 23  0  0  0  0  0  0  0  0999 V2000
   38.2700   33.5830   48.7610 O   0  0  0  0  0  0  0  0  0  0  0  0
   38.4180   32.2250   48.1300 P   0  0  2  0  0  0  0  0  0  0  0  0
   37.1450   31.9750   47.0260 O   0  0  0  0  0  0  0  0  0  0  0  0
   36.6010   32.7980   46.9430 H   0  0  0  0  0  0  0  0  0  0  0  0
   38.5180   30.9480   49.2220 O   0  0  0  0  0  0  0  0  0  0  0  0
   36.0790   29.3820   51.5120 C   0  0  0  0  0  0  0  0  0  0  0  0
   37.1920   30.1350   51.1630 C   0  0  0  0  0  0  0  0  0  0  0  0
   37.4940   30.2710   49.8170 C   0  0  0  0  0  0  0  0  0  0  0  0
   36.6840   29.6560   48.9100 N   0  0  0  0  0  0  0  0  0  0  0  0
   35.6050   28.9290   49.2970 C   0  0  0  0  0  0  0  0  0  0  0  0
   35.3100   28.7950   50.5950 N   0  0  0  0  0  0  0  0  0  0  0  0
   35.9250   29.3350   52.5800 H   0  0  0  0  0  0  0  0  0  0  0  0
   37.8760   30.6460   51.8100 H   0  0  0  0  0  0  0  0  0  0  0  0
   34.9600   28.4390   48.5660 H   0  0  0  0  0  0  0  0  0  0  0  0
   39.8330   32.2520   47.1910 O   0  0  0  0  0  0  0  0  0  0  0  0
   39.8940   32.2040   45.8200 C   0  0  0  0  0  0  0  0  0  0  0  0
   39.9520   33.2370   44.9170 C   0  0  0  0  0  3  0  0  0  0  0  0
   40.0100   32.9950   43.5560 C   0  0  0  0  0  0  0  0  0  0  0  0
   40.0540   33.8510   42.8800 H   0  0  0  0  0  0  0  0  0  0  0  0
   40.0100   31.7170   43.0990 N   0  0  0  0  0  0  0  0  0  0  0  0
   39.9540   30.7260   43.9990 C   0  0  0  0  0  3  0  0  0  0  0  0
   39.8960   30.9380   45.3390 N   0  0  0  0  0  0  0  0  0  0  0  0
  2  1  2  1  0  0  0
  2  5  1  0  0  0  0
  3  2  1  0  0  0  0
  4  3  1  0  0  0  0
  5  8  1  0  0  0  0
  6 12  1  0  0  0  0
  7  6  1  0  0  0  0
  7 13  1  0  0  0  0
  8  7  2  0  0  0  0
  9 10  2  0  0  0  0
  9  8  1  0  0  0  0
 10 11  1  0  0  0  0
 11  6  2  0  0  0  0
 14 10  1  0  0  0  0
 15  2  1  0  0  0  0
 16 15  1  0  0  0  0
 17 16  2  0  0  0  0
 18 17  1  0  0  0  0
 19 18  1  0  0  0  0
 20 18  2  0  0  0  0
 20 21  1  0  0  0  0
 21 22  2  0  0  0  0
 22 16  1  0  0  0  0
M  END
>  <minimizedAffinity>
-4.62480211

>  <minimizedRMSD>
2.32382917

$$$$
