
 OpenBabel03272509463D

 23 24  0  0  0  0  0  0  0  0999 V2000
   34.1690   28.4180   48.4770 C   0  0  0  0  0  0  0  0  0  0  0  0
   34.7940   29.0060   47.7940 H   0  0  0  0  0  0  0  0  0  0  0  0
   33.2240   28.9800   48.6350 H   0  0  0  0  0  0  0  0  0  0  0  0
   33.8150   27.0570   47.9490 C   0  0  0  0  0  0  0  0  0  0  0  0
   33.1760   26.5380   48.6620 H   0  0  0  0  0  0  0  0  0  0  0  0
   34.7540   26.4640   47.7780 H   0  0  0  0  0  0  0  0  0  0  0  0
   33.1570   27.1190   46.6160 C   0  0  0  0  0  0  0  0  0  0  0  0
   33.8750   27.7060   45.5940 C   0  0  0  0  0  3  0  0  0  0  0  0
   33.3670   27.8190   44.3180 C   0  0  0  0  0  0  0  0  0  0  0  0
   33.8760   28.2670   43.4690 H   0  0  0  0  0  0  0  0  0  0  0  0
   32.1450   27.3470   44.0590 N   0  0  0  0  0  0  0  0  0  0  0  0
   31.4450   26.7710   45.0670 C   0  0  0  0  0  3  0  0  0  0  0  0
   31.9210   26.6520   46.3180 N   0  0  0  0  0  0  0  0  0  0  0  0
   34.7480   28.3030   49.7720 O   0  0  0  0  0  0  0  0  0  0  0  0
   37.3430   30.2300   51.4160 C   0  0  0  0  0  0  0  0  0  0  0  0
   38.0600   30.6710   50.2860 C   0  0  0  0  0  0  0  0  0  0  0  0
   37.6090   30.2800   49.0310 C   0  0  0  0  0  0  0  0  0  0  0  0
   36.4920   29.4890   48.9800 N   0  0  0  0  0  0  0  0  0  0  0  0
   35.8320   29.0860   50.0720 C   0  0  0  0  0  0  0  0  0  0  0  0
   36.2630   29.4610   51.2990 N   0  0  0  0  0  0  0  0  0  0  0  0
   37.6390   30.4980   52.4270 H   0  0  0  0  0  0  0  0  0  0  0  0
   38.9350   31.2960   50.4210 H   0  0  0  0  0  0  0  0  0  0  0  0
   38.1330   30.5980   48.1360 H   0  0  0  0  0  0  0  0  0  0  0  0
  1  3  1  0  0  0  0
  1 14  1  0  0  0  0
  2  1  1  0  0  0  0
  4  1  1  0  0  0  0
  4  5  1  0  0  0  0
  6  4  1  0  0  0  0
  7  4  1  0  0  0  0
  8  7  2  0  0  0  0
  9  8  1  0  0  0  0
 10  9  1  0  0  0  0
 11  9  2  0  0  0  0
 11 12  1  0  0  0  0
 12 13  2  0  0  0  0
 13  7  1  0  0  0  0
 14 19  1  0  0  0  0
 15 21  1  0  0  0  0
 16 22  1  0  0  0  0
 16 15  2  0  0  0  0
 17 16  1  0  0  0  0
 18 17  2  0  0  0  0
 18 19  1  0  0  0  0
 19 20  2  0  0  0  0
 20 15  1  0  0  0  0
 23 17  1  0  0  0  0
M  END
>  <minimizedAffinity>
-3.63716149

>  <minimizedRMSD>
0.104421064

$$$$
