
 OpenBabel03272509503D

 31 33  0  0  0  0  0  0  0  0999 V2000
   34.5860   28.3100   49.8010 O   0  0  0  0  0  0  0  0  0  0  0  0
   37.2260   30.1230   51.4790 C   0  0  0  0  0  0  0  0  0  0  0  0
   37.8180   30.7790   50.3700 C   0  0  0  0  0  0  0  0  0  0  0  0
   37.2710   30.5530   49.1200 C   0  0  0  0  0  0  0  0  0  0  0  0
   36.2000   29.7200   49.0230 N   0  0  0  0  0  0  0  0  0  0  0  0
   35.6620   29.1130   50.1010 C   0  0  0  0  0  0  0  0  0  0  0  0
   36.1850   29.3210   51.3420 N   0  0  0  0  0  0  0  0  0  0  0  0
   37.6770   30.3210   52.4420 H   0  0  0  0  0  0  0  0  0  0  0  0
   38.6690   31.4380   50.4660 H   0  0  0  0  0  0  0  0  0  0  0  0
   37.7710   31.1550   47.8900 C   0  0  0  0  0  0  0  0  0  0  0  0
   38.8420   32.0080   47.8680 C   0  0  0  0  0  3  0  0  0  0  0  0
   39.2970   32.5640   46.6950 C   0  0  0  0  0  0  0  0  0  0  0  0
   40.1430   33.2390   46.6620 H   0  0  0  0  0  0  0  0  0  0  0  0
   38.6910   32.2790   45.5430 N   0  0  0  0  0  0  0  0  0  0  0  0
   37.6380   31.4450   45.5500 C   0  0  0  0  0  3  0  0  0  0  0  0
   37.2070   30.9110   46.6950 N   0  0  0  0  0  0  0  0  0  0  0  0
   33.9230   28.5430   48.5580 C   0  0  0  0  0  0  0  0  0  0  0  0
   33.4160   29.5150   48.5920 H   0  0  0  0  0  0  0  0  0  0  0  0
   34.7160   28.6160   47.7850 H   0  0  0  0  0  0  0  0  0  0  0  0
   32.9910   27.3940   48.2530 C   0  0  0  0  0  0  0  0  0  0  0  0
   33.0460   26.5990   49.0040 H   0  0  0  0  0  0  0  0  0  0  0  0
   33.2800   26.9520   47.2620 H   0  0  0  0  0  0  0  0  0  0  0  0
   31.5790   27.8440   48.1260 C   0  0  0  0  0  0  0  0  0  0  0  0
   30.7550   27.6290   49.2080 C   0  0  0  0  0  0  0  0  0  0  0  0
   29.4210   28.0030   49.2130 C   0  0  0  0  0  0  0  0  0  0  0  0
   28.9160   28.5900   48.1360 N   0  0  0  0  0  0  0  0  0  0  0  0
   29.7210   28.8050   47.0660 C   0  0  0  0  0  0  0  0  0  0  0  0
   31.0240   28.4470   47.0440 N   0  0  0  0  0  0  0  0  0  0  0  0
   31.1340   27.1510   50.1070 H   0  0  0  0  0  0  0  0  0  0  0  0
   28.7680   27.8440   50.0420 H   0  0  0  0  0  0  0  0  0  0  0  0
   29.3950   29.2830   46.1320 H   0  0  0  0  0  0  0  0  0  0  0  0
  1  6  1  0  0  0  0
  2  8  1  0  0  0  0
  3  9  1  0  0  0  0
  3  2  2  0  0  0  0
  4  3  1  0  0  0  0
  5  4  2  0  0  0  0
  5  6  1  0  0  0  0
  6  7  2  0  0  0  0
  7  2  1  0  0  0  0
 10  4  1  0  0  0  0
 11 10  1  0  0  0  0
 12 11  2  0  0  0  0
 13 12  1  0  0  0  0
 14 15  2  0  0  0  0
 14 12  1  0  0  0  0
 15 16  1  0  0  0  0
 16 10  2  0  0  0  0
 17 18  1  0  0  0  0
 17  1  1  0  0  0  0
 19 17  1  0  0  0  0
 20 17  1  0  0  0  0
 20 21  1  0  0  0  0
 22 20  1  0  0  0  0
 23 20  1  0  0  0  0
 23 24  1  0  0  0  0
 24 25  2  0  0  0  0
 24 29  1  0  0  0  0
 25 30  1  0  0  0  0
 26 25  1  0  0  0  0
 27 26  2  0  0  0  0
 28 27  1  0  0  0  0
 28 23  2  0  0  0  0
 31 27  1  0  0  0  0
M  END
>  <minimizedAffinity>
-5.63896847

>  <minimizedRMSD>
0.751573026

$$$$
