
 OpenBabel03272504173D

 24 25  0  0  0  0  0  0  0  0999 V2000
   34.6010   30.5220   48.7210 O   0  0  0  0  0  0  0  0  0  0  0  0
   35.8270   30.6020   49.3660 C   0  0  0  0  0  0  0  0  0  0  0  0
   36.1810   29.9600   50.5470 C   0  0  0  0  0  0  0  0  0  0  0  0
   37.4550   30.1500   51.0570 C   0  0  0  0  0  0  0  0  0  0  0  0
   38.3270   30.9610   50.3870 N   0  0  0  0  0  0  0  0  0  0  0  0
   37.9390   31.5730   49.2310 C   0  0  0  0  0  0  0  0  0  0  0  0
   36.6970   31.3940   48.7250 N   0  0  0  0  0  0  0  0  0  0  0  0
   37.6860   29.6350   51.9710 H   0  0  0  0  0  0  0  0  0  0  0  0
   38.6540   32.2170   48.7120 H   0  0  0  0  0  0  0  0  0  0  0  0
   35.1640   29.1560   51.1150 N   0  0  0  0  0  0  0  0  0  0  0  0
   35.6110   28.2110   51.2370 H   0  0  0  0  0  0  0  0  0  0  0  0
   34.1870   29.4160   51.3640 H   0  0  0  0  0  0  0  0  0  0  0  0
   35.1230   29.5260   46.2800 O   0  0  0  0  0  0  0  0  0  0  0  0
   34.2760   29.3210   47.5210 P   0  0  1  0  0  0  0  0  0  0  0  0
   34.5900   27.8320   48.2430 O   0  0  0  0  0  0  0  0  0  0  0  0
   33.7750   27.4280   48.5950 H   0  0  0  0  0  0  0  0  0  0  0  0
   32.6670   29.4490   47.0280 O   0  0  0  0  0  0  0  0  0  0  0  0
   32.2470   30.0530   45.8640 C   0  0  0  0  0  0  0  0  0  0  0  0
   31.9040   29.2540   44.7890 C   0  0  0  0  0  0  0  0  0  0  0  0
   31.4850   29.8920   43.6250 C   0  0  0  0  0  0  0  0  0  0  0  0
   31.1940   29.3280   42.7280 H   0  0  0  0  0  0  0  0  0  0  0  0
   31.4310   31.2440   43.5940 N   0  0  0  0  0  0  0  0  0  0  0  0
   31.7680   32.0030   44.6460 C   0  0  0  0  0  0  0  0  0  0  0  0
   32.1810   31.4110   45.7940 N   0  0  0  0  0  0  0  0  0  0  0  0
  1  2  1  0  0  0  0
  2  3  1  0  0  0  0
  3  4  2  0  0  0  0
  3 10  1  0  0  0  0
  4  8  1  0  0  0  0
  5  4  1  0  0  0  0
  6  5  2  0  0  0  0
  7  6  1  0  0  0  0
  7  2  2  0  0  0  0
  9  6  1  0  0  0  0
 10 11  1  0  0  0  0
 10 12  1  0  0  0  0
 14 13  2  6  0  0  0
 14 15  1  0  0  0  0
 14  1  1  0  0  0  0
 15 16  1  0  0  0  0
 17 14  1  0  0  0  0
 18 17  1  0  0  0  0
 19 18  2  0  0  0  0
 20 19  1  0  0  0  0
 21 20  1  0  0  0  0
 22 20  2  0  0  0  0
 22 23  1  0  0  0  0
 23 24  2  0  0  0  0
 24 18  1  0  0  0  0
M  END
>  <minimizedAffinity>
-3.84786916

>  <minimizedRMSD>
1.21900153

$$$$
