
 OpenBabel03272509463D

 23 24  0  0  0  0  0  0  0  0999 V2000
   34.1770   28.4180   48.4830 C   0  0  0  0  0  0  0  0  0  0  0  0
   34.7970   29.0160   47.8040 H   0  0  0  0  0  0  0  0  0  0  0  0
   33.2250   28.9680   48.6400 H   0  0  0  0  0  0  0  0  0  0  0  0
   33.8410   27.0550   47.9490 C   0  0  0  0  0  0  0  0  0  0  0  0
   33.1610   26.5480   48.6320 H   0  0  0  0  0  0  0  0  0  0  0  0
   34.7830   26.4540   47.8340 H   0  0  0  0  0  0  0  0  0  0  0  0
   33.2560   27.1090   46.5820 C   0  0  0  0  0  0  0  0  0  0  0  0
   32.6680   25.9520   46.1100 C   0  0  0  0  0  3  0  0  0  0  0  0
   32.0960   25.8840   44.8600 C   0  0  0  0  0  0  0  0  0  0  0  0
   31.6170   25.0110   44.4270 H   0  0  0  0  0  0  0  0  0  0  0  0
   32.1060   26.9670   44.0770 N   0  0  0  0  0  0  0  0  0  0  0  0
   32.6840   28.1000   44.5470 C   0  0  0  0  0  3  0  0  0  0  0  0
   33.2490   28.1880   45.7630 N   0  0  0  0  0  0  0  0  0  0  0  0
   34.7530   28.3060   49.7790 O   0  0  0  0  0  0  0  0  0  0  0  0
   37.3470   30.2340   51.4250 C   0  0  0  0  0  0  0  0  0  0  0  0
   38.0660   30.6730   50.2950 C   0  0  0  0  0  0  0  0  0  0  0  0
   37.6150   30.2810   49.0400 C   0  0  0  0  0  0  0  0  0  0  0  0
   36.4990   29.4900   48.9880 N   0  0  0  0  0  0  0  0  0  0  0  0
   35.8370   29.0890   50.0800 C   0  0  0  0  0  0  0  0  0  0  0  0
   36.2670   29.4650   51.3070 N   0  0  0  0  0  0  0  0  0  0  0  0
   37.6420   30.5020   52.4360 H   0  0  0  0  0  0  0  0  0  0  0  0
   38.9400   31.2980   50.4300 H   0  0  0  0  0  0  0  0  0  0  0  0
   38.1410   30.5980   48.1460 H   0  0  0  0  0  0  0  0  0  0  0  0
  1  3  1  0  0  0  0
  1 14  1  0  0  0  0
  2  1  1  0  0  0  0
  4  1  1  0  0  0  0
  4  5  1  0  0  0  0
  6  4  1  0  0  0  0
  7  4  1  0  0  0  0
  8  7  1  0  0  0  0
  9  8  2  0  0  0  0
 10  9  1  0  0  0  0
 11 12  2  0  0  0  0
 11  9  1  0  0  0  0
 12 13  1  0  0  0  0
 13  7  2  0  0  0  0
 14 19  1  0  0  0  0
 15 21  1  0  0  0  0
 16 22  1  0  0  0  0
 16 15  2  0  0  0  0
 17 16  1  0  0  0  0
 18 17  2  0  0  0  0
 18 19  1  0  0  0  0
 19 20  2  0  0  0  0
 20 15  1  0  0  0  0
 23 17  1  0  0  0  0
M  END
>  <minimizedAffinity>
-3.59346533

>  <minimizedRMSD>
0.0447750427

$$$$
