
 OpenBabel03272510013D

 19 20  0  0  0  0  0  0  0  0999 V2000
   38.1570   32.8110   49.4590 C   0  0  0  0  0  0  0  0  0  0  0  0
   38.5190   32.7020   48.1050 C   0  0  0  0  0  0  0  0  0  0  0  0
   37.9590   31.6570   47.3860 C   0  0  0  0  0  0  0  0  0  0  0  0
   37.1050   30.8010   47.9990 N   0  0  0  0  0  0  0  0  0  0  0  0
   36.7840   30.9430   49.3050 C   0  0  0  0  0  0  0  0  0  0  0  0
   37.3060   31.9400   50.0280 N   0  0  0  0  0  0  0  0  0  0  0  0
   38.5720   33.6140   50.0550 H   0  0  0  0  0  0  0  0  0  0  0  0
   39.2050   33.4140   47.6650 H   0  0  0  0  0  0  0  0  0  0  0  0
   38.2920   31.4850   45.9760 C   0  0  0  0  0  0  0  0  0  0  0  0
   38.9840   30.3630   45.5660 C   0  0  0  0  0  3  0  0  0  0  0  0
   39.2650   30.2670   44.2180 C   0  0  0  0  0  0  0  0  0  0  0  0
   39.8010   29.4050   43.8730 H   0  0  0  0  0  0  0  0  0  0  0  0
   38.8630   31.2410   43.3870 N   0  0  0  0  0  0  0  0  0  0  0  0
   38.1940   32.3310   43.7700 C   0  0  0  0  0  3  0  0  0  0  0  0
   37.9170   32.4280   45.0960 N   0  0  0  0  0  0  0  0  0  0  0  0
   35.8420   29.9600   49.8970 C   0  0  0  0  0  0  0  0  0  0  0  0
   36.1100   29.7080   51.2360 F   0  0  0  0  0  0  0  0  0  0  0  0
   34.5370   30.4200   49.8340 F   0  0  0  0  0  0  0  0  0  0  0  0
   35.8430   28.7510   49.2420 F   0  0  0  0  0  0  0  0  0  0  0  0
  1  6  1  0  0  0  0
  1  7  1  0  0  0  0
  2  1  2  0  0  0  0
  3  4  2  0  0  0  0
  3  2  1  0  0  0  0
  4  5  1  0  0  0  0
  5 16  1  0  0  0  0
  5  6  2  0  0  0  0
  8  2  1  0  0  0  0
  9  3  1  0  0  0  0
 10  9  1  0  0  0  0
 11 10  2  0  0  0  0
 12 11  1  0  0  0  0
 13 14  2  0  0  0  0
 13 11  1  0  0  0  0
 14 15  1  0  0  0  0
 15  9  2  0  0  0  0
 16 17  1  0  0  0  0
 18 16  1  0  0  0  0
 19 16  1  0  0  0  0
M  END
>  <minimizedAffinity>
-5.28849077

>  <minimizedRMSD>
1.50749063

$$$$
