
 OpenBabel03272505333D

 38 41  0  0  0  0  0  0  0  0999 V2000
   35.9120   29.3030   33.5770 N   0  0  0  0  0  0  0  0  0  0  0  0
   36.2760   28.0270   33.8620 C   0  0  0  0  0  0  0  0  0  0  0  0
   36.9100   27.2120   32.9350 C   0  0  0  0  0  0  0  0  0  0  0  0
   37.1730   27.7510   31.6670 C   0  0  0  0  0  0  0  0  0  0  0  0
   37.7430   27.0610   30.7940 O   0  0  0  0  0  0  0  0  0  0  0  0
   36.8010   29.0480   31.3850 N   0  0  0  0  0  0  0  0  0  0  0  0
   36.1990   29.7280   32.3560 C   0  0  0  0  0  0  0  0  0  0  0  0
   35.8790   30.8960   32.0590 O   0  0  0  0  0  0  0  0  0  0  0  0
   36.0830   27.5890   34.8360 H   0  0  0  0  0  0  0  0  0  0  0  0
   35.3400   31.7070   36.3430 C   0  0  0  0  0  0  0  0  0  0  0  0
   35.9830   30.8990   35.3930 C   0  0  0  0  0  0  0  0  0  0  0  0
   35.2790   30.1030   34.5170 C   0  0  0  0  0  0  0  0  0  0  0  0
   33.9450   30.1430   34.6230 N   0  0  0  0  0  0  0  0  0  0  0  0
   33.2790   30.9110   35.5280 C   0  0  0  0  0  0  0  0  0  0  0  0
   33.9970   31.6900   36.3840 N   0  0  0  0  0  0  0  0  0  0  0  0
   35.8720   32.3300   37.0310 H   0  0  0  0  0  0  0  0  0  0  0  0
   37.0500   30.9260   35.3760 H   0  0  0  0  0  0  0  0  0  0  0  0
   32.2040   30.8330   35.4880 H   0  0  0  0  0  0  0  0  0  0  0  0
   37.3190   25.8440   33.1890 C   0  0  0  0  0  0  0  0  0  0  0  0
   37.3420   24.8690   32.2230 C   0  0  0  0  0  0  0  0  0  0  0  0
   37.7250   23.5620   32.4280 C   0  0  0  0  0  0  0  0  0  0  0  0
   38.1230   23.1860   33.7200 C   0  0  0  0  0  0  0  0  0  0  0  0
   38.0830   24.2000   34.6600 C   0  0  0  0  0  0  0  0  0  0  0  0
   37.7030   25.4470   34.3970 N   0  0  0  0  0  0  0  0  0  0  0  0
   37.0410   25.1120   31.2030 H   0  0  0  0  0  0  0  0  0  0  0  0
   37.7300   22.8190   31.6400 H   0  0  0  0  0  0  0  0  0  0  0  0
   38.4320   22.1870   33.9470 H   0  0  0  0  0  0  0  0  0  0  0  0
   38.4890   23.8610   36.0210 C   0  0  0  0  0  0  0  0  0  0  0  0
   37.7660   24.3120   37.1210 C   0  0  0  0  0  3  0  0  0  0  0  0
   38.1560   23.9870   38.4070 C   0  0  0  0  0  0  0  0  0  0  0  0
   37.5180   24.3930   39.2080 H   0  0  0  0  0  0  0  0  0  0  0  0
   39.2520   23.2210   38.6380 N   0  0  0  0  0  0  0  0  0  0  0  0
   39.9370   22.7940   37.5560 C   0  0  0  0  0  3  0  0  0  0  0  0
   39.5660   23.1050   36.2980 N   0  0  0  0  0  0  0  0  0  0  0  0
   37.0710   29.6010   30.0830 C   0  0  0  0  0  0  0  0  0  0  0  0
   36.2760   30.6710   29.8350 F   0  0  0  0  0  0  0  0  0  0  0  0
   36.8430   28.7000   29.0480 F   0  0  0  0  0  0  0  0  0  0  0  0
   38.4000   30.0350   30.0480 F   0  0  0  0  0  0  0  0  0  0  0  0
  1  2  1  0  0  0  0
  1 12  1  0  0  0  0
  2  9  1  0  0  0  0
  3 19  1  0  0  0  0
  3  2  2  0  0  0  0
  4  3  1  0  0  0  0
  5  4  2  0  0  0  0
  6  4  1  0  0  0  0
  6  7  1  0  0  0  0
  7  1  1  0  0  0  0
  8  7  2  0  0  0  0
 10 15  1  0  0  0  0
 10 16  1  0  0  0  0
 11 10  2  0  0  0  0
 12 13  2  0  0  0  0
 12 11  1  0  0  0  0
 13 14  1  0  0  0  0
 14 15  2  0  0  0  0
 17 11  1  0  0  0  0
 18 14  1  0  0  0  0
 19 24  1  0  0  0  0
 20 21  1  0  0  0  0
 20 19  2  0  0  0  0
 21 22  2  0  0  0  0
 22 27  1  0  0  0  0
 22 23  1  0  0  0  0
 23 28  1  0  0  0  0
 24 23  2  0  0  0  0
 25 20  1  0  0  0  0
 26 21  1  0  0  0  0
 28 34  2  0  0  0  0
 28 29  1  0  0  0  0
 29 30  2  0  0  0  0
 30 32  1  0  0  0  0
 30 31  1  0  0  0  0
 33 32  2  0  0  0  0
 34 33  1  0  0  0  0
 35  6  1  0  0  0  0
 36 35  1  0  0  0  0
 37 35  1  0  0  0  0
 38 35  1  0  0  0  0
M  END
>  <minimizedAffinity>
-6.60905933

$$$$

 OpenBabel03272505333D

 38 41  0  0  0  0  0  0  0  0999 V2000
   38.3530   24.6750   33.7030 N   0  0  0  0  0  0  0  0  0  0  0  0
   38.0460   25.9950   33.6160 C   0  0  0  0  0  0  0  0  0  0  0  0
   37.0240   26.4660   32.8040 C   0  0  0  0  0  0  0  0  0  0  0  0
   36.3000   25.5250   32.0570 C   0  0  0  0  0  0  0  0  0  0  0  0
   35.3690   25.8960   31.3100 O   0  0  0  0  0  0  0  0  0  0  0  0
   36.6170   24.1880   32.1510 N   0  0  0  0  0  0  0  0  0  0  0  0
   37.6170   23.8600   32.9640 C   0  0  0  0  0  0  0  0  0  0  0  0
   37.8710   22.6400   33.0180 O   0  0  0  0  0  0  0  0  0  0  0  0
   38.5920   26.7400   34.1840 H   0  0  0  0  0  0  0  0  0  0  0  0
   40.1770   23.2540   36.6020 C   0  0  0  0  0  0  0  0  0  0  0  0
   39.1390   23.7110   35.7760 C   0  0  0  0  0  0  0  0  0  0  0  0
   39.3780   24.2230   34.5210 C   0  0  0  0  0  0  0  0  0  0  0  0
   40.6580   24.2600   34.1320 N   0  0  0  0  0  0  0  0  0  0  0  0
   41.6970   23.8290   34.8970 C   0  0  0  0  0  0  0  0  0  0  0  0
   41.4350   23.3260   36.1360 N   0  0  0  0  0  0  0  0  0  0  0  0
   40.0090   22.8540   37.5810 H   0  0  0  0  0  0  0  0  0  0  0  0
   38.1460   23.6460   36.1650 H   0  0  0  0  0  0  0  0  0  0  0  0
   42.6690   23.9250   34.4420 H   0  0  0  0  0  0  0  0  0  0  0  0
   36.6570   27.8630   32.6750 C   0  0  0  0  0  0  0  0  0  0  0  0
   36.8970   28.6090   31.5480 C   0  0  0  0  0  0  0  0  0  0  0  0
   36.5610   29.9350   31.3910 C   0  0  0  0  0  0  0  0  0  0  0  0
   35.9240   30.5860   32.4590 C   0  0  0  0  0  0  0  0  0  0  0  0
   35.7030   29.7960   33.5730 C   0  0  0  0  0  0  0  0  0  0  0  0
   36.0520   28.5160   33.6620 N   0  0  0  0  0  0  0  0  0  0  0  0
   37.3910   28.1480   30.6910 H   0  0  0  0  0  0  0  0  0  0  0  0
   36.7680   30.4930   30.4860 H   0  0  0  0  0  0  0  0  0  0  0  0
   35.6370   31.6140   32.4030 H   0  0  0  0  0  0  0  0  0  0  0  0
   35.0420   30.4240   34.7130 C   0  0  0  0  0  0  0  0  0  0  0  0
   35.7420   31.2510   35.5860 C   0  0  0  0  0  3  0  0  0  0  0  0
   35.1100   31.8430   36.6630 C   0  0  0  0  0  0  0  0  0  0  0  0
   35.7510   32.4780   37.2940 H   0  0  0  0  0  0  0  0  0  0  0  0
   33.7890   31.6380   36.9030 N   0  0  0  0  0  0  0  0  0  0  0  0
   33.1300   30.8330   36.0430 C   0  0  0  0  0  3  0  0  0  0  0  0
   33.7370   30.2510   34.9900 N   0  0  0  0  0  0  0  0  0  0  0  0
   35.8730   23.2220   31.3840 C   0  0  0  0  0  0  0  0  0  0  0  0
   35.0230   22.5230   32.1770 F   0  0  0  0  0  0  0  0  0  0  0  0
   36.6820   22.2800   30.7570 F   0  0  0  0  0  0  0  0  0  0  0  0
   35.1090   23.9020   30.4300 F   0  0  0  0  0  0  0  0  0  0  0  0
  1 12  1  0  0  0  0
  2  1  1  0  0  0  0
  2  9  1  0  0  0  0
  3  2  2  0  0  0  0
  4  6  1  0  0  0  0
  4  3  1  0  0  0  0
  5  4  2  0  0  0  0
  6  7  1  0  0  0  0
  7  8  2  0  0  0  0
  7  1  1  0  0  0  0
 10 16  1  0  0  0  0
 11 17  1  0  0  0  0
 11 10  2  0  0  0  0
 12 11  1  0  0  0  0
 13 12  2  0  0  0  0
 13 14  1  0  0  0  0
 14 15  2  0  0  0  0
 15 10  1  0  0  0  0
 18 14  1  0  0  0  0
 19  3  1  0  0  0  0
 19 24  1  0  0  0  0
 20 19  2  0  0  0  0
 21 20  1  0  0  0  0
 21 22  2  0  0  0  0
 22 23  1  0  0  0  0
 23 24  2  0  0  0  0
 23 28  1  0  0  0  0
 25 20  1  0  0  0  0
 26 21  1  0  0  0  0
 27 22  1  0  0  0  0
 28 34  2  0  0  0  0
 28 29  1  0  0  0  0
 29 30  2  0  0  0  0
 30 32  1  0  0  0  0
 30 31  1  0  0  0  0
 33 32  2  0  0  0  0
 34 33  1  0  0  0  0
 35  6  1  0  0  0  0
 35 36  1  0  0  0  0
 37 35  1  0  0  0  0
 38 35  1  0  0  0  0
M  END
>  <minimizedAffinity>
-6.57670069

$$$$

 OpenBabel03272505333D

 38 41  0  0  0  0  0  0  0  0999 V2000
   37.3510   23.4590   32.8490 N   0  0  0  0  0  0  0  0  0  0  0  0
   36.9940   24.7160   32.4830 C   0  0  0  0  0  0  0  0  0  0  0  0
   37.2370   25.8190   33.2890 C   0  0  0  0  0  0  0  0  0  0  0  0
   37.8750   25.5980   34.5190 C   0  0  0  0  0  0  0  0  0  0  0  0
   38.1180   26.5570   35.2840 O   0  0  0  0  0  0  0  0  0  0  0  0
   38.2340   24.3190   34.8820 N   0  0  0  0  0  0  0  0  0  0  0  0
   37.9470   23.3440   34.0250 C   0  0  0  0  0  0  0  0  0  0  0  0
   38.2890   22.2030   34.3940 O   0  0  0  0  0  0  0  0  0  0  0  0
   36.5000   24.9100   31.5370 H   0  0  0  0  0  0  0  0  0  0  0  0
   35.6320   20.6180   31.1960 C   0  0  0  0  0  0  0  0  0  0  0  0
   35.8850   21.7200   32.0270 C   0  0  0  0  0  0  0  0  0  0  0  0
   37.0990   22.3680   32.0290 C   0  0  0  0  0  0  0  0  0  0  0  0
   38.0270   21.8870   31.1930 N   0  0  0  0  0  0  0  0  0  0  0  0
   37.8290   20.8220   30.3700 C   0  0  0  0  0  0  0  0  0  0  0  0
   36.6180   20.1960   30.3860 N   0  0  0  0  0  0  0  0  0  0  0  0
   34.6950   20.1020   31.1830 H   0  0  0  0  0  0  0  0  0  0  0  0
   35.0890   22.0390   32.6640 H   0  0  0  0  0  0  0  0  0  0  0  0
   38.6740   20.5550   29.7560 H   0  0  0  0  0  0  0  0  0  0  0  0
   36.8760   27.1820   32.9460 C   0  0  0  0  0  0  0  0  0  0  0  0
   37.1690   27.7610   31.7360 C   0  0  0  0  0  0  0  0  0  0  0  0
   36.8420   29.0490   31.3770 C   0  0  0  0  0  0  0  0  0  0  0  0
   36.1570   29.8410   32.3120 C   0  0  0  0  0  0  0  0  0  0  0  0
   35.8840   29.2170   33.5150 C   0  0  0  0  0  0  0  0  0  0  0  0
   36.2280   27.9650   33.8010 N   0  0  0  0  0  0  0  0  0  0  0  0
   37.7010   27.1850   30.9770 H   0  0  0  0  0  0  0  0  0  0  0  0
   37.0910   29.4730   30.4110 H   0  0  0  0  0  0  0  0  0  0  0  0
   35.8740   30.8500   32.0960 H   0  0  0  0  0  0  0  0  0  0  0  0
   35.1720   29.9970   34.5230 C   0  0  0  0  0  0  0  0  0  0  0  0
   35.8350   30.9320   35.3120 C   0  0  0  0  0  3  0  0  0  0  0  0
   35.1550   31.6670   36.2640 C   0  0  0  0  0  0  0  0  0  0  0  0
   35.7700   32.3800   36.8360 H   0  0  0  0  0  0  0  0  0  0  0  0
   33.8220   31.5030   36.4590 N   0  0  0  0  0  0  0  0  0  0  0  0
   33.1990   30.5920   35.6820 C   0  0  0  0  0  3  0  0  0  0  0  0
   33.8530   29.8690   34.7510 N   0  0  0  0  0  0  0  0  0  0  0  0
   38.8890   24.0930   36.1460 C   0  0  0  0  0  0  0  0  0  0  0  0
   38.6580   22.8350   36.5950 F   0  0  0  0  0  0  0  0  0  0  0  0
   38.4510   24.9500   37.1500 F   0  0  0  0  0  0  0  0  0  0  0  0
   40.2680   24.2390   35.9660 F   0  0  0  0  0  0  0  0  0  0  0  0
  1  7  1  0  0  0  0
  2  1  1  0  0  0  0
  2  3  2  0  0  0  0
  3  4  1  0  0  0  0
  4  6  1  0  0  0  0
  4  5  2  0  0  0  0
  6 35  1  0  0  0  0
  7  8  2  0  0  0  0
  7  6  1  0  0  0  0
  9  2  1  0  0  0  0
 10 11  1  0  0  0  0
 11 12  2  0  0  0  0
 11 17  1  0  0  0  0
 12  1  1  0  0  0  0
 13 12  1  0  0  0  0
 14 15  1  0  0  0  0
 14 13  2  0  0  0  0
 15 10  2  0  0  0  0
 16 10  1  0  0  0  0
 18 14  1  0  0  0  0
 19  3  1  0  0  0  0
 19 24  1  0  0  0  0
 20 19  2  0  0  0  0
 21 20  1  0  0  0  0
 21 22  2  0  0  0  0
 22 23  1  0  0  0  0
 23 24  2  0  0  0  0
 23 28  1  0  0  0  0
 25 20  1  0  0  0  0
 26 21  1  0  0  0  0
 27 22  1  0  0  0  0
 28 34  2  0  0  0  0
 28 29  1  0  0  0  0
 29 30  2  0  0  0  0
 30 32  1  0  0  0  0
 30 31  1  0  0  0  0
 33 32  2  0  0  0  0
 34 33  1  0  0  0  0
 35 36  1  0  0  0  0
 35 37  1  0  0  0  0
 38 35  1  0  0  0  0
M  END
>  <minimizedAffinity>
-6.55820274

$$$$

 OpenBabel03272505333D

 38 41  0  0  0  0  0  0  0  0999 V2000
   38.0660   23.5330   34.2950 N   0  0  0  0  0  0  0  0  0  0  0  0
   38.1070   24.7740   33.7470 C   0  0  0  0  0  0  0  0  0  0  0  0
   37.4680   25.0790   32.5540 C   0  0  0  0  0  0  0  0  0  0  0  0
   36.7630   24.0500   31.9120 C   0  0  0  0  0  0  0  0  0  0  0  0
   36.1690   24.2700   30.8340 O   0  0  0  0  0  0  0  0  0  0  0  0
   36.7270   22.7930   32.4750 N   0  0  0  0  0  0  0  0  0  0  0  0
   37.3790   22.6250   33.6210 C   0  0  0  0  0  0  0  0  0  0  0  0
   37.3200   21.4730   34.0950 O   0  0  0  0  0  0  0  0  0  0  0  0
   38.6460   25.5850   34.2260 H   0  0  0  0  0  0  0  0  0  0  0  0
   38.8230   23.2900   37.9180 C   0  0  0  0  0  0  0  0  0  0  0  0
   38.1690   23.5800   36.7110 C   0  0  0  0  0  0  0  0  0  0  0  0
   38.7120   23.2480   35.4900 C   0  0  0  0  0  0  0  0  0  0  0  0
   39.9000   22.6320   35.5190 N   0  0  0  0  0  0  0  0  0  0  0  0
   40.5710   22.3310   36.6630 C   0  0  0  0  0  0  0  0  0  0  0  0
   40.0140   22.6700   37.8600 N   0  0  0  0  0  0  0  0  0  0  0  0
   38.4160   23.5430   38.8750 H   0  0  0  0  0  0  0  0  0  0  0  0
   37.2250   24.0740   36.7780 H   0  0  0  0  0  0  0  0  0  0  0  0
   41.5170   21.8350   36.5210 H   0  0  0  0  0  0  0  0  0  0  0  0
   37.4800   26.3870   31.9270 C   0  0  0  0  0  0  0  0  0  0  0  0
   38.5020   26.8330   31.1250 C   0  0  0  0  0  0  0  0  0  0  0  0
   38.5450   28.0660   30.5140 C   0  0  0  0  0  0  0  0  0  0  0  0
   37.4690   28.9430   30.7200 C   0  0  0  0  0  0  0  0  0  0  0  0
   36.4650   28.4520   31.5340 C   0  0  0  0  0  0  0  0  0  0  0  0
   36.4820   27.2470   32.0950 N   0  0  0  0  0  0  0  0  0  0  0  0
   39.3610   26.1870   30.9360 H   0  0  0  0  0  0  0  0  0  0  0  0
   39.3700   28.3850   29.8880 H   0  0  0  0  0  0  0  0  0  0  0  0
   37.4420   29.9150   30.2750 H   0  0  0  0  0  0  0  0  0  0  0  0
   35.3210   29.3260   31.7790 C   0  0  0  0  0  0  0  0  0  0  0  0
   35.2030   30.5550   31.1390 C   0  0  0  0  0  3  0  0  0  0  0  0
   34.1180   31.3770   31.3750 C   0  0  0  0  0  0  0  0  0  0  0  0
   34.1180   32.3280   30.8200 H   0  0  0  0  0  0  0  0  0  0  0  0
   33.1340   31.0130   32.2370 N   0  0  0  0  0  0  0  0  0  0  0  0
   33.2690   29.8160   32.8470 C   0  0  0  0  0  3  0  0  0  0  0  0
   34.3240   29.0070   32.6230 N   0  0  0  0  0  0  0  0  0  0  0  0
   36.0020   21.7360   31.8150 C   0  0  0  0  0  0  0  0  0  0  0  0
   35.2950   22.2160   30.7620 F   0  0  0  0  0  0  0  0  0  0  0  0
   35.0830   21.1030   32.6450 F   0  0  0  0  0  0  0  0  0  0  0  0
   36.9220   20.8020   31.3260 F   0  0  0  0  0  0  0  0  0  0  0  0
  1 12  1  0  0  0  0
  2  9  1  0  0  0  0
  2  1  1  0  0  0  0
  3  2  2  0  0  0  0
  4  6  1  0  0  0  0
  4  3  1  0  0  0  0
  5  4  2  0  0  0  0
  6  7  1  0  0  0  0
  7  8  2  0  0  0  0
  7  1  1  0  0  0  0
 10 16  1  0  0  0  0
 11 17  1  0  0  0  0
 11 10  2  0  0  0  0
 12 13  2  0  0  0  0
 12 11  1  0  0  0  0
 13 14  1  0  0  0  0
 14 15  2  0  0  0  0
 15 10  1  0  0  0  0
 18 14  1  0  0  0  0
 19 24  1  0  0  0  0
 19  3  1  0  0  0  0
 20 19  2  0  0  0  0
 21 22  2  0  0  0  0
 21 20  1  0  0  0  0
 22 23  1  0  0  0  0
 23 28  1  0  0  0  0
 23 24  2  0  0  0  0
 25 20  1  0  0  0  0
 26 21  1  0  0  0  0
 27 22  1  0  0  0  0
 28 34  1  0  0  0  0
 29 30  1  0  0  0  0
 29 28  2  0  0  0  0
 30 32  2  0  0  0  0
 31 30  1  0  0  0  0
 32 33  1  0  0  0  0
 34 33  2  0  0  0  0
 35  6  1  0  0  0  0
 35 37  1  0  0  0  0
 36 35  1  0  0  0  0
 38 35  1  0  0  0  0
M  END
>  <minimizedAffinity>
-6.47136784

$$$$

 OpenBabel03272505333D

 38 41  0  0  0  0  0  0  0  0999 V2000
   37.2390   25.3170   32.4820 N   0  0  0  0  0  0  0  0  0  0  0  0
   37.9090   25.0200   33.6240 C   0  0  0  0  0  0  0  0  0  0  0  0
   37.9890   23.7270   34.1230 C   0  0  0  0  0  0  0  0  0  0  0  0
   37.3430   22.7110   33.4010 C   0  0  0  0  0  0  0  0  0  0  0  0
   37.3830   21.5290   33.8050 O   0  0  0  0  0  0  0  0  0  0  0  0
   36.6650   23.0210   32.2420 N   0  0  0  0  0  0  0  0  0  0  0  0
   36.6610   24.2970   31.8670 C   0  0  0  0  0  0  0  0  0  0  0  0
   36.0360   24.5320   30.8150 O   0  0  0  0  0  0  0  0  0  0  0  0
   38.4160   25.7890   34.1980 H   0  0  0  0  0  0  0  0  0  0  0  0
   37.9970   28.4110   30.5840 C   0  0  0  0  0  0  0  0  0  0  0  0
   38.0670   27.0980   31.0710 C   0  0  0  0  0  0  0  0  0  0  0  0
   37.1720   26.6160   31.9990 C   0  0  0  0  0  0  0  0  0  0  0  0
   36.2300   27.4720   32.4110 N   0  0  0  0  0  0  0  0  0  0  0  0
   36.1220   28.7540   31.9670 C   0  0  0  0  0  0  0  0  0  0  0  0
   37.0200   29.2080   31.0490 N   0  0  0  0  0  0  0  0  0  0  0  0
   38.6860   28.8030   29.8640 H   0  0  0  0  0  0  0  0  0  0  0  0
   38.8510   26.4810   30.6900 H   0  0  0  0  0  0  0  0  0  0  0  0
   35.3090   29.3180   32.3950 H   0  0  0  0  0  0  0  0  0  0  0  0
   38.6910   23.3570   35.3360 C   0  0  0  0  0  0  0  0  0  0  0  0
   38.2400   23.6650   36.5960 C   0  0  0  0  0  0  0  0  0  0  0  0
   38.8800   23.3280   37.7680 C   0  0  0  0  0  0  0  0  0  0  0  0
   40.0870   22.6170   37.6810 C   0  0  0  0  0  0  0  0  0  0  0  0
   40.5010   22.3300   36.3930 C   0  0  0  0  0  0  0  0  0  0  0  0
   39.8350   22.6840   35.2980 N   0  0  0  0  0  0  0  0  0  0  0  0
   37.3070   24.2170   36.7150 H   0  0  0  0  0  0  0  0  0  0  0  0
   38.4940   23.5900   38.7460 H   0  0  0  0  0  0  0  0  0  0  0  0
   40.6330   22.3260   38.5530 H   0  0  0  0  0  0  0  0  0  0  0  0
   41.7520   21.5900   36.2470 C   0  0  0  0  0  0  0  0  0  0  0  0
   42.1660   20.6780   37.2120 C   0  0  0  0  0  3  0  0  0  0  0  0
   43.3500   19.9810   37.0670 C   0  0  0  0  0  0  0  0  0  0  0  0
   43.5890   19.2830   37.8850 H   0  0  0  0  0  0  0  0  0  0  0  0
   44.1450   20.1630   35.9820 N   0  0  0  0  0  0  0  0  0  0  0  0
   43.7240   21.0520   35.0590 C   0  0  0  0  0  3  0  0  0  0  0  0
   42.5700   21.7370   35.1900 N   0  0  0  0  0  0  0  0  0  0  0  0
   36.0030   21.9770   31.5020 C   0  0  0  0  0  0  0  0  0  0  0  0
   35.1200   22.4970   30.6140 F   0  0  0  0  0  0  0  0  0  0  0  0
   35.2760   21.1100   32.3110 F   0  0  0  0  0  0  0  0  0  0  0  0
   36.9650   21.2600   30.7830 F   0  0  0  0  0  0  0  0  0  0  0  0
  1  2  1  0  0  0  0
  2  3  2  0  0  0  0
  2  9  1  0  0  0  0
  3 19  1  0  0  0  0
  4  5  2  0  0  0  0
  4  3  1  0  0  0  0
  6  4  1  0  0  0  0
  7  6  1  0  0  0  0
  7  1  1  0  0  0  0
  8  7  2  0  0  0  0
 10 15  2  0  0  0  0
 10 11  1  0  0  0  0
 11 12  2  0  0  0  0
 12 13  1  0  0  0  0
 12  1  1  0  0  0  0
 14 18  1  0  0  0  0
 14 13  2  0  0  0  0
 15 14  1  0  0  0  0
 16 10  1  0  0  0  0
 17 11  1  0  0  0  0
 19 20  1  0  0  0  0
 20 25  1  0  0  0  0
 20 21  2  0  0  0  0
 21 26  1  0  0  0  0
 22 21  1  0  0  0  0
 22 27  1  0  0  0  0
 23 22  2  0  0  0  0
 24 19  2  0  0  0  0
 24 23  1  0  0  0  0
 28 23  1  0  0  0  0
 28 29  1  0  0  0  0
 30 29  2  0  0  0  0
 30 31  1  0  0  0  0
 32 30  1  0  0  0  0
 33 34  1  0  0  0  0
 33 32  2  0  0  0  0
 34 28  2  0  0  0  0
 35  6  1  0  0  0  0
 35 37  1  0  0  0  0
 36 35  1  0  0  0  0
 38 35  1  0  0  0  0
M  END
>  <minimizedAffinity>
-6.23601627

$$$$

 OpenBabel03272505333D

 38 41  0  0  0  0  0  0  0  0999 V2000
   38.1120   23.5600   34.1870 N   0  0  0  0  0  0  0  0  0  0  0  0
   38.0590   24.8310   33.7150 C   0  0  0  0  0  0  0  0  0  0  0  0
   37.3310   25.1730   32.5840 C   0  0  0  0  0  0  0  0  0  0  0  0
   36.6350   24.1480   31.9250 C   0  0  0  0  0  0  0  0  0  0  0  0
   35.9630   24.4000   30.9010 O   0  0  0  0  0  0  0  0  0  0  0  0
   36.6940   22.8600   32.4110 N   0  0  0  0  0  0  0  0  0  0  0  0
   37.4260   22.6590   33.5020 C   0  0  0  0  0  0  0  0  0  0  0  0
   37.4520   21.4800   33.9070 O   0  0  0  0  0  0  0  0  0  0  0  0
   38.5890   25.6390   34.2080 H   0  0  0  0  0  0  0  0  0  0  0  0
   39.1020   23.1250   37.7340 C   0  0  0  0  0  0  0  0  0  0  0  0
   38.3590   23.4510   36.5900 C   0  0  0  0  0  0  0  0  0  0  0  0
   38.8460   23.2390   35.3200 C   0  0  0  0  0  0  0  0  0  0  0  0
   40.0690   22.7030   35.2380 N   0  0  0  0  0  0  0  0  0  0  0  0
   40.8270   22.3710   36.3180 C   0  0  0  0  0  0  0  0  0  0  0  0
   40.3240   22.5910   37.5650 N   0  0  0  0  0  0  0  0  0  0  0  0
   38.7400   23.2850   38.7290 H   0  0  0  0  0  0  0  0  0  0  0  0
   37.3920   23.8760   36.7450 H   0  0  0  0  0  0  0  0  0  0  0  0
   41.7910   21.9490   36.0870 H   0  0  0  0  0  0  0  0  0  0  0  0
   37.2410   26.5140   32.0390 C   0  0  0  0  0  0  0  0  0  0  0  0
   36.5090   27.5200   32.6190 C   0  0  0  0  0  0  0  0  0  0  0  0
   36.4030   28.8030   32.1310 C   0  0  0  0  0  0  0  0  0  0  0  0
   37.0910   29.1180   30.9480 C   0  0  0  0  0  0  0  0  0  0  0  0
   37.8130   28.0740   30.3990 C   0  0  0  0  0  0  0  0  0  0  0  0
   37.8760   26.8530   30.9230 N   0  0  0  0  0  0  0  0  0  0  0  0
   35.9570   27.3240   33.5400 H   0  0  0  0  0  0  0  0  0  0  0  0
   35.8150   29.5720   32.6170 H   0  0  0  0  0  0  0  0  0  0  0  0
   37.0500   30.0950   30.5150 H   0  0  0  0  0  0  0  0  0  0  0  0
   38.5480   28.3490   29.1680 C   0  0  0  0  0  0  0  0  0  0  0  0
   38.5000   29.6030   28.5660 C   0  0  0  0  0  3  0  0  0  0  0  0
   39.1980   29.8570   27.4000 C   0  0  0  0  0  0  0  0  0  0  0  0
   39.0960   30.8790   27.0030 H   0  0  0  0  0  0  0  0  0  0  0  0
   39.9510   28.8950   26.8070 N   0  0  0  0  0  0  0  0  0  0  0  0
   39.9820   27.6870   27.4090 C   0  0  0  0  0  3  0  0  0  0  0  0
   39.3050   27.4290   28.5450 N   0  0  0  0  0  0  0  0  0  0  0  0
   35.9790   21.8090   31.7330 C   0  0  0  0  0  0  0  0  0  0  0  0
   35.2570   22.3010   30.6970 F   0  0  0  0  0  0  0  0  0  0  0  0
   35.0750   21.1440   32.5550 F   0  0  0  0  0  0  0  0  0  0  0  0
   36.9070   20.8980   31.2160 F   0  0  0  0  0  0  0  0  0  0  0  0
  1 12  1  0  0  0  0
  2  1  1  0  0  0  0
  2  9  1  0  0  0  0
  3  2  2  0  0  0  0
  4  6  1  0  0  0  0
  4  3  1  0  0  0  0
  5  4  2  0  0  0  0
  6  7  1  0  0  0  0
  7  8  2  0  0  0  0
  7  1  1  0  0  0  0
 10 16  1  0  0  0  0
 11 17  1  0  0  0  0
 11 10  2  0  0  0  0
 12 11  1  0  0  0  0
 13 12  2  0  0  0  0
 13 14  1  0  0  0  0
 14 15  2  0  0  0  0
 15 10  1  0  0  0  0
 18 14  1  0  0  0  0
 19  3  1  0  0  0  0
 19 20  1  0  0  0  0
 20 25  1  0  0  0  0
 21 26  1  0  0  0  0
 21 20  2  0  0  0  0
 22 21  1  0  0  0  0
 23 24  1  0  0  0  0
 23 22  2  0  0  0  0
 24 19  2  0  0  0  0
 27 22  1  0  0  0  0
 28 23  1  0  0  0  0
 29 28  1  0  0  0  0
 30 29  2  0  0  0  0
 31 30  1  0  0  0  0
 32 30  1  0  0  0  0
 32 33  2  0  0  0  0
 33 34  1  0  0  0  0
 34 28  2  0  0  0  0
 35  6  1  0  0  0  0
 35 37  1  0  0  0  0
 36 35  1  0  0  0  0
 38 35  1  0  0  0  0
M  END
>  <minimizedAffinity>
-6.23130274

$$$$

 OpenBabel03272505333D

 38 41  0  0  0  0  0  0  0  0999 V2000
   38.0480   23.0480   34.7750 N   0  0  0  0  0  0  0  0  0  0  0  0
   38.5380   23.8740   33.8160 C   0  0  0  0  0  0  0  0  0  0  0  0
   38.2010   23.7370   32.4770 C   0  0  0  0  0  0  0  0  0  0  0  0
   37.3210   22.7000   32.1310 C   0  0  0  0  0  0  0  0  0  0  0  0
   36.9830   22.5320   30.9390 O   0  0  0  0  0  0  0  0  0  0  0  0
   36.8270   21.8670   33.1110 N   0  0  0  0  0  0  0  0  0  0  0  0
   37.2250   22.0990   34.3580 C   0  0  0  0  0  0  0  0  0  0  0  0
   36.7550   21.3220   35.2120 O   0  0  0  0  0  0  0  0  0  0  0  0
   39.2200   24.6820   34.0600 H   0  0  0  0  0  0  0  0  0  0  0  0
   39.9040   22.8170   37.9780 C   0  0  0  0  0  0  0  0  0  0  0  0
   39.5520   22.6600   36.6290 C   0  0  0  0  0  0  0  0  0  0  0  0
   38.3980   23.2020   36.1100 C   0  0  0  0  0  0  0  0  0  0  0  0
   37.6290   23.8870   36.9640 N   0  0  0  0  0  0  0  0  0  0  0  0
   37.9290   24.0660   38.2790 C   0  0  0  0  0  0  0  0  0  0  0  0
   39.0770   23.5200   38.7710 N   0  0  0  0  0  0  0  0  0  0  0  0
   40.7960   22.4020   38.3990 H   0  0  0  0  0  0  0  0  0  0  0  0
   40.2210   22.0980   36.0160 H   0  0  0  0  0  0  0  0  0  0  0  0
   37.2090   24.6410   38.8380 H   0  0  0  0  0  0  0  0  0  0  0  0
   38.6960   24.5910   31.4140 C   0  0  0  0  0  0  0  0  0  0  0  0
   39.7200   24.2350   30.5720 C   0  0  0  0  0  0  0  0  0  0  0  0
   40.2130   25.0180   29.5530 C   0  0  0  0  0  0  0  0  0  0  0  0
   39.6340   26.2810   29.3510 C   0  0  0  0  0  0  0  0  0  0  0  0
   38.6080   26.5960   30.2230 C   0  0  0  0  0  0  0  0  0  0  0  0
   38.1750   25.7920   31.1890 N   0  0  0  0  0  0  0  0  0  0  0  0
   40.2030   23.2630   30.6890 H   0  0  0  0  0  0  0  0  0  0  0  0
   41.0250   24.7040   28.9080 H   0  0  0  0  0  0  0  0  0  0  0  0
   39.9710   26.9390   28.5780 H   0  0  0  0  0  0  0  0  0  0  0  0
   37.9690   27.8990   30.0550 C   0  0  0  0  0  0  0  0  0  0  0  0
   38.1900   28.6680   28.9160 C   0  0  0  0  0  3  0  0  0  0  0  0
   37.5820   29.8990   28.7640 C   0  0  0  0  0  0  0  0  0  0  0  0
   37.8210   30.4290   27.8280 H   0  0  0  0  0  0  0  0  0  0  0  0
   36.7530   30.3980   29.7160 N   0  0  0  0  0  0  0  0  0  0  0  0
   36.5540   29.6350   30.8120 C   0  0  0  0  0  3  0  0  0  0  0  0
   37.1420   28.4320   30.9710 N   0  0  0  0  0  0  0  0  0  0  0  0
   35.9230   20.8030   32.7550 C   0  0  0  0  0  0  0  0  0  0  0  0
   34.9920   21.2330   31.8680 F   0  0  0  0  0  0  0  0  0  0  0  0
   35.2200   20.2960   33.8420 F   0  0  0  0  0  0  0  0  0  0  0  0
   36.6570   19.7790   32.1450 F   0  0  0  0  0  0  0  0  0  0  0  0
  1 12  1  0  0  0  0
  2  9  1  0  0  0  0
  2  1  1  0  0  0  0
  3  2  2  0  0  0  0
  4  3  1  0  0  0  0
  4  6  1  0  0  0  0
  5  4  2  0  0  0  0
  6  7  1  0  0  0  0
  7  1  1  0  0  0  0
  7  8  2  0  0  0  0
 10 16  1  0  0  0  0
 10 15  1  0  0  0  0
 11 10  2  0  0  0  0
 12 11  1  0  0  0  0
 12 13  2  0  0  0  0
 13 14  1  0  0  0  0
 14 15  2  0  0  0  0
 14 18  1  0  0  0  0
 17 11  1  0  0  0  0
 19  3  1  0  0  0  0
 20 25  1  0  0  0  0
 20 19  2  0  0  0  0
 21 20  1  0  0  0  0
 22 21  2  0  0  0  0
 22 23  1  0  0  0  0
 23 24  2  0  0  0  0
 24 19  1  0  0  0  0
 26 21  1  0  0  0  0
 27 22  1  0  0  0  0
 28 23  1  0  0  0  0
 28 34  1  0  0  0  0
 29 28  2  0  0  0  0
 30 29  1  0  0  0  0
 30 32  2  0  0  0  0
 31 30  1  0  0  0  0
 32 33  1  0  0  0  0
 33 34  2  0  0  0  0
 35  6  1  0  0  0  0
 35 37  1  0  0  0  0
 36 35  1  0  0  0  0
 38 35  1  0  0  0  0
M  END
>  <minimizedAffinity>
-6.08697844

$$$$

 OpenBabel03272505333D

 38 41  0  0  0  0  0  0  0  0999 V2000
   35.9840   29.2740   33.5460 N   0  0  0  0  0  0  0  0  0  0  0  0
   36.5060   28.0560   33.8390 C   0  0  0  0  0  0  0  0  0  0  0  0
   37.2270   27.3170   32.9120 C   0  0  0  0  0  0  0  0  0  0  0  0
   37.4070   27.8720   31.6360 C   0  0  0  0  0  0  0  0  0  0  0  0
   38.0500   27.2490   30.7630 O   0  0  0  0  0  0  0  0  0  0  0  0
   36.8740   29.1090   31.3480 N   0  0  0  0  0  0  0  0  0  0  0  0
   36.2030   29.7190   32.3190 C   0  0  0  0  0  0  0  0  0  0  0  0
   35.7370   30.8350   32.0160 O   0  0  0  0  0  0  0  0  0  0  0  0
   36.3790   27.6070   34.8180 H   0  0  0  0  0  0  0  0  0  0  0  0
   35.1440   31.6230   36.2910 C   0  0  0  0  0  0  0  0  0  0  0  0
   35.8720   30.8910   35.3410 C   0  0  0  0  0  0  0  0  0  0  0  0
   35.2650   29.9980   34.4880 C   0  0  0  0  0  0  0  0  0  0  0  0
   33.9400   29.8660   34.6150 N   0  0  0  0  0  0  0  0  0  0  0  0
   33.1920   30.5530   35.5210 C   0  0  0  0  0  0  0  0  0  0  0  0
   33.8160   31.4310   36.3560 N   0  0  0  0  0  0  0  0  0  0  0  0
   35.6000   32.3200   36.9630 H   0  0  0  0  0  0  0  0  0  0  0  0
   36.9270   31.0570   35.3070 H   0  0  0  0  0  0  0  0  0  0  0  0
   32.1370   30.3350   35.5000 H   0  0  0  0  0  0  0  0  0  0  0  0
   37.8050   26.0120   33.1730 C   0  0  0  0  0  0  0  0  0  0  0  0
   39.0340   25.8320   33.7580 C   0  0  0  0  0  0  0  0  0  0  0  0
   39.6120   24.6110   34.0210 C   0  0  0  0  0  0  0  0  0  0  0  0
   38.9010   23.4530   33.6670 C   0  0  0  0  0  0  0  0  0  0  0  0
   37.6700   23.6840   33.0800 C   0  0  0  0  0  0  0  0  0  0  0  0
   37.1660   24.8930   32.8540 N   0  0  0  0  0  0  0  0  0  0  0  0
   39.6260   26.7010   34.0510 H   0  0  0  0  0  0  0  0  0  0  0  0
   40.5860   24.5070   34.4850 H   0  0  0  0  0  0  0  0  0  0  0  0
   39.2930   22.4740   33.8430 H   0  0  0  0  0  0  0  0  0  0  0  0
   36.8880   22.5130   32.6940 C   0  0  0  0  0  0  0  0  0  0  0  0
   36.3230   22.4100   31.4260 C   0  0  0  0  0  3  0  0  0  0  0  0
   35.5850   21.2990   31.0670 C   0  0  0  0  0  0  0  0  0  0  0  0
   35.1800   21.3140   30.0420 H   0  0  0  0  0  0  0  0  0  0  0  0
   35.3880   20.2740   31.9350 N   0  0  0  0  0  0  0  0  0  0  0  0
   35.9450   20.3950   33.1580 C   0  0  0  0  0  3  0  0  0  0  0  0
   36.6670   21.4750   33.5190 N   0  0  0  0  0  0  0  0  0  0  0  0
   37.0600   29.6780   30.0370 C   0  0  0  0  0  0  0  0  0  0  0  0
   36.1800   30.6850   29.8160 F   0  0  0  0  0  0  0  0  0  0  0  0
   36.8670   28.7610   29.0100 F   0  0  0  0  0  0  0  0  0  0  0  0
   38.3510   30.2110   29.9600 F   0  0  0  0  0  0  0  0  0  0  0  0
  1  2  1  0  0  0  0
  1 12  1  0  0  0  0
  2  9  1  0  0  0  0
  3 19  1  0  0  0  0
  3  2  2  0  0  0  0
  4  3  1  0  0  0  0
  5  4  2  0  0  0  0
  6  4  1  0  0  0  0
  6  7  1  0  0  0  0
  7  1  1  0  0  0  0
  8  7  2  0  0  0  0
 10 15  1  0  0  0  0
 10 16  1  0  0  0  0
 11 10  2  0  0  0  0
 12 13  2  0  0  0  0
 12 11  1  0  0  0  0
 13 14  1  0  0  0  0
 14 15  2  0  0  0  0
 17 11  1  0  0  0  0
 18 14  1  0  0  0  0
 19 20  1  0  0  0  0
 20 21  2  0  0  0  0
 20 25  1  0  0  0  0
 21 26  1  0  0  0  0
 22 27  1  0  0  0  0
 22 21  1  0  0  0  0
 23 22  2  0  0  0  0
 24 23  1  0  0  0  0
 24 19  2  0  0  0  0
 28 23  1  0  0  0  0
 28 34  1  0  0  0  0
 29 28  2  0  0  0  0
 30 29  1  0  0  0  0
 30 32  2  0  0  0  0
 31 30  1  0  0  0  0
 32 33  1  0  0  0  0
 33 34  2  0  0  0  0
 35  6  1  0  0  0  0
 36 35  1  0  0  0  0
 37 35  1  0  0  0  0
 38 35  1  0  0  0  0
M  END
>  <minimizedAffinity>
-6.06838417

$$$$

 OpenBabel03272505333D

 38 41  0  0  0  0  0  0  0  0999 V2000
   36.4360   27.5950   32.8580 N   0  0  0  0  0  0  0  0  0  0  0  0
   36.6450   26.4920   32.0950 C   0  0  0  0  0  0  0  0  0  0  0  0
   37.4700   25.4540   32.5030 C   0  0  0  0  0  0  0  0  0  0  0  0
   38.0980   25.5740   33.7520 C   0  0  0  0  0  0  0  0  0  0  0  0
   38.8510   24.6670   34.1690 O   0  0  0  0  0  0  0  0  0  0  0  0
   37.8800   26.6970   34.5210 N   0  0  0  0  0  0  0  0  0  0  0  0
   37.0690   27.6240   34.0210 C   0  0  0  0  0  0  0  0  0  0  0  0
   36.9000   28.6220   34.7480 O   0  0  0  0  0  0  0  0  0  0  0  0
   36.1710   26.3770   31.1260 H   0  0  0  0  0  0  0  0  0  0  0  0
   35.1700   30.5830   31.0620 C   0  0  0  0  0  0  0  0  0  0  0  0
   36.0100   29.5440   31.4920 C   0  0  0  0  0  0  0  0  0  0  0  0
   35.6070   28.6230   32.4320 C   0  0  0  0  0  0  0  0  0  0  0  0
   34.3680   28.7730   32.9140 N   0  0  0  0  0  0  0  0  0  0  0  0
   33.5180   29.7630   32.5280 C   0  0  0  0  0  0  0  0  0  0  0  0
   33.9390   30.6640   31.5960 N   0  0  0  0  0  0  0  0  0  0  0  0
   35.4670   31.3080   30.3340 H   0  0  0  0  0  0  0  0  0  0  0  0
   36.9840   29.4980   31.0570 H   0  0  0  0  0  0  0  0  0  0  0  0
   32.5530   29.7500   33.0080 H   0  0  0  0  0  0  0  0  0  0  0  0
   37.7270   24.2550   31.7270 C   0  0  0  0  0  0  0  0  0  0  0  0
   38.6500   24.1930   30.7130 C   0  0  0  0  0  0  0  0  0  0  0  0
   38.9200   23.0740   29.9580 C   0  0  0  0  0  0  0  0  0  0  0  0
   38.2020   21.9010   30.2360 C   0  0  0  0  0  0  0  0  0  0  0  0
   37.2840   22.0110   31.2650 C   0  0  0  0  0  0  0  0  0  0  0  0
   37.0700   23.1250   31.9590 N   0  0  0  0  0  0  0  0  0  0  0  0
   39.2330   25.0800   30.4580 H   0  0  0  0  0  0  0  0  0  0  0  0
   39.6560   23.0630   29.1620 H   0  0  0  0  0  0  0  0  0  0  0  0
   38.3630   20.9980   29.6870 H   0  0  0  0  0  0  0  0  0  0  0  0
   36.5110   20.8170   31.5960 C   0  0  0  0  0  0  0  0  0  0  0  0
   37.1220   19.5730   31.7160 C   0  0  0  0  0  3  0  0  0  0  0  0
   36.3840   18.4470   32.0300 C   0  0  0  0  0  0  0  0  0  0  0  0
   36.9610   17.5120   32.1020 H   0  0  0  0  0  0  0  0  0  0  0  0
   35.0440   18.5190   32.2310 N   0  0  0  0  0  0  0  0  0  0  0  0
   34.4720   19.7350   32.1100 C   0  0  0  0  0  3  0  0  0  0  0  0
   35.1820   20.8390   31.8040 N   0  0  0  0  0  0  0  0  0  0  0  0
   38.5250   26.8200   35.8040 C   0  0  0  0  0  0  0  0  0  0  0  0
   38.2490   25.7510   36.5900 F   0  0  0  0  0  0  0  0  0  0  0  0
   38.1160   27.9420   36.5160 F   0  0  0  0  0  0  0  0  0  0  0  0
   39.9090   26.8630   35.6050 F   0  0  0  0  0  0  0  0  0  0  0  0
  1  7  1  0  0  0  0
  2  3  2  0  0  0  0
  2  1  1  0  0  0  0
  3  4  1  0  0  0  0
  4  5  2  0  0  0  0
  4  6  1  0  0  0  0
  6 35  1  0  0  0  0
  7  6  1  0  0  0  0
  7  8  2  0  0  0  0
  9  2  1  0  0  0  0
 10 11  2  0  0  0  0
 10 15  1  0  0  0  0
 11 12  1  0  0  0  0
 12  1  1  0  0  0  0
 12 13  2  0  0  0  0
 14 13  1  0  0  0  0
 14 18  1  0  0  0  0
 15 14  2  0  0  0  0
 16 10  1  0  0  0  0
 17 11  1  0  0  0  0
 19 24  1  0  0  0  0
 19  3  1  0  0  0  0
 20 19  2  0  0  0  0
 21 22  2  0  0  0  0
 21 20  1  0  0  0  0
 22 23  1  0  0  0  0
 23 28  1  0  0  0  0
 23 24  2  0  0  0  0
 25 20  1  0  0  0  0
 26 21  1  0  0  0  0
 27 22  1  0  0  0  0
 28 29  2  0  0  0  0
 28 34  1  0  0  0  0
 29 30  1  0  0  0  0
 30 31  1  0  0  0  0
 30 32  2  0  0  0  0
 33 32  1  0  0  0  0
 34 33  2  0  0  0  0
 35 37  1  0  0  0  0
 35 36  1  0  0  0  0
 38 35  1  0  0  0  0
M  END
>  <minimizedAffinity>
-5.96478653

$$$$
