
 OpenBabel03272510023D

 19 20  0  0  0  0  0  0  0  0999 V2000
   38.1320   32.8170   49.4340 C   0  0  0  0  0  0  0  0  0  0  0  0
   38.5100   32.6870   48.0870 C   0  0  0  0  0  0  0  0  0  0  0  0
   37.9680   31.6230   47.3810 C   0  0  0  0  0  0  0  0  0  0  0  0
   37.1160   30.7700   48.0000 N   0  0  0  0  0  0  0  0  0  0  0  0
   36.7780   30.9330   49.3000 C   0  0  0  0  0  0  0  0  0  0  0  0
   37.2820   31.9480   50.0090 N   0  0  0  0  0  0  0  0  0  0  0  0
   38.5320   33.6350   50.0210 H   0  0  0  0  0  0  0  0  0  0  0  0
   39.1950   33.3970   47.6410 H   0  0  0  0  0  0  0  0  0  0  0  0
   38.3200   31.4280   45.9780 C   0  0  0  0  0  0  0  0  0  0  0  0
   38.0480   32.4210   45.0590 C   0  0  0  0  0  3  0  0  0  0  0  0
   38.4060   32.1700   43.7500 C   0  0  0  0  0  0  0  0  0  0  0  0
   38.2060   32.9260   43.0170 H   0  0  0  0  0  0  0  0  0  0  0  0
   38.9890   31.0030   43.4370 N   0  0  0  0  0  0  0  0  0  0  0  0
   39.2570   30.0340   44.3160 C   0  0  0  0  0  3  0  0  0  0  0  0
   38.9050   30.2790   45.6040 N   0  0  0  0  0  0  0  0  0  0  0  0
   35.8380   29.9530   49.8990 C   0  0  0  0  0  0  0  0  0  0  0  0
   36.1100   29.7070   51.2390 F   0  0  0  0  0  0  0  0  0  0  0  0
   34.5330   30.4110   49.8370 F   0  0  0  0  0  0  0  0  0  0  0  0
   35.8390   28.7400   49.2500 F   0  0  0  0  0  0  0  0  0  0  0  0
  1  6  1  0  0  0  0
  1  7  1  0  0  0  0
  2  1  2  0  0  0  0
  3  4  2  0  0  0  0
  3  2  1  0  0  0  0
  4  5  1  0  0  0  0
  5 16  1  0  0  0  0
  5  6  2  0  0  0  0
  8  2  1  0  0  0  0
  9  3  1  0  0  0  0
 10  9  2  0  0  0  0
 11 10  1  0  0  0  0
 12 11  1  0  0  0  0
 13 11  2  0  0  0  0
 13 14  1  0  0  0  0
 14 15  2  0  0  0  0
 15  9  1  0  0  0  0
 16 17  1  0  0  0  0
 18 16  1  0  0  0  0
 19 16  1  0  0  0  0
M  END
>  <minimizedAffinity>
-5.19883966

>  <minimizedRMSD>
1.53606403

$$$$
