
 OpenBabel03272508083D

 22 23  0  0  0  0  0  0  0  0999 V2000
   39.1260   32.6560   48.0260 O   0  0  0  0  0  0  0  0  0  0  0  0
   38.6050   31.6630   47.0230 P   0  0  2  0  0  0  0  0  0  0  0  0
   37.5130   32.4430   45.9730 O   0  0  0  0  0  0  0  0  0  0  0  0
   37.4940   33.4140   46.1640 H   0  0  0  0  0  0  0  0  0  0  0  0
   37.9050   30.2860   47.6930 O   0  0  0  0  0  0  0  0  0  0  0  0
   37.3420   30.2090   51.3430 C   0  0  0  0  0  0  0  0  0  0  0  0
   38.0140   30.5160   50.1670 C   0  0  0  0  0  0  0  0  0  0  0  0
   37.4500   30.1110   48.9670 C   0  0  0  0  0  0  0  0  0  0  0  0
   36.2690   29.4330   49.0070 N   0  0  0  0  0  0  0  0  0  0  0  0
   35.6470   29.1540   50.1800 C   0  0  0  0  0  0  0  0  0  0  0  0
   36.1870   29.5430   51.3410 N   0  0  0  0  0  0  0  0  0  0  0  0
   37.8580   30.5650   52.2230 H   0  0  0  0  0  0  0  0  0  0  0  0
   38.9410   31.0410   50.0510 H   0  0  0  0  0  0  0  0  0  0  0  0
   34.7020   28.6110   50.2070 H   0  0  0  0  0  0  0  0  0  0  0  0
   39.9130   31.1910   46.0480 O   0  0  0  0  0  0  0  0  0  0  0  0
   39.8280   30.5290   44.8480 C   0  0  0  0  0  0  0  0  0  0  0  0
   38.9680   29.5290   44.4660 C   0  0  0  0  0  3  0  0  0  0  0  0
   39.0320   28.9760   43.1990 C   0  0  0  0  0  0  0  0  0  0  0  0
   38.3240   28.1840   42.9460 H   0  0  0  0  0  0  0  0  0  0  0  0
   39.9590   29.4240   42.3150 N   0  0  0  0  0  0  0  0  0  0  0  0
   40.7870   30.3980   42.7100 C   0  0  0  0  0  3  0  0  0  0  0  0
   40.7450   30.9590   43.9470 N   0  0  0  0  0  0  0  0  0  0  0  0
  2  5  1  0  0  0  0
  2  1  2  1  0  0  0
  3  4  1  0  0  0  0
  3  2  1  0  0  0  0
  5  8  1  0  0  0  0
  6 12  1  0  0  0  0
  7  6  2  0  0  0  0
  8  9  2  0  0  0  0
  8  7  1  0  0  0  0
  9 10  1  0  0  0  0
 10 14  1  0  0  0  0
 10 11  2  0  0  0  0
 11  6  1  0  0  0  0
 13  7  1  0  0  0  0
 15  2  1  0  0  0  0
 16 15  1  0  0  0  0
 17 16  1  0  0  0  0
 18 17  2  0  0  0  0
 19 18  1  0  0  0  0
 20 21  2  0  0  0  0
 20 18  1  0  0  0  0
 21 22  1  0  0  0  0
 22 16  2  0  0  0  0
M  END
>  <minimizedAffinity>
-5.12207556

>  <minimizedRMSD>
1.11486161

$$$$
