
 OpenBabel03272505433D

 22 23  0  0  0  0  0  0  0  0999 V2000
   32.4300   28.0760   49.1280 O   0  0  0  0  0  0  0  0  0  0  0  0
   33.8280   28.2160   48.5610 P   0  0  2  0  0  0  0  0  0  0  0  0
   34.0110   26.9550   47.4390 O   0  0  0  0  0  0  0  0  0  0  0  0
   33.9760   26.0760   47.9200 H   0  0  0  0  0  0  0  0  0  0  0  0
   34.9470   28.0780   49.8310 O   0  0  0  0  0  0  0  0  0  0  0  0
   37.3250   30.3560   51.4070 C   0  0  0  0  0  0  0  0  0  0  0  0
   38.0330   30.7910   50.2390 C   0  0  0  0  0  0  0  0  0  0  0  0
   37.6380   30.2670   49.0020 C   0  0  0  0  0  0  0  0  0  0  0  0
   36.6110   29.3810   48.9750 N   0  0  0  0  0  0  0  0  0  0  0  0
   35.9640   28.9900   50.0920 C   0  0  0  0  0  0  0  0  0  0  0  0
   36.3200   29.4760   51.3000 N   0  0  0  0  0  0  0  0  0  0  0  0
   37.6090   30.7440   52.3780 H   0  0  0  0  0  0  0  0  0  0  0  0
   38.8470   31.5050   50.3430 H   0  0  0  0  0  0  0  0  0  0  0  0
   38.1610   30.5830   48.1010 H   0  0  0  0  0  0  0  0  0  0  0  0
   33.9140   29.6750   47.7550 O   0  0  0  0  0  0  0  0  0  0  0  0
   34.0810   29.8670   46.3970 C   0  0  0  0  0  0  0  0  0  0  0  0
   35.1950   30.1990   45.6540 C   0  0  0  0  0  3  0  0  0  0  0  0
   35.0850   30.3290   44.2880 C   0  0  0  0  0  0  0  0  0  0  0  0
   36.0160   30.5940   43.7890 H   0  0  0  0  0  0  0  0  0  0  0  0
   33.9080   30.1350   43.7080 N   0  0  0  0  0  0  0  0  0  0  0  0
   32.8110   29.8130   44.3970 C   0  0  0  0  0  3  0  0  0  0  0  0
   32.9000   29.6800   45.7370 N   0  0  0  0  0  0  0  0  0  0  0  0
  2  1  2  1  0  0  0
  2  5  1  0  0  0  0
  3  4  1  0  0  0  0
  3  2  1  0  0  0  0
  5 10  1  0  0  0  0
  6 12  1  0  0  0  0
  7 13  1  0  0  0  0
  7  6  2  0  0  0  0
  8  7  1  0  0  0  0
  9  8  2  0  0  0  0
  9 10  1  0  0  0  0
 10 11  2  0  0  0  0
 11  6  1  0  0  0  0
 14  8  1  0  0  0  0
 15  2  1  0  0  0  0
 16 15  1  0  0  0  0
 17 16  2  0  0  0  0
 18 17  1  0  0  0  0
 19 18  1  0  0  0  0
 20 18  2  0  0  0  0
 20 21  1  0  0  0  0
 21 22  2  0  0  0  0
 22 16  1  0  0  0  0
M  END
>  <minimizedAffinity>
-4.09308004

>  <minimizedRMSD>
1.3366456

$$$$
