
 OpenBabel03272506073D

 28 30  0  0  0  0  0  0  0  0999 V2000
   37.0240   23.6850   31.2900 C   0  0  0  0  0  0  0  0  0  0  0  0
   37.1360   24.3710   30.4260 H   0  0  0  0  0  0  0  0  0  0  0  0
   37.7590   22.8600   31.1210 H   0  0  0  0  0  0  0  0  0  0  0  0
   37.3700   24.3960   32.5720 C   0  0  0  0  0  0  0  0  0  0  0  0
   37.2320   25.8420   32.6140 C   0  0  0  0  0  0  0  0  0  0  0  0
   37.7460   26.1760   34.2800 S   0  0  0  0  0  0  0  0  0  0  0  0
   38.0670   24.3730   34.6810 C   0  0  0  0  0  0  0  0  0  0  0  0
   37.7890   23.8130   33.6610 N   0  0  0  0  0  0  0  0  0  0  0  0
   36.9010   26.4660   31.8080 H   0  0  0  0  0  0  0  0  0  0  0  0
   38.5570   23.8940   36.0190 C   0  0  0  0  0  0  0  0  0  0  0  0
   37.7850   24.2680   37.0990 C   0  0  0  0  0  3  0  0  0  0  0  0
   38.2620   23.8130   38.3080 C   0  0  0  0  0  0  0  0  0  0  0  0
   37.6580   24.1020   39.1820 H   0  0  0  0  0  0  0  0  0  0  0  0
   39.3930   23.0680   38.3810 N   0  0  0  0  0  0  0  0  0  0  0  0
   40.0790   22.7530   37.2680 C   0  0  0  0  0  3  0  0  0  0  0  0
   39.6840   23.1590   36.0270 N   0  0  0  0  0  0  0  0  0  0  0  0
   35.6410   23.1100   31.3460 C   0  0  0  0  0  0  0  0  0  0  0  0
   34.9310   23.6390   31.9780 H   0  0  0  0  0  0  0  0  0  0  0  0
   35.2060   23.1110   30.3100 H   0  0  0  0  0  0  0  0  0  0  0  0
   36.1380   19.4360   31.1040 C   0  0  0  0  0  0  0  0  0  0  0  0
   35.8060   18.9940   32.4050 C   0  0  0  0  0  0  0  0  0  0  0  0
   35.4170   19.9640   33.3410 C   0  0  0  0  0  0  0  0  0  0  0  0
   35.3830   21.2610   32.9450 N   0  0  0  0  0  0  0  0  0  0  0  0
   35.7130   21.6330   31.6800 C   0  0  0  0  0  0  0  0  0  0  0  0
   36.0880   20.7480   30.7620 N   0  0  0  0  0  0  0  0  0  0  0  0
   36.4320   18.6800   30.4080 H   0  0  0  0  0  0  0  0  0  0  0  0
   35.8390   17.9730   32.6940 H   0  0  0  0  0  0  0  0  0  0  0  0
   35.1440   19.7350   34.3540 H   0  0  0  0  0  0  0  0  0  0  0  0
  1 17  1  0  0  0  0
  1  4  1  0  0  0  0
  2  1  1  0  0  0  0
  3  1  1  0  0  0  0
  4  5  2  0  0  0  0
  4  8  1  0  0  0  0
  5  6  1  0  0  0  0
  6  7  1  0  0  0  0
  7 10  1  0  0  0  0
  8  7  2  0  0  0  0
  9  5  1  0  0  0  0
 10 16  2  0  0  0  0
 10 11  1  0  0  0  0
 11 12  2  0  0  0  0
 12 14  1  0  0  0  0
 12 13  1  0  0  0  0
 15 14  2  0  0  0  0
 16 15  1  0  0  0  0
 17 24  1  0  0  0  0
 17 18  1  0  0  0  0
 19 17  1  0  0  0  0
 20 21  1  0  0  0  0
 21 27  1  0  0  0  0
 21 22  2  0  0  0  0
 22 28  1  0  0  0  0
 23 22  1  0  0  0  0
 24 23  2  0  0  0  0
 25 20  2  0  0  0  0
 25 24  1  0  0  0  0
 26 20  1  0  0  0  0
M  END
>  <minimizedAffinity>
-4.87807274

$$$$

 OpenBabel03272506073D

 28 30  0  0  0  0  0  0  0  0999 V2000
   38.3400   25.8510   34.0210 C   0  0  0  0  0  0  0  0  0  0  0  0
   39.3290   25.3500   34.0140 H   0  0  0  0  0  0  0  0  0  0  0  0
   38.5300   26.9070   33.7050 H   0  0  0  0  0  0  0  0  0  0  0  0
   37.4150   25.1990   33.0270 C   0  0  0  0  0  0  0  0  0  0  0  0
   36.5990   26.0560   32.1840 C   0  0  0  0  0  0  0  0  0  0  0  0
   35.7220   24.8440   31.2290 S   0  0  0  0  0  0  0  0  0  0  0  0
   36.5510   23.3890   32.0720 C   0  0  0  0  0  0  0  0  0  0  0  0
   37.2850   23.9120   32.8590 N   0  0  0  0  0  0  0  0  0  0  0  0
   36.5890   27.1270   32.1990 H   0  0  0  0  0  0  0  0  0  0  0  0
   36.2590   21.9550   31.7310 C   0  0  0  0  0  0  0  0  0  0  0  0
   35.1400   21.4200   32.3340 C   0  0  0  0  0  3  0  0  0  0  0  0
   34.9010   20.1060   31.9990 C   0  0  0  0  0  0  0  0  0  0  0  0
   34.0110   19.6620   32.4710 H   0  0  0  0  0  0  0  0  0  0  0  0
   35.7200   19.4380   31.1490 N   0  0  0  0  0  0  0  0  0  0  0  0
   36.7920   20.0480   30.6100 C   0  0  0  0  0  3  0  0  0  0  0  0
   37.1070   21.3470   30.8830 N   0  0  0  0  0  0  0  0  0  0  0  0
   37.7440   25.8480   35.3970 C   0  0  0  0  0  0  0  0  0  0  0  0
   37.7110   26.8110   35.9030 H   0  0  0  0  0  0  0  0  0  0  0  0
   36.6820   25.4880   35.3320 H   0  0  0  0  0  0  0  0  0  0  0  0
   38.5370   23.4810   38.1480 C   0  0  0  0  0  0  0  0  0  0  0  0
   39.7030   22.8370   37.6740 C   0  0  0  0  0  0  0  0  0  0  0  0
   40.1960   23.2280   36.4200 C   0  0  0  0  0  0  0  0  0  0  0  0
   39.5290   24.1930   35.7400 N   0  0  0  0  0  0  0  0  0  0  0  0
   38.4100   24.7800   36.2420 C   0  0  0  0  0  0  0  0  0  0  0  0
   37.9090   24.4410   37.4250 N   0  0  0  0  0  0  0  0  0  0  0  0
   38.1800   23.1670   39.1060 H   0  0  0  0  0  0  0  0  0  0  0  0
   40.2100   22.0830   38.2230 H   0  0  0  0  0  0  0  0  0  0  0  0
   41.0730   22.8030   35.9690 H   0  0  0  0  0  0  0  0  0  0  0  0
  1 17  1  0  0  0  0
  2  1  1  0  0  0  0
  3  1  1  0  0  0  0
  4  1  1  0  0  0  0
  5  9  1  0  0  0  0
  5  4  2  0  0  0  0
  6  7  1  0  0  0  0
  6  5  1  0  0  0  0
  7  8  2  0  0  0  0
  8  4  1  0  0  0  0
 10  7  1  0  0  0  0
 10 11  1  0  0  0  0
 12 11  2  0  0  0  0
 12 13  1  0  0  0  0
 14 12  1  0  0  0  0
 15 16  1  0  0  0  0
 15 14  2  0  0  0  0
 16 10  2  0  0  0  0
 17 18  1  0  0  0  0
 17 24  1  0  0  0  0
 19 17  1  0  0  0  0
 20 26  1  0  0  0  0
 21 20  1  0  0  0  0
 21 27  1  0  0  0  0
 22 21  2  0  0  0  0
 23 24  2  0  0  0  0
 23 22  1  0  0  0  0
 24 25  1  0  0  0  0
 25 20  2  0  0  0  0
 28 22  1  0  0  0  0
M  END
>  <minimizedAffinity>
-4.84047461

$$$$

 OpenBabel03272506073D

 28 30  0  0  0  0  0  0  0  0999 V2000
   38.6950   26.2590   34.5800 C   0  0  0  0  0  0  0  0  0  0  0  0
   39.6580   26.3910   34.0470 H   0  0  0  0  0  0  0  0  0  0  0  0
   38.8720   26.6180   35.6240 H   0  0  0  0  0  0  0  0  0  0  0  0
   37.6240   27.1060   33.9450 C   0  0  0  0  0  0  0  0  0  0  0  0
   37.3730   26.9440   32.5230 C   0  0  0  0  0  0  0  0  0  0  0  0
   36.0710   28.1260   32.2780 S   0  0  0  0  0  0  0  0  0  0  0  0
   36.0430   28.6620   34.0740 C   0  0  0  0  0  0  0  0  0  0  0  0
   36.8930   27.9850   34.5740 N   0  0  0  0  0  0  0  0  0  0  0  0
   37.8840   26.2680   31.8670 H   0  0  0  0  0  0  0  0  0  0  0  0
   35.1110   29.7100   34.6130 C   0  0  0  0  0  0  0  0  0  0  0  0
   35.7210   30.7750   35.2420 C   0  0  0  0  0  3  0  0  0  0  0  0
   34.8390   31.7170   35.7230 C   0  0  0  0  0  0  0  0  0  0  0  0
   35.3080   32.5750   36.2280 H   0  0  0  0  0  0  0  0  0  0  0  0
   33.5000   31.5680   35.5700 N   0  0  0  0  0  0  0  0  0  0  0  0
   32.9980   30.4900   34.9390 C   0  0  0  0  0  3  0  0  0  0  0  0
   33.7950   29.5060   34.4300 N   0  0  0  0  0  0  0  0  0  0  0  0
   38.2930   24.8150   34.6160 C   0  0  0  0  0  0  0  0  0  0  0  0
   37.2860   24.5930   34.2690 H   0  0  0  0  0  0  0  0  0  0  0  0
   38.9910   24.2280   33.9600 H   0  0  0  0  0  0  0  0  0  0  0  0
   39.7390   22.8680   37.4300 C   0  0  0  0  0  0  0  0  0  0  0  0
   38.9520   23.2830   38.5280 C   0  0  0  0  0  0  0  0  0  0  0  0
   37.9380   24.2220   38.2830 C   0  0  0  0  0  0  0  0  0  0  0  0
   37.7750   24.6740   37.0150 N   0  0  0  0  0  0  0  0  0  0  0  0
   38.5620   24.2420   35.9930 C   0  0  0  0  0  0  0  0  0  0  0  0
   39.5330   23.3540   36.1800 N   0  0  0  0  0  0  0  0  0  0  0  0
   40.5050   22.1520   37.6400 H   0  0  0  0  0  0  0  0  0  0  0  0
   39.0960   22.9150   39.5130 H   0  0  0  0  0  0  0  0  0  0  0  0
   37.2850   24.6010   39.0460 H   0  0  0  0  0  0  0  0  0  0  0  0
  1 17  1  0  0  0  0
  1  3  1  0  0  0  0
  2  1  1  0  0  0  0
  4  8  1  0  0  0  0
  4  1  1  0  0  0  0
  5  4  2  0  0  0  0
  6  5  1  0  0  0  0
  6  7  1  0  0  0  0
  7  8  2  0  0  0  0
  7 10  1  0  0  0  0
  9  5  1  0  0  0  0
 10 11  1  0  0  0  0
 11 12  2  0  0  0  0
 12 13  1  0  0  0  0
 14 12  1  0  0  0  0
 15 14  2  0  0  0  0
 16 10  2  0  0  0  0
 16 15  1  0  0  0  0
 17 24  1  0  0  0  0
 18 17  1  0  0  0  0
 19 17  1  0  0  0  0
 20 26  1  0  0  0  0
 20 21  1  0  0  0  0
 21 27  1  0  0  0  0
 22 21  2  0  0  0  0
 22 28  1  0  0  0  0
 23 22  1  0  0  0  0
 24 25  1  0  0  0  0
 24 23  2  0  0  0  0
 25 20  2  0  0  0  0
M  END
>  <minimizedAffinity>
-4.69473267

$$$$

 OpenBabel03272506073D

 28 30  0  0  0  0  0  0  0  0999 V2000
   38.6460   23.1720   33.6200 C   0  0  0  0  0  0  0  0  0  0  0  0
   39.3180   22.6270   32.9270 H   0  0  0  0  0  0  0  0  0  0  0  0
   39.3020   23.8780   34.1880 H   0  0  0  0  0  0  0  0  0  0  0  0
   37.6260   23.9630   32.8460 C   0  0  0  0  0  0  0  0  0  0  0  0
   36.6680   23.2360   32.0300 C   0  0  0  0  0  0  0  0  0  0  0  0
   35.7260   24.5780   31.3490 S   0  0  0  0  0  0  0  0  0  0  0  0
   36.7230   25.8980   32.2320 C   0  0  0  0  0  0  0  0  0  0  0  0
   37.5300   25.2640   32.8470 N   0  0  0  0  0  0  0  0  0  0  0  0
   36.6140   22.1720   31.9220 H   0  0  0  0  0  0  0  0  0  0  0  0
   36.4510   27.3700   32.1000 C   0  0  0  0  0  0  0  0  0  0  0  0
   36.5020   27.8670   30.8140 C   0  0  0  0  0  3  0  0  0  0  0  0
   36.2480   29.2180   30.7290 C   0  0  0  0  0  0  0  0  0  0  0  0
   36.2840   29.6330   29.7100 H   0  0  0  0  0  0  0  0  0  0  0  0
   35.9770   29.9530   31.8370 N   0  0  0  0  0  0  0  0  0  0  0  0
   35.9500   29.3750   33.0520 C   0  0  0  0  0  3  0  0  0  0  0  0
   36.1890   28.0440   33.2340 N   0  0  0  0  0  0  0  0  0  0  0  0
   37.9860   22.2310   34.5820 C   0  0  0  0  0  0  0  0  0  0  0  0
   36.9150   22.0890   34.4490 H   0  0  0  0  0  0  0  0  0  0  0  0
   38.4560   21.2160   34.4770 H   0  0  0  0  0  0  0  0  0  0  0  0
   37.7900   23.5150   38.0620 C   0  0  0  0  0  0  0  0  0  0  0  0
   39.0950   23.2780   38.5520 C   0  0  0  0  0  0  0  0  0  0  0  0
   40.0170   22.6830   37.6800 C   0  0  0  0  0  0  0  0  0  0  0  0
   39.6070   22.3710   36.4250 N   0  0  0  0  0  0  0  0  0  0  0  0
   38.3380   22.6210   36.0040 C   0  0  0  0  0  0  0  0  0  0  0  0
   37.4310   23.1830   36.7970 N   0  0  0  0  0  0  0  0  0  0  0  0
   37.1040   23.9700   38.7450 H   0  0  0  0  0  0  0  0  0  0  0  0
   39.3950   23.5300   39.5390 H   0  0  0  0  0  0  0  0  0  0  0  0
   41.0320   22.4600   37.9520 H   0  0  0  0  0  0  0  0  0  0  0  0
  1  3  1  0  0  0  0
  1 17  1  0  0  0  0
  2  1  1  0  0  0  0
  4  8  1  0  0  0  0
  4  1  1  0  0  0  0
  5  4  2  0  0  0  0
  6  5  1  0  0  0  0
  6  7  1  0  0  0  0
  7  8  2  0  0  0  0
  9  5  1  0  0  0  0
 10  7  1  0  0  0  0
 10 16  1  0  0  0  0
 11 10  2  0  0  0  0
 12 11  1  0  0  0  0
 12 14  2  0  0  0  0
 13 12  1  0  0  0  0
 14 15  1  0  0  0  0
 15 16  2  0  0  0  0
 17 24  1  0  0  0  0
 18 17  1  0  0  0  0
 19 17  1  0  0  0  0
 20 21  1  0  0  0  0
 20 26  1  0  0  0  0
 21 27  1  0  0  0  0
 22 28  1  0  0  0  0
 22 21  2  0  0  0  0
 23 22  1  0  0  0  0
 24 23  2  0  0  0  0
 24 25  1  0  0  0  0
 25 20  2  0  0  0  0
M  END
>  <minimizedAffinity>
-4.67303371

$$$$

 OpenBabel03272506073D

 28 30  0  0  0  0  0  0  0  0999 V2000
   36.3490   28.5580   34.5170 C   0  0  0  0  0  0  0  0  0  0  0  0
   35.7050   28.5900   35.4190 H   0  0  0  0  0  0  0  0  0  0  0  0
   37.1560   29.3120   34.6920 H   0  0  0  0  0  0  0  0  0  0  0  0
   36.9720   27.1960   34.3670 C   0  0  0  0  0  0  0  0  0  0  0  0
   37.0110   26.6010   33.0420 C   0  0  0  0  0  0  0  0  0  0  0  0
   37.8120   25.0560   33.3950 S   0  0  0  0  0  0  0  0  0  0  0  0
   37.9810   25.4140   35.2270 C   0  0  0  0  0  0  0  0  0  0  0  0
   37.4870   26.4970   35.3410 N   0  0  0  0  0  0  0  0  0  0  0  0
   36.6330   27.0430   32.1420 H   0  0  0  0  0  0  0  0  0  0  0  0
   38.6150   24.4630   36.2040 C   0  0  0  0  0  0  0  0  0  0  0  0
   37.9930   24.3760   37.4320 C   0  0  0  0  0  3  0  0  0  0  0  0
   38.5980   23.4960   38.3010 C   0  0  0  0  0  0  0  0  0  0  0  0
   38.1160   23.4130   39.2870 H   0  0  0  0  0  0  0  0  0  0  0  0
   39.7050   22.8000   37.9390 N   0  0  0  0  0  0  0  0  0  0  0  0
   40.2400   22.9540   36.7140 C   0  0  0  0  0  3  0  0  0  0  0  0
   39.7090   23.8020   35.7860 N   0  0  0  0  0  0  0  0  0  0  0  0
   35.5760   28.9390   33.2900 C   0  0  0  0  0  0  0  0  0  0  0  0
   36.0720   29.6300   32.6110 H   0  0  0  0  0  0  0  0  0  0  0  0
   35.3600   28.0110   32.6950 H   0  0  0  0  0  0  0  0  0  0  0  0
   32.7290   30.4000   35.1760 C   0  0  0  0  0  0  0  0  0  0  0  0
   31.6490   30.2410   34.2770 C   0  0  0  0  0  0  0  0  0  0  0  0
   31.9180   29.6350   33.0410 C   0  0  0  0  0  0  0  0  0  0  0  0
   33.1900   29.2400   32.7820 N   0  0  0  0  0  0  0  0  0  0  0  0
   34.1920   29.4170   33.6830 C   0  0  0  0  0  0  0  0  0  0  0  0
   33.9830   29.9860   34.8660 N   0  0  0  0  0  0  0  0  0  0  0  0
   32.5000   30.8640   36.1120 H   0  0  0  0  0  0  0  0  0  0  0  0
   30.6610   30.5570   34.5010 H   0  0  0  0  0  0  0  0  0  0  0  0
   31.1710   29.4670   32.2890 H   0  0  0  0  0  0  0  0  0  0  0  0
  1  3  1  0  0  0  0
  1  2  1  0  0  0  0
  4  1  1  0  0  0  0
  4  8  1  0  0  0  0
  5  6  1  0  0  0  0
  5  4  2  0  0  0  0
  6  7  1  0  0  0  0
  7  8  2  0  0  0  0
  7 10  1  0  0  0  0
  9  5  1  0  0  0  0
 10 11  1  0  0  0  0
 11 12  2  0  0  0  0
 12 13  1  0  0  0  0
 14 12  1  0  0  0  0
 15 14  2  0  0  0  0
 16 10  2  0  0  0  0
 16 15  1  0  0  0  0
 17 24  1  0  0  0  0
 17  1  1  0  0  0  0
 18 17  1  0  0  0  0
 19 17  1  0  0  0  0
 20 26  1  0  0  0  0
 21 27  1  0  0  0  0
 21 20  2  0  0  0  0
 22 21  1  0  0  0  0
 23 22  2  0  0  0  0
 23 24  1  0  0  0  0
 24 25  2  0  0  0  0
 25 20  1  0  0  0  0
 28 22  1  0  0  0  0
M  END
>  <minimizedAffinity>
-4.67196894

$$$$

 OpenBabel03272506073D

 28 30  0  0  0  0  0  0  0  0999 V2000
   38.6540   26.7530   35.0380 C   0  0  0  0  0  0  0  0  0  0  0  0
   39.6190   27.2700   34.8660 H   0  0  0  0  0  0  0  0  0  0  0  0
   38.4130   26.9090   36.1180 H   0  0  0  0  0  0  0  0  0  0  0  0
   37.5690   27.3740   34.1970 C   0  0  0  0  0  0  0  0  0  0  0  0
   37.4810   26.9920   32.7990 C   0  0  0  0  0  0  0  0  0  0  0  0
   36.0940   27.9680   32.2750 S   0  0  0  0  0  0  0  0  0  0  0  0
   35.8310   28.7370   33.9640 C   0  0  0  0  0  0  0  0  0  0  0  0
   36.6920   28.2380   34.6280 N   0  0  0  0  0  0  0  0  0  0  0  0
   38.1230   26.2970   32.2940 H   0  0  0  0  0  0  0  0  0  0  0  0
   34.7450   29.7320   34.2640 C   0  0  0  0  0  0  0  0  0  0  0  0
   33.5590   29.5320   33.5880 C   0  0  0  0  0  3  0  0  0  0  0  0
   32.5860   30.4600   33.8860 C   0  0  0  0  0  0  0  0  0  0  0  0
   31.6320   30.3170   33.3560 H   0  0  0  0  0  0  0  0  0  0  0  0
   32.8180   31.4630   34.7690 N   0  0  0  0  0  0  0  0  0  0  0  0
   34.0120   31.5740   35.3800 C   0  0  0  0  0  3  0  0  0  0  0  0
   35.0350   30.7020   35.1480 N   0  0  0  0  0  0  0  0  0  0  0  0
   38.7740   25.2830   34.7670 C   0  0  0  0  0  0  0  0  0  0  0  0
   38.0350   24.8630   34.0880 H   0  0  0  0  0  0  0  0  0  0  0  0
   39.7780   25.0800   34.3070 H   0  0  0  0  0  0  0  0  0  0  0  0
   39.7380   22.8760   37.4270 C   0  0  0  0  0  0  0  0  0  0  0  0
   38.8750   23.2310   38.4900 C   0  0  0  0  0  0  0  0  0  0  0  0
   37.9790   24.2880   38.2740 C   0  0  0  0  0  0  0  0  0  0  0  0
   37.9920   24.9050   37.0660 N   0  0  0  0  0  0  0  0  0  0  0  0
   38.8440   24.5240   36.0770 C   0  0  0  0  0  0  0  0  0  0  0  0
   39.7090   23.5280   36.2380 N   0  0  0  0  0  0  0  0  0  0  0  0
   40.4120   22.0680   37.6150 H   0  0  0  0  0  0  0  0  0  0  0  0
   38.8820   22.7340   39.4280 H   0  0  0  0  0  0  0  0  0  0  0  0
   37.2830   24.6350   39.0140 H   0  0  0  0  0  0  0  0  0  0  0  0
  1  3  1  0  0  0  0
  2  1  1  0  0  0  0
  4  8  1  0  0  0  0
  4  1  1  0  0  0  0
  5  4  2  0  0  0  0
  6  5  1  0  0  0  0
  6  7  1  0  0  0  0
  7 10  1  0  0  0  0
  7  8  2  0  0  0  0
  9  5  1  0  0  0  0
 10 16  1  0  0  0  0
 11 12  1  0  0  0  0
 11 10  2  0  0  0  0
 12 14  2  0  0  0  0
 13 12  1  0  0  0  0
 14 15  1  0  0  0  0
 16 15  2  0  0  0  0
 17  1  1  0  0  0  0
 17 24  1  0  0  0  0
 18 17  1  0  0  0  0
 19 17  1  0  0  0  0
 20 26  1  0  0  0  0
 20 21  1  0  0  0  0
 21 27  1  0  0  0  0
 22 21  2  0  0  0  0
 22 28  1  0  0  0  0
 23 22  1  0  0  0  0
 24 25  1  0  0  0  0
 24 23  2  0  0  0  0
 25 20  2  0  0  0  0
M  END
>  <minimizedAffinity>
-4.54152632

$$$$

 OpenBabel03272506073D

 28 30  0  0  0  0  0  0  0  0999 V2000
   36.4880   28.1430   33.6490 C   0  0  0  0  0  0  0  0  0  0  0  0
   35.8980   28.3750   34.5590 H   0  0  0  0  0  0  0  0  0  0  0  0
   37.3160   28.8940   33.6240 H   0  0  0  0  0  0  0  0  0  0  0  0
   37.0790   26.7610   33.7460 C   0  0  0  0  0  0  0  0  0  0  0  0
   37.1600   25.9630   32.5350 C   0  0  0  0  0  0  0  0  0  0  0  0
   37.9010   24.4780   33.1660 S   0  0  0  0  0  0  0  0  0  0  0  0
   37.9960   25.1180   34.9260 C   0  0  0  0  0  0  0  0  0  0  0  0
   37.5280   26.2150   34.8430 N   0  0  0  0  0  0  0  0  0  0  0  0
   36.8370   26.2650   31.5590 H   0  0  0  0  0  0  0  0  0  0  0  0
   38.5580   24.3210   36.0700 C   0  0  0  0  0  0  0  0  0  0  0  0
   37.8510   24.4050   37.2510 C   0  0  0  0  0  3  0  0  0  0  0  0
   38.3920   23.6630   38.2770 C   0  0  0  0  0  0  0  0  0  0  0  0
   37.8410   23.7180   39.2290 H   0  0  0  0  0  0  0  0  0  0  0  0
   39.5190   22.9310   38.0960 N   0  0  0  0  0  0  0  0  0  0  0  0
   40.1390   22.9120   36.9020 C   0  0  0  0  0  3  0  0  0  0  0  0
   39.6770   23.6150   35.8280 N   0  0  0  0  0  0  0  0  0  0  0  0
   35.6520   28.2890   32.4130 C   0  0  0  0  0  0  0  0  0  0  0  0
   35.5250   27.3890   31.8160 H   0  0  0  0  0  0  0  0  0  0  0  0
   34.6210   28.6210   32.7090 H   0  0  0  0  0  0  0  0  0  0  0  0
   36.6030   31.7050   31.3050 C   0  0  0  0  0  0  0  0  0  0  0  0
   37.0990   31.4790   30.0010 C   0  0  0  0  0  0  0  0  0  0  0  0
   37.0970   30.1590   29.5250 C   0  0  0  0  0  0  0  0  0  0  0  0
   36.6230   29.1840   30.3400 N   0  0  0  0  0  0  0  0  0  0  0  0
   36.1580   29.4560   31.5880 C   0  0  0  0  0  0  0  0  0  0  0  0
   36.1410   30.6910   32.0790 N   0  0  0  0  0  0  0  0  0  0  0  0
   36.6140   32.7190   31.6460 H   0  0  0  0  0  0  0  0  0  0  0  0
   37.4650   32.2580   29.3800 H   0  0  0  0  0  0  0  0  0  0  0  0
   37.4510   29.8800   28.5510 H   0  0  0  0  0  0  0  0  0  0  0  0
  1  4  1  0  0  0  0
  1  2  1  0  0  0  0
  3  1  1  0  0  0  0
  4  8  1  0  0  0  0
  5  6  1  0  0  0  0
  5  4  2  0  0  0  0
  6  7  1  0  0  0  0
  7 10  1  0  0  0  0
  8  7  2  0  0  0  0
  9  5  1  0  0  0  0
 10 11  1  0  0  0  0
 11 12  2  0  0  0  0
 12 13  1  0  0  0  0
 14 12  1  0  0  0  0
 15 14  2  0  0  0  0
 16 10  2  0  0  0  0
 16 15  1  0  0  0  0
 17 19  1  0  0  0  0
 17  1  1  0  0  0  0
 18 17  1  0  0  0  0
 20 26  1  0  0  0  0
 20 25  1  0  0  0  0
 21 20  2  0  0  0  0
 22 21  1  0  0  0  0
 22 23  2  0  0  0  0
 23 24  1  0  0  0  0
 24 25  2  0  0  0  0
 24 17  1  0  0  0  0
 27 21  1  0  0  0  0
 28 22  1  0  0  0  0
M  END
>  <minimizedAffinity>
-4.50270081

$$$$

 OpenBabel03272506073D

 28 30  0  0  0  0  0  0  0  0999 V2000
   37.5090   25.6730   31.7520 C   0  0  0  0  0  0  0  0  0  0  0  0
   37.9060   25.4250   30.7470 H   0  0  0  0  0  0  0  0  0  0  0  0
   36.4210   25.8840   31.6070 H   0  0  0  0  0  0  0  0  0  0  0  0
   37.6620   24.4960   32.6800 C   0  0  0  0  0  0  0  0  0  0  0  0
   37.4230   23.1660   32.1470 C   0  0  0  0  0  0  0  0  0  0  0  0
   37.7210   22.1730   33.5880 S   0  0  0  0  0  0  0  0  0  0  0  0
   38.1150   23.6440   34.6810 C   0  0  0  0  0  0  0  0  0  0  0  0
   37.9950   24.5750   33.9390 N   0  0  0  0  0  0  0  0  0  0  0  0
   37.1440   22.9330   31.1400 H   0  0  0  0  0  0  0  0  0  0  0  0
   38.4820   23.5250   36.1340 C   0  0  0  0  0  0  0  0  0  0  0  0
   37.6180   24.1430   37.0140 C   0  0  0  0  0  3  0  0  0  0  0  0
   37.9830   24.0140   38.3350 C   0  0  0  0  0  0  0  0  0  0  0  0
   37.3050   24.5010   39.0520 H   0  0  0  0  0  0  0  0  0  0  0  0
   39.1000   23.3320   38.6920 N   0  0  0  0  0  0  0  0  0  0  0  0
   39.8820   22.7620   37.7570 C   0  0  0  0  0  3  0  0  0  0  0  0
   39.6010   22.8370   36.4240 N   0  0  0  0  0  0  0  0  0  0  0  0
   38.1780   26.8930   32.3100 C   0  0  0  0  0  0  0  0  0  0  0  0
   38.8970   26.7180   33.1090 H   0  0  0  0  0  0  0  0  0  0  0  0
   38.7400   27.4080   31.4860 H   0  0  0  0  0  0  0  0  0  0  0  0
   35.7740   28.9500   34.2570 C   0  0  0  0  0  0  0  0  0  0  0  0
   35.2400   29.8130   33.2740 C   0  0  0  0  0  0  0  0  0  0  0  0
   35.7130   29.6730   31.9600 C   0  0  0  0  0  0  0  0  0  0  0  0
   36.6510   28.7240   31.7130 N   0  0  0  0  0  0  0  0  0  0  0  0
   37.1320   27.9190   32.6980 C   0  0  0  0  0  0  0  0  0  0  0  0
   36.7120   28.0170   33.9550 N   0  0  0  0  0  0  0  0  0  0  0  0
   35.3980   29.0750   35.2510 H   0  0  0  0  0  0  0  0  0  0  0  0
   34.5060   30.5490   33.4890 H   0  0  0  0  0  0  0  0  0  0  0  0
   35.3730   30.2770   31.1400 H   0  0  0  0  0  0  0  0  0  0  0  0
  1 17  1  0  0  0  0
  1  4  1  0  0  0  0
  2  1  1  0  0  0  0
  3  1  1  0  0  0  0
  4  8  1  0  0  0  0
  5  4  2  0  0  0  0
  5  6  1  0  0  0  0
  6  7  1  0  0  0  0
  7 10  1  0  0  0  0
  8  7  2  0  0  0  0
  9  5  1  0  0  0  0
 10 16  2  0  0  0  0
 10 11  1  0  0  0  0
 11 12  2  0  0  0  0
 12 14  1  0  0  0  0
 12 13  1  0  0  0  0
 15 14  2  0  0  0  0
 16 15  1  0  0  0  0
 17 24  1  0  0  0  0
 17 18  1  0  0  0  0
 19 17  1  0  0  0  0
 20 26  1  0  0  0  0
 21 27  1  0  0  0  0
 21 20  2  0  0  0  0
 22 21  1  0  0  0  0
 23 22  2  0  0  0  0
 23 24  1  0  0  0  0
 24 25  2  0  0  0  0
 25 20  1  0  0  0  0
 28 22  1  0  0  0  0
M  END
>  <minimizedAffinity>
-4.4878087

$$$$

 OpenBabel03272506073D

 28 30  0  0  0  0  0  0  0  0999 V2000
   38.1950   25.9580   35.9850 C   0  0  0  0  0  0  0  0  0  0  0  0
   39.2700   26.2300   36.0050 H   0  0  0  0  0  0  0  0  0  0  0  0
   37.7250   26.5070   36.8390 H   0  0  0  0  0  0  0  0  0  0  0  0
   37.5620   26.4160   34.6980 C   0  0  0  0  0  0  0  0  0  0  0  0
   37.5860   25.5110   33.5610 C   0  0  0  0  0  0  0  0  0  0  0  0
   36.7460   26.4900   32.3410 S   0  0  0  0  0  0  0  0  0  0  0  0
   36.4850   27.9430   33.4970 C   0  0  0  0  0  0  0  0  0  0  0  0
   36.9870   27.5730   34.5180 N   0  0  0  0  0  0  0  0  0  0  0  0
   38.0170   24.5310   33.5470 H   0  0  0  0  0  0  0  0  0  0  0  0
   35.7860   29.2110   33.0920 C   0  0  0  0  0  0  0  0  0  0  0  0
   35.5250   30.0940   34.1190 C   0  0  0  0  0  3  0  0  0  0  0  0
   34.8860   31.2440   33.7140 C   0  0  0  0  0  0  0  0  0  0  0  0
   34.6680   31.9620   34.5200 H   0  0  0  0  0  0  0  0  0  0  0  0
   34.5620   31.4470   32.4120 N   0  0  0  0  0  0  0  0  0  0  0  0
   34.8610   30.5230   31.4810 C   0  0  0  0  0  3  0  0  0  0  0  0
   35.4920   29.3540   31.7880 N   0  0  0  0  0  0  0  0  0  0  0  0
   38.0100   24.4830   36.1860 C   0  0  0  0  0  0  0  0  0  0  0  0
   37.3160   24.1940   36.9730 H   0  0  0  0  0  0  0  0  0  0  0  0
   37.6150   24.0350   35.2350 H   0  0  0  0  0  0  0  0  0  0  0  0
   41.5650   23.5140   35.7160 C   0  0  0  0  0  0  0  0  0  0  0  0
   41.7520   22.5330   36.7170 C   0  0  0  0  0  0  0  0  0  0  0  0
   40.6540   22.2220   37.5330 C   0  0  0  0  0  0  0  0  0  0  0  0
   39.4860   22.8760   37.3170 N   0  0  0  0  0  0  0  0  0  0  0  0
   39.3600   23.8130   36.3390 C   0  0  0  0  0  0  0  0  0  0  0  0
   40.3730   24.1390   35.5430 N   0  0  0  0  0  0  0  0  0  0  0  0
   42.4150   23.7350   35.1060 H   0  0  0  0  0  0  0  0  0  0  0  0
   42.6750   22.0330   36.8690 H   0  0  0  0  0  0  0  0  0  0  0  0
   40.6900   21.4930   38.3210 H   0  0  0  0  0  0  0  0  0  0  0  0
  1  2  1  0  0  0  0
  1 17  1  0  0  0  0
  1  3  1  0  0  0  0
  4  1  1  0  0  0  0
  5  4  2  0  0  0  0
  6  7  1  0  0  0  0
  6  5  1  0  0  0  0
  7  8  2  0  0  0  0
  8  4  1  0  0  0  0
  9  5  1  0  0  0  0
 10  7  1  0  0  0  0
 10 11  1  0  0  0  0
 12 11  2  0  0  0  0
 12 13  1  0  0  0  0
 14 12  1  0  0  0  0
 15 16  1  0  0  0  0
 15 14  2  0  0  0  0
 16 10  2  0  0  0  0
 17 24  1  0  0  0  0
 17 18  1  0  0  0  0
 19 17  1  0  0  0  0
 20 21  1  0  0  0  0
 21 27  1  0  0  0  0
 21 22  2  0  0  0  0
 22 28  1  0  0  0  0
 23 22  1  0  0  0  0
 24 23  2  0  0  0  0
 25 20  2  0  0  0  0
 25 24  1  0  0  0  0
 26 20  1  0  0  0  0
M  END
>  <minimizedAffinity>
-4.44600725

$$$$
