
 OpenBabel03272508023D

 26 28  0  0  0  0  0  0  0  0999 V2000
   38.9330   30.9210   45.8040 C   0  0  0  0  0  0  0  0  0  0  0  0
   40.1180   31.5480   46.0790 C   0  0  0  0  0  0  0  0  0  0  0  0
   40.9570   31.4900   44.9720 C   0  0  0  0  0  0  0  0  0  0  0  0
   40.2310   30.8150   44.0480 N   0  0  0  0  0  0  0  0  0  0  0  0
   39.0570   30.4870   44.5360 N   0  0  0  0  0  0  0  0  0  0  0  0
   40.3890   32.0250   47.0090 H   0  0  0  0  0  0  0  0  0  0  0  0
   41.9550   31.8710   44.8210 H   0  0  0  0  0  0  0  0  0  0  0  0
   37.7710   30.7440   46.6710 C   0  0  0  0  0  0  0  0  0  0  0  0
   37.9720   30.9490   48.0700 C   0  0  0  0  0  0  0  0  0  0  0  0
   36.8700   30.7820   48.9080 C   0  0  0  0  0  0  0  0  0  0  0  0
   35.6830   30.4380   48.3520 N   0  0  0  0  0  0  0  0  0  0  0  0
   35.5220   30.2510   47.0210 C   0  0  0  0  0  0  0  0  0  0  0  0
   36.5830   30.4090   46.2050 N   0  0  0  0  0  0  0  0  0  0  0  0
   38.9540   31.2210   48.4180 H   0  0  0  0  0  0  0  0  0  0  0  0
   34.5610   29.9760   46.6040 H   0  0  0  0  0  0  0  0  0  0  0  0
   37.0480   30.9900   50.3720 C   0  0  0  0  0  0  0  0  0  0  0  0
   36.5730   32.2560   50.6240 F   0  0  0  0  0  0  0  0  0  0  0  0
   36.3390   30.0770   51.1300 F   0  0  0  0  0  0  0  0  0  0  0  0
   38.3920   30.9740   50.7410 F   0  0  0  0  0  0  0  0  0  0  0  0
   40.5730   30.4520   42.7160 C   0  0  0  0  0  0  0  0  0  0  0  0
   40.0960   31.1990   41.6340 C   0  0  0  0  0  3  0  0  0  0  0  0
   40.3670   30.9310   40.3060 C   0  0  0  0  0  0  0  0  0  0  0  0
   39.9330   31.5910   39.5690 H   0  0  0  0  0  0  0  0  0  0  0  0
   41.1540   29.8650   40.0760 N   0  0  0  0  0  0  0  0  0  0  0  0
   41.6390   29.1150   41.0900 C   0  0  0  0  0  3  0  0  0  0  0  0
   41.3510   29.4070   42.3910 N   0  0  0  0  0  0  0  0  0  0  0  0
  1  2  1  0  0  0  0
  1  8  1  0  0  0  0
  2  6  1  0  0  0  0
  3  2  2  0  0  0  0
  4  5  1  0  0  0  0
  4  3  1  0  0  0  0
  5  1  2  0  0  0  0
  7  3  1  0  0  0  0
  8  9  1  0  0  0  0
  9 14  1  0  0  0  0
  9 10  2  0  0  0  0
 10 16  1  0  0  0  0
 11 10  1  0  0  0  0
 12 11  2  0  0  0  0
 13  8  2  0  0  0  0
 13 12  1  0  0  0  0
 15 12  1  0  0  0  0
 16 17  1  0  0  0  0
 16 19  1  0  0  0  0
 16 18  1  0  0  0  0
 20  4  1  0  0  0  0
 21 20  2  0  0  0  0
 22 21  1  0  0  0  0
 23 22  1  0  0  0  0
 24 22  2  0  0  0  0
 24 25  1  0  0  0  0
 25 26  2  0  0  0  0
 26 20  1  0  0  0  0
M  END
>  <minimizedAffinity>
-6.16309738

>  <minimizedRMSD>
0.993367374

$$$$
