
 OpenBabel03272505263D

 29 31  0  0  0  0  0  0  0  0999 V2000
   37.3960   31.0710   47.1440 N   0  0  0  0  0  0  0  0  0  0  0  0
   36.7930   30.7240   45.9730 C   0  0  0  0  0  0  0  0  0  0  0  0
   37.2490   31.1980   44.7520 C   0  0  0  0  0  0  0  0  0  0  0  0
   38.3570   32.0490   44.7610 C   0  0  0  0  0  0  0  0  0  0  0  0
   38.8040   32.4990   43.6810 O   0  0  0  0  0  0  0  0  0  0  0  0
   38.9590   32.3920   45.9430 N   0  0  0  0  0  0  0  0  0  0  0  0
   38.4340   31.8770   47.0560 C   0  0  0  0  0  0  0  0  0  0  0  0
   39.0060   32.2120   48.1110 O   0  0  0  0  0  0  0  0  0  0  0  0
   35.9380   30.0650   45.9990 H   0  0  0  0  0  0  0  0  0  0  0  0
   37.2950   29.5320   50.5260 C   0  0  0  0  0  0  0  0  0  0  0  0
   37.7710   30.0100   49.2960 C   0  0  0  0  0  0  0  0  0  0  0  0
   36.9260   30.5870   48.3670 C   0  0  0  0  0  0  0  0  0  0  0  0
   35.6040   30.6720   48.6960 N   0  0  0  0  0  0  0  0  0  0  0  0
   35.1190   30.2150   49.8800 C   0  0  0  0  0  0  0  0  0  0  0  0
   35.9560   29.6530   50.7830 N   0  0  0  0  0  0  0  0  0  0  0  0
   37.9090   29.0740   51.2880 H   0  0  0  0  0  0  0  0  0  0  0  0
   38.8130   29.8480   49.2160 H   0  0  0  0  0  0  0  0  0  0  0  0
   34.0690   30.2880   50.1300 H   0  0  0  0  0  0  0  0  0  0  0  0
   36.6450   30.8620   43.4710 C   0  0  0  0  0  0  0  0  0  0  0  0
   37.0000   29.7530   42.7390 C   0  0  0  0  0  0  0  0  0  0  0  0
   36.4300   29.4290   41.5240 C   0  0  0  0  0  0  0  0  0  0  0  0
   36.7420   28.5320   40.9690 H   0  0  0  0  0  0  0  0  0  0  0  0
   35.4750   30.2280   41.0090 N   0  0  0  0  0  0  0  0  0  0  0  0
   35.1380   31.3230   41.7500 C   0  0  0  0  0  0  0  0  0  0  0  0
   35.6930   31.6370   42.9350 N   0  0  0  0  0  0  0  0  0  0  0  0
   40.1030   33.2680   45.9420 C   0  0  0  0  0  0  0  0  0  0  0  0
   39.9730   34.2400   45.0060 F   0  0  0  0  0  0  0  0  0  0  0  0
   41.2950   32.6130   45.6710 F   0  0  0  0  0  0  0  0  0  0  0  0
   40.1920   33.8980   47.1950 F   0  0  0  0  0  0  0  0  0  0  0  0
  1 12  1  0  0  0  0
  2  9  1  0  0  0  0
  2  1  1  0  0  0  0
  3  4  1  0  0  0  0
  3  2  2  0  0  0  0
  4  6  1  0  0  0  0
  5  4  2  0  0  0  0
  6  7  1  0  0  0  0
  7  1  1  0  0  0  0
  7  8  2  0  0  0  0
 10 15  1  0  0  0  0
 10 16  1  0  0  0  0
 11 10  2  0  0  0  0
 12 13  2  0  0  0  0
 12 11  1  0  0  0  0
 13 14  1  0  0  0  0
 14 18  1  0  0  0  0
 14 15  2  0  0  0  0
 17 11  1  0  0  0  0
 19  3  1  0  0  0  0
 20 19  2  0  0  0  0
 21 20  1  0  0  0  0
 22 21  1  0  0  0  0
 23 21  2  0  0  0  0
 23 24  1  0  0  0  0
 24 25  2  0  0  0  0
 25 19  1  0  0  0  0
 26  6  1  0  0  0  0
 26 29  1  0  0  0  0
 27 26  1  0  0  0  0
 28 26  1  0  0  0  0
M  END
>  <minimizedAffinity>
-6.08858538

>  <minimizedRMSD>
0.323642612

$$$$
