
 OpenBabel03272507283D

 39 41  0  0  1  0  0  0  0  0999 V2000
   34.9630   29.9830   47.6920 C   0  0  0  0  0  0  0  0  0  0  0  0
   35.6390   30.4640   46.5500 C   0  0  0  0  0  0  0  0  0  0  0  0
   35.3760   29.8140   45.3430 C   0  0  0  0  0  0  0  0  0  0  0  0
   34.5130   28.7850   45.3250 N   0  0  0  0  0  0  0  0  0  0  0  0
   33.8860   28.3540   46.4360 C   0  0  0  0  0  0  0  0  0  0  0  0
   34.1110   28.9480   47.6040 N   0  0  0  0  0  0  0  0  0  0  0  0
   36.0060   30.2250   44.1710 N   0  0  0  0  0  0  0  0  0  0  0  0
   36.4120   31.6200   43.8450 C   0  0  0  0  0  0  0  0  0  0  0  0
   36.7960   31.6580   42.4190 C   0  0  0  0  0  0  0  0  0  0  0  0
   36.2150   30.4390   41.8680 C   0  0  0  0  0  0  0  0  0  0  0  0
   36.3990   29.5040   43.0040 C   0  0  2  0  0  0  0  0  0  0  0  0
   35.2430   30.5630   48.5780 H   0  0  0  0  0  0  0  0  0  0  0  0
   36.3300   31.2740   46.5230 H   0  0  0  0  0  0  0  0  0  0  0  0
   33.1860   27.5410   46.4940 H   0  0  0  0  0  0  0  0  0  0  0  0
   36.9690   32.1420   44.5820 H   0  0  0  0  0  0  0  0  0  0  0  0
   35.3640   32.1220   43.9470 H   0  0  0  0  0  0  0  0  0  0  0  0
   36.0620   32.4770   41.9760 H   0  0  0  0  0  0  0  0  0  0  0  0
   37.7040   32.0880   42.0830 H   0  0  0  0  0  0  0  0  0  0  0  0
   35.1380   30.5180   41.6120 H   0  0  0  0  0  0  0  0  0  0  0  0
   36.7270   30.0180   40.9770 H   0  0  0  0  0  0  0  0  0  0  0  0
   35.6020   28.2200   42.7520 C   0  0  0  0  0  0  0  0  0  0  0  0
   34.2640   28.5030   42.9230 F   0  0  0  0  0  0  0  0  0  0  0  0
   35.8890   27.1810   43.5870 F   0  0  0  0  0  0  0  0  0  0  0  0
   35.7740   27.9040   41.4230 F   0  0  0  0  0  0  0  0  0  0  0  0
   37.7620   29.0970   43.1780 C   0  0  2  0  0  0  0  0  0  0  0  0
   37.8680   28.3070   43.8870 H   0  0  0  0  0  0  0  0  0  0  0  0
   38.7610   30.0870   43.9080 C   0  0  0  0  0  0  0  0  0  0  0  0
   39.6320   30.9420   43.2450 C   0  0  0  0  0  3  0  0  0  0  0  0
   40.5050   31.7060   43.9790 C   0  0  0  0  0  0  0  0  0  0  0  0
   41.1350   32.3330   43.3610 H   0  0  0  0  0  0  0  0  0  0  0  0
   40.5340   31.6430   45.3140 N   0  0  0  0  0  0  0  0  0  0  0  0
   39.7080   30.8300   45.9830 C   0  0  0  0  0  3  0  0  0  0  0  0
   38.8790   30.1070   45.2540 N   0  0  0  0  0  0  0  0  0  0  0  0
   38.3030   29.0380   42.0450 O   0  0  0  0  0  0  0  0  0  0  0  0
   39.0510   28.2030   41.3070 C   0  0  0  0  0  0  0  0  0  0  0  0
   38.6310   28.1010   40.1530 O   0  0  0  0  0  0  0  0  0  0  0  0
   40.1700   27.3320   41.2200 N   0  0  0  0  0  0  0  0  0  0  0  0
   40.2230   26.3320   41.5300 H   0  0  0  0  0  0  0  0  0  0  0  0
   41.1060   27.6300   40.8110 H   0  0  0  0  0  0  0  0  0  0  0  0
  1 12  1  0  0  0  0
  2  1  2  0  0  0  0
  3  2  1  0  0  0  0
  4  3  2  0  0  0  0
  4  5  1  0  0  0  0
  5 14  1  0  0  0  0
  5  6  2  0  0  0  0
  6  1  1  0  0  0  0
  7  3  1  0  0  0  0
  8 16  1  0  0  0  0
  8  7  1  0  0  0  0
  8 15  1  0  0  0  0
  9  8  1  0  0  0  0
 10  9  1  0  0  0  0
 10 11  1  0  0  0  0
 11 21  1  6  0  0  0
 11 25  1  0  0  0  0
 11  7  1  0  0  0  0
 13  2  1  0  0  0  0
 17  9  1  0  0  0  0
 18  9  1  0  0  0  0
 19 10  1  0  0  0  0
 20 10  1  0  0  0  0
 21 22  1  0  0  0  0
 21 23  1  0  0  0  0
 24 21  1  0  0  0  0
 25 26  1  1  0  0  0
 25 27  1  0  0  0  0
 27 33  1  0  0  0  0
 28 27  2  0  0  0  0
 28 29  1  0  0  0  0
 29 31  2  0  0  0  0
 30 29  1  0  0  0  0
 31 32  1  0  0  0  0
 33 32  2  0  0  0  0
 34 25  1  0  0  0  0
 35 34  1  0  0  0  0
 36 35  2  0  0  0  0
 37 35  1  0  0  0  0
 37 38  1  0  0  0  0
 39 37  1  0  0  0  0
M  END
>  <minimizedAffinity>
-3.60563588

>  <minimizedRMSD>
3.39252353

$$$$
