
 OpenBabel03272510333D

 26 28  0  0  0  0  0  0  0  0999 V2000
   35.8580   30.1650   46.7910 C   0  0  0  0  0  0  0  0  0  0  0  0
   35.2170   30.1940   45.5810 C   0  0  0  0  0  0  0  0  0  0  0  0
   33.9970   29.5780   45.3880 C   0  0  0  0  0  0  0  0  0  0  0  0
   33.4270   28.9240   46.4490 C   0  0  0  0  0  0  0  0  0  0  0  0
   34.0430   28.8720   47.6900 C   0  0  0  0  0  0  0  0  0  0  0  0
   35.2710   29.5000   47.8580 C   0  0  0  0  0  0  0  0  0  0  0  0
   35.6420   30.7060   44.7120 H   0  0  0  0  0  0  0  0  0  0  0  0
   33.5080   29.6150   44.4190 H   0  0  0  0  0  0  0  0  0  0  0  0
   32.4710   28.4540   46.2570 H   0  0  0  0  0  0  0  0  0  0  0  0
   33.5540   28.3440   48.4950 H   0  0  0  0  0  0  0  0  0  0  0  0
   38.3720   32.5340   47.9200 C   0  0  0  0  0  0  0  0  0  0  0  0
   39.5150   32.2130   47.1880 C   0  0  0  0  0  0  0  0  0  0  0  0
   39.3990   31.1450   46.2810 C   0  0  0  0  0  0  0  0  0  0  0  0
   38.2120   30.5010   46.1700 N   0  0  0  0  0  0  0  0  0  0  0  0
   37.1410   30.8430   46.8940 C   0  0  0  0  0  0  0  0  0  0  0  0
   37.2260   31.8710   47.7770 N   0  0  0  0  0  0  0  0  0  0  0  0
   38.5120   33.3750   48.6160 H   0  0  0  0  0  0  0  0  0  0  0  0
   40.4770   32.6830   47.2320 H   0  0  0  0  0  0  0  0  0  0  0  0
   40.1980   30.7610   45.6250 H   0  0  0  0  0  0  0  0  0  0  0  0
   35.9530   29.4680   49.1480 C   0  0  0  0  0  0  0  0  0  0  0  0
   35.1860   29.5660   50.2910 C   0  0  0  0  0  3  0  0  0  0  0  0
   35.8130   29.5370   51.4970 C   0  0  0  0  0  0  0  0  0  0  0  0
   35.3640   29.6020   52.4880 H   0  0  0  0  0  0  0  0  0  0  0  0
   37.1400   29.4180   51.5850 N   0  0  0  0  0  0  0  0  0  0  0  0
   37.9230   29.3200   50.4700 C   0  0  0  0  0  3  0  0  0  0  0  0
   37.2690   29.3520   49.3080 N   0  0  0  0  0  0  0  0  0  0  0  0
  1 15  1  0  0  0  0
  1  6  1  0  0  0  0
  2  1  2  0  0  0  0
  3  2  1  0  0  0  0
  3  4  2  0  0  0  0
  4  5  1  0  0  0  0
  5  6  2  0  0  0  0
  5 10  1  0  0  0  0
  6 20  1  0  0  0  0
  7  2  1  0  0  0  0
  8  3  1  0  0  0  0
  9  4  1  0  0  0  0
 11 17  1  0  0  0  0
 12 18  1  0  0  0  0
 12 11  2  0  0  0  0
 13 12  1  0  0  0  0
 14 13  2  0  0  0  0
 14 15  1  0  0  0  0
 15 16  2  0  0  0  0
 16 11  1  0  0  0  0
 19 13  1  0  0  0  0
 20 26  2  0  0  0  0
 20 21  1  0  0  0  0
 21 22  2  0  0  0  0
 22 24  1  0  0  0  0
 22 23  1  0  0  0  0
 25 24  2  0  0  0  0
 26 25  1  0  0  0  0
M  END
>  <minimizedAffinity>
-4.59891176

>  <minimizedRMSD>
1.95615101

$$$$
