
 OpenBabel03262520323D

 21 22  0  0  0  0  0  0  0  0999 V2000
   34.5690   28.2080   49.5770 C   0  0  0  0  0  0  0  0  0  0  0  0
   34.3730   27.8000   48.3610 C   0  0  0  0  0  0  0  0  0  0  0  0
   37.1240   30.2030   51.3000 C   0  0  0  0  0  0  0  0  0  0  0  0
   37.8730   30.7240   50.2140 C   0  0  0  0  0  0  0  0  0  0  0  0
   37.4700   30.3690   48.9070 C   0  0  0  0  0  0  0  0  0  0  0  0
   36.3740   29.5370   48.7730 N   0  0  0  0  0  0  0  0  0  0  0  0
   35.7090   29.0780   49.8340 C   0  0  0  0  0  0  0  0  0  0  0  0
   36.0720   29.4010   51.0860 N   0  0  0  0  0  0  0  0  0  0  0  0
   37.4730   30.5040   52.2810 H   0  0  0  0  0  0  0  0  0  0  0  0
   38.7220   31.3700   50.3630 H   0  0  0  0  0  0  0  0  0  0  0  0
   37.9950   30.7310   48.0370 H   0  0  0  0  0  0  0  0  0  0  0  0
   33.2800   26.9160   47.8850 C   0  0  0  0  0  0  0  0  0  0  0  0
   33.2190   26.0740   48.6040 H   0  0  0  0  0  0  0  0  0  0  0  0
   33.5070   26.4870   46.9010 H   0  0  0  0  0  0  0  0  0  0  0  0
   31.9670   27.5650   47.8240 C   0  0  0  0  0  0  0  0  0  0  0  0
   30.9770   27.3640   48.7670 C   0  0  0  0  0  0  0  0  0  0  0  0
   29.7380   27.9770   48.7090 C   0  0  0  0  0  0  0  0  0  0  0  0
   28.9760   27.8040   49.4620 H   0  0  0  0  0  0  0  0  0  0  0  0
   29.5350   28.8040   47.6560 N   0  0  0  0  0  0  0  0  0  0  0  0
   30.5270   28.9880   46.7350 C   0  0  0  0  0  0  0  0  0  0  0  0
   31.7310   28.3930   46.7910 N   0  0  0  0  0  0  0  0  0  0  0  0
  1  7  1  0  0  0  0
  2  1  2  0  0  0  0
  3  9  1  0  0  0  0
  4 10  1  0  0  0  0
  4  3  2  0  0  0  0
  5  4  1  0  0  0  0
  6  5  2  0  0  0  0
  6  7  1  0  0  0  0
  7  8  2  0  0  0  0
  8  3  1  0  0  0  0
 11  5  1  0  0  0  0
 12  2  1  0  0  0  0
 12 13  1  0  0  0  0
 14 12  1  0  0  0  0
 15 12  1  0  0  0  0
 15 16  1  0  0  0  0
 17 16  2  0  0  0  0
 17 18  1  0  0  0  0
 19 17  1  0  0  0  0
 20 21  1  0  0  0  0
 20 19  2  0  0  0  0
 21 15  2  0  0  0  0
M  END
>  <minimizedAffinity>
-4.64716578

>  <minimizedRMSD>
2.12777281

$$$$
