
 OpenBabel03272507243D

 28 30  0  0  1  0  0  0  0  0999 V2000
   36.3930   24.2320   30.8970 C   0  0  0  0  0  0  0  0  0  0  0  0
   36.4340   25.1980   31.9200 C   0  0  0  0  0  0  0  0  0  0  0  0
   37.3240   24.9850   32.9680 C   0  0  0  0  0  0  0  0  0  0  0  0
   38.0730   23.8720   32.9180 N   0  0  0  0  0  0  0  0  0  0  0  0
   38.0370   22.9470   31.9420 C   0  0  0  0  0  0  0  0  0  0  0  0
   37.1850   23.1370   30.9260 N   0  0  0  0  0  0  0  0  0  0  0  0
   37.4500   25.8920   34.0560 N   0  0  0  0  0  0  0  0  0  0  0  0
   37.2500   27.3330   33.9210 C   0  0  0  0  0  0  0  0  0  0  0  0
   37.5670   27.8850   35.2950 C   0  0  0  0  0  0  0  0  0  0  0  0
   38.5400   26.8590   35.7950 C   0  0  0  0  0  0  0  0  0  0  0  0
   37.7740   25.5840   35.3980 C   0  0  2  0  0  0  0  0  0  0  0  0
   35.6720   24.4630   30.1050 H   0  0  0  0  0  0  0  0  0  0  0  0
   35.8110   26.0800   31.9190 H   0  0  0  0  0  0  0  0  0  0  0  0
   38.6400   22.0680   31.9170 H   0  0  0  0  0  0  0  0  0  0  0  0
   37.9730   27.7570   33.2110 H   0  0  0  0  0  0  0  0  0  0  0  0
   36.1990   27.5300   33.6480 H   0  0  0  0  0  0  0  0  0  0  0  0
   38.1040   28.8530   35.2380 H   0  0  0  0  0  0  0  0  0  0  0  0
   36.7030   27.8740   35.9780 H   0  0  0  0  0  0  0  0  0  0  0  0
   38.5750   26.8570   36.9070 H   0  0  0  0  0  0  0  0  0  0  0  0
   39.5240   26.8780   35.3180 H   0  0  0  0  0  0  0  0  0  0  0  0
   36.9020   25.4420   36.0340 H   0  0  0  0  0  0  0  0  0  0  0  0
   38.7410   24.4700   35.5760 C   0  0  0  0  0  0  0  0  0  0  0  0
   40.0900   24.6920   35.2950 C   0  0  0  0  0  3  0  0  0  0  0  0
   41.0510   23.7080   35.4310 C   0  0  0  0  0  0  0  0  0  0  0  0
   42.0850   23.9350   35.1990 H   0  0  0  0  0  0  0  0  0  0  0  0
   40.6480   22.5020   35.8510 N   0  0  0  0  0  0  0  0  0  0  0  0
   39.3400   22.2590   36.1320 C   0  0  0  0  0  3  0  0  0  0  0  0
   38.4120   23.2420   35.9900 N   0  0  0  0  0  0  0  0  0  0  0  0
  1  6  2  0  0  0  0
  1  2  1  0  0  0  0
  2  3  2  0  0  0  0
  3  7  1  0  0  0  0
  4  3  1  0  0  0  0
  5  4  2  0  0  0  0
  6  5  1  0  0  0  0
  7 11  1  0  0  0  0
  8  7  1  0  0  0  0
  8  9  1  0  0  0  0
  9 10  1  0  0  0  0
  9 18  1  0  0  0  0
 10 19  1  0  0  0  0
 11 22  1  0  0  0  0
 11 10  1  0  0  0  0
 11 21  1  1  0  0  0
 12  1  1  0  0  0  0
 13  2  1  0  0  0  0
 14  5  1  0  0  0  0
 15  8  1  0  0  0  0
 16  8  1  0  0  0  0
 17  9  1  0  0  0  0
 20 10  1  0  0  0  0
 22 28  1  0  0  0  0
 23 24  1  0  0  0  0
 23 22  2  0  0  0  0
 24 26  2  0  0  0  0
 25 24  1  0  0  0  0
 26 27  1  0  0  0  0
 28 27  2  0  0  0  0
M  END
>  <minimizedAffinity>
-4.49778748

$$$$

 OpenBabel03272507243D

 28 30  0  0  1  0  0  0  0  0999 V2000
   36.3780   22.5100   31.8360 C   0  0  0  0  0  0  0  0  0  0  0  0
   36.9920   23.7590   32.0470 C   0  0  0  0  0  0  0  0  0  0  0  0
   37.7320   23.9200   33.2140 C   0  0  0  0  0  0  0  0  0  0  0  0
   37.8000   22.8690   34.0460 N   0  0  0  0  0  0  0  0  0  0  0  0
   37.2170   21.6730   33.8470 C   0  0  0  0  0  0  0  0  0  0  0  0
   36.5000   21.5020   32.7290 N   0  0  0  0  0  0  0  0  0  0  0  0
   38.3930   25.1390   33.5340 N   0  0  0  0  0  0  0  0  0  0  0  0
   38.9470   26.0350   32.5220 C   0  0  0  0  0  0  0  0  0  0  0  0
   39.6150   27.1340   33.3210 C   0  0  0  0  0  0  0  0  0  0  0  0
   39.9650   26.3970   34.5800 C   0  0  0  0  0  0  0  0  0  0  0  0
   38.6250   25.6780   34.8200 C   0  0  2  0  0  0  0  0  0  0  0  0
   35.8130   22.4520   30.8980 H   0  0  0  0  0  0  0  0  0  0  0  0
   36.9090   24.5790   31.3490 H   0  0  0  0  0  0  0  0  0  0  0  0
   37.2810   20.8470   34.5180 H   0  0  0  0  0  0  0  0  0  0  0  0
   39.7230   25.5230   31.9370 H   0  0  0  0  0  0  0  0  0  0  0  0
   38.1250   26.4370   31.9040 H   0  0  0  0  0  0  0  0  0  0  0  0
   40.5640   27.4660   32.8550 H   0  0  0  0  0  0  0  0  0  0  0  0
   38.9260   27.9480   33.6020 H   0  0  0  0  0  0  0  0  0  0  0  0
   40.0860   27.1040   35.4300 H   0  0  0  0  0  0  0  0  0  0  0  0
   40.7780   25.6710   34.4830 H   0  0  0  0  0  0  0  0  0  0  0  0
   37.8600   26.3820   35.1400 H   0  0  0  0  0  0  0  0  0  0  0  0
   38.8990   24.6790   35.8850 C   0  0  0  0  0  0  0  0  0  0  0  0
   37.9770   24.5240   36.9220 C   0  0  0  0  0  3  0  0  0  0  0  0
   38.1600   23.6200   37.9520 C   0  0  0  0  0  0  0  0  0  0  0  0
   37.4120   23.5400   38.7330 H   0  0  0  0  0  0  0  0  0  0  0  0
   39.2720   22.8750   37.9330 N   0  0  0  0  0  0  0  0  0  0  0  0
   40.1860   23.0060   36.9340 C   0  0  0  0  0  3  0  0  0  0  0  0
   39.9860   23.9010   35.9320 N   0  0  0  0  0  0  0  0  0  0  0  0
  1  2  2  0  0  0  0
  1  6  1  0  0  0  0
  2  3  1  0  0  0  0
  3  7  1  0  0  0  0
  3  4  2  0  0  0  0
  5  4  1  0  0  0  0
  5 14  1  0  0  0  0
  6  5  2  0  0  0  0
  7 11  1  0  0  0  0
  8  9  1  0  0  0  0
  8  7  1  0  0  0  0
  9 18  1  0  0  0  0
  9 10  1  0  0  0  0
 10 11  1  0  0  0  0
 10 19  1  0  0  0  0
 11 21  1  1  0  0  0
 11 22  1  0  0  0  0
 12  1  1  0  0  0  0
 13  2  1  0  0  0  0
 15  8  1  0  0  0  0
 16  8  1  0  0  0  0
 17  9  1  0  0  0  0
 20 10  1  0  0  0  0
 22 28  2  0  0  0  0
 22 23  1  0  0  0  0
 23 24  2  0  0  0  0
 24 25  1  0  0  0  0
 26 24  1  0  0  0  0
 27 26  2  0  0  0  0
 28 27  1  0  0  0  0
M  END
>  <minimizedAffinity>
-4.48704243

$$$$

 OpenBabel03272507243D

 28 30  0  0  1  0  0  0  0  0999 V2000
   37.2080   22.5310   32.2070 C   0  0  0  0  0  0  0  0  0  0  0  0
   37.6820   23.3660   33.2350 C   0  0  0  0  0  0  0  0  0  0  0  0
   37.4310   24.7300   33.1210 C   0  0  0  0  0  0  0  0  0  0  0  0
   36.7550   25.1390   32.0350 N   0  0  0  0  0  0  0  0  0  0  0  0
   36.2990   24.3430   31.0510 C   0  0  0  0  0  0  0  0  0  0  0  0
   36.5330   23.0280   31.1450 N   0  0  0  0  0  0  0  0  0  0  0  0
   37.8640   25.6680   34.0980 N   0  0  0  0  0  0  0  0  0  0  0  0
   37.9700   25.3480   35.5200 C   0  0  0  0  0  0  0  0  0  0  0  0
   38.3800   26.6540   36.1670 C   0  0  0  0  0  0  0  0  0  0  0  0
   37.7830   27.6440   35.2110 C   0  0  0  0  0  0  0  0  0  0  0  0
   38.2500   27.0120   33.8860 C   0  0  2  0  0  0  0  0  0  0  0  0
   37.4390   21.4710   32.3610 H   0  0  0  0  0  0  0  0  0  0  0  0
   38.2220   22.9920   34.0920 H   0  0  0  0  0  0  0  0  0  0  0  0
   35.7630   24.6850   30.1940 H   0  0  0  0  0  0  0  0  0  0  0  0
   36.9910   25.0620   35.9250 H   0  0  0  0  0  0  0  0  0  0  0  0
   38.7470   24.5760   35.6600 H   0  0  0  0  0  0  0  0  0  0  0  0
   37.8860   26.8010   37.1490 H   0  0  0  0  0  0  0  0  0  0  0  0
   39.4690   26.8180   36.1670 H   0  0  0  0  0  0  0  0  0  0  0  0
   38.3070   28.6240   35.2800 H   0  0  0  0  0  0  0  0  0  0  0  0
   36.6920   27.7180   35.2370 H   0  0  0  0  0  0  0  0  0  0  0  0
   39.3220   27.1410   33.7530 H   0  0  0  0  0  0  0  0  0  0  0  0
   37.4980   27.7260   32.8220 C   0  0  0  0  0  0  0  0  0  0  0  0
   36.2150   28.2000   33.1000 C   0  0  0  0  0  3  0  0  0  0  0  0
   35.4500   28.8700   32.1640 C   0  0  0  0  0  0  0  0  0  0  0  0
   34.4580   29.2180   32.4330 H   0  0  0  0  0  0  0  0  0  0  0  0
   35.9820   29.0610   30.9500 N   0  0  0  0  0  0  0  0  0  0  0  0
   37.2300   28.6110   30.6540 C   0  0  0  0  0  3  0  0  0  0  0  0
   37.9640   27.9530   31.5890 N   0  0  0  0  0  0  0  0  0  0  0  0
  1 12  1  0  0  0  0
  1  2  1  0  0  0  0
  2 13  1  0  0  0  0
  3  2  2  0  0  0  0
  3  7  1  0  0  0  0
  4  3  1  0  0  0  0
  5  6  1  0  0  0  0
  5  4  2  0  0  0  0
  6  1  2  0  0  0  0
  7  8  1  0  0  0  0
  8 16  1  0  0  0  0
  8 15  1  0  0  0  0
  8  9  1  0  0  0  0
  9 17  1  0  0  0  0
 10 20  1  0  0  0  0
 10 19  1  0  0  0  0
 10  9  1  0  0  0  0
 11 21  1  6  0  0  0
 11  7  1  0  0  0  0
 11 10  1  0  0  0  0
 14  5  1  0  0  0  0
 18  9  1  0  0  0  0
 22 23  1  0  0  0  0
 22 11  1  0  0  0  0
 24 25  1  0  0  0  0
 24 23  2  0  0  0  0
 26 24  1  0  0  0  0
 27 26  2  0  0  0  0
 27 28  1  0  0  0  0
 28 22  2  0  0  0  0
M  END
>  <minimizedAffinity>
-4.46987438

$$$$

 OpenBabel03272507243D

 28 30  0  0  1  0  0  0  0  0999 V2000
   35.7970   20.7870   33.1500 C   0  0  0  0  0  0  0  0  0  0  0  0
   36.8450   21.6610   32.8040 C   0  0  0  0  0  0  0  0  0  0  0  0
   37.5950   22.2050   33.8420 C   0  0  0  0  0  0  0  0  0  0  0  0
   37.2570   21.8510   35.0920 N   0  0  0  0  0  0  0  0  0  0  0  0
   36.2570   21.0150   35.4270 C   0  0  0  0  0  0  0  0  0  0  0  0
   35.5250   20.4840   34.4400 N   0  0  0  0  0  0  0  0  0  0  0  0
   38.6750   23.1010   33.6120 N   0  0  0  0  0  0  0  0  0  0  0  0
   39.5270   23.0360   32.4270 C   0  0  0  0  0  0  0  0  0  0  0  0
   40.5700   24.1100   32.6570 C   0  0  0  0  0  0  0  0  0  0  0  0
   40.6140   24.1460   34.1550 C   0  0  0  0  0  0  0  0  0  0  0  0
   39.1020   24.1630   34.4430 C   0  0  2  0  0  0  0  0  0  0  0  0
   35.2490   20.3960   32.2850 H   0  0  0  0  0  0  0  0  0  0  0  0
   37.0810   21.9180   31.7820 H   0  0  0  0  0  0  0  0  0  0  0  0
   36.0020   20.7440   36.4260 H   0  0  0  0  0  0  0  0  0  0  0  0
   40.0440   22.0680   32.3770 H   0  0  0  0  0  0  0  0  0  0  0  0
   38.9200   23.2580   31.5310 H   0  0  0  0  0  0  0  0  0  0  0  0
   41.5710   23.7960   32.3000 H   0  0  0  0  0  0  0  0  0  0  0  0
   40.2480   25.1080   32.3170 H   0  0  0  0  0  0  0  0  0  0  0  0
   41.0020   25.1250   34.5150 H   0  0  0  0  0  0  0  0  0  0  0  0
   41.0850   23.2790   34.6280 H   0  0  0  0  0  0  0  0  0  0  0  0
   38.6680   25.1240   34.1760 H   0  0  0  0  0  0  0  0  0  0  0  0
   38.9750   23.9150   35.9020 C   0  0  0  0  0  0  0  0  0  0  0  0
   39.9140   23.1000   36.5360 C   0  0  0  0  0  3  0  0  0  0  0  0
   39.8640   22.8170   37.8880 C   0  0  0  0  0  0  0  0  0  0  0  0
   40.6200   22.1780   38.3300 H   0  0  0  0  0  0  0  0  0  0  0  0
   38.8660   23.3590   38.5980 N   0  0  0  0  0  0  0  0  0  0  0  0
   37.9380   24.1570   38.0050 C   0  0  0  0  0  3  0  0  0  0  0  0
   38.0070   24.4200   36.6740 N   0  0  0  0  0  0  0  0  0  0  0  0
  1  6  1  0  0  0  0
  2  1  2  0  0  0  0
  2  3  1  0  0  0  0
  3  4  2  0  0  0  0
  4  5  1  0  0  0  0
  5 14  1  0  0  0  0
  6  5  2  0  0  0  0
  7  3  1  0  0  0  0
  7 11  1  0  0  0  0
  8  9  1  0  0  0  0
  8  7  1  0  0  0  0
  9 10  1  0  0  0  0
 10 11  1  0  0  0  0
 10 19  1  0  0  0  0
 10 20  1  0  0  0  0
 11 21  1  6  0  0  0
 11 22  1  0  0  0  0
 12  1  1  0  0  0  0
 13  2  1  0  0  0  0
 15  8  1  0  0  0  0
 16  8  1  0  0  0  0
 17  9  1  0  0  0  0
 18  9  1  0  0  0  0
 22 23  2  0  0  0  0
 22 28  1  0  0  0  0
 23 24  1  0  0  0  0
 24 25  1  0  0  0  0
 24 26  2  0  0  0  0
 27 26  1  0  0  0  0
 28 27  2  0  0  0  0
M  END
>  <minimizedAffinity>
-4.41304874

$$$$

 OpenBabel03272507243D

 28 30  0  0  1  0  0  0  0  0999 V2000
   39.4310   24.3550   35.5760 C   0  0  0  0  0  0  0  0  0  0  0  0
   38.7450   24.8620   34.4570 C   0  0  0  0  0  0  0  0  0  0  0  0
   37.9440   23.9780   33.7420 C   0  0  0  0  0  0  0  0  0  0  0  0
   37.8900   22.7090   34.1790 N   0  0  0  0  0  0  0  0  0  0  0  0
   38.5430   22.2220   35.2490 C   0  0  0  0  0  0  0  0  0  0  0  0
   39.3200   23.0590   35.9480 N   0  0  0  0  0  0  0  0  0  0  0  0
   37.2060   24.3780   32.5930 N   0  0  0  0  0  0  0  0  0  0  0  0
   36.6560   25.7200   32.4260 C   0  0  0  0  0  0  0  0  0  0  0  0
   35.8960   25.6530   31.1180 C   0  0  0  0  0  0  0  0  0  0  0  0
   35.5250   24.2000   31.0810 C   0  0  0  0  0  0  0  0  0  0  0  0
   36.8870   23.5920   31.4620 C   0  0  2  0  0  0  0  0  0  0  0  0
   40.0430   25.1040   36.0930 H   0  0  0  0  0  0  0  0  0  0  0  0
   38.8190   25.8920   34.1410 H   0  0  0  0  0  0  0  0  0  0  0  0
   38.4890   21.2110   35.5840 H   0  0  0  0  0  0  0  0  0  0  0  0
   35.9350   25.9440   33.2240 H   0  0  0  0  0  0  0  0  0  0  0  0
   37.4840   26.4480   32.3660 H   0  0  0  0  0  0  0  0  0  0  0  0
   34.9540   26.2360   31.1570 H   0  0  0  0  0  0  0  0  0  0  0  0
   36.5270   25.8500   30.2370 H   0  0  0  0  0  0  0  0  0  0  0  0
   35.3270   23.8700   30.0360 H   0  0  0  0  0  0  0  0  0  0  0  0
   34.7560   23.8970   31.7970 H   0  0  0  0  0  0  0  0  0  0  0  0
   37.5990   23.6960   30.6450 H   0  0  0  0  0  0  0  0  0  0  0  0
   36.6140   22.1590   31.7430 C   0  0  0  0  0  0  0  0  0  0  0  0
   35.3540   21.7880   32.2140 C   0  0  0  0  0  3  0  0  0  0  0  0
   35.0230   20.4770   32.5030 C   0  0  0  0  0  0  0  0  0  0  0  0
   34.0290   20.2440   32.8660 H   0  0  0  0  0  0  0  0  0  0  0  0
   35.9640   19.5440   32.3140 N   0  0  0  0  0  0  0  0  0  0  0  0
   37.2000   19.8780   31.8560 C   0  0  0  0  0  3  0  0  0  0  0  0
   37.5040   21.1730   31.5790 N   0  0  0  0  0  0  0  0  0  0  0  0
  1  6  1  0  0  0  0
  1 12  1  0  0  0  0
  2  1  2  0  0  0  0
  3  4  2  0  0  0  0
  3  2  1  0  0  0  0
  4  5  1  0  0  0  0
  5 14  1  0  0  0  0
  5  6  2  0  0  0  0
  7  3  1  0  0  0  0
  8  7  1  0  0  0  0
  8 15  1  0  0  0  0
  9 17  1  0  0  0  0
  9  8  1  0  0  0  0
 10  9  1  0  0  0  0
 10 11  1  0  0  0  0
 10 20  1  0  0  0  0
 11 21  1  6  0  0  0
 11 22  1  0  0  0  0
 11  7  1  0  0  0  0
 13  2  1  0  0  0  0
 16  8  1  0  0  0  0
 18  9  1  0  0  0  0
 19 10  1  0  0  0  0
 22 23  1  0  0  0  0
 23 24  2  0  0  0  0
 24 25  1  0  0  0  0
 26 24  1  0  0  0  0
 27 26  2  0  0  0  0
 28 22  2  0  0  0  0
 28 27  1  0  0  0  0
M  END
>  <minimizedAffinity>
-4.39458084

$$$$

 OpenBabel03272507243D

 28 30  0  0  1  0  0  0  0  0999 V2000
   36.0040   22.7140   31.8170 C   0  0  0  0  0  0  0  0  0  0  0  0
   35.8040   24.0680   31.4880 C   0  0  0  0  0  0  0  0  0  0  0  0
   36.6130   25.0070   32.1190 C   0  0  0  0  0  0  0  0  0  0  0  0
   37.5220   24.5440   32.9920 N   0  0  0  0  0  0  0  0  0  0  0  0
   37.7170   23.2510   33.3080 C   0  0  0  0  0  0  0  0  0  0  0  0
   36.9450   22.3340   32.7100 N   0  0  0  0  0  0  0  0  0  0  0  0
   36.5000   26.4020   31.8660 N   0  0  0  0  0  0  0  0  0  0  0  0
   36.1010   26.9490   30.5720 C   0  0  0  0  0  0  0  0  0  0  0  0
   36.2010   28.4490   30.7520 C   0  0  0  0  0  0  0  0  0  0  0  0
   37.2660   28.5370   31.8050 C   0  0  0  0  0  0  0  0  0  0  0  0
   36.7390   27.4610   32.7730 C   0  0  2  0  0  0  0  0  0  0  0  0
   35.3330   22.0300   31.2830 H   0  0  0  0  0  0  0  0  0  0  0  0
   35.0580   24.3950   30.7780 H   0  0  0  0  0  0  0  0  0  0  0  0
   38.4440   22.8990   34.0040 H   0  0  0  0  0  0  0  0  0  0  0  0
   36.8150   26.6540   29.7920 H   0  0  0  0  0  0  0  0  0  0  0  0
   35.0610   26.6450   30.3540 H   0  0  0  0  0  0  0  0  0  0  0  0
   36.5900   28.9490   29.8430 H   0  0  0  0  0  0  0  0  0  0  0  0
   35.2880   28.8990   31.1740 H   0  0  0  0  0  0  0  0  0  0  0  0
   37.1960   29.5010   32.3570 H   0  0  0  0  0  0  0  0  0  0  0  0
   38.2760   28.2880   31.4680 H   0  0  0  0  0  0  0  0  0  0  0  0
   35.8430   27.8060   33.2840 H   0  0  0  0  0  0  0  0  0  0  0  0
   37.8410   27.2280   33.7410 C   0  0  0  0  0  0  0  0  0  0  0  0
   37.5390   27.1310   35.1010 C   0  0  0  0  0  3  0  0  0  0  0  0
   38.5070   26.9200   36.0650 C   0  0  0  0  0  0  0  0  0  0  0  0
   38.2170   26.8520   37.1080 H   0  0  0  0  0  0  0  0  0  0  0  0
   39.7770   26.8050   35.6550 N   0  0  0  0  0  0  0  0  0  0  0  0
   40.0970   26.8950   34.3370 C   0  0  0  0  0  3  0  0  0  0  0  0
   39.1300   27.1040   33.4060 N   0  0  0  0  0  0  0  0  0  0  0  0
  1  6  1  0  0  0  0
  2  1  2  0  0  0  0
  2  3  1  0  0  0  0
  3  4  2  0  0  0  0
  4  5  1  0  0  0  0
  5 14  1  0  0  0  0
  6  5  2  0  0  0  0
  7  3  1  0  0  0  0
  7 11  1  0  0  0  0
  8  9  1  0  0  0  0
  8  7  1  0  0  0  0
  9 18  1  0  0  0  0
  9 10  1  0  0  0  0
 10 19  1  0  0  0  0
 10 11  1  0  0  0  0
 11 21  1  1  0  0  0
 11 22  1  0  0  0  0
 12  1  1  0  0  0  0
 13  2  1  0  0  0  0
 15  8  1  0  0  0  0
 16  8  1  0  0  0  0
 17  9  1  0  0  0  0
 20 10  1  0  0  0  0
 22 23  1  0  0  0  0
 23 24  2  0  0  0  0
 24 25  1  0  0  0  0
 26 24  1  0  0  0  0
 27 26  2  0  0  0  0
 28 22  2  0  0  0  0
 28 27  1  0  0  0  0
M  END
>  <minimizedAffinity>
-4.39062357

$$$$

 OpenBabel03272507243D

 28 30  0  0  1  0  0  0  0  0999 V2000
   38.3790   26.6890   36.2590 C   0  0  0  0  0  0  0  0  0  0  0  0
   37.9910   27.4060   35.1120 C   0  0  0  0  0  0  0  0  0  0  0  0
   37.6300   26.6700   33.9880 C   0  0  0  0  0  0  0  0  0  0  0  0
   37.6810   25.3320   34.0890 N   0  0  0  0  0  0  0  0  0  0  0  0
   38.0500   24.6440   35.1840 C   0  0  0  0  0  0  0  0  0  0  0  0
   38.4020   25.3370   36.2750 N   0  0  0  0  0  0  0  0  0  0  0  0
   37.2230   27.2870   32.7730 N   0  0  0  0  0  0  0  0  0  0  0  0
   36.5100   28.5620   32.7250 C   0  0  0  0  0  0  0  0  0  0  0  0
   36.2190   28.7720   31.2540 C   0  0  0  0  0  0  0  0  0  0  0  0
   36.1560   27.3530   30.7720 C   0  0  0  0  0  0  0  0  0  0  0  0
   37.4220   26.8070   31.4580 C   0  0  2  0  0  0  0  0  0  0  0  0
   38.6490   27.3300   37.1070 H   0  0  0  0  0  0  0  0  0  0  0  0
   37.9650   28.4850   35.0760 H   0  0  0  0  0  0  0  0  0  0  0  0
   38.0850   23.5800   35.2490 H   0  0  0  0  0  0  0  0  0  0  0  0
   35.5500   28.4870   33.2520 H   0  0  0  0  0  0  0  0  0  0  0  0
   37.1660   29.3590   33.1170 H   0  0  0  0  0  0  0  0  0  0  0  0
   35.2200   29.2240   31.0910 H   0  0  0  0  0  0  0  0  0  0  0  0
   37.0440   29.2630   30.7120 H   0  0  0  0  0  0  0  0  0  0  0  0
   36.3560   27.2990   29.6780 H   0  0  0  0  0  0  0  0  0  0  0  0
   35.2740   26.7910   31.0920 H   0  0  0  0  0  0  0  0  0  0  0  0
   38.3190   27.2000   30.9830 H   0  0  0  0  0  0  0  0  0  0  0  0
   37.3480   25.3320   31.3040 C   0  0  0  0  0  0  0  0  0  0  0  0
   36.0990   24.7100   31.3120 C   0  0  0  0  0  3  0  0  0  0  0  0
   35.9460   23.3430   31.1800 C   0  0  0  0  0  0  0  0  0  0  0  0
   34.9510   22.9120   31.1920 H   0  0  0  0  0  0  0  0  0  0  0  0
   37.0550   22.6060   31.0380 N   0  0  0  0  0  0  0  0  0  0  0  0
   38.2840   23.1860   31.0260 C   0  0  0  0  0  3  0  0  0  0  0  0
   38.4110   24.5320   31.1600 N   0  0  0  0  0  0  0  0  0  0  0  0
  1  6  1  0  0  0  0
  1 12  1  0  0  0  0
  2  1  2  0  0  0  0
  3  4  2  0  0  0  0
  3  2  1  0  0  0  0
  4  5  1  0  0  0  0
  5 14  1  0  0  0  0
  5  6  2  0  0  0  0
  7  3  1  0  0  0  0
  8  7  1  0  0  0  0
  8 16  1  0  0  0  0
  8 15  1  0  0  0  0
  9  8  1  0  0  0  0
 10 20  1  0  0  0  0
 10  9  1  0  0  0  0
 10 11  1  0  0  0  0
 11 21  1  6  0  0  0
 11  7  1  0  0  0  0
 13  2  1  0  0  0  0
 17  9  1  0  0  0  0
 18  9  1  0  0  0  0
 19 10  1  0  0  0  0
 22 23  1  0  0  0  0
 22 11  1  0  0  0  0
 24 25  1  0  0  0  0
 24 23  2  0  0  0  0
 26 24  1  0  0  0  0
 27 26  2  0  0  0  0
 27 28  1  0  0  0  0
 28 22  2  0  0  0  0
M  END
>  <minimizedAffinity>
-4.31538534

$$$$

 OpenBabel03272507243D

 28 30  0  0  1  0  0  0  0  0999 V2000
   37.0620   27.2550   30.9830 C   0  0  0  0  0  0  0  0  0  0  0  0
   38.2980   27.4920   31.6120 C   0  0  0  0  0  0  0  0  0  0  0  0
   38.6670   26.6340   32.6430 C   0  0  0  0  0  0  0  0  0  0  0  0
   37.8110   25.6480   32.9560 N   0  0  0  0  0  0  0  0  0  0  0  0
   36.6290   25.4180   32.3550 C   0  0  0  0  0  0  0  0  0  0  0  0
   36.2590   26.2350   31.3610 N   0  0  0  0  0  0  0  0  0  0  0  0
   39.8920   26.7790   33.3520 N   0  0  0  0  0  0  0  0  0  0  0  0
   41.1130   27.2950   32.7380 C   0  0  0  0  0  0  0  0  0  0  0  0
   42.1560   27.1880   33.8310 C   0  0  0  0  0  0  0  0  0  0  0  0
   41.6170   26.0340   34.6230 C   0  0  0  0  0  0  0  0  0  0  0  0
   40.1420   26.4650   34.7080 C   0  0  2  0  0  0  0  0  0  0  0  0
   36.8350   27.9670   30.1800 H   0  0  0  0  0  0  0  0  0  0  0  0
   38.9560   28.3000   31.3270 H   0  0  0  0  0  0  0  0  0  0  0  0
   35.9610   24.6290   32.6150 H   0  0  0  0  0  0  0  0  0  0  0  0
   41.4280   26.6520   31.9060 H   0  0  0  0  0  0  0  0  0  0  0  0
   40.9540   28.3480   32.4450 H   0  0  0  0  0  0  0  0  0  0  0  0
   43.1440   26.8850   33.4310 H   0  0  0  0  0  0  0  0  0  0  0  0
   42.1750   28.0620   34.5020 H   0  0  0  0  0  0  0  0  0  0  0  0
   42.0010   26.0590   35.6680 H   0  0  0  0  0  0  0  0  0  0  0  0
   41.7040   25.0560   34.1400 H   0  0  0  0  0  0  0  0  0  0  0  0
   40.0240   27.3130   35.3790 H   0  0  0  0  0  0  0  0  0  0  0  0
   39.4130   25.2790   35.2280 C   0  0  0  0  0  0  0  0  0  0  0  0
   38.3970   25.4650   36.1670 C   0  0  0  0  0  3  0  0  0  0  0  0
   37.6760   24.4140   36.7020 C   0  0  0  0  0  0  0  0  0  0  0  0
   36.8960   24.6160   37.4280 H   0  0  0  0  0  0  0  0  0  0  0  0
   37.9800   23.1780   36.2870 N   0  0  0  0  0  0  0  0  0  0  0  0
   38.9650   22.9690   35.3730 C   0  0  0  0  0  3  0  0  0  0  0  0
   39.6630   24.0170   34.8610 N   0  0  0  0  0  0  0  0  0  0  0  0
  1  6  2  0  0  0  0
  1  2  1  0  0  0  0
  2  3  2  0  0  0  0
  3  4  1  0  0  0  0
  3  7  1  0  0  0  0
  5 14  1  0  0  0  0
  5  4  2  0  0  0  0
  6  5  1  0  0  0  0
  7 11  1  0  0  0  0
  8  7  1  0  0  0  0
  8  9  1  0  0  0  0
  9 18  1  0  0  0  0
  9 10  1  0  0  0  0
 10 11  1  0  0  0  0
 10 19  1  0  0  0  0
 11 22  1  0  0  0  0
 11 21  1  1  0  0  0
 12  1  1  0  0  0  0
 13  2  1  0  0  0  0
 15  8  1  0  0  0  0
 16  8  1  0  0  0  0
 17  9  1  0  0  0  0
 20 10  1  0  0  0  0
 22 23  1  0  0  0  0
 23 24  2  0  0  0  0
 24 25  1  0  0  0  0
 26 24  1  0  0  0  0
 27 26  2  0  0  0  0
 28 22  2  0  0  0  0
 28 27  1  0  0  0  0
M  END
>  <minimizedAffinity>
-4.26100588

$$$$

 OpenBabel03272507243D

 28 30  0  0  1  0  0  0  0  0999 V2000
   35.6860   22.2170   31.1760 C   0  0  0  0  0  0  0  0  0  0  0  0
   35.8750   23.6010   31.3480 C   0  0  0  0  0  0  0  0  0  0  0  0
   36.8060   24.0080   32.2990 C   0  0  0  0  0  0  0  0  0  0  0  0
   37.4490   23.0440   32.9770 N   0  0  0  0  0  0  0  0  0  0  0  0
   37.2720   21.7210   32.8140 C   0  0  0  0  0  0  0  0  0  0  0  0
   36.3790   21.3120   31.9040 N   0  0  0  0  0  0  0  0  0  0  0  0
   37.0780   25.3790   32.5600 N   0  0  0  0  0  0  0  0  0  0  0  0
   36.9990   26.4170   31.5350 C   0  0  0  0  0  0  0  0  0  0  0  0
   37.4470   27.6780   32.2440 C   0  0  0  0  0  0  0  0  0  0  0  0
   38.3550   27.1060   33.2920 C   0  0  0  0  0  0  0  0  0  0  0  0
   37.4560   25.9600   33.7920 C   0  0  2  0  0  0  0  0  0  0  0  0
   34.9400   21.9680   30.4120 H   0  0  0  0  0  0  0  0  0  0  0  0
   35.3330   24.3420   30.7790 H   0  0  0  0  0  0  0  0  0  0  0  0
   37.7920   20.9670   33.3610 H   0  0  0  0  0  0  0  0  0  0  0  0
   37.7110   26.2140   30.7240 H   0  0  0  0  0  0  0  0  0  0  0  0
   35.9540   26.5080   31.1900 H   0  0  0  0  0  0  0  0  0  0  0  0
   38.0630   28.3250   31.5870 H   0  0  0  0  0  0  0  0  0  0  0  0
   36.6290   28.1960   32.7700 H   0  0  0  0  0  0  0  0  0  0  0  0
   38.4580   27.8070   34.1500 H   0  0  0  0  0  0  0  0  0  0  0  0
   39.3060   26.7120   32.9210 H   0  0  0  0  0  0  0  0  0  0  0  0
   36.6160   26.3490   34.3650 H   0  0  0  0  0  0  0  0  0  0  0  0
   38.3300   25.1170   34.6480 C   0  0  0  0  0  0  0  0  0  0  0  0
   39.6800   24.9860   34.3170 C   0  0  0  0  0  3  0  0  0  0  0  0
   40.5570   24.2170   35.0590 C   0  0  0  0  0  0  0  0  0  0  0  0
   41.5960   24.1500   34.7570 H   0  0  0  0  0  0  0  0  0  0  0  0
   40.0710   23.5840   36.1330 N   0  0  0  0  0  0  0  0  0  0  0  0
   38.7610   23.6960   36.4790 C   0  0  0  0  0  3  0  0  0  0  0  0
   37.9150   24.4560   35.7340 N   0  0  0  0  0  0  0  0  0  0  0  0
  1  2  2  0  0  0  0
  1  6  1  0  0  0  0
  2  3  1  0  0  0  0
  3  7  1  0  0  0  0
  3  4  2  0  0  0  0
  5  4  1  0  0  0  0
  5 14  1  0  0  0  0
  6  5  2  0  0  0  0
  7 11  1  0  0  0  0
  8  9  1  0  0  0  0
  8  7  1  0  0  0  0
  9 18  1  0  0  0  0
  9 10  1  0  0  0  0
 10 11  1  0  0  0  0
 10 19  1  0  0  0  0
 11 21  1  1  0  0  0
 11 22  1  0  0  0  0
 12  1  1  0  0  0  0
 13  2  1  0  0  0  0
 15  8  1  0  0  0  0
 16  8  1  0  0  0  0
 17  9  1  0  0  0  0
 20 10  1  0  0  0  0
 22 28  1  0  0  0  0
 23 22  2  0  0  0  0
 23 24  1  0  0  0  0
 24 26  2  0  0  0  0
 25 24  1  0  0  0  0
 26 27  1  0  0  0  0
 28 27  2  0  0  0  0
M  END
>  <minimizedAffinity>
-4.24509144

$$$$
