
 OpenBabel03272509463D

 23 24  0  0  0  0  0  0  0  0999 V2000
   33.7260   28.6040   48.6990 C   0  0  0  0  0  0  0  0  0  0  0  0
   34.2520   29.0280   47.8350 H   0  0  0  0  0  0  0  0  0  0  0  0
   33.1080   29.4120   49.1450 H   0  0  0  0  0  0  0  0  0  0  0  0
   32.8130   27.4640   48.3480 C   0  0  0  0  0  0  0  0  0  0  0  0
   32.9740   26.6360   49.0370 H   0  0  0  0  0  0  0  0  0  0  0  0
   33.0190   27.1280   47.2960 H   0  0  0  0  0  0  0  0  0  0  0  0
   31.3800   27.8630   48.3460 C   0  0  0  0  0  0  0  0  0  0  0  0
   30.6950   27.7310   49.5380 C   0  0  0  0  0  3  0  0  0  0  0  0
   29.3640   28.0710   49.6550 C   0  0  0  0  0  0  0  0  0  0  0  0
   28.7670   27.9920   50.5570 H   0  0  0  0  0  0  0  0  0  0  0  0
   28.7150   28.5410   48.5860 N   0  0  0  0  0  0  0  0  0  0  0  0
   29.3930   28.6670   47.4190 C   0  0  0  0  0  3  0  0  0  0  0  0
   30.6910   28.3430   47.2830 N   0  0  0  0  0  0  0  0  0  0  0  0
   34.6190   28.2120   49.7350 O   0  0  0  0  0  0  0  0  0  0  0  0
   37.2300   30.1890   51.2930 C   0  0  0  0  0  0  0  0  0  0  0  0
   37.9100   30.6310   50.1410 C   0  0  0  0  0  0  0  0  0  0  0  0
   37.4310   30.2240   48.9020 C   0  0  0  0  0  0  0  0  0  0  0  0
   36.3250   29.4160   48.8870 N   0  0  0  0  0  0  0  0  0  0  0  0
   35.7000   29.0130   50.0000 C   0  0  0  0  0  0  0  0  0  0  0  0
   36.1580   29.4040   51.2110 N   0  0  0  0  0  0  0  0  0  0  0  0
   37.5500   30.4690   52.2940 H   0  0  0  0  0  0  0  0  0  0  0  0
   38.7790   31.2690   50.2480 H   0  0  0  0  0  0  0  0  0  0  0  0
   37.9260   30.5410   47.9910 H   0  0  0  0  0  0  0  0  0  0  0  0
  1  3  1  0  0  0  0
  1 14  1  0  0  0  0
  2  1  1  0  0  0  0
  4  1  1  0  0  0  0
  4  5  1  0  0  0  0
  6  4  1  0  0  0  0
  7  4  1  0  0  0  0
  7  8  1  0  0  0  0
  8  9  2  0  0  0  0
  9 10  1  0  0  0  0
 11  9  1  0  0  0  0
 12 11  2  0  0  0  0
 13 12  1  0  0  0  0
 13  7  2  0  0  0  0
 14 19  1  0  0  0  0
 15 21  1  0  0  0  0
 16 22  1  0  0  0  0
 16 15  2  0  0  0  0
 17 16  1  0  0  0  0
 18 17  2  0  0  0  0
 18 19  1  0  0  0  0
 19 20  2  0  0  0  0
 20 15  1  0  0  0  0
 23 17  1  0  0  0  0
M  END
>  <minimizedAffinity>
-4.38018036

>  <minimizedRMSD>
2.82346797

$$$$
