
 OpenBabel03262523173D

 37 40  0  0  0  0  0  0  0  0999 V2000
   36.9590   27.1480   32.3860 C   0  0  0  0  0  0  0  0  0  0  0  0
   37.2740   27.6240   31.1280 C   0  0  0  0  0  0  0  0  0  0  0  0
   36.9220   28.9290   30.9180 C   0  0  0  0  0  0  0  0  0  0  0  0
   36.3060   29.7030   31.8710 C   0  0  0  0  0  0  0  0  0  0  0  0
   36.0280   29.1550   33.0910 C   0  0  0  0  0  0  0  0  0  0  0  0
   36.3620   27.8680   33.3380 N   0  0  0  0  0  0  0  0  0  0  0  0
   37.7640   27.0000   30.3740 H   0  0  0  0  0  0  0  0  0  0  0  0
   37.1520   29.3540   29.9310 H   0  0  0  0  0  0  0  0  0  0  0  0
   36.0830   30.7120   31.5960 H   0  0  0  0  0  0  0  0  0  0  0  0
   33.0070   29.0930   33.1030 Cl  0  0  0  0  0  0  0  0  0  0  0  0
   33.9980   29.9550   34.2410 C   0  0  0  0  0  0  0  0  0  0  0  0
   35.3740   29.9150   34.1380 C   0  0  0  0  0  0  0  0  0  0  0  0
   36.0360   30.6490   35.1130 C   0  0  0  0  0  0  0  0  0  0  0  0
   35.4130   31.3630   36.1070 C   0  0  0  0  0  0  0  0  0  0  0  0
   34.0350   31.3680   36.1630 C   0  0  0  0  0  0  0  0  0  0  0  0
   33.2380   32.2700   37.4250 Cl  0  0  0  0  0  0  0  0  0  0  0  0
   33.3400   30.6620   35.2270 C   0  0  0  0  0  0  0  0  0  0  0  0
   37.1180   30.6600   35.0890 H   0  0  0  0  0  0  0  0  0  0  0  0
   36.0110   31.9090   36.8270 H   0  0  0  0  0  0  0  0  0  0  0  0
   32.2590   30.6900   35.3040 H   0  0  0  0  0  0  0  0  0  0  0  0
   37.5740   23.5310   32.0940 C   0  0  0  0  0  0  0  0  0  0  0  0
   37.9340   23.1730   33.3920 C   0  0  0  0  0  0  0  0  0  0  0  0
   37.9610   24.1740   34.3570 C   0  0  0  0  0  0  0  0  0  0  0  0
   37.6410   25.4240   33.9840 N   0  0  0  0  0  0  0  0  0  0  0  0
   37.2980   25.7560   32.7350 C   0  0  0  0  0  0  0  0  0  0  0  0
   37.2670   24.7950   31.7930 N   0  0  0  0  0  0  0  0  0  0  0  0
   38.1770   22.1700   33.6330 H   0  0  0  0  0  0  0  0  0  0  0  0
   38.3210   23.9240   35.7440 C   0  0  0  0  0  0  0  0  0  0  0  0
   37.6500   24.4910   36.8050 C   0  0  0  0  0  3  0  0  0  0  0  0
   37.9960   24.2490   38.1160 C   0  0  0  0  0  0  0  0  0  0  0  0
   37.5210   24.6540   38.9830 H   0  0  0  0  0  0  0  0  0  0  0  0
   39.0310   23.4270   38.3900 N   0  0  0  0  0  0  0  0  0  0  0  0
   39.6890   22.8690   37.3370 C   0  0  0  0  0  3  0  0  0  0  0  0
   39.3440   23.1110   36.0640 N   0  0  0  0  0  0  0  0  0  0  0  0
   37.5130   22.5740   31.0280 N   0  0  0  0  0  0  0  0  0  0  0  0
   37.2460   21.5910   31.2670 H   0  0  0  0  0  0  0  0  0  0  0  0
   37.7330   22.8720   30.0520 H   0  0  0  0  0  0  0  0  0  0  0  0
  1 25  1  0  0  0  0
  1  6  1  0  0  0  0
  2  1  2  0  0  0  0
  3  2  1  0  0  0  0
  3  4  2  0  0  0  0
  4  5  1  0  0  0  0
  5  6  2  0  0  0  0
  5 12  1  0  0  0  0
  7  2  1  0  0  0  0
  8  3  1  0  0  0  0
  9  4  1  0  0  0  0
 10 11  1  0  0  0  0
 11 17  1  0  0  0  0
 12 11  2  0  0  0  0
 12 13  1  0  0  0  0
 13 14  2  0  0  0  0
 14 15  1  0  0  0  0
 14 19  1  0  0  0  0
 15 16  1  0  0  0  0
 17 20  1  0  0  0  0
 17 15  2  0  0  0  0
 18 13  1  0  0  0  0
 21 22  1  0  0  0  0
 22 27  1  0  0  0  0
 22 23  2  0  0  0  0
 23 28  1  0  0  0  0
 24 23  1  0  0  0  0
 25 24  2  0  0  0  0
 26 21  2  0  0  0  0
 26 25  1  0  0  0  0
 28 34  2  0  0  0  0
 28 29  1  0  0  0  0
 29 30  2  0  0  0  0
 30 32  1  0  0  0  0
 30 31  1  0  0  0  0
 33 32  2  0  0  0  0
 34 33  1  0  0  0  0
 35 36  1  0  0  0  0
 35 21  1  0  0  0  0
 37 35  1  0  0  0  0
M  END
>  <minimizedAffinity>
-6.70878983

$$$$

 OpenBabel03262523173D

 37 40  0  0  0  0  0  0  0  0999 V2000
   36.8870   27.2350   32.7970 C   0  0  0  0  0  0  0  0  0  0  0  0
   37.0760   27.5850   31.4730 C   0  0  0  0  0  0  0  0  0  0  0  0
   36.6400   28.8420   31.1580 C   0  0  0  0  0  0  0  0  0  0  0  0
   36.0620   29.6890   32.0730 C   0  0  0  0  0  0  0  0  0  0  0  0
   35.9110   29.2650   33.3630 C   0  0  0  0  0  0  0  0  0  0  0  0
   36.3300   28.0290   33.7150 N   0  0  0  0  0  0  0  0  0  0  0  0
   37.5360   26.9040   30.7500 H   0  0  0  0  0  0  0  0  0  0  0  0
   36.7680   29.1670   30.1160 H   0  0  0  0  0  0  0  0  0  0  0  0
   35.7650   30.6510   31.7130 H   0  0  0  0  0  0  0  0  0  0  0  0
   32.8910   29.2680   33.4650 Cl  0  0  0  0  0  0  0  0  0  0  0  0
   33.9310   30.1810   34.5150 C   0  0  0  0  0  0  0  0  0  0  0  0
   35.3030   30.1060   34.3760 C   0  0  0  0  0  0  0  0  0  0  0  0
   36.0070   30.8880   35.2810 C   0  0  0  0  0  0  0  0  0  0  0  0
   35.4280   31.6790   36.2420 C   0  0  0  0  0  0  0  0  0  0  0  0
   34.0530   31.7170   36.3380 C   0  0  0  0  0  0  0  0  0  0  0  0
   33.3110   32.7160   37.5590 Cl  0  0  0  0  0  0  0  0  0  0  0  0
   33.3170   30.9650   35.4700 C   0  0  0  0  0  0  0  0  0  0  0  0
   37.0890   30.8750   35.2250 H   0  0  0  0  0  0  0  0  0  0  0  0
   36.0570   32.2580   36.9070 H   0  0  0  0  0  0  0  0  0  0  0  0
   32.2390   31.0220   35.5760 H   0  0  0  0  0  0  0  0  0  0  0  0
   38.4170   24.5860   34.8410 C   0  0  0  0  0  0  0  0  0  0  0  0
   38.1300   23.4310   34.1160 C   0  0  0  0  0  0  0  0  0  0  0  0
   37.4150   23.5700   32.9320 C   0  0  0  0  0  0  0  0  0  0  0  0
   37.0430   24.8050   32.5550 N   0  0  0  0  0  0  0  0  0  0  0  0
   37.3240   25.9060   33.2600 C   0  0  0  0  0  0  0  0  0  0  0  0
   38.0170   25.7830   34.4080 N   0  0  0  0  0  0  0  0  0  0  0  0
   38.4470   22.4800   34.4580 H   0  0  0  0  0  0  0  0  0  0  0  0
   37.0550   22.4400   32.0890 C   0  0  0  0  0  0  0  0  0  0  0  0
   35.7710   21.9500   32.0030 C   0  0  0  0  0  3  0  0  0  0  0  0
   35.4370   20.8790   31.2030 C   0  0  0  0  0  0  0  0  0  0  0  0
   34.4660   20.4490   31.0900 H   0  0  0  0  0  0  0  0  0  0  0  0
   36.3950   20.2750   30.4680 N   0  0  0  0  0  0  0  0  0  0  0  0
   37.6620   20.7640   30.5570 C   0  0  0  0  0  3  0  0  0  0  0  0
   37.9760   21.8070   31.3390 N   0  0  0  0  0  0  0  0  0  0  0  0
   39.1510   24.5500   36.0740 N   0  0  0  0  0  0  0  0  0  0  0  0
   39.8760   23.8060   36.1900 H   0  0  0  0  0  0  0  0  0  0  0  0
   38.9470   25.2550   36.8160 H   0  0  0  0  0  0  0  0  0  0  0  0
  1 25  1  0  0  0  0
  1  6  1  0  0  0  0
  2  1  2  0  0  0  0
  3  2  1  0  0  0  0
  3  4  2  0  0  0  0
  4  5  1  0  0  0  0
  5  6  2  0  0  0  0
  5 12  1  0  0  0  0
  7  2  1  0  0  0  0
  8  3  1  0  0  0  0
  9  4  1  0  0  0  0
 10 11  1  0  0  0  0
 11 17  1  0  0  0  0
 12 11  2  0  0  0  0
 12 13  1  0  0  0  0
 13 14  2  0  0  0  0
 14 15  1  0  0  0  0
 14 19  1  0  0  0  0
 15 16  1  0  0  0  0
 17 20  1  0  0  0  0
 17 15  2  0  0  0  0
 18 13  1  0  0  0  0
 21 35  1  0  0  0  0
 22 27  1  0  0  0  0
 22 21  2  0  0  0  0
 23 22  1  0  0  0  0
 24 23  2  0  0  0  0
 24 25  1  0  0  0  0
 25 26  2  0  0  0  0
 26 21  1  0  0  0  0
 28 23  1  0  0  0  0
 29 28  1  0  0  0  0
 30 29  2  0  0  0  0
 31 30  1  0  0  0  0
 32 33  2  0  0  0  0
 32 30  1  0  0  0  0
 33 34  1  0  0  0  0
 34 28  2  0  0  0  0
 35 36  1  0  0  0  0
 35 37  1  0  0  0  0
M  END
>  <minimizedAffinity>
-6.39027452

$$$$

 OpenBabel03262523173D

 37 40  0  0  0  0  0  0  0  0999 V2000
   36.7970   27.8810   33.9390 C   0  0  0  0  0  0  0  0  0  0  0  0
   36.4030   27.7300   32.6230 C   0  0  0  0  0  0  0  0  0  0  0  0
   35.5370   28.6930   32.1830 C   0  0  0  0  0  0  0  0  0  0  0  0
   35.0930   29.7230   32.9760 C   0  0  0  0  0  0  0  0  0  0  0  0
   35.5300   29.7990   34.2680 C   0  0  0  0  0  0  0  0  0  0  0  0
   36.3870   28.8670   34.7400 N   0  0  0  0  0  0  0  0  0  0  0  0
   36.7620   26.9060   31.9970 H   0  0  0  0  0  0  0  0  0  0  0  0
   35.1950   28.6160   31.1410 H   0  0  0  0  0  0  0  0  0  0  0  0
   34.4220   30.4200   32.5220 H   0  0  0  0  0  0  0  0  0  0  0  0
   32.7550   29.5120   35.4290 Cl  0  0  0  0  0  0  0  0  0  0  0  0
   33.8460   30.8250   35.7500 C   0  0  0  0  0  0  0  0  0  0  0  0
   35.0940   30.8560   35.1600 C   0  0  0  0  0  0  0  0  0  0  0  0
   35.8570   31.9630   35.5070 C   0  0  0  0  0  0  0  0  0  0  0  0
   35.4430   32.9590   36.3560 C   0  0  0  0  0  0  0  0  0  0  0  0
   34.1870   32.8790   36.9180 C   0  0  0  0  0  0  0  0  0  0  0  0
   33.6560   34.1380   38.0010 Cl  0  0  0  0  0  0  0  0  0  0  0  0
   33.3990   31.8090   36.6080 C   0  0  0  0  0  0  0  0  0  0  0  0
   36.8470   32.0470   35.0770 H   0  0  0  0  0  0  0  0  0  0  0  0
   36.1060   33.7880   36.5690 H   0  0  0  0  0  0  0  0  0  0  0  0
   32.4180   31.7810   37.0690 H   0  0  0  0  0  0  0  0  0  0  0  0
   38.1240   25.0390   35.8640 C   0  0  0  0  0  0  0  0  0  0  0  0
   39.4920   25.1030   35.6070 C   0  0  0  0  0  0  0  0  0  0  0  0
   39.9480   26.1210   34.7770 C   0  0  0  0  0  0  0  0  0  0  0  0
   39.0480   26.9810   34.2710 N   0  0  0  0  0  0  0  0  0  0  0  0
   37.7370   26.9090   34.5250 C   0  0  0  0  0  0  0  0  0  0  0  0
   37.2840   25.9280   35.3280 N   0  0  0  0  0  0  0  0  0  0  0  0
   40.1600   24.3990   36.0320 H   0  0  0  0  0  0  0  0  0  0  0  0
   41.3520   26.2910   34.4350 C   0  0  0  0  0  0  0  0  0  0  0  0
   41.7890   27.2030   33.4990 C   0  0  0  0  0  3  0  0  0  0  0  0
   43.1210   27.3580   33.1810 C   0  0  0  0  0  0  0  0  0  0  0  0
   43.5270   28.0420   32.4680 H   0  0  0  0  0  0  0  0  0  0  0  0
   44.0460   26.5950   33.8000 N   0  0  0  0  0  0  0  0  0  0  0  0
   43.6070   25.6970   34.7240 C   0  0  0  0  0  3  0  0  0  0  0  0
   42.3090   25.5540   35.0270 N   0  0  0  0  0  0  0  0  0  0  0  0
   37.5520   24.0300   36.7080 N   0  0  0  0  0  0  0  0  0  0  0  0
   38.1320   23.6690   37.5000 H   0  0  0  0  0  0  0  0  0  0  0  0
   36.5870   23.6820   36.5170 H   0  0  0  0  0  0  0  0  0  0  0  0
  1 25  1  0  0  0  0
  1  6  1  0  0  0  0
  2  1  2  0  0  0  0
  3  2  1  0  0  0  0
  3  4  2  0  0  0  0
  4  5  1  0  0  0  0
  5  6  2  0  0  0  0
  5 12  1  0  0  0  0
  7  2  1  0  0  0  0
  8  3  1  0  0  0  0
  9  4  1  0  0  0  0
 10 11  1  0  0  0  0
 11 17  1  0  0  0  0
 12 13  1  0  0  0  0
 12 11  2  0  0  0  0
 13 14  2  0  0  0  0
 14 19  1  0  0  0  0
 14 15  1  0  0  0  0
 15 16  1  0  0  0  0
 17 15  2  0  0  0  0
 17 20  1  0  0  0  0
 18 13  1  0  0  0  0
 21 35  1  0  0  0  0
 22 21  1  0  0  0  0
 22 27  1  0  0  0  0
 23 22  2  0  0  0  0
 24 25  2  0  0  0  0
 24 23  1  0  0  0  0
 25 26  1  0  0  0  0
 26 21  2  0  0  0  0
 28 23  1  0  0  0  0
 28 34  1  0  0  0  0
 29 28  2  0  0  0  0
 30 29  1  0  0  0  0
 30 32  2  0  0  0  0
 31 30  1  0  0  0  0
 32 33  1  0  0  0  0
 33 34  2  0  0  0  0
 35 36  1  0  0  0  0
 37 35  1  0  0  0  0
M  END
>  <minimizedAffinity>
-6.36464977

$$$$

 OpenBabel03262523173D

 37 40  0  0  0  0  0  0  0  0999 V2000
   36.3090   26.6230   32.0380 C   0  0  0  0  0  0  0  0  0  0  0  0
   35.5980   25.8290   31.1590 C   0  0  0  0  0  0  0  0  0  0  0  0
   35.8960   24.4960   31.2400 C   0  0  0  0  0  0  0  0  0  0  0  0
   36.8220   23.9860   32.1180 C   0  0  0  0  0  0  0  0  0  0  0  0
   37.4820   24.8400   32.9540 C   0  0  0  0  0  0  0  0  0  0  0  0
   37.2160   26.1650   32.9050 N   0  0  0  0  0  0  0  0  0  0  0  0
   34.8630   26.2430   30.4620 H   0  0  0  0  0  0  0  0  0  0  0  0
   35.3560   23.8230   30.5600 H   0  0  0  0  0  0  0  0  0  0  0  0
   36.9670   22.9270   32.0960 H   0  0  0  0  0  0  0  0  0  0  0  0
   40.3430   24.8000   31.9820 Cl  0  0  0  0  0  0  0  0  0  0  0  0
   39.8140   24.3100   33.5620 C   0  0  0  0  0  0  0  0  0  0  0  0
   38.4760   24.3670   33.8990 C   0  0  0  0  0  0  0  0  0  0  0  0
   38.1990   23.9460   35.1920 C   0  0  0  0  0  0  0  0  0  0  0  0
   39.1430   23.5040   36.0860 C   0  0  0  0  0  0  0  0  0  0  0  0
   40.4660   23.4670   35.6970 C   0  0  0  0  0  0  0  0  0  0  0  0
   41.6710   22.9110   36.8280 Cl  0  0  0  0  0  0  0  0  0  0  0  0
   40.7880   23.8720   34.4360 C   0  0  0  0  0  0  0  0  0  0  0  0
   37.1670   23.9650   35.5190 H   0  0  0  0  0  0  0  0  0  0  0  0
   38.8360   23.1930   37.0770 H   0  0  0  0  0  0  0  0  0  0  0  0
   41.8370   23.8280   34.1670 H   0  0  0  0  0  0  0  0  0  0  0  0
   36.0680   30.1260   30.9380 C   0  0  0  0  0  0  0  0  0  0  0  0
   35.6150   30.7790   32.0830 C   0  0  0  0  0  0  0  0  0  0  0  0
   35.3980   30.0130   33.2230 C   0  0  0  0  0  0  0  0  0  0  0  0
   35.6350   28.6930   33.1560 N   0  0  0  0  0  0  0  0  0  0  0  0
   36.0690   28.0770   32.0510 C   0  0  0  0  0  0  0  0  0  0  0  0
   36.2840   28.8090   30.9420 N   0  0  0  0  0  0  0  0  0  0  0  0
   35.4440   31.8250   32.0820 H   0  0  0  0  0  0  0  0  0  0  0  0
   34.9260   30.5810   34.4770 C   0  0  0  0  0  0  0  0  0  0  0  0
   35.7350   31.3130   35.3170 C   0  0  0  0  0  3  0  0  0  0  0  0
   35.2810   31.8480   36.5040 C   0  0  0  0  0  0  0  0  0  0  0  0
   35.8520   32.4230   37.2000 H   0  0  0  0  0  0  0  0  0  0  0  0
   33.9970   31.6560   36.8710 N   0  0  0  0  0  0  0  0  0  0  0  0
   33.2030   30.9320   36.0360 C   0  0  0  0  0  3  0  0  0  0  0  0
   33.6540   30.4160   34.8840 N   0  0  0  0  0  0  0  0  0  0  0  0
   36.3250   30.8250   29.7120 N   0  0  0  0  0  0  0  0  0  0  0  0
   36.6570   31.8150   29.7740 H   0  0  0  0  0  0  0  0  0  0  0  0
   36.1760   30.3400   28.8000 H   0  0  0  0  0  0  0  0  0  0  0  0
  1 25  1  0  0  0  0
  1  6  1  0  0  0  0
  2  3  1  0  0  0  0
  2  1  2  0  0  0  0
  3  4  2  0  0  0  0
  4  5  1  0  0  0  0
  5 12  1  0  0  0  0
  6  5  2  0  0  0  0
  7  2  1  0  0  0  0
  8  3  1  0  0  0  0
  9  4  1  0  0  0  0
 10 11  1  0  0  0  0
 11 12  2  0  0  0  0
 11 17  1  0  0  0  0
 12 13  1  0  0  0  0
 13 18  1  0  0  0  0
 13 14  2  0  0  0  0
 14 19  1  0  0  0  0
 15 14  1  0  0  0  0
 15 16  1  0  0  0  0
 17 15  2  0  0  0  0
 20 17  1  0  0  0  0
 21 26  2  0  0  0  0
 21 22  1  0  0  0  0
 22 23  2  0  0  0  0
 23 28  1  0  0  0  0
 24 23  1  0  0  0  0
 25 24  2  0  0  0  0
 26 25  1  0  0  0  0
 27 22  1  0  0  0  0
 28 34  2  0  0  0  0
 28 29  1  0  0  0  0
 29 30  2  0  0  0  0
 30 32  1  0  0  0  0
 30 31  1  0  0  0  0
 33 32  2  0  0  0  0
 34 33  1  0  0  0  0
 35 36  1  0  0  0  0
 35 21  1  0  0  0  0
 37 35  1  0  0  0  0
M  END
>  <minimizedAffinity>
-6.29839325

$$$$

 OpenBabel03262523173D

 37 40  0  0  0  0  0  0  0  0999 V2000
   36.3520   28.1960   33.3850 C   0  0  0  0  0  0  0  0  0  0  0  0
   35.5240   27.9290   32.3110 C   0  0  0  0  0  0  0  0  0  0  0  0
   34.4450   28.7640   32.2150 C   0  0  0  0  0  0  0  0  0  0  0  0
   34.1990   29.7800   33.1060 C   0  0  0  0  0  0  0  0  0  0  0  0
   35.0670   29.9760   34.1420 C   0  0  0  0  0  0  0  0  0  0  0  0
   36.1470   29.1730   34.2720 N   0  0  0  0  0  0  0  0  0  0  0  0
   35.7270   27.1180   31.6060 H   0  0  0  0  0  0  0  0  0  0  0  0
   33.7560   28.5920   31.3760 H   0  0  0  0  0  0  0  0  0  0  0  0
   33.3270   30.3720   32.9270 H   0  0  0  0  0  0  0  0  0  0  0  0
   32.6000   29.7330   35.8700 Cl  0  0  0  0  0  0  0  0  0  0  0  0
   33.7690   31.0130   35.9660 C   0  0  0  0  0  0  0  0  0  0  0  0
   34.8620   31.0260   35.1220 C   0  0  0  0  0  0  0  0  0  0  0  0
   35.7110   32.1070   35.3110 C   0  0  0  0  0  0  0  0  0  0  0  0
   35.5160   33.0960   36.2430 C   0  0  0  0  0  0  0  0  0  0  0  0
   34.4090   33.0350   37.0620 C   0  0  0  0  0  0  0  0  0  0  0  0
   34.1570   34.2850   38.2510 Cl  0  0  0  0  0  0  0  0  0  0  0  0
   33.5440   31.9900   36.9140 C   0  0  0  0  0  0  0  0  0  0  0  0
   36.5880   32.1770   34.6800 H   0  0  0  0  0  0  0  0  0  0  0  0
   36.2330   33.9050   36.3210 H   0  0  0  0  0  0  0  0  0  0  0  0
   32.6840   31.9770   37.5750 H   0  0  0  0  0  0  0  0  0  0  0  0
   39.6840   26.7100   32.9060 C   0  0  0  0  0  0  0  0  0  0  0  0
   39.7880   25.8300   33.9820 C   0  0  0  0  0  0  0  0  0  0  0  0
   38.7140   25.7530   34.8620 C   0  0  0  0  0  0  0  0  0  0  0  0
   37.6430   26.5280   34.6270 N   0  0  0  0  0  0  0  0  0  0  0  0
   37.5550   27.3690   33.5900 C   0  0  0  0  0  0  0  0  0  0  0  0
   38.5880   27.4510   32.7310 N   0  0  0  0  0  0  0  0  0  0  0  0
   40.6570   25.2410   34.1220 H   0  0  0  0  0  0  0  0  0  0  0  0
   38.7060   24.8740   36.0210 C   0  0  0  0  0  0  0  0  0  0  0  0
   37.9130   25.0990   37.1250 C   0  0  0  0  0  3  0  0  0  0  0  0
   37.9100   24.2610   38.2190 C   0  0  0  0  0  0  0  0  0  0  0  0
   37.3230   24.3760   39.1050 H   0  0  0  0  0  0  0  0  0  0  0  0
   38.7080   23.1730   38.2260 N   0  0  0  0  0  0  0  0  0  0  0  0
   39.4880   22.9560   37.1310 C   0  0  0  0  0  3  0  0  0  0  0  0
   39.4840   23.7770   36.0720 N   0  0  0  0  0  0  0  0  0  0  0  0
   40.7350   26.8620   31.9400 N   0  0  0  0  0  0  0  0  0  0  0  0
   41.3280   26.0270   31.7280 H   0  0  0  0  0  0  0  0  0  0  0  0
   40.8830   27.7870   31.4800 H   0  0  0  0  0  0  0  0  0  0  0  0
  1 25  1  0  0  0  0
  1  6  1  0  0  0  0
  2  1  2  0  0  0  0
  3  2  1  0  0  0  0
  3  4  2  0  0  0  0
  4  5  1  0  0  0  0
  5  6  2  0  0  0  0
  5 12  1  0  0  0  0
  7  2  1  0  0  0  0
  8  3  1  0  0  0  0
  9  4  1  0  0  0  0
 10 11  1  0  0  0  0
 11 17  1  0  0  0  0
 12 13  1  0  0  0  0
 12 11  2  0  0  0  0
 13 14  2  0  0  0  0
 14 19  1  0  0  0  0
 14 15  1  0  0  0  0
 15 16  1  0  0  0  0
 17 15  2  0  0  0  0
 17 20  1  0  0  0  0
 18 13  1  0  0  0  0
 21 22  1  0  0  0  0
 22 27  1  0  0  0  0
 22 23  2  0  0  0  0
 23 28  1  0  0  0  0
 24 23  1  0  0  0  0
 25 24  2  0  0  0  0
 26 21  2  0  0  0  0
 26 25  1  0  0  0  0
 28 34  2  0  0  0  0
 28 29  1  0  0  0  0
 29 30  2  0  0  0  0
 30 32  1  0  0  0  0
 30 31  1  0  0  0  0
 33 32  2  0  0  0  0
 34 33  1  0  0  0  0
 35 21  1  0  0  0  0
 36 35  1  0  0  0  0
 37 35  1  0  0  0  0
M  END
>  <minimizedAffinity>
-6.23614407

$$$$

 OpenBabel03262523173D

 37 40  0  0  0  0  0  0  0  0999 V2000
   37.6560   27.6210   32.1180 C   0  0  0  0  0  0  0  0  0  0  0  0
   38.6580   27.4600   31.1800 C   0  0  0  0  0  0  0  0  0  0  0  0
   39.5560   26.4740   31.4820 C   0  0  0  0  0  0  0  0  0  0  0  0
   39.4750   25.7070   32.6190 C   0  0  0  0  0  0  0  0  0  0  0  0
   38.4520   25.9310   33.4970 C   0  0  0  0  0  0  0  0  0  0  0  0
   37.5440   26.8970   33.2340 N   0  0  0  0  0  0  0  0  0  0  0  0
   38.7160   28.0760   30.2770 H   0  0  0  0  0  0  0  0  0  0  0  0
   40.3720   26.3070   30.7650 H   0  0  0  0  0  0  0  0  0  0  0  0
   40.2290   24.9610   32.7470 H   0  0  0  0  0  0  0  0  0  0  0  0
   38.5930   27.4880   36.0830 Cl  0  0  0  0  0  0  0  0  0  0  0  0
   38.3580   25.7720   35.9570 C   0  0  0  0  0  0  0  0  0  0  0  0
   38.3130   25.1620   34.7190 C   0  0  0  0  0  0  0  0  0  0  0  0
   38.1200   23.7890   34.7700 C   0  0  0  0  0  0  0  0  0  0  0  0
   37.9830   23.0650   35.9290 C   0  0  0  0  0  0  0  0  0  0  0  0
   38.0360   23.7230   37.1390 C   0  0  0  0  0  0  0  0  0  0  0  0
   37.8580   22.8110   38.6140 Cl  0  0  0  0  0  0  0  0  0  0  0  0
   38.2230   25.0740   37.1400 C   0  0  0  0  0  0  0  0  0  0  0  0
   38.0750   23.2500   33.8320 H   0  0  0  0  0  0  0  0  0  0  0  0
   37.8360   21.9930   35.8740 H   0  0  0  0  0  0  0  0  0  0  0  0
   38.2600   25.5570   38.1110 H   0  0  0  0  0  0  0  0  0  0  0  0
   35.8510   30.5080   30.7220 C   0  0  0  0  0  0  0  0  0  0  0  0
   34.6930   30.5530   31.4960 C   0  0  0  0  0  0  0  0  0  0  0  0
   34.5410   29.5930   32.4900 C   0  0  0  0  0  0  0  0  0  0  0  0
   35.5150   28.6820   32.6480 N   0  0  0  0  0  0  0  0  0  0  0  0
   36.6220   28.6490   31.8990 C   0  0  0  0  0  0  0  0  0  0  0  0
   36.7800   29.5740   30.9340 N   0  0  0  0  0  0  0  0  0  0  0  0
   33.9550   31.2940   31.3300 H   0  0  0  0  0  0  0  0  0  0  0  0
   33.3770   29.5370   33.3610 C   0  0  0  0  0  0  0  0  0  0  0  0
   33.3980   29.9750   34.6670 C   0  0  0  0  0  3  0  0  0  0  0  0
   32.2920   29.9180   35.4860 C   0  0  0  0  0  0  0  0  0  0  0  0
   32.2380   30.2390   36.5040 H   0  0  0  0  0  0  0  0  0  0  0  0
   31.1340   29.4180   35.0060 N   0  0  0  0  0  0  0  0  0  0  0  0
   31.1200   28.9880   33.7150 C   0  0  0  0  0  3  0  0  0  0  0  0
   32.2020   29.0470   32.9260 N   0  0  0  0  0  0  0  0  0  0  0  0
   36.1050   31.4540   29.6720 N   0  0  0  0  0  0  0  0  0  0  0  0
   35.7280   32.4230   29.7850 H   0  0  0  0  0  0  0  0  0  0  0  0
   36.6490   31.1590   28.8320 H   0  0  0  0  0  0  0  0  0  0  0  0
  1  6  1  0  0  0  0
  2  3  1  0  0  0  0
  2  1  2  0  0  0  0
  3  4  2  0  0  0  0
  4  9  1  0  0  0  0
  4  5  1  0  0  0  0
  5 12  1  0  0  0  0
  6  5  2  0  0  0  0
  7  2  1  0  0  0  0
  8  3  1  0  0  0  0
 11 10  1  0  0  0  0
 11 17  1  0  0  0  0
 12 13  1  0  0  0  0
 12 11  2  0  0  0  0
 13 14  2  0  0  0  0
 14 15  1  0  0  0  0
 15 17  2  0  0  0  0
 15 16  1  0  0  0  0
 17 20  1  0  0  0  0
 18 13  1  0  0  0  0
 19 14  1  0  0  0  0
 21 26  2  0  0  0  0
 21 22  1  0  0  0  0
 22 23  2  0  0  0  0
 23 24  1  0  0  0  0
 23 28  1  0  0  0  0
 25  1  1  0  0  0  0
 25 24  2  0  0  0  0
 26 25  1  0  0  0  0
 27 22  1  0  0  0  0
 28 29  1  0  0  0  0
 29 30  2  0  0  0  0
 30 31  1  0  0  0  0
 32 30  1  0  0  0  0
 33 32  2  0  0  0  0
 34 28  2  0  0  0  0
 34 33  1  0  0  0  0
 35 36  1  0  0  0  0
 35 21  1  0  0  0  0
 37 35  1  0  0  0  0
M  END
>  <minimizedAffinity>
-6.18137646

$$$$

 OpenBabel03262523173D

 37 40  0  0  0  0  0  0  0  0999 V2000
   36.0510   28.8620   32.1040 C   0  0  0  0  0  0  0  0  0  0  0  0
   36.8540   29.0800   31.0010 C   0  0  0  0  0  0  0  0  0  0  0  0
   38.0180   28.3610   31.0040 C   0  0  0  0  0  0  0  0  0  0  0  0
   38.3640   27.4970   32.0140 C   0  0  0  0  0  0  0  0  0  0  0  0
   37.5130   27.3400   33.0710 C   0  0  0  0  0  0  0  0  0  0  0  0
   36.3530   28.0320   33.1050 N   0  0  0  0  0  0  0  0  0  0  0  0
   36.5710   29.7700   30.2000 H   0  0  0  0  0  0  0  0  0  0  0  0
   38.6910   28.5000   30.1460 H   0  0  0  0  0  0  0  0  0  0  0  0
   39.2960   26.9840   31.9060 H   0  0  0  0  0  0  0  0  0  0  0  0
   37.5130   24.3830   32.4440 Cl  0  0  0  0  0  0  0  0  0  0  0  0
   37.8540   25.0790   33.9990 C   0  0  0  0  0  0  0  0  0  0  0  0
   37.8220   26.4490   34.1730 C   0  0  0  0  0  0  0  0  0  0  0  0
   38.1140   26.8620   35.4660 C   0  0  0  0  0  0  0  0  0  0  0  0
   38.4120   26.0150   36.5050 C   0  0  0  0  0  0  0  0  0  0  0  0
   38.4300   24.6560   36.2760 C   0  0  0  0  0  0  0  0  0  0  0  0
   38.8110   23.5750   37.5900 Cl  0  0  0  0  0  0  0  0  0  0  0  0
   38.1500   24.2010   35.0210 C   0  0  0  0  0  0  0  0  0  0  0  0
   38.1060   27.9250   35.6700 H   0  0  0  0  0  0  0  0  0  0  0  0
   38.6270   26.4270   37.4840 H   0  0  0  0  0  0  0  0  0  0  0  0
   38.1730   23.1260   34.8800 H   0  0  0  0  0  0  0  0  0  0  0  0
   33.2550   31.1380   31.3670 C   0  0  0  0  0  0  0  0  0  0  0  0
   32.3690   30.8890   32.4140 C   0  0  0  0  0  0  0  0  0  0  0  0
   32.7380   29.9430   33.3640 C   0  0  0  0  0  0  0  0  0  0  0  0
   33.9220   29.3260   33.2200 N   0  0  0  0  0  0  0  0  0  0  0  0
   34.7640   29.5740   32.2100 C   0  0  0  0  0  0  0  0  0  0  0  0
   34.4180   30.4880   31.2850 N   0  0  0  0  0  0  0  0  0  0  0  0
   31.4460   31.4040   32.4810 H   0  0  0  0  0  0  0  0  0  0  0  0
   31.8980   29.5970   34.5000 C   0  0  0  0  0  0  0  0  0  0  0  0
   32.2610   29.8560   35.8040 C   0  0  0  0  0  3  0  0  0  0  0  0
   31.4600   29.5250   36.8760 C   0  0  0  0  0  0  0  0  0  0  0  0
   31.6780   29.6960   37.9080 H   0  0  0  0  0  0  0  0  0  0  0  0
   30.2720   28.9240   36.6570 N   0  0  0  0  0  0  0  0  0  0  0  0
   29.9200   28.6720   35.3670 C   0  0  0  0  0  3  0  0  0  0  0  0
   30.7060   28.9980   34.3310 N   0  0  0  0  0  0  0  0  0  0  0  0
   32.9690   32.0960   30.3370 N   0  0  0  0  0  0  0  0  0  0  0  0
   32.3950   32.9320   30.5920 H   0  0  0  0  0  0  0  0  0  0  0  0
   33.3330   31.9390   29.3710 H   0  0  0  0  0  0  0  0  0  0  0  0
  1 25  1  0  0  0  0
  1  6  1  0  0  0  0
  2  3  1  0  0  0  0
  2  1  2  0  0  0  0
  3  4  2  0  0  0  0
  4  5  1  0  0  0  0
  5  6  2  0  0  0  0
  5 12  1  0  0  0  0
  7  2  1  0  0  0  0
  8  3  1  0  0  0  0
  9  4  1  0  0  0  0
 10 11  1  0  0  0  0
 11 12  2  0  0  0  0
 11 17  1  0  0  0  0
 12 13  1  0  0  0  0
 13 18  1  0  0  0  0
 13 14  2  0  0  0  0
 14 19  1  0  0  0  0
 15 14  1  0  0  0  0
 15 16  1  0  0  0  0
 17 15  2  0  0  0  0
 20 17  1  0  0  0  0
 21 22  1  0  0  0  0
 22 27  1  0  0  0  0
 22 23  2  0  0  0  0
 23 28  1  0  0  0  0
 24 23  1  0  0  0  0
 25 24  2  0  0  0  0
 26 21  2  0  0  0  0
 26 25  1  0  0  0  0
 28 29  1  0  0  0  0
 29 30  2  0  0  0  0
 30 31  1  0  0  0  0
 32 30  1  0  0  0  0
 33 32  2  0  0  0  0
 34 28  2  0  0  0  0
 34 33  1  0  0  0  0
 35 36  1  0  0  0  0
 35 21  1  0  0  0  0
 37 35  1  0  0  0  0
M  END
>  <minimizedAffinity>
-6.15644312

$$$$

 OpenBabel03262523173D

 37 40  0  0  0  0  0  0  0  0999 V2000
   37.3600   26.2610   33.6410 C   0  0  0  0  0  0  0  0  0  0  0  0
   38.1340   26.2330   34.7860 C   0  0  0  0  0  0  0  0  0  0  0  0
   38.6540   25.0020   35.0800 C   0  0  0  0  0  0  0  0  0  0  0  0
   38.4290   23.8880   34.3080 C   0  0  0  0  0  0  0  0  0  0  0  0
   37.6510   24.0020   33.1920 C   0  0  0  0  0  0  0  0  0  0  0  0
   37.1190   25.2010   32.8660 N   0  0  0  0  0  0  0  0  0  0  0  0
   38.3070   27.1250   35.3950 H   0  0  0  0  0  0  0  0  0  0  0  0
   39.2770   24.9280   35.9820 H   0  0  0  0  0  0  0  0  0  0  0  0
   38.8930   22.9800   34.6330 H   0  0  0  0  0  0  0  0  0  0  0  0
   39.7110   23.3750   31.0710 Cl  0  0  0  0  0  0  0  0  0  0  0  0
   38.2430   22.4850   31.3390 C   0  0  0  0  0  0  0  0  0  0  0  0
   37.3690   22.8630   32.3380 C   0  0  0  0  0  0  0  0  0  0  0  0
   36.2400   22.0620   32.4370 C   0  0  0  0  0  0  0  0  0  0  0  0
   35.9800   20.9810   31.6300 C   0  0  0  0  0  0  0  0  0  0  0  0
   36.8870   20.6470   30.6480 C   0  0  0  0  0  0  0  0  0  0  0  0
   36.5650   19.2730   29.6230 Cl  0  0  0  0  0  0  0  0  0  0  0  0
   38.0130   21.4040   30.5120 C   0  0  0  0  0  0  0  0  0  0  0  0
   35.5130   22.3060   33.2010 H   0  0  0  0  0  0  0  0  0  0  0  0
   35.0710   20.4120   31.7780 H   0  0  0  0  0  0  0  0  0  0  0  0
   38.7020   21.1100   29.7280 H   0  0  0  0  0  0  0  0  0  0  0  0
   36.1950   29.0300   31.5150 C   0  0  0  0  0  0  0  0  0  0  0  0
   35.6130   29.9020   32.4330 C   0  0  0  0  0  0  0  0  0  0  0  0
   35.6250   29.5330   33.7740 C   0  0  0  0  0  0  0  0  0  0  0  0
   36.1950   28.3630   34.1060 N   0  0  0  0  0  0  0  0  0  0  0  0
   36.7510   27.5350   33.2150 C   0  0  0  0  0  0  0  0  0  0  0  0
   36.7460   27.8820   31.9150 N   0  0  0  0  0  0  0  0  0  0  0  0
   35.1760   30.8140   32.1180 H   0  0  0  0  0  0  0  0  0  0  0  0
   35.0490   30.3580   34.8240 C   0  0  0  0  0  0  0  0  0  0  0  0
   33.7000   30.3810   35.1010 C   0  0  0  0  0  3  0  0  0  0  0  0
   33.1600   31.1650   36.0980 C   0  0  0  0  0  0  0  0  0  0  0  0
   32.1280   31.2310   36.3650 H   0  0  0  0  0  0  0  0  0  0  0  0
   33.9720   31.9470   36.8410 N   0  0  0  0  0  0  0  0  0  0  0  0
   35.3040   31.9190   36.5620 C   0  0  0  0  0  3  0  0  0  0  0  0
   35.8190   31.1530   35.5900 N   0  0  0  0  0  0  0  0  0  0  0  0
   36.2370   29.3180   30.1100 N   0  0  0  0  0  0  0  0  0  0  0  0
   36.3020   30.3200   29.8170 H   0  0  0  0  0  0  0  0  0  0  0  0
   36.2000   28.5350   29.4200 H   0  0  0  0  0  0  0  0  0  0  0  0
  1  2  1  0  0  0  0
  2  3  2  0  0  0  0
  2  7  1  0  0  0  0
  3  8  1  0  0  0  0
  4  9  1  0  0  0  0
  4  3  1  0  0  0  0
  5  4  2  0  0  0  0
  6  5  1  0  0  0  0
  6  1  2  0  0  0  0
 10 11  1  0  0  0  0
 11 12  1  0  0  0  0
 12 13  2  0  0  0  0
 12  5  1  0  0  0  0
 13 18  1  0  0  0  0
 14 19  1  0  0  0  0
 14 13  1  0  0  0  0
 15 14  2  0  0  0  0
 16 15  1  0  0  0  0
 17 15  1  0  0  0  0
 17 11  2  0  0  0  0
 20 17  1  0  0  0  0
 21 26  2  0  0  0  0
 21 22  1  0  0  0  0
 22 23  2  0  0  0  0
 23 24  1  0  0  0  0
 23 28  1  0  0  0  0
 25  1  1  0  0  0  0
 25 24  2  0  0  0  0
 26 25  1  0  0  0  0
 27 22  1  0  0  0  0
 28 29  2  0  0  0  0
 28 34  1  0  0  0  0
 29 30  1  0  0  0  0
 30 31  1  0  0  0  0
 30 32  2  0  0  0  0
 33 32  1  0  0  0  0
 34 33  2  0  0  0  0
 35 21  1  0  0  0  0
 36 35  1  0  0  0  0
 37 35  1  0  0  0  0
M  END
>  <minimizedAffinity>
-6.10544968

$$$$

 OpenBabel03262523173D

 37 40  0  0  0  0  0  0  0  0999 V2000
   36.5020   28.0290   31.7610 C   0  0  0  0  0  0  0  0  0  0  0  0
   36.9480   28.9220   30.8050 C   0  0  0  0  0  0  0  0  0  0  0  0
   36.2890   30.1200   30.8080 C   0  0  0  0  0  0  0  0  0  0  0  0
   35.2700   30.4160   31.6810 C   0  0  0  0  0  0  0  0  0  0  0  0
   34.8890   29.4760   32.5960 C   0  0  0  0  0  0  0  0  0  0  0  0
   35.5170   28.2790   32.6270 N   0  0  0  0  0  0  0  0  0  0  0  0
   37.7600   28.6780   30.1130 H   0  0  0  0  0  0  0  0  0  0  0  0
   36.6080   30.8650   30.0650 H   0  0  0  0  0  0  0  0  0  0  0  0
   34.8330   31.3880   31.5940 H   0  0  0  0  0  0  0  0  0  0  0  0
   35.6830   30.7480   35.2200 Cl  0  0  0  0  0  0  0  0  0  0  0  0
   34.0660   30.3020   34.7700 C   0  0  0  0  0  0  0  0  0  0  0  0
   33.8180   29.7220   33.5410 C   0  0  0  0  0  0  0  0  0  0  0  0
   32.4810   29.4190   33.3180 C   0  0  0  0  0  0  0  0  0  0  0  0
   31.4690   29.6590   34.2140 C   0  0  0  0  0  0  0  0  0  0  0  0
   31.7720   30.2410   35.4260 C   0  0  0  0  0  0  0  0  0  0  0  0
   30.4900   30.5520   36.5670 Cl  0  0  0  0  0  0  0  0  0  0  0  0
   33.0720   30.5570   35.6920 C   0  0  0  0  0  0  0  0  0  0  0  0
   32.2190   28.9610   32.3730 H   0  0  0  0  0  0  0  0  0  0  0  0
   30.4520   29.3880   33.9550 H   0  0  0  0  0  0  0  0  0  0  0  0
   33.2710   31.0120   36.6560 H   0  0  0  0  0  0  0  0  0  0  0  0
   38.1240   24.8590   30.8300 C   0  0  0  0  0  0  0  0  0  0  0  0
   38.3340   24.2450   32.0640 C   0  0  0  0  0  0  0  0  0  0  0  0
   37.9160   24.9220   33.2040 C   0  0  0  0  0  0  0  0  0  0  0  0
   37.3370   26.1250   33.0530 N   0  0  0  0  0  0  0  0  0  0  0  0
   37.1420   26.7040   31.8630 C   0  0  0  0  0  0  0  0  0  0  0  0
   37.5410   26.0580   30.7530 N   0  0  0  0  0  0  0  0  0  0  0  0
   38.7960   23.2940   32.1270 H   0  0  0  0  0  0  0  0  0  0  0  0
   38.0810   24.3840   34.5460 C   0  0  0  0  0  0  0  0  0  0  0  0
   38.4160   23.0710   34.7890 C   0  0  0  0  0  3  0  0  0  0  0  0
   38.5700   22.5680   36.0620 C   0  0  0  0  0  0  0  0  0  0  0  0
   38.8270   21.5640   36.3220 H   0  0  0  0  0  0  0  0  0  0  0  0
   38.3890   23.3800   37.1240 N   0  0  0  0  0  0  0  0  0  0  0  0
   38.0590   24.6780   36.8770 C   0  0  0  0  0  3  0  0  0  0  0  0
   37.9110   25.1570   35.6340 N   0  0  0  0  0  0  0  0  0  0  0  0
   38.5160   24.2440   29.5950 N   0  0  0  0  0  0  0  0  0  0  0  0
   38.4910   23.2000   29.5390 H   0  0  0  0  0  0  0  0  0  0  0  0
   38.8140   24.8410   28.7920 H   0  0  0  0  0  0  0  0  0  0  0  0
  1 25  1  0  0  0  0
  1  6  1  0  0  0  0
  2  3  1  0  0  0  0
  2  1  2  0  0  0  0
  3  4  2  0  0  0  0
  4  5  1  0  0  0  0
  5  6  2  0  0  0  0
  5 12  1  0  0  0  0
  7  2  1  0  0  0  0
  8  3  1  0  0  0  0
  9  4  1  0  0  0  0
 11 10  1  0  0  0  0
 11 17  1  0  0  0  0
 12 11  2  0  0  0  0
 13 12  1  0  0  0  0
 13 14  2  0  0  0  0
 14 15  1  0  0  0  0
 15 17  2  0  0  0  0
 15 16  1  0  0  0  0
 17 20  1  0  0  0  0
 18 13  1  0  0  0  0
 19 14  1  0  0  0  0
 21 22  1  0  0  0  0
 22 27  1  0  0  0  0
 22 23  2  0  0  0  0
 23 28  1  0  0  0  0
 24 23  1  0  0  0  0
 25 24  2  0  0  0  0
 26 21  2  0  0  0  0
 26 25  1  0  0  0  0
 28 29  2  0  0  0  0
 28 34  1  0  0  0  0
 29 30  1  0  0  0  0
 30 31  1  0  0  0  0
 30 32  2  0  0  0  0
 33 32  1  0  0  0  0
 34 33  2  0  0  0  0
 35 21  1  0  0  0  0
 36 35  1  0  0  0  0
 37 35  1  0  0  0  0
M  END
>  <minimizedAffinity>
-6.10265541

$$$$
