
 OpenBabel03272506063D

 28 30  0  0  0  0  0  0  0  0999 V2000
   34.8010   28.4310   49.3670 C   0  0  0  0  0  0  0  0  0  0  0  0
   34.8650   27.6520   50.1530 H   0  0  0  0  0  0  0  0  0  0  0  0
   35.6880   28.2710   48.7060 H   0  0  0  0  0  0  0  0  0  0  0  0
   33.5450   28.2530   48.5560 C   0  0  0  0  0  0  0  0  0  0  0  0
   33.6210   28.4580   47.1190 C   0  0  0  0  0  0  0  0  0  0  0  0
   31.9380   28.1410   46.6490 S   0  0  0  0  0  0  0  0  0  0  0  0
   31.3780   27.7860   48.4030 C   0  0  0  0  0  0  0  0  0  0  0  0
   32.3790   27.9260   49.0430 N   0  0  0  0  0  0  0  0  0  0  0  0
   34.4990   28.7270   46.5680 H   0  0  0  0  0  0  0  0  0  0  0  0
   29.9660   27.4210   48.7660 C   0  0  0  0  0  0  0  0  0  0  0  0
   29.6880   27.4080   50.1170 C   0  0  0  0  0  0  0  0  0  0  0  0
   28.3870   27.0710   50.4140 C   0  0  0  0  0  0  0  0  0  0  0  0
   28.1460   27.0550   51.4880 H   0  0  0  0  0  0  0  0  0  0  0  0
   27.4940   26.7850   49.4340 N   0  0  0  0  0  0  0  0  0  0  0  0
   27.8610   26.8250   48.1400 C   0  0  0  0  0  0  0  0  0  0  0  0
   29.1280   27.1490   47.7500 N   0  0  0  0  0  0  0  0  0  0  0  0
   34.8700   29.8050   49.9630 C   0  0  0  0  0  0  0  0  0  0  0  0
   33.9710   30.4100   49.8680 H   0  0  0  0  0  0  0  0  0  0  0  0
   35.0740   29.7130   51.0640 H   0  0  0  0  0  0  0  0  0  0  0  0
   37.6070   32.2750   49.5140 C   0  0  0  0  0  0  0  0  0  0  0  0
   38.3420   31.7290   48.4360 C   0  0  0  0  0  0  0  0  0  0  0  0
   37.8830   30.5240   47.8830 C   0  0  0  0  0  0  0  0  0  0  0  0
   36.7710   29.9570   48.4120 N   0  0  0  0  0  0  0  0  0  0  0  0
   36.1010   30.5240   49.4500 C   0  0  0  0  0  0  0  0  0  0  0  0
   36.5000   31.6650   50.0040 N   0  0  0  0  0  0  0  0  0  0  0  0
   37.9750   33.1940   49.9190 H   0  0  0  0  0  0  0  0  0  0  0  0
   39.2100   32.1900   48.0370 H   0  0  0  0  0  0  0  0  0  0  0  0
   38.3670   30.0260   47.0640 H   0  0  0  0  0  0  0  0  0  0  0  0
  1 17  1  0  0  0  0
  1  2  1  0  0  0  0
  3  1  1  0  0  0  0
  4  8  1  0  0  0  0
  4  1  1  0  0  0  0
  5  4  2  0  0  0  0
  6  5  1  0  0  0  0
  6  7  1  0  0  0  0
  7 10  1  0  0  0  0
  7  8  2  0  0  0  0
  9  5  1  0  0  0  0
 10 11  1  0  0  0  0
 11 12  2  0  0  0  0
 12 13  1  0  0  0  0
 14 12  1  0  0  0  0
 15 14  2  0  0  0  0
 16 15  1  0  0  0  0
 16 10  2  0  0  0  0
 17 19  1  0  0  0  0
 18 17  1  0  0  0  0
 20 26  1  0  0  0  0
 20 25  1  0  0  0  0
 21 20  2  0  0  0  0
 22 23  2  0  0  0  0
 22 21  1  0  0  0  0
 23 24  1  0  0  0  0
 24 17  1  0  0  0  0
 24 25  2  0  0  0  0
 27 21  1  0  0  0  0
 28 22  1  0  0  0  0
M  END
>  <minimizedAffinity>
-5.38421345

>  <minimizedRMSD>
1.61899865

$$$$
