
 OpenBabel03272510063D

 28 30  0  0  0  0  0  0  0  0999 V2000
   35.9970   29.1330   49.0790 C   0  0  0  0  0  0  0  0  0  0  0  0
   35.8970   30.2730   48.2770 C   0  0  0  0  0  0  0  0  0  0  0  0
   34.7670   30.4140   47.4740 C   0  0  0  0  0  0  0  0  0  0  0  0
   33.8300   29.4360   47.5170 N   0  0  0  0  0  0  0  0  0  0  0  0
   33.9420   28.3470   48.2930 C   0  0  0  0  0  0  0  0  0  0  0  0
   35.0230   28.1740   49.0870 N   0  0  0  0  0  0  0  0  0  0  0  0
   32.8970   27.3620   48.2730 N   0  0  0  0  0  0  0  0  0  0  0  0
   31.5200   27.6850   48.6540 C   0  0  0  0  0  0  0  0  0  0  0  0
   30.7460   26.4720   48.2700 C   0  0  0  0  0  0  0  0  0  0  0  0
   31.6790   25.5990   47.4610 C   0  0  0  0  0  0  0  0  0  0  0  0
   33.0530   25.9790   47.8920 C   0  0  0  0  0  0  0  0  0  0  0  0
   36.8140   28.9140   49.7360 H   0  0  0  0  0  0  0  0  0  0  0  0
   34.6840   31.2840   46.8570 H   0  0  0  0  0  0  0  0  0  0  0  0
   31.4980   27.7910   49.7550 H   0  0  0  0  0  0  0  0  0  0  0  0
   31.1950   28.5950   48.1080 H   0  0  0  0  0  0  0  0  0  0  0  0
   29.9270   26.7790   47.5660 H   0  0  0  0  0  0  0  0  0  0  0  0
   30.3370   25.9480   49.1600 H   0  0  0  0  0  0  0  0  0  0  0  0
   31.4950   25.6380   46.3730 H   0  0  0  0  0  0  0  0  0  0  0  0
   31.4650   24.5410   47.7770 H   0  0  0  0  0  0  0  0  0  0  0  0
   33.7210   25.9850   46.9930 H   0  0  0  0  0  0  0  0  0  0  0  0
   33.5230   25.3460   48.6440 H   0  0  0  0  0  0  0  0  0  0  0  0
   36.9850   31.2400   48.3360 C   0  0  0  0  0  0  0  0  0  0  0  0
   37.9030   31.3940   47.3200 C   0  0  0  0  0  3  0  0  0  0  0  0
   38.9240   32.3290   47.4180 C   0  0  0  0  0  0  0  0  0  0  0  0
   39.6720   32.4950   46.6540 H   0  0  0  0  0  0  0  0  0  0  0  0
   38.9940   33.0700   48.5150 N   0  0  0  0  0  0  0  0  0  0  0  0
   38.0890   32.9040   49.4940 C   0  0  0  0  0  3  0  0  0  0  0  0
   37.0680   31.9980   49.4420 N   0  0  0  0  0  0  0  0  0  0  0  0
  1  6  1  0  0  0  0
  1 12  1  0  0  0  0
  2 22  1  0  0  0  0
  2  1  2  0  0  0  0
  3  4  2  0  0  0  0
  3  2  1  0  0  0  0
  4  5  1  0  0  0  0
  5  6  2  0  0  0  0
  7  5  1  0  0  0  0
  7  8  1  0  0  0  0
  8 14  1  0  0  0  0
  9  8  1  0  0  0  0
  9 17  1  0  0  0  0
 10 19  1  0  0  0  0
 10 11  1  0  0  0  0
 10  9  1  0  0  0  0
 11  7  1  0  0  0  0
 11 21  1  0  0  0  0
 13  3  1  0  0  0  0
 15  8  1  0  0  0  0
 16  9  1  0  0  0  0
 18 10  1  0  0  0  0
 20 11  1  0  0  0  0
 22 28  1  0  0  0  0
 23 24  1  0  0  0  0
 23 22  2  0  0  0  0
 24 26  2  0  0  0  0
 25 24  1  0  0  0  0
 26 27  1  0  0  0  0
 28 27  2  0  0  0  0
M  END
>  <minimizedAffinity>
-5.09750223

>  <minimizedRMSD>
4.30070496

$$$$
