
 OpenBabel03272507283D

 39 41  0  0  1  0  0  0  0  0999 V2000
   38.0120   30.5430   48.5920 C   0  0  0  0  0  0  0  0  0  0  0  0
   37.9840   30.9170   47.2320 C   0  0  0  0  0  0  0  0  0  0  0  0
   36.7910   30.6950   46.5420 C   0  0  0  0  0  0  0  0  0  0  0  0
   35.7490   30.1490   47.1910 N   0  0  0  0  0  0  0  0  0  0  0  0
   35.8130   29.8050   48.4910 C   0  0  0  0  0  0  0  0  0  0  0  0
   36.9330   30.0010   49.1810 N   0  0  0  0  0  0  0  0  0  0  0  0
   36.6830   31.0330   45.1950 N   0  0  0  0  0  0  0  0  0  0  0  0
   37.3800   32.1630   44.5230 C   0  0  0  0  0  0  0  0  0  0  0  0
   36.7890   32.3250   43.1790 C   0  0  0  0  0  0  0  0  0  0  0  0
   35.5270   31.6000   43.2630 C   0  0  0  0  0  0  0  0  0  0  0  0
   35.9130   30.4650   44.1360 C   0  0  2  0  0  0  0  0  0  0  0  0
   38.9920   30.7610   49.0320 H   0  0  0  0  0  0  0  0  0  0  0  0
   38.7870   31.3510   46.6810 H   0  0  0  0  0  0  0  0  0  0  0  0
   35.0220   29.3670   49.0710 H   0  0  0  0  0  0  0  0  0  0  0  0
   38.4270   32.2430   44.6810 H   0  0  0  0  0  0  0  0  0  0  0  0
   36.9760   33.0260   45.1970 H   0  0  0  0  0  0  0  0  0  0  0  0
   36.4060   33.4470   43.1980 H   0  0  0  0  0  0  0  0  0  0  0  0
   37.3780   32.3930   42.3010 H   0  0  0  0  0  0  0  0  0  0  0  0
   34.6980   32.1720   43.7290 H   0  0  0  0  0  0  0  0  0  0  0  0
   35.1370   31.1930   42.3050 H   0  0  0  0  0  0  0  0  0  0  0  0
   34.6600   29.7130   44.5930 C   0  0  0  0  0  0  0  0  0  0  0  0
   34.0600   30.4450   45.5950 F   0  0  0  0  0  0  0  0  0  0  0  0
   34.8800   28.4660   45.1010 F   0  0  0  0  0  0  0  0  0  0  0  0
   33.7900   29.7120   43.5260 F   0  0  0  0  0  0  0  0  0  0  0  0
   36.7340   29.4990   43.4670 C   0  0  2  0  0  0  0  0  0  0  0  0
   37.0260   28.6950   44.1040 H   0  0  0  0  0  0  0  0  0  0  0  0
   38.2100   29.9100   43.0600 C   0  0  0  0  0  0  0  0  0  0  0  0
   39.3000   29.8420   43.9170 C   0  0  0  0  0  3  0  0  0  0  0  0
   40.5220   30.2910   43.4800 C   0  0  0  0  0  0  0  0  0  0  0  0
   41.2980   30.1900   44.2290 H   0  0  0  0  0  0  0  0  0  0  0  0
   40.6810   30.7910   42.2510 N   0  0  0  0  0  0  0  0  0  0  0  0
   39.6500   30.8700   41.4010 C   0  0  0  0  0  3  0  0  0  0  0  0
   38.4890   30.4310   41.8460 N   0  0  0  0  0  0  0  0  0  0  0  0
   36.2450   29.2880   42.3280 O   0  0  0  0  0  0  0  0  0  0  0  0
   35.9490   28.2650   41.5110 C   0  0  0  0  0  0  0  0  0  0  0  0
   34.9570   28.4960   40.8180 O   0  0  0  0  0  0  0  0  0  0  0  0
   36.2610   26.9630   41.0350 N   0  0  0  0  0  0  0  0  0  0  0  0
   36.0160   26.0470   41.4810 H   0  0  0  0  0  0  0  0  0  0  0  0
   36.8000   26.7900   40.1350 H   0  0  0  0  0  0  0  0  0  0  0  0
  1 12  1  0  0  0  0
  1  6  1  0  0  0  0
  2  1  2  0  0  0  0
  3  4  2  0  0  0  0
  3  2  1  0  0  0  0
  4  5  1  0  0  0  0
  5 14  1  0  0  0  0
  5  6  2  0  0  0  0
  7  3  1  0  0  0  0
  8 15  1  0  0  0  0
  8  7  1  0  0  0  0
  8 16  1  0  0  0  0
  9 17  1  0  0  0  0
  9 10  1  0  0  0  0
  9  8  1  0  0  0  0
 10 19  1  0  0  0  0
 10 11  1  0  0  0  0
 11 21  1  1  0  0  0
 11  7  1  0  0  0  0
 13  2  1  0  0  0  0
 18  9  1  0  0  0  0
 20 10  1  0  0  0  0
 21 23  1  0  0  0  0
 21 22  1  0  0  0  0
 24 21  1  0  0  0  0
 25 26  1  1  0  0  0
 25 11  1  0  0  0  0
 27 25  1  0  0  0  0
 27 28  1  0  0  0  0
 29 28  2  0  0  0  0
 29 30  1  0  0  0  0
 31 29  1  0  0  0  0
 32 33  1  0  0  0  0
 32 31  2  0  0  0  0
 33 27  2  0  0  0  0
 34 25  1  0  0  0  0
 35 34  1  0  0  0  0
 36 35  2  0  0  0  0
 37 38  1  0  0  0  0
 37 35  1  0  0  0  0
 39 37  1  0  0  0  0
M  END
>  <minimizedAffinity>
-3.91651797

>  <minimizedRMSD>
3.88877845

$$$$
