
 OpenBabel03272505433D

 22 23  0  0  0  0  0  0  0  0999 V2000
   32.4210   28.0280   49.0980 O   0  0  0  0  0  0  0  0  0  0  0  0
   33.8070   28.2720   48.5400 P   0  0  2  0  0  0  0  0  0  0  0  0
   34.0440   27.1030   47.3320 O   0  0  0  0  0  0  0  0  0  0  0  0
   34.0530   26.1920   47.7500 H   0  0  0  0  0  0  0  0  0  0  0  0
   34.9380   28.0990   49.7950 O   0  0  0  0  0  0  0  0  0  0  0  0
   37.3290   30.3410   51.4040 C   0  0  0  0  0  0  0  0  0  0  0  0
   38.0400   30.7860   50.2430 C   0  0  0  0  0  0  0  0  0  0  0  0
   37.6440   30.2820   48.9980 C   0  0  0  0  0  0  0  0  0  0  0  0
   36.6120   29.4030   48.9590 N   0  0  0  0  0  0  0  0  0  0  0  0
   35.9610   29.0010   50.0690 C   0  0  0  0  0  0  0  0  0  0  0  0
   36.3180   29.4690   51.2840 N   0  0  0  0  0  0  0  0  0  0  0  0
   37.6140   30.7130   52.3810 H   0  0  0  0  0  0  0  0  0  0  0  0
   38.8590   31.4940   50.3580 H   0  0  0  0  0  0  0  0  0  0  0  0
   38.1700   30.6070   48.1030 H   0  0  0  0  0  0  0  0  0  0  0  0
   33.8210   29.7870   47.8380 O   0  0  0  0  0  0  0  0  0  0  0  0
   33.9300   30.0790   46.4920 C   0  0  0  0  0  0  0  0  0  0  0  0
   34.9900   29.9610   45.6170 C   0  0  0  0  0  3  0  0  0  0  0  0
   34.8260   30.3310   44.3010 C   0  0  0  0  0  0  0  0  0  0  0  0
   35.7180   30.2020   43.6880 H   0  0  0  0  0  0  0  0  0  0  0  0
   33.6530   30.7950   43.8950 N   0  0  0  0  0  0  0  0  0  0  0  0
   32.6060   30.9230   44.7160 C   0  0  0  0  0  3  0  0  0  0  0  0
   32.7490   30.5650   46.0090 N   0  0  0  0  0  0  0  0  0  0  0  0
  2  1  2  1  0  0  0
  2  5  1  0  0  0  0
  3  4  1  0  0  0  0
  3  2  1  0  0  0  0
  5 10  1  0  0  0  0
  6 12  1  0  0  0  0
  7 13  1  0  0  0  0
  7  6  2  0  0  0  0
  8  7  1  0  0  0  0
  9  8  2  0  0  0  0
  9 10  1  0  0  0  0
 10 11  2  0  0  0  0
 11  6  1  0  0  0  0
 14  8  1  0  0  0  0
 15  2  1  0  0  0  0
 16 15  1  0  0  0  0
 17 16  2  0  0  0  0
 18 17  1  0  0  0  0
 19 18  1  0  0  0  0
 20 18  2  0  0  0  0
 20 21  1  0  0  0  0
 21 22  2  0  0  0  0
 22 16  1  0  0  0  0
M  END
>  <minimizedAffinity>
-4.33622456

>  <minimizedRMSD>
1.18180251

$$$$
