
 OpenBabel03272509393D

 28 30  0  0  1  0  0  0  0  0999 V2000
   37.7600   25.2900   33.6010 C   0  0  0  0  0  0  0  0  0  0  0  0
   37.0850   26.2990   32.8700 C   0  0  0  0  0  0  0  0  0  0  0  0
   36.7400   27.5320   33.4340 C   0  0  0  0  0  0  0  0  0  0  0  0
   37.0790   27.7630   34.7620 C   0  0  0  0  0  0  0  0  0  0  0  0
   37.7400   26.7580   35.4580 C   0  0  0  0  0  0  0  0  0  0  0  0
   38.0770   25.5430   34.9000 C   0  0  0  0  0  0  0  0  0  0  0  0
   36.8350   26.0800   31.8220 H   0  0  0  0  0  0  0  0  0  0  0  0
   36.2350   28.1830   32.7560 H   0  0  0  0  0  0  0  0  0  0  0  0
   36.7580   28.7430   35.0620 H   0  0  0  0  0  0  0  0  0  0  0  0
   37.9020   27.1670   36.4380 H   0  0  0  0  0  0  0  0  0  0  0  0
   38.6520   24.6520   35.8690 C   0  0  0  0  0  0  0  0  0  0  0  0
   38.0470   24.5050   37.1280 C   0  0  0  0  0  3  0  0  0  0  0  0
   38.4100   23.6590   38.1490 C   0  0  0  0  0  0  0  0  0  0  0  0
   37.9210   23.5710   39.1010 H   0  0  0  0  0  0  0  0  0  0  0  0
   39.4910   22.8540   37.9340 N   0  0  0  0  0  0  0  0  0  0  0  0
   40.1020   22.9500   36.7610 C   0  0  0  0  0  3  0  0  0  0  0  0
   39.6240   23.7950   35.9250 N   0  0  0  0  0  0  0  0  0  0  0  0
   38.0740   24.0630   32.9010 C   0  0  1  0  0  3  0  0  0  0  0  0
   39.2710   24.0210   32.4080 O   0  0  0  0  0  1  0  0  0  0  0  0
   35.6430   21.9350   31.2610 C   0  0  0  0  0  0  0  0  0  0  0  0
   35.4880   20.8610   32.1210 C   0  0  0  0  0  0  0  0  0  0  0  0
   36.2150   20.8730   33.2900 C   0  0  0  0  0  0  0  0  0  0  0  0
   37.0680   21.9180   33.5900 N   0  0  0  0  0  0  0  0  0  0  0  0
   37.1850   22.9310   32.7250 C   0  0  0  0  0  0  0  0  0  0  0  0
   36.4680   22.9190   31.5780 N   0  0  0  0  0  0  0  0  0  0  0  0
   35.0500   21.8780   30.3610 H   0  0  0  0  0  0  0  0  0  0  0  0
   34.8440   19.9960   31.9750 H   0  0  0  0  0  0  0  0  0  0  0  0
   36.1800   20.0910   34.0470 H   0  0  0  0  0  0  0  0  0  0  0  0
  1  6  1  0  0  0  0
  2  3  1  0  0  0  0
  2  1  2  0  0  0  0
  3  4  2  0  0  0  0
  4  9  1  0  0  0  0
  4  5  1  0  0  0  0
  5 10  1  0  0  0  0
  6  5  2  0  0  0  0
  6 11  1  0  0  0  0
  7  2  1  0  0  0  0
  8  3  1  0  0  0  0
 11 17  2  0  0  0  0
 11 12  1  0  0  0  0
 12 13  2  0  0  0  0
 13 14  1  0  0  0  0
 15 13  1  0  0  0  0
 16 15  2  0  0  0  0
 17 16  1  0  0  0  0
 18 19  1  1  0  0  0
 18  1  1  0  0  0  0
 20 25  2  0  0  0  0
 20 21  1  0  0  0  0
 21 22  2  0  0  0  0
 22 23  1  0  0  0  0
 22 28  1  0  0  0  0
 24 18  1  0  0  0  0
 24 23  2  0  0  0  0
 25 24  1  0  0  0  0
 26 20  1  0  0  0  0
 27 21  1  0  0  0  0
M  END
>  <minimizedAffinity>
-5.29091358

$$$$

 OpenBabel03272509393D

 28 30  0  0  1  0  0  0  0  0999 V2000
   39.0370   26.3290   34.1180 C   0  0  0  0  0  0  0  0  0  0  0  0
   40.2890   26.9330   34.3930 C   0  0  0  0  0  0  0  0  0  0  0  0
   41.1500   27.3700   33.3800 C   0  0  0  0  0  0  0  0  0  0  0  0
   40.7480   27.2010   32.0590 C   0  0  0  0  0  0  0  0  0  0  0  0
   39.5160   26.6070   31.8170 C   0  0  0  0  0  0  0  0  0  0  0  0
   38.6710   26.1740   32.8170 C   0  0  0  0  0  0  0  0  0  0  0  0
   40.5720   27.0500   35.4490 H   0  0  0  0  0  0  0  0  0  0  0  0
   42.0540   27.8010   33.7470 H   0  0  0  0  0  0  0  0  0  0  0  0
   41.4990   27.5810   31.3930 H   0  0  0  0  0  0  0  0  0  0  0  0
   39.4250   26.5980   30.7460 H   0  0  0  0  0  0  0  0  0  0  0  0
   37.5180   25.5000   32.2870 C   0  0  0  0  0  0  0  0  0  0  0  0
   36.5080   26.2410   31.6510 C   0  0  0  0  0  3  0  0  0  0  0  0
   35.3760   25.7700   31.0290 C   0  0  0  0  0  0  0  0  0  0  0  0
   34.6240   26.3670   30.5480 H   0  0  0  0  0  0  0  0  0  0  0  0
   35.1890   24.4180   31.0210 N   0  0  0  0  0  0  0  0  0  0  0  0
   36.1120   23.6690   31.6080 C   0  0  0  0  0  3  0  0  0  0  0  0
   37.1060   24.2810   32.1370 N   0  0  0  0  0  0  0  0  0  0  0  0
   38.2310   25.9320   35.2530 C   0  0  1  0  0  3  0  0  0  0  0  0
   37.1310   26.6020   35.3870 O   0  0  0  0  0  1  0  0  0  0  0  0
   39.9810   23.0640   36.6100 C   0  0  0  0  0  0  0  0  0  0  0  0
   39.4050   22.8640   37.8530 C   0  0  0  0  0  0  0  0  0  0  0  0
   38.3890   23.7160   38.2260 C   0  0  0  0  0  0  0  0  0  0  0  0
   37.9640   24.7300   37.3910 N   0  0  0  0  0  0  0  0  0  0  0  0
   38.5540   24.8840   36.2010 C   0  0  0  0  0  0  0  0  0  0  0  0
   39.5500   24.0450   35.8340 N   0  0  0  0  0  0  0  0  0  0  0  0
   40.7700   22.3700   36.3650 H   0  0  0  0  0  0  0  0  0  0  0  0
   39.6690   22.0970   38.5780 H   0  0  0  0  0  0  0  0  0  0  0  0
   37.8560   23.6620   39.1750 H   0  0  0  0  0  0  0  0  0  0  0  0
  1  2  1  0  0  0  0
  1 18  1  0  0  0  0
  2  7  1  0  0  0  0
  3  8  1  0  0  0  0
  3  2  2  0  0  0  0
  4  3  1  0  0  0  0
  5  4  2  0  0  0  0
  5  6  1  0  0  0  0
  6  1  2  0  0  0  0
  9  4  1  0  0  0  0
 10  5  1  0  0  0  0
 11  6  1  0  0  0  0
 12 11  2  0  0  0  0
 13 12  1  0  0  0  0
 14 13  1  0  0  0  0
 15 13  2  0  0  0  0
 15 16  1  0  0  0  0
 16 17  2  0  0  0  0
 17 11  1  0  0  0  0
 18 19  1  6  0  0  0
 18 24  1  0  0  0  0
 20 21  1  0  0  0  0
 21 22  2  0  0  0  0
 21 27  1  0  0  0  0
 22 28  1  0  0  0  0
 23 22  1  0  0  0  0
 24 23  2  0  0  0  0
 25 24  1  0  0  0  0
 25 20  2  0  0  0  0
 26 20  1  0  0  0  0
M  END
>  <minimizedAffinity>
-5.2390542

$$$$

 OpenBabel03272509393D

 28 30  0  0  1  0  0  0  0  0999 V2000
   37.0710   24.6230   32.3500 C   0  0  0  0  0  0  0  0  0  0  0  0
   36.9290   26.0260   32.2130 C   0  0  0  0  0  0  0  0  0  0  0  0
   35.9030   26.6070   31.4590 C   0  0  0  0  0  0  0  0  0  0  0  0
   34.9960   25.7650   30.8270 C   0  0  0  0  0  0  0  0  0  0  0  0
   35.1560   24.3930   30.9770 C   0  0  0  0  0  0  0  0  0  0  0  0
   36.1700   23.8230   31.7180 C   0  0  0  0  0  0  0  0  0  0  0  0
   37.6640   26.6600   32.7290 H   0  0  0  0  0  0  0  0  0  0  0  0
   35.9320   27.6740   31.4530 H   0  0  0  0  0  0  0  0  0  0  0  0
   34.2670   26.3410   30.2900 H   0  0  0  0  0  0  0  0  0  0  0  0
   34.3450   23.9620   30.4180 H   0  0  0  0  0  0  0  0  0  0  0  0
   36.1670   22.3900   31.6140 C   0  0  0  0  0  0  0  0  0  0  0  0
   35.1680   21.6450   32.2620 C   0  0  0  0  0  3  0  0  0  0  0  0
   34.9640   20.2860   32.2220 C   0  0  0  0  0  0  0  0  0  0  0  0
   34.1850   19.7490   32.7290 H   0  0  0  0  0  0  0  0  0  0  0  0
   35.8300   19.5500   31.4670 N   0  0  0  0  0  0  0  0  0  0  0  0
   36.7950   20.2020   30.8320 C   0  0  0  0  0  3  0  0  0  0  0  0
   36.8330   21.4730   30.9830 N   0  0  0  0  0  0  0  0  0  0  0  0
   38.1650   24.1450   33.1680 C   0  0  1  0  0  3  0  0  0  0  0  0
   39.2740   23.9670   32.5240 O   0  0  0  0  0  1  0  0  0  0  0  0
   38.1450   24.8590   36.7210 C   0  0  0  0  0  0  0  0  0  0  0  0
   37.9540   23.6260   37.3190 C   0  0  0  0  0  0  0  0  0  0  0  0
   37.8460   22.5290   36.4950 C   0  0  0  0  0  0  0  0  0  0  0  0
   37.9250   22.6570   35.1220 N   0  0  0  0  0  0  0  0  0  0  0  0
   38.1080   23.8700   34.5910 C   0  0  0  0  0  0  0  0  0  0  0  0
   38.2160   24.9480   35.4020 N   0  0  0  0  0  0  0  0  0  0  0  0
   38.2240   25.6850   37.4100 H   0  0  0  0  0  0  0  0  0  0  0  0
   37.8790   23.4240   38.3860 H   0  0  0  0  0  0  0  0  0  0  0  0
   37.6960   21.5070   36.8420 H   0  0  0  0  0  0  0  0  0  0  0  0
  1 18  1  0  0  0  0
  2  1  1  0  0  0  0
  2  7  1  0  0  0  0
  3  2  2  0  0  0  0
  4  5  2  0  0  0  0
  4  3  1  0  0  0  0
  5  6  1  0  0  0  0
  6  1  2  0  0  0  0
  8  3  1  0  0  0  0
  9  4  1  0  0  0  0
 10  5  1  0  0  0  0
 11  6  1  0  0  0  0
 11 12  1  0  0  0  0
 13 12  2  0  0  0  0
 13 14  1  0  0  0  0
 15 13  1  0  0  0  0
 16 17  1  0  0  0  0
 16 15  2  0  0  0  0
 17 11  2  0  0  0  0
 18 19  1  1  0  0  0
 18 24  1  0  0  0  0
 20 21  1  0  0  0  0
 20 26  1  0  0  0  0
 21 27  1  0  0  0  0
 22 28  1  0  0  0  0
 22 21  2  0  0  0  0
 23 22  1  0  0  0  0
 24 23  2  0  0  0  0
 24 25  1  0  0  0  0
 25 20  2  0  0  0  0
M  END
>  <minimizedAffinity>
-5.11828613

$$$$

 OpenBabel03272509393D

 28 30  0  0  1  0  0  0  0  0999 V2000
   39.8380   26.7810   34.1600 C   0  0  0  0  0  0  0  0  0  0  0  0
   41.2250   26.9660   34.3840 C   0  0  0  0  0  0  0  0  0  0  0  0
   42.1150   27.2960   33.3560 C   0  0  0  0  0  0  0  0  0  0  0  0
   41.6060   27.4450   32.0710 C   0  0  0  0  0  0  0  0  0  0  0  0
   40.2430   27.2580   31.8760 C   0  0  0  0  0  0  0  0  0  0  0  0
   39.3680   26.9310   32.8910 C   0  0  0  0  0  0  0  0  0  0  0  0
   41.5900   26.8420   35.4140 H   0  0  0  0  0  0  0  0  0  0  0  0
   43.1250   27.3990   33.6850 H   0  0  0  0  0  0  0  0  0  0  0  0
   42.3940   27.6980   31.3870 H   0  0  0  0  0  0  0  0  0  0  0  0
   40.0920   27.4350   30.8270 H   0  0  0  0  0  0  0  0  0  0  0  0
   38.0420   26.6900   32.3960 C   0  0  0  0  0  0  0  0  0  0  0  0
   37.1840   27.7730   32.1420 C   0  0  0  0  0  3  0  0  0  0  0  0
   35.9170   27.7440   31.6090 C   0  0  0  0  0  0  0  0  0  0  0  0
   35.2890   28.5950   31.4250 H   0  0  0  0  0  0  0  0  0  0  0  0
   35.4100   26.5200   31.2800 N   0  0  0  0  0  0  0  0  0  0  0  0
   36.1770   25.4600   31.4980 C   0  0  0  0  0  3  0  0  0  0  0  0
   37.3350   25.6760   32.0020 N   0  0  0  0  0  0  0  0  0  0  0  0
   39.0190   26.4570   35.3080 C   0  0  1  0  0  3  0  0  0  0  0  0
   38.6740   27.4790   36.0230 O   0  0  0  0  0  1  0  0  0  0  0  0
   37.5950   23.8790   37.4190 C   0  0  0  0  0  0  0  0  0  0  0  0
   37.6040   22.7420   36.6290 C   0  0  0  0  0  0  0  0  0  0  0  0
   38.1200   22.8550   35.3580 C   0  0  0  0  0  0  0  0  0  0  0  0
   38.6100   24.0590   34.8910 N   0  0  0  0  0  0  0  0  0  0  0  0
   38.5780   25.1300   35.6910 C   0  0  0  0  0  0  0  0  0  0  0  0
   38.0710   25.0170   36.9410 N   0  0  0  0  0  0  0  0  0  0  0  0
   37.1810   23.7370   38.4050 H   0  0  0  0  0  0  0  0  0  0  0  0
   37.2420   21.7540   36.9060 H   0  0  0  0  0  0  0  0  0  0  0  0
   38.1850   22.0360   34.6420 H   0  0  0  0  0  0  0  0  0  0  0  0
  1  2  1  0  0  0  0
  1 18  1  0  0  0  0
  2  7  1  0  0  0  0
  3  8  1  0  0  0  0
  3  2  2  0  0  0  0
  4  3  1  0  0  0  0
  5  4  2  0  0  0  0
  5  6  1  0  0  0  0
  6  1  2  0  0  0  0
  9  4  1  0  0  0  0
 10  5  1  0  0  0  0
 11  6  1  0  0  0  0
 12 11  1  0  0  0  0
 13 12  2  0  0  0  0
 14 13  1  0  0  0  0
 15 16  2  0  0  0  0
 15 13  1  0  0  0  0
 16 17  1  0  0  0  0
 17 11  2  0  0  0  0
 18 24  1  0  0  0  0
 18 19  1  6  0  0  0
 20 26  1  0  0  0  0
 21 27  1  0  0  0  0
 21 20  2  0  0  0  0
 22 21  1  0  0  0  0
 23 22  2  0  0  0  0
 23 24  1  0  0  0  0
 24 25  2  0  0  0  0
 25 20  1  0  0  0  0
 28 22  1  0  0  0  0
M  END
>  <minimizedAffinity>
-5.10176992

$$$$

 OpenBabel03272509393D

 28 30  0  0  1  0  0  0  0  0999 V2000
   37.1610   22.7350   33.2370 C   0  0  0  0  0  0  0  0  0  0  0  0
   36.2690   22.2110   32.2690 C   0  0  0  0  0  0  0  0  0  0  0  0
   35.4910   21.0720   32.5030 C   0  0  0  0  0  0  0  0  0  0  0  0
   35.6060   20.4410   33.7370 C   0  0  0  0  0  0  0  0  0  0  0  0
   36.4870   20.9740   34.6690 C   0  0  0  0  0  0  0  0  0  0  0  0
   37.2550   22.0950   34.4350 C   0  0  0  0  0  0  0  0  0  0  0  0
   36.2040   22.7370   31.3060 H   0  0  0  0  0  0  0  0  0  0  0  0
   34.8720   20.8030   31.6770 H   0  0  0  0  0  0  0  0  0  0  0  0
   34.9550   19.5880   33.7790 H   0  0  0  0  0  0  0  0  0  0  0  0
   36.3940   20.3340   35.5280 H   0  0  0  0  0  0  0  0  0  0  0  0
   38.1560   22.3620   35.5220 C   0  0  0  0  0  0  0  0  0  0  0  0
   37.6900   23.0290   36.6670 C   0  0  0  0  0  3  0  0  0  0  0  0
   38.3780   23.3110   37.8230 C   0  0  0  0  0  0  0  0  0  0  0  0
   37.9880   23.8210   38.6830 H   0  0  0  0  0  0  0  0  0  0  0  0
   39.6790   22.9020   37.8860 N   0  0  0  0  0  0  0  0  0  0  0  0
   40.1730   22.2660   36.8310 C   0  0  0  0  0  3  0  0  0  0  0  0
   39.3840   22.0900   35.8380 N   0  0  0  0  0  0  0  0  0  0  0  0
   37.9000   23.9270   32.8800 C   0  0  1  0  0  3  0  0  0  0  0  0
   39.0590   23.6970   32.3490 O   0  0  0  0  0  1  0  0  0  0  0  0
   37.2140   27.0190   34.6390 C   0  0  0  0  0  0  0  0  0  0  0  0
   36.7420   27.8760   33.6590 C   0  0  0  0  0  0  0  0  0  0  0  0
   36.6430   27.3830   32.3780 C   0  0  0  0  0  0  0  0  0  0  0  0
   37.0010   26.0820   32.0840 N   0  0  0  0  0  0  0  0  0  0  0  0
   37.4530   25.2930   33.0640 C   0  0  0  0  0  0  0  0  0  0  0  0
   37.5490   25.7780   34.3240 N   0  0  0  0  0  0  0  0  0  0  0  0
   37.2720   27.4540   35.6250 H   0  0  0  0  0  0  0  0  0  0  0  0
   36.4370   28.9120   33.7910 H   0  0  0  0  0  0  0  0  0  0  0  0
   36.2860   27.9550   31.5220 H   0  0  0  0  0  0  0  0  0  0  0  0
  1  6  1  0  0  0  0
  2  3  1  0  0  0  0
  2  1  2  0  0  0  0
  3  4  2  0  0  0  0
  4  9  1  0  0  0  0
  4  5  1  0  0  0  0
  5 10  1  0  0  0  0
  6  5  2  0  0  0  0
  6 11  1  0  0  0  0
  7  2  1  0  0  0  0
  8  3  1  0  0  0  0
 11 17  2  0  0  0  0
 11 12  1  0  0  0  0
 12 13  2  0  0  0  0
 13 15  1  0  0  0  0
 13 14  1  0  0  0  0
 16 15  2  0  0  0  0
 17 16  1  0  0  0  0
 18 19  1  6  0  0  0
 18 24  1  0  0  0  0
 18  1  1  0  0  0  0
 20 26  1  0  0  0  0
 21 27  1  0  0  0  0
 21 20  2  0  0  0  0
 22 21  1  0  0  0  0
 23 22  2  0  0  0  0
 23 24  1  0  0  0  0
 24 25  2  0  0  0  0
 25 20  1  0  0  0  0
 28 22  1  0  0  0  0
M  END
>  <minimizedAffinity>
-5.05258036

$$$$

 OpenBabel03272509393D

 28 30  0  0  1  0  0  0  0  0999 V2000
   38.7980   23.7480   35.9750 C   0  0  0  0  0  0  0  0  0  0  0  0
   37.8120   24.3610   36.7850 C   0  0  0  0  0  0  0  0  0  0  0  0
   37.8080   24.2450   38.1800 C   0  0  0  0  0  0  0  0  0  0  0  0
   38.8150   23.4990   38.7790 C   0  0  0  0  0  0  0  0  0  0  0  0
   39.7710   22.9070   37.9630 C   0  0  0  0  0  0  0  0  0  0  0  0
   39.7710   23.0210   36.5880 C   0  0  0  0  0  0  0  0  0  0  0  0
   37.0320   24.9450   36.2760 H   0  0  0  0  0  0  0  0  0  0  0  0
   37.0000   24.7630   38.6470 H   0  0  0  0  0  0  0  0  0  0  0  0
   38.6910   23.4970   39.8450 H   0  0  0  0  0  0  0  0  0  0  0  0
   40.4360   22.4060   38.6420 H   0  0  0  0  0  0  0  0  0  0  0  0
   40.8030   22.2220   35.9870 C   0  0  0  0  0  0  0  0  0  0  0  0
   41.6580   21.4600   36.8000 C   0  0  0  0  0  3  0  0  0  0  0  0
   42.6500   20.5920   36.4080 C   0  0  0  0  0  0  0  0  0  0  0  0
   43.2840   20.0210   37.0590 H   0  0  0  0  0  0  0  0  0  0  0  0
   42.8460   20.4390   35.0650 N   0  0  0  0  0  0  0  0  0  0  0  0
   42.0660   21.1360   34.2500 C   0  0  0  0  0  3  0  0  0  0  0  0
   41.1910   21.8970   34.7930 N   0  0  0  0  0  0  0  0  0  0  0  0
   38.7020   23.9530   34.5450 C   0  0  1  0  0  3  0  0  0  0  0  0
   39.4970   24.8640   34.0820 O   0  0  0  0  0  1  0  0  0  0  0  0
   36.6410   21.2360   33.3230 C   0  0  0  0  0  0  0  0  0  0  0  0
   36.1040   21.7150   32.1400 C   0  0  0  0  0  0  0  0  0  0  0  0
   36.4660   22.9830   31.7450 C   0  0  0  0  0  0  0  0  0  0  0  0
   37.3320   23.7470   32.5040 N   0  0  0  0  0  0  0  0  0  0  0  0
   37.8220   23.2410   33.6400 C   0  0  0  0  0  0  0  0  0  0  0  0
   37.4660   21.9930   34.0260 N   0  0  0  0  0  0  0  0  0  0  0  0
   36.3260   20.2380   33.5860 H   0  0  0  0  0  0  0  0  0  0  0  0
   35.4180   21.1920   31.4770 H   0  0  0  0  0  0  0  0  0  0  0  0
   36.1150   23.4710   30.8370 H   0  0  0  0  0  0  0  0  0  0  0  0
  1  6  2  0  0  0  0
  1  2  1  0  0  0  0
  2  3  2  0  0  0  0
  3  8  1  0  0  0  0
  3  4  1  0  0  0  0
  4  9  1  0  0  0  0
  5 10  1  0  0  0  0
  5  4  2  0  0  0  0
  6  5  1  0  0  0  0
  7  2  1  0  0  0  0
 11  6  1  0  0  0  0
 11 12  1  0  0  0  0
 13 12  2  0  0  0  0
 13 14  1  0  0  0  0
 15 13  1  0  0  0  0
 16 17  1  0  0  0  0
 16 15  2  0  0  0  0
 17 11  2  0  0  0  0
 18 19  1  6  0  0  0
 18  1  1  0  0  0  0
 20 26  1  0  0  0  0
 20 25  1  0  0  0  0
 21 20  2  0  0  0  0
 22 21  1  0  0  0  0
 22 23  2  0  0  0  0
 23 24  1  0  0  0  0
 24 25  2  0  0  0  0
 24 18  1  0  0  0  0
 27 21  1  0  0  0  0
 28 22  1  0  0  0  0
M  END
>  <minimizedAffinity>
-5.03229332

$$$$

 OpenBabel03272509393D

 28 30  0  0  1  0  0  0  0  0999 V2000
   37.4300   22.0810   33.5940 C   0  0  0  0  0  0  0  0  0  0  0  0
   36.5780   20.9800   33.8570 C   0  0  0  0  0  0  0  0  0  0  0  0
   35.4110   20.7410   33.1220 C   0  0  0  0  0  0  0  0  0  0  0  0
   35.0880   21.6250   32.0990 C   0  0  0  0  0  0  0  0  0  0  0  0
   35.9390   22.6970   31.8620 C   0  0  0  0  0  0  0  0  0  0  0  0
   37.0880   22.9310   32.5890 C   0  0  0  0  0  0  0  0  0  0  0  0
   36.8670   20.3010   34.6730 H   0  0  0  0  0  0  0  0  0  0  0  0
   34.8780   19.8740   33.4420 H   0  0  0  0  0  0  0  0  0  0  0  0
   34.1760   21.3220   31.6220 H   0  0  0  0  0  0  0  0  0  0  0  0
   35.4950   23.2190   31.0340 H   0  0  0  0  0  0  0  0  0  0  0  0
   37.7190   24.1640   32.2080 C   0  0  0  0  0  0  0  0  0  0  0  0
   37.2440   25.3800   32.7260 C   0  0  0  0  0  3  0  0  0  0  0  0
   37.7550   26.6420   32.5320 C   0  0  0  0  0  0  0  0  0  0  0  0
   37.3680   27.5520   32.9480 H   0  0  0  0  0  0  0  0  0  0  0  0
   38.8610   26.7480   31.7390 N   0  0  0  0  0  0  0  0  0  0  0  0
   39.3530   25.6300   31.2210 C   0  0  0  0  0  3  0  0  0  0  0  0
   38.7460   24.5400   31.5110 N   0  0  0  0  0  0  0  0  0  0  0  0
   38.6160   22.2110   34.4150 C   0  0  1  0  0  3  0  0  0  0  0  0
   39.7190   21.9050   33.8100 O   0  0  0  0  0  1  0  0  0  0  0  0
   39.9480   22.6460   37.7560 C   0  0  0  0  0  0  0  0  0  0  0  0
   38.9930   23.4040   38.4120 C   0  0  0  0  0  0  0  0  0  0  0  0
   37.8670   23.7590   37.7040 C   0  0  0  0  0  0  0  0  0  0  0  0
   37.6990   23.3730   36.3890 N   0  0  0  0  0  0  0  0  0  0  0  0
   38.6500   22.6430   35.7980 C   0  0  0  0  0  0  0  0  0  0  0  0
   39.7560   22.2930   36.4950 N   0  0  0  0  0  0  0  0  0  0  0  0
   40.8100   22.3940   38.3550 H   0  0  0  0  0  0  0  0  0  0  0  0
   39.0340   23.7560   39.4410 H   0  0  0  0  0  0  0  0  0  0  0  0
   37.0450   24.3510   38.1070 H   0  0  0  0  0  0  0  0  0  0  0  0
  1  2  1  0  0  0  0
  1 18  1  0  0  0  0
  2  7  1  0  0  0  0
  3  8  1  0  0  0  0
  3  2  2  0  0  0  0
  4  3  1  0  0  0  0
  5  4  2  0  0  0  0
  5  6  1  0  0  0  0
  6  1  2  0  0  0  0
  9  4  1  0  0  0  0
 10  5  1  0  0  0  0
 11  6  1  0  0  0  0
 11 12  1  0  0  0  0
 13 12  2  0  0  0  0
 13 14  1  0  0  0  0
 15 13  1  0  0  0  0
 16 17  1  0  0  0  0
 16 15  2  0  0  0  0
 17 11  2  0  0  0  0
 18 19  1  6  0  0  0
 18 24  1  0  0  0  0
 20 26  1  0  0  0  0
 20 21  1  0  0  0  0
 21 27  1  0  0  0  0
 22 28  1  0  0  0  0
 22 21  2  0  0  0  0
 23 22  1  0  0  0  0
 24 23  2  0  0  0  0
 24 25  1  0  0  0  0
 25 20  2  0  0  0  0
M  END
>  <minimizedAffinity>
-5.03115273

$$$$

 OpenBabel03272509393D

 28 30  0  0  1  0  0  0  0  0999 V2000
   36.6210   28.4670   32.8470 C   0  0  0  0  0  0  0  0  0  0  0  0
   36.1370   28.6430   34.1670 C   0  0  0  0  0  0  0  0  0  0  0  0
   35.4080   29.7720   34.5550 C   0  0  0  0  0  0  0  0  0  0  0  0
   35.1560   30.7510   33.6000 C   0  0  0  0  0  0  0  0  0  0  0  0
   35.6410   30.5550   32.3140 C   0  0  0  0  0  0  0  0  0  0  0  0
   36.3610   29.4420   31.9340 C   0  0  0  0  0  0  0  0  0  0  0  0
   36.3550   27.8470   34.8940 H   0  0  0  0  0  0  0  0  0  0  0  0
   35.1160   29.7570   35.5820 H   0  0  0  0  0  0  0  0  0  0  0  0
   34.5890   31.5530   34.0330 H   0  0  0  0  0  0  0  0  0  0  0  0
   35.3160   31.4210   31.7660 H   0  0  0  0  0  0  0  0  0  0  0  0
   36.8330   29.5480   30.5810 C   0  0  0  0  0  0  0  0  0  0  0  0
   36.9140   30.8080   29.9660 C   0  0  0  0  0  3  0  0  0  0  0  0
   37.3980   31.1120   28.7160 C   0  0  0  0  0  0  0  0  0  0  0  0
   37.4480   32.0910   28.2780 H   0  0  0  0  0  0  0  0  0  0  0  0
   37.8620   30.0740   27.9610 N   0  0  0  0  0  0  0  0  0  0  0  0
   37.8090   28.8600   28.4910 C   0  0  0  0  0  3  0  0  0  0  0  0
   37.3260   28.7640   29.6740 N   0  0  0  0  0  0  0  0  0  0  0  0
   37.3500   27.2490   32.5660 C   0  0  1  0  0  3  0  0  0  0  0  0
   38.6340   27.3530   32.6960 O   0  0  0  0  0  1  0  0  0  0  0  0
   35.0530   24.9850   30.9140 C   0  0  0  0  0  0  0  0  0  0  0  0
   35.5270   23.7230   31.2270 C   0  0  0  0  0  0  0  0  0  0  0  0
   36.6420   23.6440   32.0310 C   0  0  0  0  0  0  0  0  0  0  0  0
   37.2630   24.7840   32.5050 N   0  0  0  0  0  0  0  0  0  0  0  0
   36.7690   25.9810   32.1710 C   0  0  0  0  0  0  0  0  0  0  0  0
   35.6720   26.0570   31.3830 N   0  0  0  0  0  0  0  0  0  0  0  0
   34.1780   24.9920   30.2820 H   0  0  0  0  0  0  0  0  0  0  0  0
   35.1100   22.7710   30.9050 H   0  0  0  0  0  0  0  0  0  0  0  0
   37.1100   22.7130   32.3500 H   0  0  0  0  0  0  0  0  0  0  0  0
  1  2  1  0  0  0  0
  2  3  2  0  0  0  0
  2  7  1  0  0  0  0
  3  8  1  0  0  0  0
  4  9  1  0  0  0  0
  4  3  1  0  0  0  0
  5  4  2  0  0  0  0
  6  5  1  0  0  0  0
  6  1  2  0  0  0  0
 10  5  1  0  0  0  0
 11  6  1  0  0  0  0
 12 11  1  0  0  0  0
 13 12  2  0  0  0  0
 14 13  1  0  0  0  0
 15 16  2  0  0  0  0
 15 13  1  0  0  0  0
 16 17  1  0  0  0  0
 17 11  2  0  0  0  0
 18 19  1  1  0  0  0
 18  1  1  0  0  0  0
 20 21  2  0  0  0  0
 20 25  1  0  0  0  0
 21 22  1  0  0  0  0
 22 28  1  0  0  0  0
 22 23  2  0  0  0  0
 24 23  1  0  0  0  0
 24 18  1  0  0  0  0
 25 24  2  0  0  0  0
 26 20  1  0  0  0  0
 27 21  1  0  0  0  0
M  END
>  <minimizedAffinity>
-5.0307622

$$$$

 OpenBabel03272509393D

 28 30  0  0  1  0  0  0  0  0999 V2000
   34.6340   30.8200   34.8260 C   0  0  0  0  0  0  0  0  0  0  0  0
   35.6310   31.7530   35.2040 C   0  0  0  0  0  0  0  0  0  0  0  0
   35.5280   32.5350   36.3600 C   0  0  0  0  0  0  0  0  0  0  0  0
   34.4020   32.3790   37.1590 C   0  0  0  0  0  0  0  0  0  0  0  0
   33.4390   31.4570   36.7680 C   0  0  0  0  0  0  0  0  0  0  0  0
   33.5410   30.6900   35.6260 C   0  0  0  0  0  0  0  0  0  0  0  0
   36.5080   31.8480   34.5470 H   0  0  0  0  0  0  0  0  0  0  0  0
   36.3580   33.1900   36.5050 H   0  0  0  0  0  0  0  0  0  0  0  0
   34.4560   33.0350   38.0070 H   0  0  0  0  0  0  0  0  0  0  0  0
   32.6870   31.5070   37.5340 H   0  0  0  0  0  0  0  0  0  0  0  0
   32.3590   29.9040   35.4030 C   0  0  0  0  0  0  0  0  0  0  0  0
   32.1610   28.7200   36.1320 C   0  0  0  0  0  3  0  0  0  0  0  0
   31.0730   27.8800   36.1060 C   0  0  0  0  0  0  0  0  0  0  0  0
   30.9530   26.9820   36.6810 H   0  0  0  0  0  0  0  0  0  0  0  0
   30.0460   28.2210   35.2720 N   0  0  0  0  0  0  0  0  0  0  0  0
   30.1800   29.3310   34.5580 C   0  0  0  0  0  3  0  0  0  0  0  0
   31.2660   29.9920   34.7120 N   0  0  0  0  0  0  0  0  0  0  0  0
   34.8630   30.0610   33.6150 C   0  0  1  0  0  3  0  0  0  0  0  0
   34.3180   30.5690   32.5560 O   0  0  0  0  0  1  0  0  0  0  0  0
   36.3130   27.1410   32.0330 C   0  0  0  0  0  0  0  0  0  0  0  0
   37.0560   26.5400   33.0350 C   0  0  0  0  0  0  0  0  0  0  0  0
   37.0490   27.1340   34.2760 C   0  0  0  0  0  0  0  0  0  0  0  0
   36.3260   28.2880   34.5110 N   0  0  0  0  0  0  0  0  0  0  0  0
   35.6250   28.8320   33.5110 C   0  0  0  0  0  0  0  0  0  0  0  0
   35.6320   28.2460   32.2910 N   0  0  0  0  0  0  0  0  0  0  0  0
   36.3520   26.6360   31.0800 H   0  0  0  0  0  0  0  0  0  0  0  0
   37.6550   25.6350   32.9480 H   0  0  0  0  0  0  0  0  0  0  0  0
   37.5900   26.7590   35.1440 H   0  0  0  0  0  0  0  0  0  0  0  0
  1  2  2  0  0  0  0
  1  6  1  0  0  0  0
  2  3  1  0  0  0  0
  3  8  1  0  0  0  0
  3  4  2  0  0  0  0
  4  9  1  0  0  0  0
  5  4  1  0  0  0  0
  5 10  1  0  0  0  0
  6  5  2  0  0  0  0
  7  2  1  0  0  0  0
 11  6  1  0  0  0  0
 11 12  1  0  0  0  0
 13 12  2  0  0  0  0
 13 14  1  0  0  0  0
 15 13  1  0  0  0  0
 16 17  1  0  0  0  0
 16 15  2  0  0  0  0
 17 11  2  0  0  0  0
 18 19  1  6  0  0  0
 18  1  1  0  0  0  0
 20 25  2  0  0  0  0
 20 21  1  0  0  0  0
 21 22  2  0  0  0  0
 22 23  1  0  0  0  0
 22 28  1  0  0  0  0
 24 18  1  0  0  0  0
 24 23  2  0  0  0  0
 25 24  1  0  0  0  0
 26 20  1  0  0  0  0
 27 21  1  0  0  0  0
M  END
>  <minimizedAffinity>
-4.93110847

$$$$
