
 OpenBabel03272510043D

 35 37  0  0  0  0  0  0  0  0999 V2000
   36.1920   30.2290   46.4470 C   0  0  0  0  0  0  0  0  0  0  0  0
   37.4500   30.7390   46.3600 C   0  0  0  0  0  0  0  0  0  0  0  0
   38.1870   30.9590   47.5180 C   0  0  0  0  0  0  0  0  0  0  0  0
   37.6900   30.6790   48.7760 C   0  0  0  0  0  0  0  0  0  0  0  0
   36.4260   30.1680   48.9020 C   0  0  0  0  0  0  0  0  0  0  0  0
   35.7260   29.9620   47.7390 C   0  0  0  0  0  0  0  0  0  0  0  0
   39.2020   31.3700   47.4170 H   0  0  0  0  0  0  0  0  0  0  0  0
   38.3480   30.8860   49.6020 H   0  0  0  0  0  0  0  0  0  0  0  0
   36.0980   29.9750   49.8910 H   0  0  0  0  0  0  0  0  0  0  0  0
   34.7330   29.5560   47.9720 H   0  0  0  0  0  0  0  0  0  0  0  0
   38.3150   32.7160   43.3850 C   0  0  0  0  0  0  0  0  0  0  0  0
   37.7810   32.3340   44.6070 C   0  0  0  0  0  0  0  0  0  0  0  0
   38.0280   31.0940   45.1090 C   0  0  0  0  0  0  0  0  0  0  0  0
   38.8140   30.2680   44.3650 N   0  0  0  0  0  0  0  0  0  0  0  0
   39.3360   30.6350   43.1860 C   0  0  0  0  0  0  0  0  0  0  0  0
   39.0810   31.8540   42.7050 N   0  0  0  0  0  0  0  0  0  0  0  0
   38.2170   33.6480   42.8490 H   0  0  0  0  0  0  0  0  0  0  0  0
   37.2590   33.1980   44.9420 H   0  0  0  0  0  0  0  0  0  0  0  0
   40.2330   29.6560   42.5170 C   0  0  0  0  0  0  0  0  0  0  0  0
   41.5440   29.7900   42.9280 F   0  0  0  0  0  0  0  0  0  0  0  0
   39.8940   28.3280   42.9850 F   0  0  0  0  0  0  0  0  0  0  0  0
   40.1460   29.5530   41.2100 F   0  0  0  0  0  0  0  0  0  0  0  0
   35.2030   29.8870   45.0990 S   0  0  0  0  0  0  0  0  0  0  0  0
   34.0600   30.8230   44.9940 O   0  0  0  0  0  0  0  0  0  0  0  0
   34.4180   28.7220   45.6700 O   0  0  0  0  0  0  0  0  0  0  0  0
   35.5190   28.8800   43.7690 C   0  0  0  0  0  0  0  0  0  0  0  0
   36.5250   28.3690   44.0430 H   0  0  0  0  0  0  0  0  0  0  0  0
   34.8910   27.9730   43.7010 H   0  0  0  0  0  0  0  0  0  0  0  0
   35.8700   29.5290   42.5170 C   0  0  0  0  0  0  0  0  0  0  0  0
   36.6180   28.7540   41.6530 C   0  0  0  0  0  3  0  0  0  0  0  0
   37.0490   29.2060   40.4040 C   0  0  0  0  0  0  0  0  0  0  0  0
   37.6340   28.5950   39.7290 H   0  0  0  0  0  0  0  0  0  0  0  0
   36.7230   30.4720   40.0090 N   0  0  0  0  0  0  0  0  0  0  0  0
   35.9950   31.1900   40.8830 C   0  0  0  0  0  3  0  0  0  0  0  0
   35.5610   30.7710   42.1080 N   0  0  0  0  0  0  0  0  0  0  0  0
  1  6  1  0  0  0  0
  2  1  2  0  0  0  0
  2  3  1  0  0  0  0
  3  4  2  0  0  0  0
  4  5  1  0  0  0  0
  4  8  1  0  0  0  0
  5  9  1  0  0  0  0
  6 10  1  0  0  0  0
  6  5  2  0  0  0  0
  7  3  1  0  0  0  0
 11 12  1  0  0  0  0
 12 18  1  0  0  0  0
 12 13  2  0  0  0  0
 13  2  1  0  0  0  0
 14 13  1  0  0  0  0
 15 14  2  0  0  0  0
 16 15  1  0  0  0  0
 16 11  2  0  0  0  0
 17 11  1  0  0  0  0
 19 20  1  0  0  0  0
 19 21  1  0  0  0  0
 19 15  1  0  0  0  0
 22 19  1  0  0  0  0
 23 25  2  0  0  0  0
 23  1  1  0  0  0  0
 24 23  2  0  0  0  0
 26 27  1  0  0  0  0
 26 23  1  0  0  0  0
 28 26  1  0  0  0  0
 29 26  1  0  0  0  0
 30 29  2  0  0  0  0
 31 30  1  0  0  0  0
 32 31  1  0  0  0  0
 33 31  2  0  0  0  0
 33 34  1  0  0  0  0
 34 35  2  0  0  0  0
 35 29  1  0  0  0  0
M  END
>  <minimizedAffinity>
-4.40938997

>  <minimizedRMSD>
6.86441231

$$$$
