
 OpenBabel03272504413D

 43 45  0  0  0  0  0  0  0  0999 V2000
   34.7950   29.3820   48.8250 C   0  0  0  0  0  0  0  0  0  0  0  0
   35.7010   29.3960   49.4730 H   0  0  0  0  0  0  0  0  0  0  0  0
   34.1640   30.2130   49.2610 H   0  0  0  0  0  0  0  0  0  0  0  0
   37.5590   30.4440   48.5240 Cl  0  0  0  0  0  0  0  0  0  0  0  0
   36.4110   30.2940   47.1950 C   0  0  0  0  0  0  0  0  0  0  0  0
   36.7850   30.6780   45.9540 C   0  0  0  0  0  0  0  0  0  0  0  0
   35.8990   30.5670   44.9040 C   0  0  0  0  0  0  0  0  0  0  0  0
   34.6280   30.0560   45.1490 C   0  0  0  0  0  0  0  0  0  0  0  0
   34.3140   29.6780   46.4680 C   0  0  0  0  0  0  0  0  0  0  0  0
   35.1680   29.7810   47.5010 C   0  0  0  0  0  0  0  0  0  0  0  0
   36.2270   30.8860   43.9080 H   0  0  0  0  0  0  0  0  0  0  0  0
   34.0190   30.0110   44.2720 H   0  0  0  0  0  0  0  0  0  0  0  0
   33.3450   29.3350   46.4440 H   0  0  0  0  0  0  0  0  0  0  0  0
   39.7750   32.8340   46.0120 C   0  0  0  0  0  0  0  0  0  0  0  0
   40.6430   32.1010   45.1270 C   0  0  0  0  0  0  0  0  0  0  0  0
   40.1650   30.9180   44.5620 C   0  0  0  0  0  0  0  0  0  0  0  0
   38.9060   30.5050   44.8670 N   0  0  0  0  0  0  0  0  0  0  0  0
   38.1130   31.2140   45.7020 C   0  0  0  0  0  0  0  0  0  0  0  0
   38.5480   32.3570   46.2590 N   0  0  0  0  0  0  0  0  0  0  0  0
   40.0990   33.7420   46.4640 H   0  0  0  0  0  0  0  0  0  0  0  0
   41.6260   32.5120   44.9490 H   0  0  0  0  0  0  0  0  0  0  0  0
   41.0410   30.2360   43.7090 N   0  0  0  0  0  0  0  0  0  0  0  0
   41.9900   29.8750   43.8880 H   0  0  0  0  0  0  0  0  0  0  0  0
   40.8040   30.0040   42.7180 H   0  0  0  0  0  0  0  0  0  0  0  0
   34.1110   28.1030   49.0430 C   0  0  0  0  0  0  0  0  0  0  0  0
   34.5590   27.4880   49.8540 H   0  0  0  0  0  0  0  0  0  0  0  0
   34.2220   27.4680   48.1160 H   0  0  0  0  0  0  0  0  0  0  0  0
   32.7820   28.2870   49.3260 O   0  0  0  0  0  0  0  0  0  0  0  0
   32.6610   26.5520   47.3590 O   0  0  0  0  0  0  0  0  0  0  0  0
   31.8320   27.4310   48.2620 P   0  0  2  0  0  0  0  0  0  0  0  0
   30.9980   28.6060   47.2980 O   0  0  0  0  0  0  0  0  0  0  0  0
   30.4760   28.2960   46.0550 C   0  0  0  0  0  0  0  0  0  0  0  0
   29.4660   27.3980   45.7490 C   0  0  0  0  0  3  0  0  0  0  0  0
   29.0660   27.2110   44.4450 C   0  0  0  0  0  0  0  0  0  0  0  0
   28.2750   26.5020   44.2400 H   0  0  0  0  0  0  0  0  0  0  0  0
   29.6830   27.9260   43.4650 N   0  0  0  0  0  0  0  0  0  0  0  0
   30.6620   28.7960   43.7690 C   0  0  0  0  0  3  0  0  0  0  0  0
   31.0740   28.9970   45.0540 N   0  0  0  0  0  0  0  0  0  0  0  0
   30.6540   26.5330   48.9970 O   0  0  0  0  0  0  0  0  0  0  0  0
   29.8320   27.3270   49.7610 C   0  0  0  0  0  0  0  0  0  0  0  0
   29.3140   26.6480   50.8620 F   0  0  0  0  0  0  0  0  0  0  0  0
   30.5140   28.4190   50.2780 F   0  0  0  0  0  0  0  0  0  0  0  0
   28.7670   27.7870   48.9950 F   0  0  0  0  0  0  0  0  0  0  0  0
  1 25  1  0  0  0  0
  1  3  1  0  0  0  0
  1  2  1  0  0  0  0
  5 10  1  0  0  0  0
  5  4  1  0  0  0  0
  6  5  2  0  0  0  0
  7  8  2  0  0  0  0
  7  6  1  0  0  0  0
  8  9  1  0  0  0  0
  9 10  2  0  0  0  0
 10  1  1  0  0  0  0
 11  7  1  0  0  0  0
 12  8  1  0  0  0  0
 13  9  1  0  0  0  0
 14 19  1  0  0  0  0
 14 20  1  0  0  0  0
 15 14  2  0  0  0  0
 16 17  2  0  0  0  0
 16 15  1  0  0  0  0
 17 18  1  0  0  0  0
 18  6  1  0  0  0  0
 18 19  2  0  0  0  0
 21 15  1  0  0  0  0
 22 23  1  0  0  0  0
 22 16  1  0  0  0  0
 24 22  1  0  0  0  0
 25 28  1  0  0  0  0
 25 26  1  0  0  0  0
 27 25  1  0  0  0  0
 30 29  2  6  0  0  0
 30 39  1  0  0  0  0
 30 28  1  0  0  0  0
 31 30  1  0  0  0  0
 32 31  1  0  0  0  0
 33 32  1  0  0  0  0
 34 33  2  0  0  0  0
 35 34  1  0  0  0  0
 36 37  2  0  0  0  0
 36 34  1  0  0  0  0
 37 38  1  0  0  0  0
 38 32  2  0  0  0  0
 39 40  1  0  0  0  0
 40 42  1  0  0  0  0
 40 41  1  0  0  0  0
 43 40  1  0  0  0  0
M  END
>  <minimizedAffinity>
-5.66497898

>  <minimizedRMSD>
0.23802647

$$$$
