
 OpenBabel03272509463D

 23 24  0  0  0  0  0  0  0  0999 V2000
   34.1480   28.4330   48.4970 C   0  0  0  0  0  0  0  0  0  0  0  0
   34.7450   29.0620   47.8250 H   0  0  0  0  0  0  0  0  0  0  0  0
   33.1870   28.9570   48.6810 H   0  0  0  0  0  0  0  0  0  0  0  0
   33.8340   27.0770   47.9320 C   0  0  0  0  0  0  0  0  0  0  0  0
   33.2440   26.5060   48.6470 H   0  0  0  0  0  0  0  0  0  0  0  0
   34.7920   26.5320   47.7080 H   0  0  0  0  0  0  0  0  0  0  0  0
   33.1280   27.1560   46.6250 C   0  0  0  0  0  0  0  0  0  0  0  0
   33.8120   26.6950   45.5190 C   0  0  0  0  0  3  0  0  0  0  0  0
   33.2570   26.7190   44.2570 C   0  0  0  0  0  0  0  0  0  0  0  0
   33.7360   26.3740   43.3470 H   0  0  0  0  0  0  0  0  0  0  0  0
   32.0220   27.2000   44.0970 N   0  0  0  0  0  0  0  0  0  0  0  0
   31.3550   27.6510   45.1880 C   0  0  0  0  0  3  0  0  0  0  0  0
   31.8780   27.6370   46.4270 N   0  0  0  0  0  0  0  0  0  0  0  0
   34.7460   28.2990   49.7810 O   0  0  0  0  0  0  0  0  0  0  0  0
   37.3420   30.2310   51.4200 C   0  0  0  0  0  0  0  0  0  0  0  0
   38.0590   30.6690   50.2890 C   0  0  0  0  0  0  0  0  0  0  0  0
   37.6060   30.2760   49.0340 C   0  0  0  0  0  0  0  0  0  0  0  0
   36.4900   29.4840   48.9860 N   0  0  0  0  0  0  0  0  0  0  0  0
   35.8300   29.0840   50.0790 C   0  0  0  0  0  0  0  0  0  0  0  0
   36.2620   29.4610   51.3040 N   0  0  0  0  0  0  0  0  0  0  0  0
   37.6390   30.5010   52.4300 H   0  0  0  0  0  0  0  0  0  0  0  0
   38.9330   31.2950   50.4210 H   0  0  0  0  0  0  0  0  0  0  0  0
   38.1300   30.5910   48.1390 H   0  0  0  0  0  0  0  0  0  0  0  0
  1  3  1  0  0  0  0
  1 14  1  0  0  0  0
  2  1  1  0  0  0  0
  4  1  1  0  0  0  0
  4  5  1  0  0  0  0
  6  4  1  0  0  0  0
  7  4  1  0  0  0  0
  8  7  2  0  0  0  0
  9  8  1  0  0  0  0
 10  9  1  0  0  0  0
 11  9  2  0  0  0  0
 11 12  1  0  0  0  0
 12 13  2  0  0  0  0
 13  7  1  0  0  0  0
 14 19  1  0  0  0  0
 15 21  1  0  0  0  0
 16 22  1  0  0  0  0
 16 15  2  0  0  0  0
 17 16  1  0  0  0  0
 18 17  2  0  0  0  0
 18 19  1  0  0  0  0
 19 20  2  0  0  0  0
 20 15  1  0  0  0  0
 23 17  1  0  0  0  0
M  END
>  <minimizedAffinity>
-3.67137766

>  <minimizedRMSD>
0.176515371

$$$$
