
 OpenBabel03272509503D

 31 33  0  0  0  0  0  0  0  0999 V2000
   34.5860   28.3080   49.8010 O   0  0  0  0  0  0  0  0  0  0  0  0
   37.2250   30.1230   51.4790 C   0  0  0  0  0  0  0  0  0  0  0  0
   37.8180   30.7790   50.3700 C   0  0  0  0  0  0  0  0  0  0  0  0
   37.2710   30.5530   49.1200 C   0  0  0  0  0  0  0  0  0  0  0  0
   36.2000   29.7190   49.0230 N   0  0  0  0  0  0  0  0  0  0  0  0
   35.6620   29.1120   50.1010 C   0  0  0  0  0  0  0  0  0  0  0  0
   36.1850   29.3200   51.3420 N   0  0  0  0  0  0  0  0  0  0  0  0
   37.6760   30.3210   52.4420 H   0  0  0  0  0  0  0  0  0  0  0  0
   38.6680   31.4380   50.4660 H   0  0  0  0  0  0  0  0  0  0  0  0
   37.7700   31.1550   47.8900 C   0  0  0  0  0  0  0  0  0  0  0  0
   38.8420   32.0060   47.8670 C   0  0  0  0  0  3  0  0  0  0  0  0
   39.2960   32.5640   46.6940 C   0  0  0  0  0  0  0  0  0  0  0  0
   40.1440   33.2390   46.6620 H   0  0  0  0  0  0  0  0  0  0  0  0
   38.6910   32.2790   45.5430 N   0  0  0  0  0  0  0  0  0  0  0  0
   37.6370   31.4440   45.5500 C   0  0  0  0  0  3  0  0  0  0  0  0
   37.2070   30.9110   46.6940 N   0  0  0  0  0  0  0  0  0  0  0  0
   33.9220   28.5420   48.5580 C   0  0  0  0  0  0  0  0  0  0  0  0
   33.4160   29.5140   48.5930 H   0  0  0  0  0  0  0  0  0  0  0  0
   34.7150   28.6140   47.7840 H   0  0  0  0  0  0  0  0  0  0  0  0
   32.9910   27.3930   48.2530 C   0  0  0  0  0  0  0  0  0  0  0  0
   33.0450   26.5980   49.0050 H   0  0  0  0  0  0  0  0  0  0  0  0
   33.2790   26.9510   47.2630 H   0  0  0  0  0  0  0  0  0  0  0  0
   31.5780   27.8440   48.1270 C   0  0  0  0  0  0  0  0  0  0  0  0
   30.7550   27.6300   49.2090 C   0  0  0  0  0  0  0  0  0  0  0  0
   29.4210   28.0040   49.2140 C   0  0  0  0  0  0  0  0  0  0  0  0
   28.9160   28.5910   48.1360 N   0  0  0  0  0  0  0  0  0  0  0  0
   29.7210   28.8050   47.0670 C   0  0  0  0  0  0  0  0  0  0  0  0
   31.0240   28.4470   47.0440 N   0  0  0  0  0  0  0  0  0  0  0  0
   31.1340   27.1510   50.1080 H   0  0  0  0  0  0  0  0  0  0  0  0
   28.7680   27.8460   50.0430 H   0  0  0  0  0  0  0  0  0  0  0  0
   29.3940   29.2830   46.1330 H   0  0  0  0  0  0  0  0  0  0  0  0
  1  6  1  0  0  0  0
  2  8  1  0  0  0  0
  3  9  1  0  0  0  0
  3  2  2  0  0  0  0
  4  3  1  0  0  0  0
  5  4  2  0  0  0  0
  5  6  1  0  0  0  0
  6  7  2  0  0  0  0
  7  2  1  0  0  0  0
 10  4  1  0  0  0  0
 11 10  1  0  0  0  0
 12 11  2  0  0  0  0
 13 12  1  0  0  0  0
 14 15  2  0  0  0  0
 14 12  1  0  0  0  0
 15 16  1  0  0  0  0
 16 10  2  0  0  0  0
 17 18  1  0  0  0  0
 17  1  1  0  0  0  0
 19 17  1  0  0  0  0
 20 17  1  0  0  0  0
 20 21  1  0  0  0  0
 22 20  1  0  0  0  0
 23 20  1  0  0  0  0
 23 24  1  0  0  0  0
 24 25  2  0  0  0  0
 24 29  1  0  0  0  0
 25 30  1  0  0  0  0
 26 25  1  0  0  0  0
 27 26  2  0  0  0  0
 28 27  1  0  0  0  0
 28 23  2  0  0  0  0
 31 27  1  0  0  0  0
M  END
>  <minimizedAffinity>
-5.63859463

>  <minimizedRMSD>
0.825577855

$$$$
