
 OpenBabel03272510073D

 28 30  0  0  0  0  0  0  0  0999 V2000
   37.7890   25.1700   34.0310 C   0  0  0  0  0  0  0  0  0  0  0  0
   38.0800   25.5990   35.3290 C   0  0  0  0  0  0  0  0  0  0  0  0
   37.8480   26.9360   35.6460 C   0  0  0  0  0  0  0  0  0  0  0  0
   37.3540   27.7430   34.6760 N   0  0  0  0  0  0  0  0  0  0  0  0
   37.0800   27.3140   33.4340 C   0  0  0  0  0  0  0  0  0  0  0  0
   37.2910   26.0240   33.0880 N   0  0  0  0  0  0  0  0  0  0  0  0
   36.5570   28.2430   32.4710 N   0  0  0  0  0  0  0  0  0  0  0  0
   35.2870   28.9420   32.6780 C   0  0  0  0  0  0  0  0  0  0  0  0
   35.2480   29.9510   31.5840 C   0  0  0  0  0  0  0  0  0  0  0  0
   36.6160   29.9470   30.9400 C   0  0  0  0  0  0  0  0  0  0  0  0
   37.1840   28.5990   31.2210 C   0  0  0  0  0  0  0  0  0  0  0  0
   37.9250   24.1700   33.6710 H   0  0  0  0  0  0  0  0  0  0  0  0
   38.0690   27.2730   36.6360 H   0  0  0  0  0  0  0  0  0  0  0  0
   34.4760   28.2080   32.5180 H   0  0  0  0  0  0  0  0  0  0  0  0
   35.2850   29.4010   33.6890 H   0  0  0  0  0  0  0  0  0  0  0  0
   35.1290   30.9690   32.0420 H   0  0  0  0  0  0  0  0  0  0  0  0
   34.4350   29.7380   30.8580 H   0  0  0  0  0  0  0  0  0  0  0  0
   37.2520   30.8000   31.2350 H   0  0  0  0  0  0  0  0  0  0  0  0
   36.4390   30.0570   29.8340 H   0  0  0  0  0  0  0  0  0  0  0  0
   38.2750   28.7100   31.4490 H   0  0  0  0  0  0  0  0  0  0  0  0
   37.0890   27.8530   30.4320 H   0  0  0  0  0  0  0  0  0  0  0  0
   38.6080   24.6170   36.2660 C   0  0  0  0  0  0  0  0  0  0  0  0
   38.0590   24.4010   37.5110 C   0  0  0  0  0  3  0  0  0  0  0  0
   38.5950   23.4530   38.3720 C   0  0  0  0  0  0  0  0  0  0  0  0
   38.2070   23.2400   39.3590 H   0  0  0  0  0  0  0  0  0  0  0  0
   39.6500   22.7610   37.9650 N   0  0  0  0  0  0  0  0  0  0  0  0
   40.1710   22.9880   36.7470 C   0  0  0  0  0  3  0  0  0  0  0  0
   39.6780   23.9080   35.8670 N   0  0  0  0  0  0  0  0  0  0  0  0
  1  2  1  0  0  0  0
  2  3  2  0  0  0  0
  2 22  1  0  0  0  0
  3 13  1  0  0  0  0
  4  3  1  0  0  0  0
  5  4  2  0  0  0  0
  6  5  1  0  0  0  0
  6  1  2  0  0  0  0
  7  8  1  0  0  0  0
  7  5  1  0  0  0  0
  8 15  1  0  0  0  0
  9 16  1  0  0  0  0
  9  8  1  0  0  0  0
 10 11  1  0  0  0  0
 10 18  1  0  0  0  0
 10  9  1  0  0  0  0
 11 20  1  0  0  0  0
 11  7  1  0  0  0  0
 12  1  1  0  0  0  0
 14  8  1  0  0  0  0
 17  9  1  0  0  0  0
 19 10  1  0  0  0  0
 21 11  1  0  0  0  0
 22 23  1  0  0  0  0
 23 24  2  0  0  0  0
 24 25  1  0  0  0  0
 26 24  1  0  0  0  0
 27 26  2  0  0  0  0
 28 22  2  0  0  0  0
 28 27  1  0  0  0  0
M  END
>  <minimizedAffinity>
-4.89387035

$$$$

 OpenBabel03272510073D

 28 30  0  0  0  0  0  0  0  0999 V2000
   38.0870   26.8540   35.7910 C   0  0  0  0  0  0  0  0  0  0  0  0
   38.1350   25.5290   35.3460 C   0  0  0  0  0  0  0  0  0  0  0  0
   37.6020   25.2390   34.0920 C   0  0  0  0  0  0  0  0  0  0  0  0
   37.0660   26.2580   33.3770 N   0  0  0  0  0  0  0  0  0  0  0  0
   37.0280   27.5240   33.8200 C   0  0  0  0  0  0  0  0  0  0  0  0
   37.5360   27.8460   35.0310 N   0  0  0  0  0  0  0  0  0  0  0  0
   36.4410   28.5390   32.9900 N   0  0  0  0  0  0  0  0  0  0  0  0
   36.9660   28.8550   31.6610 C   0  0  0  0  0  0  0  0  0  0  0  0
   35.9460   29.7680   31.0760 C   0  0  0  0  0  0  0  0  0  0  0  0
   34.7550   29.7430   32.0090 C   0  0  0  0  0  0  0  0  0  0  0  0
   35.3000   29.3520   33.3390 C   0  0  0  0  0  0  0  0  0  0  0  0
   38.4630   27.1980   36.7330 H   0  0  0  0  0  0  0  0  0  0  0  0
   37.6340   24.2280   33.7440 H   0  0  0  0  0  0  0  0  0  0  0  0
   37.9090   29.4150   31.8030 H   0  0  0  0  0  0  0  0  0  0  0  0
   37.0850   27.9130   31.0830 H   0  0  0  0  0  0  0  0  0  0  0  0
   35.5860   29.3270   30.1090 H   0  0  0  0  0  0  0  0  0  0  0  0
   36.3490   30.7920   30.9280 H   0  0  0  0  0  0  0  0  0  0  0  0
   33.9140   29.1290   31.6420 H   0  0  0  0  0  0  0  0  0  0  0  0
   34.3750   30.8000   32.0540 H   0  0  0  0  0  0  0  0  0  0  0  0
   34.5730   28.6600   33.8340 H   0  0  0  0  0  0  0  0  0  0  0  0
   35.5100   30.1610   34.0380 H   0  0  0  0  0  0  0  0  0  0  0  0
   38.7420   24.5400   36.2260 C   0  0  0  0  0  0  0  0  0  0  0  0
   38.2320   24.2320   37.4680 C   0  0  0  0  0  3  0  0  0  0  0  0
   38.8420   23.2810   38.2740 C   0  0  0  0  0  0  0  0  0  0  0  0
   38.4870   22.9990   39.2570 H   0  0  0  0  0  0  0  0  0  0  0  0
   39.9300   22.6770   37.8170 N   0  0  0  0  0  0  0  0  0  0  0  0
   40.4120   22.9920   36.6030 C   0  0  0  0  0  3  0  0  0  0  0  0
   39.8450   23.9200   35.7760 N   0  0  0  0  0  0  0  0  0  0  0  0
  1 12  1  0  0  0  0
  2  1  1  0  0  0  0
  2 22  1  0  0  0  0
  3  2  2  0  0  0  0
  4  5  2  0  0  0  0
  4  3  1  0  0  0  0
  5  6  1  0  0  0  0
  6  1  2  0  0  0  0
  7 11  1  0  0  0  0
  7  5  1  0  0  0  0
  8 14  1  0  0  0  0
  8  7  1  0  0  0  0
  9  8  1  0  0  0  0
  9 10  1  0  0  0  0
 10 19  1  0  0  0  0
 10 11  1  0  0  0  0
 11 20  1  0  0  0  0
 11 21  1  0  0  0  0
 13  3  1  0  0  0  0
 15  8  1  0  0  0  0
 16  9  1  0  0  0  0
 17  9  1  0  0  0  0
 18 10  1  0  0  0  0
 22 23  1  0  0  0  0
 23 24  2  0  0  0  0
 24 25  1  0  0  0  0
 26 24  1  0  0  0  0
 27 26  2  0  0  0  0
 28 22  2  0  0  0  0
 28 27  1  0  0  0  0
M  END
>  <minimizedAffinity>
-4.81851912

$$$$

 OpenBabel03272510073D

 28 30  0  0  0  0  0  0  0  0999 V2000
   38.1540   26.7240   35.8550 C   0  0  0  0  0  0  0  0  0  0  0  0
   38.2560   25.4260   35.3480 C   0  0  0  0  0  0  0  0  0  0  0  0
   37.7090   25.1670   34.0920 C   0  0  0  0  0  0  0  0  0  0  0  0
   37.1080   26.1900   33.4370 N   0  0  0  0  0  0  0  0  0  0  0  0
   37.0190   27.4320   33.9400 C   0  0  0  0  0  0  0  0  0  0  0  0
   37.5380   27.7220   35.1550 N   0  0  0  0  0  0  0  0  0  0  0  0
   36.3640   28.4530   33.1720 N   0  0  0  0  0  0  0  0  0  0  0  0
   36.8430   28.8550   31.8480 C   0  0  0  0  0  0  0  0  0  0  0  0
   35.7660   29.7430   31.3280 C   0  0  0  0  0  0  0  0  0  0  0  0
   34.6000   29.6160   32.2830 C   0  0  0  0  0  0  0  0  0  0  0  0
   35.1940   29.1920   33.5810 C   0  0  0  0  0  0  0  0  0  0  0  0
   38.5350   27.0430   36.8040 H   0  0  0  0  0  0  0  0  0  0  0  0
   37.7820   24.1760   33.6970 H   0  0  0  0  0  0  0  0  0  0  0  0
   37.7610   29.4540   31.9960 H   0  0  0  0  0  0  0  0  0  0  0  0
   36.9940   27.9480   31.2240 H   0  0  0  0  0  0  0  0  0  0  0  0
   35.4060   29.3300   30.3490 H   0  0  0  0  0  0  0  0  0  0  0  0
   36.1160   30.7910   31.2200 H   0  0  0  0  0  0  0  0  0  0  0  0
   33.7810   28.9790   31.9050 H   0  0  0  0  0  0  0  0  0  0  0  0
   34.1700   30.6500   32.3860 H   0  0  0  0  0  0  0  0  0  0  0  0
   34.5130   28.4420   34.0590 H   0  0  0  0  0  0  0  0  0  0  0  0
   35.3810   29.9770   34.3140 H   0  0  0  0  0  0  0  0  0  0  0  0
   38.9300   24.4280   36.1670 C   0  0  0  0  0  0  0  0  0  0  0  0
   40.0880   23.7960   35.7730 C   0  0  0  0  0  3  0  0  0  0  0  0
   40.6970   22.8500   36.5870 C   0  0  0  0  0  0  0  0  0  0  0  0
   41.6060   22.3230   36.3300 H   0  0  0  0  0  0  0  0  0  0  0  0
   40.1340   22.5720   37.7540 N   0  0  0  0  0  0  0  0  0  0  0  0
   39.0040   23.2000   38.1200 C   0  0  0  0  0  3  0  0  0  0  0  0
   38.3710   24.1360   37.3530 N   0  0  0  0  0  0  0  0  0  0  0  0
  1 12  1  0  0  0  0
  2  1  1  0  0  0  0
  2 22  1  0  0  0  0
  3  2  2  0  0  0  0
  4  5  2  0  0  0  0
  4  3  1  0  0  0  0
  5  6  1  0  0  0  0
  6  1  2  0  0  0  0
  7 11  1  0  0  0  0
  7  5  1  0  0  0  0
  8 14  1  0  0  0  0
  8  7  1  0  0  0  0
  9  8  1  0  0  0  0
  9 10  1  0  0  0  0
 10 19  1  0  0  0  0
 10 11  1  0  0  0  0
 11 20  1  0  0  0  0
 11 21  1  0  0  0  0
 13  3  1  0  0  0  0
 15  8  1  0  0  0  0
 16  9  1  0  0  0  0
 17  9  1  0  0  0  0
 18 10  1  0  0  0  0
 22 28  1  0  0  0  0
 23 22  2  0  0  0  0
 23 24  1  0  0  0  0
 24 26  2  0  0  0  0
 25 24  1  0  0  0  0
 26 27  1  0  0  0  0
 28 27  2  0  0  0  0
M  END
>  <minimizedAffinity>
-4.80407715

$$$$

 OpenBabel03272510073D

 28 30  0  0  0  0  0  0  0  0999 V2000
   37.0410   24.2870   32.3280 C   0  0  0  0  0  0  0  0  0  0  0  0
   36.0110   23.6730   31.6090 C   0  0  0  0  0  0  0  0  0  0  0  0
   35.0900   24.4900   30.9560 C   0  0  0  0  0  0  0  0  0  0  0  0
   35.2470   25.8330   31.0570 N   0  0  0  0  0  0  0  0  0  0  0  0
   36.2430   26.4050   31.7520 C   0  0  0  0  0  0  0  0  0  0  0  0
   37.1570   25.6460   32.3990 N   0  0  0  0  0  0  0  0  0  0  0  0
   36.3290   27.8370   31.8020 N   0  0  0  0  0  0  0  0  0  0  0  0
   36.4980   28.6470   30.5940 C   0  0  0  0  0  0  0  0  0  0  0  0
   36.3050   30.0460   31.0660 C   0  0  0  0  0  0  0  0  0  0  0  0
   35.7930   29.9580   32.4860 C   0  0  0  0  0  0  0  0  0  0  0  0
   36.2650   28.6420   32.9990 C   0  0  0  0  0  0  0  0  0  0  0  0
   37.8060   23.7660   32.8690 H   0  0  0  0  0  0  0  0  0  0  0  0
   34.2990   24.0290   30.4050 H   0  0  0  0  0  0  0  0  0  0  0  0
   37.5440   28.5230   30.2560 H   0  0  0  0  0  0  0  0  0  0  0  0
   35.7430   28.3370   29.8400 H   0  0  0  0  0  0  0  0  0  0  0  0
   35.4760   30.5120   30.4700 H   0  0  0  0  0  0  0  0  0  0  0  0
   37.2410   30.6380   30.9870 H   0  0  0  0  0  0  0  0  0  0  0  0
   34.7080   30.1430   32.5820 H   0  0  0  0  0  0  0  0  0  0  0  0
   36.3020   30.7860   33.0520 H   0  0  0  0  0  0  0  0  0  0  0  0
   35.4550   28.1890   33.6260 H   0  0  0  0  0  0  0  0  0  0  0  0
   37.1760   28.6480   33.5970 H   0  0  0  0  0  0  0  0  0  0  0  0
   35.9700   22.2170   31.5910 C   0  0  0  0  0  0  0  0  0  0  0  0
   35.0050   21.4890   32.2520 C   0  0  0  0  0  3  0  0  0  0  0  0
   35.0040   20.1020   32.2070 C   0  0  0  0  0  0  0  0  0  0  0  0
   34.2730   19.4790   32.7050 H   0  0  0  0  0  0  0  0  0  0  0  0
   35.9560   19.4960   31.5120 N   0  0  0  0  0  0  0  0  0  0  0  0
   36.8880   20.2240   30.8750 C   0  0  0  0  0  3  0  0  0  0  0  0
   36.9290   21.5900   30.8910 N   0  0  0  0  0  0  0  0  0  0  0  0
  1  6  1  0  0  0  0
  1 12  1  0  0  0  0
  2  1  2  0  0  0  0
  3  4  2  0  0  0  0
  3  2  1  0  0  0  0
  4  5  1  0  0  0  0
  5  7  1  0  0  0  0
  5  6  2  0  0  0  0
  7 11  1  0  0  0  0
  8  9  1  0  0  0  0
  8  7  1  0  0  0  0
  9 10  1  0  0  0  0
 10 18  1  0  0  0  0
 10 11  1  0  0  0  0
 10 19  1  0  0  0  0
 11 21  1  0  0  0  0
 11 20  1  0  0  0  0
 13  3  1  0  0  0  0
 14  8  1  0  0  0  0
 15  8  1  0  0  0  0
 16  9  1  0  0  0  0
 17  9  1  0  0  0  0
 22  2  1  0  0  0  0
 22 23  1  0  0  0  0
 24 23  2  0  0  0  0
 24 25  1  0  0  0  0
 26 24  1  0  0  0  0
 27 28  1  0  0  0  0
 27 26  2  0  0  0  0
 28 22  2  0  0  0  0
M  END
>  <minimizedAffinity>
-4.71821356

$$$$

 OpenBabel03272510073D

 28 30  0  0  0  0  0  0  0  0999 V2000
   37.2240   25.5330   31.8860 C   0  0  0  0  0  0  0  0  0  0  0  0
   36.1430   26.2390   31.3490 C   0  0  0  0  0  0  0  0  0  0  0  0
   35.0390   25.5130   30.9070 C   0  0  0  0  0  0  0  0  0  0  0  0
   35.0780   24.1630   31.0220 N   0  0  0  0  0  0  0  0  0  0  0  0
   36.1250   23.5010   31.5400 C   0  0  0  0  0  0  0  0  0  0  0  0
   37.2140   24.1700   31.9800 N   0  0  0  0  0  0  0  0  0  0  0  0
   36.0760   22.0680   31.6220 N   0  0  0  0  0  0  0  0  0  0  0  0
   35.0500   21.3700   32.4000 C   0  0  0  0  0  0  0  0  0  0  0  0
   35.2250   19.9390   32.0260 C   0  0  0  0  0  0  0  0  0  0  0  0
   36.1890   19.9090   30.8620 C   0  0  0  0  0  0  0  0  0  0  0  0
   36.9930   21.1580   30.9780 C   0  0  0  0  0  0  0  0  0  0  0  0
   38.1240   25.9790   32.2570 H   0  0  0  0  0  0  0  0  0  0  0  0
   34.2090   26.0450   30.4940 H   0  0  0  0  0  0  0  0  0  0  0  0
   35.3040   21.4950   33.4690 H   0  0  0  0  0  0  0  0  0  0  0  0
   34.0510   21.7700   32.1250 H   0  0  0  0  0  0  0  0  0  0  0  0
   34.2500   19.5540   31.6250 H   0  0  0  0  0  0  0  0  0  0  0  0
   35.5760   19.3310   32.8860 H   0  0  0  0  0  0  0  0  0  0  0  0
   35.7040   19.7460   29.8840 H   0  0  0  0  0  0  0  0  0  0  0  0
   36.8540   19.0170   31.0330 H   0  0  0  0  0  0  0  0  0  0  0  0
   37.1610   21.5720   29.9520 H   0  0  0  0  0  0  0  0  0  0  0  0
   37.9670   21.0710   31.4590 H   0  0  0  0  0  0  0  0  0  0  0  0
   36.2440   27.6910   31.2890 C   0  0  0  0  0  0  0  0  0  0  0  0
   35.8770   28.5090   32.3340 C   0  0  0  0  0  3  0  0  0  0  0  0
   35.9910   29.8890   32.2330 C   0  0  0  0  0  0  0  0  0  0  0  0
   35.7190   30.5810   33.0200 H   0  0  0  0  0  0  0  0  0  0  0  0
   36.4610   30.3990   31.1030 N   0  0  0  0  0  0  0  0  0  0  0  0
   36.8140   29.5830   30.0960 C   0  0  0  0  0  3  0  0  0  0  0  0
   36.7190   28.2220   30.1500 N   0  0  0  0  0  0  0  0  0  0  0  0
  1  6  1  0  0  0  0
  1 12  1  0  0  0  0
  2  1  2  0  0  0  0
  3  4  2  0  0  0  0
  3  2  1  0  0  0  0
  4  5  1  0  0  0  0
  5  7  1  0  0  0  0
  5  6  2  0  0  0  0
  7  8  1  0  0  0  0
  8 14  1  0  0  0  0
  9  8  1  0  0  0  0
  9 17  1  0  0  0  0
 10 11  1  0  0  0  0
 10 19  1  0  0  0  0
 10  9  1  0  0  0  0
 11 21  1  0  0  0  0
 11  7  1  0  0  0  0
 13  3  1  0  0  0  0
 15  8  1  0  0  0  0
 16  9  1  0  0  0  0
 18 10  1  0  0  0  0
 20 11  1  0  0  0  0
 22  2  1  0  0  0  0
 22 23  1  0  0  0  0
 24 23  2  0  0  0  0
 24 25  1  0  0  0  0
 26 24  1  0  0  0  0
 27 28  1  0  0  0  0
 27 26  2  0  0  0  0
 28 22  2  0  0  0  0
M  END
>  <minimizedAffinity>
-4.64801359

$$$$

 OpenBabel03272510073D

 28 30  0  0  0  0  0  0  0  0999 V2000
   35.0590   28.9710   32.7560 C   0  0  0  0  0  0  0  0  0  0  0  0
   35.6030   29.1420   34.0320 C   0  0  0  0  0  0  0  0  0  0  0  0
   36.5620   28.2270   34.4640 C   0  0  0  0  0  0  0  0  0  0  0  0
   36.9120   27.2260   33.6210 N   0  0  0  0  0  0  0  0  0  0  0  0
   36.3790   27.0780   32.3970 C   0  0  0  0  0  0  0  0  0  0  0  0
   35.4450   27.9440   31.9420 N   0  0  0  0  0  0  0  0  0  0  0  0
   36.8120   25.9850   31.5730 N   0  0  0  0  0  0  0  0  0  0  0  0
   38.2070   25.8340   31.1540 C   0  0  0  0  0  0  0  0  0  0  0  0
   38.2540   24.4820   30.5320 C   0  0  0  0  0  0  0  0  0  0  0  0
   36.9310   23.8160   30.8400 C   0  0  0  0  0  0  0  0  0  0  0  0
   35.9680   24.9300   31.0640 C   0  0  0  0  0  0  0  0  0  0  0  0
   34.3180   29.6070   32.3160 H   0  0  0  0  0  0  0  0  0  0  0  0
   36.9820   28.3500   35.4390 H   0  0  0  0  0  0  0  0  0  0  0  0
   38.4020   26.5940   30.3750 H   0  0  0  0  0  0  0  0  0  0  0  0
   38.8660   25.9230   32.0440 H   0  0  0  0  0  0  0  0  0  0  0  0
   39.0330   23.8730   31.0620 H   0  0  0  0  0  0  0  0  0  0  0  0
   38.4580   24.5390   29.4420 H   0  0  0  0  0  0  0  0  0  0  0  0
   36.9860   23.0670   31.6490 H   0  0  0  0  0  0  0  0  0  0  0  0
   36.6440   23.2520   29.9100 H   0  0  0  0  0  0  0  0  0  0  0  0
   35.2880   24.6510   31.9090 H   0  0  0  0  0  0  0  0  0  0  0  0
   35.3400   25.2120   30.2190 H   0  0  0  0  0  0  0  0  0  0  0  0
   35.1280   30.2660   34.8270 C   0  0  0  0  0  0  0  0  0  0  0  0
   35.9710   31.0680   35.5650 C   0  0  0  0  0  3  0  0  0  0  0  0
   35.4750   32.1300   36.3080 C   0  0  0  0  0  0  0  0  0  0  0  0
   36.0880   32.7930   36.9050 H   0  0  0  0  0  0  0  0  0  0  0  0
   34.1690   32.3520   36.2910 N   0  0  0  0  0  0  0  0  0  0  0  0
   33.3640   31.5580   35.5650 C   0  0  0  0  0  3  0  0  0  0  0  0
   33.8060   30.5030   34.8190 N   0  0  0  0  0  0  0  0  0  0  0  0
  1  2  1  0  0  0  0
  2  3  2  0  0  0  0
  2 22  1  0  0  0  0
  3 13  1  0  0  0  0
  4  3  1  0  0  0  0
  5  4  2  0  0  0  0
  6  5  1  0  0  0  0
  6  1  2  0  0  0  0
  7  5  1  0  0  0  0
  8  7  1  0  0  0  0
  8 15  1  0  0  0  0
  9 10  1  0  0  0  0
  9 16  1  0  0  0  0
  9  8  1  0  0  0  0
 10 11  1  0  0  0  0
 10 18  1  0  0  0  0
 11  7  1  0  0  0  0
 11 20  1  0  0  0  0
 12  1  1  0  0  0  0
 14  8  1  0  0  0  0
 17  9  1  0  0  0  0
 19 10  1  0  0  0  0
 21 11  1  0  0  0  0
 22 23  1  0  0  0  0
 23 24  2  0  0  0  0
 24 25  1  0  0  0  0
 26 24  1  0  0  0  0
 27 26  2  0  0  0  0
 28 22  2  0  0  0  0
 28 27  1  0  0  0  0
M  END
>  <minimizedAffinity>
-4.55760813

$$$$

 OpenBabel03272510073D

 28 30  0  0  0  0  0  0  0  0999 V2000
   37.5280   25.4420   33.5240 C   0  0  0  0  0  0  0  0  0  0  0  0
   37.8030   26.7950   33.7410 C   0  0  0  0  0  0  0  0  0  0  0  0
   38.7950   27.1230   34.6630 C   0  0  0  0  0  0  0  0  0  0  0  0
   39.4350   26.1100   35.2960 N   0  0  0  0  0  0  0  0  0  0  0  0
   39.1570   24.8160   35.0750 C   0  0  0  0  0  0  0  0  0  0  0  0
   38.2020   24.4570   34.1880 N   0  0  0  0  0  0  0  0  0  0  0  0
   39.8890   23.8100   35.7930 N   0  0  0  0  0  0  0  0  0  0  0  0
   41.3430   23.6800   35.6800 C   0  0  0  0  0  0  0  0  0  0  0  0
   41.7010   22.6980   36.7420 C   0  0  0  0  0  0  0  0  0  0  0  0
   40.4600   22.4920   37.5790 C   0  0  0  0  0  0  0  0  0  0  0  0
   39.3170   22.8320   36.6870 C   0  0  0  0  0  0  0  0  0  0  0  0
   36.7900   25.0680   32.8420 H   0  0  0  0  0  0  0  0  0  0  0  0
   39.0110   28.1560   34.8360 H   0  0  0  0  0  0  0  0  0  0  0  0
   41.5590   23.2330   34.6910 H   0  0  0  0  0  0  0  0  0  0  0  0
   41.8110   24.6750   35.8360 H   0  0  0  0  0  0  0  0  0  0  0  0
   42.4560   23.1720   37.4250 H   0  0  0  0  0  0  0  0  0  0  0  0
   42.0870   21.7500   36.3100 H   0  0  0  0  0  0  0  0  0  0  0  0
   40.4800   23.0230   38.5470 H   0  0  0  0  0  0  0  0  0  0  0  0
   40.4310   21.3940   37.8250 H   0  0  0  0  0  0  0  0  0  0  0  0
   38.5460   23.3810   37.2850 H   0  0  0  0  0  0  0  0  0  0  0  0
   38.8150   21.9990   36.1940 H   0  0  0  0  0  0  0  0  0  0  0  0
   37.0310   27.7740   32.9860 C   0  0  0  0  0  0  0  0  0  0  0  0
   37.1500   27.9280   31.6230 C   0  0  0  0  0  3  0  0  0  0  0  0
   36.3950   28.8740   30.9440 C   0  0  0  0  0  0  0  0  0  0  0  0
   36.4450   29.0400   29.8760 H   0  0  0  0  0  0  0  0  0  0  0  0
   35.5550   29.6260   31.6430 N   0  0  0  0  0  0  0  0  0  0  0  0
   35.4550   29.4600   32.9720 C   0  0  0  0  0  3  0  0  0  0  0  0
   36.1770   28.5430   33.6820 N   0  0  0  0  0  0  0  0  0  0  0  0
  1  2  2  0  0  0  0
  1  6  1  0  0  0  0
  2  3  1  0  0  0  0
  3 13  1  0  0  0  0
  3  4  2  0  0  0  0
  5  4  1  0  0  0  0
  5  7  1  0  0  0  0
  6  5  2  0  0  0  0
  7 11  1  0  0  0  0
  8  7  1  0  0  0  0
  8 15  1  0  0  0  0
  8  9  1  0  0  0  0
  9 16  1  0  0  0  0
  9 10  1  0  0  0  0
 10 19  1  0  0  0  0
 10 18  1  0  0  0  0
 11 20  1  0  0  0  0
 11 10  1  0  0  0  0
 12  1  1  0  0  0  0
 14  8  1  0  0  0  0
 17  9  1  0  0  0  0
 21 11  1  0  0  0  0
 22 28  1  0  0  0  0
 22  2  1  0  0  0  0
 23 22  2  0  0  0  0
 24 23  1  0  0  0  0
 24 26  2  0  0  0  0
 25 24  1  0  0  0  0
 26 27  1  0  0  0  0
 27 28  2  0  0  0  0
M  END
>  <minimizedAffinity>
-4.53868198

$$$$

 OpenBabel03272510073D

 28 30  0  0  0  0  0  0  0  0999 V2000
   38.6970   24.8250   33.8170 C   0  0  0  0  0  0  0  0  0  0  0  0
   38.3920   25.4080   35.0510 C   0  0  0  0  0  0  0  0  0  0  0  0
   37.9040   26.7130   35.0580 C   0  0  0  0  0  0  0  0  0  0  0  0
   37.7540   27.3420   33.8670 N   0  0  0  0  0  0  0  0  0  0  0  0
   38.0520   26.7670   32.6910 C   0  0  0  0  0  0  0  0  0  0  0  0
   38.5280   25.5020   32.6430 N   0  0  0  0  0  0  0  0  0  0  0  0
   37.8600   27.5130   31.4780 N   0  0  0  0  0  0  0  0  0  0  0  0
   36.5450   28.0150   31.0770 C   0  0  0  0  0  0  0  0  0  0  0  0
   36.8360   28.9060   29.9190 C   0  0  0  0  0  0  0  0  0  0  0  0
   38.3380   29.0640   29.8600 C   0  0  0  0  0  0  0  0  0  0  0  0
   38.8920   27.8540   30.5300 C   0  0  0  0  0  0  0  0  0  0  0  0
   39.0770   23.8320   33.6850 H   0  0  0  0  0  0  0  0  0  0  0  0
   37.6680   27.1660   35.9970 H   0  0  0  0  0  0  0  0  0  0  0  0
   35.9530   27.1500   30.7240 H   0  0  0  0  0  0  0  0  0  0  0  0
   36.0850   28.5550   31.9320 H   0  0  0  0  0  0  0  0  0  0  0  0
   36.4290   29.9270   30.1450 H   0  0  0  0  0  0  0  0  0  0  0  0
   36.4130   28.5020   28.9760 H   0  0  0  0  0  0  0  0  0  0  0  0
   38.7010   30.0300   30.2520 H   0  0  0  0  0  0  0  0  0  0  0  0
   38.6100   29.0470   28.7690 H   0  0  0  0  0  0  0  0  0  0  0  0
   39.7790   28.1570   31.1420 H   0  0  0  0  0  0  0  0  0  0  0  0
   39.2070   27.0360   29.8810 H   0  0  0  0  0  0  0  0  0  0  0  0
   38.6050   24.6080   36.2500 C   0  0  0  0  0  0  0  0  0  0  0  0
   39.5240   23.5840   36.3110 C   0  0  0  0  0  3  0  0  0  0  0  0
   39.6950   22.8480   37.4750 C   0  0  0  0  0  0  0  0  0  0  0  0
   40.4010   22.0340   37.5820 H   0  0  0  0  0  0  0  0  0  0  0  0
   38.9490   23.1560   38.5270 N   0  0  0  0  0  0  0  0  0  0  0  0
   38.0580   24.1580   38.4470 C   0  0  0  0  0  3  0  0  0  0  0  0
   37.8560   24.9090   37.3240 N   0  0  0  0  0  0  0  0  0  0  0  0
  1  2  1  0  0  0  0
  2  3  2  0  0  0  0
  2 22  1  0  0  0  0
  3 13  1  0  0  0  0
  4  3  1  0  0  0  0
  5  4  2  0  0  0  0
  6  5  1  0  0  0  0
  6  1  2  0  0  0  0
  7  5  1  0  0  0  0
  8  7  1  0  0  0  0
  8 15  1  0  0  0  0
  9 16  1  0  0  0  0
  9  8  1  0  0  0  0
 10  9  1  0  0  0  0
 10 18  1  0  0  0  0
 10 11  1  0  0  0  0
 11 20  1  0  0  0  0
 11  7  1  0  0  0  0
 12  1  1  0  0  0  0
 14  8  1  0  0  0  0
 17  9  1  0  0  0  0
 19 10  1  0  0  0  0
 21 11  1  0  0  0  0
 22 23  2  0  0  0  0
 22 28  1  0  0  0  0
 23 24  1  0  0  0  0
 24 25  1  0  0  0  0
 24 26  2  0  0  0  0
 27 26  1  0  0  0  0
 28 27  2  0  0  0  0
M  END
>  <minimizedAffinity>
-4.47592735

$$$$

 OpenBabel03272510073D

 28 30  0  0  0  0  0  0  0  0999 V2000
   35.5450   24.9200   31.0860 C   0  0  0  0  0  0  0  0  0  0  0  0
   36.4640   24.3270   31.9560 C   0  0  0  0  0  0  0  0  0  0  0  0
   37.2140   25.1600   32.7850 C   0  0  0  0  0  0  0  0  0  0  0  0
   37.0080   26.4960   32.6980 N   0  0  0  0  0  0  0  0  0  0  0  0
   36.1210   27.0480   31.8550 C   0  0  0  0  0  0  0  0  0  0  0  0
   35.3740   26.2740   31.0350 N   0  0  0  0  0  0  0  0  0  0  0  0
   35.9710   28.4770   31.8330 N   0  0  0  0  0  0  0  0  0  0  0  0
   35.5530   29.2310   33.0160 C   0  0  0  0  0  0  0  0  0  0  0  0
   35.7530   30.6540   32.6270 C   0  0  0  0  0  0  0  0  0  0  0  0
   36.5090   30.6440   31.3170 C   0  0  0  0  0  0  0  0  0  0  0  0
   36.2020   29.3280   30.6910 C   0  0  0  0  0  0  0  0  0  0  0  0
   34.9140   24.3860   30.4030 H   0  0  0  0  0  0  0  0  0  0  0  0
   37.9190   24.7140   33.4530 H   0  0  0  0  0  0  0  0  0  0  0  0
   34.4720   29.0480   33.1600 H   0  0  0  0  0  0  0  0  0  0  0  0
   36.1800   28.9280   33.8820 H   0  0  0  0  0  0  0  0  0  0  0  0
   36.4400   31.1350   33.3730 H   0  0  0  0  0  0  0  0  0  0  0  0
   34.7880   31.2000   32.5570 H   0  0  0  0  0  0  0  0  0  0  0  0
   37.5830   30.8810   31.4200 H   0  0  0  0  0  0  0  0  0  0  0  0
   36.0640   31.4690   30.6960 H   0  0  0  0  0  0  0  0  0  0  0  0
   37.1310   28.9370   30.2040 H   0  0  0  0  0  0  0  0  0  0  0  0
   35.4100   29.3150   29.9420 H   0  0  0  0  0  0  0  0  0  0  0  0
   36.5760   22.8750   31.9380 C   0  0  0  0  0  0  0  0  0  0  0  0
   35.7200   22.0680   31.2220 C   0  0  0  0  0  3  0  0  0  0  0  0
   35.8640   20.6880   31.2330 C   0  0  0  0  0  0  0  0  0  0  0  0
   35.2230   20.0050   30.6910 H   0  0  0  0  0  0  0  0  0  0  0  0
   36.8480   20.1650   31.9520 N   0  0  0  0  0  0  0  0  0  0  0  0
   37.6720   20.9700   32.6440 C   0  0  0  0  0  3  0  0  0  0  0  0
   37.5680   22.3320   32.6630 N   0  0  0  0  0  0  0  0  0  0  0  0
  1  2  1  0  0  0  0
  2  3  2  0  0  0  0
  3 13  1  0  0  0  0
  4  3  1  0  0  0  0
  5  4  2  0  0  0  0
  6  1  2  0  0  0  0
  6  5  1  0  0  0  0
  7  5  1  0  0  0  0
  7  8  1  0  0  0  0
  8 14  1  0  0  0  0
  8 15  1  0  0  0  0
  9  8  1  0  0  0  0
  9 16  1  0  0  0  0
 10 18  1  0  0  0  0
 10  9  1  0  0  0  0
 11 10  1  0  0  0  0
 11  7  1  0  0  0  0
 12  1  1  0  0  0  0
 17  9  1  0  0  0  0
 19 10  1  0  0  0  0
 20 11  1  0  0  0  0
 21 11  1  0  0  0  0
 22  2  1  0  0  0  0
 22 28  1  0  0  0  0
 23 24  1  0  0  0  0
 23 22  2  0  0  0  0
 24 26  2  0  0  0  0
 25 24  1  0  0  0  0
 26 27  1  0  0  0  0
 27 28  2  0  0  0  0
M  END
>  <minimizedAffinity>
-4.4392457

$$$$
