
 OpenBabel03272508023D

 26 28  0  0  0  0  0  0  0  0999 V2000
   38.9450   30.9280   45.7150 C   0  0  0  0  0  0  0  0  0  0  0  0
   40.1480   31.5170   45.9960 C   0  0  0  0  0  0  0  0  0  0  0  0
   40.9750   31.4670   44.8800 C   0  0  0  0  0  0  0  0  0  0  0  0
   40.2250   30.8360   43.9450 N   0  0  0  0  0  0  0  0  0  0  0  0
   39.0470   30.5240   44.4350 N   0  0  0  0  0  0  0  0  0  0  0  0
   40.4390   31.9630   46.9360 H   0  0  0  0  0  0  0  0  0  0  0  0
   41.9810   31.8280   44.7290 H   0  0  0  0  0  0  0  0  0  0  0  0
   37.7860   30.7570   46.5880 C   0  0  0  0  0  0  0  0  0  0  0  0
   37.9870   30.9960   47.9820 C   0  0  0  0  0  0  0  0  0  0  0  0
   36.8880   30.8350   48.8250 C   0  0  0  0  0  0  0  0  0  0  0  0
   35.7040   30.4650   48.2790 N   0  0  0  0  0  0  0  0  0  0  0  0
   35.5440   30.2460   46.9530 C   0  0  0  0  0  0  0  0  0  0  0  0
   36.6010   30.3980   46.1310 N   0  0  0  0  0  0  0  0  0  0  0  0
   38.9670   31.2870   48.3220 H   0  0  0  0  0  0  0  0  0  0  0  0
   34.5850   29.9510   46.5440 H   0  0  0  0  0  0  0  0  0  0  0  0
   37.0660   31.0770   50.2840 C   0  0  0  0  0  0  0  0  0  0  0  0
   36.5650   32.3390   50.5100 F   0  0  0  0  0  0  0  0  0  0  0  0
   36.3780   30.1670   51.0630 F   0  0  0  0  0  0  0  0  0  0  0  0
   38.4100   31.0970   50.6490 F   0  0  0  0  0  0  0  0  0  0  0  0
   40.5470   30.4990   42.6010 C   0  0  0  0  0  0  0  0  0  0  0  0
   41.2740   29.3390   42.3150 C   0  0  0  0  0  0  0  0  0  0  0  0
   41.6350   28.9230   41.0490 C   0  0  0  0  0  0  0  0  0  0  0  0
   42.1970   28.0040   40.9710 H   0  0  0  0  0  0  0  0  0  0  0  0
   41.2410   29.7200   40.0400 N   0  0  0  0  0  0  0  0  0  0  0  0
   40.5390   30.8510   40.2690 C   0  0  0  0  0  0  0  0  0  0  0  0
   40.1970   31.2330   41.5320 N   0  0  0  0  0  0  0  0  0  0  0  0
  1  2  1  0  0  0  0
  1  8  1  0  0  0  0
  2  6  1  0  0  0  0
  3  2  2  0  0  0  0
  4  5  1  0  0  0  0
  4  3  1  0  0  0  0
  5  1  2  0  0  0  0
  7  3  1  0  0  0  0
  8  9  1  0  0  0  0
  9 14  1  0  0  0  0
  9 10  2  0  0  0  0
 10 16  1  0  0  0  0
 11 10  1  0  0  0  0
 12 11  2  0  0  0  0
 13  8  2  0  0  0  0
 13 12  1  0  0  0  0
 15 12  1  0  0  0  0
 16 17  1  0  0  0  0
 16 19  1  0  0  0  0
 16 18  1  0  0  0  0
 20  4  1  0  0  0  0
 21 20  1  0  0  0  0
 22 21  2  0  0  0  0
 23 22  1  0  0  0  0
 24 25  2  0  0  0  0
 24 22  1  0  0  0  0
 25 26  1  0  0  0  0
 26 20  2  0  0  0  0
M  END
>  <minimizedAffinity>
-6.1669879

>  <minimizedRMSD>
1.18541825

$$$$
