
 OpenBabel03262522203D

 17 18  0  0  0  0  0  0  0  0999 V2000
   35.8180   30.4610   48.0480 C   0  0  0  0  0  0  0  0  0  0  0  0
   35.1460   29.2670   48.3760 C   0  0  0  0  0  0  0  0  0  0  0  0
   35.2210   28.8330   49.6890 C   0  0  0  0  0  0  0  0  0  0  0  0
   35.9240   29.5610   50.5970 N   0  0  0  0  0  0  0  0  0  0  0  0
   36.5560   30.7050   50.2380 C   0  0  0  0  0  0  0  0  0  0  0  0
   36.5140   31.1680   48.9750 N   0  0  0  0  0  0  0  0  0  0  0  0
   35.8150   30.8760   47.0450 H   0  0  0  0  0  0  0  0  0  0  0  0
   34.7000   27.9340   49.8800 H   0  0  0  0  0  0  0  0  0  0  0  0
   37.0850   31.1980   51.0500 H   0  0  0  0  0  0  0  0  0  0  0  0
   34.4940   28.6830   47.3190 O   0  0  0  0  0  0  0  0  0  0  0  0
   33.1460   28.8780   47.0140 C   0  0  0  0  0  0  0  0  0  0  0  0
   32.6340   29.8560   46.1750 C   0  0  0  0  0  3  0  0  0  0  0  0
   31.2680   29.9230   45.9710 C   0  0  0  0  0  0  0  0  0  0  0  0
   30.8810   30.6890   45.3160 H   0  0  0  0  0  0  0  0  0  0  0  0
   30.4420   29.0510   46.5770 N   0  0  0  0  0  0  0  0  0  0  0  0
   30.9990   28.1260   47.3780 C   0  0  0  0  0  3  0  0  0  0  0  0
   32.3200   28.0050   47.6200 N   0  0  0  0  0  0  0  0  0  0  0  0
  1  2  2  0  0  0  0
  1  6  1  0  0  0  0
  2  3  1  0  0  0  0
  3  8  1  0  0  0  0
  3  4  2  0  0  0  0
  5  4  1  0  0  0  0
  5  9  1  0  0  0  0
  6  5  2  0  0  0  0
  7  1  1  0  0  0  0
 10  2  1  0  0  0  0
 11 10  1  0  0  0  0
 11 17  1  0  0  0  0
 12 11  2  0  0  0  0
 13 12  1  0  0  0  0
 13 15  2  0  0  0  0
 14 13  1  0  0  0  0
 15 16  1  0  0  0  0
 16 17  2  0  0  0  0
M  END
>  <minimizedAffinity>
-3.20250368

>  <minimizedRMSD>
7.00912571

$$$$
