
 OpenBabel03272510263D

 43 47  0  0  1  0  0  0  0  0999 V2000
   36.1430   30.2000   46.7910 C   0  0  0  0  0  0  0  0  0  0  0  0
   37.0390   30.7710   47.6950 C   0  0  0  0  0  0  0  0  0  0  0  0
   38.0290   31.6500   47.2690 C   0  0  0  0  0  0  0  0  0  0  0  0
   38.0710   31.9220   45.9060 C   0  0  0  0  0  0  0  0  0  0  0  0
   38.9450   32.7400   45.2510 N   0  0  0  0  0  0  0  0  0  0  0  0
   38.6130   32.6930   43.9530 C   0  0  0  0  0  0  0  0  0  0  0  0
   37.5860   31.8910   43.7800 N   0  0  0  0  0  0  0  0  0  0  0  0
   37.2100   31.3830   44.9800 C   0  0  0  0  0  0  0  0  0  0  0  0
   36.2220   30.5000   45.4350 C   0  0  0  0  0  0  0  0  0  0  0  0
   35.3680   29.5180   47.0910 H   0  0  0  0  0  0  0  0  0  0  0  0
   38.7150   32.0850   47.9790 H   0  0  0  0  0  0  0  0  0  0  0  0
   39.7240   33.2930   45.7060 H   0  0  0  0  0  0  0  0  0  0  0  0
   35.5560   30.0890   44.6870 H   0  0  0  0  0  0  0  0  0  0  0  0
   37.5790   30.2540   51.3720 C   0  0  0  0  0  0  0  0  0  0  0  0
   37.8180   30.6680   50.0750 C   0  0  0  0  0  0  0  0  0  0  0  0
   36.8840   30.3890   49.0840 C   0  0  0  0  0  0  0  0  0  0  0  0
   35.7550   29.7070   49.4450 N   0  0  0  0  0  0  0  0  0  0  0  0
   35.5350   29.3070   50.7230 C   0  0  0  0  0  0  0  0  0  0  0  0
   36.4240   29.5750   51.6550 N   0  0  0  0  0  0  0  0  0  0  0  0
   38.2860   30.4620   52.1380 H   0  0  0  0  0  0  0  0  0  0  0  0
   38.7130   31.2090   49.7920 H   0  0  0  0  0  0  0  0  0  0  0  0
   34.6020   28.7620   50.9340 H   0  0  0  0  0  0  0  0  0  0  0  0
   39.3160   33.4270   42.9830 O   0  0  0  0  0  0  0  0  0  0  0  0
   38.9000   31.6430   41.6210 N   0  0  0  0  0  0  0  0  0  0  0  0
   39.0090   33.1140   41.6310 C   0  0  1  0  0  0  0  0  0  0  0  0
   37.7380   33.6840   41.2040 C   0  0  0  0  0  0  0  0  0  0  0  0
   37.5100   33.3210   39.8640 O   0  0  0  0  0  0  0  0  0  0  0  0
   37.5440   31.9770   39.6140 C   0  0  0  0  0  0  0  0  0  0  0  0
   38.7180   31.2820   40.2300 C   0  0  1  0  0  0  0  0  0  0  0  0
   39.8390   31.3000   41.9290 H   0  0  0  0  0  0  0  0  0  0  0  0
   39.8080   33.4540   40.9620 H   0  0  0  0  0  0  0  0  0  0  0  0
   36.8050   33.5190   41.6690 H   0  0  0  0  0  0  0  0  0  0  0  0
   37.8740   34.8060   41.1420 H   0  0  0  0  0  0  0  0  0  0  0  0
   36.6220   31.5400   40.0730 H   0  0  0  0  0  0  0  0  0  0  0  0
   37.5650   31.8420   38.5220 H   0  0  0  0  0  0  0  0  0  0  0  0
   38.4330   30.1880   40.2610 H   0  0  0  0  0  0  0  0  0  0  0  0
   39.9620   31.3410   39.4600 C   0  0  0  0  0  0  0  0  0  0  0  0
   40.2740   31.9680   38.2890 C   0  0  0  0  0  3  0  0  0  0  0  0
   41.5360   31.8840   37.7350 C   0  0  0  0  0  0  0  0  0  0  0  0
   41.6570   32.4280   36.8000 H   0  0  0  0  0  0  0  0  0  0  0  0
   42.5280   31.1700   38.3370 N   0  0  0  0  0  0  0  0  0  0  0  0
   42.1920   30.5620   39.4900 C   0  0  0  0  0  3  0  0  0  0  0  0
   40.9540   30.6230   40.0660 N   0  0  0  0  0  0  0  0  0  0  0  0
  1 10  1  0  0  0  0
  1  2  1  0  0  0  0
  2 16  1  0  0  0  0
  3  2  2  0  0  0  0
  3 11  1  0  0  0  0
  4  3  1  0  0  0  0
  5 12  1  0  0  0  0
  5  4  1  0  0  0  0
  6  5  1  0  0  0  0
  7  6  2  0  0  0  0
  7  8  1  0  0  0  0
  8  9  1  0  0  0  0
  8  4  2  0  0  0  0
  9  1  2  0  0  0  0
 13  9  1  0  0  0  0
 14 19  1  0  0  0  0
 14 20  1  0  0  0  0
 15 14  2  0  0  0  0
 16 17  2  0  0  0  0
 16 15  1  0  0  0  0
 17 18  1  0  0  0  0
 18 22  1  0  0  0  0
 18 19  2  0  0  0  0
 21 15  1  0  0  0  0
 23  6  1  0  0  0  0
 24 25  1  0  0  0  0
 24 30  1  0  0  0  0
 25 31  1  6  0  0  0
 25 23  1  0  0  0  0
 26 25  1  0  0  0  0
 26 32  1  0  0  0  0
 27 26  1  0  0  0  0
 28 27  1  0  0  0  0
 28 34  1  0  0  0  0
 28 29  1  0  0  0  0
 29 36  1  1  0  0  0
 29 24  1  0  0  0  0
 33 26  1  0  0  0  0
 35 28  1  0  0  0  0
 37 43  1  0  0  0  0
 37 29  1  0  0  0  0
 38 37  2  0  0  0  0
 39 38  1  0  0  0  0
 39 41  2  0  0  0  0
 40 39  1  0  0  0  0
 41 42  1  0  0  0  0
 42 43  2  0  0  0  0
M  END
>  <minimizedAffinity>
-5.8688426

>  <minimizedRMSD>
0.702142477

$$$$
