
 OpenBabel03272510343D

 26 28  0  0  0  0  0  0  0  0999 V2000
   35.8160   30.0950   46.7010 C   0  0  0  0  0  0  0  0  0  0  0  0
   35.2540   30.1140   45.4530 C   0  0  0  0  0  0  0  0  0  0  0  0
   34.0630   29.4710   45.1800 C   0  0  0  0  0  0  0  0  0  0  0  0
   33.4410   28.8000   46.2010 C   0  0  0  0  0  0  0  0  0  0  0  0
   33.9770   28.7570   47.4790 C   0  0  0  0  0  0  0  0  0  0  0  0
   35.1770   29.4120   47.7270 C   0  0  0  0  0  0  0  0  0  0  0  0
   35.7220   30.6380   44.6140 H   0  0  0  0  0  0  0  0  0  0  0  0
   33.6360   29.5000   44.1820 H   0  0  0  0  0  0  0  0  0  0  0  0
   32.5100   28.3090   45.9470 H   0  0  0  0  0  0  0  0  0  0  0  0
   33.4490   28.2150   48.2490 H   0  0  0  0  0  0  0  0  0  0  0  0
   38.2110   32.4810   48.0330 C   0  0  0  0  0  0  0  0  0  0  0  0
   39.3930   32.2190   47.3420 C   0  0  0  0  0  0  0  0  0  0  0  0
   39.3470   31.1860   46.3900 C   0  0  0  0  0  0  0  0  0  0  0  0
   38.1850   30.5160   46.2010 N   0  0  0  0  0  0  0  0  0  0  0  0
   37.0740   30.8010   46.8890 C   0  0  0  0  0  0  0  0  0  0  0  0
   37.0910   31.7950   47.8130 N   0  0  0  0  0  0  0  0  0  0  0  0
   38.2960   33.2980   48.7670 H   0  0  0  0  0  0  0  0  0  0  0  0
   40.3390   32.7130   47.4470 H   0  0  0  0  0  0  0  0  0  0  0  0
   40.1850   30.8480   45.7580 H   0  0  0  0  0  0  0  0  0  0  0  0
   35.7750   29.3920   49.0580 C   0  0  0  0  0  0  0  0  0  0  0  0
   34.9380   29.5180   50.1480 C   0  0  0  0  0  3  0  0  0  0  0  0
   35.4860   29.5000   51.3930 C   0  0  0  0  0  0  0  0  0  0  0  0
   34.9770   29.5870   52.3510 H   0  0  0  0  0  0  0  0  0  0  0  0
   36.8030   29.3630   51.5660 N   0  0  0  0  0  0  0  0  0  0  0  0
   37.6540   29.2350   50.5060 C   0  0  0  0  0  3  0  0  0  0  0  0
   37.0760   29.2580   49.3030 N   0  0  0  0  0  0  0  0  0  0  0  0
  1 15  1  0  0  0  0
  1  6  1  0  0  0  0
  2  1  2  0  0  0  0
  3  2  1  0  0  0  0
  3  4  2  0  0  0  0
  4  5  1  0  0  0  0
  5  6  2  0  0  0  0
  5 10  1  0  0  0  0
  6 20  1  0  0  0  0
  7  2  1  0  0  0  0
  8  3  1  0  0  0  0
  9  4  1  0  0  0  0
 11 17  1  0  0  0  0
 12 18  1  0  0  0  0
 12 11  2  0  0  0  0
 13 12  1  0  0  0  0
 14 13  2  0  0  0  0
 14 15  1  0  0  0  0
 15 16  2  0  0  0  0
 16 11  1  0  0  0  0
 19 13  1  0  0  0  0
 20 26  2  0  0  0  0
 20 21  1  0  0  0  0
 21 22  2  0  0  0  0
 22 24  1  0  0  0  0
 22 23  1  0  0  0  0
 25 24  2  0  0  0  0
 26 25  1  0  0  0  0
M  END
>  <minimizedAffinity>
-4.58644247

>  <minimizedRMSD>
2.11836171

$$$$
