
 OpenBabel03272508193D

 29 31  0  0  0  0  0  0  0  0999 V2000
   37.2240   31.0090   48.8240 C   0  0  0  0  0  0  0  0  0  0  0  0
   36.1790   30.2320   48.3010 C   0  0  0  0  0  0  0  0  0  0  0  0
   35.8590   29.1500   49.0870 C   0  0  0  0  0  0  0  0  0  0  0  0
   36.4950   28.8720   50.2410 N   0  0  0  0  0  0  0  0  0  0  0  0
   37.4980   29.6370   50.7170 C   0  0  0  0  0  0  0  0  0  0  0  0
   37.8630   30.7070   50.0060 N   0  0  0  0  0  0  0  0  0  0  0  0
   35.0480   28.4890   48.7480 H   0  0  0  0  0  0  0  0  0  0  0  0
   37.9510   29.3480   51.6410 H   0  0  0  0  0  0  0  0  0  0  0  0
   37.5630   32.2940   48.0770 C   0  0  0  0  0  0  0  0  0  0  0  0
   38.7600   33.0130   48.3070 C   0  0  0  0  0  0  0  0  0  0  0  0
   38.8030   32.0140   47.1630 C   0  0  0  0  0  0  0  0  0  0  0  0
   36.7290   32.7010   47.4330 H   0  0  0  0  0  0  0  0  0  0  0  0
   38.8160   34.0860   48.0430 H   0  0  0  0  0  0  0  0  0  0  0  0
   39.4160   32.7390   49.1680 H   0  0  0  0  0  0  0  0  0  0  0  0
   39.3670   31.1010   47.3040 H   0  0  0  0  0  0  0  0  0  0  0  0
   38.7240   32.4580   46.1660 H   0  0  0  0  0  0  0  0  0  0  0  0
   35.5590   30.5410   47.0180 C   0  0  0  0  0  0  0  0  0  0  0  0
   34.6320   31.1560   47.0870 H   0  0  0  0  0  0  0  0  0  0  0  0
   36.2710   31.1880   46.4560 H   0  0  0  0  0  0  0  0  0  0  0  0
   35.2140   29.3730   46.1760 C   0  0  0  0  0  0  0  0  0  0  0  0
   35.3100   28.4370   46.7690 H   0  0  0  0  0  0  0  0  0  0  0  0
   35.8030   29.2840   45.2590 H   0  0  0  0  0  0  0  0  0  0  0  0
   33.7900   29.4520   45.7650 C   0  0  0  0  0  0  0  0  0  0  0  0
   32.9400   30.5110   45.5300 C   0  0  0  0  0  3  0  0  0  0  0  0
   31.6480   30.2890   45.1370 C   0  0  0  0  0  0  0  0  0  0  0  0
   31.1000   31.2230   44.9930 H   0  0  0  0  0  0  0  0  0  0  0  0
   31.2060   29.0260   44.9780 N   0  0  0  0  0  0  0  0  0  0  0  0
   32.0180   27.9940   45.2000 C   0  0  0  0  0  3  0  0  0  0  0  0
   33.2880   28.2110   45.5870 N   0  0  0  0  0  0  0  0  0  0  0  0
  1  6  1  0  0  0  0
  2  1  2  0  0  0  0
  2  3  1  0  0  0  0
  3  4  2  0  0  0  0
  4  5  1  0  0  0  0
  5  8  1  0  0  0  0
  6  5  2  0  0  0  0
  7  3  1  0  0  0  0
  9 10  1  0  0  0  0
  9  1  1  0  0  0  0
 10 14  1  0  0  0  0
 11 15  1  0  0  0  0
 11  9  1  0  0  0  0
 11 10  1  0  0  0  0
 12  9  1  0  0  0  0
 13 10  1  0  0  0  0
 16 11  1  0  0  0  0
 17 18  1  0  0  0  0
 17  2  1  0  0  0  0
 19 17  1  0  0  0  0
 20 21  1  0  0  0  0
 20 17  1  0  0  0  0
 22 20  1  0  0  0  0
 23 20  1  0  0  0  0
 24 23  2  0  0  0  0
 25 24  1  0  0  0  0
 26 25  1  0  0  0  0
 27 25  2  0  0  0  0
 27 28  1  0  0  0  0
 28 29  2  0  0  0  0
 29 23  1  0  0  0  0
M  END
>  <minimizedAffinity>
-3.59587646

>  <minimizedRMSD>
6.57216787

$$$$
