
 OpenBabel03272507583D

 30 32  0  0  0  0  0  0  0  0999 V2000
   36.9590   31.1290   48.3550 C   0  0  0  0  0  0  0  0  0  0  0  0
   37.2720   32.0880   49.2980 C   0  0  0  0  0  0  0  0  0  0  0  0
   38.2380   33.0430   49.0160 C   0  0  0  0  0  0  0  0  0  0  0  0
   38.8840   33.0300   47.7860 C   0  0  0  0  0  0  0  0  0  0  0  0
   38.5430   32.0600   46.8750 C   0  0  0  0  0  0  0  0  0  0  0  0
   37.6040   31.1380   47.1640 N   0  0  0  0  0  0  0  0  0  0  0  0
   36.8650   32.2360   50.2930 H   0  0  0  0  0  0  0  0  0  0  0  0
   38.5490   33.8310   49.6870 H   0  0  0  0  0  0  0  0  0  0  0  0
   39.6420   33.7550   47.5190 H   0  0  0  0  0  0  0  0  0  0  0  0
   35.1010   28.5890   50.4050 C   0  0  0  0  0  0  0  0  0  0  0  0
   36.1330   29.4750   49.9850 C   0  0  0  0  0  0  0  0  0  0  0  0
   35.9290   30.2100   48.8220 C   0  0  0  0  0  0  0  0  0  0  0  0
   34.7500   30.0480   48.1420 N   0  0  0  0  0  0  0  0  0  0  0  0
   33.8000   29.1840   48.5960 C   0  0  0  0  0  0  0  0  0  0  0  0
   33.9580   28.4650   49.7000 N   0  0  0  0  0  0  0  0  0  0  0  0
   32.6690   29.1700   47.7230 N   0  0  0  0  0  0  0  0  0  0  0  0
   35.2360   28.0080   51.3030 H   0  0  0  0  0  0  0  0  0  0  0  0
   32.0670   30.0340   47.7480 H   0  0  0  0  0  0  0  0  0  0  0  0
   32.5220   28.3190   47.1330 H   0  0  0  0  0  0  0  0  0  0  0  0
   37.3700   29.5720   50.7980 C   0  0  0  0  0  0  0  0  0  0  0  0
   38.4900   29.7940   49.9960 F   0  0  0  0  0  0  0  0  0  0  0  0
   37.2390   30.6160   51.6570 F   0  0  0  0  0  0  0  0  0  0  0  0
   37.6220   28.4320   51.5420 F   0  0  0  0  0  0  0  0  0  0  0  0
   39.1930   32.0070   45.5710 C   0  0  0  0  0  0  0  0  0  0  0  0
   38.9310   32.9440   44.6000 C   0  0  0  0  0  3  0  0  0  0  0  0
   39.6100   32.7830   43.4110 C   0  0  0  0  0  0  0  0  0  0  0  0
   39.4240   33.5160   42.6110 H   0  0  0  0  0  0  0  0  0  0  0  0
   40.4760   31.7760   43.2010 N   0  0  0  0  0  0  0  0  0  0  0  0
   40.7180   30.8610   44.1770 C   0  0  0  0  0  3  0  0  0  0  0  0
   40.0670   31.0140   45.3220 N   0  0  0  0  0  0  0  0  0  0  0  0
  1 12  1  0  0  0  0
  1  2  1  0  0  0  0
  2  7  1  0  0  0  0
  3  2  2  0  0  0  0
  3  8  1  0  0  0  0
  4  3  1  0  0  0  0
  5  6  1  0  0  0  0
  5  4  2  0  0  0  0
  6  1  2  0  0  0  0
  9  4  1  0  0  0  0
 10 17  1  0  0  0  0
 11 10  1  0  0  0  0
 11 20  1  0  0  0  0
 12 11  2  0  0  0  0
 13 14  2  0  0  0  0
 13 12  1  0  0  0  0
 14 15  1  0  0  0  0
 15 10  2  0  0  0  0
 16 18  1  0  0  0  0
 16 14  1  0  0  0  0
 19 16  1  0  0  0  0
 20 23  1  0  0  0  0
 20 22  1  0  0  0  0
 21 20  1  0  0  0  0
 24  5  1  0  0  0  0
 25 24  2  0  0  0  0
 26 25  1  0  0  0  0
 27 26  1  0  0  0  0
 28 26  2  0  0  0  0
 28 29  1  0  0  0  0
 29 30  2  0  0  0  0
 30 24  1  0  0  0  0
M  END
>  <minimizedAffinity>
-6.90840483

>  <minimizedRMSD>
1.0799346

$$$$
