
 OpenBabel03272510013D

 19 20  0  0  0  0  0  0  0  0999 V2000
   38.3080   31.2890   50.2030 C   0  0  0  0  0  0  0  0  0  0  0  0
   38.4190   31.5530   48.8260 C   0  0  0  0  0  0  0  0  0  0  0  0
   37.4080   31.0680   48.0100 C   0  0  0  0  0  0  0  0  0  0  0  0
   36.3790   30.3750   48.5540 N   0  0  0  0  0  0  0  0  0  0  0  0
   36.3120   30.1430   49.8850 C   0  0  0  0  0  0  0  0  0  0  0  0
   37.2690   30.5970   50.7010 N   0  0  0  0  0  0  0  0  0  0  0  0
   39.0760   31.6520   50.8750 H   0  0  0  0  0  0  0  0  0  0  0  0
   39.2620   32.1130   48.4440 H   0  0  0  0  0  0  0  0  0  0  0  0
   37.4600   31.3060   46.5710 C   0  0  0  0  0  0  0  0  0  0  0  0
   36.6990   30.5310   45.7200 C   0  0  0  0  0  3  0  0  0  0  0  0
   36.7960   30.8120   44.3720 C   0  0  0  0  0  0  0  0  0  0  0  0
   36.2150   30.2240   43.6900 H   0  0  0  0  0  0  0  0  0  0  0  0
   37.6060   31.7990   43.9600 N   0  0  0  0  0  0  0  0  0  0  0  0
   38.3470   32.5560   44.7710 C   0  0  0  0  0  3  0  0  0  0  0  0
   38.2520   32.2810   46.0980 N   0  0  0  0  0  0  0  0  0  0  0  0
   35.1500   29.3750   50.3970 C   0  0  0  0  0  0  0  0  0  0  0  0
   35.2450   29.1110   51.7570 F   0  0  0  0  0  0  0  0  0  0  0  0
   33.9680   30.0740   50.2120 F   0  0  0  0  0  0  0  0  0  0  0  0
   34.9750   28.1710   49.7560 F   0  0  0  0  0  0  0  0  0  0  0  0
  1  6  1  0  0  0  0
  1  7  1  0  0  0  0
  2  1  2  0  0  0  0
  3  4  2  0  0  0  0
  3  2  1  0  0  0  0
  4  5  1  0  0  0  0
  5 16  1  0  0  0  0
  5  6  2  0  0  0  0
  8  2  1  0  0  0  0
  9  3  1  0  0  0  0
 10  9  2  0  0  0  0
 11 10  1  0  0  0  0
 12 11  1  0  0  0  0
 13 11  2  0  0  0  0
 13 14  1  0  0  0  0
 14 15  2  0  0  0  0
 15  9  1  0  0  0  0
 16 17  1  0  0  0  0
 18 16  1  0  0  0  0
 19 16  1  0  0  0  0
M  END
>  <minimizedAffinity>
-5.39795732

>  <minimizedRMSD>
0.390915751

$$$$
