
 OpenBabel03262522023D

 37 40  0  0  1  0  0  0  0  0999 V2000
   34.4770   29.1940   48.8050 C   0  0  2  0  0  0  0  0  0  0  0  0
   35.1430   28.4540   49.9300 C   0  0  0  0  0  0  0  0  0  0  0  0
   36.3300   29.1860   50.3310 N   0  0  0  0  0  0  0  0  0  0  0  0
   37.3310   29.8780   51.0830 C   0  0  0  0  0  0  0  0  0  0  0  0
   37.6210   30.0500   52.2920 O   0  0  0  0  0  0  0  0  0  0  0  0
   38.0150   30.3990   49.9010 C   0  0  1  0  0  0  0  0  0  0  0  0
   37.1390   29.4250   49.1630 C   0  0  2  0  0  0  0  0  0  0  0  0
   35.8530   30.1800   48.1130 S   0  0  0  0  0  0  0  0  0  0  0  0
   34.4170   28.4910   50.7810 H   0  0  0  0  0  0  0  0  0  0  0  0
   35.3200   27.3940   49.7340 H   0  0  0  0  0  0  0  0  0  0  0  0
   39.0610   30.1220   49.6950 H   0  0  0  0  0  0  0  0  0  0  0  0
   37.6240   28.5430   48.7230 H   0  0  0  0  0  0  0  0  0  0  0  0
   33.3020   30.0310   49.2220 C   0  0  0  0  0  0  0  0  0  0  0  0
   33.4770   30.5740   50.1580 H   0  0  0  0  0  0  0  0  0  0  0  0
   33.1220   30.7730   48.4280 H   0  0  0  0  0  0  0  0  0  0  0  0
   32.3990   29.3920   49.2780 H   0  0  0  0  0  0  0  0  0  0  0  0
   34.0970   28.2100   47.7060 C   0  0  0  0  0  0  0  0  0  0  0  0
   34.6750   27.2720   47.8610 H   0  0  0  0  0  0  0  0  0  0  0  0
   34.5060   28.6400   46.7520 H   0  0  0  0  0  0  0  0  0  0  0  0
   32.6530   27.9820   47.5960 C   0  0  0  0  0  0  0  0  0  0  0  0
   31.9180   27.1460   48.4110 C   0  0  0  0  0  0  0  0  0  0  0  0
   30.5520   26.9590   48.2680 C   0  0  0  0  0  0  0  0  0  0  0  0
   30.0100   26.2910   48.9300 H   0  0  0  0  0  0  0  0  0  0  0  0
   29.9660   27.6530   47.2720 N   0  0  0  0  0  0  0  0  0  0  0  0
   30.6910   28.4660   46.4830 C   0  0  0  0  0  0  0  0  0  0  0  0
   32.0160   28.6520   46.6140 N   0  0  0  0  0  0  0  0  0  0  0  0
   37.7980   31.8370   49.6200 C   0  0  0  0  0  0  0  0  0  0  0  0
   36.8260   32.3460   50.2480 O   0  0  0  0  0  0  0  0  0  0  0  0
   38.6300   32.5840   48.7110 C   0  0  0  0  0  0  0  0  0  0  0  0
   39.1510   33.7840   49.1640 C   0  0  0  0  0  0  0  0  0  0  0  0
   39.9690   34.5260   48.2760 C   0  0  0  0  0  0  0  0  0  0  0  0
   40.1920   34.0030   47.0230 N   0  0  0  0  0  0  0  0  0  0  0  0
   39.6710   32.8490   46.6360 C   0  0  0  0  0  0  0  0  0  0  0  0
   38.8920   32.1360   47.4720 N   0  0  0  0  0  0  0  0  0  0  0  0
   38.9650   34.1750   50.1450 H   0  0  0  0  0  0  0  0  0  0  0  0
   40.4050   35.4700   48.5730 H   0  0  0  0  0  0  0  0  0  0  0  0
   39.8280   32.4120   45.6570 H   0  0  0  0  0  0  0  0  0  0  0  0
  1 17  1  6  0  0  0
  1 13  1  0  0  0  0
  1  2  1  0  0  0  0
  2  3  1  0  0  0  0
  2  9  1  0  0  0  0
  3  4  1  0  0  0  0
  4  5  2  0  0  0  0
  6 11  1  6  0  0  0
  6  4  1  0  0  0  0
  7 12  1  6  0  0  0
  7  6  1  0  0  0  0
  7  3  1  0  0  0  0
  8  1  1  0  0  0  0
  8  7  1  0  0  0  0
 10  2  1  0  0  0  0
 13 16  1  0  0  0  0
 13 14  1  0  0  0  0
 15 13  1  0  0  0  0
 17 18  1  0  0  0  0
 19 17  1  0  0  0  0
 20 17  1  0  0  0  0
 20 21  1  0  0  0  0
 22 21  2  0  0  0  0
 22 23  1  0  0  0  0
 24 22  1  0  0  0  0
 25 26  1  0  0  0  0
 25 24  2  0  0  0  0
 26 20  2  0  0  0  0
 27  6  1  0  0  0  0
 27 28  2  0  0  0  0
 29 30  1  0  0  0  0
 29 27  1  0  0  0  0
 30 35  1  0  0  0  0
 31 36  1  0  0  0  0
 31 30  2  0  0  0  0
 32 31  1  0  0  0  0
 33 32  2  0  0  0  0
 33 34  1  0  0  0  0
 34 29  2  0  0  0  0
 37 33  1  0  0  0  0
M  END
>  <minimizedAffinity>
-5.24679852

>  <minimizedRMSD>
1.71698594

$$$$
