
 OpenBabel03272500053D

 27 29  0  0  0  0  0  0  0  0999 V2000
   37.7250   25.4360   34.3010 C   0  0  0  0  0  0  0  0  0  0  0  0
   38.4870   25.6290   35.4700 C   0  0  0  0  0  0  0  0  0  0  0  0
   38.4710   26.8830   36.0460 C   0  0  0  0  0  0  0  0  0  0  0  0
   37.7380   27.8730   35.4830 N   0  0  0  0  0  0  0  0  0  0  0  0
   37.0180   27.6660   34.3670 C   0  0  0  0  0  0  0  0  0  0  0  0
   37.0050   26.4510   33.7670 N   0  0  0  0  0  0  0  0  0  0  0  0
   37.7180   24.4630   33.8260 H   0  0  0  0  0  0  0  0  0  0  0  0
   39.0510   27.0360   36.9380 H   0  0  0  0  0  0  0  0  0  0  0  0
   39.2240   24.5110   35.9760 N   0  0  0  0  0  0  0  0  0  0  0  0
   40.4510   24.2020   35.5120 C   0  0  0  0  0  0  0  0  0  0  0  0
   41.1250   23.1040   36.0380 C   0  0  0  0  0  0  0  0  0  0  0  0
   40.4460   22.4220   37.0130 C   0  0  0  0  0  0  0  0  0  0  0  0
   41.0420   21.4190   37.5050 O   0  0  0  0  0  0  0  0  0  0  0  0
   39.2270   22.7120   37.4880 N   0  0  0  0  0  0  0  0  0  0  0  0
   38.6100   23.7910   36.9430 C   0  0  0  0  0  0  0  0  0  0  0  0
   37.4610   24.0720   37.3860 O   0  0  0  0  0  0  0  0  0  0  0  0
   40.9130   24.7990   34.7360 H   0  0  0  0  0  0  0  0  0  0  0  0
   42.1030   22.8080   35.7090 H   0  0  0  0  0  0  0  0  0  0  0  0
   38.7670   22.1590   38.2250 H   0  0  0  0  0  0  0  0  0  0  0  0
   36.2510   28.6500   33.7530 O   0  0  0  0  0  0  0  0  0  0  0  0
   35.4880   29.5610   34.4920 C   0  0  0  0  0  0  0  0  0  0  0  0
   34.1180   29.4070   34.4500 C   0  0  0  0  0  3  0  0  0  0  0  0
   33.4100   30.3260   35.1920 C   0  0  0  0  0  0  0  0  0  0  0  0
   32.3310   30.2710   35.2100 H   0  0  0  0  0  0  0  0  0  0  0  0
   33.9830   31.3230   35.9220 N   0  0  0  0  0  0  0  0  0  0  0  0
   35.3380   31.4260   35.9260 C   0  0  0  0  0  3  0  0  0  0  0  0
   36.0750   30.5480   35.2140 N   0  0  0  0  0  0  0  0  0  0  0  0
  1  2  1  0  0  0  0
  2  9  1  0  0  0  0
  2  3  2  0  0  0  0
  3  8  1  0  0  0  0
  4  3  1  0  0  0  0
  5  4  2  0  0  0  0
  6  1  2  0  0  0  0
  6  5  1  0  0  0  0
  7  1  1  0  0  0  0
  9 15  1  0  0  0  0
 10  9  1  0  0  0  0
 10 11  2  0  0  0  0
 11 12  1  0  0  0  0
 12 14  1  0  0  0  0
 12 13  2  0  0  0  0
 14 19  1  0  0  0  0
 15 16  2  0  0  0  0
 15 14  1  0  0  0  0
 17 10  1  0  0  0  0
 18 11  1  0  0  0  0
 20  5  1  0  0  0  0
 20 21  1  0  0  0  0
 21 27  1  0  0  0  0
 22 21  2  0  0  0  0
 22 23  1  0  0  0  0
 23 24  1  0  0  0  0
 23 25  2  0  0  0  0
 25 26  1  0  0  0  0
 27 26  2  0  0  0  0
M  END
>  <minimizedAffinity>
-5.48937702

$$$$

 OpenBabel03272500053D

 27 29  0  0  0  0  0  0  0  0999 V2000
   37.8660   25.0260   34.2320 C   0  0  0  0  0  0  0  0  0  0  0  0
   38.6350   25.3430   35.3670 C   0  0  0  0  0  0  0  0  0  0  0  0
   38.5960   26.6440   35.8260 C   0  0  0  0  0  0  0  0  0  0  0  0
   37.8350   27.5610   35.1830 N   0  0  0  0  0  0  0  0  0  0  0  0
   37.1080   27.2370   34.1000 C   0  0  0  0  0  0  0  0  0  0  0  0
   37.1170   25.9710   33.6160 N   0  0  0  0  0  0  0  0  0  0  0  0
   37.8760   24.0140   33.8480 H   0  0  0  0  0  0  0  0  0  0  0  0
   39.1820   26.8920   36.6930 H   0  0  0  0  0  0  0  0  0  0  0  0
   39.4030   24.2940   35.9650 N   0  0  0  0  0  0  0  0  0  0  0  0
   40.6440   23.9910   35.5360 C   0  0  0  0  0  0  0  0  0  0  0  0
   41.3490   22.9610   36.1520 C   0  0  0  0  0  0  0  0  0  0  0  0
   40.6830   22.3340   37.1710 C   0  0  0  0  0  0  0  0  0  0  0  0
   41.3050   21.3920   37.7450 O   0  0  0  0  0  0  0  0  0  0  0  0
   39.4500   22.6180   37.6130 N   0  0  0  0  0  0  0  0  0  0  0  0
   38.8030   23.6310   36.9810 C   0  0  0  0  0  0  0  0  0  0  0  0
   37.6400   23.9060   37.3910 O   0  0  0  0  0  0  0  0  0  0  0  0
   41.0950   24.5410   34.7210 H   0  0  0  0  0  0  0  0  0  0  0  0
   42.3400   22.6730   35.8550 H   0  0  0  0  0  0  0  0  0  0  0  0
   39.0000   22.1090   38.3870 H   0  0  0  0  0  0  0  0  0  0  0  0
   36.3120   28.1420   33.4080 O   0  0  0  0  0  0  0  0  0  0  0  0
   36.6850   28.6500   32.1590 C   0  0  0  0  0  0  0  0  0  0  0  0
   35.9150   29.6730   31.6450 C   0  0  0  0  0  3  0  0  0  0  0  0
   36.3200   30.1400   30.4140 C   0  0  0  0  0  0  0  0  0  0  0  0
   35.7670   30.9420   29.9460 H   0  0  0  0  0  0  0  0  0  0  0  0
   37.3920   29.6540   29.7270 N   0  0  0  0  0  0  0  0  0  0  0  0
   38.1130   28.6450   30.2840 C   0  0  0  0  0  3  0  0  0  0  0  0
   37.7550   28.1550   31.4880 N   0  0  0  0  0  0  0  0  0  0  0  0
  1  2  1  0  0  0  0
  2  3  2  0  0  0  0
  2  9  1  0  0  0  0
  3  8  1  0  0  0  0
  4  3  1  0  0  0  0
  5  4  2  0  0  0  0
  6  5  1  0  0  0  0
  6  1  2  0  0  0  0
  7  1  1  0  0  0  0
  9 15  1  0  0  0  0
 10  9  1  0  0  0  0
 10 11  2  0  0  0  0
 11 12  1  0  0  0  0
 12 14  1  0  0  0  0
 12 13  2  0  0  0  0
 14 19  1  0  0  0  0
 15 16  2  0  0  0  0
 15 14  1  0  0  0  0
 17 10  1  0  0  0  0
 18 11  1  0  0  0  0
 20  5  1  0  0  0  0
 21 20  1  0  0  0  0
 22 21  1  0  0  0  0
 23 22  2  0  0  0  0
 24 23  1  0  0  0  0
 25 26  2  0  0  0  0
 25 23  1  0  0  0  0
 26 27  1  0  0  0  0
 27 21  2  0  0  0  0
M  END
>  <minimizedAffinity>
-5.30487776

$$$$

 OpenBabel03272500053D

 27 29  0  0  0  0  0  0  0  0999 V2000
   38.0200   24.4690   31.6390 C   0  0  0  0  0  0  0  0  0  0  0  0
   37.9530   25.8240   32.0130 C   0  0  0  0  0  0  0  0  0  0  0  0
   37.8730   26.1150   33.3600 C   0  0  0  0  0  0  0  0  0  0  0  0
   37.8610   25.1080   34.2660 N   0  0  0  0  0  0  0  0  0  0  0  0
   37.9270   23.8210   33.8860 C   0  0  0  0  0  0  0  0  0  0  0  0
   38.0050   23.4900   32.5740 N   0  0  0  0  0  0  0  0  0  0  0  0
   38.0830   24.2090   30.5890 H   0  0  0  0  0  0  0  0  0  0  0  0
   37.8220   27.1480   33.6510 H   0  0  0  0  0  0  0  0  0  0  0  0
   37.9720   26.8040   30.9700 N   0  0  0  0  0  0  0  0  0  0  0  0
   39.1280   27.2660   30.4530 C   0  0  0  0  0  0  0  0  0  0  0  0
   39.0920   28.2200   29.4400 C   0  0  0  0  0  0  0  0  0  0  0  0
   37.8360   28.6080   29.0560 C   0  0  0  0  0  0  0  0  0  0  0  0
   37.7800   29.4760   28.1360 O   0  0  0  0  0  0  0  0  0  0  0  0
   36.6750   28.1620   29.5570 N   0  0  0  0  0  0  0  0  0  0  0  0
   36.7620   27.2330   30.5430 C   0  0  0  0  0  0  0  0  0  0  0  0
   35.6730   26.8080   31.0200 O   0  0  0  0  0  0  0  0  0  0  0  0
   40.0800   26.9020   30.8180 H   0  0  0  0  0  0  0  0  0  0  0  0
   39.9780   28.6260   28.9890 H   0  0  0  0  0  0  0  0  0  0  0  0
   35.7580   28.4940   29.2260 H   0  0  0  0  0  0  0  0  0  0  0  0
   37.9180   22.7540   34.7780 O   0  0  0  0  0  0  0  0  0  0  0  0
   38.3880   22.8830   36.0890 C   0  0  0  0  0  0  0  0  0  0  0  0
   37.4760   23.2840   37.0430 C   0  0  0  0  0  3  0  0  0  0  0  0
   37.9850   23.3970   38.3180 C   0  0  0  0  0  0  0  0  0  0  0  0
   37.3310   23.7070   39.1210 H   0  0  0  0  0  0  0  0  0  0  0  0
   39.2810   23.1410   38.6500 N   0  0  0  0  0  0  0  0  0  0  0  0
   40.1340   22.7490   37.6670 C   0  0  0  0  0  3  0  0  0  0  0  0
   39.6830   22.6240   36.4020 N   0  0  0  0  0  0  0  0  0  0  0  0
  1  2  2  0  0  0  0
  1  6  1  0  0  0  0
  2  3  1  0  0  0  0
  3  8  1  0  0  0  0
  3  4  2  0  0  0  0
  5  4  1  0  0  0  0
  5 20  1  0  0  0  0
  6  5  2  0  0  0  0
  7  1  1  0  0  0  0
  9  2  1  0  0  0  0
 10 17  1  0  0  0  0
 10  9  1  0  0  0  0
 11 10  2  0  0  0  0
 12 11  1  0  0  0  0
 12 14  1  0  0  0  0
 13 12  2  0  0  0  0
 14 15  1  0  0  0  0
 15  9  1  0  0  0  0
 15 16  2  0  0  0  0
 18 11  1  0  0  0  0
 19 14  1  0  0  0  0
 20 21  1  0  0  0  0
 21 27  2  0  0  0  0
 21 22  1  0  0  0  0
 22 23  2  0  0  0  0
 23 25  1  0  0  0  0
 23 24  1  0  0  0  0
 26 25  2  0  0  0  0
 27 26  1  0  0  0  0
M  END
>  <minimizedAffinity>
-5.02041292

$$$$

 OpenBabel03272500053D

 27 29  0  0  0  0  0  0  0  0999 V2000
   37.6140   25.5620   34.2850 C   0  0  0  0  0  0  0  0  0  0  0  0
   38.4000   25.7310   35.4410 C   0  0  0  0  0  0  0  0  0  0  0  0
   38.4330   26.9840   36.0170 C   0  0  0  0  0  0  0  0  0  0  0  0
   37.7230   27.9970   35.4650 N   0  0  0  0  0  0  0  0  0  0  0  0
   36.9800   27.8140   34.3610 C   0  0  0  0  0  0  0  0  0  0  0  0
   36.9190   26.6000   33.7620 N   0  0  0  0  0  0  0  0  0  0  0  0
   37.5690   24.5900   33.8100 H   0  0  0  0  0  0  0  0  0  0  0  0
   39.0310   27.1180   36.9000 H   0  0  0  0  0  0  0  0  0  0  0  0
   39.1080   24.5900   35.9360 N   0  0  0  0  0  0  0  0  0  0  0  0
   38.6220   23.8360   36.9430 C   0  0  0  0  0  0  0  0  0  0  0  0
   39.3500   22.7370   37.3880 C   0  0  0  0  0  0  0  0  0  0  0  0
   40.5340   22.5240   36.7330 C   0  0  0  0  0  0  0  0  0  0  0  0
   41.2130   21.5290   37.1220 O   0  0  0  0  0  0  0  0  0  0  0  0
   41.0350   23.2600   35.7310 N   0  0  0  0  0  0  0  0  0  0  0  0
   40.2880   24.3220   35.3330 C   0  0  0  0  0  0  0  0  0  0  0  0
   40.7540   25.0210   34.3890 O   0  0  0  0  0  0  0  0  0  0  0  0
   37.6740   24.0780   37.4050 H   0  0  0  0  0  0  0  0  0  0  0  0
   39.0160   22.0990   38.1850 H   0  0  0  0  0  0  0  0  0  0  0  0
   41.9350   23.0490   35.2770 H   0  0  0  0  0  0  0  0  0  0  0  0
   36.2350   28.8220   33.7580 O   0  0  0  0  0  0  0  0  0  0  0  0
   35.4170   29.6810   34.5010 C   0  0  0  0  0  0  0  0  0  0  0  0
   34.0600   29.4320   34.4700 C   0  0  0  0  0  3  0  0  0  0  0  0
   33.2960   30.3030   35.2140 C   0  0  0  0  0  0  0  0  0  0  0  0
   32.2240   30.1730   35.2410 H   0  0  0  0  0  0  0  0  0  0  0  0
   33.8050   31.3400   35.9380 N   0  0  0  0  0  0  0  0  0  0  0  0
   35.1500   31.5350   35.9300 C   0  0  0  0  0  3  0  0  0  0  0  0
   35.9400   30.7080   35.2160 N   0  0  0  0  0  0  0  0  0  0  0  0
  1  2  1  0  0  0  0
  2  9  1  0  0  0  0
  2  3  2  0  0  0  0
  3  8  1  0  0  0  0
  4  3  1  0  0  0  0
  5  4  2  0  0  0  0
  6  1  2  0  0  0  0
  6  5  1  0  0  0  0
  7  1  1  0  0  0  0
  9 10  1  0  0  0  0
 10 11  2  0  0  0  0
 10 17  1  0  0  0  0
 11 18  1  0  0  0  0
 12 13  2  0  0  0  0
 12 11  1  0  0  0  0
 14 12  1  0  0  0  0
 15 14  1  0  0  0  0
 15  9  1  0  0  0  0
 16 15  2  0  0  0  0
 19 14  1  0  0  0  0
 20  5  1  0  0  0  0
 20 21  1  0  0  0  0
 21 27  1  0  0  0  0
 22 21  2  0  0  0  0
 22 23  1  0  0  0  0
 23 24  1  0  0  0  0
 23 25  2  0  0  0  0
 26 25  1  0  0  0  0
 27 26  2  0  0  0  0
M  END
>  <minimizedAffinity>
-4.95584822

$$$$

 OpenBabel03272500053D

 27 29  0  0  0  0  0  0  0  0999 V2000
   37.8610   25.3580   34.3910 C   0  0  0  0  0  0  0  0  0  0  0  0
   38.3550   24.0780   34.0760 C   0  0  0  0  0  0  0  0  0  0  0  0
   37.9760   23.5230   32.8710 C   0  0  0  0  0  0  0  0  0  0  0  0
   37.1550   24.2110   32.0420 N   0  0  0  0  0  0  0  0  0  0  0  0
   36.6950   25.4320   32.3630 C   0  0  0  0  0  0  0  0  0  0  0  0
   37.0410   26.0150   33.5360 N   0  0  0  0  0  0  0  0  0  0  0  0
   38.1400   25.8200   35.3300 H   0  0  0  0  0  0  0  0  0  0  0  0
   38.3500   22.5460   32.6260 H   0  0  0  0  0  0  0  0  0  0  0  0
   39.2150   23.4440   35.0280 N   0  0  0  0  0  0  0  0  0  0  0  0
   40.5300   23.7350   35.1000 C   0  0  0  0  0  0  0  0  0  0  0  0
   41.3240   23.0910   36.0430 C   0  0  0  0  0  0  0  0  0  0  0  0
   40.6620   22.1890   36.8350 C   0  0  0  0  0  0  0  0  0  0  0  0
   41.3660   21.5900   37.7000 O   0  0  0  0  0  0  0  0  0  0  0  0
   39.3580   21.8840   36.7800 N   0  0  0  0  0  0  0  0  0  0  0  0
   38.6260   22.5400   35.8440 C   0  0  0  0  0  0  0  0  0  0  0  0
   37.3960   22.2590   35.7860 O   0  0  0  0  0  0  0  0  0  0  0  0
   40.9700   24.4640   34.4320 H   0  0  0  0  0  0  0  0  0  0  0  0
   42.3750   23.2790   36.1490 H   0  0  0  0  0  0  0  0  0  0  0  0
   38.9170   21.1950   37.4050 H   0  0  0  0  0  0  0  0  0  0  0  0
   35.8520   26.1760   31.5450 O   0  0  0  0  0  0  0  0  0  0  0  0
   36.0630   27.5390   31.3100 C   0  0  0  0  0  0  0  0  0  0  0  0
   37.0630   27.8710   30.4190 C   0  0  0  0  0  3  0  0  0  0  0  0
   37.2340   29.2230   30.2200 C   0  0  0  0  0  0  0  0  0  0  0  0
   37.9980   29.5630   29.5360 H   0  0  0  0  0  0  0  0  0  0  0  0
   36.4930   30.1860   30.8370 N   0  0  0  0  0  0  0  0  0  0  0  0
   35.5220   29.7990   31.7050 C   0  0  0  0  0  3  0  0  0  0  0  0
   35.3170   28.4850   31.9320 N   0  0  0  0  0  0  0  0  0  0  0  0
  1  7  1  0  0  0  0
  2  1  1  0  0  0  0
  2  9  1  0  0  0  0
  3  2  2  0  0  0  0
  4  5  2  0  0  0  0
  4  3  1  0  0  0  0
  5  6  1  0  0  0  0
  6  1  2  0  0  0  0
  8  3  1  0  0  0  0
  9 10  1  0  0  0  0
  9 15  1  0  0  0  0
 10 11  2  0  0  0  0
 11 18  1  0  0  0  0
 11 12  1  0  0  0  0
 12 13  2  0  0  0  0
 14 12  1  0  0  0  0
 14 19  1  0  0  0  0
 15 14  1  0  0  0  0
 16 15  2  0  0  0  0
 17 10  1  0  0  0  0
 20  5  1  0  0  0  0
 21 20  1  0  0  0  0
 21 27  1  0  0  0  0
 22 21  2  0  0  0  0
 23 22  1  0  0  0  0
 23 25  2  0  0  0  0
 24 23  1  0  0  0  0
 25 26  1  0  0  0  0
 26 27  2  0  0  0  0
M  END
>  <minimizedAffinity>
-4.93652487

$$$$

 OpenBabel03272500053D

 27 29  0  0  0  0  0  0  0  0999 V2000
   36.2960   28.2960   34.4810 C   0  0  0  0  0  0  0  0  0  0  0  0
   35.6510   29.4490   33.9950 C   0  0  0  0  0  0  0  0  0  0  0  0
   35.5810   29.6170   32.6270 C   0  0  0  0  0  0  0  0  0  0  0  0
   36.1230   28.6860   31.8070 N   0  0  0  0  0  0  0  0  0  0  0  0
   36.7340   27.5920   32.2920 C   0  0  0  0  0  0  0  0  0  0  0  0
   36.8270   27.3870   33.6280 N   0  0  0  0  0  0  0  0  0  0  0  0
   36.3680   28.1360   35.5490 H   0  0  0  0  0  0  0  0  0  0  0  0
   35.0900   30.4960   32.2510 H   0  0  0  0  0  0  0  0  0  0  0  0
   35.1150   30.3660   34.9550 N   0  0  0  0  0  0  0  0  0  0  0  0
   35.8940   31.2680   35.5850 C   0  0  0  0  0  0  0  0  0  0  0  0
   35.3230   32.1370   36.5100 C   0  0  0  0  0  0  0  0  0  0  0  0
   33.9750   31.9810   36.6940 C   0  0  0  0  0  0  0  0  0  0  0  0
   33.4350   32.7610   37.5330 O   0  0  0  0  0  0  0  0  0  0  0  0
   33.1830   31.0910   36.0790 N   0  0  0  0  0  0  0  0  0  0  0  0
   33.7860   30.2660   35.1860 C   0  0  0  0  0  0  0  0  0  0  0  0
   33.0470   29.4250   34.6010 O   0  0  0  0  0  0  0  0  0  0  0  0
   36.9550   31.3210   35.3780 H   0  0  0  0  0  0  0  0  0  0  0  0
   35.8900   32.8760   37.0440 H   0  0  0  0  0  0  0  0  0  0  0  0
   32.1720   31.0220   36.2610 H   0  0  0  0  0  0  0  0  0  0  0  0
   37.3050   26.6100   31.4900 O   0  0  0  0  0  0  0  0  0  0  0  0
   37.0230   25.2510   31.6720 C   0  0  0  0  0  0  0  0  0  0  0  0
   35.8440   24.7800   31.1320 C   0  0  0  0  0  3  0  0  0  0  0  0
   35.6110   23.4380   31.3370 C   0  0  0  0  0  0  0  0  0  0  0  0
   34.7070   22.9940   30.9440 H   0  0  0  0  0  0  0  0  0  0  0  0
   36.4550   22.6100   32.0140 N   0  0  0  0  0  0  0  0  0  0  0  0
   37.6020   23.1310   32.5230 C   0  0  0  0  0  3  0  0  0  0  0  0
   37.8750   24.4400   32.3480 N   0  0  0  0  0  0  0  0  0  0  0  0
  1  7  1  0  0  0  0
  2  1  1  0  0  0  0
  2  9  1  0  0  0  0
  3  2  2  0  0  0  0
  4  5  2  0  0  0  0
  4  3  1  0  0  0  0
  5  6  1  0  0  0  0
  6  1  2  0  0  0  0
  8  3  1  0  0  0  0
  9 15  1  0  0  0  0
  9 10  1  0  0  0  0
 10 11  2  0  0  0  0
 11 12  1  0  0  0  0
 11 18  1  0  0  0  0
 12 13  2  0  0  0  0
 14 19  1  0  0  0  0
 14 12  1  0  0  0  0
 15 14  1  0  0  0  0
 16 15  2  0  0  0  0
 17 10  1  0  0  0  0
 20 21  1  0  0  0  0
 20  5  1  0  0  0  0
 21 27  1  0  0  0  0
 22 23  1  0  0  0  0
 22 21  2  0  0  0  0
 23 25  2  0  0  0  0
 24 23  1  0  0  0  0
 25 26  1  0  0  0  0
 27 26  2  0  0  0  0
M  END
>  <minimizedAffinity>
-4.92365503

$$$$

 OpenBabel03272500053D

 27 29  0  0  0  0  0  0  0  0999 V2000
   36.9850   25.7050   32.2740 C   0  0  0  0  0  0  0  0  0  0  0  0
   37.7880   26.8470   32.4600 C   0  0  0  0  0  0  0  0  0  0  0  0
   38.7950   26.7760   33.4010 C   0  0  0  0  0  0  0  0  0  0  0  0
   38.9780   25.6340   34.1060 N   0  0  0  0  0  0  0  0  0  0  0  0
   38.2000   24.5560   33.9120 C   0  0  0  0  0  0  0  0  0  0  0  0
   37.1990   24.5810   32.9980 N   0  0  0  0  0  0  0  0  0  0  0  0
   36.1870   25.7290   31.5430 H   0  0  0  0  0  0  0  0  0  0  0  0
   39.4110   27.6450   33.5470 H   0  0  0  0  0  0  0  0  0  0  0  0
   37.5030   27.9980   31.6600 N   0  0  0  0  0  0  0  0  0  0  0  0
   38.1320   28.2210   30.4890 C   0  0  0  0  0  0  0  0  0  0  0  0
   37.8190   29.3570   29.7480 C   0  0  0  0  0  0  0  0  0  0  0  0
   36.8650   30.1660   30.3070 C   0  0  0  0  0  0  0  0  0  0  0  0
   36.5650   31.2050   29.6500 O   0  0  0  0  0  0  0  0  0  0  0  0
   36.2280   29.9630   31.4690 N   0  0  0  0  0  0  0  0  0  0  0  0
   36.5680   28.8420   32.1540 C   0  0  0  0  0  0  0  0  0  0  0  0
   35.9720   28.6440   33.2500 O   0  0  0  0  0  0  0  0  0  0  0  0
   38.8760   27.5260   30.1220 H   0  0  0  0  0  0  0  0  0  0  0  0
   38.2850   29.5880   28.8090 H   0  0  0  0  0  0  0  0  0  0  0  0
   35.5170   30.6100   31.8380 H   0  0  0  0  0  0  0  0  0  0  0  0
   38.3500   23.3630   34.6100 O   0  0  0  0  0  0  0  0  0  0  0  0
   38.5780   23.3380   35.9900 C   0  0  0  0  0  0  0  0  0  0  0  0
   39.7610   22.7710   36.4180 C   0  0  0  0  0  3  0  0  0  0  0  0
   39.9410   22.7690   37.7830 C   0  0  0  0  0  0  0  0  0  0  0  0
   40.8440   22.3420   38.1950 H   0  0  0  0  0  0  0  0  0  0  0  0
   39.0430   23.2770   38.6730 N   0  0  0  0  0  0  0  0  0  0  0  0
   37.8950   23.8240   38.1930 C   0  0  0  0  0  3  0  0  0  0  0  0
   37.6740   23.8490   36.8630 N   0  0  0  0  0  0  0  0  0  0  0  0
  1  2  2  0  0  0  0
  1  6  1  0  0  0  0
  2  3  1  0  0  0  0
  3  8  1  0  0  0  0
  3  4  2  0  0  0  0
  5  4  1  0  0  0  0
  5 20  1  0  0  0  0
  6  5  2  0  0  0  0
  7  1  1  0  0  0  0
  9 15  1  0  0  0  0
  9  2  1  0  0  0  0
 10  9  1  0  0  0  0
 11 12  1  0  0  0  0
 11 10  2  0  0  0  0
 12 14  1  0  0  0  0
 13 12  2  0  0  0  0
 14 19  1  0  0  0  0
 14 15  1  0  0  0  0
 15 16  2  0  0  0  0
 17 10  1  0  0  0  0
 18 11  1  0  0  0  0
 20 21  1  0  0  0  0
 21 22  2  0  0  0  0
 21 27  1  0  0  0  0
 22 23  1  0  0  0  0
 23 24  1  0  0  0  0
 23 25  2  0  0  0  0
 26 25  1  0  0  0  0
 27 26  2  0  0  0  0
M  END
>  <minimizedAffinity>
-4.75760651

$$$$

 OpenBabel03272500053D

 27 29  0  0  0  0  0  0  0  0999 V2000
   38.0810   26.8320   33.6870 C   0  0  0  0  0  0  0  0  0  0  0  0
   37.1540   26.8040   32.6280 C   0  0  0  0  0  0  0  0  0  0  0  0
   36.6980   25.5710   32.2060 C   0  0  0  0  0  0  0  0  0  0  0  0
   37.1470   24.4460   32.8100 N   0  0  0  0  0  0  0  0  0  0  0  0
   38.0330   24.4950   33.8190 C   0  0  0  0  0  0  0  0  0  0  0  0
   38.5070   25.6840   34.2650 N   0  0  0  0  0  0  0  0  0  0  0  0
   38.4570   27.7840   34.0400 H   0  0  0  0  0  0  0  0  0  0  0  0
   35.9900   25.5450   31.3980 H   0  0  0  0  0  0  0  0  0  0  0  0
   36.7490   28.0560   32.0640 N   0  0  0  0  0  0  0  0  0  0  0  0
   35.7180   28.7610   32.5710 C   0  0  0  0  0  0  0  0  0  0  0  0
   35.3650   29.9730   31.9860 C   0  0  0  0  0  0  0  0  0  0  0  0
   36.1310   30.3410   30.9120 C   0  0  0  0  0  0  0  0  0  0  0  0
   35.8260   31.4410   30.3640 O   0  0  0  0  0  0  0  0  0  0  0  0
   37.1590   29.6560   30.3920 N   0  0  0  0  0  0  0  0  0  0  0  0
   37.4650   28.4800   30.9970 C   0  0  0  0  0  0  0  0  0  0  0  0
   38.4330   27.8280   30.5140 O   0  0  0  0  0  0  0  0  0  0  0  0
   35.1660   28.3930   33.4260 H   0  0  0  0  0  0  0  0  0  0  0  0
   34.5540   30.5800   32.3430 H   0  0  0  0  0  0  0  0  0  0  0  0
   37.6990   29.9860   29.5800 H   0  0  0  0  0  0  0  0  0  0  0  0
   38.5220   23.3680   34.4700 O   0  0  0  0  0  0  0  0  0  0  0  0
   38.6670   23.3220   35.8610 C   0  0  0  0  0  0  0  0  0  0  0  0
   39.8710   22.8590   36.3490 C   0  0  0  0  0  3  0  0  0  0  0  0
   39.9660   22.8310   37.7220 C   0  0  0  0  0  0  0  0  0  0  0  0
   40.8800   22.4810   38.1810 H   0  0  0  0  0  0  0  0  0  0  0  0
   38.9700   23.2230   38.5660 N   0  0  0  0  0  0  0  0  0  0  0  0
   37.8060   23.6700   38.0270 C   0  0  0  0  0  3  0  0  0  0  0  0
   37.6650   23.7160   36.6870 N   0  0  0  0  0  0  0  0  0  0  0  0
  1  7  1  0  0  0  0
  1  6  1  0  0  0  0
  2  1  2  0  0  0  0
  3  2  1  0  0  0  0
  3  4  2  0  0  0  0
  4  5  1  0  0  0  0
  5  6  2  0  0  0  0
  5 20  1  0  0  0  0
  8  3  1  0  0  0  0
  9 10  1  0  0  0  0
  9  2  1  0  0  0  0
 10 17  1  0  0  0  0
 11 18  1  0  0  0  0
 11 10  2  0  0  0  0
 12 11  1  0  0  0  0
 13 12  2  0  0  0  0
 14 12  1  0  0  0  0
 14 15  1  0  0  0  0
 15  9  1  0  0  0  0
 16 15  2  0  0  0  0
 19 14  1  0  0  0  0
 20 21  1  0  0  0  0
 21 22  2  0  0  0  0
 21 27  1  0  0  0  0
 22 23  1  0  0  0  0
 23 24  1  0  0  0  0
 23 25  2  0  0  0  0
 26 25  1  0  0  0  0
 27 26  2  0  0  0  0
M  END
>  <minimizedAffinity>
-4.72682714

$$$$

 OpenBabel03272500053D

 27 29  0  0  0  0  0  0  0  0999 V2000
   35.4660   25.7860   31.1060 C   0  0  0  0  0  0  0  0  0  0  0  0
   36.5380   26.5790   31.5580 C   0  0  0  0  0  0  0  0  0  0  0  0
   37.7620   25.9660   31.7290 C   0  0  0  0  0  0  0  0  0  0  0  0
   37.8950   24.6440   31.4640 N   0  0  0  0  0  0  0  0  0  0  0  0
   36.8580   23.9060   31.0330 C   0  0  0  0  0  0  0  0  0  0  0  0
   35.6380   24.4670   30.8520 N   0  0  0  0  0  0  0  0  0  0  0  0
   34.4920   26.2390   30.9620 H   0  0  0  0  0  0  0  0  0  0  0  0
   38.5840   26.5660   32.0730 H   0  0  0  0  0  0  0  0  0  0  0  0
   36.2810   27.9650   31.8070 N   0  0  0  0  0  0  0  0  0  0  0  0
   35.8850   28.4060   33.0170 C   0  0  0  0  0  0  0  0  0  0  0  0
   35.6490   29.7640   33.2080 C   0  0  0  0  0  0  0  0  0  0  0  0
   35.8500   30.5460   32.1010 C   0  0  0  0  0  0  0  0  0  0  0  0
   35.6400   31.7850   32.2520 O   0  0  0  0  0  0  0  0  0  0  0  0
   36.2430   30.1280   30.8900 N   0  0  0  0  0  0  0  0  0  0  0  0
   36.4610   28.7950   30.7540 C   0  0  0  0  0  0  0  0  0  0  0  0
   36.8320   28.3940   29.6150 O   0  0  0  0  0  0  0  0  0  0  0  0
   35.7510   27.7140   33.8390 H   0  0  0  0  0  0  0  0  0  0  0  0
   35.3320   30.1750   34.1480 H   0  0  0  0  0  0  0  0  0  0  0  0
   36.3780   30.7680   30.0930 H   0  0  0  0  0  0  0  0  0  0  0  0
   36.9460   22.5480   30.7480 O   0  0  0  0  0  0  0  0  0  0  0  0
   36.4190   21.5770   31.6070 C   0  0  0  0  0  0  0  0  0  0  0  0
   35.9150   20.4330   31.0220 C   0  0  0  0  0  3  0  0  0  0  0  0
   35.4080   19.5070   31.9060 C   0  0  0  0  0  0  0  0  0  0  0  0
   34.9950   18.5840   31.5240 H   0  0  0  0  0  0  0  0  0  0  0  0
   35.3890   19.6720   33.2580 N   0  0  0  0  0  0  0  0  0  0  0  0
   35.9000   20.8190   33.7770 C   0  0  0  0  0  3  0  0  0  0  0  0
   36.4080   21.7560   32.9510 N   0  0  0  0  0  0  0  0  0  0  0  0
  1  2  1  0  0  0  0
  2  3  2  0  0  0  0
  2  9  1  0  0  0  0
  3  8  1  0  0  0  0
  4  3  1  0  0  0  0
  5  4  2  0  0  0  0
  6  5  1  0  0  0  0
  6  1  2  0  0  0  0
  7  1  1  0  0  0  0
  9 10  1  0  0  0  0
 10 11  2  0  0  0  0
 10 17  1  0  0  0  0
 11 18  1  0  0  0  0
 12 13  2  0  0  0  0
 12 11  1  0  0  0  0
 14 12  1  0  0  0  0
 15 14  1  0  0  0  0
 15  9  1  0  0  0  0
 16 15  2  0  0  0  0
 19 14  1  0  0  0  0
 20  5  1  0  0  0  0
 20 21  1  0  0  0  0
 21 27  1  0  0  0  0
 22 21  2  0  0  0  0
 22 23  1  0  0  0  0
 23 25  2  0  0  0  0
 24 23  1  0  0  0  0
 25 26  1  0  0  0  0
 27 26  2  0  0  0  0
M  END
>  <minimizedAffinity>
-4.70709229

$$$$
