
 OpenBabel03272505463D

 23 25  0  0  0  0  0  0  0  0999 V2000
   35.5680   30.0210   47.5760 C   0  0  0  0  0  0  0  0  0  0  0  0
   34.6720   28.9860   47.0550 C   0  0  0  0  0  0  0  0  0  0  0  0
   34.1350   30.3580   47.3840 C   0  0  0  0  0  0  0  0  0  0  0  0
   34.8070   28.7010   45.9830 H   0  0  0  0  0  0  0  0  0  0  0  0
   34.4710   28.1230   47.7190 H   0  0  0  0  0  0  0  0  0  0  0  0
   33.8440   30.9420   46.4860 H   0  0  0  0  0  0  0  0  0  0  0  0
   33.4530   30.3930   48.2740 H   0  0  0  0  0  0  0  0  0  0  0  0
   38.3450   32.2270   46.4910 C   0  0  0  0  0  0  0  0  0  0  0  0
   38.4250   31.9490   45.1200 C   0  0  0  0  0  0  0  0  0  0  0  0
   37.5340   31.0150   44.5660 C   0  0  0  0  0  0  0  0  0  0  0  0
   36.6320   30.4250   45.4060 N   0  0  0  0  0  0  0  0  0  0  0  0
   36.5740   30.7110   46.7280 C   0  0  0  0  0  0  0  0  0  0  0  0
   37.4180   31.6000   47.2650 N   0  0  0  0  0  0  0  0  0  0  0  0
   39.0520   32.9480   46.8470 H   0  0  0  0  0  0  0  0  0  0  0  0
   39.1250   32.3990   44.4400 H   0  0  0  0  0  0  0  0  0  0  0  0
   37.4960   30.7170   43.5350 H   0  0  0  0  0  0  0  0  0  0  0  0
   36.0860   29.8240   48.9800 C   0  0  0  0  0  0  0  0  0  0  0  0
   37.4340   29.8750   49.2760 C   0  0  0  0  0  0  0  0  0  0  0  0
   37.7910   29.6790   50.6000 C   0  0  0  0  0  0  0  0  0  0  0  0
   38.8230   29.7100   50.8710 H   0  0  0  0  0  0  0  0  0  0  0  0
   36.9100   29.4470   51.5960 N   0  0  0  0  0  0  0  0  0  0  0  0
   35.5940   29.4100   51.2330 C   0  0  0  0  0  0  0  0  0  0  0  0
   35.1950   29.5940   49.9620 N   0  0  0  0  0  0  0  0  0  0  0  0
  1 17  1  0  0  0  0
  2  3  1  0  0  0  0
  2  1  1  0  0  0  0
  2  5  1  0  0  0  0
  3  1  1  0  0  0  0
  3  7  1  0  0  0  0
  4  2  1  0  0  0  0
  6  3  1  0  0  0  0
  8 14  1  0  0  0  0
  8 13  1  0  0  0  0
  9  8  2  0  0  0  0
 10  9  1  0  0  0  0
 10 11  2  0  0  0  0
 11 12  1  0  0  0  0
 12 13  2  0  0  0  0
 12  1  1  0  0  0  0
 15  9  1  0  0  0  0
 16 10  1  0  0  0  0
 17 18  2  0  0  0  0
 17 23  1  0  0  0  0
 18 19  1  0  0  0  0
 19 20  1  0  0  0  0
 19 21  2  0  0  0  0
 22 21  1  0  0  0  0
 23 22  2  0  0  0  0
M  END
>  <minimizedAffinity>
-4.20116901

>  <minimizedRMSD>
3.57126951

$$$$
