
 OpenBabel03272505433D

 22 23  0  0  0  0  0  0  0  0999 V2000
   34.5400   30.5730   49.5970 O   0  0  0  0  0  0  0  0  0  0  0  0
   35.1920   29.3810   48.9290 P   0  0  2  0  0  0  0  0  0  0  0  0
   34.6290   28.0090   49.7550 O   0  0  0  0  0  0  0  0  0  0  0  0
   34.9610   28.0330   50.7010 H   0  0  0  0  0  0  0  0  0  0  0  0
   36.8780   29.5330   49.0660 O   0  0  0  0  0  0  0  0  0  0  0  0
   38.4570   32.8050   49.4270 C   0  0  0  0  0  0  0  0  0  0  0  0
   39.0520   32.9150   48.1290 C   0  0  0  0  0  0  0  0  0  0  0  0
   38.8650   31.8570   47.2310 C   0  0  0  0  0  0  0  0  0  0  0  0
   38.1330   30.7900   47.6360 N   0  0  0  0  0  0  0  0  0  0  0  0
   37.5850   30.7140   48.8660 C   0  0  0  0  0  0  0  0  0  0  0  0
   37.7470   31.7170   49.7550 N   0  0  0  0  0  0  0  0  0  0  0  0
   38.5850   33.6080   50.1430 H   0  0  0  0  0  0  0  0  0  0  0  0
   39.6260   33.8050   47.8780 H   0  0  0  0  0  0  0  0  0  0  0  0
   39.3080   31.9200   46.2380 H   0  0  0  0  0  0  0  0  0  0  0  0
   34.6570   29.3190   47.3490 O   0  0  0  0  0  0  0  0  0  0  0  0
   33.3470   29.3500   46.9120 C   0  0  0  0  0  0  0  0  0  0  0  0
   32.3170   28.4460   47.0600 C   0  0  0  0  0  3  0  0  0  0  0  0
   31.0830   28.7280   46.5150 C   0  0  0  0  0  0  0  0  0  0  0  0
   30.3340   27.9550   46.6830 H   0  0  0  0  0  0  0  0  0  0  0  0
   30.9060   29.8660   45.8580 N   0  0  0  0  0  0  0  0  0  0  0  0
   31.8820   30.7620   45.6980 C   0  0  0  0  0  3  0  0  0  0  0  0
   33.0970   30.5020   46.2240 N   0  0  0  0  0  0  0  0  0  0  0  0
  2  5  1  0  0  0  0
  2  1  2  1  0  0  0
  2  3  1  0  0  0  0
  3  4  1  0  0  0  0
  6 11  1  0  0  0  0
  6 12  1  0  0  0  0
  7  6  2  0  0  0  0
  8  9  2  0  0  0  0
  8  7  1  0  0  0  0
  9 10  1  0  0  0  0
 10  5  1  0  0  0  0
 10 11  2  0  0  0  0
 13  7  1  0  0  0  0
 14  8  1  0  0  0  0
 15  2  1  0  0  0  0
 16 17  1  0  0  0  0
 16 15  1  0  0  0  0
 18 19  1  0  0  0  0
 18 17  2  0  0  0  0
 20 18  1  0  0  0  0
 21 20  2  0  0  0  0
 21 22  1  0  0  0  0
 22 16  2  0  0  0  0
M  END
>  <minimizedAffinity>
-4.33126497

>  <minimizedRMSD>
2.48318672

$$$$
