
 OpenBabel03272503003D

 32 34  0  0  1  0  0  0  0  0999 V2000
   38.1570   22.7920   36.0190 N   0  0  0  0  0  0  0  0  0  0  0  0
   39.5680   22.6180   36.2880 C   0  0  0  0  0  0  0  0  0  0  0  0
   40.0100   22.6490   37.6820 C   0  0  0  0  0  0  0  0  0  0  0  0
   39.1850   23.3760   38.6700 C   0  0  0  0  0  0  0  0  0  0  0  0
   37.7620   23.5840   38.2540 C   0  0  0  0  0  0  0  0  0  0  0  0
   37.6930   23.9370   36.7630 C   0  0  1  0  0  0  0  0  0  0  0  0
   39.8730   21.6680   35.7840 H   0  0  0  0  0  0  0  0  0  0  0  0
   40.1000   23.4150   35.7170 H   0  0  0  0  0  0  0  0  0  0  0  0
   40.1340   21.5820   38.0350 H   0  0  0  0  0  0  0  0  0  0  0  0
   41.0490   23.0640   37.7320 H   0  0  0  0  0  0  0  0  0  0  0  0
   39.1730   22.8360   39.6440 H   0  0  0  0  0  0  0  0  0  0  0  0
   39.6210   24.3900   38.9060 H   0  0  0  0  0  0  0  0  0  0  0  0
   37.1280   22.7040   38.4660 H   0  0  0  0  0  0  0  0  0  0  0  0
   37.3300   24.4910   38.7650 H   0  0  0  0  0  0  0  0  0  0  0  0
   36.6720   24.2510   36.5060 H   0  0  0  0  0  0  0  0  0  0  0  0
   37.3740   21.9610   35.1620 C   0  0  0  0  0  0  0  0  0  0  0  0
   36.2720   21.2210   35.5790 C   0  0  0  0  0  0  0  0  0  0  0  0
   35.6020   20.4540   34.6310 C   0  0  0  0  0  0  0  0  0  0  0  0
   36.0620   20.4700   33.3480 N   0  0  0  0  0  0  0  0  0  0  0  0
   37.1300   21.1980   32.9860 C   0  0  0  0  0  0  0  0  0  0  0  0
   37.7810   21.9420   33.9030 N   0  0  0  0  0  0  0  0  0  0  0  0
   35.9940   21.2790   36.6140 H   0  0  0  0  0  0  0  0  0  0  0  0
   34.7430   19.8730   34.9430 H   0  0  0  0  0  0  0  0  0  0  0  0
   37.4700   21.1880   31.9570 H   0  0  0  0  0  0  0  0  0  0  0  0
   38.5580   25.0250   36.6300 O   0  0  0  0  0  0  0  0  0  0  0  0
   38.7120   25.8090   35.5000 C   0  0  0  0  0  0  0  0  0  0  0  0
   37.5570   26.1140   34.8430 C   0  0  0  0  0  3  0  0  0  0  0  0
   37.5100   26.8940   33.6810 C   0  0  0  0  0  0  0  0  0  0  0  0
   36.5760   27.1190   33.1810 H   0  0  0  0  0  0  0  0  0  0  0  0
   38.7170   27.3420   33.2360 N   0  0  0  0  0  0  0  0  0  0  0  0
   39.8300   27.0330   33.8920 C   0  0  0  0  0  3  0  0  0  0  0  0
   39.8710   26.2800   35.0100 N   0  0  0  0  0  0  0  0  0  0  0  0
  1  2  1  0  0  0  0
  1  6  1  0  0  0  0
  2  3  1  0  0  0  0
  3 10  1  0  0  0  0
  3  9  1  0  0  0  0
  3  4  1  0  0  0  0
  4 12  1  0  0  0  0
  4 11  1  0  0  0  0
  5 13  1  0  0  0  0
  5  4  1  0  0  0  0
  5 14  1  0  0  0  0
  6 15  1  6  0  0  0
  6  5  1  0  0  0  0
  7  2  1  0  0  0  0
  8  2  1  0  0  0  0
 16 17  1  0  0  0  0
 16  1  1  0  0  0  0
 17 22  1  0  0  0  0
 18 23  1  0  0  0  0
 18 17  2  0  0  0  0
 19 18  1  0  0  0  0
 20 19  2  0  0  0  0
 20 21  1  0  0  0  0
 21 16  2  0  0  0  0
 24 20  1  0  0  0  0
 25  6  1  0  0  0  0
 26 25  1  0  0  0  0
 27 26  2  0  0  0  0
 28 27  1  0  0  0  0
 29 28  1  0  0  0  0
 30 28  2  0  0  0  0
 30 31  1  0  0  0  0
 31 32  2  0  0  0  0
 32 26  1  0  0  0  0
M  END
>  <minimizedAffinity>
-4.9966507

$$$$

 OpenBabel03272503003D

 32 34  0  0  1  0  0  0  0  0999 V2000
   39.1740   24.3940   35.9430 N   0  0  0  0  0  0  0  0  0  0  0  0
   38.0640   24.9000   36.7190 C   0  0  0  0  0  0  0  0  0  0  0  0
   38.0120   24.5640   38.1430 C   0  0  0  0  0  0  0  0  0  0  0  0
   38.7040   23.3430   38.6080 C   0  0  0  0  0  0  0  0  0  0  0  0
   39.7740   22.8500   37.6850 C   0  0  0  0  0  0  0  0  0  0  0  0
   39.3200   22.9870   36.2270 C   0  0  1  0  0  0  0  0  0  0  0  0
   38.0410   26.0050   36.5600 H   0  0  0  0  0  0  0  0  0  0  0  0
   37.1350   24.5320   36.2220 H   0  0  0  0  0  0  0  0  0  0  0  0
   38.4120   25.4460   38.7260 H   0  0  0  0  0  0  0  0  0  0  0  0
   36.9430   24.4980   38.4690 H   0  0  0  0  0  0  0  0  0  0  0  0
   39.1730   23.5130   39.6030 H   0  0  0  0  0  0  0  0  0  0  0  0
   37.9780   22.4940   38.7700 H   0  0  0  0  0  0  0  0  0  0  0  0
   40.7350   23.3750   37.8340 H   0  0  0  0  0  0  0  0  0  0  0  0
   39.9280   21.7410   37.8150 H   0  0  0  0  0  0  0  0  0  0  0  0
   40.0340   22.4720   35.5690 H   0  0  0  0  0  0  0  0  0  0  0  0
   39.9780   25.1690   35.0530 C   0  0  0  0  0  0  0  0  0  0  0  0
   39.9170   26.5550   34.9480 C   0  0  0  0  0  0  0  0  0  0  0  0
   40.7610   27.1800   34.0350 C   0  0  0  0  0  0  0  0  0  0  0  0
   41.6000   26.4000   33.2960 N   0  0  0  0  0  0  0  0  0  0  0  0
   41.6270   25.0640   33.4280 C   0  0  0  0  0  0  0  0  0  0  0  0
   40.8100   24.4570   34.3110 N   0  0  0  0  0  0  0  0  0  0  0  0
   39.2200   27.0740   35.5780 H   0  0  0  0  0  0  0  0  0  0  0  0
   40.7240   28.2580   33.9430 H   0  0  0  0  0  0  0  0  0  0  0  0
   42.3070   24.4730   32.8240 H   0  0  0  0  0  0  0  0  0  0  0  0
   38.0930   22.3210   36.1870 O   0  0  0  0  0  0  0  0  0  0  0  0
   37.4780   21.8150   35.0560 C   0  0  0  0  0  0  0  0  0  0  0  0
   36.3240   21.1250   35.2810 C   0  0  0  0  0  3  0  0  0  0  0  0
   35.5610   20.5400   34.2640 C   0  0  0  0  0  0  0  0  0  0  0  0
   34.6470   19.9970   34.4740 H   0  0  0  0  0  0  0  0  0  0  0  0
   36.0520   20.7040   33.0040 N   0  0  0  0  0  0  0  0  0  0  0  0
   37.1790   21.3800   32.8070 C   0  0  0  0  0  3  0  0  0  0  0  0
   37.9120   21.9420   33.7900 N   0  0  0  0  0  0  0  0  0  0  0  0
  1  6  1  0  0  0  0
  1  2  1  0  0  0  0
  2  3  1  0  0  0  0
  3 10  1  0  0  0  0
  3  4  1  0  0  0  0
  3  9  1  0  0  0  0
  4 12  1  0  0  0  0
  4 11  1  0  0  0  0
  5 14  1  0  0  0  0
  5 13  1  0  0  0  0
  5  4  1  0  0  0  0
  6 15  1  6  0  0  0
  6  5  1  0  0  0  0
  7  2  1  0  0  0  0
  8  2  1  0  0  0  0
 16  1  1  0  0  0  0
 17 16  1  0  0  0  0
 17 22  1  0  0  0  0
 18 17  2  0  0  0  0
 19 20  2  0  0  0  0
 19 18  1  0  0  0  0
 20 21  1  0  0  0  0
 21 16  2  0  0  0  0
 23 18  1  0  0  0  0
 24 20  1  0  0  0  0
 25  6  1  0  0  0  0
 26 27  1  0  0  0  0
 26 25  1  0  0  0  0
 28 29  1  0  0  0  0
 28 27  2  0  0  0  0
 30 28  1  0  0  0  0
 31 30  2  0  0  0  0
 31 32  1  0  0  0  0
 32 26  2  0  0  0  0
M  END
>  <minimizedAffinity>
-4.97020912

$$$$

 OpenBabel03272503003D

 32 34  0  0  1  0  0  0  0  0999 V2000
   39.7160   24.6100   35.1940 N   0  0  0  0  0  0  0  0  0  0  0  0
   40.3440   25.8780   34.8930 C   0  0  0  0  0  0  0  0  0  0  0  0
   39.6480   27.1010   35.2950 C   0  0  0  0  0  0  0  0  0  0  0  0
   38.1800   27.0590   35.4590 C   0  0  0  0  0  0  0  0  0  0  0  0
   37.6210   25.6860   35.6730 C   0  0  0  0  0  0  0  0  0  0  0  0
   38.3390   24.6760   34.7710 C   0  0  1  0  0  0  0  0  0  0  0  0
   41.3740   25.8340   35.3250 H   0  0  0  0  0  0  0  0  0  0  0  0
   40.5090   25.8960   33.7900 H   0  0  0  0  0  0  0  0  0  0  0  0
   40.1070   27.4630   36.2630 H   0  0  0  0  0  0  0  0  0  0  0  0
   39.8890   27.9200   34.5690 H   0  0  0  0  0  0  0  0  0  0  0  0
   37.8640   27.6870   36.3220 H   0  0  0  0  0  0  0  0  0  0  0  0
   37.6520   27.5040   34.5660 H   0  0  0  0  0  0  0  0  0  0  0  0
   37.6850   25.3660   36.7290 H   0  0  0  0  0  0  0  0  0  0  0  0
   36.5490   25.6390   35.3300 H   0  0  0  0  0  0  0  0  0  0  0  0
   37.8150   23.7110   34.8100 H   0  0  0  0  0  0  0  0  0  0  0  0
   40.3650   23.4950   35.8070 C   0  0  0  0  0  0  0  0  0  0  0  0
   40.0580   23.0090   37.0740 C   0  0  0  0  0  0  0  0  0  0  0  0
   40.7740   21.9130   37.5450 C   0  0  0  0  0  0  0  0  0  0  0  0
   41.7350   21.3770   36.7400 N   0  0  0  0  0  0  0  0  0  0  0  0
   42.0010   21.8780   35.5220 C   0  0  0  0  0  0  0  0  0  0  0  0
   41.3090   22.9400   35.0650 N   0  0  0  0  0  0  0  0  0  0  0  0
   39.2820   23.5050   37.6260 H   0  0  0  0  0  0  0  0  0  0  0  0
   40.5450   21.5230   38.5290 H   0  0  0  0  0  0  0  0  0  0  0  0
   42.7720   21.4280   34.9080 H   0  0  0  0  0  0  0  0  0  0  0  0
   38.2170   25.2170   33.4890 O   0  0  0  0  0  0  0  0  0  0  0  0
   37.1670   25.0050   32.6140 C   0  0  0  0  0  0  0  0  0  0  0  0
   36.6230   26.1330   32.0750 C   0  0  0  0  0  3  0  0  0  0  0  0
   35.5550   26.1210   31.1700 C   0  0  0  0  0  0  0  0  0  0  0  0
   35.1440   27.0360   30.7590 H   0  0  0  0  0  0  0  0  0  0  0  0
   35.0800   24.8860   30.8520 N   0  0  0  0  0  0  0  0  0  0  0  0
   35.6250   23.7990   31.3880 C   0  0  0  0  0  3  0  0  0  0  0  0
   36.6530   23.8140   32.2600 N   0  0  0  0  0  0  0  0  0  0  0  0
  1 16  1  0  0  0  0
  2  1  1  0  0  0  0
  2  3  1  0  0  0  0
  2  7  1  0  0  0  0
  3  4  1  0  0  0  0
  3  9  1  0  0  0  0
  4  5  1  0  0  0  0
  4 11  1  0  0  0  0
  5 13  1  0  0  0  0
  6 15  1  1  0  0  0
  6  1  1  0  0  0  0
  6  5  1  0  0  0  0
  8  2  1  0  0  0  0
 10  3  1  0  0  0  0
 12  4  1  0  0  0  0
 14  5  1  0  0  0  0
 16 17  1  0  0  0  0
 17 18  2  0  0  0  0
 17 22  1  0  0  0  0
 18 23  1  0  0  0  0
 19 18  1  0  0  0  0
 20 19  2  0  0  0  0
 21 20  1  0  0  0  0
 21 16  2  0  0  0  0
 24 20  1  0  0  0  0
 25  6  1  0  0  0  0
 26 25  1  0  0  0  0
 27 26  2  0  0  0  0
 28 27  1  0  0  0  0
 29 28  1  0  0  0  0
 30 28  2  0  0  0  0
 30 31  1  0  0  0  0
 31 32  2  0  0  0  0
 32 26  1  0  0  0  0
M  END
>  <minimizedAffinity>
-4.85421658

$$$$

 OpenBabel03272503003D

 32 34  0  0  1  0  0  0  0  0999 V2000
   37.2130   27.5310   33.7600 N   0  0  0  0  0  0  0  0  0  0  0  0
   37.3990   27.2030   35.1570 C   0  0  0  0  0  0  0  0  0  0  0  0
   38.7670   27.1340   35.6700 C   0  0  0  0  0  0  0  0  0  0  0  0
   39.8650   26.8460   34.7230 C   0  0  0  0  0  0  0  0  0  0  0  0
   39.5370   27.1340   33.2900 C   0  0  0  0  0  0  0  0  0  0  0  0
   38.0990   26.7020   32.9800 C   0  0  1  0  0  0  0  0  0  0  0  0
   36.7810   27.9290   35.7390 H   0  0  0  0  0  0  0  0  0  0  0  0
   36.8960   26.2200   35.3210 H   0  0  0  0  0  0  0  0  0  0  0  0
   38.9940   28.1100   36.1950 H   0  0  0  0  0  0  0  0  0  0  0  0
   38.8170   26.3760   36.4930 H   0  0  0  0  0  0  0  0  0  0  0  0
   40.7720   27.4360   34.9830 H   0  0  0  0  0  0  0  0  0  0  0  0
   40.1920   25.7680   34.7860 H   0  0  0  0  0  0  0  0  0  0  0  0
   39.6780   28.1990   33.0320 H   0  0  0  0  0  0  0  0  0  0  0  0
   40.1640   26.4950   32.6060 H   0  0  0  0  0  0  0  0  0  0  0  0
   37.9230   26.7600   31.8970 H   0  0  0  0  0  0  0  0  0  0  0  0
   36.3040   28.5120   33.2590 C   0  0  0  0  0  0  0  0  0  0  0  0
   36.2580   28.9320   31.9330 C   0  0  0  0  0  0  0  0  0  0  0  0
   35.3180   29.8970   31.5860 C   0  0  0  0  0  0  0  0  0  0  0  0
   34.4960   30.3770   32.5630 N   0  0  0  0  0  0  0  0  0  0  0  0
   34.5750   29.9440   33.8320 C   0  0  0  0  0  0  0  0  0  0  0  0
   35.4840   29.0090   34.1700 N   0  0  0  0  0  0  0  0  0  0  0  0
   36.9510   28.4890   31.2440 H   0  0  0  0  0  0  0  0  0  0  0  0
   35.2700   30.2340   30.5580 H   0  0  0  0  0  0  0  0  0  0  0  0
   33.9060   30.3470   34.5840 H   0  0  0  0  0  0  0  0  0  0  0  0
   38.0490   25.3670   33.3850 O   0  0  0  0  0  0  0  0  0  0  0  0
   37.3280   24.3570   32.7720 C   0  0  0  0  0  0  0  0  0  0  0  0
   36.3800   24.7750   31.8870 C   0  0  0  0  0  3  0  0  0  0  0  0
   35.5520   23.9030   31.1700 C   0  0  0  0  0  0  0  0  0  0  0  0
   34.8060   24.2660   30.4730 H   0  0  0  0  0  0  0  0  0  0  0  0
   35.7560   22.5790   31.4150 N   0  0  0  0  0  0  0  0  0  0  0  0
   36.6870   22.1930   32.2820 C   0  0  0  0  0  3  0  0  0  0  0  0
   37.4810   23.0360   32.9710 N   0  0  0  0  0  0  0  0  0  0  0  0
  1  2  1  0  0  0  0
  2  8  1  0  0  0  0
  2  3  1  0  0  0  0
  2  7  1  0  0  0  0
  3  9  1  0  0  0  0
  3 10  1  0  0  0  0
  4 12  1  0  0  0  0
  4 11  1  0  0  0  0
  4  3  1  0  0  0  0
  5  4  1  0  0  0  0
  6 15  1  6  0  0  0
  6  5  1  0  0  0  0
  6 25  1  0  0  0  0
  6  1  1  0  0  0  0
 13  5  1  0  0  0  0
 14  5  1  0  0  0  0
 16  1  1  0  0  0  0
 16 21  1  0  0  0  0
 17 16  2  0  0  0  0
 18 17  1  0  0  0  0
 18 19  2  0  0  0  0
 19 20  1  0  0  0  0
 20 21  2  0  0  0  0
 20 24  1  0  0  0  0
 22 17  1  0  0  0  0
 23 18  1  0  0  0  0
 26 32  1  0  0  0  0
 26 25  1  0  0  0  0
 27 26  2  0  0  0  0
 28 30  2  0  0  0  0
 28 27  1  0  0  0  0
 29 28  1  0  0  0  0
 30 31  1  0  0  0  0
 31 32  2  0  0  0  0
M  END
>  <minimizedAffinity>
-4.76145935

$$$$

 OpenBabel03272503003D

 32 34  0  0  1  0  0  0  0  0999 V2000
   38.3610   26.3040   33.0480 N   0  0  0  0  0  0  0  0  0  0  0  0
   37.0630   26.6760   33.5660 C   0  0  0  0  0  0  0  0  0  0  0  0
   37.0170   27.5390   34.7470 C   0  0  0  0  0  0  0  0  0  0  0  0
   38.1740   27.5440   35.6660 C   0  0  0  0  0  0  0  0  0  0  0  0
   39.4500   27.0530   35.0550 C   0  0  0  0  0  0  0  0  0  0  0  0
   39.1730   25.8480   34.1490 C   0  0  1  0  0  0  0  0  0  0  0  0
   36.4950   27.1210   32.7130 H   0  0  0  0  0  0  0  0  0  0  0  0
   36.5250   25.7240   33.7870 H   0  0  0  0  0  0  0  0  0  0  0  0
   36.8310   28.5990   34.3990 H   0  0  0  0  0  0  0  0  0  0  0  0
   36.1030   27.2970   35.3470 H   0  0  0  0  0  0  0  0  0  0  0  0
   38.3620   28.5700   36.0540 H   0  0  0  0  0  0  0  0  0  0  0  0
   37.9750   26.9190   36.5840 H   0  0  0  0  0  0  0  0  0  0  0  0
   39.9770   27.8420   34.4890 H   0  0  0  0  0  0  0  0  0  0  0  0
   40.1350   26.6400   35.8500 H   0  0  0  0  0  0  0  0  0  0  0  0
   40.1250   25.3930   33.8410 H   0  0  0  0  0  0  0  0  0  0  0  0
   38.7540   26.3830   31.6770 C   0  0  0  0  0  0  0  0  0  0  0  0
   38.6880   27.5410   30.9080 C   0  0  0  0  0  0  0  0  0  0  0  0
   39.1060   27.4700   29.5830 C   0  0  0  0  0  0  0  0  0  0  0  0
   39.5550   26.2720   29.1120 N   0  0  0  0  0  0  0  0  0  0  0  0
   39.6010   25.1780   29.8880 C   0  0  0  0  0  0  0  0  0  0  0  0
   39.1970   25.2440   31.1720 N   0  0  0  0  0  0  0  0  0  0  0  0
   38.3180   28.4330   31.3770 H   0  0  0  0  0  0  0  0  0  0  0  0
   39.0600   28.3640   28.9730 H   0  0  0  0  0  0  0  0  0  0  0  0
   39.9640   24.2400   29.4810 H   0  0  0  0  0  0  0  0  0  0  0  0
   38.4790   24.9560   34.9690 O   0  0  0  0  0  0  0  0  0  0  0  0
   39.0290   24.1760   35.9700 C   0  0  0  0  0  0  0  0  0  0  0  0
   38.3160   24.1330   37.1320 C   0  0  0  0  0  3  0  0  0  0  0  0
   38.7110   23.3990   38.2560 C   0  0  0  0  0  0  0  0  0  0  0  0
   38.1230   23.3850   39.1660 H   0  0  0  0  0  0  0  0  0  0  0  0
   39.8780   22.7110   38.1170 N   0  0  0  0  0  0  0  0  0  0  0  0
   40.5570   22.7660   36.9760 C   0  0  0  0  0  3  0  0  0  0  0  0
   40.1730   23.4750   35.8960 N   0  0  0  0  0  0  0  0  0  0  0  0
  1  2  1  0  0  0  0
  1  6  1  0  0  0  0
  2  8  1  0  0  0  0
  2  3  1  0  0  0  0
  3 10  1  0  0  0  0
  3  4  1  0  0  0  0
  4 11  1  0  0  0  0
  4 12  1  0  0  0  0
  5  4  1  0  0  0  0
  5 14  1  0  0  0  0
  6 15  1  6  0  0  0
  6 25  1  0  0  0  0
  6  5  1  0  0  0  0
  7  2  1  0  0  0  0
  9  3  1  0  0  0  0
 13  5  1  0  0  0  0
 16  1  1  0  0  0  0
 17 22  1  0  0  0  0
 17 16  2  0  0  0  0
 18 17  1  0  0  0  0
 19 18  2  0  0  0  0
 19 20  1  0  0  0  0
 20 21  2  0  0  0  0
 21 16  1  0  0  0  0
 23 18  1  0  0  0  0
 24 20  1  0  0  0  0
 25 26  1  0  0  0  0
 26 27  1  0  0  0  0
 27 28  2  0  0  0  0
 28 29  1  0  0  0  0
 30 28  1  0  0  0  0
 31 30  2  0  0  0  0
 32 26  2  0  0  0  0
 32 31  1  0  0  0  0
M  END
>  <minimizedAffinity>
-4.75336123

$$$$

 OpenBabel03272503003D

 32 34  0  0  1  0  0  0  0  0999 V2000
   39.5130   24.8010   34.7950 N   0  0  0  0  0  0  0  0  0  0  0  0
   40.6370   24.3750   33.9900 C   0  0  0  0  0  0  0  0  0  0  0  0
   41.4900   25.4080   33.4020 C   0  0  0  0  0  0  0  0  0  0  0  0
   40.9170   26.7490   33.1650 C   0  0  0  0  0  0  0  0  0  0  0  0
   39.7000   27.0550   33.9820 C   0  0  0  0  0  0  0  0  0  0  0  0
   38.7960   25.8190   34.0680 C   0  0  1  0  0  0  0  0  0  0  0  0
   41.2280   23.6660   34.6200 H   0  0  0  0  0  0  0  0  0  0  0  0
   40.2190   23.7370   33.1760 H   0  0  0  0  0  0  0  0  0  0  0  0
   42.4060   25.5200   34.0560 H   0  0  0  0  0  0  0  0  0  0  0  0
   41.9060   25.0350   32.4310 H   0  0  0  0  0  0  0  0  0  0  0  0
   41.6700   27.5410   33.3770 H   0  0  0  0  0  0  0  0  0  0  0  0
   40.6420   26.8950   32.0800 H   0  0  0  0  0  0  0  0  0  0  0  0
   39.9530   27.4120   34.9970 H   0  0  0  0  0  0  0  0  0  0  0  0
   39.0580   27.8220   33.4630 H   0  0  0  0  0  0  0  0  0  0  0  0
   37.8350   26.0980   34.5210 H   0  0  0  0  0  0  0  0  0  0  0  0
   39.1840   24.2890   36.0880 C   0  0  0  0  0  0  0  0  0  0  0  0
   38.0990   24.7140   36.8460 C   0  0  0  0  0  0  0  0  0  0  0  0
   37.9010   24.1260   38.0920 C   0  0  0  0  0  0  0  0  0  0  0  0
   38.7800   23.1660   38.4980 N   0  0  0  0  0  0  0  0  0  0  0  0
   39.8170   22.7850   37.7340 C   0  0  0  0  0  0  0  0  0  0  0  0
   40.0110   23.3540   36.5280 N   0  0  0  0  0  0  0  0  0  0  0  0
   37.4670   25.4770   36.4320 H   0  0  0  0  0  0  0  0  0  0  0  0
   37.0600   24.4470   38.6930 H   0  0  0  0  0  0  0  0  0  0  0  0
   40.4970   22.0190   38.0880 H   0  0  0  0  0  0  0  0  0  0  0  0
   38.5890   25.4550   32.7350 O   0  0  0  0  0  0  0  0  0  0  0  0
   37.3670   25.1860   32.1460 C   0  0  0  0  0  0  0  0  0  0  0  0
   36.7030   26.2730   31.6620 C   0  0  0  0  0  3  0  0  0  0  0  0
   35.4540   26.2010   31.0330 C   0  0  0  0  0  0  0  0  0  0  0  0
   34.9510   27.0840   30.6580 H   0  0  0  0  0  0  0  0  0  0  0  0
   34.9290   24.9490   30.9300 N   0  0  0  0  0  0  0  0  0  0  0  0
   35.5940   23.9020   31.4090 C   0  0  0  0  0  3  0  0  0  0  0  0
   36.7960   23.9760   32.0150 N   0  0  0  0  0  0  0  0  0  0  0  0
  1 16  1  0  0  0  0
  2  7  1  0  0  0  0
  2  1  1  0  0  0  0
  3  2  1  0  0  0  0
  3  9  1  0  0  0  0
  4 11  1  0  0  0  0
  4  3  1  0  0  0  0
  4  5  1  0  0  0  0
  5  6  1  0  0  0  0
  5 13  1  0  0  0  0
  6 15  1  1  0  0  0
  6  1  1  0  0  0  0
  8  2  1  0  0  0  0
 10  3  1  0  0  0  0
 12  4  1  0  0  0  0
 14  5  1  0  0  0  0
 16 21  2  0  0  0  0
 16 17  1  0  0  0  0
 17 18  2  0  0  0  0
 18 19  1  0  0  0  0
 18 23  1  0  0  0  0
 20 24  1  0  0  0  0
 20 19  2  0  0  0  0
 21 20  1  0  0  0  0
 22 17  1  0  0  0  0
 25  6  1  0  0  0  0
 26 25  1  0  0  0  0
 27 26  2  0  0  0  0
 28 27  1  0  0  0  0
 29 28  1  0  0  0  0
 30 28  2  0  0  0  0
 30 31  1  0  0  0  0
 31 32  2  0  0  0  0
 32 26  1  0  0  0  0
M  END
>  <minimizedAffinity>
-4.74055099

$$$$

 OpenBabel03272503003D

 32 34  0  0  1  0  0  0  0  0999 V2000
   39.5560   24.8290   34.8530 N   0  0  0  0  0  0  0  0  0  0  0  0
   40.7170   24.6050   34.0190 C   0  0  0  0  0  0  0  0  0  0  0  0
   41.4140   25.7750   33.4850 C   0  0  0  0  0  0  0  0  0  0  0  0
   40.6620   27.0370   33.3260 C   0  0  0  0  0  0  0  0  0  0  0  0
   39.4260   27.1290   34.1660 C   0  0  0  0  0  0  0  0  0  0  0  0
   38.6990   25.7790   34.1880 C   0  0  1  0  0  0  0  0  0  0  0  0
   41.4070   23.9500   34.6050 H   0  0  0  0  0  0  0  0  0  0  0  0
   40.3790   23.9610   33.1730 H   0  0  0  0  0  0  0  0  0  0  0  0
   42.3150   25.9740   34.1380 H   0  0  0  0  0  0  0  0  0  0  0  0
   41.8640   25.5160   32.4910 H   0  0  0  0  0  0  0  0  0  0  0  0
   41.3030   27.9100   33.5780 H   0  0  0  0  0  0  0  0  0  0  0  0
   40.3550   27.2020   32.2520 H   0  0  0  0  0  0  0  0  0  0  0  0
   39.6410   27.4610   35.1980 H   0  0  0  0  0  0  0  0  0  0  0  0
   38.6790   27.8290   33.6940 H   0  0  0  0  0  0  0  0  0  0  0  0
   37.7150   25.8990   34.6630 H   0  0  0  0  0  0  0  0  0  0  0  0
   39.3180   24.2080   36.1170 C   0  0  0  0  0  0  0  0  0  0  0  0
   40.1330   23.2290   36.6760 C   0  0  0  0  0  0  0  0  0  0  0  0
   39.7780   22.7120   37.9170 C   0  0  0  0  0  0  0  0  0  0  0  0
   38.6520   23.1930   38.5170 N   0  0  0  0  0  0  0  0  0  0  0  0
   37.8910   24.1390   37.9420 C   0  0  0  0  0  0  0  0  0  0  0  0
   38.2340   24.6410   36.7400 N   0  0  0  0  0  0  0  0  0  0  0  0
   40.9980   22.9210   36.1190 H   0  0  0  0  0  0  0  0  0  0  0  0
   40.4040   21.9500   38.3640 H   0  0  0  0  0  0  0  0  0  0  0  0
   37.0020   24.4990   38.4470 H   0  0  0  0  0  0  0  0  0  0  0  0
   38.5250   25.4630   32.8390 O   0  0  0  0  0  0  0  0  0  0  0  0
   37.3180   25.2170   32.2100 C   0  0  0  0  0  0  0  0  0  0  0  0
   36.6620   26.3230   31.7570 C   0  0  0  0  0  3  0  0  0  0  0  0
   35.4290   26.2760   31.0960 C   0  0  0  0  0  0  0  0  0  0  0  0
   34.9320   27.1740   30.7480 H   0  0  0  0  0  0  0  0  0  0  0  0
   34.9100   25.0290   30.9280 N   0  0  0  0  0  0  0  0  0  0  0  0
   35.5660   23.9640   31.3760 C   0  0  0  0  0  3  0  0  0  0  0  0
   36.7530   24.0130   32.0130 N   0  0  0  0  0  0  0  0  0  0  0  0
  1 16  1  0  0  0  0
  2  7  1  0  0  0  0
  2  1  1  0  0  0  0
  3  2  1  0  0  0  0
  3  9  1  0  0  0  0
  4  3  1  0  0  0  0
  4 11  1  0  0  0  0
  4  5  1  0  0  0  0
  5  6  1  0  0  0  0
  5 13  1  0  0  0  0
  6 15  1  1  0  0  0
  6  1  1  0  0  0  0
  8  2  1  0  0  0  0
 10  3  1  0  0  0  0
 12  4  1  0  0  0  0
 14  5  1  0  0  0  0
 16 17  2  0  0  0  0
 16 21  1  0  0  0  0
 17 18  1  0  0  0  0
 18 23  1  0  0  0  0
 18 19  2  0  0  0  0
 20 24  1  0  0  0  0
 20 19  1  0  0  0  0
 21 20  2  0  0  0  0
 22 17  1  0  0  0  0
 25  6  1  0  0  0  0
 26 25  1  0  0  0  0
 27 26  2  0  0  0  0
 28 27  1  0  0  0  0
 29 28  1  0  0  0  0
 30 28  2  0  0  0  0
 30 31  1  0  0  0  0
 31 32  2  0  0  0  0
 32 26  1  0  0  0  0
M  END
>  <minimizedAffinity>
-4.67584085

$$$$

 OpenBabel03272503003D

 32 34  0  0  1  0  0  0  0  0999 V2000
   38.9950   25.0140   34.8280 N   0  0  0  0  0  0  0  0  0  0  0  0
   39.2140   24.3810   33.5460 C   0  0  0  0  0  0  0  0  0  0  0  0
   40.1640   25.0080   32.6260 C   0  0  0  0  0  0  0  0  0  0  0  0
   40.4240   26.4570   32.7540 C   0  0  0  0  0  0  0  0  0  0  0  0
   40.0750   27.0310   34.0920 C   0  0  0  0  0  0  0  0  0  0  0  0
   38.7650   26.4200   34.6050 C   0  0  1  0  0  0  0  0  0  0  0  0
   39.4920   23.3200   33.7580 H   0  0  0  0  0  0  0  0  0  0  0  0
   38.2170   24.3110   33.0520 H   0  0  0  0  0  0  0  0  0  0  0  0
   41.1490   24.4580   32.7100 H   0  0  0  0  0  0  0  0  0  0  0  0
   39.8430   24.8090   31.5710 H   0  0  0  0  0  0  0  0  0  0  0  0
   41.4970   26.6820   32.5640 H   0  0  0  0  0  0  0  0  0  0  0  0
   39.8610   27.0480   31.9740 H   0  0  0  0  0  0  0  0  0  0  0  0
   40.8790   26.8850   34.8360 H   0  0  0  0  0  0  0  0  0  0  0  0
   39.8410   28.1300   34.0010 H   0  0  0  0  0  0  0  0  0  0  0  0
   38.4310   26.9640   35.4990 H   0  0  0  0  0  0  0  0  0  0  0  0
   39.0070   24.3450   36.0900 C   0  0  0  0  0  0  0  0  0  0  0  0
   39.8970   23.3310   36.4300 C   0  0  0  0  0  0  0  0  0  0  0  0
   39.7930   22.7680   37.6980 C   0  0  0  0  0  0  0  0  0  0  0  0
   38.8250   23.2400   38.5350 N   0  0  0  0  0  0  0  0  0  0  0  0
   37.9850   24.2210   38.1660 C   0  0  0  0  0  0  0  0  0  0  0  0
   38.0840   24.7670   36.9380 N   0  0  0  0  0  0  0  0  0  0  0  0
   40.6210   23.0340   35.6960 H   0  0  0  0  0  0  0  0  0  0  0  0
   40.4790   21.9790   37.9770 H   0  0  0  0  0  0  0  0  0  0  0  0
   37.2270   24.5720   38.8570 H   0  0  0  0  0  0  0  0  0  0  0  0
   37.8580   26.6370   33.5660 O   0  0  0  0  0  0  0  0  0  0  0  0
   37.0130   27.7260   33.4370 C   0  0  0  0  0  0  0  0  0  0  0  0
   36.9270   28.2500   32.1820 C   0  0  0  0  0  3  0  0  0  0  0  0
   36.1250   29.3510   31.8550 C   0  0  0  0  0  0  0  0  0  0  0  0
   36.0780   29.7440   30.8470 H   0  0  0  0  0  0  0  0  0  0  0  0
   35.4200   29.8800   32.8930 N   0  0  0  0  0  0  0  0  0  0  0  0
   35.5180   29.3540   34.1090 C   0  0  0  0  0  3  0  0  0  0  0  0
   36.2920   28.2940   34.4190 N   0  0  0  0  0  0  0  0  0  0  0  0
  1 16  1  0  0  0  0
  2  7  1  0  0  0  0
  2  1  1  0  0  0  0
  3  9  1  0  0  0  0
  3  4  1  0  0  0  0
  3  2  1  0  0  0  0
  4  5  1  0  0  0  0
  5  6  1  0  0  0  0
  5 13  1  0  0  0  0
  6  1  1  0  0  0  0
  6 15  1  1  0  0  0
  8  2  1  0  0  0  0
 10  3  1  0  0  0  0
 11  4  1  0  0  0  0
 12  4  1  0  0  0  0
 14  5  1  0  0  0  0
 16 17  2  0  0  0  0
 16 21  1  0  0  0  0
 17 18  1  0  0  0  0
 18 23  1  0  0  0  0
 18 19  2  0  0  0  0
 20 19  1  0  0  0  0
 20 24  1  0  0  0  0
 21 20  2  0  0  0  0
 22 17  1  0  0  0  0
 25  6  1  0  0  0  0
 26 25  1  0  0  0  0
 26 32  1  0  0  0  0
 27 26  2  0  0  0  0
 28 27  1  0  0  0  0
 28 30  2  0  0  0  0
 29 28  1  0  0  0  0
 30 31  1  0  0  0  0
 31 32  2  0  0  0  0
M  END
>  <minimizedAffinity>
-4.6375823

$$$$

 OpenBabel03272503003D

 32 34  0  0  1  0  0  0  0  0999 V2000
   39.9530   24.5490   35.2930 N   0  0  0  0  0  0  0  0  0  0  0  0
   40.4710   25.6880   34.5670 C   0  0  0  0  0  0  0  0  0  0  0  0
   39.9810   27.0170   34.9360 C   0  0  0  0  0  0  0  0  0  0  0  0
   38.6560   27.1290   35.5800 C   0  0  0  0  0  0  0  0  0  0  0  0
   38.1710   25.8670   36.2230 C   0  0  0  0  0  0  0  0  0  0  0  0
   38.5160   24.6590   35.3440 C   0  0  1  0  0  0  0  0  0  0  0  0
   41.5840   25.6300   34.6350 H   0  0  0  0  0  0  0  0  0  0  0  0
   40.2510   25.5030   33.4890 H   0  0  0  0  0  0  0  0  0  0  0  0
   40.7500   27.4980   35.6110 H   0  0  0  0  0  0  0  0  0  0  0  0
   39.9790   27.6750   34.0300 H   0  0  0  0  0  0  0  0  0  0  0  0
   38.6660   27.9200   36.3630 H   0  0  0  0  0  0  0  0  0  0  0  0
   37.8660   27.4590   34.8440 H   0  0  0  0  0  0  0  0  0  0  0  0
   38.5830   25.7270   37.2390 H   0  0  0  0  0  0  0  0  0  0  0  0
   37.0450   25.8540   36.2690 H   0  0  0  0  0  0  0  0  0  0  0  0
   38.0140   23.7640   35.7350 H   0  0  0  0  0  0  0  0  0  0  0  0
   40.7460   23.5030   35.8580 C   0  0  0  0  0  0  0  0  0  0  0  0
   42.0120   23.1470   35.4040 C   0  0  0  0  0  0  0  0  0  0  0  0
   42.6700   22.1060   36.0510 C   0  0  0  0  0  0  0  0  0  0  0  0
   42.0380   21.4940   37.0930 N   0  0  0  0  0  0  0  0  0  0  0  0
   40.8140   21.8690   37.5000 C   0  0  0  0  0  0  0  0  0  0  0  0
   40.1750   22.8770   36.8740 N   0  0  0  0  0  0  0  0  0  0  0  0
   42.4180   23.6940   34.5750 H   0  0  0  0  0  0  0  0  0  0  0  0
   43.6550   21.8180   35.7080 H   0  0  0  0  0  0  0  0  0  0  0  0
   40.3410   21.3600   38.3320 H   0  0  0  0  0  0  0  0  0  0  0  0
   37.9780   24.9810   34.0960 O   0  0  0  0  0  0  0  0  0  0  0  0
   37.4750   24.0840   33.1700 C   0  0  0  0  0  0  0  0  0  0  0  0
   36.8590   24.6450   32.0920 C   0  0  0  0  0  3  0  0  0  0  0  0
   36.2890   23.9010   31.0520 C   0  0  0  0  0  0  0  0  0  0  0  0
   35.8050   24.3770   30.2070 H   0  0  0  0  0  0  0  0  0  0  0  0
   36.3890   22.5490   31.1850 N   0  0  0  0  0  0  0  0  0  0  0  0
   36.9940   22.0230   32.2440 C   0  0  0  0  0  3  0  0  0  0  0  0
   37.5410   22.7430   33.2440 N   0  0  0  0  0  0  0  0  0  0  0  0
  1  6  1  0  0  0  0
  1 16  1  0  0  0  0
  2  7  1  0  0  0  0
  2  3  1  0  0  0  0
  2  1  1  0  0  0  0
  3  4  1  0  0  0  0
  3  9  1  0  0  0  0
  4  5  1  0  0  0  0
  4 11  1  0  0  0  0
  5 14  1  0  0  0  0
  5 13  1  0  0  0  0
  6 15  1  1  0  0  0
  6  5  1  0  0  0  0
  8  2  1  0  0  0  0
 10  3  1  0  0  0  0
 12  4  1  0  0  0  0
 16 21  1  0  0  0  0
 17 16  2  0  0  0  0
 17 18  1  0  0  0  0
 18 19  2  0  0  0  0
 19 20  1  0  0  0  0
 20 24  1  0  0  0  0
 21 20  2  0  0  0  0
 22 17  1  0  0  0  0
 23 18  1  0  0  0  0
 25  6  1  0  0  0  0
 26 32  1  0  0  0  0
 26 25  1  0  0  0  0
 27 26  2  0  0  0  0
 28 30  2  0  0  0  0
 28 27  1  0  0  0  0
 29 28  1  0  0  0  0
 30 31  1  0  0  0  0
 31 32  2  0  0  0  0
M  END
>  <minimizedAffinity>
-4.63202095

$$$$
