
 OpenBabel03272504133D

 19 20  0  0  0  0  0  0  0  0999 V2000
   38.3780   23.8000   37.0320 C   0  0  0  0  0  0  0  0  0  0  0  0
   37.8560   24.8860   36.3260 C   0  0  0  0  0  0  0  0  0  0  0  0
   37.9760   24.8830   34.9390 C   0  0  0  0  0  0  0  0  0  0  0  0
   38.5920   23.8330   34.3360 N   0  0  0  0  0  0  0  0  0  0  0  0
   39.0890   22.7930   35.0540 C   0  0  0  0  0  0  0  0  0  0  0  0
   38.9820   22.7750   36.4000 N   0  0  0  0  0  0  0  0  0  0  0  0
   37.3780   25.6880   36.8730 H   0  0  0  0  0  0  0  0  0  0  0  0
   39.5760   21.9690   34.5320 H   0  0  0  0  0  0  0  0  0  0  0  0
   37.4430   26.0000   34.1810 C   0  0  0  0  0  0  0  0  0  0  0  0
   37.0440   27.1480   34.8330 C   0  0  0  0  0  3  0  0  0  0  0  0
   36.5400   28.1970   34.0910 C   0  0  0  0  0  0  0  0  0  0  0  0
   36.2090   29.1330   34.5540 H   0  0  0  0  0  0  0  0  0  0  0  0
   36.4640   28.0360   32.7380 N   0  0  0  0  0  0  0  0  0  0  0  0
   36.8640   26.8940   32.1330 C   0  0  0  0  0  3  0  0  0  0  0  0
   37.3570   25.8660   32.8490 N   0  0  0  0  0  0  0  0  0  0  0  0
   38.2580   23.7830   38.5220 C   0  0  0  0  0  0  0  0  0  0  0  0
   37.9020   25.0250   38.9940 F   0  0  0  0  0  0  0  0  0  0  0  0
   37.3610   22.7900   38.8510 F   0  0  0  0  0  0  0  0  0  0  0  0
   39.5140   23.4720   39.0300 F   0  0  0  0  0  0  0  0  0  0  0  0
  1 16  1  0  0  0  0
  2  7  1  0  0  0  0
  2  1  2  0  0  0  0
  3  2  1  0  0  0  0
  4  3  2  0  0  0  0
  4  5  1  0  0  0  0
  5  6  2  0  0  0  0
  6  1  1  0  0  0  0
  8  5  1  0  0  0  0
  9 10  1  0  0  0  0
  9  3  1  0  0  0  0
 11 12  1  0  0  0  0
 11 10  2  0  0  0  0
 13 11  1  0  0  0  0
 14 13  2  0  0  0  0
 14 15  1  0  0  0  0
 15  9  2  0  0  0  0
 16 18  1  0  0  0  0
 16 17  1  0  0  0  0
 16 19  1  0  0  0  0
M  END
>  <minimizedAffinity>
-5.03266859

$$$$

 OpenBabel03272504133D

 19 20  0  0  0  0  0  0  0  0999 V2000
   38.7540   23.0590   36.9790 C   0  0  0  0  0  0  0  0  0  0  0  0
   37.7800   22.7650   36.0230 C   0  0  0  0  0  0  0  0  0  0  0  0
   38.1980   22.2450   34.8020 C   0  0  0  0  0  0  0  0  0  0  0  0
   39.5260   22.0450   34.5940 N   0  0  0  0  0  0  0  0  0  0  0  0
   40.4470   22.3420   35.5470 C   0  0  0  0  0  0  0  0  0  0  0  0
   40.0620   22.8480   36.7380 N   0  0  0  0  0  0  0  0  0  0  0  0
   36.7410   22.9510   36.2580 H   0  0  0  0  0  0  0  0  0  0  0  0
   41.5040   22.1670   35.3410 H   0  0  0  0  0  0  0  0  0  0  0  0
   37.2060   21.9310   33.7890 C   0  0  0  0  0  0  0  0  0  0  0  0
   36.2500   20.9690   34.0360 C   0  0  0  0  0  3  0  0  0  0  0  0
   35.3170   20.6870   33.0590 C   0  0  0  0  0  0  0  0  0  0  0  0
   34.5350   19.9340   33.1990 H   0  0  0  0  0  0  0  0  0  0  0  0
   35.3950   21.3880   31.8900 N   0  0  0  0  0  0  0  0  0  0  0  0
   36.3480   22.3260   31.6840 C   0  0  0  0  0  3  0  0  0  0  0  0
   37.2610   22.6060   32.6310 N   0  0  0  0  0  0  0  0  0  0  0  0
   38.3260   23.6190   38.2980 C   0  0  0  0  0  0  0  0  0  0  0  0
   37.9760   24.9430   38.1720 F   0  0  0  0  0  0  0  0  0  0  0  0
   37.3050   22.8210   38.7710 F   0  0  0  0  0  0  0  0  0  0  0  0
   39.4200   23.5410   39.1510 F   0  0  0  0  0  0  0  0  0  0  0  0
  1 16  1  0  0  0  0
  2  7  1  0  0  0  0
  2  1  2  0  0  0  0
  3  2  1  0  0  0  0
  4  3  2  0  0  0  0
  4  5  1  0  0  0  0
  5  6  2  0  0  0  0
  6  1  1  0  0  0  0
  8  5  1  0  0  0  0
  9 10  1  0  0  0  0
  9  3  1  0  0  0  0
 11 12  1  0  0  0  0
 11 10  2  0  0  0  0
 13 11  1  0  0  0  0
 14 13  2  0  0  0  0
 14 15  1  0  0  0  0
 15  9  2  0  0  0  0
 16 18  1  0  0  0  0
 16 19  1  0  0  0  0
 17 16  1  0  0  0  0
M  END
>  <minimizedAffinity>
-4.7548089

$$$$

 OpenBabel03272504133D

 19 20  0  0  0  0  0  0  0  0999 V2000
   38.1820   23.7680   36.7890 C   0  0  0  0  0  0  0  0  0  0  0  0
   37.7510   22.6650   36.0470 C   0  0  0  0  0  0  0  0  0  0  0  0
   37.7090   22.7850   34.6620 C   0  0  0  0  0  0  0  0  0  0  0  0
   38.0860   23.9600   34.0930 N   0  0  0  0  0  0  0  0  0  0  0  0
   38.5010   25.0130   34.8440 C   0  0  0  0  0  0  0  0  0  0  0  0
   38.5490   24.9170   36.1900 N   0  0  0  0  0  0  0  0  0  0  0  0
   37.4650   21.7620   36.5690 H   0  0  0  0  0  0  0  0  0  0  0  0
   38.7950   25.9390   34.3490 H   0  0  0  0  0  0  0  0  0  0  0  0
   37.2650   21.6550   33.8670 C   0  0  0  0  0  0  0  0  0  0  0  0
   36.0530   21.0540   34.1410 C   0  0  0  0  0  3  0  0  0  0  0  0
   35.6510   19.9800   33.3720 C   0  0  0  0  0  0  0  0  0  0  0  0
   34.7000   19.4650   33.5430 H   0  0  0  0  0  0  0  0  0  0  0  0
   36.4850   19.5700   32.3730 N   0  0  0  0  0  0  0  0  0  0  0  0
   37.6670   20.1850   32.1340 C   0  0  0  0  0  3  0  0  0  0  0  0
   38.0670   21.2320   32.8790 N   0  0  0  0  0  0  0  0  0  0  0  0
   38.2350   23.6600   38.2790 C   0  0  0  0  0  0  0  0  0  0  0  0
   38.0700   24.8960   38.8610 F   0  0  0  0  0  0  0  0  0  0  0  0
   37.2800   22.7400   38.6580 F   0  0  0  0  0  0  0  0  0  0  0  0
   39.5000   23.1920   38.6110 F   0  0  0  0  0  0  0  0  0  0  0  0
  1 16  1  0  0  0  0
  2  7  1  0  0  0  0
  2  1  2  0  0  0  0
  3  2  1  0  0  0  0
  4  3  2  0  0  0  0
  4  5  1  0  0  0  0
  5  6  2  0  0  0  0
  6  1  1  0  0  0  0
  8  5  1  0  0  0  0
  9 10  1  0  0  0  0
  9  3  1  0  0  0  0
 11 12  1  0  0  0  0
 11 10  2  0  0  0  0
 13 11  1  0  0  0  0
 14 13  2  0  0  0  0
 14 15  1  0  0  0  0
 15  9  2  0  0  0  0
 16 19  1  0  0  0  0
 16 18  1  0  0  0  0
 16 17  1  0  0  0  0
M  END
>  <minimizedAffinity>
-4.68100643

$$$$

 OpenBabel03272504133D

 19 20  0  0  0  0  0  0  0  0999 V2000
   38.8040   23.3890   37.1560 C   0  0  0  0  0  0  0  0  0  0  0  0
   38.0950   23.8280   36.0360 C   0  0  0  0  0  0  0  0  0  0  0  0
   38.5550   23.4460   34.7790 C   0  0  0  0  0  0  0  0  0  0  0  0
   39.6660   22.6670   34.6960 N   0  0  0  0  0  0  0  0  0  0  0  0
   40.3310   22.2580   35.8070 C   0  0  0  0  0  0  0  0  0  0  0  0
   39.9020   22.6170   37.0350 N   0  0  0  0  0  0  0  0  0  0  0  0
   37.2190   24.4470   36.1780 H   0  0  0  0  0  0  0  0  0  0  0  0
   41.2190   21.6330   35.6970 H   0  0  0  0  0  0  0  0  0  0  0  0
   37.8370   23.8890   33.5980 C   0  0  0  0  0  0  0  0  0  0  0  0
   37.6350   25.2360   33.3790 C   0  0  0  0  0  3  0  0  0  0  0  0
   36.9500   25.6350   32.2500 C   0  0  0  0  0  0  0  0  0  0  0  0
   36.7600   26.6890   32.0250 H   0  0  0  0  0  0  0  0  0  0  0  0
   36.5070   24.6600   31.4030 N   0  0  0  0  0  0  0  0  0  0  0  0
   36.7240   23.3480   31.6500 C   0  0  0  0  0  3  0  0  0  0  0  0
   37.3910   22.9510   32.7490 N   0  0  0  0  0  0  0  0  0  0  0  0
   38.3270   23.7880   38.5150 C   0  0  0  0  0  0  0  0  0  0  0  0
   39.3440   23.6890   39.4360 F   0  0  0  0  0  0  0  0  0  0  0  0
   37.8010   25.0580   38.4090 F   0  0  0  0  0  0  0  0  0  0  0  0
   37.3280   22.8920   38.8770 F   0  0  0  0  0  0  0  0  0  0  0  0
  1 16  1  0  0  0  0
  2  7  1  0  0  0  0
  2  1  2  0  0  0  0
  3  2  1  0  0  0  0
  4  3  2  0  0  0  0
  4  5  1  0  0  0  0
  5  6  2  0  0  0  0
  6  1  1  0  0  0  0
  8  5  1  0  0  0  0
  9  3  1  0  0  0  0
 10  9  1  0  0  0  0
 11 10  2  0  0  0  0
 12 11  1  0  0  0  0
 13 14  2  0  0  0  0
 13 11  1  0  0  0  0
 14 15  1  0  0  0  0
 15  9  2  0  0  0  0
 16 19  1  0  0  0  0
 16 17  1  0  0  0  0
 18 16  1  0  0  0  0
M  END
>  <minimizedAffinity>
-4.56085348

$$$$

 OpenBabel03272504133D

 19 20  0  0  0  0  0  0  0  0999 V2000
   36.4590   21.4080   32.9840 C   0  0  0  0  0  0  0  0  0  0  0  0
   37.0480   21.5070   34.2460 C   0  0  0  0  0  0  0  0  0  0  0  0
   37.8720   22.5990   34.5000 C   0  0  0  0  0  0  0  0  0  0  0  0
   38.0660   23.5170   33.5180 N   0  0  0  0  0  0  0  0  0  0  0  0
   37.4770   23.3910   32.3010 C   0  0  0  0  0  0  0  0  0  0  0  0
   36.6740   22.3390   32.0340 N   0  0  0  0  0  0  0  0  0  0  0  0
   36.8490   20.7370   34.9800 H   0  0  0  0  0  0  0  0  0  0  0  0
   37.6580   24.1500   31.5390 H   0  0  0  0  0  0  0  0  0  0  0  0
   38.4980   22.7250   35.8040 C   0  0  0  0  0  0  0  0  0  0  0  0
   37.8110   23.3160   36.8440 C   0  0  0  0  0  3  0  0  0  0  0  0
   38.4260   23.4250   38.0750 C   0  0  0  0  0  0  0  0  0  0  0  0
   37.9290   23.8840   38.9360 H   0  0  0  0  0  0  0  0  0  0  0  0
   39.6940   22.9340   38.1940 N   0  0  0  0  0  0  0  0  0  0  0  0
   40.3370   22.3610   37.1500 C   0  0  0  0  0  3  0  0  0  0  0  0
   39.7440   22.2510   35.9470 N   0  0  0  0  0  0  0  0  0  0  0  0
   35.5710   20.2430   32.6900 C   0  0  0  0  0  0  0  0  0  0  0  0
   34.3250   20.6700   32.2930 F   0  0  0  0  0  0  0  0  0  0  0  0
   36.2120   19.4630   31.7510 F   0  0  0  0  0  0  0  0  0  0  0  0
   35.4250   19.5300   33.8750 F   0  0  0  0  0  0  0  0  0  0  0  0
  1  2  1  0  0  0  0
  2  3  2  0  0  0  0
  2  7  1  0  0  0  0
  3  9  1  0  0  0  0
  4  3  1  0  0  0  0
  5  4  2  0  0  0  0
  6  5  1  0  0  0  0
  6  1  2  0  0  0  0
  8  5  1  0  0  0  0
  9 15  2  0  0  0  0
  9 10  1  0  0  0  0
 10 11  2  0  0  0  0
 11 13  1  0  0  0  0
 11 12  1  0  0  0  0
 14 13  2  0  0  0  0
 15 14  1  0  0  0  0
 16  1  1  0  0  0  0
 16 19  1  0  0  0  0
 17 16  1  0  0  0  0
 18 16  1  0  0  0  0
M  END
>  <minimizedAffinity>
-4.53349018

$$$$

 OpenBabel03272504133D

 19 20  0  0  0  0  0  0  0  0999 V2000
   38.2780   23.5080   36.8680 C   0  0  0  0  0  0  0  0  0  0  0  0
   38.9160   24.5220   36.1500 C   0  0  0  0  0  0  0  0  0  0  0  0
   38.9670   24.4080   34.7640 C   0  0  0  0  0  0  0  0  0  0  0  0
   38.4000   23.3250   34.1720 N   0  0  0  0  0  0  0  0  0  0  0  0
   37.7860   22.3570   34.9020 C   0  0  0  0  0  0  0  0  0  0  0  0
   37.7250   22.4480   36.2480 N   0  0  0  0  0  0  0  0  0  0  0  0
   39.3470   25.3550   36.6880 H   0  0  0  0  0  0  0  0  0  0  0  0
   37.3420   21.5030   34.3890 H   0  0  0  0  0  0  0  0  0  0  0  0
   39.6260   25.4470   33.9930 C   0  0  0  0  0  0  0  0  0  0  0  0
   40.6240   26.2050   34.5690 C   0  0  0  0  0  3  0  0  0  0  0  0
   41.2360   27.1880   33.8170 C   0  0  0  0  0  0  0  0  0  0  0  0
   42.0340   27.8190   34.2210 H   0  0  0  0  0  0  0  0  0  0  0  0
   40.8120   27.3550   32.5310 N   0  0  0  0  0  0  0  0  0  0  0  0
   39.8290   26.5920   31.9990 C   0  0  0  0  0  3  0  0  0  0  0  0
   39.2270   25.6320   32.7260 N   0  0  0  0  0  0  0  0  0  0  0  0
   38.2110   23.6110   38.3580 C   0  0  0  0  0  0  0  0  0  0  0  0
   37.2430   22.7720   38.8590 F   0  0  0  0  0  0  0  0  0  0  0  0
   39.4740   23.3500   38.8450 F   0  0  0  0  0  0  0  0  0  0  0  0
   37.8480   24.9180   38.6620 F   0  0  0  0  0  0  0  0  0  0  0  0
  1 16  1  0  0  0  0
  2  7  1  0  0  0  0
  2  1  2  0  0  0  0
  3  2  1  0  0  0  0
  4  3  2  0  0  0  0
  4  5  1  0  0  0  0
  5  6  2  0  0  0  0
  6  1  1  0  0  0  0
  8  5  1  0  0  0  0
  9 10  1  0  0  0  0
  9  3  1  0  0  0  0
 11 12  1  0  0  0  0
 11 10  2  0  0  0  0
 13 11  1  0  0  0  0
 14 13  2  0  0  0  0
 14 15  1  0  0  0  0
 15  9  2  0  0  0  0
 16 19  1  0  0  0  0
 16 18  1  0  0  0  0
 16 17  1  0  0  0  0
M  END
>  <minimizedAffinity>
-4.50111532

$$$$

 OpenBabel03272504133D

 19 20  0  0  0  0  0  0  0  0999 V2000
   37.3620   26.1950   33.2930 C   0  0  0  0  0  0  0  0  0  0  0  0
   37.6950   25.7930   34.5880 C   0  0  0  0  0  0  0  0  0  0  0  0
   38.1330   24.4850   34.7750 C   0  0  0  0  0  0  0  0  0  0  0  0
   38.2170   23.6620   33.6980 N   0  0  0  0  0  0  0  0  0  0  0  0
   37.8850   24.0860   32.4510 C   0  0  0  0  0  0  0  0  0  0  0  0
   37.4590   25.3510   32.2480 N   0  0  0  0  0  0  0  0  0  0  0  0
   37.6030   26.5040   35.3990 H   0  0  0  0  0  0  0  0  0  0  0  0
   37.9660   23.3930   31.6120 H   0  0  0  0  0  0  0  0  0  0  0  0
   38.4840   24.0410   36.1110 C   0  0  0  0  0  0  0  0  0  0  0  0
   37.7640   24.4900   37.1990 C   0  0  0  0  0  3  0  0  0  0  0  0
   38.1160   24.0540   38.4600 C   0  0  0  0  0  0  0  0  0  0  0  0
   37.5800   24.3760   39.3590 H   0  0  0  0  0  0  0  0  0  0  0  0
   39.1700   23.1930   38.5600 N   0  0  0  0  0  0  0  0  0  0  0  0
   39.8540   22.7750   37.4700 C   0  0  0  0  0  3  0  0  0  0  0  0
   39.5170   23.1950   36.2370 N   0  0  0  0  0  0  0  0  0  0  0  0
   36.8910   27.5960   33.0710 C   0  0  0  0  0  0  0  0  0  0  0  0
   36.6410   28.2210   34.2710 F   0  0  0  0  0  0  0  0  0  0  0  0
   37.8440   28.2340   32.3050 F   0  0  0  0  0  0  0  0  0  0  0  0
   35.6950   27.5200   32.3680 F   0  0  0  0  0  0  0  0  0  0  0  0
  1  2  1  0  0  0  0
  2  3  2  0  0  0  0
  2  7  1  0  0  0  0
  3  9  1  0  0  0  0
  4  3  1  0  0  0  0
  5  4  2  0  0  0  0
  6  5  1  0  0  0  0
  6  1  2  0  0  0  0
  8  5  1  0  0  0  0
  9 15  2  0  0  0  0
  9 10  1  0  0  0  0
 10 11  2  0  0  0  0
 11 13  1  0  0  0  0
 11 12  1  0  0  0  0
 14 13  2  0  0  0  0
 15 14  1  0  0  0  0
 16  1  1  0  0  0  0
 16 17  1  0  0  0  0
 18 16  1  0  0  0  0
 19 16  1  0  0  0  0
M  END
>  <minimizedAffinity>
-4.36459541

$$$$

 OpenBabel03272504133D

 19 20  0  0  0  0  0  0  0  0999 V2000
   35.8260   21.0040   32.3220 C   0  0  0  0  0  0  0  0  0  0  0  0
   36.7110   21.1200   33.3960 C   0  0  0  0  0  0  0  0  0  0  0  0
   37.4230   22.3090   33.5310 C   0  0  0  0  0  0  0  0  0  0  0  0
   37.2270   23.2980   32.6200 N   0  0  0  0  0  0  0  0  0  0  0  0
   36.3580   23.1510   31.5870 C   0  0  0  0  0  0  0  0  0  0  0  0
   35.6580   22.0060   31.4380 N   0  0  0  0  0  0  0  0  0  0  0  0
   36.8160   20.2910   34.0820 H   0  0  0  0  0  0  0  0  0  0  0  0
   36.2300   23.9690   30.8770 H   0  0  0  0  0  0  0  0  0  0  0  0
   38.3500   22.4560   34.6380 C   0  0  0  0  0  0  0  0  0  0  0  0
   39.6860   22.1610   34.4620 C   0  0  0  0  0  3  0  0  0  0  0  0
   40.5500   22.3080   35.5280 C   0  0  0  0  0  0  0  0  0  0  0  0
   41.6190   22.0900   35.4470 H   0  0  0  0  0  0  0  0  0  0  0  0
   40.0250   22.7430   36.7110 N   0  0  0  0  0  0  0  0  0  0  0  0
   38.7080   23.0230   36.8460 C   0  0  0  0  0  3  0  0  0  0  0  0
   37.8590   22.8810   35.8110 N   0  0  0  0  0  0  0  0  0  0  0  0
   35.0520   19.7350   32.1590 C   0  0  0  0  0  0  0  0  0  0  0  0
   35.2270   18.9160   33.2500 F   0  0  0  0  0  0  0  0  0  0  0  0
   33.7360   20.0830   31.9360 F   0  0  0  0  0  0  0  0  0  0  0  0
   35.5640   19.0830   31.0430 F   0  0  0  0  0  0  0  0  0  0  0  0
  1  2  1  0  0  0  0
  2  3  2  0  0  0  0
  2  7  1  0  0  0  0
  3  9  1  0  0  0  0
  4  3  1  0  0  0  0
  5  4  2  0  0  0  0
  6  5  1  0  0  0  0
  6  1  2  0  0  0  0
  8  5  1  0  0  0  0
  9 15  1  0  0  0  0
 10  9  2  0  0  0  0
 10 11  1  0  0  0  0
 11 13  2  0  0  0  0
 12 11  1  0  0  0  0
 13 14  1  0  0  0  0
 15 14  2  0  0  0  0
 16  1  1  0  0  0  0
 16 17  1  0  0  0  0
 18 16  1  0  0  0  0
 19 16  1  0  0  0  0
M  END
>  <minimizedAffinity>
-4.26901674

$$$$

 OpenBabel03272504133D

 19 20  0  0  0  0  0  0  0  0999 V2000
   38.1500   24.9820   36.5940 C   0  0  0  0  0  0  0  0  0  0  0  0
   38.0630   24.4360   35.3110 C   0  0  0  0  0  0  0  0  0  0  0  0
   38.0670   25.3090   34.2280 C   0  0  0  0  0  0  0  0  0  0  0  0
   38.1550   26.6440   34.4610 N   0  0  0  0  0  0  0  0  0  0  0  0
   38.2390   27.1410   35.7220 C   0  0  0  0  0  0  0  0  0  0  0  0
   38.2370   26.3120   36.7880 N   0  0  0  0  0  0  0  0  0  0  0  0
   37.9950   23.3620   35.2010 H   0  0  0  0  0  0  0  0  0  0  0  0
   38.3080   28.2200   35.8670 H   0  0  0  0  0  0  0  0  0  0  0  0
   37.9770   24.7680   32.8830 C   0  0  0  0  0  0  0  0  0  0  0  0
   38.4800   25.4840   31.8170 C   0  0  0  0  0  3  0  0  0  0  0  0
   38.3830   24.9500   30.5480 C   0  0  0  0  0  0  0  0  0  0  0  0
   38.7650   25.4730   29.6650 H   0  0  0  0  0  0  0  0  0  0  0  0
   37.7890   23.7290   30.4200 N   0  0  0  0  0  0  0  0  0  0  0  0
   37.3060   23.0550   31.4900 C   0  0  0  0  0  3  0  0  0  0  0  0
   37.3960   23.5690   32.7300 N   0  0  0  0  0  0  0  0  0  0  0  0
   38.1480   24.0610   37.7720 C   0  0  0  0  0  0  0  0  0  0  0  0
   39.3430   23.3850   37.8620 F   0  0  0  0  0  0  0  0  0  0  0  0
   37.8590   24.8200   38.8860 F   0  0  0  0  0  0  0  0  0  0  0  0
   37.1390   23.1290   37.5610 F   0  0  0  0  0  0  0  0  0  0  0  0
  1  6  1  0  0  0  0
  1 16  1  0  0  0  0
  2  1  2  0  0  0  0
  3  4  2  0  0  0  0
  3  2  1  0  0  0  0
  4  5  1  0  0  0  0
  5  8  1  0  0  0  0
  5  6  2  0  0  0  0
  7  2  1  0  0  0  0
  9  3  1  0  0  0  0
 10  9  2  0  0  0  0
 11 10  1  0  0  0  0
 12 11  1  0  0  0  0
 13 11  2  0  0  0  0
 13 14  1  0  0  0  0
 14 15  2  0  0  0  0
 15  9  1  0  0  0  0
 16 17  1  0  0  0  0
 16 18  1  0  0  0  0
 19 16  1  0  0  0  0
M  END
>  <minimizedAffinity>
-4.24319458

$$$$
