
 OpenBabel03272509463D

 23 24  0  0  0  0  0  0  0  0999 V2000
   34.1470   28.4390   48.5300 C   0  0  0  0  0  0  0  0  0  0  0  0
   34.7290   29.0830   47.8590 H   0  0  0  0  0  0  0  0  0  0  0  0
   33.1760   28.9440   48.7190 H   0  0  0  0  0  0  0  0  0  0  0  0
   33.8580   27.0800   47.9610 C   0  0  0  0  0  0  0  0  0  0  0  0
   33.3510   26.4680   48.7050 H   0  0  0  0  0  0  0  0  0  0  0  0
   34.8220   26.5870   47.6560 H   0  0  0  0  0  0  0  0  0  0  0  0
   33.0550   27.1460   46.7110 C   0  0  0  0  0  0  0  0  0  0  0  0
   33.7530   27.1390   45.5200 C   0  0  0  0  0  3  0  0  0  0  0  0
   33.1140   27.1960   44.3000 C   0  0  0  0  0  0  0  0  0  0  0  0
   33.5990   27.1950   43.3290 H   0  0  0  0  0  0  0  0  0  0  0  0
   31.7810   27.2610   44.2660 N   0  0  0  0  0  0  0  0  0  0  0  0
   31.1010   27.2670   45.4380 C   0  0  0  0  0  3  0  0  0  0  0  0
   31.7040   27.2130   46.6380 N   0  0  0  0  0  0  0  0  0  0  0  0
   34.7500   28.3130   49.8120 O   0  0  0  0  0  0  0  0  0  0  0  0
   37.3620   30.2450   51.4250 C   0  0  0  0  0  0  0  0  0  0  0  0
   38.0720   30.6760   50.2880 C   0  0  0  0  0  0  0  0  0  0  0  0
   37.6100   30.2790   49.0380 C   0  0  0  0  0  0  0  0  0  0  0  0
   36.4910   29.4900   49.0000 N   0  0  0  0  0  0  0  0  0  0  0  0
   35.8380   29.0960   50.1000 C   0  0  0  0  0  0  0  0  0  0  0  0
   36.2790   29.4770   51.3210 N   0  0  0  0  0  0  0  0  0  0  0  0
   37.6660   30.5180   52.4320 H   0  0  0  0  0  0  0  0  0  0  0  0
   38.9490   31.3000   50.4120 H   0  0  0  0  0  0  0  0  0  0  0  0
   38.1290   30.5890   48.1380 H   0  0  0  0  0  0  0  0  0  0  0  0
  1  3  1  0  0  0  0
  1 14  1  0  0  0  0
  2  1  1  0  0  0  0
  4  1  1  0  0  0  0
  4  5  1  0  0  0  0
  6  4  1  0  0  0  0
  7  4  1  0  0  0  0
  8  7  2  0  0  0  0
  9  8  1  0  0  0  0
 10  9  1  0  0  0  0
 11  9  2  0  0  0  0
 11 12  1  0  0  0  0
 12 13  2  0  0  0  0
 13  7  1  0  0  0  0
 14 19  1  0  0  0  0
 15 21  1  0  0  0  0
 16 22  1  0  0  0  0
 16 15  2  0  0  0  0
 17 16  1  0  0  0  0
 18 17  2  0  0  0  0
 18 19  1  0  0  0  0
 19 20  2  0  0  0  0
 20 15  1  0  0  0  0
 23 17  1  0  0  0  0
M  END
>  <minimizedAffinity>
-3.68640113

>  <minimizedRMSD>
0.314448982

$$$$
