
 OpenBabel03262522203D

 17 18  0  0  0  0  0  0  0  0999 V2000
   36.7080   29.3600   49.9770 C   0  0  0  0  0  0  0  0  0  0  0  0
   36.6950   29.9900   48.7170 C   0  0  0  0  0  0  0  0  0  0  0  0
   35.4730   30.4300   48.2370 C   0  0  0  0  0  0  0  0  0  0  0  0
   34.3520   30.2450   48.9840 N   0  0  0  0  0  0  0  0  0  0  0  0
   34.4110   29.6330   50.1920 C   0  0  0  0  0  0  0  0  0  0  0  0
   35.5730   29.1870   50.7020 N   0  0  0  0  0  0  0  0  0  0  0  0
   37.6190   28.9830   50.4320 H   0  0  0  0  0  0  0  0  0  0  0  0
   35.5200   30.8950   47.2880 H   0  0  0  0  0  0  0  0  0  0  0  0
   33.4510   29.5420   50.6940 H   0  0  0  0  0  0  0  0  0  0  0  0
   37.9290   30.0800   48.1230 O   0  0  0  0  0  0  0  0  0  0  0  0
   38.2630   30.9990   47.1250 C   0  0  0  0  0  0  0  0  0  0  0  0
   39.1270   32.0730   47.2650 C   0  0  0  0  0  3  0  0  0  0  0  0
   39.3590   32.8990   46.1800 C   0  0  0  0  0  0  0  0  0  0  0  0
   40.0350   33.7330   46.3010 H   0  0  0  0  0  0  0  0  0  0  0  0
   38.7540   32.6660   45.0010 N   0  0  0  0  0  0  0  0  0  0  0  0
   37.9270   31.6080   44.9290 C   0  0  0  0  0  3  0  0  0  0  0  0
   37.6580   30.7650   45.9460 N   0  0  0  0  0  0  0  0  0  0  0  0
  1  7  1  0  0  0  0
  1  6  1  0  0  0  0
  2  1  2  0  0  0  0
  3  2  1  0  0  0  0
  3  4  2  0  0  0  0
  4  5  1  0  0  0  0
  5  9  1  0  0  0  0
  5  6  2  0  0  0  0
  8  3  1  0  0  0  0
 10  2  1  0  0  0  0
 11 12  1  0  0  0  0
 11 10  1  0  0  0  0
 13 14  1  0  0  0  0
 13 12  2  0  0  0  0
 15 13  1  0  0  0  0
 16 15  2  0  0  0  0
 16 17  1  0  0  0  0
 17 11  2  0  0  0  0
M  END
>  <minimizedAffinity>
-3.82639027

>  <minimizedRMSD>
3.51028085

$$$$
