
 OpenBabel03262521063D

 34 36  0  0  0  0  0  0  0  0999 V2000
   36.9700   24.9520   32.3320 Br  0  0  0  0  0  0  0  0  0  0  0  0
   37.5360   25.7840   33.9240 C   0  0  0  0  0  0  0  0  0  0  0  0
   37.3930   27.1400   33.9740 C   0  0  0  0  0  0  0  0  0  0  0  0
   37.7900   27.8300   35.1190 C   0  0  0  0  0  0  0  0  0  0  0  0
   38.3260   27.1290   36.1930 C   0  0  0  0  0  0  0  0  0  0  0  0
   38.4420   25.7820   36.0780 C   0  0  0  0  0  0  0  0  0  0  0  0
   38.0580   25.0770   34.9600 C   0  0  0  0  0  0  0  0  0  0  0  0
   37.7080   28.8970   35.2350 H   0  0  0  0  0  0  0  0  0  0  0  0
   38.6450   27.6150   37.0950 H   0  0  0  0  0  0  0  0  0  0  0  0
   38.8580   25.2290   36.9100 H   0  0  0  0  0  0  0  0  0  0  0  0
   37.4670   28.2860   31.7170 C   0  0  0  0  0  0  0  0  0  0  0  0
   36.8480   28.0210   32.9330 C   0  0  0  0  0  0  0  0  0  0  0  0
   35.5940   28.6490   33.1890 C   0  0  0  0  0  0  0  0  0  0  0  0
   35.0900   29.4700   32.2130 N   0  0  0  0  0  0  0  0  0  0  0  0
   35.7410   29.6830   31.0580 C   0  0  0  0  0  0  0  0  0  0  0  0
   36.9230   29.0980   30.8070 N   0  0  0  0  0  0  0  0  0  0  0  0
   38.4150   27.7860   31.5720 H   0  0  0  0  0  0  0  0  0  0  0  0
   35.0600   28.4900   34.1040 H   0  0  0  0  0  0  0  0  0  0  0  0
   35.3040   30.3410   30.3160 H   0  0  0  0  0  0  0  0  0  0  0  0
   38.1750   23.6760   34.8310 N   0  0  0  0  0  0  0  0  0  0  0  0
   38.5860   23.3920   33.9020 H   0  0  0  0  0  0  0  0  0  0  0  0
   37.7980   22.3630   35.8380 S   0  0  0  0  0  0  0  0  0  0  0  0
   37.2100   22.8400   37.1340 O   0  0  0  0  0  0  0  0  0  0  0  0
   36.6140   23.6280   37.1820 H   0  0  0  0  0  0  0  0  0  0  0  0
   39.0650   21.6130   36.1800 O   0  0  0  0  0  0  0  0  0  0  0  0
   39.5410   21.5650   37.0280 H   0  0  0  0  0  0  0  0  0  0  0  0
   36.7110   21.3480   35.0510 O   0  0  0  0  0  0  0  0  0  0  0  0
   36.7860   21.2850   33.6640 C   0  0  0  0  0  0  0  0  0  0  0  0
   35.6010   21.2010   32.9410 C   0  0  0  0  0  3  0  0  0  0  0  0
   35.7480   21.1400   31.5590 C   0  0  0  0  0  0  0  0  0  0  0  0
   34.8990   21.0720   30.8740 H   0  0  0  0  0  0  0  0  0  0  0  0
   36.9470   21.1590   30.9090 N   0  0  0  0  0  0  0  0  0  0  0  0
   38.0710   21.2410   31.6670 C   0  0  0  0  0  3  0  0  0  0  0  0
   37.9400   21.3000   32.9860 N   0  0  0  0  0  0  0  0  0  0  0  0
  1  2  1  0  0  0  0
  2  3  2  0  0  0  0
  2  7  1  0  0  0  0
  3  4  1  0  0  0  0
  4  8  1  0  0  0  0
  4  5  2  0  0  0  0
  5  9  1  0  0  0  0
  6  5  1  0  0  0  0
  6 10  1  0  0  0  0
  7  6  2  0  0  0  0
 11 12  1  0  0  0  0
 12 13  2  0  0  0  0
 12  3  1  0  0  0  0
 13 18  1  0  0  0  0
 14 13  1  0  0  0  0
 15 14  2  0  0  0  0
 16 15  1  0  0  0  0
 16 11  2  0  0  0  0
 17 11  1  0  0  0  0
 19 15  1  0  0  0  0
 20  7  1  0  0  0  0
 20 22  1  0  0  0  0
 21 20  1  0  0  0  0
 22 25  1  0  0  0  0
 22 23  1  0  0  0  0
 23 24  1  0  0  0  0
 25 26  1  0  0  0  0
 27 22  1  0  0  0  0
 28 27  1  0  0  0  0
 29 28  2  0  0  0  0
 30 29  1  0  0  0  0
 31 30  1  0  0  0  0
 32 30  2  0  0  0  0
 32 33  1  0  0  0  0
 33 34  2  0  0  0  0
 34 28  1  0  0  0  0
M  END
>  <minimizedAffinity>
-5.54233599

$$$$

 OpenBabel03262521063D

 34 36  0  0  0  0  0  0  0  0999 V2000
   38.0730   23.5340   33.2850 Br  0  0  0  0  0  0  0  0  0  0  0  0
   38.0160   25.1870   34.1850 C   0  0  0  0  0  0  0  0  0  0  0  0
   38.7510   25.2700   35.3310 C   0  0  0  0  0  0  0  0  0  0  0  0
   38.7610   26.4610   36.0570 C   0  0  0  0  0  0  0  0  0  0  0  0
   38.0210   27.5470   35.6030 C   0  0  0  0  0  0  0  0  0  0  0  0
   37.3110   27.3980   34.4570 C   0  0  0  0  0  0  0  0  0  0  0  0
   37.2850   26.2340   33.7230 C   0  0  0  0  0  0  0  0  0  0  0  0
   39.3150   26.6040   36.9680 H   0  0  0  0  0  0  0  0  0  0  0  0
   37.9970   28.4840   36.1260 H   0  0  0  0  0  0  0  0  0  0  0  0
   36.7330   28.2390   34.0970 H   0  0  0  0  0  0  0  0  0  0  0  0
   40.8720   23.9010   35.5400 C   0  0  0  0  0  0  0  0  0  0  0  0
   39.5810   24.2200   35.9400 C   0  0  0  0  0  0  0  0  0  0  0  0
   39.0180   23.4770   37.0190 C   0  0  0  0  0  0  0  0  0  0  0  0
   39.7970   22.5000   37.5830 N   0  0  0  0  0  0  0  0  0  0  0  0
   41.0410   22.2420   37.1470 C   0  0  0  0  0  0  0  0  0  0  0  0
   41.5790   22.9350   36.1310 N   0  0  0  0  0  0  0  0  0  0  0  0
   41.2520   24.4930   34.7170 H   0  0  0  0  0  0  0  0  0  0  0  0
   38.0280   23.6700   37.3810 H   0  0  0  0  0  0  0  0  0  0  0  0
   41.6190   21.4590   37.6230 H   0  0  0  0  0  0  0  0  0  0  0  0
   36.5500   26.0700   32.5290 N   0  0  0  0  0  0  0  0  0  0  0  0
   35.7120   25.4420   32.6580 H   0  0  0  0  0  0  0  0  0  0  0  0
   36.7210   26.6580   30.9470 S   0  0  0  0  0  0  0  0  0  0  0  0
   35.5050   26.3380   30.1270 O   0  0  0  0  0  0  0  0  0  0  0  0
   34.5950   26.3450   30.5130 H   0  0  0  0  0  0  0  0  0  0  0  0
   37.8930   25.9740   30.2800 O   0  0  0  0  0  0  0  0  0  0  0  0
   37.8940   25.3110   29.5680 H   0  0  0  0  0  0  0  0  0  0  0  0
   36.9630   28.3230   30.9920 O   0  0  0  0  0  0  0  0  0  0  0  0
   35.8920   29.1130   31.3970 C   0  0  0  0  0  0  0  0  0  0  0  0
   35.8170   30.4180   30.9220 C   0  0  0  0  0  3  0  0  0  0  0  0
   34.7220   31.1520   31.3670 C   0  0  0  0  0  0  0  0  0  0  0  0
   34.5430   32.1890   31.0710 H   0  0  0  0  0  0  0  0  0  0  0  0
   33.7620   30.6720   32.2100 N   0  0  0  0  0  0  0  0  0  0  0  0
   33.8880   29.3910   32.6410 C   0  0  0  0  0  3  0  0  0  0  0  0
   34.9300   28.6840   32.2210 N   0  0  0  0  0  0  0  0  0  0  0  0
  1  2  1  0  0  0  0
  2  3  1  0  0  0  0
  3 12  1  0  0  0  0
  3  4  2  0  0  0  0
  4  8  1  0  0  0  0
  5  4  1  0  0  0  0
  5  9  1  0  0  0  0
  6  5  2  0  0  0  0
  7  2  2  0  0  0  0
  7  6  1  0  0  0  0
 10  6  1  0  0  0  0
 11 12  2  0  0  0  0
 11 16  1  0  0  0  0
 12 13  1  0  0  0  0
 13 18  1  0  0  0  0
 13 14  2  0  0  0  0
 15 14  1  0  0  0  0
 15 19  1  0  0  0  0
 16 15  2  0  0  0  0
 17 11  1  0  0  0  0
 20 21  1  0  0  0  0
 20  7  1  0  0  0  0
 22 27  1  0  0  0  0
 22 20  1  0  0  0  0
 23 24  1  0  0  0  0
 23 22  1  0  0  0  0
 25 22  1  0  0  0  0
 26 25  1  0  0  0  0
 27 28  1  0  0  0  0
 28 34  1  0  0  0  0
 29 30  1  0  0  0  0
 29 28  2  0  0  0  0
 30 32  2  0  0  0  0
 31 30  1  0  0  0  0
 32 33  1  0  0  0  0
 34 33  2  0  0  0  0
M  END
>  <minimizedAffinity>
-5.51906681

$$$$

 OpenBabel03262521063D

 34 36  0  0  0  0  0  0  0  0999 V2000
   38.5610   26.6380   33.2350 Br  0  0  0  0  0  0  0  0  0  0  0  0
   37.2790   25.5610   32.3730 C   0  0  0  0  0  0  0  0  0  0  0  0
   36.3010   26.2240   31.6930 C   0  0  0  0  0  0  0  0  0  0  0  0
   35.3130   25.4970   31.0280 C   0  0  0  0  0  0  0  0  0  0  0  0
   35.3390   24.1080   31.0680 C   0  0  0  0  0  0  0  0  0  0  0  0
   36.3400   23.5110   31.7640 C   0  0  0  0  0  0  0  0  0  0  0  0
   37.3250   24.2040   32.4270 C   0  0  0  0  0  0  0  0  0  0  0  0
   34.5100   25.9460   30.4710 H   0  0  0  0  0  0  0  0  0  0  0  0
   34.6020   23.5050   30.5730 H   0  0  0  0  0  0  0  0  0  0  0  0
   36.3660   22.4300   31.7990 H   0  0  0  0  0  0  0  0  0  0  0  0
   35.5260   28.4970   32.4990 C   0  0  0  0  0  0  0  0  0  0  0  0
   36.1340   27.6780   31.5550 C   0  0  0  0  0  0  0  0  0  0  0  0
   36.6320   28.2900   30.3680 C   0  0  0  0  0  0  0  0  0  0  0  0
   36.4740   29.6460   30.2450 N   0  0  0  0  0  0  0  0  0  0  0  0
   35.8750   30.3810   31.1970 C   0  0  0  0  0  0  0  0  0  0  0  0
   35.4020   29.8140   32.3190 N   0  0  0  0  0  0  0  0  0  0  0  0
   35.1650   27.9840   33.3810 H   0  0  0  0  0  0  0  0  0  0  0  0
   37.1120   27.7190   29.5980 H   0  0  0  0  0  0  0  0  0  0  0  0
   35.7730   31.4500   31.0560 H   0  0  0  0  0  0  0  0  0  0  0  0
   38.3700   23.5920   33.1530 N   0  0  0  0  0  0  0  0  0  0  0  0
   39.2290   24.2010   33.2090 H   0  0  0  0  0  0  0  0  0  0  0  0
   38.5400   22.1020   33.9450 S   0  0  0  0  0  0  0  0  0  0  0  0
   39.1070   21.0680   33.0150 O   0  0  0  0  0  0  0  0  0  0  0  0
   39.7840   21.2930   32.3310 H   0  0  0  0  0  0  0  0  0  0  0  0
   37.1790   21.6040   34.3780 O   0  0  0  0  0  0  0  0  0  0  0  0
   36.6560   20.8630   34.0270 H   0  0  0  0  0  0  0  0  0  0  0  0
   39.5470   22.2890   35.2800 O   0  0  0  0  0  0  0  0  0  0  0  0
   39.0350   22.9810   36.3730 C   0  0  0  0  0  0  0  0  0  0  0  0
   39.5910   22.7420   37.6250 C   0  0  0  0  0  3  0  0  0  0  0  0
   39.0330   23.4660   38.6740 C   0  0  0  0  0  0  0  0  0  0  0  0
   39.3760   23.3740   39.7080 H   0  0  0  0  0  0  0  0  0  0  0  0
   38.0120   24.3600   38.5370 N   0  0  0  0  0  0  0  0  0  0  0  0
   37.5090   24.5520   37.2900 C   0  0  0  0  0  3  0  0  0  0  0  0
   38.0360   23.8650   36.2840 N   0  0  0  0  0  0  0  0  0  0  0  0
  2  7  1  0  0  0  0
  2  1  1  0  0  0  0
  3  2  2  0  0  0  0
  4  5  2  0  0  0  0
  4  3  1  0  0  0  0
  5  6  1  0  0  0  0
  6 10  1  0  0  0  0
  6  7  2  0  0  0  0
  7 20  1  0  0  0  0
  8  4  1  0  0  0  0
  9  5  1  0  0  0  0
 11 17  1  0  0  0  0
 12  3  1  0  0  0  0
 12 11  2  0  0  0  0
 13 12  1  0  0  0  0
 14 13  2  0  0  0  0
 14 15  1  0  0  0  0
 15 16  2  0  0  0  0
 16 11  1  0  0  0  0
 18 13  1  0  0  0  0
 19 15  1  0  0  0  0
 20 21  1  0  0  0  0
 20 22  1  0  0  0  0
 22 25  1  0  0  0  0
 22 27  1  0  0  0  0
 23 22  1  0  0  0  0
 24 23  1  0  0  0  0
 26 25  1  0  0  0  0
 27 28  1  0  0  0  0
 28 29  1  0  0  0  0
 29 30  2  0  0  0  0
 30 31  1  0  0  0  0
 32 30  1  0  0  0  0
 33 32  2  0  0  0  0
 34 28  2  0  0  0  0
 34 33  1  0  0  0  0
M  END
>  <minimizedAffinity>
-5.43025827

$$$$

 OpenBabel03262521063D

 34 36  0  0  0  0  0  0  0  0999 V2000
   35.4080   29.9590   34.5190 Br  0  0  0  0  0  0  0  0  0  0  0  0
   36.2440   29.1270   33.0510 C   0  0  0  0  0  0  0  0  0  0  0  0
   36.1820   29.8010   31.8670 C   0  0  0  0  0  0  0  0  0  0  0  0
   36.7760   29.2500   30.7320 C   0  0  0  0  0  0  0  0  0  0  0  0
   37.4240   28.0230   30.8210 C   0  0  0  0  0  0  0  0  0  0  0  0
   37.4480   27.4050   32.0300 C   0  0  0  0  0  0  0  0  0  0  0  0
   36.8700   27.9270   33.1640 C   0  0  0  0  0  0  0  0  0  0  0  0
   36.7710   29.7200   29.7630 H   0  0  0  0  0  0  0  0  0  0  0  0
   37.8960   27.5590   29.9770 H   0  0  0  0  0  0  0  0  0  0  0  0
   37.9500   26.4500   32.1080 H   0  0  0  0  0  0  0  0  0  0  0  0
   36.1870   32.3260   31.6710 C   0  0  0  0  0  0  0  0  0  0  0  0
   35.5410   31.0970   31.6070 C   0  0  0  0  0  0  0  0  0  0  0  0
   34.1570   31.0930   31.2650 C   0  0  0  0  0  0  0  0  0  0  0  0
   33.5640   32.3060   31.0240 N   0  0  0  0  0  0  0  0  0  0  0  0
   34.2480   33.4590   31.1030 C   0  0  0  0  0  0  0  0  0  0  0  0
   35.5520   33.4740   31.4250 N   0  0  0  0  0  0  0  0  0  0  0  0
   37.2350   32.2750   31.9340 H   0  0  0  0  0  0  0  0  0  0  0  0
   33.5960   30.1830   31.1970 H   0  0  0  0  0  0  0  0  0  0  0  0
   33.7380   34.3940   30.9040 H   0  0  0  0  0  0  0  0  0  0  0  0
   36.8910   27.2920   34.4240 N   0  0  0  0  0  0  0  0  0  0  0  0
   35.9310   27.2310   34.8580 H   0  0  0  0  0  0  0  0  0  0  0  0
   38.1140   26.6120   35.3830 S   0  0  0  0  0  0  0  0  0  0  0  0
   38.5900   27.5960   36.4130 O   0  0  0  0  0  0  0  0  0  0  0  0
   37.9750   28.2320   36.8540 H   0  0  0  0  0  0  0  0  0  0  0  0
   39.3050   26.2760   34.5140 O   0  0  0  0  0  0  0  0  0  0  0  0
   40.1780   26.7050   34.4740 H   0  0  0  0  0  0  0  0  0  0  0  0
   37.5300   25.2260   36.1370 O   0  0  0  0  0  0  0  0  0  0  0  0
   38.4660   24.3510   36.6790 C   0  0  0  0  0  0  0  0  0  0  0  0
   38.3340   23.9870   38.0150 C   0  0  0  0  0  3  0  0  0  0  0  0
   39.3030   23.1110   38.4930 C   0  0  0  0  0  0  0  0  0  0  0  0
   39.3170   22.7460   39.5230 H   0  0  0  0  0  0  0  0  0  0  0  0
   40.3300   22.6140   37.7450 N   0  0  0  0  0  0  0  0  0  0  0  0
   40.4090   23.0050   36.4470 C   0  0  0  0  0  3  0  0  0  0  0  0
   39.4880   23.8410   35.9840 N   0  0  0  0  0  0  0  0  0  0  0  0
  2  7  1  0  0  0  0
  2  1  1  0  0  0  0
  3  2  2  0  0  0  0
  4  5  2  0  0  0  0
  4  3  1  0  0  0  0
  5  6  1  0  0  0  0
  6 10  1  0  0  0  0
  6  7  2  0  0  0  0
  7 20  1  0  0  0  0
  8  4  1  0  0  0  0
  9  5  1  0  0  0  0
 11 17  1  0  0  0  0
 12 11  1  0  0  0  0
 12  3  1  0  0  0  0
 13 12  2  0  0  0  0
 14 15  2  0  0  0  0
 14 13  1  0  0  0  0
 15 16  1  0  0  0  0
 16 11  2  0  0  0  0
 18 13  1  0  0  0  0
 19 15  1  0  0  0  0
 20 21  1  0  0  0  0
 20 22  1  0  0  0  0
 22 27  1  0  0  0  0
 22 23  1  0  0  0  0
 23 24  1  0  0  0  0
 25 22  1  0  0  0  0
 26 25  1  0  0  0  0
 27 28  1  0  0  0  0
 28 29  1  0  0  0  0
 29 30  2  0  0  0  0
 30 31  1  0  0  0  0
 32 30  1  0  0  0  0
 33 32  2  0  0  0  0
 34 33  1  0  0  0  0
 34 28  2  0  0  0  0
M  END
>  <minimizedAffinity>
-5.35332394

$$$$

 OpenBabel03262521063D

 34 36  0  0  0  0  0  0  0  0999 V2000
   38.4700   27.0220   35.1500 Br  0  0  0  0  0  0  0  0  0  0  0  0
   37.9980   25.6680   33.9280 C   0  0  0  0  0  0  0  0  0  0  0  0
   38.0640   24.3890   34.3980 C   0  0  0  0  0  0  0  0  0  0  0  0
   37.7310   23.3300   33.5540 C   0  0  0  0  0  0  0  0  0  0  0  0
   37.3360   23.5910   32.2470 C   0  0  0  0  0  0  0  0  0  0  0  0
   37.2930   24.8860   31.8430 C   0  0  0  0  0  0  0  0  0  0  0  0
   37.6160   25.9480   32.6550 C   0  0  0  0  0  0  0  0  0  0  0  0
   37.7570   22.2960   33.8490 H   0  0  0  0  0  0  0  0  0  0  0  0
   37.0700   22.8100   31.5600 H   0  0  0  0  0  0  0  0  0  0  0  0
   36.9860   25.0970   30.8270 H   0  0  0  0  0  0  0  0  0  0  0  0
   37.6440   24.0110   36.8660 C   0  0  0  0  0  0  0  0  0  0  0  0
   38.4590   23.9490   35.7430 C   0  0  0  0  0  0  0  0  0  0  0  0
   39.7730   23.4200   35.9060 C   0  0  0  0  0  0  0  0  0  0  0  0
   40.1360   23.0110   37.1630 N   0  0  0  0  0  0  0  0  0  0  0  0
   39.2960   23.0980   38.2080 C   0  0  0  0  0  0  0  0  0  0  0  0
   38.0570   23.5950   38.0660 N   0  0  0  0  0  0  0  0  0  0  0  0
   36.6570   24.4200   36.6900 H   0  0  0  0  0  0  0  0  0  0  0  0
   40.4550   23.3420   35.0830 H   0  0  0  0  0  0  0  0  0  0  0  0
   39.6270   22.7630   39.1840 H   0  0  0  0  0  0  0  0  0  0  0  0
   37.5730   27.2980   32.2440 N   0  0  0  0  0  0  0  0  0  0  0  0
   38.3870   27.8560   32.6170 H   0  0  0  0  0  0  0  0  0  0  0  0
   36.5050   28.2080   31.2910 S   0  0  0  0  0  0  0  0  0  0  0  0
   36.3940   27.6230   29.9120 O   0  0  0  0  0  0  0  0  0  0  0  0
   36.4190   26.6470   29.7530 H   0  0  0  0  0  0  0  0  0  0  0  0
   37.0460   29.6110   31.1290 O   0  0  0  0  0  0  0  0  0  0  0  0
   37.4230   30.0380   30.3400 H   0  0  0  0  0  0  0  0  0  0  0  0
   34.9920   28.2450   32.0240 O   0  0  0  0  0  0  0  0  0  0  0  0
   34.8250   29.1110   33.1000 C   0  0  0  0  0  0  0  0  0  0  0  0
   33.5530   29.6160   33.3500 C   0  0  0  0  0  3  0  0  0  0  0  0
   33.4560   30.4750   34.4400 C   0  0  0  0  0  0  0  0  0  0  0  0
   32.5170   30.9420   34.7460 H   0  0  0  0  0  0  0  0  0  0  0  0
   34.5040   30.8290   35.2390 N   0  0  0  0  0  0  0  0  0  0  0  0
   35.7220   30.3040   34.9470 C   0  0  0  0  0  3  0  0  0  0  0  0
   35.8230   29.4840   33.9090 N   0  0  0  0  0  0  0  0  0  0  0  0
  2  3  1  0  0  0  0
  2  1  1  0  0  0  0
  3 12  1  0  0  0  0
  4  8  1  0  0  0  0
  4  3  2  0  0  0  0
  5  4  1  0  0  0  0
  6  5  2  0  0  0  0
  6  7  1  0  0  0  0
  7  2  2  0  0  0  0
  9  5  1  0  0  0  0
 10  6  1  0  0  0  0
 11 16  1  0  0  0  0
 12 13  1  0  0  0  0
 12 11  2  0  0  0  0
 13 14  2  0  0  0  0
 14 15  1  0  0  0  0
 15 19  1  0  0  0  0
 16 15  2  0  0  0  0
 17 11  1  0  0  0  0
 18 13  1  0  0  0  0
 20 21  1  0  0  0  0
 20  7  1  0  0  0  0
 22 27  1  0  0  0  0
 22 20  1  0  0  0  0
 23 22  1  0  0  0  0
 24 23  1  0  0  0  0
 25 22  1  0  0  0  0
 26 25  1  0  0  0  0
 27 28  1  0  0  0  0
 28 29  2  0  0  0  0
 28 34  1  0  0  0  0
 29 30  1  0  0  0  0
 30 31  1  0  0  0  0
 30 32  2  0  0  0  0
 33 32  1  0  0  0  0
 34 33  2  0  0  0  0
M  END
>  <minimizedAffinity>
-5.26585054

$$$$

 OpenBabel03262521063D

 34 36  0  0  0  0  0  0  0  0999 V2000
   36.5220   27.8990   34.5130 Br  0  0  0  0  0  0  0  0  0  0  0  0
   36.2580   28.9680   32.9850 C   0  0  0  0  0  0  0  0  0  0  0  0
   35.5980   30.1450   33.1850 C   0  0  0  0  0  0  0  0  0  0  0  0
   35.3630   30.9930   32.1030 C   0  0  0  0  0  0  0  0  0  0  0  0
   35.8040   30.6280   30.8360 C   0  0  0  0  0  0  0  0  0  0  0  0
   36.4530   29.4440   30.7060 C   0  0  0  0  0  0  0  0  0  0  0  0
   36.6980   28.5900   31.7570 C   0  0  0  0  0  0  0  0  0  0  0  0
   34.8510   31.9360   32.1800 H   0  0  0  0  0  0  0  0  0  0  0  0
   35.6460   31.2470   29.9730 H   0  0  0  0  0  0  0  0  0  0  0  0
   36.7990   29.1530   29.7230 H   0  0  0  0  0  0  0  0  0  0  0  0
   33.7850   30.4520   34.9260 C   0  0  0  0  0  0  0  0  0  0  0  0
   35.0720   30.6720   34.4520 C   0  0  0  0  0  0  0  0  0  0  0  0
   35.9470   31.4650   35.2510 C   0  0  0  0  0  0  0  0  0  0  0  0
   35.4510   31.9540   36.4320 N   0  0  0  0  0  0  0  0  0  0  0  0
   34.1930   31.7030   36.8330 C   0  0  0  0  0  0  0  0  0  0  0  0
   33.3610   30.9580   36.0870 N   0  0  0  0  0  0  0  0  0  0  0  0
   33.1610   29.8450   34.2830 H   0  0  0  0  0  0  0  0  0  0  0  0
   36.9530   31.6740   34.9480 H   0  0  0  0  0  0  0  0  0  0  0  0
   33.8450   32.1110   37.7740 H   0  0  0  0  0  0  0  0  0  0  0  0
   37.3730   27.3570   31.6310 N   0  0  0  0  0  0  0  0  0  0  0  0
   38.3930   27.4290   31.8920 H   0  0  0  0  0  0  0  0  0  0  0  0
   36.9030   25.7970   31.1560 S   0  0  0  0  0  0  0  0  0  0  0  0
   37.8660   25.2360   30.1500 O   0  0  0  0  0  0  0  0  0  0  0  0
   38.8370   25.4180   30.1950 H   0  0  0  0  0  0  0  0  0  0  0  0
   35.5520   25.8640   30.4800 O   0  0  0  0  0  0  0  0  0  0  0  0
   35.3280   25.7450   29.5400 H   0  0  0  0  0  0  0  0  0  0  0  0
   36.8320   24.7970   32.5070 O   0  0  0  0  0  0  0  0  0  0  0  0
   36.7180   23.4290   32.2830 C   0  0  0  0  0  0  0  0  0  0  0  0
   37.5080   22.5680   33.0370 C   0  0  0  0  0  3  0  0  0  0  0  0
   37.3440   21.2140   32.7620 C   0  0  0  0  0  0  0  0  0  0  0  0
   37.9030   20.4310   33.2810 H   0  0  0  0  0  0  0  0  0  0  0  0
   36.4820   20.7140   31.8300 N   0  0  0  0  0  0  0  0  0  0  0  0
   35.7360   21.6030   31.1240 C   0  0  0  0  0  3  0  0  0  0  0  0
   35.8870   22.8960   31.3800 N   0  0  0  0  0  0  0  0  0  0  0  0
  2  3  1  0  0  0  0
  2  1  1  0  0  0  0
  3 12  1  0  0  0  0
  4  8  1  0  0  0  0
  4  3  2  0  0  0  0
  5  4  1  0  0  0  0
  6  5  2  0  0  0  0
  6  7  1  0  0  0  0
  7  2  2  0  0  0  0
  9  5  1  0  0  0  0
 10  6  1  0  0  0  0
 11 16  1  0  0  0  0
 12 11  2  0  0  0  0
 12 13  1  0  0  0  0
 13 14  2  0  0  0  0
 14 15  1  0  0  0  0
 15 19  1  0  0  0  0
 16 15  2  0  0  0  0
 17 11  1  0  0  0  0
 18 13  1  0  0  0  0
 20  7  1  0  0  0  0
 20 21  1  0  0  0  0
 22 20  1  0  0  0  0
 22 27  1  0  0  0  0
 23 24  1  0  0  0  0
 23 22  1  0  0  0  0
 25 22  1  0  0  0  0
 26 25  1  0  0  0  0
 28 27  1  0  0  0  0
 28 29  1  0  0  0  0
 30 29  2  0  0  0  0
 30 31  1  0  0  0  0
 32 30  1  0  0  0  0
 33 34  1  0  0  0  0
 33 32  2  0  0  0  0
 34 28  2  0  0  0  0
M  END
>  <minimizedAffinity>
-5.25106001

$$$$

 OpenBabel03262521063D

 34 36  0  0  0  0  0  0  0  0999 V2000
   38.9300   23.8430   33.1710 Br  0  0  0  0  0  0  0  0  0  0  0  0
   38.4860   25.3870   34.1520 C   0  0  0  0  0  0  0  0  0  0  0  0
   38.8310   25.3780   35.4710 C   0  0  0  0  0  0  0  0  0  0  0  0
   38.5360   26.4850   36.2660 C   0  0  0  0  0  0  0  0  0  0  0  0
   37.8940   27.5830   35.7050 C   0  0  0  0  0  0  0  0  0  0  0  0
   37.5780   27.5270   34.3860 C   0  0  0  0  0  0  0  0  0  0  0  0
   37.8580   26.4480   33.5800 C   0  0  0  0  0  0  0  0  0  0  0  0
   38.7760   26.5530   37.3130 H   0  0  0  0  0  0  0  0  0  0  0  0
   37.6460   28.4570   36.2750 H   0  0  0  0  0  0  0  0  0  0  0  0
   37.0780   28.3780   33.9420 H   0  0  0  0  0  0  0  0  0  0  0  0
   38.9410   23.5810   37.2530 C   0  0  0  0  0  0  0  0  0  0  0  0
   39.5090   24.3040   36.2110 C   0  0  0  0  0  0  0  0  0  0  0  0
   40.8450   23.9830   35.8330 C   0  0  0  0  0  0  0  0  0  0  0  0
   41.4720   22.9800   36.5260 N   0  0  0  0  0  0  0  0  0  0  0  0
   40.8640   22.3190   37.5250 C   0  0  0  0  0  0  0  0  0  0  0  0
   39.6060   22.6150   37.8900 N   0  0  0  0  0  0  0  0  0  0  0  0
   37.9260   23.8630   37.5020 H   0  0  0  0  0  0  0  0  0  0  0  0
   41.3460   24.4990   35.0380 H   0  0  0  0  0  0  0  0  0  0  0  0
   41.3990   21.5340   38.0460 H   0  0  0  0  0  0  0  0  0  0  0  0
   37.5330   26.3810   32.2080 N   0  0  0  0  0  0  0  0  0  0  0  0
   38.3640   26.1220   31.6120 H   0  0  0  0  0  0  0  0  0  0  0  0
   36.1080   26.6260   31.3200 S   0  0  0  0  0  0  0  0  0  0  0  0
   36.4230   27.1260   29.9400 O   0  0  0  0  0  0  0  0  0  0  0  0
   37.2180   26.8190   29.4380 H   0  0  0  0  0  0  0  0  0  0  0  0
   35.2730   27.6910   31.9930 O   0  0  0  0  0  0  0  0  0  0  0  0
   35.0910   28.6020   31.7060 H   0  0  0  0  0  0  0  0  0  0  0  0
   35.2510   25.1810   31.2270 O   0  0  0  0  0  0  0  0  0  0  0  0
   35.9850   24.0140   31.0420 C   0  0  0  0  0  0  0  0  0  0  0  0
   35.4930   22.8310   31.5830 C   0  0  0  0  0  3  0  0  0  0  0  0
   36.2760   21.7020   31.3610 C   0  0  0  0  0  0  0  0  0  0  0  0
   36.0060   20.7100   31.7310 H   0  0  0  0  0  0  0  0  0  0  0  0
   37.4510   21.7030   30.6680 N   0  0  0  0  0  0  0  0  0  0  0  0
   37.8820   22.8870   30.1630 C   0  0  0  0  0  3  0  0  0  0  0  0
   37.1420   23.9680   30.3700 N   0  0  0  0  0  0  0  0  0  0  0  0
  1  2  1  0  0  0  0
  2  3  1  0  0  0  0
  3 12  1  0  0  0  0
  3  4  2  0  0  0  0
  4  8  1  0  0  0  0
  5  4  1  0  0  0  0
  5  9  1  0  0  0  0
  6  5  2  0  0  0  0
  7  2  2  0  0  0  0
  7  6  1  0  0  0  0
 10  6  1  0  0  0  0
 11 17  1  0  0  0  0
 11 16  1  0  0  0  0
 12 11  2  0  0  0  0
 13 12  1  0  0  0  0
 13 14  2  0  0  0  0
 14 15  1  0  0  0  0
 15 16  2  0  0  0  0
 15 19  1  0  0  0  0
 18 13  1  0  0  0  0
 20  7  1  0  0  0  0
 21 20  1  0  0  0  0
 22 25  1  0  0  0  0
 22 20  1  0  0  0  0
 23 22  1  0  0  0  0
 24 23  1  0  0  0  0
 26 25  1  0  0  0  0
 27 22  1  0  0  0  0
 28 27  1  0  0  0  0
 28 29  1  0  0  0  0
 30 29  2  0  0  0  0
 30 31  1  0  0  0  0
 32 30  1  0  0  0  0
 33 34  1  0  0  0  0
 33 32  2  0  0  0  0
 34 28  2  0  0  0  0
M  END
>  <minimizedAffinity>
-5.2480793

$$$$

 OpenBabel03262521063D

 34 36  0  0  0  0  0  0  0  0999 V2000
   34.2220   29.4830   33.1730 Br  0  0  0  0  0  0  0  0  0  0  0  0
   35.3820   30.8160   32.5230 C   0  0  0  0  0  0  0  0  0  0  0  0
   35.5400   31.9120   33.3190 C   0  0  0  0  0  0  0  0  0  0  0  0
   36.3830   32.9440   32.9080 C   0  0  0  0  0  0  0  0  0  0  0  0
   37.0510   32.8430   31.6930 C   0  0  0  0  0  0  0  0  0  0  0  0
   36.8500   31.7260   30.9490 C   0  0  0  0  0  0  0  0  0  0  0  0
   36.0240   30.6940   31.3320 C   0  0  0  0  0  0  0  0  0  0  0  0
   36.5590   33.8390   33.4790 H   0  0  0  0  0  0  0  0  0  0  0  0
   37.7100   33.6100   31.3340 H   0  0  0  0  0  0  0  0  0  0  0  0
   37.3660   31.6400   30.0020 H   0  0  0  0  0  0  0  0  0  0  0  0
   33.6620   32.7570   34.7940 C   0  0  0  0  0  0  0  0  0  0  0  0
   34.9100   32.1700   34.6210 C   0  0  0  0  0  0  0  0  0  0  0  0
   35.6320   31.7910   35.7910 C   0  0  0  0  0  0  0  0  0  0  0  0
   35.0390   32.0340   37.0030 N   0  0  0  0  0  0  0  0  0  0  0  0
   33.8270   32.6060   37.1000 C   0  0  0  0  0  0  0  0  0  0  0  0
   33.1400   32.9670   36.0050 N   0  0  0  0  0  0  0  0  0  0  0  0
   33.1560   33.0270   33.8770 H   0  0  0  0  0  0  0  0  0  0  0  0
   36.5990   31.3330   35.7320 H   0  0  0  0  0  0  0  0  0  0  0  0
   33.3990   32.7790   38.0800 H   0  0  0  0  0  0  0  0  0  0  0  0
   35.8090   29.5290   30.5650 N   0  0  0  0  0  0  0  0  0  0  0  0
   34.8100   29.4430   30.2390 H   0  0  0  0  0  0  0  0  0  0  0  0
   36.8020   28.2490   30.0600 S   0  0  0  0  0  0  0  0  0  0  0  0
   37.1110   28.3630   28.5950 O   0  0  0  0  0  0  0  0  0  0  0  0
   37.2470   29.2380   28.1540 H   0  0  0  0  0  0  0  0  0  0  0  0
   36.0710   26.9390   30.2530 O   0  0  0  0  0  0  0  0  0  0  0  0
   35.6980   26.3380   29.5840 H   0  0  0  0  0  0  0  0  0  0  0  0
   38.2280   28.2600   30.9520 O   0  0  0  0  0  0  0  0  0  0  0  0
   38.2170   27.6090   32.1810 C   0  0  0  0  0  0  0  0  0  0  0  0
   39.3900   27.0010   32.6170 C   0  0  0  0  0  3  0  0  0  0  0  0
   39.3100   26.3680   33.8530 C   0  0  0  0  0  0  0  0  0  0  0  0
   40.1570   25.8510   34.3120 H   0  0  0  0  0  0  0  0  0  0  0  0
   38.1840   26.3180   34.6240 N   0  0  0  0  0  0  0  0  0  0  0  0
   37.0690   26.9300   34.1470 C   0  0  0  0  0  3  0  0  0  0  0  0
   37.1380   27.5360   32.9680 N   0  0  0  0  0  0  0  0  0  0  0  0
  2  1  1  0  0  0  0
  2  3  1  0  0  0  0
  3 12  1  0  0  0  0
  4  3  2  0  0  0  0
  4  8  1  0  0  0  0
  5  4  1  0  0  0  0
  6  7  1  0  0  0  0
  6  5  2  0  0  0  0
  7  2  2  0  0  0  0
  9  5  1  0  0  0  0
 10  6  1  0  0  0  0
 11 16  1  0  0  0  0
 12 11  2  0  0  0  0
 12 13  1  0  0  0  0
 13 14  2  0  0  0  0
 14 15  1  0  0  0  0
 15 19  1  0  0  0  0
 16 15  2  0  0  0  0
 17 11  1  0  0  0  0
 18 13  1  0  0  0  0
 20  7  1  0  0  0  0
 21 20  1  0  0  0  0
 22 25  1  0  0  0  0
 22 20  1  0  0  0  0
 22 27  1  0  0  0  0
 23 22  1  0  0  0  0
 24 23  1  0  0  0  0
 26 25  1  0  0  0  0
 27 28  1  0  0  0  0
 28 29  2  0  0  0  0
 28 34  1  0  0  0  0
 29 30  1  0  0  0  0
 30 31  1  0  0  0  0
 30 32  2  0  0  0  0
 33 32  1  0  0  0  0
 34 33  2  0  0  0  0
M  END
>  <minimizedAffinity>
-5.22896576

$$$$

 OpenBabel03262521063D

 34 36  0  0  0  0  0  0  0  0999 V2000
   38.0090   23.5710   33.3890 Br  0  0  0  0  0  0  0  0  0  0  0  0
   37.9290   25.2450   34.2470 C   0  0  0  0  0  0  0  0  0  0  0  0
   38.5750   25.3350   35.4450 C   0  0  0  0  0  0  0  0  0  0  0  0
   38.5610   26.5430   36.1430 C   0  0  0  0  0  0  0  0  0  0  0  0
   37.8900   27.6370   35.6100 C   0  0  0  0  0  0  0  0  0  0  0  0
   37.2670   27.4790   34.4140 C   0  0  0  0  0  0  0  0  0  0  0  0
   37.2660   26.3010   33.7060 C   0  0  0  0  0  0  0  0  0  0  0  0
   39.0460   26.6930   37.0920 H   0  0  0  0  0  0  0  0  0  0  0  0
   37.8510   28.5860   36.1090 H   0  0  0  0  0  0  0  0  0  0  0  0
   36.7430   28.3270   33.9930 H   0  0  0  0  0  0  0  0  0  0  0  0
   40.5820   23.8240   35.7640 C   0  0  0  0  0  0  0  0  0  0  0  0
   39.3240   24.2790   36.1400 C   0  0  0  0  0  0  0  0  0  0  0  0
   38.7160   23.6800   37.2810 C   0  0  0  0  0  0  0  0  0  0  0  0
   39.4190   22.6950   37.9250 N   0  0  0  0  0  0  0  0  0  0  0  0
   40.6350   22.3010   37.5080 C   0  0  0  0  0  0  0  0  0  0  0  0
   41.2160   22.8590   36.4340 N   0  0  0  0  0  0  0  0  0  0  0  0
   40.9990   24.3110   34.8920 H   0  0  0  0  0  0  0  0  0  0  0  0
   37.7480   23.9810   37.6280 H   0  0  0  0  0  0  0  0  0  0  0  0
   41.1530   21.5190   38.0490 H   0  0  0  0  0  0  0  0  0  0  0  0
   36.6220   26.1270   32.4620 N   0  0  0  0  0  0  0  0  0  0  0  0
   35.6260   25.7980   32.5690 H   0  0  0  0  0  0  0  0  0  0  0  0
   37.1010   26.3320   30.8470 S   0  0  0  0  0  0  0  0  0  0  0  0
   36.0590   27.0900   30.0770 O   0  0  0  0  0  0  0  0  0  0  0  0
   35.5320   27.8210   30.4850 H   0  0  0  0  0  0  0  0  0  0  0  0
   37.2350   24.9780   30.1870 O   0  0  0  0  0  0  0  0  0  0  0  0
   36.6700   24.5650   29.5110 H   0  0  0  0  0  0  0  0  0  0  0  0
   38.5670   27.1550   30.7970 O   0  0  0  0  0  0  0  0  0  0  0  0
   39.6900   26.4880   31.2740 C   0  0  0  0  0  0  0  0  0  0  0  0
   40.4440   27.0950   32.2730 C   0  0  0  0  0  3  0  0  0  0  0  0
   41.5530   26.3740   32.7040 C   0  0  0  0  0  0  0  0  0  0  0  0
   42.2300   26.7350   33.4830 H   0  0  0  0  0  0  0  0  0  0  0  0
   41.9200   25.1550   32.2130 N   0  0  0  0  0  0  0  0  0  0  0  0
   41.1460   24.6120   31.2380 C   0  0  0  0  0  3  0  0  0  0  0  0
   40.0860   25.2930   30.8220 N   0  0  0  0  0  0  0  0  0  0  0  0
  1  2  1  0  0  0  0
  2  3  1  0  0  0  0
  3 12  1  0  0  0  0
  3  4  2  0  0  0  0
  4  8  1  0  0  0  0
  5  9  1  0  0  0  0
  5  4  1  0  0  0  0
  6  5  2  0  0  0  0
  7  2  2  0  0  0  0
  7  6  1  0  0  0  0
 10  6  1  0  0  0  0
 11 12  2  0  0  0  0
 11 16  1  0  0  0  0
 12 13  1  0  0  0  0
 13 18  1  0  0  0  0
 13 14  2  0  0  0  0
 15 14  1  0  0  0  0
 15 19  1  0  0  0  0
 16 15  2  0  0  0  0
 17 11  1  0  0  0  0
 20 21  1  0  0  0  0
 20  7  1  0  0  0  0
 22 20  1  0  0  0  0
 23 24  1  0  0  0  0
 23 22  1  0  0  0  0
 25 22  1  0  0  0  0
 26 25  1  0  0  0  0
 27 22  1  0  0  0  0
 27 28  1  0  0  0  0
 28 29  1  0  0  0  0
 29 30  2  0  0  0  0
 30 31  1  0  0  0  0
 32 30  1  0  0  0  0
 33 32  2  0  0  0  0
 34 33  1  0  0  0  0
 34 28  2  0  0  0  0
M  END
>  <minimizedAffinity>
-5.19741154

$$$$
