
 OpenBabel03272500043D

 27 29  0  0  0  0  0  0  0  0999 V2000
   35.4720   28.8290   49.2180 C   0  0  0  0  0  0  0  0  0  0  0  0
   35.3550   30.0130   48.4660 C   0  0  0  0  0  0  0  0  0  0  0  0
   34.2520   30.1480   47.6470 C   0  0  0  0  0  0  0  0  0  0  0  0
   33.3320   29.1550   47.5910 N   0  0  0  0  0  0  0  0  0  0  0  0
   33.4630   28.0330   48.3170 C   0  0  0  0  0  0  0  0  0  0  0  0
   34.5310   27.8590   49.1340 N   0  0  0  0  0  0  0  0  0  0  0  0
   36.3260   28.6940   49.8690 H   0  0  0  0  0  0  0  0  0  0  0  0
   34.1590   31.0500   47.0710 H   0  0  0  0  0  0  0  0  0  0  0  0
   36.3890   30.9940   48.6040 N   0  0  0  0  0  0  0  0  0  0  0  0
   36.5570   31.6900   49.7460 C   0  0  0  0  0  0  0  0  0  0  0  0
   37.5780   32.6320   49.8290 C   0  0  0  0  0  0  0  0  0  0  0  0
   38.3370   32.7630   48.6970 C   0  0  0  0  0  0  0  0  0  0  0  0
   39.2710   33.6160   48.7500 O   0  0  0  0  0  0  0  0  0  0  0  0
   38.1860   32.0830   47.5520 N   0  0  0  0  0  0  0  0  0  0  0  0
   37.1780   31.1750   47.5200 C   0  0  0  0  0  0  0  0  0  0  0  0
   37.0290   30.5280   46.4440 O   0  0  0  0  0  0  0  0  0  0  0  0
   35.9080   31.5210   50.5950 H   0  0  0  0  0  0  0  0  0  0  0  0
   37.7610   33.2170   50.7110 H   0  0  0  0  0  0  0  0  0  0  0  0
   38.7910   32.2260   46.7310 H   0  0  0  0  0  0  0  0  0  0  0  0
   32.5460   26.9890   48.2930 O   0  0  0  0  0  0  0  0  0  0  0  0
   31.1790   27.2000   48.5100 C   0  0  0  0  0  0  0  0  0  0  0  0
   30.3130   26.7300   47.5450 C   0  0  0  0  0  3  0  0  0  0  0  0
   28.9810   26.9610   47.8010 C   0  0  0  0  0  0  0  0  0  0  0  0
   28.2400   26.6220   47.0900 H   0  0  0  0  0  0  0  0  0  0  0  0
   28.5150   27.6000   48.9100 N   0  0  0  0  0  0  0  0  0  0  0  0
   29.4160   28.0410   49.8270 C   0  0  0  0  0  3  0  0  0  0  0  0
   30.7330   27.8390   49.6210 N   0  0  0  0  0  0  0  0  0  0  0  0
  1  7  1  0  0  0  0
  2  9  1  0  0  0  0
  2  1  2  0  0  0  0
  3  2  1  0  0  0  0
  4  3  2  0  0  0  0
  4  5  1  0  0  0  0
  5  6  2  0  0  0  0
  6  1  1  0  0  0  0
  8  3  1  0  0  0  0
  9 10  1  0  0  0  0
 10 11  2  0  0  0  0
 10 17  1  0  0  0  0
 11 18  1  0  0  0  0
 12 13  2  0  0  0  0
 12 11  1  0  0  0  0
 14 12  1  0  0  0  0
 15 14  1  0  0  0  0
 15  9  1  0  0  0  0
 16 15  2  0  0  0  0
 19 14  1  0  0  0  0
 20  5  1  0  0  0  0
 20 21  1  0  0  0  0
 21 27  1  0  0  0  0
 22 23  1  0  0  0  0
 22 21  2  0  0  0  0
 23 25  2  0  0  0  0
 24 23  1  0  0  0  0
 25 26  1  0  0  0  0
 27 26  2  0  0  0  0
M  END
>  <minimizedAffinity>
-5.6936903

>  <minimizedRMSD>
1.52767813

$$$$
