
 OpenBabel03272505023D

 27 29  0  0  0  0  0  0  0  0999 V2000
   38.1270   30.3890   46.9880 Cl  0  0  0  0  0  0  0  0  0  0  0  0
   38.6120   31.8880   47.7810 C   0  0  0  0  0  0  0  0  0  0  0  0
   38.2070   32.0920   49.0740 C   0  0  0  0  0  0  0  0  0  0  0  0
   38.6430   33.2850   49.6350 C   0  0  0  0  0  0  0  0  0  0  0  0
   39.4280   34.1690   48.9040 C   0  0  0  0  0  0  0  0  0  0  0  0
   39.7970   33.9090   47.6270 C   0  0  0  0  0  0  0  0  0  0  0  0
   39.3780   32.7270   47.0330 C   0  0  0  0  0  0  0  0  0  0  0  0
   38.3550   33.5070   50.6580 H   0  0  0  0  0  0  0  0  0  0  0  0
   39.7290   35.0810   49.4160 H   0  0  0  0  0  0  0  0  0  0  0  0
   40.4100   34.6390   47.1130 H   0  0  0  0  0  0  0  0  0  0  0  0
   37.9310   30.4560   50.9280 C   0  0  0  0  0  0  0  0  0  0  0  0
   37.3790   31.1620   49.8470 C   0  0  0  0  0  0  0  0  0  0  0  0
   36.0520   30.9690   49.5240 C   0  0  0  0  0  0  0  0  0  0  0  0
   35.3420   30.0910   50.2820 N   0  0  0  0  0  0  0  0  0  0  0  0
   35.8650   29.4220   51.3050 C   0  0  0  0  0  0  0  0  0  0  0  0
   37.1500   29.6010   51.6270 N   0  0  0  0  0  0  0  0  0  0  0  0
   38.9610   30.5770   51.2130 H   0  0  0  0  0  0  0  0  0  0  0  0
   35.6830   31.5330   48.6910 H   0  0  0  0  0  0  0  0  0  0  0  0
   35.1260   28.7840   51.7640 H   0  0  0  0  0  0  0  0  0  0  0  0
   39.7690   32.4930   45.7380 O   0  0  0  0  0  0  0  0  0  0  0  0
   39.0030   32.6160   44.6050 C   0  0  0  0  0  0  0  0  0  0  0  0
   37.6690   32.4020   44.3310 C   0  0  0  0  0  0  0  0  0  0  0  0
   37.1730   32.6160   43.0750 C   0  0  0  0  0  0  0  0  0  0  0  0
   36.1170   32.4260   42.9350 H   0  0  0  0  0  0  0  0  0  0  0  0
   37.9470   33.0360   42.0680 N   0  0  0  0  0  0  0  0  0  0  0  0
   39.2590   33.2470   42.3380 C   0  0  0  0  0  0  0  0  0  0  0  0
   39.7900   33.0470   43.5740 N   0  0  0  0  0  0  0  0  0  0  0  0
  1  2  1  0  0  0  0
  2  3  1  0  0  0  0
  3  4  2  0  0  0  0
  3 12  1  0  0  0  0
  4  8  1  0  0  0  0
  5  9  1  0  0  0  0
  5  4  1  0  0  0  0
  6  5  2  0  0  0  0
  7  6  1  0  0  0  0
  7  2  2  0  0  0  0
 10  6  1  0  0  0  0
 11 17  1  0  0  0  0
 11 16  1  0  0  0  0
 12 11  2  0  0  0  0
 13 12  1  0  0  0  0
 13 14  2  0  0  0  0
 14 15  1  0  0  0  0
 15 16  2  0  0  0  0
 15 19  1  0  0  0  0
 18 13  1  0  0  0  0
 20  7  1  0  0  0  0
 21 20  1  0  0  0  0
 22 21  1  0  0  0  0
 23 22  2  0  0  0  0
 24 23  1  0  0  0  0
 25 26  2  0  0  0  0
 25 23  1  0  0  0  0
 26 27  1  0  0  0  0
 27 21  2  0  0  0  0
M  END
>  <minimizedAffinity>
-6.21110964

>  <minimizedRMSD>
0.461028606

$$$$
