
 OpenBabel03272507063D

 29 32  0  0  0  0  0  0  0  0999 V2000
   37.0410   27.8120   31.8350 C   0  0  0  0  0  0  0  0  0  0  0  0
   36.2690   28.8450   32.4060 C   0  0  0  0  0  0  0  0  0  0  0  0
   36.0890   28.7880   33.7970 C   0  0  0  0  0  0  0  0  0  0  0  0
   36.6460   27.7770   34.5070 N   0  0  0  0  0  0  0  0  0  0  0  0
   37.3800   26.8090   33.9060 C   0  0  0  0  0  0  0  0  0  0  0  0
   37.5780   26.8220   32.5820 N   0  0  0  0  0  0  0  0  0  0  0  0
   37.1740   27.8640   30.7600 H   0  0  0  0  0  0  0  0  0  0  0  0
   35.8260   29.6440   31.8670 H   0  0  0  0  0  0  0  0  0  0  0  0
   38.7980   24.8240   34.1630 C   0  0  0  0  0  0  0  0  0  0  0  0
   37.9460   25.7530   34.7450 C   0  0  0  0  0  0  0  0  0  0  0  0
   37.6460   25.6780   36.0790 C   0  0  0  0  0  0  0  0  0  0  0  0
   38.1790   24.6850   36.8650 C   0  0  0  0  0  0  0  0  0  0  0  0
   38.0490   24.3870   38.1800 N   0  0  0  0  0  0  0  0  0  0  0  0
   38.8290   23.2850   38.3530 C   0  0  0  0  0  0  0  0  0  0  0  0
   39.4110   22.9210   37.1980 N   0  0  0  0  0  0  0  0  0  0  0  0
   39.0220   23.7810   36.2410 C   0  0  0  0  0  0  0  0  0  0  0  0
   39.3540   23.8110   34.9200 C   0  0  0  0  0  0  0  0  0  0  0  0
   39.0060   24.9270   33.0990 H   0  0  0  0  0  0  0  0  0  0  0  0
   36.9910   26.3850   36.5460 H   0  0  0  0  0  0  0  0  0  0  0  0
   37.4840   24.8840   38.9010 H   0  0  0  0  0  0  0  0  0  0  0  0
   38.9950   22.7350   39.2680 H   0  0  0  0  0  0  0  0  0  0  0  0
   40.0110   23.1000   34.4520 H   0  0  0  0  0  0  0  0  0  0  0  0
   35.3230   29.7700   34.5540 C   0  0  0  0  0  0  0  0  0  0  0  0
   35.8910   30.7660   35.3170 C   0  0  0  0  0  3  0  0  0  0  0  0
   35.1810   31.7040   36.0390 C   0  0  0  0  0  0  0  0  0  0  0  0
   35.6880   32.4700   36.6270 H   0  0  0  0  0  0  0  0  0  0  0  0
   33.8410   31.6270   35.9850 N   0  0  0  0  0  0  0  0  0  0  0  0
   33.2620   30.6750   35.2560 C   0  0  0  0  0  3  0  0  0  0  0  0
   33.9690   29.7900   34.5750 N   0  0  0  0  0  0  0  0  0  0  0  0
  1  2  2  0  0  0  0
  1  6  1  0  0  0  0
  2  3  1  0  0  0  0
  3  4  2  0  0  0  0
  3 23  1  0  0  0  0
  5  4  1  0  0  0  0
  5 10  1  0  0  0  0
  6  5  2  0  0  0  0
  7  1  1  0  0  0  0
  8  2  1  0  0  0  0
  9 10  2  0  0  0  0
  9 17  1  0  0  0  0
 10 11  1  0  0  0  0
 11 19  1  0  0  0  0
 11 12  2  0  0  0  0
 12 13  1  0  0  0  0
 13 14  1  0  0  0  0
 13 20  1  0  0  0  0
 14 21  1  0  0  0  0
 15 14  2  0  0  0  0
 16 12  1  0  0  0  0
 16 15  1  0  0  0  0
 17 16  2  0  0  0  0
 18  9  1  0  0  0  0
 22 17  1  0  0  0  0
 23 29  2  0  0  0  0
 23 24  1  0  0  0  0
 24 25  2  0  0  0  0
 25 26  1  0  0  0  0
 27 25  1  0  0  0  0
 28 27  2  0  0  0  0
 29 28  1  0  0  0  0
M  END
>  <minimizedAffinity>
-5.61163187

$$$$

 OpenBabel03272507063D

 29 32  0  0  0  0  0  0  0  0999 V2000
   38.7420   24.5630   32.2560 C   0  0  0  0  0  0  0  0  0  0  0  0
   38.9820   23.9720   33.5140 C   0  0  0  0  0  0  0  0  0  0  0  0
   38.4730   24.6580   34.6280 C   0  0  0  0  0  0  0  0  0  0  0  0
   37.7960   25.8190   34.4540 N   0  0  0  0  0  0  0  0  0  0  0  0
   37.5940   26.3420   33.2200 C   0  0  0  0  0  0  0  0  0  0  0  0
   38.0610   25.7240   32.1280 N   0  0  0  0  0  0  0  0  0  0  0  0
   39.1380   24.0280   31.4010 H   0  0  0  0  0  0  0  0  0  0  0  0
   39.5080   23.0650   33.6700 H   0  0  0  0  0  0  0  0  0  0  0  0
   36.4120   28.2090   34.2850 C   0  0  0  0  0  0  0  0  0  0  0  0
   36.8530   27.5990   33.1180 C   0  0  0  0  0  0  0  0  0  0  0  0
   36.5960   28.1680   31.8990 C   0  0  0  0  0  0  0  0  0  0  0  0
   35.9010   29.3490   31.8070 C   0  0  0  0  0  0  0  0  0  0  0  0
   35.5190   30.1080   30.7510 N   0  0  0  0  0  0  0  0  0  0  0  0
   34.8580   31.1570   31.3140 C   0  0  0  0  0  0  0  0  0  0  0  0
   34.8340   31.0470   32.6540 N   0  0  0  0  0  0  0  0  0  0  0  0
   35.4810   29.9200   32.9960 C   0  0  0  0  0  0  0  0  0  0  0  0
   35.7090   29.3980   34.2330 C   0  0  0  0  0  0  0  0  0  0  0  0
   36.6420   27.7190   35.2290 H   0  0  0  0  0  0  0  0  0  0  0  0
   36.9280   27.7130   30.9880 H   0  0  0  0  0  0  0  0  0  0  0  0
   35.6890   29.9360   29.7380 H   0  0  0  0  0  0  0  0  0  0  0  0
   34.3950   31.9910   30.8060 H   0  0  0  0  0  0  0  0  0  0  0  0
   35.3750   29.8560   35.1470 H   0  0  0  0  0  0  0  0  0  0  0  0
   38.6260   24.1940   36.0010 C   0  0  0  0  0  0  0  0  0  0  0  0
   37.8330   24.6130   37.0470 C   0  0  0  0  0  3  0  0  0  0  0  0
   37.9640   24.1850   38.3520 C   0  0  0  0  0  0  0  0  0  0  0  0
   37.3050   24.5540   39.1400 H   0  0  0  0  0  0  0  0  0  0  0  0
   38.9390   23.2960   38.6060 N   0  0  0  0  0  0  0  0  0  0  0  0
   39.7220   22.8720   37.6170 C   0  0  0  0  0  3  0  0  0  0  0  0
   39.5730   23.3010   36.3760 N   0  0  0  0  0  0  0  0  0  0  0  0
  1  2  1  0  0  0  0
  2  8  1  0  0  0  0
  2  3  2  0  0  0  0
  3 23  1  0  0  0  0
  4  3  1  0  0  0  0
  5  4  2  0  0  0  0
  6  1  2  0  0  0  0
  6  5  1  0  0  0  0
  7  1  1  0  0  0  0
  9 18  1  0  0  0  0
 10  5  1  0  0  0  0
 10  9  2  0  0  0  0
 11 10  1  0  0  0  0
 12 11  2  0  0  0  0
 12 16  1  0  0  0  0
 13 14  1  0  0  0  0
 13 12  1  0  0  0  0
 14 15  2  0  0  0  0
 15 16  1  0  0  0  0
 16 17  2  0  0  0  0
 17  9  1  0  0  0  0
 17 22  1  0  0  0  0
 19 11  1  0  0  0  0
 20 13  1  0  0  0  0
 21 14  1  0  0  0  0
 23 29  2  0  0  0  0
 23 24  1  0  0  0  0
 24 25  2  0  0  0  0
 25 27  1  0  0  0  0
 25 26  1  0  0  0  0
 28 27  2  0  0  0  0
 29 28  1  0  0  0  0
M  END
>  <minimizedAffinity>
-5.60608149

$$$$

 OpenBabel03272507063D

 29 32  0  0  0  0  0  0  0  0999 V2000
   36.9890   28.5620   31.8130 C   0  0  0  0  0  0  0  0  0  0  0  0
   37.5290   27.3780   32.3560 C   0  0  0  0  0  0  0  0  0  0  0  0
   37.1970   27.1010   33.6920 C   0  0  0  0  0  0  0  0  0  0  0  0
   36.3990   27.9540   34.3780 N   0  0  0  0  0  0  0  0  0  0  0  0
   35.9070   29.0800   33.8050 C   0  0  0  0  0  0  0  0  0  0  0  0
   36.1970   29.3850   32.5350 N   0  0  0  0  0  0  0  0  0  0  0  0
   37.2510   28.7680   30.7810 H   0  0  0  0  0  0  0  0  0  0  0  0
   38.1540   26.6980   31.8350 H   0  0  0  0  0  0  0  0  0  0  0  0
   33.6760   29.8510   34.4720 C   0  0  0  0  0  0  0  0  0  0  0  0
   35.0540   29.9480   34.6160 C   0  0  0  0  0  0  0  0  0  0  0  0
   35.5960   30.8420   35.5000 C   0  0  0  0  0  0  0  0  0  0  0  0
   34.7920   31.6560   36.2600 C   0  0  0  0  0  0  0  0  0  0  0  0
   35.0640   32.6050   37.1880 N   0  0  0  0  0  0  0  0  0  0  0  0
   33.8390   33.0530   37.5780 C   0  0  0  0  0  0  0  0  0  0  0  0
   32.8590   32.4090   36.9200 N   0  0  0  0  0  0  0  0  0  0  0  0
   33.4260   31.5240   36.0830 C   0  0  0  0  0  0  0  0  0  0  0  0
   32.8340   30.6530   35.2180 C   0  0  0  0  0  0  0  0  0  0  0  0
   33.2930   29.1260   33.7560 H   0  0  0  0  0  0  0  0  0  0  0  0
   36.6560   30.9320   35.6250 H   0  0  0  0  0  0  0  0  0  0  0  0
   35.9950   32.9250   37.5310 H   0  0  0  0  0  0  0  0  0  0  0  0
   33.6210   33.8170   38.3100 H   0  0  0  0  0  0  0  0  0  0  0  0
   31.7690   30.5640   35.0930 H   0  0  0  0  0  0  0  0  0  0  0  0
   37.6650   25.9240   34.4130 C   0  0  0  0  0  0  0  0  0  0  0  0
   37.8520   25.8830   35.7780 C   0  0  0  0  0  3  0  0  0  0  0  0
   38.2940   24.7790   36.4770 C   0  0  0  0  0  0  0  0  0  0  0  0
   38.4240   24.8070   37.5600 H   0  0  0  0  0  0  0  0  0  0  0  0
   38.5560   23.6720   35.7630 N   0  0  0  0  0  0  0  0  0  0  0  0
   38.3840   23.6790   34.4430 C   0  0  0  0  0  3  0  0  0  0  0  0
   37.9600   24.7540   33.8000 N   0  0  0  0  0  0  0  0  0  0  0  0
  1  2  2  0  0  0  0
  1  6  1  0  0  0  0
  2  3  1  0  0  0  0
  3  4  2  0  0  0  0
  3 23  1  0  0  0  0
  5  4  1  0  0  0  0
  5 10  1  0  0  0  0
  6  5  2  0  0  0  0
  7  1  1  0  0  0  0
  8  2  1  0  0  0  0
  9 10  2  0  0  0  0
  9 17  1  0  0  0  0
 10 11  1  0  0  0  0
 11 19  1  0  0  0  0
 11 12  2  0  0  0  0
 12 13  1  0  0  0  0
 13 20  1  0  0  0  0
 13 14  1  0  0  0  0
 14 21  1  0  0  0  0
 15 14  2  0  0  0  0
 16 12  1  0  0  0  0
 16 15  1  0  0  0  0
 17 16  2  0  0  0  0
 18  9  1  0  0  0  0
 22 17  1  0  0  0  0
 23 24  1  0  0  0  0
 24 25  2  0  0  0  0
 25 26  1  0  0  0  0
 27 25  1  0  0  0  0
 28 27  2  0  0  0  0
 29 23  2  0  0  0  0
 29 28  1  0  0  0  0
M  END
>  <minimizedAffinity>
-5.55858374

$$$$

 OpenBabel03272507063D

 29 32  0  0  0  0  0  0  0  0999 V2000
   36.6710   28.7500   31.7990 C   0  0  0  0  0  0  0  0  0  0  0  0
   37.2160   27.5440   32.2870 C   0  0  0  0  0  0  0  0  0  0  0  0
   37.0410   27.2940   33.6570 C   0  0  0  0  0  0  0  0  0  0  0  0
   36.3790   28.1920   34.4260 N   0  0  0  0  0  0  0  0  0  0  0  0
   35.8750   29.3370   33.9040 C   0  0  0  0  0  0  0  0  0  0  0  0
   36.0180   29.6180   32.6030 N   0  0  0  0  0  0  0  0  0  0  0  0
   36.8110   28.9340   30.7400 H   0  0  0  0  0  0  0  0  0  0  0  0
   37.7360   26.8300   31.7010 H   0  0  0  0  0  0  0  0  0  0  0  0
   35.9220   31.0840   35.6240 C   0  0  0  0  0  0  0  0  0  0  0  0
   35.1740   30.2530   34.8020 C   0  0  0  0  0  0  0  0  0  0  0  0
   33.8050   30.2950   34.8370 C   0  0  0  0  0  0  0  0  0  0  0  0
   33.1490   31.1570   35.6820 C   0  0  0  0  0  0  0  0  0  0  0  0
   31.8340   31.3940   35.9100 N   0  0  0  0  0  0  0  0  0  0  0  0
   31.8290   32.3640   36.8650 C   0  0  0  0  0  0  0  0  0  0  0  0
   33.0830   32.7070   37.2090 N   0  0  0  0  0  0  0  0  0  0  0  0
   33.9370   31.9650   36.4830 C   0  0  0  0  0  0  0  0  0  0  0  0
   35.2990   31.9650   36.4880 C   0  0  0  0  0  0  0  0  0  0  0  0
   37.0070   31.0140   35.5600 H   0  0  0  0  0  0  0  0  0  0  0  0
   33.2100   29.6620   34.2110 H   0  0  0  0  0  0  0  0  0  0  0  0
   31.0100   30.9420   35.4610 H   0  0  0  0  0  0  0  0  0  0  0  0
   30.9690   32.8320   37.3220 H   0  0  0  0  0  0  0  0  0  0  0  0
   35.8950   32.6010   37.1180 H   0  0  0  0  0  0  0  0  0  0  0  0
   37.5370   26.1010   34.3310 C   0  0  0  0  0  0  0  0  0  0  0  0
   37.8220   26.0410   35.6770 C   0  0  0  0  0  3  0  0  0  0  0  0
   38.2920   24.9200   36.3310 C   0  0  0  0  0  0  0  0  0  0  0  0
   38.5000   24.9330   37.4020 H   0  0  0  0  0  0  0  0  0  0  0  0
   38.4800   23.8170   35.5890 N   0  0  0  0  0  0  0  0  0  0  0  0
   38.2140   23.8430   34.2850 C   0  0  0  0  0  3  0  0  0  0  0  0
   37.7650   24.9320   33.6860 N   0  0  0  0  0  0  0  0  0  0  0  0
  1  2  2  0  0  0  0
  1  6  1  0  0  0  0
  2  3  1  0  0  0  0
  3 23  1  0  0  0  0
  3  4  2  0  0  0  0
  5  4  1  0  0  0  0
  5 10  1  0  0  0  0
  6  5  2  0  0  0  0
  7  1  1  0  0  0  0
  8  2  1  0  0  0  0
  9 17  1  0  0  0  0
 10 11  1  0  0  0  0
 10  9  2  0  0  0  0
 11 12  2  0  0  0  0
 12 13  1  0  0  0  0
 12 16  1  0  0  0  0
 13 14  1  0  0  0  0
 14 15  2  0  0  0  0
 14 21  1  0  0  0  0
 16 17  2  0  0  0  0
 16 15  1  0  0  0  0
 17 22  1  0  0  0  0
 18  9  1  0  0  0  0
 19 11  1  0  0  0  0
 20 13  1  0  0  0  0
 23 24  1  0  0  0  0
 24 25  2  0  0  0  0
 25 26  1  0  0  0  0
 27 25  1  0  0  0  0
 28 27  2  0  0  0  0
 29 28  1  0  0  0  0
 29 23  2  0  0  0  0
M  END
>  <minimizedAffinity>
-5.53966665

$$$$

 OpenBabel03272507063D

 29 32  0  0  0  0  0  0  0  0999 V2000
   38.2160   23.9220   38.3560 C   0  0  0  0  0  0  0  0  0  0  0  0
   39.2690   23.0100   38.1390 C   0  0  0  0  0  0  0  0  0  0  0  0
   39.8210   22.9950   36.8480 C   0  0  0  0  0  0  0  0  0  0  0  0
   39.3340   23.8300   35.8980 N   0  0  0  0  0  0  0  0  0  0  0  0
   38.3180   24.6880   36.1620 C   0  0  0  0  0  0  0  0  0  0  0  0
   37.7610   24.7370   37.3780 N   0  0  0  0  0  0  0  0  0  0  0  0
   37.7960   23.9270   39.3550 H   0  0  0  0  0  0  0  0  0  0  0  0
   39.6640   22.3500   38.8690 H   0  0  0  0  0  0  0  0  0  0  0  0
   37.5280   26.8720   35.3750 C   0  0  0  0  0  0  0  0  0  0  0  0
   37.8510   25.5550   35.0800 C   0  0  0  0  0  0  0  0  0  0  0  0
   37.7320   25.0820   33.8010 C   0  0  0  0  0  0  0  0  0  0  0  0
   37.2940   25.8980   32.7870 C   0  0  0  0  0  0  0  0  0  0  0  0
   37.0890   25.6880   31.4640 N   0  0  0  0  0  0  0  0  0  0  0  0
   36.6480   26.8890   30.9980 C   0  0  0  0  0  0  0  0  0  0  0  0
   36.5840   27.7950   31.9890 N   0  0  0  0  0  0  0  0  0  0  0  0
   36.9830   27.2030   33.1280 C   0  0  0  0  0  0  0  0  0  0  0  0
   37.0820   27.7250   34.3820 C   0  0  0  0  0  0  0  0  0  0  0  0
   37.6390   27.2010   36.4070 H   0  0  0  0  0  0  0  0  0  0  0  0
   37.9760   24.0680   33.5540 H   0  0  0  0  0  0  0  0  0  0  0  0
   37.2340   24.8120   30.9200 H   0  0  0  0  0  0  0  0  0  0  0  0
   36.3730   27.1400   29.9840 H   0  0  0  0  0  0  0  0  0  0  0  0
   36.8370   28.7420   34.6290 H   0  0  0  0  0  0  0  0  0  0  0  0
   40.9130   22.1180   36.4460 C   0  0  0  0  0  0  0  0  0  0  0  0
   41.6730   21.3830   37.3300 C   0  0  0  0  0  3  0  0  0  0  0  0
   42.7110   20.5490   36.9680 C   0  0  0  0  0  0  0  0  0  0  0  0
   43.2780   19.9910   37.7150 H   0  0  0  0  0  0  0  0  0  0  0  0
   42.9890   20.4570   35.6570 N   0  0  0  0  0  0  0  0  0  0  0  0
   42.2720   21.1540   34.7780 C   0  0  0  0  0  3  0  0  0  0  0  0
   41.2840   21.9470   35.1550 N   0  0  0  0  0  0  0  0  0  0  0  0
  1  7  1  0  0  0  0
  2  1  1  0  0  0  0
  2  8  1  0  0  0  0
  3  2  2  0  0  0  0
  4  5  2  0  0  0  0
  4  3  1  0  0  0  0
  5  6  1  0  0  0  0
  6  1  2  0  0  0  0
  9 18  1  0  0  0  0
 10  9  1  0  0  0  0
 10  5  1  0  0  0  0
 11 10  2  0  0  0  0
 12 16  2  0  0  0  0
 12 11  1  0  0  0  0
 13 12  1  0  0  0  0
 14 13  1  0  0  0  0
 14 15  2  0  0  0  0
 15 16  1  0  0  0  0
 16 17  1  0  0  0  0
 17 22  1  0  0  0  0
 17  9  2  0  0  0  0
 19 11  1  0  0  0  0
 20 13  1  0  0  0  0
 21 14  1  0  0  0  0
 23  3  1  0  0  0  0
 23 24  1  0  0  0  0
 25 24  2  0  0  0  0
 25 26  1  0  0  0  0
 27 25  1  0  0  0  0
 28 29  1  0  0  0  0
 28 27  2  0  0  0  0
 29 23  2  0  0  0  0
M  END
>  <minimizedAffinity>
-5.5101552

$$$$

 OpenBabel03272507063D

 29 32  0  0  0  0  0  0  0  0999 V2000
   36.5200   29.4410   30.5190 C   0  0  0  0  0  0  0  0  0  0  0  0
   36.7050   28.0440   30.4730 C   0  0  0  0  0  0  0  0  0  0  0  0
   36.2700   27.3240   31.5970 C   0  0  0  0  0  0  0  0  0  0  0  0
   35.7110   27.9800   32.6420 N   0  0  0  0  0  0  0  0  0  0  0  0
   35.5580   29.3270   32.6330 C   0  0  0  0  0  0  0  0  0  0  0  0
   35.9570   30.0550   31.5840 N   0  0  0  0  0  0  0  0  0  0  0  0
   36.8580   29.9900   29.6470 H   0  0  0  0  0  0  0  0  0  0  0  0
   37.1390   27.5140   29.6640 H   0  0  0  0  0  0  0  0  0  0  0  0
   33.6300   29.6440   34.1150 C   0  0  0  0  0  0  0  0  0  0  0  0
   34.9450   29.9580   33.8020 C   0  0  0  0  0  0  0  0  0  0  0  0
   35.6500   30.8410   34.5750 C   0  0  0  0  0  0  0  0  0  0  0  0
   35.0720   31.4320   35.6720 C   0  0  0  0  0  0  0  0  0  0  0  0
   35.5340   32.3200   36.5860 N   0  0  0  0  0  0  0  0  0  0  0  0
   34.4810   32.5160   37.4250 C   0  0  0  0  0  0  0  0  0  0  0  0
   33.4200   31.7830   37.0460 N   0  0  0  0  0  0  0  0  0  0  0  0
   33.7590   31.0900   35.9460 C   0  0  0  0  0  0  0  0  0  0  0  0
   33.0130   30.2180   35.2110 C   0  0  0  0  0  0  0  0  0  0  0  0
   33.1110   28.9370   33.4710 H   0  0  0  0  0  0  0  0  0  0  0  0
   36.6660   31.0960   34.3500 H   0  0  0  0  0  0  0  0  0  0  0  0
   36.4790   32.7580   36.6400 H   0  0  0  0  0  0  0  0  0  0  0  0
   34.4430   33.1600   38.2930 H   0  0  0  0  0  0  0  0  0  0  0  0
   31.9930   29.9640   35.4390 H   0  0  0  0  0  0  0  0  0  0  0  0
   36.3820   25.8760   31.7210 C   0  0  0  0  0  0  0  0  0  0  0  0
   35.5600   24.9830   31.0690 C   0  0  0  0  0  3  0  0  0  0  0  0
   35.6510   23.6100   31.1740 C   0  0  0  0  0  0  0  0  0  0  0  0
   34.9700   22.9530   30.6320 H   0  0  0  0  0  0  0  0  0  0  0  0
   36.6140   23.1240   31.9750 N   0  0  0  0  0  0  0  0  0  0  0  0
   37.4250   23.9620   32.6190 C   0  0  0  0  0  3  0  0  0  0  0  0
   37.3120   25.2730   32.4980 N   0  0  0  0  0  0  0  0  0  0  0  0
  1  6  1  0  0  0  0
  2  1  2  0  0  0  0
  2  3  1  0  0  0  0
  3 23  1  0  0  0  0
  3  4  2  0  0  0  0
  5  4  1  0  0  0  0
  5 10  1  0  0  0  0
  6  5  2  0  0  0  0
  7  1  1  0  0  0  0
  8  2  1  0  0  0  0
  9 17  1  0  0  0  0
 10  9  2  0  0  0  0
 10 11  1  0  0  0  0
 11 12  2  0  0  0  0
 12 16  1  0  0  0  0
 12 13  1  0  0  0  0
 13 20  1  0  0  0  0
 13 14  1  0  0  0  0
 14 21  1  0  0  0  0
 15 14  2  0  0  0  0
 16 15  1  0  0  0  0
 17 22  1  0  0  0  0
 17 16  2  0  0  0  0
 18  9  1  0  0  0  0
 19 11  1  0  0  0  0
 23 29  1  0  0  0  0
 24 25  1  0  0  0  0
 24 23  2  0  0  0  0
 25 27  2  0  0  0  0
 26 25  1  0  0  0  0
 27 28  1  0  0  0  0
 29 28  2  0  0  0  0
M  END
>  <minimizedAffinity>
-5.36888647

$$$$

 OpenBabel03272507063D

 29 32  0  0  0  0  0  0  0  0999 V2000
   35.9900   28.7760   33.7150 C   0  0  0  0  0  0  0  0  0  0  0  0
   36.4000   28.9550   32.3770 C   0  0  0  0  0  0  0  0  0  0  0  0
   37.3700   28.0580   31.9010 C   0  0  0  0  0  0  0  0  0  0  0  0
   37.8550   27.0930   32.7200 N   0  0  0  0  0  0  0  0  0  0  0  0
   37.4250   26.9670   33.9990 C   0  0  0  0  0  0  0  0  0  0  0  0
   36.5020   27.7990   34.4970 N   0  0  0  0  0  0  0  0  0  0  0  0
   35.2410   29.4720   34.0740 H   0  0  0  0  0  0  0  0  0  0  0  0
   36.0320   29.7020   31.7220 H   0  0  0  0  0  0  0  0  0  0  0  0
   38.9350   25.0500   34.2410 C   0  0  0  0  0  0  0  0  0  0  0  0
   38.0000   25.8990   34.8160 C   0  0  0  0  0  0  0  0  0  0  0  0
   37.6260   25.7340   36.1230 C   0  0  0  0  0  0  0  0  0  0  0  0
   38.1670   24.7310   36.8880 C   0  0  0  0  0  0  0  0  0  0  0  0
   37.9770   24.3550   38.1770 N   0  0  0  0  0  0  0  0  0  0  0  0
   38.8060   23.2880   38.3410 C   0  0  0  0  0  0  0  0  0  0  0  0
   39.4750   23.0190   37.2060 N   0  0  0  0  0  0  0  0  0  0  0  0
   39.0950   23.9090   36.2730 C   0  0  0  0  0  0  0  0  0  0  0  0
   39.5020   24.0280   34.9780 C   0  0  0  0  0  0  0  0  0  0  0  0
   39.2000   25.2210   33.1990 H   0  0  0  0  0  0  0  0  0  0  0  0
   36.9050   26.3790   36.5850 H   0  0  0  0  0  0  0  0  0  0  0  0
   37.3430   24.7800   38.8860 H   0  0  0  0  0  0  0  0  0  0  0  0
   38.9490   22.6980   39.2350 H   0  0  0  0  0  0  0  0  0  0  0  0
   40.2260   23.3790   34.5160 H   0  0  0  0  0  0  0  0  0  0  0  0
   37.9080   28.0950   30.5470 C   0  0  0  0  0  0  0  0  0  0  0  0
   38.9660   27.3230   30.1200 C   0  0  0  0  0  3  0  0  0  0  0  0
   39.4890   27.3440   28.8430 C   0  0  0  0  0  0  0  0  0  0  0  0
   40.3300   26.7080   28.5630 H   0  0  0  0  0  0  0  0  0  0  0  0
   38.9140   28.1830   27.9640 N   0  0  0  0  0  0  0  0  0  0  0  0
   37.8890   28.9420   28.3470 C   0  0  0  0  0  3  0  0  0  0  0  0
   37.4110   28.9000   29.5790 N   0  0  0  0  0  0  0  0  0  0  0  0
  1  7  1  0  0  0  0
  1  6  1  0  0  0  0
  2  1  2  0  0  0  0
  3  2  1  0  0  0  0
  3  4  2  0  0  0  0
  4  5  1  0  0  0  0
  5  6  2  0  0  0  0
  5 10  1  0  0  0  0
  8  2  1  0  0  0  0
  9 10  2  0  0  0  0
  9 17  1  0  0  0  0
 10 11  1  0  0  0  0
 11 19  1  0  0  0  0
 11 12  2  0  0  0  0
 12 13  1  0  0  0  0
 13 14  1  0  0  0  0
 13 20  1  0  0  0  0
 14 21  1  0  0  0  0
 15 14  2  0  0  0  0
 16 12  1  0  0  0  0
 16 15  1  0  0  0  0
 17 16  2  0  0  0  0
 18  9  1  0  0  0  0
 22 17  1  0  0  0  0
 23  3  1  0  0  0  0
 24 23  1  0  0  0  0
 25 24  2  0  0  0  0
 26 25  1  0  0  0  0
 27 28  2  0  0  0  0
 27 25  1  0  0  0  0
 28 29  1  0  0  0  0
 29 23  2  0  0  0  0
M  END
>  <minimizedAffinity>
-5.2903595

$$$$

 OpenBabel03272507063D

 29 32  0  0  0  0  0  0  0  0999 V2000
   36.1830   29.2960   31.9100 C   0  0  0  0  0  0  0  0  0  0  0  0
   35.5220   30.1950   32.7740 C   0  0  0  0  0  0  0  0  0  0  0  0
   35.5030   29.8470   34.1340 C   0  0  0  0  0  0  0  0  0  0  0  0
   36.1000   28.7020   34.5450 N   0  0  0  0  0  0  0  0  0  0  0  0
   36.7220   27.8740   33.6700 C   0  0  0  0  0  0  0  0  0  0  0  0
   36.7650   28.1640   32.3640 N   0  0  0  0  0  0  0  0  0  0  0  0
   36.1930   29.5720   30.8620 H   0  0  0  0  0  0  0  0  0  0  0  0
   35.0500   31.0940   32.4710 H   0  0  0  0  0  0  0  0  0  0  0  0
   37.8190   26.6620   35.4990 C   0  0  0  0  0  0  0  0  0  0  0  0
   37.3410   26.6570   34.1950 C   0  0  0  0  0  0  0  0  0  0  0  0
   37.4510   25.5330   33.4210 C   0  0  0  0  0  0  0  0  0  0  0  0
   38.0330   24.3920   33.9170 C   0  0  0  0  0  0  0  0  0  0  0  0
   38.2640   23.1710   33.3770 N   0  0  0  0  0  0  0  0  0  0  0  0
   38.8740   22.4730   34.3740 C   0  0  0  0  0  0  0  0  0  0  0  0
   39.0140   23.2300   35.4760 N   0  0  0  0  0  0  0  0  0  0  0  0
   38.4950   24.4440   35.2210 C   0  0  0  0  0  0  0  0  0  0  0  0
   38.4110   25.5340   36.0340 C   0  0  0  0  0  0  0  0  0  0  0  0
   37.7080   27.5790   36.0740 H   0  0  0  0  0  0  0  0  0  0  0  0
   37.0890   25.5100   32.4130 H   0  0  0  0  0  0  0  0  0  0  0  0
   38.0300   22.8340   32.4190 H   0  0  0  0  0  0  0  0  0  0  0  0
   39.2220   21.4500   34.3420 H   0  0  0  0  0  0  0  0  0  0  0  0
   38.7750   25.5560   37.0460 H   0  0  0  0  0  0  0  0  0  0  0  0
   34.8670   30.6560   35.1650 C   0  0  0  0  0  0  0  0  0  0  0  0
   33.5130   30.6460   35.4240 C   0  0  0  0  0  3  0  0  0  0  0  0
   32.8940   31.4050   36.3960 C   0  0  0  0  0  0  0  0  0  0  0  0
   31.8160   31.3550   36.5540 H   0  0  0  0  0  0  0  0  0  0  0  0
   33.6800   32.2060   37.1350 N   0  0  0  0  0  0  0  0  0  0  0  0
   34.9910   32.2380   36.9100 C   0  0  0  0  0  3  0  0  0  0  0  0
   35.5560   31.4990   35.9700 N   0  0  0  0  0  0  0  0  0  0  0  0
  1  6  2  0  0  0  0
  1  2  1  0  0  0  0
  2  3  2  0  0  0  0
  3  4  1  0  0  0  0
  3 23  1  0  0  0  0
  5 10  1  0  0  0  0
  5  4  2  0  0  0  0
  6  5  1  0  0  0  0
  7  1  1  0  0  0  0
  8  2  1  0  0  0  0
  9 17  1  0  0  0  0
  9 18  1  0  0  0  0
 10  9  2  0  0  0  0
 11 12  2  0  0  0  0
 11 10  1  0  0  0  0
 12 16  1  0  0  0  0
 13 12  1  0  0  0  0
 13 14  1  0  0  0  0
 14 15  2  0  0  0  0
 16 15  1  0  0  0  0
 16 17  2  0  0  0  0
 17 22  1  0  0  0  0
 19 11  1  0  0  0  0
 20 13  1  0  0  0  0
 21 14  1  0  0  0  0
 23 24  2  0  0  0  0
 23 29  1  0  0  0  0
 24 25  1  0  0  0  0
 25 26  1  0  0  0  0
 25 27  2  0  0  0  0
 28 27  1  0  0  0  0
 29 28  2  0  0  0  0
M  END
>  <minimizedAffinity>
-5.28714657

$$$$

 OpenBabel03272507063D

 29 32  0  0  0  0  0  0  0  0999 V2000
   36.6050   30.2630   30.4520 C   0  0  0  0  0  0  0  0  0  0  0  0
   36.7120   28.8770   30.2130 C   0  0  0  0  0  0  0  0  0  0  0  0
   36.2670   28.0340   31.2430 C   0  0  0  0  0  0  0  0  0  0  0  0
   35.7710   28.5700   32.3850 N   0  0  0  0  0  0  0  0  0  0  0  0
   35.6920   29.9110   32.5620 C   0  0  0  0  0  0  0  0  0  0  0  0
   36.1040   30.7540   31.6070 N   0  0  0  0  0  0  0  0  0  0  0  0
   36.9520   30.9060   29.6510 H   0  0  0  0  0  0  0  0  0  0  0  0
   37.0960   28.4400   29.3270 H   0  0  0  0  0  0  0  0  0  0  0  0
   35.8620   31.3600   34.5330 C   0  0  0  0  0  0  0  0  0  0  0  0
   35.1440   30.4080   33.8240 C   0  0  0  0  0  0  0  0  0  0  0  0
   33.9460   29.9460   34.3020 C   0  0  0  0  0  0  0  0  0  0  0  0
   33.4340   30.4140   35.4870 C   0  0  0  0  0  0  0  0  0  0  0  0
   32.2980   30.1320   36.1700 N   0  0  0  0  0  0  0  0  0  0  0  0
   32.3660   30.9250   37.2750 C   0  0  0  0  0  0  0  0  0  0  0  0
   33.4910   31.6610   37.2710 N   0  0  0  0  0  0  0  0  0  0  0  0
   34.1850   31.3630   36.1590 C   0  0  0  0  0  0  0  0  0  0  0  0
   35.3800   31.8560   35.7300 C   0  0  0  0  0  0  0  0  0  0  0  0
   36.8080   31.6960   34.1130 H   0  0  0  0  0  0  0  0  0  0  0  0
   33.3770   29.2110   33.7690 H   0  0  0  0  0  0  0  0  0  0  0  0
   31.5420   29.4620   35.9160 H   0  0  0  0  0  0  0  0  0  0  0  0
   31.6460   30.9970   38.0770 H   0  0  0  0  0  0  0  0  0  0  0  0
   35.9510   32.5940   36.2660 H   0  0  0  0  0  0  0  0  0  0  0  0
   36.3020   26.5790   31.1690 C   0  0  0  0  0  0  0  0  0  0  0  0
   37.4630   25.8380   31.1540 C   0  0  0  0  0  3  0  0  0  0  0  0
   37.5150   24.4610   31.0840 C   0  0  0  0  0  0  0  0  0  0  0  0
   38.4680   23.9280   31.0760 H   0  0  0  0  0  0  0  0  0  0  0  0
   36.3420   23.8100   31.0250 N   0  0  0  0  0  0  0  0  0  0  0  0
   35.2020   24.4980   31.0370 C   0  0  0  0  0  3  0  0  0  0  0  0
   35.1840   25.8180   31.1050 N   0  0  0  0  0  0  0  0  0  0  0  0
  1  6  1  0  0  0  0
  2  1  2  0  0  0  0
  2  3  1  0  0  0  0
  3  4  2  0  0  0  0
  4  5  1  0  0  0  0
  5 10  1  0  0  0  0
  6  5  2  0  0  0  0
  7  1  1  0  0  0  0
  8  2  1  0  0  0  0
  9 17  1  0  0  0  0
 10 11  1  0  0  0  0
 10  9  2  0  0  0  0
 11 12  2  0  0  0  0
 12 16  1  0  0  0  0
 12 13  1  0  0  0  0
 13 14  1  0  0  0  0
 14 21  1  0  0  0  0
 15 14  2  0  0  0  0
 16 15  1  0  0  0  0
 17 16  2  0  0  0  0
 17 22  1  0  0  0  0
 18  9  1  0  0  0  0
 19 11  1  0  0  0  0
 20 13  1  0  0  0  0
 23  3  1  0  0  0  0
 24 23  1  0  0  0  0
 25 24  2  0  0  0  0
 26 25  1  0  0  0  0
 27 28  2  0  0  0  0
 27 25  1  0  0  0  0
 28 29  1  0  0  0  0
 29 23  2  0  0  0  0
M  END
>  <minimizedAffinity>
-5.27289915

$$$$
