
 OpenBabel03272508163D

 29 31  0  0  0  0  0  0  0  0999 V2000
   35.4400   30.6190   47.4850 Cl  0  0  0  0  0  0  0  0  0  0  0  0
   35.6020   29.9690   45.8920 C   0  0  0  0  0  0  0  0  0  0  0  0
   34.6580   29.0410   45.5920 C   0  0  0  0  0  0  0  0  0  0  0  0
   34.7020   28.4450   44.3050 C   0  0  0  0  0  0  0  0  0  0  0  0
   35.6550   28.7840   43.3930 C   0  0  0  0  0  0  0  0  0  0  0  0
   36.5940   29.7220   43.7250 C   0  0  0  0  0  0  0  0  0  0  0  0
   37.8300   30.1930   42.5940 Cl  0  0  0  0  0  0  0  0  0  0  0  0
   36.5540   30.2950   44.9560 C   0  0  0  0  0  0  0  0  0  0  0  0
   33.9920   27.6970   43.9780 H   0  0  0  0  0  0  0  0  0  0  0  0
   35.7090   28.3420   42.4060 H   0  0  0  0  0  0  0  0  0  0  0  0
   33.8180   27.4710   47.2860 C   0  0  0  0  0  0  0  0  0  0  0  0
   33.5390   28.5190   46.4060 C   0  0  0  0  0  0  0  0  0  0  0  0
   32.2400   29.0310   46.3230 C   0  0  0  0  0  0  0  0  0  0  0  0
   31.3060   28.4550   47.1310 N   0  0  0  0  0  0  0  0  0  0  0  0
   31.5940   27.4430   47.9740 C   0  0  0  0  0  0  0  0  0  0  0  0
   32.8710   26.9410   48.0540 N   0  0  0  0  0  0  0  0  0  0  0  0
   34.8150   27.0600   47.3660 H   0  0  0  0  0  0  0  0  0  0  0  0
   32.0470   29.8330   45.6440 H   0  0  0  0  0  0  0  0  0  0  0  0
   30.7530   27.0880   48.5510 H   0  0  0  0  0  0  0  0  0  0  0  0
   37.5280   31.3120   45.3950 C   0  0  0  0  0  0  0  0  0  0  0  0
   37.6660   32.4870   45.0560 O   0  0  0  0  0  0  0  0  0  0  0  0
   38.5570   31.1220   46.3520 O   0  0  0  0  0  0  0  0  0  0  0  0
   38.8600   32.1310   47.2590 C   0  0  0  0  0  0  0  0  0  0  0  0
   39.7710   33.1410   47.0260 C   0  0  0  0  0  3  0  0  0  0  0  0
   39.9260   34.0380   48.0480 C   0  0  0  0  0  0  0  0  0  0  0  0
   40.6520   34.8460   47.8660 H   0  0  0  0  0  0  0  0  0  0  0  0
   39.2490   33.9600   49.2060 N   0  0  0  0  0  0  0  0  0  0  0  0
   38.3630   32.9620   49.4140 C   0  0  0  0  0  3  0  0  0  0  0  0
   38.1820   32.0530   48.4190 N   0  0  0  0  0  0  0  0  0  0  0  0
  2  1  1  0  0  0  0
  3  2  1  0  0  0  0
  3 12  1  0  0  0  0
  4  3  2  0  0  0  0
  5  6  2  0  0  0  0
  5  4  1  0  0  0  0
  6  8  1  0  0  0  0
  7  6  1  0  0  0  0
  8 20  1  0  0  0  0
  8  2  2  0  0  0  0
  9  4  1  0  0  0  0
 10  5  1  0  0  0  0
 11 17  1  0  0  0  0
 11 16  1  0  0  0  0
 12 11  2  0  0  0  0
 13 12  1  0  0  0  0
 13 14  2  0  0  0  0
 14 15  1  0  0  0  0
 15 16  2  0  0  0  0
 15 19  1  0  0  0  0
 18 13  1  0  0  0  0
 20 22  1  0  0  0  0
 21 20  2  0  0  0  0
 22 23  1  0  0  0  0
 23 29  1  0  0  0  0
 24 23  2  0  0  0  0
 24 25  1  0  0  0  0
 25 27  2  0  0  0  0
 26 25  1  0  0  0  0
 27 28  1  0  0  0  0
 29 28  2  0  0  0  0
M  END
>  <minimizedAffinity>
-4.44571877

>  <minimizedRMSD>
4.16054535

$$$$
