
 OpenBabel03272508023D

 26 28  0  0  0  0  0  0  0  0999 V2000
   37.3150   30.7570   45.1910 C   0  0  0  0  0  0  0  0  0  0  0  0
   37.9510   31.9510   44.9860 C   0  0  0  0  0  0  0  0  0  0  0  0
   38.9650   31.7960   44.0480 C   0  0  0  0  0  0  0  0  0  0  0  0
   38.9030   30.4850   43.7130 N   0  0  0  0  0  0  0  0  0  0  0  0
   37.9440   29.8850   44.3800 N   0  0  0  0  0  0  0  0  0  0  0  0
   37.7210   32.8900   45.4670 H   0  0  0  0  0  0  0  0  0  0  0  0
   39.6660   32.5090   43.6410 H   0  0  0  0  0  0  0  0  0  0  0  0
   36.1990   30.4580   46.0860 C   0  0  0  0  0  0  0  0  0  0  0  0
   36.4630   30.5170   47.4890 C   0  0  0  0  0  0  0  0  0  0  0  0
   35.4050   30.2340   48.3520 C   0  0  0  0  0  0  0  0  0  0  0  0
   34.2000   29.9220   47.8160 N   0  0  0  0  0  0  0  0  0  0  0  0
   33.9800   29.8750   46.4820 C   0  0  0  0  0  0  0  0  0  0  0  0
   34.9970   30.1470   45.6400 N   0  0  0  0  0  0  0  0  0  0  0  0
   37.4550   30.7750   47.8190 H   0  0  0  0  0  0  0  0  0  0  0  0
   33.0050   29.6230   46.0810 H   0  0  0  0  0  0  0  0  0  0  0  0
   35.6490   30.2880   49.8210 C   0  0  0  0  0  0  0  0  0  0  0  0
   36.0050   31.5900   50.0870 F   0  0  0  0  0  0  0  0  0  0  0  0
   34.5270   29.9620   50.5590 F   0  0  0  0  0  0  0  0  0  0  0  0
   36.7200   29.4820   50.2010 F   0  0  0  0  0  0  0  0  0  0  0  0
   39.6980   29.7450   42.7940 C   0  0  0  0  0  0  0  0  0  0  0  0
   40.6520   30.3930   42.0020 C   0  0  0  0  0  3  0  0  0  0  0  0
   41.4720   29.7680   41.0820 C   0  0  0  0  0  0  0  0  0  0  0  0
   42.1670   30.3900   40.5350 H   0  0  0  0  0  0  0  0  0  0  0  0
   41.3110   28.4390   40.9680 N   0  0  0  0  0  0  0  0  0  0  0  0
   40.4020   27.7710   41.7130 C   0  0  0  0  0  3  0  0  0  0  0  0
   39.6080   28.4180   42.6120 N   0  0  0  0  0  0  0  0  0  0  0  0
  1  8  1  0  0  0  0
  2  1  1  0  0  0  0
  2  6  1  0  0  0  0
  3  2  2  0  0  0  0
  4  3  1  0  0  0  0
  4  5  1  0  0  0  0
  5  1  2  0  0  0  0
  7  3  1  0  0  0  0
  8  9  1  0  0  0  0
  9 14  1  0  0  0  0
  9 10  2  0  0  0  0
 10 16  1  0  0  0  0
 11 10  1  0  0  0  0
 12 11  2  0  0  0  0
 13  8  2  0  0  0  0
 13 12  1  0  0  0  0
 15 12  1  0  0  0  0
 16 17  1  0  0  0  0
 16 19  1  0  0  0  0
 16 18  1  0  0  0  0
 20  4  1  0  0  0  0
 21 20  2  0  0  0  0
 22 21  1  0  0  0  0
 23 22  1  0  0  0  0
 24 22  2  0  0  0  0
 24 25  1  0  0  0  0
 25 26  2  0  0  0  0
 26 20  1  0  0  0  0
M  END
>  <minimizedAffinity>
-5.028543

>  <minimizedRMSD>
1.83080101

$$$$
