
 OpenBabel03272510043D

 35 37  0  0  0  0  0  0  0  0999 V2000
   35.2360   30.4580   45.3780 C   0  0  0  0  0  0  0  0  0  0  0  0
   35.4350   30.7990   46.6800 C   0  0  0  0  0  0  0  0  0  0  0  0
   34.4680   30.4900   47.6300 C   0  0  0  0  0  0  0  0  0  0  0  0
   33.2920   29.8410   47.3060 C   0  0  0  0  0  0  0  0  0  0  0  0
   33.0560   29.4860   46.0050 C   0  0  0  0  0  0  0  0  0  0  0  0
   34.0310   29.8050   45.0930 C   0  0  0  0  0  0  0  0  0  0  0  0
   34.6580   30.7760   48.6750 H   0  0  0  0  0  0  0  0  0  0  0  0
   32.6170   29.6510   48.1220 H   0  0  0  0  0  0  0  0  0  0  0  0
   32.1380   28.9930   45.8170 H   0  0  0  0  0  0  0  0  0  0  0  0
   33.7250   29.4730   44.0930 H   0  0  0  0  0  0  0  0  0  0  0  0
   38.2820   33.1220   46.6160 C   0  0  0  0  0  0  0  0  0  0  0  0
   37.1410   32.4210   46.2530 C   0  0  0  0  0  0  0  0  0  0  0  0
   36.5980   31.5040   47.0980 C   0  0  0  0  0  0  0  0  0  0  0  0
   37.2190   31.3190   48.2950 N   0  0  0  0  0  0  0  0  0  0  0  0
   38.3180   31.9970   48.6520 C   0  0  0  0  0  0  0  0  0  0  0  0
   38.8410   32.8910   47.8100 N   0  0  0  0  0  0  0  0  0  0  0  0
   38.8350   33.8720   46.0710 H   0  0  0  0  0  0  0  0  0  0  0  0
   36.8890   32.8160   45.2970 H   0  0  0  0  0  0  0  0  0  0  0  0
   38.8490   31.7430   50.0180 C   0  0  0  0  0  0  0  0  0  0  0  0
   39.8900   32.5930   50.3350 F   0  0  0  0  0  0  0  0  0  0  0  0
   37.8350   32.1180   50.9810 F   0  0  0  0  0  0  0  0  0  0  0  0
   39.1300   30.4990   50.3350 F   0  0  0  0  0  0  0  0  0  0  0  0
   36.3590   30.7540   44.1280 S   0  0  0  0  0  0  0  0  0  0  0  0
   36.6300   32.2000   43.9540 O   0  0  0  0  0  0  0  0  0  0  0  0
   35.4320   30.6090   42.9370 O   0  0  0  0  0  0  0  0  0  0  0  0
   37.3810   29.6600   43.3280 C   0  0  0  0  0  0  0  0  0  0  0  0
   36.9680   29.6410   42.2430 H   0  0  0  0  0  0  0  0  0  0  0  0
   38.3970   30.0350   43.1080 H   0  0  0  0  0  0  0  0  0  0  0  0
   37.2640   28.2580   43.6940 C   0  0  0  0  0  0  0  0  0  0  0  0
   38.4390   27.5380   43.6120 C   0  0  0  0  0  3  0  0  0  0  0  0
   38.5230   26.1800   43.9250 C   0  0  0  0  0  0  0  0  0  0  0  0
   39.4450   25.6190   43.8600 H   0  0  0  0  0  0  0  0  0  0  0  0
   37.3960   25.5240   44.3310 N   0  0  0  0  0  0  0  0  0  0  0  0
   36.2760   26.2640   44.3960 C   0  0  0  0  0  3  0  0  0  0  0  0
   36.1680   27.5910   44.0960 N   0  0  0  0  0  0  0  0  0  0  0  0
  1  2  1  0  0  0  0
  2 13  1  0  0  0  0
  2  3  2  0  0  0  0
  3  7  1  0  0  0  0
  4  3  1  0  0  0  0
  4  8  1  0  0  0  0
  5  4  2  0  0  0  0
  6  1  2  0  0  0  0
  6  5  1  0  0  0  0
  9  5  1  0  0  0  0
 10  6  1  0  0  0  0
 11 16  1  0  0  0  0
 12 11  2  0  0  0  0
 12 13  1  0  0  0  0
 13 14  2  0  0  0  0
 14 15  1  0  0  0  0
 15 19  1  0  0  0  0
 16 15  2  0  0  0  0
 17 11  1  0  0  0  0
 18 12  1  0  0  0  0
 19 22  1  0  0  0  0
 19 20  1  0  0  0  0
 19 21  1  0  0  0  0
 23  1  1  0  0  0  0
 24 23  2  0  0  0  0
 25 23  2  0  0  0  0
 26 29  1  0  0  0  0
 26 23  1  0  0  0  0
 27 26  1  0  0  0  0
 28 26  1  0  0  0  0
 29 35  1  0  0  0  0
 30 29  2  0  0  0  0
 30 31  1  0  0  0  0
 31 33  2  0  0  0  0
 32 31  1  0  0  0  0
 33 34  1  0  0  0  0
 35 34  2  0  0  0  0
M  END
>  <minimizedAffinity>
4.43111134

>  <minimizedRMSD>
5.1094079

$$$$
