
 OpenBabel03272500053D

 27 29  0  0  0  0  0  0  0  0999 V2000
   35.4120   28.7840   49.1590 C   0  0  0  0  0  0  0  0  0  0  0  0
   35.3100   29.9640   48.3960 C   0  0  0  0  0  0  0  0  0  0  0  0
   34.2090   30.1040   47.5750 C   0  0  0  0  0  0  0  0  0  0  0  0
   33.2780   29.1220   47.5260 N   0  0  0  0  0  0  0  0  0  0  0  0
   33.3950   28.0050   48.2620 C   0  0  0  0  0  0  0  0  0  0  0  0
   34.4590   27.8250   49.0820 N   0  0  0  0  0  0  0  0  0  0  0  0
   36.2630   28.6450   49.8120 H   0  0  0  0  0  0  0  0  0  0  0  0
   34.1270   31.0020   46.9910 H   0  0  0  0  0  0  0  0  0  0  0  0
   36.3540   30.9330   48.5280 N   0  0  0  0  0  0  0  0  0  0  0  0
   36.5540   31.6080   49.6770 C   0  0  0  0  0  0  0  0  0  0  0  0
   37.5840   32.5410   49.7540 C   0  0  0  0  0  0  0  0  0  0  0  0
   38.3190   32.6850   48.6070 C   0  0  0  0  0  0  0  0  0  0  0  0
   39.2610   33.5290   48.6540 O   0  0  0  0  0  0  0  0  0  0  0  0
   38.1370   32.0250   47.4540 N   0  0  0  0  0  0  0  0  0  0  0  0
   37.1200   31.1260   47.4300 C   0  0  0  0  0  0  0  0  0  0  0  0
   36.9420   30.5000   46.3470 O   0  0  0  0  0  0  0  0  0  0  0  0
   35.9230   31.4300   50.5380 H   0  0  0  0  0  0  0  0  0  0  0  0
   37.7930   33.1090   50.6400 H   0  0  0  0  0  0  0  0  0  0  0  0
   38.7250   32.1770   46.6230 H   0  0  0  0  0  0  0  0  0  0  0  0
   32.4650   26.9710   48.2450 O   0  0  0  0  0  0  0  0  0  0  0  0
   31.1090   27.1910   48.5140 C   0  0  0  0  0  0  0  0  0  0  0  0
   30.2030   26.7130   47.5900 C   0  0  0  0  0  0  0  0  0  0  0  0
   28.8830   26.9540   47.8980 C   0  0  0  0  0  0  0  0  0  0  0  0
   28.1130   26.6090   47.2220 H   0  0  0  0  0  0  0  0  0  0  0  0
   28.4650   27.6090   49.0170 N   0  0  0  0  0  0  0  0  0  0  0  0
   29.4040   28.0580   49.8910 C   0  0  0  0  0  0  0  0  0  0  0  0
   30.7110   27.8460   49.6340 N   0  0  0  0  0  0  0  0  0  0  0  0
  1  7  1  0  0  0  0
  2  9  1  0  0  0  0
  2  1  2  0  0  0  0
  3  2  1  0  0  0  0
  4  3  2  0  0  0  0
  4  5  1  0  0  0  0
  5  6  2  0  0  0  0
  6  1  1  0  0  0  0
  8  3  1  0  0  0  0
  9 10  1  0  0  0  0
 10 11  2  0  0  0  0
 10 17  1  0  0  0  0
 11 18  1  0  0  0  0
 12 13  2  0  0  0  0
 12 11  1  0  0  0  0
 14 12  1  0  0  0  0
 15 14  1  0  0  0  0
 15  9  1  0  0  0  0
 16 15  2  0  0  0  0
 19 14  1  0  0  0  0
 20  5  1  0  0  0  0
 20 21  1  0  0  0  0
 21 27  1  0  0  0  0
 22 23  1  0  0  0  0
 22 21  2  0  0  0  0
 23 25  2  0  0  0  0
 24 23  1  0  0  0  0
 25 26  1  0  0  0  0
 27 26  2  0  0  0  0
M  END
>  <minimizedAffinity>
-5.7137742

>  <minimizedRMSD>
1.50981903

$$$$
