
 OpenBabel03272507133D

 38 42  0  0  0  0  0  0  0  0999 V2000
   35.6790   29.1060   49.8620 C   0  0  0  0  0  0  0  0  0  0  0  0
   34.6450   29.6050   50.5720 C   0  0  0  0  0  0  0  0  0  0  0  0
   33.4830   29.0200   50.0550 C   0  0  0  0  0  0  0  0  0  0  0  0
   33.9080   28.1810   49.0350 C   0  0  0  0  0  0  0  0  0  0  0  0
   35.2070   28.2810   48.9790 O   0  0  0  0  0  0  0  0  0  0  0  0
   34.6620   30.3230   51.3940 H   0  0  0  0  0  0  0  0  0  0  0  0
   32.5050   29.2410   50.4380 H   0  0  0  0  0  0  0  0  0  0  0  0
   33.4080   26.4070   47.3560 C   0  0  0  0  0  0  0  0  0  0  0  0
   32.9850   27.3780   48.2360 C   0  0  0  0  0  0  0  0  0  0  0  0
   31.6330   27.6460   48.4100 C   0  0  0  0  0  0  0  0  0  0  0  0
   30.7310   26.9130   47.6770 C   0  0  0  0  0  0  0  0  0  0  0  0
   29.3870   26.9570   47.6410 N   0  0  0  0  0  0  0  0  0  0  0  0
   28.9830   26.0400   46.7660 N   0  0  0  0  0  0  0  0  0  0  0  0
   30.0480   25.4140   46.2440 C   0  0  0  0  0  0  0  0  0  0  0  0
   31.1890   25.9490   46.8060 C   0  0  0  0  0  0  0  0  0  0  0  0
   32.5360   25.6700   46.6230 C   0  0  0  0  0  0  0  0  0  0  0  0
   34.4800   26.2520   47.2730 H   0  0  0  0  0  0  0  0  0  0  0  0
   31.2260   28.4040   49.0900 H   0  0  0  0  0  0  0  0  0  0  0  0
   28.7240   27.5680   48.1730 H   0  0  0  0  0  0  0  0  0  0  0  0
   30.0400   24.6220   45.5080 H   0  0  0  0  0  0  0  0  0  0  0  0
   32.8780   24.9110   45.9360 H   0  0  0  0  0  0  0  0  0  0  0  0
   37.0550   29.4990   50.1310 C   0  0  0  0  0  0  0  0  0  0  0  0
   37.7320   28.8310   50.9490 O   0  0  0  0  0  0  0  0  0  0  0  0
   37.5710   30.6470   49.4330 C   0  0  0  0  0  0  0  0  0  0  0  0
   37.4460   31.8930   50.0530 C   0  0  0  0  0  0  0  0  0  0  0  0
   37.9320   33.0180   49.4090 C   0  0  0  0  0  0  0  0  0  0  0  0
   38.5100   32.8380   48.1890 N   0  0  0  0  0  0  0  0  0  0  0  0
   38.6200   31.6480   47.6110 C   0  0  0  0  0  0  0  0  0  0  0  0
   38.1530   30.5520   48.2290 N   0  0  0  0  0  0  0  0  0  0  0  0
   36.9900   32.0630   51.0240 H   0  0  0  0  0  0  0  0  0  0  0  0
   37.8750   34.0110   49.8190 H   0  0  0  0  0  0  0  0  0  0  0  0
   39.2520   31.5270   46.3010 C   0  0  0  0  0  0  0  0  0  0  0  0
   38.9690   30.4480   45.4870 C   0  0  0  0  0  0  0  0  0  0  0  0
   39.5180   30.2370   44.2170 C   0  0  0  0  0  0  0  0  0  0  0  0
   39.2430   29.3650   43.6450 H   0  0  0  0  0  0  0  0  0  0  0  0
   40.3870   31.1960   43.8060 N   0  0  0  0  0  0  0  0  0  0  0  0
   40.6780   32.2560   44.5810 C   0  0  0  0  0  0  0  0  0  0  0  0
   40.1310   32.4430   45.8170 N   0  0  0  0  0  0  0  0  0  0  0  0
  1 22  1  0  0  0  0
  1  2  2  0  0  0  0
  2  6  1  0  0  0  0
  3  7  1  0  0  0  0
  3  2  1  0  0  0  0
  4  3  2  0  0  0  0
  5  4  1  0  0  0  0
  5  1  1  0  0  0  0
  8  9  1  0  0  0  0
  9 10  2  0  0  0  0
  9  4  1  0  0  0  0
 10 18  1  0  0  0  0
 11 10  1  0  0  0  0
 12 11  1  0  0  0  0
 12 19  1  0  0  0  0
 13 12  1  0  0  0  0
 14 13  2  0  0  0  0
 14 15  1  0  0  0  0
 15 11  2  0  0  0  0
 16 15  1  0  0  0  0
 16  8  2  0  0  0  0
 17  8  1  0  0  0  0
 20 14  1  0  0  0  0
 21 16  1  0  0  0  0
 22 23  2  0  0  0  0
 24 25  1  0  0  0  0
 24 22  1  0  0  0  0
 25 30  1  0  0  0  0
 26 31  1  0  0  0  0
 26 25  2  0  0  0  0
 27 26  1  0  0  0  0
 28 27  2  0  0  0  0
 28 29  1  0  0  0  0
 29 24  2  0  0  0  0
 32 28  1  0  0  0  0
 33 32  2  0  0  0  0
 34 33  1  0  0  0  0
 35 34  1  0  0  0  0
 36 34  2  0  0  0  0
 36 37  1  0  0  0  0
 37 38  2  0  0  0  0
 38 32  1  0  0  0  0
M  END
>  <minimizedAffinity>
-7.12162685

>  <minimizedRMSD>
0.699431777

$$$$
