
 OpenBabel03272505533D

 42 45  0  0  1  0  0  0  0  0999 V2000
   35.7460   21.0040   35.9410 C   0  0  0  0  0  0  0  0  0  0  0  0
   35.6230   20.6840   34.5720 C   0  0  0  0  0  0  0  0  0  0  0  0
   36.6410   21.1190   33.7260 C   0  0  0  0  0  0  0  0  0  0  0  0
   37.6780   21.8160   34.2640 N   0  0  0  0  0  0  0  0  0  0  0  0
   37.7570   22.0970   35.5610 C   0  0  0  0  0  0  0  0  0  0  0  0
   36.7900   21.6900   36.3990 N   0  0  0  0  0  0  0  0  0  0  0  0
   38.8540   22.8250   36.0640 N   0  0  0  0  0  0  0  0  0  0  0  0
   39.3350   22.6910   37.4500 C   0  0  0  0  0  0  0  0  0  0  0  0
   40.7870   22.3640   37.4440 C   0  0  0  0  0  0  0  0  0  0  0  0
   41.4530   22.5200   36.2410 N   0  0  0  0  0  0  0  0  0  0  0  0
   41.0230   23.5360   35.3140 C   0  0  0  0  0  0  0  0  0  0  0  0
   39.5840   23.7650   35.2220 C   0  0  2  0  0  0  0  0  0  0  0  0
   34.9650   20.6720   36.6050 H   0  0  0  0  0  0  0  0  0  0  0  0
   34.7930   20.1310   34.1620 H   0  0  0  0  0  0  0  0  0  0  0  0
   36.6260   20.9150   32.6450 H   0  0  0  0  0  0  0  0  0  0  0  0
   38.7250   21.9430   37.9990 H   0  0  0  0  0  0  0  0  0  0  0  0
   39.1080   23.6620   37.9590 H   0  0  0  0  0  0  0  0  0  0  0  0
   40.9200   21.3410   37.8320 H   0  0  0  0  0  0  0  0  0  0  0  0
   41.2610   23.0240   38.2270 H   0  0  0  0  0  0  0  0  0  0  0  0
   41.5920   21.5960   35.7610 H   0  0  0  0  0  0  0  0  0  0  0  0
   41.6890   24.3400   35.6710 H   0  0  0  0  0  0  0  0  0  0  0  0
   41.4220   23.2420   34.3180 H   0  0  0  0  0  0  0  0  0  0  0  0
   39.2090   23.6520   34.1750 H   0  0  0  0  0  0  0  0  0  0  0  0
   39.2160   25.0890   35.6350 N   0  0  2  0  0  0  0  0  0  0  0  0
   37.7800   25.3090   35.6400 C   0  0  0  0  0  0  0  0  0  0  0  0
   37.5700   26.7880   35.3560 C   0  0  0  0  0  0  0  0  0  0  0  0
   38.9470   27.3410   35.2940 C   0  0  0  0  0  0  0  0  0  0  0  0
   39.7260   26.1190   34.8180 C   0  0  2  0  0  0  0  0  0  0  0  0
   37.4760   25.1440   36.7140 H   0  0  0  0  0  0  0  0  0  0  0  0
   37.1980   24.6320   35.0300 H   0  0  0  0  0  0  0  0  0  0  0  0
   36.9150   26.9820   34.5110 H   0  0  0  0  0  0  0  0  0  0  0  0
   37.0310   27.2700   36.2370 H   0  0  0  0  0  0  0  0  0  0  0  0
   39.3010   27.6820   36.2860 H   0  0  0  0  0  0  0  0  0  0  0  0
   38.9970   28.1890   34.5760 H   0  0  0  0  0  0  0  0  0  0  0  0
   40.7660   26.4080   34.9470 H   0  0  0  0  0  0  0  0  0  0  0  0
   39.2630   26.1200   33.3960 C   0  0  0  0  0  0  0  0  0  0  0  0
   39.0190   27.2240   32.6020 C   0  0  0  0  0  3  0  0  0  0  0  0
   38.6140   27.1920   31.2890 C   0  0  0  0  0  0  0  0  0  0  0  0
   38.4540   28.1270   30.7670 H   0  0  0  0  0  0  0  0  0  0  0  0
   38.4460   25.9680   30.7500 N   0  0  0  0  0  0  0  0  0  0  0  0
   38.6670   24.8530   31.4710 C   0  0  0  0  0  3  0  0  0  0  0  0
   39.0570   24.9710   32.7350 N   0  0  0  0  0  0  0  0  0  0  0  0
  1  6  1  0  0  0  0
  1 13  1  0  0  0  0
  2  1  2  0  0  0  0
  3  4  2  0  0  0  0
  3  2  1  0  0  0  0
  4  5  1  0  0  0  0
  5  7  1  0  0  0  0
  5  6  2  0  0  0  0
  7  8  1  0  0  0  0
  8 17  1  0  0  0  0
  8 16  1  0  0  0  0
  9  8  1  0  0  0  0
  9 18  1  0  0  0  0
  9 19  1  0  0  0  0
 10  9  1  0  0  0  0
 11 21  1  0  0  0  0
 11 10  1  0  0  0  0
 12 23  1  6  0  0  0
 12 11  1  0  0  0  0
 12 24  1  0  0  0  0
 12  7  1  0  0  0  0
 14  2  1  0  0  0  0
 15  3  1  0  0  0  0
 20 10  1  0  0  0  0
 22 11  1  0  0  0  0
 24 25  1  6  0  0  0
 25 29  1  0  0  0  0
 26 25  1  0  0  0  0
 26 32  1  0  0  0  0
 27 26  1  0  0  0  0
 27 33  1  0  0  0  0
 28 35  1  1  0  0  0
 28 27  1  0  0  0  0
 28 24  1  0  0  0  0
 30 25  1  0  0  0  0
 31 26  1  0  0  0  0
 34 27  1  0  0  0  0
 36 28  1  0  0  0  0
 37 36  2  0  0  0  0
 38 37  1  0  0  0  0
 39 38  1  0  0  0  0
 40 38  2  0  0  0  0
 40 41  1  0  0  0  0
 41 42  2  0  0  0  0
 42 36  1  0  0  0  0
M  END
>  <minimizedAffinity>
-5.7205534

$$$$

 OpenBabel03272505533D

 42 45  0  0  1  0  0  0  0  0999 V2000
   39.8500   22.8190   37.8790 C   0  0  0  0  0  0  0  0  0  0  0  0
   38.8100   23.4510   38.5930 C   0  0  0  0  0  0  0  0  0  0  0  0
   37.7790   24.0130   37.8430 C   0  0  0  0  0  0  0  0  0  0  0  0
   37.8370   23.9190   36.4870 N   0  0  0  0  0  0  0  0  0  0  0  0
   38.8360   23.3140   35.8520 C   0  0  0  0  0  0  0  0  0  0  0  0
   39.8430   22.7640   36.5500 N   0  0  0  0  0  0  0  0  0  0  0  0
   38.8460   23.2480   34.4440 N   0  0  0  0  0  0  0  0  0  0  0  0
   39.5200   22.1710   33.6990 C   0  0  0  0  0  0  0  0  0  0  0  0
   38.5540   21.5350   32.7610 C   0  0  0  0  0  0  0  0  0  0  0  0
   37.3620   22.2030   32.5520 N   0  0  0  0  0  0  0  0  0  0  0  0
   37.3280   23.6430   32.6250 C   0  0  0  0  0  0  0  0  0  0  0  0
   38.1770   24.2620   33.6380 C   0  0  2  0  0  0  0  0  0  0  0  0
   40.6540   22.3800   38.4480 H   0  0  0  0  0  0  0  0  0  0  0  0
   38.7800   23.5170   39.6690 H   0  0  0  0  0  0  0  0  0  0  0  0
   36.9280   24.5250   38.3170 H   0  0  0  0  0  0  0  0  0  0  0  0
   39.9820   21.4460   34.4020 H   0  0  0  0  0  0  0  0  0  0  0  0
   40.3900   22.6430   33.1760 H   0  0  0  0  0  0  0  0  0  0  0  0
   38.3680   20.5020   33.0950 H   0  0  0  0  0  0  0  0  0  0  0  0
   39.1000   21.4170   31.7810 H   0  0  0  0  0  0  0  0  0  0  0  0
   36.5820   21.7730   33.1070 H   0  0  0  0  0  0  0  0  0  0  0  0
   37.5090   23.8400   31.5550 H   0  0  0  0  0  0  0  0  0  0  0  0
   36.2660   23.9230   32.8010 H   0  0  0  0  0  0  0  0  0  0  0  0
   37.5930   24.9200   34.3280 H   0  0  0  0  0  0  0  0  0  0  0  0
   39.1930   25.0950   33.0610 N   0  0  2  0  0  0  0  0  0  0  0  0
   39.8980   25.9020   34.0430 C   0  0  0  0  0  0  0  0  0  0  0  0
   40.3420   27.1650   33.3230 C   0  0  0  0  0  0  0  0  0  0  0  0
   39.9220   26.9420   31.9150 C   0  0  0  0  0  0  0  0  0  0  0  0
   38.7190   26.0260   32.1160 C   0  0  2  0  0  0  0  0  0  0  0  0
   40.8360   25.3150   34.2660 H   0  0  0  0  0  0  0  0  0  0  0  0
   39.3820   26.0590   34.9800 H   0  0  0  0  0  0  0  0  0  0  0  0
   40.0110   28.0820   33.8040 H   0  0  0  0  0  0  0  0  0  0  0  0
   41.4790   27.2360   33.3490 H   0  0  0  0  0  0  0  0  0  0  0  0
   40.7120   26.4440   31.3220 H   0  0  0  0  0  0  0  0  0  0  0  0
   39.6520   27.9060   31.4290 H   0  0  0  0  0  0  0  0  0  0  0  0
   38.4940   25.6710   31.1130 H   0  0  0  0  0  0  0  0  0  0  0  0
   37.7610   27.0540   32.6290 C   0  0  0  0  0  0  0  0  0  0  0  0
   37.2270   27.1320   33.9010 C   0  0  0  0  0  3  0  0  0  0  0  0
   36.3630   28.1020   34.3480 C   0  0  0  0  0  0  0  0  0  0  0  0
   36.0110   28.0580   35.3710 H   0  0  0  0  0  0  0  0  0  0  0  0
   36.0200   29.0480   33.4520 N   0  0  0  0  0  0  0  0  0  0  0  0
   36.5040   29.0280   32.1980 C   0  0  0  0  0  3  0  0  0  0  0  0
   37.3360   28.0550   31.8440 N   0  0  0  0  0  0  0  0  0  0  0  0
  1 13  1  0  0  0  0
  1  2  1  0  0  0  0
  2 14  1  0  0  0  0
  3 15  1  0  0  0  0
  3  2  2  0  0  0  0
  4  3  1  0  0  0  0
  5  4  2  0  0  0  0
  5  6  1  0  0  0  0
  6  1  2  0  0  0  0
  7  5  1  0  0  0  0
  8 16  1  0  0  0  0
  8  7  1  0  0  0  0
  9 18  1  0  0  0  0
  9  8  1  0  0  0  0
 10 11  1  0  0  0  0
 10  9  1  0  0  0  0
 10 20  1  0  0  0  0
 11 22  1  0  0  0  0
 11 12  1  0  0  0  0
 12 23  1  1  0  0  0
 12  7  1  0  0  0  0
 17  8  1  0  0  0  0
 19  9  1  0  0  0  0
 21 11  1  0  0  0  0
 24 12  1  0  0  0  0
 24 25  1  1  0  0  0
 25 29  1  0  0  0  0
 25 30  1  0  0  0  0
 26 32  1  0  0  0  0
 26 31  1  0  0  0  0
 26 25  1  0  0  0  0
 27 28  1  0  0  0  0
 27 26  1  0  0  0  0
 28 35  1  6  0  0  0
 28 36  1  0  0  0  0
 28 24  1  0  0  0  0
 33 27  1  0  0  0  0
 34 27  1  0  0  0  0
 36 37  1  0  0  0  0
 37 38  2  0  0  0  0
 38 39  1  0  0  0  0
 40 38  1  0  0  0  0
 41 40  2  0  0  0  0
 42 41  1  0  0  0  0
 42 36  2  0  0  0  0
M  END
>  <minimizedAffinity>
-5.53606844

$$$$

 OpenBabel03272505533D

 42 45  0  0  1  0  0  0  0  0999 V2000
   44.1450   25.3140   35.9700 C   0  0  0  0  0  0  0  0  0  0  0  0
   44.0960   24.1050   36.6960 C   0  0  0  0  0  0  0  0  0  0  0  0
   43.0760   23.2140   36.3710 C   0  0  0  0  0  0  0  0  0  0  0  0
   42.2010   23.5580   35.3880 N   0  0  0  0  0  0  0  0  0  0  0  0
   42.2820   24.7090   34.7270 C   0  0  0  0  0  0  0  0  0  0  0  0
   43.2560   25.5870   35.0190 N   0  0  0  0  0  0  0  0  0  0  0  0
   41.3480   25.0150   33.7180 N   0  0  0  0  0  0  0  0  0  0  0  0
   41.6550   25.9050   32.5860 C   0  0  0  0  0  0  0  0  0  0  0  0
   41.3600   25.2040   31.3060 C   0  0  0  0  0  0  0  0  0  0  0  0
   40.6260   24.0350   31.3950 N   0  0  0  0  0  0  0  0  0  0  0  0
   39.6530   23.8820   32.4470 C   0  0  0  0  0  0  0  0  0  0  0  0
   40.0010   24.4550   33.7430 C   0  0  2  0  0  0  0  0  0  0  0  0
   44.9300   26.0130   36.2120 H   0  0  0  0  0  0  0  0  0  0  0  0
   44.7980   23.8490   37.4740 H   0  0  0  0  0  0  0  0  0  0  0  0
   42.9620   22.2480   36.8870 H   0  0  0  0  0  0  0  0  0  0  0  0
   42.7050   26.2640   32.6510 H   0  0  0  0  0  0  0  0  0  0  0  0
   41.0380   26.8280   32.7310 H   0  0  0  0  0  0  0  0  0  0  0  0
   42.3090   25.0290   30.7740 H   0  0  0  0  0  0  0  0  0  0  0  0
   40.8110   25.9480   30.6600 H   0  0  0  0  0  0  0  0  0  0  0  0
   41.2460   23.1910   31.3190 H   0  0  0  0  0  0  0  0  0  0  0  0
   38.7830   24.2660   31.8870 H   0  0  0  0  0  0  0  0  0  0  0  0
   39.4760   22.7880   32.5530 H   0  0  0  0  0  0  0  0  0  0  0  0
   39.9600   23.6940   34.5610 H   0  0  0  0  0  0  0  0  0  0  0  0
   39.1040   25.5050   34.1330 N   0  0  2  0  0  0  0  0  0  0  0  0
   39.7340   26.5180   34.9620 C   0  0  0  0  0  0  0  0  0  0  0  0
   38.6420   27.0800   35.8590 C   0  0  0  0  0  0  0  0  0  0  0  0
   37.4100   26.3870   35.4020 C   0  0  0  0  0  0  0  0  0  0  0  0
   37.9930   25.0750   34.8860 C   0  0  2  0  0  0  0  0  0  0  0  0
   40.0080   27.3400   34.2390 H   0  0  0  0  0  0  0  0  0  0  0  0
   40.6400   26.2150   35.4680 H   0  0  0  0  0  0  0  0  0  0  0  0
   38.8790   27.0310   36.9190 H   0  0  0  0  0  0  0  0  0  0  0  0
   38.5200   28.1950   35.6560 H   0  0  0  0  0  0  0  0  0  0  0  0
   36.8970   26.9440   34.5940 H   0  0  0  0  0  0  0  0  0  0  0  0
   36.7060   26.2400   36.2500 H   0  0  0  0  0  0  0  0  0  0  0  0
   37.1630   24.6120   34.3580 H   0  0  0  0  0  0  0  0  0  0  0  0
   38.2990   24.4500   36.2100 C   0  0  0  0  0  0  0  0  0  0  0  0
   39.2070   23.4400   36.4630 C   0  0  0  0  0  3  0  0  0  0  0  0
   39.4800   22.9000   37.6970 C   0  0  0  0  0  0  0  0  0  0  0  0
   40.2160   22.1090   37.7710 H   0  0  0  0  0  0  0  0  0  0  0  0
   38.7920   23.4150   38.7350 N   0  0  0  0  0  0  0  0  0  0  0  0
   37.8940   24.4000   38.5550 C   0  0  0  0  0  3  0  0  0  0  0  0
   37.6880   24.8670   37.3290 N   0  0  0  0  0  0  0  0  0  0  0  0
  1 13  1  0  0  0  0
  1  2  1  0  0  0  0
  2 14  1  0  0  0  0
  3  2  2  0  0  0  0
  3 15  1  0  0  0  0
  4  3  1  0  0  0  0
  5  6  1  0  0  0  0
  5  4  2  0  0  0  0
  6  1  2  0  0  0  0
  7 12  1  0  0  0  0
  7  5  1  0  0  0  0
  8 16  1  0  0  0  0
  8 17  1  0  0  0  0
  8  7  1  0  0  0  0
  9 10  1  0  0  0  0
  9  8  1  0  0  0  0
 10 11  1  0  0  0  0
 11 22  1  0  0  0  0
 11 12  1  0  0  0  0
 12 24  1  0  0  0  0
 12 23  1  1  0  0  0
 18  9  1  0  0  0  0
 19  9  1  0  0  0  0
 20 10  1  0  0  0  0
 21 11  1  0  0  0  0
 24 28  1  0  0  0  0
 24 25  1  1  0  0  0
 25 30  1  0  0  0  0
 25 26  1  0  0  0  0
 26 31  1  0  0  0  0
 27 26  1  0  0  0  0
 27 34  1  0  0  0  0
 28 35  1  6  0  0  0
 28 27  1  0  0  0  0
 28 36  1  0  0  0  0
 29 25  1  0  0  0  0
 32 26  1  0  0  0  0
 33 27  1  0  0  0  0
 36 37  2  0  0  0  0
 36 42  1  0  0  0  0
 37 38  1  0  0  0  0
 38 39  1  0  0  0  0
 38 40  2  0  0  0  0
 41 40  1  0  0  0  0
 42 41  2  0  0  0  0
M  END
>  <minimizedAffinity>
-5.43824053

$$$$

 OpenBabel03272505533D

 42 45  0  0  1  0  0  0  0  0999 V2000
   36.1140   19.6780   31.5620 C   0  0  0  0  0  0  0  0  0  0  0  0
   35.5170   19.3380   32.7950 C   0  0  0  0  0  0  0  0  0  0  0  0
   35.5650   20.2960   33.8060 C   0  0  0  0  0  0  0  0  0  0  0  0
   36.1750   21.4840   33.5470 N   0  0  0  0  0  0  0  0  0  0  0  0
   36.7260   21.7650   32.3700 C   0  0  0  0  0  0  0  0  0  0  0  0
   36.6950   20.8610   31.3780 N   0  0  0  0  0  0  0  0  0  0  0  0
   37.3470   23.0130   32.1570 N   0  0  0  0  0  0  0  0  0  0  0  0
   37.4520   23.6370   30.8280 C   0  0  0  0  0  0  0  0  0  0  0  0
   36.8850   25.0130   30.8780 C   0  0  0  0  0  0  0  0  0  0  0  0
   36.6440   25.5390   32.1340 N   0  0  0  0  0  0  0  0  0  0  0  0
   37.4820   25.1520   33.2420 C   0  0  0  0  0  0  0  0  0  0  0  0
   37.9300   23.7630   33.2630 C   0  0  2  0  0  0  0  0  0  0  0  0
   36.0840   18.9460   30.7720 H   0  0  0  0  0  0  0  0  0  0  0  0
   35.0380   18.3910   32.9840 H   0  0  0  0  0  0  0  0  0  0  0  0
   35.1250   20.1160   34.7980 H   0  0  0  0  0  0  0  0  0  0  0  0
   36.9660   22.9970   30.0610 H   0  0  0  0  0  0  0  0  0  0  0  0
   38.5370   23.6220   30.5540 H   0  0  0  0  0  0  0  0  0  0  0  0
   35.9710   25.0400   30.2630 H   0  0  0  0  0  0  0  0  0  0  0  0
   37.6130   25.6730   30.3240 H   0  0  0  0  0  0  0  0  0  0  0  0
   35.6260   25.4780   32.3830 H   0  0  0  0  0  0  0  0  0  0  0  0
   38.2170   25.9690   33.1520 H   0  0  0  0  0  0  0  0  0  0  0  0
   36.9030   25.3750   34.1660 H   0  0  0  0  0  0  0  0  0  0  0  0
   37.6480   23.2470   34.2150 H   0  0  0  0  0  0  0  0  0  0  0  0
   39.3560   23.6490   33.1590 N   0  0  2  0  0  0  0  0  0  0  0  0
   39.8260   22.2740   33.1960 C   0  0  0  0  0  0  0  0  0  0  0  0
   41.2180   22.3120   33.8040 C   0  0  0  0  0  0  0  0  0  0  0  0
   41.4880   23.7600   33.9970 C   0  0  0  0  0  0  0  0  0  0  0  0
   40.0710   24.2920   34.1890 C   0  0  2  0  0  0  0  0  0  0  0  0
   39.9590   21.9960   32.1100 H   0  0  0  0  0  0  0  0  0  0  0  0
   39.1470   21.5570   33.6340 H   0  0  0  0  0  0  0  0  0  0  0  0
   41.3360   21.6630   34.6680 H   0  0  0  0  0  0  0  0  0  0  0  0
   41.9720   21.9060   33.0520 H   0  0  0  0  0  0  0  0  0  0  0  0
   41.9700   24.2130   33.1090 H   0  0  0  0  0  0  0  0  0  0  0  0
   42.1330   23.9240   34.8880 H   0  0  0  0  0  0  0  0  0  0  0  0
   40.1910   25.3720   34.1340 H   0  0  0  0  0  0  0  0  0  0  0  0
   39.8410   23.7730   35.5720 C   0  0  0  0  0  0  0  0  0  0  0  0
   40.7430   23.0870   36.3640 C   0  0  0  0  0  3  0  0  0  0  0  0
   40.5070   22.6400   37.6420 C   0  0  0  0  0  0  0  0  0  0  0  0
   41.2940   22.1130   38.1650 H   0  0  0  0  0  0  0  0  0  0  0  0
   39.2850   22.9040   38.1460 N   0  0  0  0  0  0  0  0  0  0  0  0
   38.3630   23.5670   37.4260 C   0  0  0  0  0  3  0  0  0  0  0  0
   38.6700   23.9650   36.1970 N   0  0  0  0  0  0  0  0  0  0  0  0
  1  2  1  0  0  0  0
  2 14  1  0  0  0  0
  2  3  2  0  0  0  0
  3 15  1  0  0  0  0
  4  3  1  0  0  0  0
  5  4  2  0  0  0  0
  6  1  2  0  0  0  0
  6  5  1  0  0  0  0
  7  5  1  0  0  0  0
  7 12  1  0  0  0  0
  8  9  1  0  0  0  0
  8  7  1  0  0  0  0
  9 10  1  0  0  0  0
 10 20  1  0  0  0  0
 10 11  1  0  0  0  0
 11 12  1  0  0  0  0
 11 22  1  0  0  0  0
 12 23  1  1  0  0  0
 13  1  1  0  0  0  0
 16  8  1  0  0  0  0
 17  8  1  0  0  0  0
 18  9  1  0  0  0  0
 19  9  1  0  0  0  0
 21 11  1  0  0  0  0
 24 25  1  1  0  0  0
 24 12  1  0  0  0  0
 24 28  1  0  0  0  0
 25 30  1  0  0  0  0
 25 26  1  0  0  0  0
 26 27  1  0  0  0  0
 26 31  1  0  0  0  0
 27 28  1  0  0  0  0
 27 34  1  0  0  0  0
 28 35  1  6  0  0  0
 28 36  1  0  0  0  0
 29 25  1  0  0  0  0
 32 26  1  0  0  0  0
 33 27  1  0  0  0  0
 36 42  2  0  0  0  0
 36 37  1  0  0  0  0
 37 38  2  0  0  0  0
 38 40  1  0  0  0  0
 38 39  1  0  0  0  0
 41 40  2  0  0  0  0
 42 41  1  0  0  0  0
M  END
>  <minimizedAffinity>
-5.20964193

$$$$

 OpenBabel03272505533D

 42 45  0  0  1  0  0  0  0  0999 V2000
   41.7950   25.9950   29.6470 C   0  0  0  0  0  0  0  0  0  0  0  0
   41.8040   24.5850   29.6830 C   0  0  0  0  0  0  0  0  0  0  0  0
   40.6810   23.9590   30.2220 C   0  0  0  0  0  0  0  0  0  0  0  0
   39.6590   24.7350   30.6740 N   0  0  0  0  0  0  0  0  0  0  0  0
   39.6900   26.0630   30.6200 C   0  0  0  0  0  0  0  0  0  0  0  0
   40.7590   26.6930   30.1060 N   0  0  0  0  0  0  0  0  0  0  0  0
   38.6030   26.8180   31.1040 N   0  0  0  0  0  0  0  0  0  0  0  0
   38.2700   28.1590   30.5940 C   0  0  0  0  0  0  0  0  0  0  0  0
   36.8480   28.1860   30.1530 C   0  0  0  0  0  0  0  0  0  0  0  0
   36.0590   27.1180   30.5400 N   0  0  0  0  0  0  0  0  0  0  0  0
   36.3300   26.4450   31.7860 C   0  0  0  0  0  0  0  0  0  0  0  0
   37.7340   26.3000   32.1550 C   0  0  2  0  0  0  0  0  0  0  0  0
   42.6570   26.4910   29.2320 H   0  0  0  0  0  0  0  0  0  0  0  0
   42.6230   23.9850   29.3220 H   0  0  0  0  0  0  0  0  0  0  0  0
   40.6030   22.8640   30.2910 H   0  0  0  0  0  0  0  0  0  0  0  0
   38.9780   28.4530   29.7900 H   0  0  0  0  0  0  0  0  0  0  0  0
   38.4830   28.8770   31.4270 H   0  0  0  0  0  0  0  0  0  0  0  0
   36.8210   28.3140   29.0600 H   0  0  0  0  0  0  0  0  0  0  0  0
   36.4120   29.1450   30.5570 H   0  0  0  0  0  0  0  0  0  0  0  0
   35.9340   26.4340   29.7540 H   0  0  0  0  0  0  0  0  0  0  0  0
   35.6510   27.0440   32.4170 H   0  0  0  0  0  0  0  0  0  0  0  0
   35.8540   25.4420   31.7110 H   0  0  0  0  0  0  0  0  0  0  0  0
   38.0110   25.2320   32.3350 H   0  0  0  0  0  0  0  0  0  0  0  0
   38.0550   27.0020   33.3650 N   0  0  2  0  0  0  0  0  0  0  0  0
   39.4760   26.9990   33.6700 C   0  0  0  0  0  0  0  0  0  0  0  0
   39.5910   27.0700   35.1840 C   0  0  0  0  0  0  0  0  0  0  0  0
   38.1850   27.2000   35.6460 C   0  0  0  0  0  0  0  0  0  0  0  0
   37.4460   26.4790   34.5230 C   0  0  2  0  0  0  0  0  0  0  0  0
   39.8480   27.9890   33.2750 H   0  0  0  0  0  0  0  0  0  0  0  0
   40.0560   26.2210   33.1960 H   0  0  0  0  0  0  0  0  0  0  0  0
   40.1860   26.2680   35.6150 H   0  0  0  0  0  0  0  0  0  0  0  0
   40.1520   28.0170   35.4780 H   0  0  0  0  0  0  0  0  0  0  0  0
   37.8700   28.2590   35.7180 H   0  0  0  0  0  0  0  0  0  0  0  0
   38.0500   26.7090   36.6340 H   0  0  0  0  0  0  0  0  0  0  0  0
   36.4010   26.7160   34.7060 H   0  0  0  0  0  0  0  0  0  0  0  0
   37.8270   25.0800   34.8910 C   0  0  0  0  0  0  0  0  0  0  0  0
   37.9790   24.5670   36.1650 C   0  0  0  0  0  3  0  0  0  0  0  0
   38.3100   23.2690   36.4710 C   0  0  0  0  0  0  0  0  0  0  0  0
   38.4000   22.9830   37.5110 H   0  0  0  0  0  0  0  0  0  0  0  0
   38.4990   22.4420   35.4230 N   0  0  0  0  0  0  0  0  0  0  0  0
   38.3660   22.8810   34.1580 C   0  0  0  0  0  3  0  0  0  0  0  0
   38.0440   24.1520   33.9470 N   0  0  0  0  0  0  0  0  0  0  0  0
  1  2  2  0  0  0  0
  1  6  1  0  0  0  0
  2  3  1  0  0  0  0
  3 15  1  0  0  0  0
  3  4  2  0  0  0  0
  5  4  1  0  0  0  0
  5  7  1  0  0  0  0
  6  5  2  0  0  0  0
  7 12  1  0  0  0  0
  8  7  1  0  0  0  0
  8 17  1  0  0  0  0
  9 10  1  0  0  0  0
  9 19  1  0  0  0  0
  9  8  1  0  0  0  0
 10 11  1  0  0  0  0
 11 12  1  0  0  0  0
 11 21  1  0  0  0  0
 12 23  1  1  0  0  0
 12 24  1  0  0  0  0
 13  1  1  0  0  0  0
 14  2  1  0  0  0  0
 16  8  1  0  0  0  0
 18  9  1  0  0  0  0
 20 10  1  0  0  0  0
 22 11  1  0  0  0  0
 24 25  1  1  0  0  0
 24 28  1  0  0  0  0
 25 26  1  0  0  0  0
 26 32  1  0  0  0  0
 26 31  1  0  0  0  0
 26 27  1  0  0  0  0
 27 33  1  0  0  0  0
 27 34  1  0  0  0  0
 28 35  1  1  0  0  0
 28 36  1  0  0  0  0
 28 27  1  0  0  0  0
 29 25  1  0  0  0  0
 30 25  1  0  0  0  0
 36 37  1  0  0  0  0
 37 38  2  0  0  0  0
 38 39  1  0  0  0  0
 40 38  1  0  0  0  0
 41 40  2  0  0  0  0
 42 41  1  0  0  0  0
 42 36  2  0  0  0  0
M  END
>  <minimizedAffinity>
-5.20051336

$$$$

 OpenBabel03272505533D

 42 45  0  0  1  0  0  0  0  0999 V2000
   39.3520   26.1500   35.2540 C   0  0  0  0  0  0  0  0  0  0  0  0
   38.7100   27.1670   35.9930 C   0  0  0  0  0  0  0  0  0  0  0  0
   37.5830   27.7510   35.4180 C   0  0  0  0  0  0  0  0  0  0  0  0
   37.1760   27.3120   34.1960 N   0  0  0  0  0  0  0  0  0  0  0  0
   37.8100   26.3500   33.5330 C   0  0  0  0  0  0  0  0  0  0  0  0
   38.8990   25.7700   34.0630 N   0  0  0  0  0  0  0  0  0  0  0  0
   37.3440   25.9350   32.2690 N   0  0  0  0  0  0  0  0  0  0  0  0
   37.5690   24.5800   31.7390 C   0  0  0  0  0  0  0  0  0  0  0  0
   36.2660   23.9760   31.3470 C   0  0  0  0  0  0  0  0  0  0  0  0
   35.1820   24.8340   31.2750 N   0  0  0  0  0  0  0  0  0  0  0  0
   35.3860   26.2120   30.9050 C   0  0  0  0  0  0  0  0  0  0  0  0
   36.6030   26.8450   31.4030 C   0  0  2  0  0  0  0  0  0  0  0  0
   40.2250   25.6900   35.6890 H   0  0  0  0  0  0  0  0  0  0  0  0
   39.0470   27.5030   36.9610 H   0  0  0  0  0  0  0  0  0  0  0  0
   37.0220   28.5510   35.9240 H   0  0  0  0  0  0  0  0  0  0  0  0
   38.1260   23.9650   32.4770 H   0  0  0  0  0  0  0  0  0  0  0  0
   38.2770   24.6890   30.8790 H   0  0  0  0  0  0  0  0  0  0  0  0
   36.0510   23.1330   32.0220 H   0  0  0  0  0  0  0  0  0  0  0  0
   36.4330   23.4940   30.3410 H   0  0  0  0  0  0  0  0  0  0  0  0
   34.5750   24.7510   32.1280 H   0  0  0  0  0  0  0  0  0  0  0  0
   35.2300   26.0880   29.8200 H   0  0  0  0  0  0  0  0  0  0  0  0
   34.4940   26.7690   31.2700 H   0  0  0  0  0  0  0  0  0  0  0  0
   36.3820   27.7730   31.9870 H   0  0  0  0  0  0  0  0  0  0  0  0
   37.4820   27.2450   30.3420 N   0  0  2  0  0  0  0  0  0  0  0  0
   38.7930   27.6630   30.8110 C   0  0  0  0  0  0  0  0  0  0  0  0
   39.3000   28.6880   29.8090 C   0  0  0  0  0  0  0  0  0  0  0  0
   38.2480   28.7180   28.7610 C   0  0  0  0  0  0  0  0  0  0  0  0
   37.0190   28.3340   29.5770 C   0  0  2  0  0  0  0  0  0  0  0  0
   39.4390   26.7470   30.6850 H   0  0  0  0  0  0  0  0  0  0  0  0
   38.8480   27.9610   31.8480 H   0  0  0  0  0  0  0  0  0  0  0  0
   39.5840   29.6360   30.2600 H   0  0  0  0  0  0  0  0  0  0  0  0
   40.2650   28.3100   29.3350 H   0  0  0  0  0  0  0  0  0  0  0  0
   38.4430   27.9820   27.9580 H   0  0  0  0  0  0  0  0  0  0  0  0
   38.1680   29.7340   28.3150 H   0  0  0  0  0  0  0  0  0  0  0  0
   36.2570   28.1450   28.8250 H   0  0  0  0  0  0  0  0  0  0  0  0
   36.8450   29.6260   30.3110 C   0  0  0  0  0  0  0  0  0  0  0  0
   37.2370   30.8810   29.8880 C   0  0  0  0  0  3  0  0  0  0  0  0
   37.0450   32.0550   30.5770 C   0  0  0  0  0  0  0  0  0  0  0  0
   37.3970   32.9810   30.1420 H   0  0  0  0  0  0  0  0  0  0  0  0
   36.4180   31.9480   31.7650 N   0  0  0  0  0  0  0  0  0  0  0  0
   36.0120   30.7540   32.2340 C   0  0  0  0  0  3  0  0  0  0  0  0
   36.2370   29.6660   31.5050 N   0  0  0  0  0  0  0  0  0  0  0  0
  1 13  1  0  0  0  0
  1  2  1  0  0  0  0
  2 14  1  0  0  0  0
  3 15  1  0  0  0  0
  3  2  2  0  0  0  0
  4  3  1  0  0  0  0
  5  6  1  0  0  0  0
  5  4  2  0  0  0  0
  6  1  2  0  0  0  0
  7  5  1  0  0  0  0
  8  7  1  0  0  0  0
  8 16  1  0  0  0  0
  9  8  1  0  0  0  0
  9 18  1  0  0  0  0
 10  9  1  0  0  0  0
 10 20  1  0  0  0  0
 11 22  1  0  0  0  0
 11 10  1  0  0  0  0
 11 12  1  0  0  0  0
 12 23  1  1  0  0  0
 12  7  1  0  0  0  0
 17  8  1  0  0  0  0
 19  9  1  0  0  0  0
 21 11  1  0  0  0  0
 24 25  1  1  0  0  0
 24 12  1  0  0  0  0
 25 30  1  0  0  0  0
 26 31  1  0  0  0  0
 26 25  1  0  0  0  0
 27 28  1  0  0  0  0
 27 26  1  0  0  0  0
 28 35  1  6  0  0  0
 28 36  1  0  0  0  0
 28 24  1  0  0  0  0
 29 25  1  0  0  0  0
 32 26  1  0  0  0  0
 33 27  1  0  0  0  0
 34 27  1  0  0  0  0
 36 42  1  0  0  0  0
 37 36  2  0  0  0  0
 37 38  1  0  0  0  0
 38 40  2  0  0  0  0
 39 38  1  0  0  0  0
 40 41  1  0  0  0  0
 42 41  2  0  0  0  0
M  END
>  <minimizedAffinity>
-5.10508776

$$$$

 OpenBabel03272505533D

 42 45  0  0  1  0  0  0  0  0999 V2000
   38.3310   23.4610   36.7650 C   0  0  0  0  0  0  0  0  0  0  0  0
   37.8950   22.3280   36.0450 C   0  0  0  0  0  0  0  0  0  0  0  0
   38.1490   22.3140   34.6750 C   0  0  0  0  0  0  0  0  0  0  0  0
   38.7920   23.3770   34.1230 N   0  0  0  0  0  0  0  0  0  0  0  0
   39.1870   24.4260   34.8370 C   0  0  0  0  0  0  0  0  0  0  0  0
   38.9560   24.4670   36.1600 N   0  0  0  0  0  0  0  0  0  0  0  0
   39.8500   25.5020   34.2130 N   0  0  0  0  0  0  0  0  0  0  0  0
   40.8010   26.3750   34.9200 C   0  0  0  0  0  0  0  0  0  0  0  0
   42.0920   26.4080   34.1800 C   0  0  0  0  0  0  0  0  0  0  0  0
   42.0850   25.8900   32.8970 N   0  0  0  0  0  0  0  0  0  0  0  0
   40.8880   25.9780   32.0990 C   0  0  0  0  0  0  0  0  0  0  0  0
   39.6220   25.8120   32.8060 C   0  0  2  0  0  0  0  0  0  0  0  0
   38.1400   23.4830   37.8260 H   0  0  0  0  0  0  0  0  0  0  0  0
   37.3840   21.4940   36.4990 H   0  0  0  0  0  0  0  0  0  0  0  0
   37.8430   21.4710   34.0360 H   0  0  0  0  0  0  0  0  0  0  0  0
   40.9150   26.0470   35.9750 H   0  0  0  0  0  0  0  0  0  0  0  0
   40.3140   27.3810   34.9940 H   0  0  0  0  0  0  0  0  0  0  0  0
   42.8630   25.9160   34.7940 H   0  0  0  0  0  0  0  0  0  0  0  0
   42.4090   27.4910   34.1490 H   0  0  0  0  0  0  0  0  0  0  0  0
   42.4900   24.9210   32.8770 H   0  0  0  0  0  0  0  0  0  0  0  0
   41.1230   26.9340   31.6020 H   0  0  0  0  0  0  0  0  0  0  0  0
   40.9820   25.2020   31.3070 H   0  0  0  0  0  0  0  0  0  0  0  0
   39.0030   24.9900   32.3680 H   0  0  0  0  0  0  0  0  0  0  0  0
   38.8080   26.9930   32.7500 N   0  0  2  0  0  0  0  0  0  0  0  0
   37.8280   27.0640   33.8200 C   0  0  0  0  0  0  0  0  0  0  0  0
   36.6480   27.8500   33.2710 C   0  0  0  0  0  0  0  0  0  0  0  0
   37.0900   28.2600   31.9130 C   0  0  0  0  0  0  0  0  0  0  0  0
   38.0500   27.1250   31.5700 C   0  0  2  0  0  0  0  0  0  0  0  0
   38.3130   27.7200   34.6000 H   0  0  0  0  0  0  0  0  0  0  0  0
   37.5800   26.1250   34.2940 H   0  0  0  0  0  0  0  0  0  0  0  0
   35.6990   27.3270   33.3510 H   0  0  0  0  0  0  0  0  0  0  0  0
   36.4960   28.7920   33.8950 H   0  0  0  0  0  0  0  0  0  0  0  0
   37.6100   29.2370   31.9240 H   0  0  0  0  0  0  0  0  0  0  0  0
   36.2230   28.3140   31.2190 H   0  0  0  0  0  0  0  0  0  0  0  0
   38.5540   27.4750   30.6720 H   0  0  0  0  0  0  0  0  0  0  0  0
   37.0300   26.0600   31.3210 C   0  0  0  0  0  0  0  0  0  0  0  0
   37.2220   24.6930   31.3840 C   0  0  0  0  0  3  0  0  0  0  0  0
   36.2570   23.7380   31.1700 C   0  0  0  0  0  0  0  0  0  0  0  0
   36.5290   22.6930   31.2490 H   0  0  0  0  0  0  0  0  0  0  0  0
   35.0250   24.1970   30.8740 N   0  0  0  0  0  0  0  0  0  0  0  0
   34.7730   25.5160   30.7960 C   0  0  0  0  0  3  0  0  0  0  0  0
   35.7620   26.3740   31.0170 N   0  0  0  0  0  0  0  0  0  0  0  0
  1 13  1  0  0  0  0
  2 14  1  0  0  0  0
  2  1  2  0  0  0  0
  3  2  1  0  0  0  0
  4  3  2  0  0  0  0
  4  5  1  0  0  0  0
  5  6  2  0  0  0  0
  6  1  1  0  0  0  0
  7  5  1  0  0  0  0
  7  8  1  0  0  0  0
  8 17  1  0  0  0  0
  8 16  1  0  0  0  0
  9 18  1  0  0  0  0
  9  8  1  0  0  0  0
 10  9  1  0  0  0  0
 11 12  1  0  0  0  0
 11 10  1  0  0  0  0
 12 23  1  6  0  0  0
 12  7  1  0  0  0  0
 15  3  1  0  0  0  0
 19  9  1  0  0  0  0
 20 10  1  0  0  0  0
 21 11  1  0  0  0  0
 22 11  1  0  0  0  0
 24 12  1  0  0  0  0
 24 25  1  1  0  0  0
 25 30  1  0  0  0  0
 25 29  1  0  0  0  0
 26 31  1  0  0  0  0
 26 25  1  0  0  0  0
 26 32  1  0  0  0  0
 27 33  1  0  0  0  0
 27 26  1  0  0  0  0
 28 35  1  6  0  0  0
 28 27  1  0  0  0  0
 28 24  1  0  0  0  0
 34 27  1  0  0  0  0
 36 37  1  0  0  0  0
 36 28  1  0  0  0  0
 38 39  1  0  0  0  0
 38 37  2  0  0  0  0
 40 38  1  0  0  0  0
 41 40  2  0  0  0  0
 41 42  1  0  0  0  0
 42 36  2  0  0  0  0
M  END
>  <minimizedAffinity>
-5.05899477

$$$$

 OpenBabel03272505533D

 42 45  0  0  1  0  0  0  0  0999 V2000
   36.6050   28.0680   32.9860 C   0  0  0  0  0  0  0  0  0  0  0  0
   36.6470   27.9010   34.3860 C   0  0  0  0  0  0  0  0  0  0  0  0
   37.3450   26.7970   34.8710 C   0  0  0  0  0  0  0  0  0  0  0  0
   37.9360   25.9590   33.9770 N   0  0  0  0  0  0  0  0  0  0  0  0
   37.8730   26.1520   32.6630 C   0  0  0  0  0  0  0  0  0  0  0  0
   37.2070   27.2080   32.1680 N   0  0  0  0  0  0  0  0  0  0  0  0
   38.5040   25.2500   31.7820 N   0  0  0  0  0  0  0  0  0  0  0  0
   38.9890   25.6430   30.4490 C   0  0  0  0  0  0  0  0  0  0  0  0
   40.4270   25.2780   30.3150 C   0  0  0  0  0  0  0  0  0  0  0  0
   40.9440   24.4320   31.2790 N   0  0  0  0  0  0  0  0  0  0  0  0
   40.0900   23.4500   31.9000 C   0  0  0  0  0  0  0  0  0  0  0  0
   38.7110   23.8560   32.1530 C   0  0  2  0  0  0  0  0  0  0  0  0
   36.0680   28.9190   32.5980 H   0  0  0  0  0  0  0  0  0  0  0  0
   36.1710   28.5750   35.0810 H   0  0  0  0  0  0  0  0  0  0  0  0
   37.4280   26.5890   35.9480 H   0  0  0  0  0  0  0  0  0  0  0  0
   38.7980   26.7230   30.2710 H   0  0  0  0  0  0  0  0  0  0  0  0
   38.3350   25.1200   29.7060 H   0  0  0  0  0  0  0  0  0  0  0  0
   41.0200   26.2040   30.2500 H   0  0  0  0  0  0  0  0  0  0  0  0
   40.5370   24.8040   29.2970 H   0  0  0  0  0  0  0  0  0  0  0  0
   41.4980   24.9650   31.9940 H   0  0  0  0  0  0  0  0  0  0  0  0
   40.3040   22.6210   31.2030 H   0  0  0  0  0  0  0  0  0  0  0  0
   40.5820   23.1660   32.8560 H   0  0  0  0  0  0  0  0  0  0  0  0
   38.4330   23.7410   33.2300 H   0  0  0  0  0  0  0  0  0  0  0  0
   37.7670   23.0670   31.4150 N   0  0  2  0  0  0  0  0  0  0  0  0
   36.4130   23.5920   31.4720 C   0  0  0  0  0  0  0  0  0  0  0  0
   35.4830   22.3970   31.3390 C   0  0  0  0  0  0  0  0  0  0  0  0
   36.4000   21.2500   31.1210 C   0  0  0  0  0  0  0  0  0  0  0  0
   37.6450   21.7340   31.8560 C   0  0  2  0  0  0  0  0  0  0  0  0
   36.3040   24.1890   30.5200 H   0  0  0  0  0  0  0  0  0  0  0  0
   36.2010   24.2560   32.2980 H   0  0  0  0  0  0  0  0  0  0  0  0
   34.7610   22.3130   32.1480 H   0  0  0  0  0  0  0  0  0  0  0  0
   34.8370   22.5200   30.4080 H   0  0  0  0  0  0  0  0  0  0  0  0
   36.6070   21.0840   30.0460 H   0  0  0  0  0  0  0  0  0  0  0  0
   35.9760   20.3200   31.5600 H   0  0  0  0  0  0  0  0  0  0  0  0
   38.4140   21.0240   31.5600 H   0  0  0  0  0  0  0  0  0  0  0  0
   37.1460   21.5480   33.2540 C   0  0  0  0  0  0  0  0  0  0  0  0
   36.0500   20.8080   33.6530 C   0  0  0  0  0  3  0  0  0  0  0  0
   35.6290   20.6380   34.9510 C   0  0  0  0  0  0  0  0  0  0  0  0
   34.7520   20.0330   35.1410 H   0  0  0  0  0  0  0  0  0  0  0  0
   36.3630   21.2560   35.8970 N   0  0  0  0  0  0  0  0  0  0  0  0
   37.4420   21.9910   35.5730 C   0  0  0  0  0  3  0  0  0  0  0  0
   37.7820   22.1060   34.2950 N   0  0  0  0  0  0  0  0  0  0  0  0
  1  2  1  0  0  0  0
  2  3  2  0  0  0  0
  2 14  1  0  0  0  0
  3 15  1  0  0  0  0
  4  3  1  0  0  0  0
  5  4  2  0  0  0  0
  6  5  1  0  0  0  0
  6  1  2  0  0  0  0
  7 12  1  0  0  0  0
  7  5  1  0  0  0  0
  8  7  1  0  0  0  0
  9  8  1  0  0  0  0
  9 10  1  0  0  0  0
 10 11  1  0  0  0  0
 10 20  1  0  0  0  0
 11 12  1  0  0  0  0
 11 22  1  0  0  0  0
 12 23  1  1  0  0  0
 13  1  1  0  0  0  0
 16  8  1  0  0  0  0
 17  8  1  0  0  0  0
 18  9  1  0  0  0  0
 19  9  1  0  0  0  0
 21 11  1  0  0  0  0
 24 25  1  1  0  0  0
 24 28  1  0  0  0  0
 24 12  1  0  0  0  0
 25 30  1  0  0  0  0
 26 25  1  0  0  0  0
 26 31  1  0  0  0  0
 27 26  1  0  0  0  0
 27 34  1  0  0  0  0
 27 28  1  0  0  0  0
 28 35  1  6  0  0  0
 28 36  1  0  0  0  0
 29 25  1  0  0  0  0
 32 26  1  0  0  0  0
 33 27  1  0  0  0  0
 36 37  2  0  0  0  0
 36 42  1  0  0  0  0
 37 38  1  0  0  0  0
 38 39  1  0  0  0  0
 38 40  2  0  0  0  0
 41 40  1  0  0  0  0
 42 41  2  0  0  0  0
M  END
>  <minimizedAffinity>
-5.04993486

$$$$

 OpenBabel03272505533D

 42 45  0  0  1  0  0  0  0  0999 V2000
   36.7330   27.6820   30.8960 C   0  0  0  0  0  0  0  0  0  0  0  0
   35.8590   28.0670   31.9350 C   0  0  0  0  0  0  0  0  0  0  0  0
   36.3440   27.9690   33.2380 C   0  0  0  0  0  0  0  0  0  0  0  0
   37.6120   27.5140   33.4260 N   0  0  0  0  0  0  0  0  0  0  0  0
   38.4040   27.1610   32.4180 C   0  0  0  0  0  0  0  0  0  0  0  0
   37.9630   27.2450   31.1520 N   0  0  0  0  0  0  0  0  0  0  0  0
   39.7100   26.6950   32.6710 N   0  0  0  0  0  0  0  0  0  0  0  0
   40.8110   26.8350   31.7040 C   0  0  0  0  0  0  0  0  0  0  0  0
   41.9630   27.5150   32.3560 C   0  0  0  0  0  0  0  0  0  0  0  0
   41.9190   27.6260   33.7340 N   0  0  0  0  0  0  0  0  0  0  0  0
   41.2530   26.6100   34.5100 C   0  0  0  0  0  0  0  0  0  0  0  0
   40.0440   26.0360   33.9280 C   0  0  2  0  0  0  0  0  0  0  0  0
   36.3690   27.7540   29.8840 H   0  0  0  0  0  0  0  0  0  0  0  0
   34.8560   28.4250   31.7680 H   0  0  0  0  0  0  0  0  0  0  0  0
   35.7310   28.2470   34.1080 H   0  0  0  0  0  0  0  0  0  0  0  0
   40.4580   27.3610   30.7910 H   0  0  0  0  0  0  0  0  0  0  0  0
   41.0560   25.8020   31.3500 H   0  0  0  0  0  0  0  0  0  0  0  0
   42.0980   28.5040   31.8900 H   0  0  0  0  0  0  0  0  0  0  0  0
   42.8830   26.9360   32.0520 H   0  0  0  0  0  0  0  0  0  0  0  0
   41.6230   28.5890   34.0280 H   0  0  0  0  0  0  0  0  0  0  0  0
   42.1360   25.9740   34.6920 H   0  0  0  0  0  0  0  0  0  0  0  0
   41.0150   27.0730   35.4940 H   0  0  0  0  0  0  0  0  0  0  0  0
   39.1640   26.1330   34.6120 H   0  0  0  0  0  0  0  0  0  0  0  0
   40.1830   24.6340   33.6580 N   0  0  2  0  0  0  0  0  0  0  0  0
   38.9330   23.9980   33.2750 C   0  0  0  0  0  0  0  0  0  0  0  0
   39.0300   22.5510   33.7320 C   0  0  0  0  0  0  0  0  0  0  0  0
   40.4050   22.4380   34.2820 C   0  0  0  0  0  0  0  0  0  0  0  0
   40.6450   23.8700   34.7490 C   0  0  2  0  0  0  0  0  0  0  0  0
   38.9640   23.9790   32.1470 H   0  0  0  0  0  0  0  0  0  0  0  0
   38.0320   24.5180   33.5670 H   0  0  0  0  0  0  0  0  0  0  0  0
   38.2080   22.2390   34.3720 H   0  0  0  0  0  0  0  0  0  0  0  0
   38.9500   21.8610   32.8280 H   0  0  0  0  0  0  0  0  0  0  0  0
   41.1370   22.1400   33.5080 H   0  0  0  0  0  0  0  0  0  0  0  0
   40.4340   21.7040   35.1170 H   0  0  0  0  0  0  0  0  0  0  0  0
   41.7080   23.8940   34.9770 H   0  0  0  0  0  0  0  0  0  0  0  0
   39.7620   23.8460   35.9560 C   0  0  0  0  0  0  0  0  0  0  0  0
   39.8690   23.0060   37.0480 C   0  0  0  0  0  3  0  0  0  0  0  0
   39.0520   23.0230   38.1530 C   0  0  0  0  0  0  0  0  0  0  0  0
   39.2360   22.3130   38.9490 H   0  0  0  0  0  0  0  0  0  0  0  0
   38.0690   23.9440   38.1490 N   0  0  0  0  0  0  0  0  0  0  0  0
   37.9110   24.7900   37.1160 C   0  0  0  0  0  3  0  0  0  0  0  0
   38.7430   24.7090   36.0840 N   0  0  0  0  0  0  0  0  0  0  0  0
  1  6  2  0  0  0  0
  1  2  1  0  0  0  0
  2  3  2  0  0  0  0
  3  4  1  0  0  0  0
  3 15  1  0  0  0  0
  5  7  1  0  0  0  0
  5  4  2  0  0  0  0
  6  5  1  0  0  0  0
  7 12  1  0  0  0  0
  8  9  1  0  0  0  0
  8  7  1  0  0  0  0
  9 10  1  0  0  0  0
 10 20  1  0  0  0  0
 10 11  1  0  0  0  0
 11 21  1  0  0  0  0
 11 22  1  0  0  0  0
 12 11  1  0  0  0  0
 12 23  1  1  0  0  0
 13  1  1  0  0  0  0
 14  2  1  0  0  0  0
 16  8  1  0  0  0  0
 17  8  1  0  0  0  0
 18  9  1  0  0  0  0
 19  9  1  0  0  0  0
 24 25  1  1  0  0  0
 24 12  1  0  0  0  0
 24 28  1  0  0  0  0
 25 30  1  0  0  0  0
 25 26  1  0  0  0  0
 26 27  1  0  0  0  0
 26 31  1  0  0  0  0
 27 28  1  0  0  0  0
 27 34  1  0  0  0  0
 28 35  1  1  0  0  0
 28 36  1  0  0  0  0
 29 25  1  0  0  0  0
 32 26  1  0  0  0  0
 33 27  1  0  0  0  0
 36 42  2  0  0  0  0
 36 37  1  0  0  0  0
 37 38  2  0  0  0  0
 38 39  1  0  0  0  0
 40 38  1  0  0  0  0
 41 40  2  0  0  0  0
 42 41  1  0  0  0  0
M  END
>  <minimizedAffinity>
-4.99281693

$$$$
