
 OpenBabel03272507473D

 44 48  0  0  1  0  0  0  0  0999 V2000
   32.7160   28.1260   47.3840 N   0  0  0  0  0  0  0  0  0  0  0  0
   33.3700   27.6140   48.5410 C   0  0  0  0  0  0  0  0  0  0  0  0
   34.5320   28.3840   49.0410 C   0  0  0  0  0  0  0  0  0  0  0  0
   35.4210   28.9630   48.0330 C   0  0  1  0  0  0  0  0  0  0  0  0
   34.6550   29.4320   46.7810 C   0  0  0  0  0  0  0  0  0  0  0  0
   33.7210   28.2790   46.3700 C   0  0  0  0  0  0  0  0  0  0  0  0
   32.6110   27.5130   49.3500 H   0  0  0  0  0  0  0  0  0  0  0  0
   33.6980   26.5570   48.3230 H   0  0  0  0  0  0  0  0  0  0  0  0
   35.0950   27.7810   49.7730 H   0  0  0  0  0  0  0  0  0  0  0  0
   34.0250   29.2660   49.5580 H   0  0  0  0  0  0  0  0  0  0  0  0
   36.1200   28.2060   47.6280 H   0  0  0  0  0  0  0  0  0  0  0  0
   35.3940   29.6070   45.9970 H   0  0  0  0  0  0  0  0  0  0  0  0
   34.0190   30.2810   47.0530 H   0  0  0  0  0  0  0  0  0  0  0  0
   33.2610   28.5160   45.3860 H   0  0  0  0  0  0  0  0  0  0  0  0
   34.3220   27.3610   46.1890 H   0  0  0  0  0  0  0  0  0  0  0  0
   35.9020   30.6430   49.7530 C   0  0  0  0  0  0  0  0  0  0  0  0
   36.1770   30.1560   48.4860 C   0  0  0  0  0  0  0  0  0  0  0  0
   37.0820   30.7240   47.6310 C   0  0  0  0  0  0  0  0  0  0  0  0
   37.7640   31.8600   48.0660 C   0  0  0  0  0  0  0  0  0  0  0  0
   37.4920   32.3460   49.3200 C   0  0  0  0  0  0  0  0  0  0  0  0
   36.5720   31.7700   50.1930 C   0  0  0  0  0  0  0  0  0  0  0  0
   38.2730   33.4870   49.5740 O   0  0  0  0  0  0  0  0  0  0  0  0
   39.2700   33.4700   48.5600 C   0  0  0  0  0  0  0  0  0  0  0  0
   38.7290   32.7000   47.5150 O   0  0  0  0  0  0  0  0  0  0  0  0
   35.2260   30.2790   50.5140 H   0  0  0  0  0  0  0  0  0  0  0  0
   37.2680   30.3210   46.6670 H   0  0  0  0  0  0  0  0  0  0  0  0
   36.4090   32.2200   51.1880 H   0  0  0  0  0  0  0  0  0  0  0  0
   39.3590   34.5120   48.1690 H   0  0  0  0  0  0  0  0  0  0  0  0
   40.2520   33.1050   48.9230 H   0  0  0  0  0  0  0  0  0  0  0  0
   31.3270   28.4360   47.2240 C   0  0  0  0  0  0  0  0  0  0  0  0
   30.7450   29.0010   46.0930 C   0  0  0  0  0  0  0  0  0  0  0  0
   29.3720   29.2300   46.1300 C   0  0  0  0  0  0  0  0  0  0  0  0
   28.6810   28.8950   47.2470 N   0  0  0  0  0  0  0  0  0  0  0  0
   29.2700   28.3500   48.3260 C   0  0  0  0  0  0  0  0  0  0  0  0
   30.5820   28.1240   48.3090 N   0  0  0  0  0  0  0  0  0  0  0  0
   31.4140   29.2140   45.2850 H   0  0  0  0  0  0  0  0  0  0  0  0
   28.9350   29.6700   45.2440 H   0  0  0  0  0  0  0  0  0  0  0  0
   28.4260   28.0290   49.4740 C   0  0  0  0  0  0  0  0  0  0  0  0
   28.8940   27.2870   50.5410 C   0  0  0  0  0  0  0  0  0  0  0  0
   28.0390   27.0140   51.6080 C   0  0  0  0  0  0  0  0  0  0  0  0
   28.3860   26.4360   52.4500 H   0  0  0  0  0  0  0  0  0  0  0  0
   26.7700   27.4710   51.5970 N   0  0  0  0  0  0  0  0  0  0  0  0
   26.3390   28.1830   50.5650 C   0  0  0  0  0  0  0  0  0  0  0  0
   27.1680   28.4490   49.5270 N   0  0  0  0  0  0  0  0  0  0  0  0
  1  2  1  0  0  0  0
  2  3  1  0  0  0  0
  2  7  1  0  0  0  0
  3 10  1  0  0  0  0
  3  9  1  0  0  0  0
  4 11  1  6  0  0  0
  4 17  1  0  0  0  0
  4  3  1  0  0  0  0
  5 13  1  0  0  0  0
  5  4  1  0  0  0  0
  6  5  1  0  0  0  0
  6  1  1  0  0  0  0
  8  2  1  0  0  0  0
 12  5  1  0  0  0  0
 14  6  1  0  0  0  0
 15  6  1  0  0  0  0
 16 21  1  0  0  0  0
 16 25  1  0  0  0  0
 17 16  2  0  0  0  0
 18 19  2  0  0  0  0
 18 17  1  0  0  0  0
 19 20  1  0  0  0  0
 20 22  1  0  0  0  0
 20 21  2  0  0  0  0
 21 27  1  0  0  0  0
 23 29  1  0  0  0  0
 23 22  1  0  0  0  0
 24 19  1  0  0  0  0
 24 23  1  0  0  0  0
 26 18  1  0  0  0  0
 28 23  1  0  0  0  0
 30  1  1  0  0  0  0
 30 35  1  0  0  0  0
 31 32  1  0  0  0  0
 31 30  2  0  0  0  0
 32 33  2  0  0  0  0
 33 34  1  0  0  0  0
 34 38  1  0  0  0  0
 35 34  2  0  0  0  0
 36 31  1  0  0  0  0
 37 32  1  0  0  0  0
 38 44  2  0  0  0  0
 38 39  1  0  0  0  0
 39 40  2  0  0  0  0
 40 41  1  0  0  0  0
 42 40  1  0  0  0  0
 43 42  2  0  0  0  0
 44 43  1  0  0  0  0
M  END
>  <minimizedAffinity>
-7.64746571

>  <minimizedRMSD>
0.506442487

$$$$
