
 OpenBabel03272510223D

 34 37  0  0  0  0  0  0  0  0999 V2000
   35.2590   31.7310   31.9510 Br  0  0  0  0  0  0  0  0  0  0  0  0
   35.8980   29.9790   32.3520 C   0  0  0  0  0  0  0  0  0  0  0  0
   35.7600   29.4640   33.6370 C   0  0  0  0  0  0  0  0  0  0  0  0
   36.2460   28.1850   33.8600 C   0  0  0  0  0  0  0  0  0  0  0  0
   36.8470   27.4170   32.8820 C   0  0  0  0  0  0  0  0  0  0  0  0
   36.9610   27.9670   31.6310 C   0  0  0  0  0  0  0  0  0  0  0  0
   36.4880   29.2330   31.3840 C   0  0  0  0  0  0  0  0  0  0  0  0
   36.1700   27.7250   34.8360 H   0  0  0  0  0  0  0  0  0  0  0  0
   37.4250   27.4110   30.8200 H   0  0  0  0  0  0  0  0  0  0  0  0
   36.5830   29.6580   30.3900 H   0  0  0  0  0  0  0  0  0  0  0  0
   35.4430   31.7880   36.4260 C   0  0  0  0  0  0  0  0  0  0  0  0
   34.0450   31.7350   36.7350 C   0  0  0  0  0  0  0  0  0  0  0  0
   33.2420   30.8940   35.9670 C   0  0  0  0  0  0  0  0  0  0  0  0
   33.8170   30.1630   34.9640 N   0  0  0  0  0  0  0  0  0  0  0  0
   35.1330   30.2340   34.6990 C   0  0  0  0  0  0  0  0  0  0  0  0
   35.9270   31.0450   35.4340 N   0  0  0  0  0  0  0  0  0  0  0  0
   36.0580   32.4430   37.0260 H   0  0  0  0  0  0  0  0  0  0  0  0
   33.6040   32.3180   37.5290 H   0  0  0  0  0  0  0  0  0  0  0  0
   32.1780   30.7980   36.1360 H   0  0  0  0  0  0  0  0  0  0  0  0
   37.3520   26.0840   33.1170 C   0  0  0  0  0  0  0  0  0  0  0  0
   37.5790   25.1440   32.1440 C   0  0  0  0  0  0  0  0  0  0  0  0
   38.0640   23.8760   32.4020 C   0  0  0  0  0  0  0  0  0  0  0  0
   38.3340   23.5300   33.6760 N   0  0  0  0  0  0  0  0  0  0  0  0
   38.1180   24.4420   34.6440 C   0  0  0  0  0  0  0  0  0  0  0  0
   37.6510   25.6520   34.3550 N   0  0  0  0  0  0  0  0  0  0  0  0
   37.3610   25.4150   31.1000 H   0  0  0  0  0  0  0  0  0  0  0  0
   38.2210   23.1760   31.5720 H   0  0  0  0  0  0  0  0  0  0  0  0
   38.4050   24.0880   36.0290 C   0  0  0  0  0  0  0  0  0  0  0  0
   39.4570   23.2520   36.3380 C   0  0  0  0  0  3  0  0  0  0  0  0
   39.7320   22.9140   37.6480 C   0  0  0  0  0  0  0  0  0  0  0  0
   40.5810   22.2540   37.7380 H   0  0  0  0  0  0  0  0  0  0  0  0
   38.9640   23.4050   38.6440 N   0  0  0  0  0  0  0  0  0  0  0  0
   37.9230   24.2310   38.3520 C   0  0  0  0  0  3  0  0  0  0  0  0
   37.6690   24.5520   37.0550 N   0  0  0  0  0  0  0  0  0  0  0  0
  1  2  1  0  0  0  0
  2  3  1  0  0  0  0
  3  4  2  0  0  0  0
  3 15  1  0  0  0  0
  4  8  1  0  0  0  0
  5 20  1  0  0  0  0
  5  4  1  0  0  0  0
  6  5  2  0  0  0  0
  7  6  1  0  0  0  0
  7  2  2  0  0  0  0
  9  6  1  0  0  0  0
 10  7  1  0  0  0  0
 11 12  1  0  0  0  0
 11 17  1  0  0  0  0
 12 18  1  0  0  0  0
 13 19  1  0  0  0  0
 13 12  2  0  0  0  0
 14 13  1  0  0  0  0
 15 14  2  0  0  0  0
 15 16  1  0  0  0  0
 16 11  2  0  0  0  0
 20 25  1  0  0  0  0
 21 22  1  0  0  0  0
 21 20  2  0  0  0  0
 22 23  2  0  0  0  0
 23 24  1  0  0  0  0
 24 28  1  0  0  0  0
 25 24  2  0  0  0  0
 26 21  1  0  0  0  0
 27 22  1  0  0  0  0
 28 29  2  0  0  0  0
 28 34  1  0  0  0  0
 29 30  1  0  0  0  0
 30 31  1  0  0  0  0
 30 32  2  0  0  0  0
 33 32  1  0  0  0  0
 34 33  2  0  0  0  0
M  END
>  <minimizedAffinity>
-6.39993715

$$$$

 OpenBabel03272510223D

 34 37  0  0  0  0  0  0  0  0999 V2000
   37.9870   21.6160   33.3220 Br  0  0  0  0  0  0  0  0  0  0  0  0
   37.6030   23.4780   33.1580 C   0  0  0  0  0  0  0  0  0  0  0  0
   37.9150   24.3490   34.1970 C   0  0  0  0  0  0  0  0  0  0  0  0
   37.6100   25.6870   34.0120 C   0  0  0  0  0  0  0  0  0  0  0  0
   37.0210   26.1840   32.8650 C   0  0  0  0  0  0  0  0  0  0  0  0
   36.7320   25.2880   31.8680 C   0  0  0  0  0  0  0  0  0  0  0  0
   37.0250   23.9540   32.0270 C   0  0  0  0  0  0  0  0  0  0  0  0
   37.8260   26.4180   34.7800 H   0  0  0  0  0  0  0  0  0  0  0  0
   36.2680   25.6180   30.9420 H   0  0  0  0  0  0  0  0  0  0  0  0
   36.7920   23.2550   31.2310 H   0  0  0  0  0  0  0  0  0  0  0  0
   38.2350   23.3600   37.6900 C   0  0  0  0  0  0  0  0  0  0  0  0
   39.6140   22.9860   37.7970 C   0  0  0  0  0  0  0  0  0  0  0  0
   40.4020   23.0830   36.6520 C   0  0  0  0  0  0  0  0  0  0  0  0
   39.8330   23.5290   35.4910 N   0  0  0  0  0  0  0  0  0  0  0  0
   38.5360   23.8740   35.4230 C   0  0  0  0  0  0  0  0  0  0  0  0
   37.7560   23.7850   36.5240 N   0  0  0  0  0  0  0  0  0  0  0  0
   37.6310   23.2820   38.5830 H   0  0  0  0  0  0  0  0  0  0  0  0
   40.0510   22.6350   38.7200 H   0  0  0  0  0  0  0  0  0  0  0  0
   41.4520   22.8200   36.6480 H   0  0  0  0  0  0  0  0  0  0  0  0
   36.7040   27.5800   32.6740 C   0  0  0  0  0  0  0  0  0  0  0  0
   36.9710   28.3020   31.5390 C   0  0  0  0  0  0  0  0  0  0  0  0
   36.6530   29.6380   31.3880 C   0  0  0  0  0  0  0  0  0  0  0  0
   36.0470   30.2800   32.4050 N   0  0  0  0  0  0  0  0  0  0  0  0
   35.7760   29.5860   33.5270 C   0  0  0  0  0  0  0  0  0  0  0  0
   36.0970   28.3010   33.6330 N   0  0  0  0  0  0  0  0  0  0  0  0
   37.4670   27.7870   30.7020 H   0  0  0  0  0  0  0  0  0  0  0  0
   36.8980   30.1510   30.4490 H   0  0  0  0  0  0  0  0  0  0  0  0
   35.1190   30.2630   34.6390 C   0  0  0  0  0  0  0  0  0  0  0  0
   35.8200   31.1390   35.4420 C   0  0  0  0  0  3  0  0  0  0  0  0
   35.2020   31.7820   36.4960 C   0  0  0  0  0  0  0  0  0  0  0  0
   35.8720   32.4350   37.0350 H   0  0  0  0  0  0  0  0  0  0  0  0
   33.8960   31.5540   36.7500 N   0  0  0  0  0  0  0  0  0  0  0  0
   33.1940   30.6930   35.9650 C   0  0  0  0  0  3  0  0  0  0  0  0
   33.8210   30.0690   34.9310 N   0  0  0  0  0  0  0  0  0  0  0  0
  2  1  1  0  0  0  0
  2  3  1  0  0  0  0
  3 15  1  0  0  0  0
  4  3  2  0  0  0  0
  4  8  1  0  0  0  0
  5  4  1  0  0  0  0
  6  7  1  0  0  0  0
  6  5  2  0  0  0  0
  7  2  2  0  0  0  0
  9  6  1  0  0  0  0
 10  7  1  0  0  0  0
 11 12  1  0  0  0  0
 11 17  1  0  0  0  0
 12 18  1  0  0  0  0
 13 12  2  0  0  0  0
 14 13  1  0  0  0  0
 15 14  2  0  0  0  0
 15 16  1  0  0  0  0
 16 11  2  0  0  0  0
 19 13  1  0  0  0  0
 20  5  1  0  0  0  0
 20 25  1  0  0  0  0
 21 20  2  0  0  0  0
 22 21  1  0  0  0  0
 22 23  2  0  0  0  0
 23 24  1  0  0  0  0
 24 25  2  0  0  0  0
 24 28  1  0  0  0  0
 26 21  1  0  0  0  0
 27 22  1  0  0  0  0
 28 34  2  0  0  0  0
 28 29  1  0  0  0  0
 29 30  2  0  0  0  0
 30 32  1  0  0  0  0
 30 31  1  0  0  0  0
 33 32  2  0  0  0  0
 34 33  1  0  0  0  0
M  END
>  <minimizedAffinity>
-6.02067614

$$$$

 OpenBabel03272510223D

 34 37  0  0  0  0  0  0  0  0999 V2000
   35.1990   31.6060   32.0080 Br  0  0  0  0  0  0  0  0  0  0  0  0
   35.8970   29.9110   32.5390 C   0  0  0  0  0  0  0  0  0  0  0  0
   35.7580   29.4810   33.8550 C   0  0  0  0  0  0  0  0  0  0  0  0
   36.2870   28.2400   34.1720 C   0  0  0  0  0  0  0  0  0  0  0  0
   36.9320   27.4300   33.2580 C   0  0  0  0  0  0  0  0  0  0  0  0
   37.0450   27.8960   31.9730 C   0  0  0  0  0  0  0  0  0  0  0  0
   36.5280   29.1240   31.6330 C   0  0  0  0  0  0  0  0  0  0  0  0
   36.2140   27.8460   35.1770 H   0  0  0  0  0  0  0  0  0  0  0  0
   37.5420   27.3040   31.2090 H   0  0  0  0  0  0  0  0  0  0  0  0
   36.6230   29.4820   30.6130 H   0  0  0  0  0  0  0  0  0  0  0  0
   35.3250   31.9160   36.5310 C   0  0  0  0  0  0  0  0  0  0  0  0
   33.9130   31.8880   36.7700 C   0  0  0  0  0  0  0  0  0  0  0  0
   33.1410   31.0250   35.9950 C   0  0  0  0  0  0  0  0  0  0  0  0
   33.7580   30.2490   35.0520 N   0  0  0  0  0  0  0  0  0  0  0  0
   35.0870   30.2980   34.8530 C   0  0  0  0  0  0  0  0  0  0  0  0
   35.8510   31.1300   35.5950 N   0  0  0  0  0  0  0  0  0  0  0  0
   35.9170   32.5890   37.1370 H   0  0  0  0  0  0  0  0  0  0  0  0
   33.4380   32.5060   37.5170 H   0  0  0  0  0  0  0  0  0  0  0  0
   32.0690   30.9450   36.1120 H   0  0  0  0  0  0  0  0  0  0  0  0
   37.4830   26.1370   33.5910 C   0  0  0  0  0  0  0  0  0  0  0  0
   38.3340   25.8870   34.6370 C   0  0  0  0  0  0  0  0  0  0  0  0
   38.8430   24.6370   34.9290 C   0  0  0  0  0  0  0  0  0  0  0  0
   38.4930   23.5950   34.1510 N   0  0  0  0  0  0  0  0  0  0  0  0
   37.6570   23.8210   33.1190 C   0  0  0  0  0  0  0  0  0  0  0  0
   37.1880   25.0400   32.8720 N   0  0  0  0  0  0  0  0  0  0  0  0
   38.6280   26.7320   35.2790 H   0  0  0  0  0  0  0  0  0  0  0  0
   39.5210   24.5130   35.7840 H   0  0  0  0  0  0  0  0  0  0  0  0
   37.2650   22.7070   32.2650 C   0  0  0  0  0  0  0  0  0  0  0  0
   35.9420   22.5130   31.9250 C   0  0  0  0  0  3  0  0  0  0  0  0
   35.5660   21.4590   31.1160 C   0  0  0  0  0  0  0  0  0  0  0  0
   34.5020   21.4320   30.9360 H   0  0  0  0  0  0  0  0  0  0  0  0
   36.5010   20.6030   30.6500 N   0  0  0  0  0  0  0  0  0  0  0  0
   37.8080   20.7840   30.9780 C   0  0  0  0  0  3  0  0  0  0  0  0
   38.1580   21.8290   31.7750 N   0  0  0  0  0  0  0  0  0  0  0  0
  1  2  1  0  0  0  0
  2  3  1  0  0  0  0
  3  4  2  0  0  0  0
  3 15  1  0  0  0  0
  4  8  1  0  0  0  0
  5 20  1  0  0  0  0
  5  4  1  0  0  0  0
  6  5  2  0  0  0  0
  7  6  1  0  0  0  0
  7  2  2  0  0  0  0
  9  6  1  0  0  0  0
 10  7  1  0  0  0  0
 11 12  1  0  0  0  0
 11 17  1  0  0  0  0
 12 18  1  0  0  0  0
 13 19  1  0  0  0  0
 13 12  2  0  0  0  0
 14 13  1  0  0  0  0
 15 14  2  0  0  0  0
 15 16  1  0  0  0  0
 16 11  2  0  0  0  0
 20 21  1  0  0  0  0
 21 22  2  0  0  0  0
 21 26  1  0  0  0  0
 22 27  1  0  0  0  0
 23 22  1  0  0  0  0
 24 23  2  0  0  0  0
 25 24  1  0  0  0  0
 25 20  2  0  0  0  0
 28 24  1  0  0  0  0
 29 28  1  0  0  0  0
 30 29  2  0  0  0  0
 31 30  1  0  0  0  0
 32 33  2  0  0  0  0
 32 30  1  0  0  0  0
 33 34  1  0  0  0  0
 34 28  2  0  0  0  0
M  END
>  <minimizedAffinity>
-5.85265636

$$$$

 OpenBabel03272510223D

 34 37  0  0  0  0  0  0  0  0999 V2000
   40.5980   24.3180   34.4650 Br  0  0  0  0  0  0  0  0  0  0  0  0
   39.2270   25.6120   34.1740 C   0  0  0  0  0  0  0  0  0  0  0  0
   38.1400   25.6830   35.0390 C   0  0  0  0  0  0  0  0  0  0  0  0
   37.1810   26.6460   34.7700 C   0  0  0  0  0  0  0  0  0  0  0  0
   37.2550   27.5200   33.7030 C   0  0  0  0  0  0  0  0  0  0  0  0
   38.3450   27.4120   32.8770 C   0  0  0  0  0  0  0  0  0  0  0  0
   39.3110   26.4650   33.1220 C   0  0  0  0  0  0  0  0  0  0  0  0
   36.3100   26.7550   35.4040 H   0  0  0  0  0  0  0  0  0  0  0  0
   38.4600   28.0710   32.0210 H   0  0  0  0  0  0  0  0  0  0  0  0
   40.1690   26.3900   32.4620 H   0  0  0  0  0  0  0  0  0  0  0  0
   38.1020   24.5680   38.5090 C   0  0  0  0  0  0  0  0  0  0  0  0
   37.8060   23.1710   38.3980 C   0  0  0  0  0  0  0  0  0  0  0  0
   37.6240   22.6470   37.1200 C   0  0  0  0  0  0  0  0  0  0  0  0
   37.7370   23.4780   36.0400 N   0  0  0  0  0  0  0  0  0  0  0  0
   38.0170   24.7850   36.1770 C   0  0  0  0  0  0  0  0  0  0  0  0
   38.1950   25.3120   37.4090 N   0  0  0  0  0  0  0  0  0  0  0  0
   38.2410   24.9670   39.5040 H   0  0  0  0  0  0  0  0  0  0  0  0
   37.7190   22.5260   39.2590 H   0  0  0  0  0  0  0  0  0  0  0  0
   37.3970   21.6020   36.9510 H   0  0  0  0  0  0  0  0  0  0  0  0
   36.2540   28.5230   33.4250 C   0  0  0  0  0  0  0  0  0  0  0  0
   35.7350   28.7960   32.1850 C   0  0  0  0  0  0  0  0  0  0  0  0
   34.7760   29.7630   31.9520 C   0  0  0  0  0  0  0  0  0  0  0  0
   34.3170   30.4870   32.9920 N   0  0  0  0  0  0  0  0  0  0  0  0
   34.8160   30.2300   34.2170 C   0  0  0  0  0  0  0  0  0  0  0  0
   35.7370   29.2910   34.4000 N   0  0  0  0  0  0  0  0  0  0  0  0
   36.1040   28.2120   31.3280 H   0  0  0  0  0  0  0  0  0  0  0  0
   34.4070   29.9270   30.9320 H   0  0  0  0  0  0  0  0  0  0  0  0
   34.3310   31.0010   35.3560 C   0  0  0  0  0  0  0  0  0  0  0  0
   35.1570   31.8990   36.0000 C   0  0  0  0  0  3  0  0  0  0  0  0
   34.7020   32.6320   37.0790 C   0  0  0  0  0  0  0  0  0  0  0  0
   35.4550   33.2920   37.4800 H   0  0  0  0  0  0  0  0  0  0  0  0
   33.4340   32.4700   37.5140 N   0  0  0  0  0  0  0  0  0  0  0  0
   32.6100   31.5870   36.8880 C   0  0  0  0  0  3  0  0  0  0  0  0
   33.0770   30.8760   35.8260 N   0  0  0  0  0  0  0  0  0  0  0  0
  2  1  1  0  0  0  0
  2  3  1  0  0  0  0
  3 15  1  0  0  0  0
  4  3  2  0  0  0  0
  4  8  1  0  0  0  0
  5  4  1  0  0  0  0
  6  7  1  0  0  0  0
  6  5  2  0  0  0  0
  7  2  2  0  0  0  0
  9  6  1  0  0  0  0
 10  7  1  0  0  0  0
 11 17  1  0  0  0  0
 12 11  1  0  0  0  0
 12 18  1  0  0  0  0
 13 12  2  0  0  0  0
 14 15  2  0  0  0  0
 14 13  1  0  0  0  0
 15 16  1  0  0  0  0
 16 11  2  0  0  0  0
 19 13  1  0  0  0  0
 20  5  1  0  0  0  0
 20 25  1  0  0  0  0
 21 20  2  0  0  0  0
 22 21  1  0  0  0  0
 22 23  2  0  0  0  0
 23 24  1  0  0  0  0
 24 25  2  0  0  0  0
 24 28  1  0  0  0  0
 26 21  1  0  0  0  0
 27 22  1  0  0  0  0
 28 34  2  0  0  0  0
 28 29  1  0  0  0  0
 29 30  2  0  0  0  0
 30 31  1  0  0  0  0
 30 32  1  0  0  0  0
 33 32  2  0  0  0  0
 34 33  1  0  0  0  0
M  END
>  <minimizedAffinity>
-5.8337903

$$$$

 OpenBabel03272510223D

 34 37  0  0  0  0  0  0  0  0999 V2000
   39.3520   22.4940   36.2740 Br  0  0  0  0  0  0  0  0  0  0  0  0
   38.5960   24.0430   35.4570 C   0  0  0  0  0  0  0  0  0  0  0  0
   38.1550   23.9910   34.1380 C   0  0  0  0  0  0  0  0  0  0  0  0
   37.6160   25.1520   33.6070 C   0  0  0  0  0  0  0  0  0  0  0  0
   37.5010   26.3330   34.3130 C   0  0  0  0  0  0  0  0  0  0  0  0
   37.9510   26.3360   35.6090 C   0  0  0  0  0  0  0  0  0  0  0  0
   38.4890   25.1980   36.1610 C   0  0  0  0  0  0  0  0  0  0  0  0
   37.2540   25.1800   32.5870 H   0  0  0  0  0  0  0  0  0  0  0  0
   37.8870   27.2350   36.2170 H   0  0  0  0  0  0  0  0  0  0  0  0
   38.8400   25.2130   37.1870 H   0  0  0  0  0  0  0  0  0  0  0  0
   37.1720   20.8180   32.6380 C   0  0  0  0  0  0  0  0  0  0  0  0
   38.3370   20.4350   31.8970 C   0  0  0  0  0  0  0  0  0  0  0  0
   39.4380   21.2880   31.9340 C   0  0  0  0  0  0  0  0  0  0  0  0
   39.3610   22.4390   32.6690 N   0  0  0  0  0  0  0  0  0  0  0  0
   38.2530   22.7710   33.3540 C   0  0  0  0  0  0  0  0  0  0  0  0
   37.1750   21.9560   33.3290 N   0  0  0  0  0  0  0  0  0  0  0  0
   36.3220   20.1510   32.6040 H   0  0  0  0  0  0  0  0  0  0  0  0
   38.3850   19.5230   31.3220 H   0  0  0  0  0  0  0  0  0  0  0  0
   40.3550   21.0710   31.4020 H   0  0  0  0  0  0  0  0  0  0  0  0
   36.9400   27.5410   33.7570 C   0  0  0  0  0  0  0  0  0  0  0  0
   37.0050   27.9080   32.4370 C   0  0  0  0  0  0  0  0  0  0  0  0
   36.4560   29.0720   31.9370 C   0  0  0  0  0  0  0  0  0  0  0  0
   35.8180   29.9050   32.7810 N   0  0  0  0  0  0  0  0  0  0  0  0
   35.7430   29.5600   34.0820 C   0  0  0  0  0  0  0  0  0  0  0  0
   36.2830   28.4300   34.5240 N   0  0  0  0  0  0  0  0  0  0  0  0
   37.5260   27.2350   31.7380 H   0  0  0  0  0  0  0  0  0  0  0  0
   36.5480   29.3000   30.8670 H   0  0  0  0  0  0  0  0  0  0  0  0
   35.0550   30.4470   35.0130 C   0  0  0  0  0  0  0  0  0  0  0  0
   35.7660   31.3270   35.8020 C   0  0  0  0  0  3  0  0  0  0  0  0
   35.1190   32.1680   36.6850 C   0  0  0  0  0  0  0  0  0  0  0  0
   35.8020   32.7990   37.2350 H   0  0  0  0  0  0  0  0  0  0  0  0
   33.7730   32.1340   36.7810 N   0  0  0  0  0  0  0  0  0  0  0  0
   33.0600   31.2720   36.0090 C   0  0  0  0  0  3  0  0  0  0  0  0
   33.7160   30.4510   35.1440 N   0  0  0  0  0  0  0  0  0  0  0  0
  2  7  1  0  0  0  0
  2  1  1  0  0  0  0
  3  2  2  0  0  0  0
  4  3  1  0  0  0  0
  4  5  2  0  0  0  0
  5  6  1  0  0  0  0
  6  7  2  0  0  0  0
  6  9  1  0  0  0  0
  7 10  1  0  0  0  0
  8  4  1  0  0  0  0
 11 16  1  0  0  0  0
 12 13  1  0  0  0  0
 12 11  2  0  0  0  0
 13 14  2  0  0  0  0
 14 15  1  0  0  0  0
 15  3  1  0  0  0  0
 16 15  2  0  0  0  0
 17 11  1  0  0  0  0
 18 12  1  0  0  0  0
 19 13  1  0  0  0  0
 20  5  1  0  0  0  0
 20 25  1  0  0  0  0
 21 20  2  0  0  0  0
 22 21  1  0  0  0  0
 22 23  2  0  0  0  0
 23 24  1  0  0  0  0
 24 25  2  0  0  0  0
 24 28  1  0  0  0  0
 26 21  1  0  0  0  0
 27 22  1  0  0  0  0
 28 34  2  0  0  0  0
 28 29  1  0  0  0  0
 29 30  2  0  0  0  0
 30 32  1  0  0  0  0
 30 31  1  0  0  0  0
 33 32  2  0  0  0  0
 34 33  1  0  0  0  0
M  END
>  <minimizedAffinity>
-5.70185852

$$$$

 OpenBabel03272510223D

 34 37  0  0  0  0  0  0  0  0999 V2000
   38.3240   21.8620   33.6390 Br  0  0  0  0  0  0  0  0  0  0  0  0
   37.8270   23.6950   33.4570 C   0  0  0  0  0  0  0  0  0  0  0  0
   37.9070   24.5510   34.5510 C   0  0  0  0  0  0  0  0  0  0  0  0
   37.5310   25.8700   34.3490 C   0  0  0  0  0  0  0  0  0  0  0  0
   37.0910   26.3600   33.1360 C   0  0  0  0  0  0  0  0  0  0  0  0
   37.0280   25.4790   32.0870 C   0  0  0  0  0  0  0  0  0  0  0  0
   37.3960   24.1660   32.2600 C   0  0  0  0  0  0  0  0  0  0  0  0
   37.5700   26.5880   35.1580 H   0  0  0  0  0  0  0  0  0  0  0  0
   36.6900   25.8050   31.1060 H   0  0  0  0  0  0  0  0  0  0  0  0
   37.3430   23.4780   31.4220 H   0  0  0  0  0  0  0  0  0  0  0  0
   37.8600   23.8350   38.1240 C   0  0  0  0  0  0  0  0  0  0  0  0
   39.1380   23.2270   38.3500 C   0  0  0  0  0  0  0  0  0  0  0  0
   39.9870   23.0780   37.2550 C   0  0  0  0  0  0  0  0  0  0  0  0
   39.5710   23.5150   36.0280 N   0  0  0  0  0  0  0  0  0  0  0  0
   38.3650   24.0820   35.8490 C   0  0  0  0  0  0  0  0  0  0  0  0
   37.5280   24.2340   36.8990 N   0  0  0  0  0  0  0  0  0  0  0  0
   37.2070   23.9460   38.9780 H   0  0  0  0  0  0  0  0  0  0  0  0
   39.4540   22.8860   39.3240 H   0  0  0  0  0  0  0  0  0  0  0  0
   40.9680   22.6290   37.3420 H   0  0  0  0  0  0  0  0  0  0  0  0
   36.7000   27.7350   32.9280 C   0  0  0  0  0  0  0  0  0  0  0  0
   36.0720   28.5260   33.8560 C   0  0  0  0  0  0  0  0  0  0  0  0
   35.7110   29.8390   33.6250 C   0  0  0  0  0  0  0  0  0  0  0  0
   35.9850   30.3870   32.4250 N   0  0  0  0  0  0  0  0  0  0  0  0
   36.6030   29.6250   31.5020 C   0  0  0  0  0  0  0  0  0  0  0  0
   36.9350   28.3650   31.7630 N   0  0  0  0  0  0  0  0  0  0  0  0
   35.8410   28.0880   34.8390 H   0  0  0  0  0  0  0  0  0  0  0  0
   35.2100   30.4110   34.4160 H   0  0  0  0  0  0  0  0  0  0  0  0
   36.9100   30.1990   30.1970 C   0  0  0  0  0  0  0  0  0  0  0  0
   37.5780   29.4600   29.2430 C   0  0  0  0  0  3  0  0  0  0  0  0
   37.8710   30.0000   28.0060 C   0  0  0  0  0  0  0  0  0  0  0  0
   38.3950   29.3090   27.3640 H   0  0  0  0  0  0  0  0  0  0  0  0
   37.5020   31.2670   27.7220 N   0  0  0  0  0  0  0  0  0  0  0  0
   36.8430   32.0060   28.6540 C   0  0  0  0  0  3  0  0  0  0  0  0
   36.5630   31.4560   29.8670 N   0  0  0  0  0  0  0  0  0  0  0  0
  2  1  1  0  0  0  0
  2  3  1  0  0  0  0
  3 15  1  0  0  0  0
  4  3  2  0  0  0  0
  4  8  1  0  0  0  0
  5  4  1  0  0  0  0
  6  7  1  0  0  0  0
  6  5  2  0  0  0  0
  7  2  2  0  0  0  0
  9  6  1  0  0  0  0
 10  7  1  0  0  0  0
 11 12  1  0  0  0  0
 11 17  1  0  0  0  0
 12 18  1  0  0  0  0
 13 19  1  0  0  0  0
 13 12  2  0  0  0  0
 14 13  1  0  0  0  0
 15 14  2  0  0  0  0
 15 16  1  0  0  0  0
 16 11  2  0  0  0  0
 20  5  1  0  0  0  0
 20 21  1  0  0  0  0
 21 26  1  0  0  0  0
 22 21  2  0  0  0  0
 22 27  1  0  0  0  0
 23 22  1  0  0  0  0
 24 25  1  0  0  0  0
 24 23  2  0  0  0  0
 25 20  2  0  0  0  0
 28 24  1  0  0  0  0
 29 28  2  0  0  0  0
 30 29  1  0  0  0  0
 31 30  1  0  0  0  0
 32 30  2  0  0  0  0
 32 33  1  0  0  0  0
 33 34  2  0  0  0  0
 34 28  1  0  0  0  0
M  END
>  <minimizedAffinity>
-5.61848879

$$$$

 OpenBabel03272510223D

 34 37  0  0  0  0  0  0  0  0999 V2000
   33.6360   32.0300   32.5170 Br  0  0  0  0  0  0  0  0  0  0  0  0
   34.7770   30.5170   32.7420 C   0  0  0  0  0  0  0  0  0  0  0  0
   35.0170   30.0080   34.0150 C   0  0  0  0  0  0  0  0  0  0  0  0
   35.8550   28.9090   34.1070 C   0  0  0  0  0  0  0  0  0  0  0  0
   36.4500   28.3090   33.0130 C   0  0  0  0  0  0  0  0  0  0  0  0
   36.1830   28.8460   31.7800 C   0  0  0  0  0  0  0  0  0  0  0  0
   35.3550   29.9370   31.6610 C   0  0  0  0  0  0  0  0  0  0  0  0
   36.0840   28.4640   35.0660 H   0  0  0  0  0  0  0  0  0  0  0  0
   36.6210   28.4180   30.8820 H   0  0  0  0  0  0  0  0  0  0  0  0
   35.1510   30.3520   30.6800 H   0  0  0  0  0  0  0  0  0  0  0  0
   32.5510   30.6640   36.6170 C   0  0  0  0  0  0  0  0  0  0  0  0
   33.1840   31.6700   37.4170 C   0  0  0  0  0  0  0  0  0  0  0  0
   34.4540   32.0980   37.0360 C   0  0  0  0  0  0  0  0  0  0  0  0
   35.0340   31.5470   35.9270 N   0  0  0  0  0  0  0  0  0  0  0  0
   34.4140   30.6050   35.1960 C   0  0  0  0  0  0  0  0  0  0  0  0
   33.1820   30.1770   35.5510 N   0  0  0  0  0  0  0  0  0  0  0  0
   31.5660   30.3380   36.9190 H   0  0  0  0  0  0  0  0  0  0  0  0
   32.7140   32.0970   38.2910 H   0  0  0  0  0  0  0  0  0  0  0  0
   34.9990   32.8520   37.5880 H   0  0  0  0  0  0  0  0  0  0  0  0
   37.3230   27.1630   33.1120 C   0  0  0  0  0  0  0  0  0  0  0  0
   38.6350   27.2020   33.5080 C   0  0  0  0  0  0  0  0  0  0  0  0
   39.4440   26.0860   33.5920 C   0  0  0  0  0  0  0  0  0  0  0  0
   38.9290   24.8840   33.2690 N   0  0  0  0  0  0  0  0  0  0  0  0
   37.6400   24.8270   32.8780 C   0  0  0  0  0  0  0  0  0  0  0  0
   36.8940   25.9240   32.8120 N   0  0  0  0  0  0  0  0  0  0  0  0
   39.0680   28.1800   33.7720 H   0  0  0  0  0  0  0  0  0  0  0  0
   40.4870   26.1950   33.9160 H   0  0  0  0  0  0  0  0  0  0  0  0
   37.0620   23.5350   32.5260 C   0  0  0  0  0  0  0  0  0  0  0  0
   37.3970   22.3990   33.2320 C   0  0  0  0  0  3  0  0  0  0  0  0
   36.8530   21.1730   32.9020 C   0  0  0  0  0  0  0  0  0  0  0  0
   37.2050   20.3760   33.5380 H   0  0  0  0  0  0  0  0  0  0  0  0
   35.9810   21.0810   31.8750 N   0  0  0  0  0  0  0  0  0  0  0  0
   35.6420   22.1940   31.1710 C   0  0  0  0  0  3  0  0  0  0  0  0
   36.1890   23.3920   31.5130 N   0  0  0  0  0  0  0  0  0  0  0  0
  1  2  1  0  0  0  0
  2  3  1  0  0  0  0
  3  4  2  0  0  0  0
  3 15  1  0  0  0  0
  4  8  1  0  0  0  0
  5 20  1  0  0  0  0
  5  4  1  0  0  0  0
  6  5  2  0  0  0  0
  7  6  1  0  0  0  0
  7  2  2  0  0  0  0
  9  6  1  0  0  0  0
 10  7  1  0  0  0  0
 11 17  1  0  0  0  0
 11 12  1  0  0  0  0
 12 18  1  0  0  0  0
 13 12  2  0  0  0  0
 13 19  1  0  0  0  0
 14 13  1  0  0  0  0
 15 16  1  0  0  0  0
 15 14  2  0  0  0  0
 16 11  2  0  0  0  0
 20 21  1  0  0  0  0
 21 22  2  0  0  0  0
 21 26  1  0  0  0  0
 22 27  1  0  0  0  0
 23 22  1  0  0  0  0
 24 23  2  0  0  0  0
 25 24  1  0  0  0  0
 25 20  2  0  0  0  0
 28 24  1  0  0  0  0
 28 29  1  0  0  0  0
 30 29  2  0  0  0  0
 30 31  1  0  0  0  0
 32 30  1  0  0  0  0
 33 34  1  0  0  0  0
 33 32  2  0  0  0  0
 34 28  2  0  0  0  0
M  END
>  <minimizedAffinity>
-5.58681297

$$$$

 OpenBabel03272510223D

 34 37  0  0  0  0  0  0  0  0999 V2000
   35.7210   30.3480   35.2170 Br  0  0  0  0  0  0  0  0  0  0  0  0
   36.1560   28.8210   34.1600 C   0  0  0  0  0  0  0  0  0  0  0  0
   35.5990   28.6670   32.8940 C   0  0  0  0  0  0  0  0  0  0  0  0
   35.9580   27.5350   32.1800 C   0  0  0  0  0  0  0  0  0  0  0  0
   36.8260   26.5740   32.6600 C   0  0  0  0  0  0  0  0  0  0  0  0
   37.3490   26.7680   33.9120 C   0  0  0  0  0  0  0  0  0  0  0  0
   37.0100   27.8830   34.6420 C   0  0  0  0  0  0  0  0  0  0  0  0
   35.5610   27.3550   31.1900 H   0  0  0  0  0  0  0  0  0  0  0  0
   38.0380   26.0470   34.3450 H   0  0  0  0  0  0  0  0  0  0  0  0
   37.4310   28.0260   35.6310 H   0  0  0  0  0  0  0  0  0  0  0  0
   32.4610   30.3920   32.2170 C   0  0  0  0  0  0  0  0  0  0  0  0
   32.8600   31.4670   31.3580 C   0  0  0  0  0  0  0  0  0  0  0  0
   34.2110   31.5710   31.0350 C   0  0  0  0  0  0  0  0  0  0  0  0
   35.0870   30.6510   31.5420 N   0  0  0  0  0  0  0  0  0  0  0  0
   34.6810   29.6530   32.3450 C   0  0  0  0  0  0  0  0  0  0  0  0
   33.3740   29.5370   32.6710 N   0  0  0  0  0  0  0  0  0  0  0  0
   31.4110   30.3190   32.4640 H   0  0  0  0  0  0  0  0  0  0  0  0
   32.1580   32.1870   30.9650 H   0  0  0  0  0  0  0  0  0  0  0  0
   34.5940   32.3530   30.3930 H   0  0  0  0  0  0  0  0  0  0  0  0
   37.1980   25.3950   31.9140 C   0  0  0  0  0  0  0  0  0  0  0  0
   38.0590   25.3760   30.8460 C   0  0  0  0  0  0  0  0  0  0  0  0
   38.3950   24.2290   30.1530 C   0  0  0  0  0  0  0  0  0  0  0  0
   37.8550   23.0560   30.5370 N   0  0  0  0  0  0  0  0  0  0  0  0
   37.0080   23.0560   31.5850 C   0  0  0  0  0  0  0  0  0  0  0  0
   36.7110   24.1810   32.2260 N   0  0  0  0  0  0  0  0  0  0  0  0
   38.5050   26.3290   30.5220 H   0  0  0  0  0  0  0  0  0  0  0  0
   39.0910   24.2910   29.3070 H   0  0  0  0  0  0  0  0  0  0  0  0
   36.4140   21.7970   32.0170 C   0  0  0  0  0  0  0  0  0  0  0  0
   36.0730   20.8280   31.0960 C   0  0  0  0  0  3  0  0  0  0  0  0
   35.5090   19.6340   31.5010 C   0  0  0  0  0  0  0  0  0  0  0  0
   35.2960   18.9740   30.6740 H   0  0  0  0  0  0  0  0  0  0  0  0
   35.2860   19.4070   32.8130 N   0  0  0  0  0  0  0  0  0  0  0  0
   35.6180   20.3540   33.7300 C   0  0  0  0  0  3  0  0  0  0  0  0
   36.1730   21.5240   33.3120 N   0  0  0  0  0  0  0  0  0  0  0  0
  2  7  1  0  0  0  0
  2  1  1  0  0  0  0
  3  2  2  0  0  0  0
  4  5  2  0  0  0  0
  4  3  1  0  0  0  0
  5  6  1  0  0  0  0
  6  9  1  0  0  0  0
  6  7  2  0  0  0  0
  7 10  1  0  0  0  0
  8  4  1  0  0  0  0
 11 17  1  0  0  0  0
 11 16  1  0  0  0  0
 12 11  2  0  0  0  0
 13 12  1  0  0  0  0
 13 14  2  0  0  0  0
 14 15  1  0  0  0  0
 15 16  2  0  0  0  0
 15  3  1  0  0  0  0
 18 12  1  0  0  0  0
 19 13  1  0  0  0  0
 20 25  1  0  0  0  0
 20  5  1  0  0  0  0
 21 20  2  0  0  0  0
 22 23  2  0  0  0  0
 22 21  1  0  0  0  0
 23 24  1  0  0  0  0
 24 28  1  0  0  0  0
 24 25  2  0  0  0  0
 26 21  1  0  0  0  0
 27 22  1  0  0  0  0
 28 34  1  0  0  0  0
 29 30  1  0  0  0  0
 29 28  2  0  0  0  0
 30 32  2  0  0  0  0
 31 30  1  0  0  0  0
 32 33  1  0  0  0  0
 34 33  2  0  0  0  0
M  END
>  <minimizedAffinity>
-5.54913378

$$$$

 OpenBabel03272510223D

 34 37  0  0  0  0  0  0  0  0999 V2000
   37.0090   28.7600   31.3940 Br  0  0  0  0  0  0  0  0  0  0  0  0
   37.4960   27.5230   32.7620 C   0  0  0  0  0  0  0  0  0  0  0  0
   38.5790   26.6690   32.5770 C   0  0  0  0  0  0  0  0  0  0  0  0
   38.8790   25.7960   33.6100 C   0  0  0  0  0  0  0  0  0  0  0  0
   38.1640   25.7380   34.7910 C   0  0  0  0  0  0  0  0  0  0  0  0
   37.1040   26.5980   34.9270 C   0  0  0  0  0  0  0  0  0  0  0  0
   36.7870   27.4740   33.9170 C   0  0  0  0  0  0  0  0  0  0  0  0
   39.7080   25.1060   33.5320 H   0  0  0  0  0  0  0  0  0  0  0  0
   36.5030   26.6000   35.8330 H   0  0  0  0  0  0  0  0  0  0  0  0
   35.9470   28.1510   34.0370 H   0  0  0  0  0  0  0  0  0  0  0  0
   39.6500   25.8090   29.2010 C   0  0  0  0  0  0  0  0  0  0  0  0
   40.7820   26.6620   28.9920 C   0  0  0  0  0  0  0  0  0  0  0  0
   41.1480   27.5180   30.0280 C   0  0  0  0  0  0  0  0  0  0  0  0
   40.4210   27.5070   31.1870 N   0  0  0  0  0  0  0  0  0  0  0  0
   39.3630   26.6940   31.3520 C   0  0  0  0  0  0  0  0  0  0  0  0
   38.9930   25.8570   30.3580 N   0  0  0  0  0  0  0  0  0  0  0  0
   39.3720   25.1480   28.3920 H   0  0  0  0  0  0  0  0  0  0  0  0
   41.3470   26.6610   28.0720 H   0  0  0  0  0  0  0  0  0  0  0  0
   41.9900   28.1930   29.9500 H   0  0  0  0  0  0  0  0  0  0  0  0
   38.4770   24.8270   35.8670 C   0  0  0  0  0  0  0  0  0  0  0  0
   37.8130   24.7630   37.0660 C   0  0  0  0  0  0  0  0  0  0  0  0
   38.1380   23.8790   38.0750 C   0  0  0  0  0  0  0  0  0  0  0  0
   39.1630   23.0250   37.8860 N   0  0  0  0  0  0  0  0  0  0  0  0
   39.8260   23.0730   36.7140 C   0  0  0  0  0  0  0  0  0  0  0  0
   39.4810   23.9380   35.7670 N   0  0  0  0  0  0  0  0  0  0  0  0
   36.9750   25.4580   37.2320 H   0  0  0  0  0  0  0  0  0  0  0  0
   37.5620   23.8860   39.0090 H   0  0  0  0  0  0  0  0  0  0  0  0
   40.9370   22.1560   36.4890 C   0  0  0  0  0  0  0  0  0  0  0  0
   41.5240   21.4900   37.5440 C   0  0  0  0  0  3  0  0  0  0  0  0
   42.5770   20.6210   37.3360 C   0  0  0  0  0  0  0  0  0  0  0  0
   42.9340   20.1730   38.2510 H   0  0  0  0  0  0  0  0  0  0  0  0
   43.0420   20.4180   36.0850 N   0  0  0  0  0  0  0  0  0  0  0  0
   42.4720   21.0690   35.0360 C   0  0  0  0  0  3  0  0  0  0  0  0
   41.4360   21.9210   35.2620 N   0  0  0  0  0  0  0  0  0  0  0  0
  1  2  1  0  0  0  0
  2  7  1  0  0  0  0
  3  2  2  0  0  0  0
  3  4  1  0  0  0  0
  4  5  2  0  0  0  0
  5  6  1  0  0  0  0
  5 20  1  0  0  0  0
  6  9  1  0  0  0  0
  7 10  1  0  0  0  0
  7  6  2  0  0  0  0
  8  4  1  0  0  0  0
 11 16  1  0  0  0  0
 12 11  2  0  0  0  0
 12 13  1  0  0  0  0
 13 14  2  0  0  0  0
 14 15  1  0  0  0  0
 15  3  1  0  0  0  0
 16 15  2  0  0  0  0
 17 11  1  0  0  0  0
 18 12  1  0  0  0  0
 19 13  1  0  0  0  0
 20 21  1  0  0  0  0
 21 26  1  0  0  0  0
 21 22  2  0  0  0  0
 22 27  1  0  0  0  0
 23 22  1  0  0  0  0
 24 23  2  0  0  0  0
 25 20  2  0  0  0  0
 25 24  1  0  0  0  0
 28 24  1  0  0  0  0
 28 29  1  0  0  0  0
 30 29  2  0  0  0  0
 30 31  1  0  0  0  0
 32 30  1  0  0  0  0
 33 34  1  0  0  0  0
 33 32  2  0  0  0  0
 34 28  2  0  0  0  0
M  END
>  <minimizedAffinity>
-5.5268383

$$$$
