
 OpenBabel03272503413D

 39 42  0  0  1  0  0  0  0  0999 V2000
   38.4890   31.1160   45.9390 C   0  0  0  0  0  0  0  0  0  0  0  0
   39.8140   31.0110   46.2070 C   0  0  0  0  0  0  0  0  0  0  0  0
   40.4490   31.3780   45.0040 C   0  0  0  0  0  0  0  0  0  0  0  0
   39.5200   31.6780   44.0970 N   0  0  0  0  0  0  0  0  0  0  0  0
   38.3150   31.5200   44.6590 N   0  0  0  0  0  0  0  0  0  0  0  0
   40.2410   30.7070   47.1550 H   0  0  0  0  0  0  0  0  0  0  0  0
   41.5380   31.3820   44.9370 H   0  0  0  0  0  0  0  0  0  0  0  0
   39.8090   30.9140   41.7950 C   0  0  2  0  0  0  0  0  0  0  0  0
   39.8430   32.0930   42.7550 C   0  0  1  0  0  0  0  0  0  0  0  0
   38.7440   32.9160   42.1250 C   0  0  0  0  0  0  0  0  0  0  0  0
   38.8130   32.7450   40.7650 O   0  0  0  0  0  0  0  0  0  0  0  0
   39.6380   31.6930   40.4790 C   0  0  0  0  0  0  0  0  0  0  0  0
   40.7130   30.3120   41.7910 H   0  0  0  0  0  0  0  0  0  0  0  0
   40.7720   32.6640   42.7270 H   0  0  0  0  0  0  0  0  0  0  0  0
   38.9460   33.9890   42.3460 H   0  0  0  0  0  0  0  0  0  0  0  0
   37.7550   32.6970   42.5740 H   0  0  0  0  0  0  0  0  0  0  0  0
   40.6220   32.0930   40.1630 H   0  0  0  0  0  0  0  0  0  0  0  0
   39.2770   31.0330   39.6820 H   0  0  0  0  0  0  0  0  0  0  0  0
   38.6310   30.2120   42.0460 O   0  0  0  0  0  0  0  0  0  0  0  0
   38.5400   28.8580   42.3280 C   0  0  0  0  0  0  0  0  0  0  0  0
   39.6260   28.0300   42.6080 C   0  0  0  0  0  0  0  0  0  0  0  0
   39.3950   26.6980   42.8720 C   0  0  0  0  0  0  0  0  0  0  0  0
   40.2820   26.0890   43.0860 H   0  0  0  0  0  0  0  0  0  0  0  0
   38.1450   26.1860   42.8630 N   0  0  0  0  0  0  0  0  0  0  0  0
   37.0810   26.9970   42.5890 C   0  0  0  0  0  0  0  0  0  0  0  0
   37.3020   28.3080   42.3280 N   0  0  0  0  0  0  0  0  0  0  0  0
   36.5070   30.6430   49.0880 C   0  0  0  0  0  0  0  0  0  0  0  0
   37.5640   30.9210   48.2400 C   0  0  0  0  0  0  0  0  0  0  0  0
   37.4170   30.8380   46.8820 C   0  0  0  0  0  0  0  0  0  0  0  0
   36.1960   30.4750   46.4110 N   0  0  0  0  0  0  0  0  0  0  0  0
   35.1640   30.2050   47.2640 C   0  0  0  0  0  0  0  0  0  0  0  0
   35.3090   30.2860   48.5790 N   0  0  0  0  0  0  0  0  0  0  0  0
   38.5640   31.2160   48.5750 H   0  0  0  0  0  0  0  0  0  0  0  0
   34.2110   29.9200   46.8380 H   0  0  0  0  0  0  0  0  0  0  0  0
   36.8420   30.7790   50.4380 O   0  0  0  0  0  0  0  0  0  0  0  0
   36.8830   29.6990   51.3410 C   0  0  0  0  0  0  0  0  0  0  0  0
   35.5990   29.2340   51.6370 F   0  0  0  0  0  0  0  0  0  0  0  0
   37.5400   30.0920   52.4730 F   0  0  0  0  0  0  0  0  0  0  0  0
   37.6030   28.6740   50.7520 F   0  0  0  0  0  0  0  0  0  0  0  0
  1  2  1  0  0  0  0
  1 29  1  0  0  0  0
  2  6  1  0  0  0  0
  3  2  2  0  0  0  0
  4  5  1  0  0  0  0
  4  3  1  0  0  0  0
  5  1  2  0  0  0  0
  7  3  1  0  0  0  0
  8 13  1  1  0  0  0
  8 19  1  0  0  0  0
  8  9  1  0  0  0  0
  9 14  1  6  0  0  0
  9  4  1  0  0  0  0
 10 15  1  0  0  0  0
 10 16  1  0  0  0  0
 10  9  1  0  0  0  0
 11 10  1  0  0  0  0
 12 11  1  0  0  0  0
 12  8  1  0  0  0  0
 17 12  1  0  0  0  0
 18 12  1  0  0  0  0
 19 20  1  0  0  0  0
 20 26  2  0  0  0  0
 20 21  1  0  0  0  0
 21 22  2  0  0  0  0
 22 23  1  0  0  0  0
 24 22  1  0  0  0  0
 25 24  2  0  0  0  0
 26 25  1  0  0  0  0
 27 35  1  0  0  0  0
 28 33  1  0  0  0  0
 28 27  2  0  0  0  0
 29 28  1  0  0  0  0
 30 29  2  0  0  0  0
 30 31  1  0  0  0  0
 31 32  2  0  0  0  0
 32 27  1  0  0  0  0
 34 31  1  0  0  0  0
 35 36  1  0  0  0  0
 36 37  1  0  0  0  0
 36 38  1  0  0  0  0
 39 36  1  0  0  0  0
M  END
>  <minimizedAffinity>
-6.21520662

>  <minimizedRMSD>
0.366055787

$$$$
