
 OpenBabel03272500043D

 27 29  0  0  0  0  0  0  0  0999 V2000
   36.1770   29.2170   49.2850 C   0  0  0  0  0  0  0  0  0  0  0  0
   36.0070   30.3490   48.4660 C   0  0  0  0  0  0  0  0  0  0  0  0
   34.9100   30.3770   47.6300 C   0  0  0  0  0  0  0  0  0  0  0  0
   34.0450   29.3340   47.6200 N   0  0  0  0  0  0  0  0  0  0  0  0
   34.2270   28.2630   48.4110 C   0  0  0  0  0  0  0  0  0  0  0  0
   35.2910   28.1940   49.2470 N   0  0  0  0  0  0  0  0  0  0  0  0
   37.0290   29.1660   49.9520 H   0  0  0  0  0  0  0  0  0  0  0  0
   34.7750   31.2390   47.0020 H   0  0  0  0  0  0  0  0  0  0  0  0
   36.9840   31.3910   48.5590 N   0  0  0  0  0  0  0  0  0  0  0  0
   37.1220   32.1360   49.6740 C   0  0  0  0  0  0  0  0  0  0  0  0
   38.0880   33.1370   49.7140 C   0  0  0  0  0  0  0  0  0  0  0  0
   38.8290   33.2700   48.5690 C   0  0  0  0  0  0  0  0  0  0  0  0
   39.7130   34.1760   48.5830 O   0  0  0  0  0  0  0  0  0  0  0  0
   38.7080   32.5410   47.4510 N   0  0  0  0  0  0  0  0  0  0  0  0
   37.7530   31.5770   47.4610 C   0  0  0  0  0  0  0  0  0  0  0  0
   37.6330   30.8860   46.4110 O   0  0  0  0  0  0  0  0  0  0  0  0
   36.4910   31.9610   50.5350 H   0  0  0  0  0  0  0  0  0  0  0  0
   38.2450   33.7620   50.5720 H   0  0  0  0  0  0  0  0  0  0  0  0
   39.2980   32.6890   46.6190 H   0  0  0  0  0  0  0  0  0  0  0  0
   33.3670   27.1710   48.4360 O   0  0  0  0  0  0  0  0  0  0  0  0
   31.9880   27.3110   48.2470 C   0  0  0  0  0  0  0  0  0  0  0  0
   31.4850   26.9420   47.0150 C   0  0  0  0  0  3  0  0  0  0  0  0
   30.1250   27.0970   46.8760 C   0  0  0  0  0  0  0  0  0  0  0  0
   29.6550   26.8300   45.9410 H   0  0  0  0  0  0  0  0  0  0  0  0
   29.3050   27.5750   47.8560 N   0  0  0  0  0  0  0  0  0  0  0  0
   29.8570   27.9220   49.0480 C   0  0  0  0  0  3  0  0  0  0  0  0
   31.1860   27.7880   49.2320 N   0  0  0  0  0  0  0  0  0  0  0  0
  1  7  1  0  0  0  0
  2  9  1  0  0  0  0
  2  1  2  0  0  0  0
  3  2  1  0  0  0  0
  4  3  2  0  0  0  0
  4  5  1  0  0  0  0
  5 20  1  0  0  0  0
  5  6  2  0  0  0  0
  6  1  1  0  0  0  0
  8  3  1  0  0  0  0
  9 10  1  0  0  0  0
 10 11  2  0  0  0  0
 10 17  1  0  0  0  0
 11 18  1  0  0  0  0
 12 13  2  0  0  0  0
 12 11  1  0  0  0  0
 14 15  1  0  0  0  0
 14 12  1  0  0  0  0
 15  9  1  0  0  0  0
 16 15  2  0  0  0  0
 19 14  1  0  0  0  0
 21 20  1  0  0  0  0
 21 27  1  0  0  0  0
 22 21  2  0  0  0  0
 23 22  1  0  0  0  0
 23 25  2  0  0  0  0
 24 23  1  0  0  0  0
 25 26  1  0  0  0  0
 26 27  2  0  0  0  0
M  END
>  <minimizedAffinity>
-5.49930382

>  <minimizedRMSD>
0.829185903

$$$$
