
 OpenBabel03262520233D

 30 32  0  0  0  0  0  0  0  0999 V2000
   36.6400   30.8300   45.3100 C   0  0  0  0  0  0  0  0  0  0  0  0
   35.4310   30.1860   44.9990 C   0  0  0  0  0  0  0  0  0  0  0  0
   34.6070   29.5580   45.8650 C   0  0  0  0  0  0  0  0  0  0  0  0
   34.9220   29.5120   47.1740 C   0  0  0  0  0  0  0  0  0  0  0  0
   36.0930   30.1320   47.4960 C   0  0  0  0  0  0  0  0  0  0  0  0
   36.8440   30.7220   46.5970 N   0  0  0  0  0  0  0  0  0  0  0  0
   35.1000   30.1820   43.9070 H   0  0  0  0  0  0  0  0  0  0  0  0
   33.6680   29.0840   45.4750 H   0  0  0  0  0  0  0  0  0  0  0  0
   34.2980   29.0290   47.8870 H   0  0  0  0  0  0  0  0  0  0  0  0
   36.5330   32.2730   43.4370 C   0  0  0  0  0  0  0  0  0  0  0  0
   37.4000   31.4970   44.2670 C   0  0  0  0  0  0  0  0  0  0  0  0
   38.7360   31.5320   43.9690 C   0  0  0  0  0  0  0  0  0  0  0  0
   39.1240   32.3090   42.9040 N   0  0  0  0  0  0  0  0  0  0  0  0
   38.3090   33.0240   42.1460 C   0  0  0  0  0  0  0  0  0  0  0  0
   36.9990   32.9960   42.4270 N   0  0  0  0  0  0  0  0  0  0  0  0
   38.9070   33.7730   41.1140 N   0  0  0  0  0  0  0  0  0  0  0  0
   35.4610   32.3390   43.5550 H   0  0  0  0  0  0  0  0  0  0  0  0
   38.8560   34.8220   41.0870 H   0  0  0  0  0  0  0  0  0  0  0  0
   39.3910   33.1740   40.4060 H   0  0  0  0  0  0  0  0  0  0  0  0
   39.6780   30.7630   44.7830 C   0  0  0  0  0  0  0  0  0  0  0  0
   39.2670   29.5160   44.8520 F   0  0  0  0  0  0  0  0  0  0  0  0
   40.9830   30.8010   44.3290 F   0  0  0  0  0  0  0  0  0  0  0  0
   39.7320   31.2780   46.1110 F   0  0  0  0  0  0  0  0  0  0  0  0
   36.5830   30.1690   48.9030 C   0  0  0  0  0  0  0  0  0  0  0  0
   37.7160   30.8430   49.3000 C   0  0  0  0  0  0  0  0  0  0  0  0
   38.1320   30.8490   50.6150 C   0  0  0  0  0  0  0  0  0  0  0  0
   39.0140   31.3780   50.8930 H   0  0  0  0  0  0  0  0  0  0  0  0
   37.4360   30.1900   51.5570 N   0  0  0  0  0  0  0  0  0  0  0  0
   36.3280   29.5300   51.1790 C   0  0  0  0  0  0  0  0  0  0  0  0
   35.9320   29.5310   49.8940 N   0  0  0  0  0  0  0  0  0  0  0  0
  1  6  1  0  0  0  0
  2  1  2  0  0  0  0
  2  3  1  0  0  0  0
  3  4  2  0  0  0  0
  4  5  1  0  0  0  0
  4  9  1  0  0  0  0
  5 24  1  0  0  0  0
  6  5  2  0  0  0  0
  7  2  1  0  0  0  0
  8  3  1  0  0  0  0
 10 17  1  0  0  0  0
 10 11  1  0  0  0  0
 11  1  1  0  0  0  0
 12 11  2  0  0  0  0
 12 20  1  0  0  0  0
 13 12  1  0  0  0  0
 14 15  1  0  0  0  0
 14 13  2  0  0  0  0
 15 10  2  0  0  0  0
 16 14  1  0  0  0  0
 18 16  1  0  0  0  0
 19 16  1  0  0  0  0
 20 21  1  0  0  0  0
 20 23  1  0  0  0  0
 22 20  1  0  0  0  0
 24 25  2  0  0  0  0
 24 30  1  0  0  0  0
 25 26  1  0  0  0  0
 26 27  1  0  0  0  0
 26 28  2  0  0  0  0
 29 28  1  0  0  0  0
 30 29  2  0  0  0  0
M  END
>  <minimizedAffinity>
-5.83300495

>  <minimizedRMSD>
4.38264418

$$$$
