
 OpenBabel03272504293D

 40 43  0  0  0  0  0  0  0  0999 V2000
   38.1320   25.7030   33.6340 C   0  0  0  0  0  0  0  0  0  0  0  0
   38.0720   26.8760   34.2990 C   0  0  0  0  0  0  0  0  0  0  0  0
   39.0270   27.2290   35.1640 C   0  0  0  0  0  0  0  0  0  0  0  0
   40.0720   26.3850   35.3700 N   0  0  0  0  0  0  0  0  0  0  0  0
   40.1220   25.2340   34.7100 C   0  0  0  0  0  0  0  0  0  0  0  0
   39.1680   24.8740   33.8420 N   0  0  0  0  0  0  0  0  0  0  0  0
   37.2400   27.5570   34.1430 H   0  0  0  0  0  0  0  0  0  0  0  0
   38.9730   28.1730   35.6970 H   0  0  0  0  0  0  0  0  0  0  0  0
   41.2290   23.4330   35.9630 C   0  0  0  0  0  0  0  0  0  0  0  0
   41.2910   24.4290   34.9890 C   0  0  0  0  0  0  0  0  0  0  0  0
   42.4280   24.7360   34.2640 C   0  0  0  0  0  0  0  0  0  0  0  0
   43.5830   24.0260   34.5070 C   0  0  0  0  0  0  0  0  0  0  0  0
   43.6170   23.0260   35.4520 C   0  0  0  0  0  0  0  0  0  0  0  0
   42.4540   22.7970   36.1100 C   0  0  0  0  0  0  0  0  0  0  0  0
   42.4250   25.5170   33.5170 H   0  0  0  0  0  0  0  0  0  0  0  0
   44.4750   24.2670   33.9380 H   0  0  0  0  0  0  0  0  0  0  0  0
   44.5050   22.4710   35.6470 H   0  0  0  0  0  0  0  0  0  0  0  0
   42.4900   21.9950   36.8620 H   0  0  0  0  0  0  0  0  0  0  0  0
   39.8700   23.0220   36.8360 S   0  0  0  0  0  0  0  0  0  0  0  0
   40.6050   22.1830   37.9350 O   0  0  0  0  0  0  0  0  0  0  0  0
   39.0610   22.0810   35.9820 O   0  0  0  0  0  0  0  0  0  0  0  0
   38.7340   23.3300   37.9130 C   0  0  0  0  0  0  0  0  0  0  0  0
   37.4010   22.8710   37.8430 F   0  0  0  0  0  0  0  0  0  0  0  0
   38.2540   24.7110   37.7460 F   0  0  0  0  0  0  0  0  0  0  0  0
   39.0520   23.6960   39.2530 F   0  0  0  0  0  0  0  0  0  0  0  0
   35.4420   25.7310   31.1400 C   0  0  0  0  0  0  0  0  0  0  0  0
   35.2160   24.3570   30.9050 C   0  0  0  0  0  0  0  0  0  0  0  0
   36.0060   23.4630   31.6230 C   0  0  0  0  0  0  0  0  0  0  0  0
   36.9280   23.9580   32.4880 N   0  0  0  0  0  0  0  0  0  0  0  0
   37.1120   25.2920   32.6820 C   0  0  0  0  0  0  0  0  0  0  0  0
   36.3630   26.1680   32.0020 N   0  0  0  0  0  0  0  0  0  0  0  0
   34.8370   26.4390   30.5900 H   0  0  0  0  0  0  0  0  0  0  0  0
   34.4960   23.9680   30.2290 H   0  0  0  0  0  0  0  0  0  0  0  0
   35.9150   22.0120   31.5130 C   0  0  0  0  0  0  0  0  0  0  0  0
   34.9450   21.2780   32.1640 C   0  0  0  0  0  3  0  0  0  0  0  0
   34.8390   19.9040   32.0750 C   0  0  0  0  0  0  0  0  0  0  0  0
   34.0960   19.3220   32.5710 H   0  0  0  0  0  0  0  0  0  0  0  0
   35.7180   19.2200   31.3190 N   0  0  0  0  0  0  0  0  0  0  0  0
   36.6780   19.9500   30.6770 C   0  0  0  0  0  3  0  0  0  0  0  0
   36.7720   21.2880   30.7690 N   0  0  0  0  0  0  0  0  0  0  0  0
  1  6  2  0  0  0  0
  1  2  1  0  0  0  0
  2  3  2  0  0  0  0
  3  4  1  0  0  0  0
  3  8  1  0  0  0  0
  5 10  1  0  0  0  0
  5  4  2  0  0  0  0
  6  5  1  0  0  0  0
  7  2  1  0  0  0  0
  9 14  1  0  0  0  0
  9 19  1  0  0  0  0
 10  9  2  0  0  0  0
 11 12  2  0  0  0  0
 11 10  1  0  0  0  0
 12 13  1  0  0  0  0
 13 17  1  0  0  0  0
 13 14  2  0  0  0  0
 14 18  1  0  0  0  0
 15 11  1  0  0  0  0
 16 12  1  0  0  0  0
 19 22  1  0  0  0  0
 19 20  2  0  0  0  0
 21 19  2  0  0  0  0
 22 25  1  0  0  0  0
 23 22  1  0  0  0  0
 24 22  1  0  0  0  0
 26 31  1  0  0  0  0
 27 26  2  0  0  0  0
 27 28  1  0  0  0  0
 28 29  2  0  0  0  0
 29 30  1  0  0  0  0
 30  1  1  0  0  0  0
 31 30  2  0  0  0  0
 32 26  1  0  0  0  0
 33 27  1  0  0  0  0
 34 28  1  0  0  0  0
 34 35  1  0  0  0  0
 36 35  2  0  0  0  0
 36 37  1  0  0  0  0
 38 36  1  0  0  0  0
 39 40  1  0  0  0  0
 39 38  2  0  0  0  0
 40 34  2  0  0  0  0
M  END
>  <minimizedAffinity>
-7.22732687

$$$$

 OpenBabel03272504293D

 40 43  0  0  0  0  0  0  0  0999 V2000
   39.5160   25.8180   33.4360 C   0  0  0  0  0  0  0  0  0  0  0  0
   40.2990   26.9170   33.4800 C   0  0  0  0  0  0  0  0  0  0  0  0
   41.4500   26.9180   34.1590 C   0  0  0  0  0  0  0  0  0  0  0  0
   41.8280   25.7890   34.8130 N   0  0  0  0  0  0  0  0  0  0  0  0
   41.0510   24.7130   34.7630 C   0  0  0  0  0  0  0  0  0  0  0  0
   39.8970   24.7060   34.0840 N   0  0  0  0  0  0  0  0  0  0  0  0
   40.0060   27.8250   32.9610 H   0  0  0  0  0  0  0  0  0  0  0  0
   42.0750   27.8050   34.1910 H   0  0  0  0  0  0  0  0  0  0  0  0
   40.7770   22.9380   36.4390 C   0  0  0  0  0  0  0  0  0  0  0  0
   41.5650   23.5640   35.4740 C   0  0  0  0  0  0  0  0  0  0  0  0
   42.8530   23.1760   35.1520 C   0  0  0  0  0  0  0  0  0  0  0  0
   43.4120   22.1080   35.8180 C   0  0  0  0  0  0  0  0  0  0  0  0
   42.7100   21.4290   36.7880 C   0  0  0  0  0  0  0  0  0  0  0  0
   41.4550   21.8820   37.0330 C   0  0  0  0  0  0  0  0  0  0  0  0
   43.4240   23.6940   34.3940 H   0  0  0  0  0  0  0  0  0  0  0  0
   44.4230   21.8040   35.5650 H   0  0  0  0  0  0  0  0  0  0  0  0
   43.1330   20.6020   37.3080 H   0  0  0  0  0  0  0  0  0  0  0  0
   40.9010   21.3330   37.8090 H   0  0  0  0  0  0  0  0  0  0  0  0
   39.2150   23.3630   36.8330 S   0  0  0  0  0  0  0  0  0  0  0  0
   39.3100   23.0200   38.3570 O   0  0  0  0  0  0  0  0  0  0  0  0
   38.3020   22.3610   36.1760 O   0  0  0  0  0  0  0  0  0  0  0  0
   38.0920   24.4340   37.2030 C   0  0  0  0  0  0  0  0  0  0  0  0
   38.1730   25.8190   36.9480 F   0  0  0  0  0  0  0  0  0  0  0  0
   38.1270   24.7110   38.6480 F   0  0  0  0  0  0  0  0  0  0  0  0
   36.7320   24.0550   37.3980 F   0  0  0  0  0  0  0  0  0  0  0  0
   36.5920   24.6840   31.5320 C   0  0  0  0  0  0  0  0  0  0  0  0
   35.8660   25.8780   31.3310 C   0  0  0  0  0  0  0  0  0  0  0  0
   36.4160   27.0420   31.8620 C   0  0  0  0  0  0  0  0  0  0  0  0
   37.5950   26.9580   32.5300 N   0  0  0  0  0  0  0  0  0  0  0  0
   38.2620   25.7830   32.7010 C   0  0  0  0  0  0  0  0  0  0  0  0
   37.7490   24.6540   32.1970 N   0  0  0  0  0  0  0  0  0  0  0  0
   36.1780   23.7720   31.1250 H   0  0  0  0  0  0  0  0  0  0  0  0
   34.9430   25.9470   30.8100 H   0  0  0  0  0  0  0  0  0  0  0  0
   35.8110   28.3630   31.7550 C   0  0  0  0  0  0  0  0  0  0  0  0
   36.2940   29.3340   30.9010 C   0  0  0  0  0  3  0  0  0  0  0  0
   35.7380   30.5910   30.7810 C   0  0  0  0  0  0  0  0  0  0  0  0
   36.0980   31.3520   30.1270 H   0  0  0  0  0  0  0  0  0  0  0  0
   34.6660   30.9150   31.5290 N   0  0  0  0  0  0  0  0  0  0  0  0
   34.1910   29.9530   32.3740 C   0  0  0  0  0  3  0  0  0  0  0  0
   34.7390   28.7300   32.4830 N   0  0  0  0  0  0  0  0  0  0  0  0
  1  2  2  0  0  0  0
  1  6  1  0  0  0  0
  2  3  1  0  0  0  0
  3  8  1  0  0  0  0
  3  4  2  0  0  0  0
  5  4  1  0  0  0  0
  5 10  1  0  0  0  0
  6  5  2  0  0  0  0
  7  2  1  0  0  0  0
  9 19  1  0  0  0  0
  9 14  1  0  0  0  0
 10  9  2  0  0  0  0
 11 10  1  0  0  0  0
 11 12  2  0  0  0  0
 12 13  1  0  0  0  0
 13 14  2  0  0  0  0
 13 17  1  0  0  0  0
 14 18  1  0  0  0  0
 15 11  1  0  0  0  0
 16 12  1  0  0  0  0
 19 22  1  0  0  0  0
 19 20  2  0  0  0  0
 21 19  2  0  0  0  0
 22 25  1  0  0  0  0
 22 24  1  0  0  0  0
 23 22  1  0  0  0  0
 26 31  1  0  0  0  0
 27 26  2  0  0  0  0
 27 28  1  0  0  0  0
 28 29  2  0  0  0  0
 29 30  1  0  0  0  0
 30  1  1  0  0  0  0
 31 30  2  0  0  0  0
 32 26  1  0  0  0  0
 33 27  1  0  0  0  0
 34 28  1  0  0  0  0
 34 40  1  0  0  0  0
 35 34  2  0  0  0  0
 36 35  1  0  0  0  0
 36 38  2  0  0  0  0
 37 36  1  0  0  0  0
 38 39  1  0  0  0  0
 39 40  2  0  0  0  0
M  END
>  <minimizedAffinity>
-6.66483545

$$$$

 OpenBabel03272504293D

 40 43  0  0  0  0  0  0  0  0999 V2000
   36.4790   28.2020   33.3950 C   0  0  0  0  0  0  0  0  0  0  0  0
   36.1490   28.5790   32.1410 C   0  0  0  0  0  0  0  0  0  0  0  0
   35.3640   29.6390   31.9220 C   0  0  0  0  0  0  0  0  0  0  0  0
   34.8960   30.3390   32.9870 N   0  0  0  0  0  0  0  0  0  0  0  0
   35.2270   29.9610   34.2160 C   0  0  0  0  0  0  0  0  0  0  0  0
   36.0130   28.9010   34.4420 N   0  0  0  0  0  0  0  0  0  0  0  0
   36.5190   28.0250   31.2820 H   0  0  0  0  0  0  0  0  0  0  0  0
   35.1020   29.9370   30.9120 H   0  0  0  0  0  0  0  0  0  0  0  0
   33.3680   30.6310   35.6760 C   0  0  0  0  0  0  0  0  0  0  0  0
   34.6910   30.7950   35.2690 C   0  0  0  0  0  0  0  0  0  0  0  0
   35.5520   31.7420   35.7920 C   0  0  0  0  0  0  0  0  0  0  0  0
   35.0930   32.5890   36.7760 C   0  0  0  0  0  0  0  0  0  0  0  0
   33.7990   32.5030   37.2400 C   0  0  0  0  0  0  0  0  0  0  0  0
   33.0310   31.5430   36.6680 C   0  0  0  0  0  0  0  0  0  0  0  0
   36.5720   31.8290   35.4430 H   0  0  0  0  0  0  0  0  0  0  0  0
   35.7690   33.3330   37.1860 H   0  0  0  0  0  0  0  0  0  0  0  0
   33.4340   33.1530   38.0000 H   0  0  0  0  0  0  0  0  0  0  0  0
   32.0000   31.4810   37.0460 H   0  0  0  0  0  0  0  0  0  0  0  0
   32.3120   29.4850   35.0860 S   0  0  0  0  0  0  0  0  0  0  0  0
   31.0370   30.3930   35.0860 O   0  0  0  0  0  0  0  0  0  0  0  0
   32.1500   28.4370   36.1560 O   0  0  0  0  0  0  0  0  0  0  0  0
   31.6480   28.6520   33.8990 C   0  0  0  0  0  0  0  0  0  0  0  0
   32.2060   28.4850   32.6130 F   0  0  0  0  0  0  0  0  0  0  0  0
   30.5450   29.4250   33.3060 F   0  0  0  0  0  0  0  0  0  0  0  0
   30.6840   27.6330   34.1470 F   0  0  0  0  0  0  0  0  0  0  0  0
   39.1650   26.0490   34.6630 C   0  0  0  0  0  0  0  0  0  0  0  0
   38.8620   24.7960   34.0860 C   0  0  0  0  0  0  0  0  0  0  0  0
   37.7330   24.7390   33.2730 C   0  0  0  0  0  0  0  0  0  0  0  0
   37.0060   25.8700   33.0880 N   0  0  0  0  0  0  0  0  0  0  0  0
   37.3360   27.0590   33.6650 C   0  0  0  0  0  0  0  0  0  0  0  0
   38.4170   27.1340   34.4500 N   0  0  0  0  0  0  0  0  0  0  0  0
   40.0380   26.1090   35.2970 H   0  0  0  0  0  0  0  0  0  0  0  0
   39.4280   23.9090   34.2300 H   0  0  0  0  0  0  0  0  0  0  0  0
   37.2650   23.5360   32.5950 C   0  0  0  0  0  0  0  0  0  0  0  0
   36.1690   23.5340   31.7580 C   0  0  0  0  0  3  0  0  0  0  0  0
   35.7070   22.4090   31.1060 C   0  0  0  0  0  0  0  0  0  0  0  0
   34.8620   22.3900   30.4560 H   0  0  0  0  0  0  0  0  0  0  0  0
   36.3440   21.2360   31.2800 N   0  0  0  0  0  0  0  0  0  0  0  0
   37.4280   21.2400   32.1100 C   0  0  0  0  0  3  0  0  0  0  0  0
   37.8700   22.3420   32.7400 N   0  0  0  0  0  0  0  0  0  0  0  0
  1 30  1  0  0  0  0
  1  6  1  0  0  0  0
  2  1  2  0  0  0  0
  3  2  1  0  0  0  0
  3  4  2  0  0  0  0
  4  5  1  0  0  0  0
  5  6  2  0  0  0  0
  5 10  1  0  0  0  0
  7  2  1  0  0  0  0
  8  3  1  0  0  0  0
  9 14  1  0  0  0  0
 10  9  2  0  0  0  0
 10 11  1  0  0  0  0
 11 12  2  0  0  0  0
 12 16  1  0  0  0  0
 12 13  1  0  0  0  0
 13 17  1  0  0  0  0
 14 18  1  0  0  0  0
 14 13  2  0  0  0  0
 15 11  1  0  0  0  0
 19  9  1  0  0  0  0
 19 21  2  0  0  0  0
 20 19  2  0  0  0  0
 22 25  1  0  0  0  0
 22 19  1  0  0  0  0
 23 22  1  0  0  0  0
 24 22  1  0  0  0  0
 26 32  1  0  0  0  0
 27 33  1  0  0  0  0
 27 26  2  0  0  0  0
 28 27  1  0  0  0  0
 29 28  2  0  0  0  0
 29 30  1  0  0  0  0
 30 31  2  0  0  0  0
 31 26  1  0  0  0  0
 34 40  1  0  0  0  0
 34 28  1  0  0  0  0
 35 34  2  0  0  0  0
 36 38  2  0  0  0  0
 36 35  1  0  0  0  0
 37 36  1  0  0  0  0
 38 39  1  0  0  0  0
 39 40  2  0  0  0  0
M  END
>  <minimizedAffinity>
-6.6279068

$$$$

 OpenBabel03272504293D

 40 43  0  0  0  0  0  0  0  0999 V2000
   36.0050   28.9240   32.2910 C   0  0  0  0  0  0  0  0  0  0  0  0
   35.5310   29.6030   31.2250 C   0  0  0  0  0  0  0  0  0  0  0  0
   34.7700   30.6900   31.3820 C   0  0  0  0  0  0  0  0  0  0  0  0
   34.4750   31.1090   32.6400 N   0  0  0  0  0  0  0  0  0  0  0  0
   34.9470   30.4340   33.6810 C   0  0  0  0  0  0  0  0  0  0  0  0
   35.7100   29.3440   33.5310 N   0  0  0  0  0  0  0  0  0  0  0  0
   35.7610   29.2760   30.2140 H   0  0  0  0  0  0  0  0  0  0  0  0
   34.3910   31.2320   30.5220 H   0  0  0  0  0  0  0  0  0  0  0  0
   33.3710   30.6450   35.5550 C   0  0  0  0  0  0  0  0  0  0  0  0
   34.5900   30.9850   34.9700 C   0  0  0  0  0  0  0  0  0  0  0  0
   35.5020   31.8600   35.5310 C   0  0  0  0  0  0  0  0  0  0  0  0
   35.2060   32.4440   36.7430 C   0  0  0  0  0  0  0  0  0  0  0  0
   34.0250   32.1680   37.3940 C   0  0  0  0  0  0  0  0  0  0  0  0
   33.1950   31.2990   36.7670 C   0  0  0  0  0  0  0  0  0  0  0  0
   36.4370   32.0920   35.0380 H   0  0  0  0  0  0  0  0  0  0  0  0
   35.9220   33.1300   37.1830 H   0  0  0  0  0  0  0  0  0  0  0  0
   33.7860   32.6140   38.3310 H   0  0  0  0  0  0  0  0  0  0  0  0
   32.2540   31.0840   37.2950 H   0  0  0  0  0  0  0  0  0  0  0  0
   32.2610   29.5770   34.9190 S   0  0  0  0  0  0  0  0  0  0  0  0
   31.0000   30.4810   35.1200 O   0  0  0  0  0  0  0  0  0  0  0  0
   32.1690   28.4120   35.8700 O   0  0  0  0  0  0  0  0  0  0  0  0
   31.5010   28.8880   33.6960 C   0  0  0  0  0  0  0  0  0  0  0  0
   31.0130   27.5640   33.6850 F   0  0  0  0  0  0  0  0  0  0  0  0
   32.4710   28.5260   32.6500 F   0  0  0  0  0  0  0  0  0  0  0  0
   30.8420   29.6580   32.6950 F   0  0  0  0  0  0  0  0  0  0  0  0
   38.1690   26.2920   30.9290 C   0  0  0  0  0  0  0  0  0  0  0  0
   38.4050   25.4670   32.0510 C   0  0  0  0  0  0  0  0  0  0  0  0
   37.8030   25.8520   33.2470 C   0  0  0  0  0  0  0  0  0  0  0  0
   37.0410   26.9750   33.2600 N   0  0  0  0  0  0  0  0  0  0  0  0
   36.8410   27.7410   32.1530 C   0  0  0  0  0  0  0  0  0  0  0  0
   37.4100   27.3880   30.9940 N   0  0  0  0  0  0  0  0  0  0  0  0
   38.6290   26.0070   29.9940 H   0  0  0  0  0  0  0  0  0  0  0  0
   39.0010   24.5890   32.0440 H   0  0  0  0  0  0  0  0  0  0  0  0
   37.9340   25.1270   34.5050 C   0  0  0  0  0  0  0  0  0  0  0  0
   37.9070   25.7590   35.7310 C   0  0  0  0  0  3  0  0  0  0  0  0
   38.0280   25.0960   36.9360 C   0  0  0  0  0  0  0  0  0  0  0  0
   38.0090   25.5680   37.8910 H   0  0  0  0  0  0  0  0  0  0  0  0
   38.1830   23.7580   36.9410 N   0  0  0  0  0  0  0  0  0  0  0  0
   38.2110   23.1360   35.7260 C   0  0  0  0  0  3  0  0  0  0  0  0
   38.0910   23.7910   34.5580 N   0  0  0  0  0  0  0  0  0  0  0  0
  1  6  1  0  0  0  0
  2  3  1  0  0  0  0
  2  1  2  0  0  0  0
  3  4  2  0  0  0  0
  4  5  1  0  0  0  0
  5 10  1  0  0  0  0
  6  5  2  0  0  0  0
  7  2  1  0  0  0  0
  8  3  1  0  0  0  0
  9 14  1  0  0  0  0
 10 11  1  0  0  0  0
 10  9  2  0  0  0  0
 11 12  2  0  0  0  0
 12 16  1  0  0  0  0
 12 13  1  0  0  0  0
 13 17  1  0  0  0  0
 14 18  1  0  0  0  0
 14 13  2  0  0  0  0
 15 11  1  0  0  0  0
 19 20  2  0  0  0  0
 19  9  1  0  0  0  0
 19 21  2  0  0  0  0
 22 19  1  0  0  0  0
 23 22  1  0  0  0  0
 24 22  1  0  0  0  0
 25 22  1  0  0  0  0
 26 31  2  0  0  0  0
 26 27  1  0  0  0  0
 27 28  2  0  0  0  0
 28 29  1  0  0  0  0
 28 34  1  0  0  0  0
 30  1  1  0  0  0  0
 30 29  2  0  0  0  0
 31 30  1  0  0  0  0
 32 26  1  0  0  0  0
 33 27  1  0  0  0  0
 34 40  2  0  0  0  0
 34 35  1  0  0  0  0
 35 36  2  0  0  0  0
 36 38  1  0  0  0  0
 36 37  1  0  0  0  0
 39 38  2  0  0  0  0
 40 39  1  0  0  0  0
M  END
>  <minimizedAffinity>
-6.54585314

$$$$

 OpenBabel03272504293D

 40 43  0  0  0  0  0  0  0  0999 V2000
   36.0520   28.8990   32.5030 C   0  0  0  0  0  0  0  0  0  0  0  0
   35.6950   29.6350   31.4290 C   0  0  0  0  0  0  0  0  0  0  0  0
   34.6850   30.5080   31.4960 C   0  0  0  0  0  0  0  0  0  0  0  0
   34.0130   30.6480   32.6680 N   0  0  0  0  0  0  0  0  0  0  0  0
   34.3730   29.9200   33.7190 C   0  0  0  0  0  0  0  0  0  0  0  0
   35.3840   29.0430   33.6590 N   0  0  0  0  0  0  0  0  0  0  0  0
   36.2250   29.5300   30.4870 H   0  0  0  0  0  0  0  0  0  0  0  0
   34.4020   31.0970   30.6290 H   0  0  0  0  0  0  0  0  0  0  0  0
   33.9980   31.1810   35.7940 C   0  0  0  0  0  0  0  0  0  0  0  0
   33.6050   30.1700   34.9180 C   0  0  0  0  0  0  0  0  0  0  0  0
   32.5170   29.3420   35.1270 C   0  0  0  0  0  0  0  0  0  0  0  0
   31.7630   29.5090   36.2680 C   0  0  0  0  0  0  0  0  0  0  0  0
   32.0770   30.4810   37.1900 C   0  0  0  0  0  0  0  0  0  0  0  0
   33.1600   31.2440   36.8980 C   0  0  0  0  0  0  0  0  0  0  0  0
   32.2510   28.5720   34.4160 H   0  0  0  0  0  0  0  0  0  0  0  0
   30.9090   28.8590   36.4310 H   0  0  0  0  0  0  0  0  0  0  0  0
   31.5010   30.6180   38.0750 H   0  0  0  0  0  0  0  0  0  0  0  0
   33.4020   32.0180   37.6410 H   0  0  0  0  0  0  0  0  0  0  0  0
   35.2870   32.2110   35.5610 S   0  0  0  0  0  0  0  0  0  0  0  0
   36.4040   31.2150   36.0170 O   0  0  0  0  0  0  0  0  0  0  0  0
   35.1750   33.3040   36.5910 O   0  0  0  0  0  0  0  0  0  0  0  0
   36.3790   32.9250   34.6420 C   0  0  0  0  0  0  0  0  0  0  0  0
   37.5060   33.6280   35.1160 F   0  0  0  0  0  0  0  0  0  0  0  0
   35.8330   34.1840   34.1090 F   0  0  0  0  0  0  0  0  0  0  0  0
   36.5810   32.5410   33.2840 F   0  0  0  0  0  0  0  0  0  0  0  0
   39.0910   27.0800   31.5480 C   0  0  0  0  0  0  0  0  0  0  0  0
   39.1730   26.0670   32.5280 C   0  0  0  0  0  0  0  0  0  0  0  0
   38.1670   26.0470   33.4910 C   0  0  0  0  0  0  0  0  0  0  0  0
   37.1880   26.9850   33.4290 N   0  0  0  0  0  0  0  0  0  0  0  0
   37.1490   27.9460   32.4650 C   0  0  0  0  0  0  0  0  0  0  0  0
   38.1070   27.9820   31.5310 N   0  0  0  0  0  0  0  0  0  0  0  0
   39.8650   27.1090   30.7940 H   0  0  0  0  0  0  0  0  0  0  0  0
   39.9370   25.3320   32.5790 H   0  0  0  0  0  0  0  0  0  0  0  0
   38.0850   25.0780   34.5770 C   0  0  0  0  0  0  0  0  0  0  0  0
   37.9670   25.4550   35.9000 C   0  0  0  0  0  3  0  0  0  0  0  0
   37.8890   24.5570   36.9450 C   0  0  0  0  0  0  0  0  0  0  0  0
   37.7970   24.8300   37.9720 H   0  0  0  0  0  0  0  0  0  0  0  0
   37.9270   23.2360   36.6870 N   0  0  0  0  0  0  0  0  0  0  0  0
   38.0450   22.8660   35.3780 C   0  0  0  0  0  3  0  0  0  0  0  0
   38.1200   23.7490   34.3670 N   0  0  0  0  0  0  0  0  0  0  0  0
  1  6  1  0  0  0  0
  2  3  1  0  0  0  0
  2  1  2  0  0  0  0
  3  4  2  0  0  0  0
  4  5  1  0  0  0  0
  5 10  1  0  0  0  0
  6  5  2  0  0  0  0
  7  2  1  0  0  0  0
  8  3  1  0  0  0  0
  9 14  1  0  0  0  0
 10 11  1  0  0  0  0
 10  9  2  0  0  0  0
 11 12  2  0  0  0  0
 12 16  1  0  0  0  0
 12 13  1  0  0  0  0
 13 17  1  0  0  0  0
 14 13  2  0  0  0  0
 14 18  1  0  0  0  0
 15 11  1  0  0  0  0
 19  9  1  0  0  0  0
 19 20  2  0  0  0  0
 19 21  2  0  0  0  0
 22 23  1  0  0  0  0
 22 19  1  0  0  0  0
 24 22  1  0  0  0  0
 25 22  1  0  0  0  0
 26 27  1  0  0  0  0
 27 33  1  0  0  0  0
 27 28  2  0  0  0  0
 28 34  1  0  0  0  0
 29 28  1  0  0  0  0
 30  1  1  0  0  0  0
 30 29  2  0  0  0  0
 31 26  2  0  0  0  0
 31 30  1  0  0  0  0
 32 26  1  0  0  0  0
 34 35  1  0  0  0  0
 35 36  2  0  0  0  0
 36 37  1  0  0  0  0
 38 36  1  0  0  0  0
 39 38  2  0  0  0  0
 40 34  2  0  0  0  0
 40 39  1  0  0  0  0
M  END
>  <minimizedAffinity>
-6.50459766

$$$$

 OpenBabel03272504293D

 40 43  0  0  0  0  0  0  0  0999 V2000
   37.7210   27.1150   34.0280 C   0  0  0  0  0  0  0  0  0  0  0  0
   38.6250   27.5310   34.9400 C   0  0  0  0  0  0  0  0  0  0  0  0
   39.6380   26.7450   35.3170 C   0  0  0  0  0  0  0  0  0  0  0  0
   39.7490   25.5080   34.7670 N   0  0  0  0  0  0  0  0  0  0  0  0
   38.8550   25.1090   33.8700 C   0  0  0  0  0  0  0  0  0  0  0  0
   37.8380   25.8920   33.4880 N   0  0  0  0  0  0  0  0  0  0  0  0
   38.5460   28.5190   35.3860 H   0  0  0  0  0  0  0  0  0  0  0  0
   40.3620   27.0840   36.0500 H   0  0  0  0  0  0  0  0  0  0  0  0
   38.8200   22.6650   34.1200 C   0  0  0  0  0  0  0  0  0  0  0  0
   39.0860   23.7850   33.3350 C   0  0  0  0  0  0  0  0  0  0  0  0
   39.5970   23.7300   32.0510 C   0  0  0  0  0  0  0  0  0  0  0  0
   39.8700   22.4990   31.4960 C   0  0  0  0  0  0  0  0  0  0  0  0
   39.6410   21.3370   32.1970 C   0  0  0  0  0  0  0  0  0  0  0  0
   39.1370   21.4920   33.4470 C   0  0  0  0  0  0  0  0  0  0  0  0
   39.7860   24.6290   31.4810 H   0  0  0  0  0  0  0  0  0  0  0  0
   40.2710   22.4550   30.4890 H   0  0  0  0  0  0  0  0  0  0  0  0
   39.8480   20.3810   31.7780 H   0  0  0  0  0  0  0  0  0  0  0  0
   38.9560   20.5590   33.9990 H   0  0  0  0  0  0  0  0  0  0  0  0
   38.1810   22.6950   35.6590 S   0  0  0  0  0  0  0  0  0  0  0  0
   39.4350   22.1120   36.3900 O   0  0  0  0  0  0  0  0  0  0  0  0
   37.0820   21.6650   35.7040 O   0  0  0  0  0  0  0  0  0  0  0  0
   37.8040   23.4380   37.0190 C   0  0  0  0  0  0  0  0  0  0  0  0
   37.6170   24.8300   37.1600 F   0  0  0  0  0  0  0  0  0  0  0  0
   38.9930   23.5240   37.8830 F   0  0  0  0  0  0  0  0  0  0  0  0
   37.1770   22.7510   38.0990 F   0  0  0  0  0  0  0  0  0  0  0  0
   35.0750   28.6720   32.0200 C   0  0  0  0  0  0  0  0  0  0  0  0
   34.5020   29.5980   32.9180 C   0  0  0  0  0  0  0  0  0  0  0  0
   35.0550   29.6540   34.1950 C   0  0  0  0  0  0  0  0  0  0  0  0
   36.0910   28.8290   34.4920 N   0  0  0  0  0  0  0  0  0  0  0  0
   36.6120   27.9500   33.5930 C   0  0  0  0  0  0  0  0  0  0  0  0
   36.0950   27.8810   32.3610 N   0  0  0  0  0  0  0  0  0  0  0  0
   34.6570   28.6160   31.0240 H   0  0  0  0  0  0  0  0  0  0  0  0
   33.6920   30.2440   32.6880 H   0  0  0  0  0  0  0  0  0  0  0  0
   34.5960   30.5460   35.2530 C   0  0  0  0  0  0  0  0  0  0  0  0
   35.4330   31.4480   35.8770 C   0  0  0  0  0  3  0  0  0  0  0  0
   35.0220   32.3030   36.8810 C   0  0  0  0  0  0  0  0  0  0  0  0
   35.6550   33.0060   37.3730 H   0  0  0  0  0  0  0  0  0  0  0  0
   33.7400   32.2720   37.2920 N   0  0  0  0  0  0  0  0  0  0  0  0
   32.9150   31.3770   36.6730 C   0  0  0  0  0  3  0  0  0  0  0  0
   33.3250   30.5500   35.6960 N   0  0  0  0  0  0  0  0  0  0  0  0
  1  2  1  0  0  0  0
  2  3  2  0  0  0  0
  2  7  1  0  0  0  0
  3  8  1  0  0  0  0
  4  3  1  0  0  0  0
  5  4  2  0  0  0  0
  6  5  1  0  0  0  0
  6  1  2  0  0  0  0
  9 19  1  0  0  0  0
 10  5  1  0  0  0  0
 10  9  2  0  0  0  0
 11 10  1  0  0  0  0
 12 11  2  0  0  0  0
 12 13  1  0  0  0  0
 13 14  2  0  0  0  0
 14 18  1  0  0  0  0
 14  9  1  0  0  0  0
 15 11  1  0  0  0  0
 16 12  1  0  0  0  0
 17 13  1  0  0  0  0
 19 21  2  0  0  0  0
 19 20  2  0  0  0  0
 19 22  1  0  0  0  0
 22 23  1  0  0  0  0
 22 24  1  0  0  0  0
 22 25  1  0  0  0  0
 26 31  2  0  0  0  0
 26 27  1  0  0  0  0
 27 28  2  0  0  0  0
 28 29  1  0  0  0  0
 28 34  1  0  0  0  0
 30  1  1  0  0  0  0
 30 29  2  0  0  0  0
 31 30  1  0  0  0  0
 32 26  1  0  0  0  0
 33 27  1  0  0  0  0
 34 40  2  0  0  0  0
 34 35  1  0  0  0  0
 35 36  2  0  0  0  0
 36 38  1  0  0  0  0
 36 37  1  0  0  0  0
 39 38  2  0  0  0  0
 40 39  1  0  0  0  0
M  END
>  <minimizedAffinity>
-6.33713818

$$$$

 OpenBabel03272504293D

 40 43  0  0  0  0  0  0  0  0999 V2000
   36.0280   28.5820   31.6450 C   0  0  0  0  0  0  0  0  0  0  0  0
   37.1480   29.0470   31.0520 C   0  0  0  0  0  0  0  0  0  0  0  0
   38.1670   28.2320   30.7660 C   0  0  0  0  0  0  0  0  0  0  0  0
   38.0640   26.9150   31.0850 N   0  0  0  0  0  0  0  0  0  0  0  0
   36.9580   26.4680   31.6680 C   0  0  0  0  0  0  0  0  0  0  0  0
   35.9330   27.2800   31.9560 N   0  0  0  0  0  0  0  0  0  0  0  0
   37.2410   30.0990   30.7930 H   0  0  0  0  0  0  0  0  0  0  0  0
   39.0650   28.6110   30.2890 H   0  0  0  0  0  0  0  0  0  0  0  0
   37.4930   24.5660   33.1280 C   0  0  0  0  0  0  0  0  0  0  0  0
   36.9500   25.0470   31.9370 C   0  0  0  0  0  0  0  0  0  0  0  0
   36.4110   24.2440   30.9490 C   0  0  0  0  0  0  0  0  0  0  0  0
   36.4040   22.8780   31.1320 C   0  0  0  0  0  0  0  0  0  0  0  0
   36.9200   22.3120   32.2750 C   0  0  0  0  0  0  0  0  0  0  0  0
   37.4240   23.1800   33.1870 C   0  0  0  0  0  0  0  0  0  0  0  0
   36.0000   24.6660   30.0420 H   0  0  0  0  0  0  0  0  0  0  0  0
   35.9810   22.2490   30.3560 H   0  0  0  0  0  0  0  0  0  0  0  0
   36.9180   21.2590   32.4260 H   0  0  0  0  0  0  0  0  0  0  0  0
   37.8330   22.7190   34.0980 H   0  0  0  0  0  0  0  0  0  0  0  0
   38.1270   25.5060   34.3490 S   0  0  0  0  0  0  0  0  0  0  0  0
   39.6200   25.4260   33.8870 O   0  0  0  0  0  0  0  0  0  0  0  0
   37.9820   24.7270   35.6300 O   0  0  0  0  0  0  0  0  0  0  0  0
   38.4690   26.9140   35.0170 C   0  0  0  0  0  0  0  0  0  0  0  0
   39.7630   27.3560   35.3630 F   0  0  0  0  0  0  0  0  0  0  0  0
   38.1110   26.8860   36.4450 F   0  0  0  0  0  0  0  0  0  0  0  0
   37.5860   28.0280   34.9080 F   0  0  0  0  0  0  0  0  0  0  0  0
   33.6090   31.3410   31.6560 C   0  0  0  0  0  0  0  0  0  0  0  0
   32.7100   30.9670   32.6780 C   0  0  0  0  0  0  0  0  0  0  0  0
   32.9730   29.7660   33.3330 C   0  0  0  0  0  0  0  0  0  0  0  0
   34.0580   29.0430   32.9550 N   0  0  0  0  0  0  0  0  0  0  0  0
   34.8990   29.4430   31.9630 C   0  0  0  0  0  0  0  0  0  0  0  0
   34.6640   30.5940   31.3210 N   0  0  0  0  0  0  0  0  0  0  0  0
   33.4190   32.2710   31.1380 H   0  0  0  0  0  0  0  0  0  0  0  0
   31.8600   31.5300   32.9740 H   0  0  0  0  0  0  0  0  0  0  0  0
   32.1570   29.2190   34.4100 C   0  0  0  0  0  0  0  0  0  0  0  0
   32.3730   29.5310   35.7360 C   0  0  0  0  0  3  0  0  0  0  0  0
   31.6140   29.0270   36.7730 C   0  0  0  0  0  0  0  0  0  0  0  0
   31.7670   29.2580   37.8030 H   0  0  0  0  0  0  0  0  0  0  0  0
   30.6030   28.1810   36.5020 N   0  0  0  0  0  0  0  0  0  0  0  0
   30.3920   27.8720   35.1890 C   0  0  0  0  0  3  0  0  0  0  0  0
   31.1360   28.3700   34.1850 N   0  0  0  0  0  0  0  0  0  0  0  0
  1  6  1  0  0  0  0
  1 30  1  0  0  0  0
  2  1  2  0  0  0  0
  3  2  1  0  0  0  0
  3  4  2  0  0  0  0
  4  5  1  0  0  0  0
  5 10  1  0  0  0  0
  5  6  2  0  0  0  0
  7  2  1  0  0  0  0
  8  3  1  0  0  0  0
  9 14  1  0  0  0  0
  9 19  1  0  0  0  0
 10  9  2  0  0  0  0
 11 12  2  0  0  0  0
 11 10  1  0  0  0  0
 12 13  1  0  0  0  0
 13 17  1  0  0  0  0
 13 14  2  0  0  0  0
 14 18  1  0  0  0  0
 15 11  1  0  0  0  0
 16 12  1  0  0  0  0
 19 22  1  0  0  0  0
 19 21  2  0  0  0  0
 20 19  2  0  0  0  0
 22 23  1  0  0  0  0
 22 24  1  0  0  0  0
 25 22  1  0  0  0  0
 26 27  1  0  0  0  0
 27 33  1  0  0  0  0
 27 28  2  0  0  0  0
 28 34  1  0  0  0  0
 29 28  1  0  0  0  0
 30 29  2  0  0  0  0
 31 26  2  0  0  0  0
 31 30  1  0  0  0  0
 32 26  1  0  0  0  0
 34 35  1  0  0  0  0
 35 36  2  0  0  0  0
 36 37  1  0  0  0  0
 38 36  1  0  0  0  0
 39 38  2  0  0  0  0
 40 34  2  0  0  0  0
 40 39  1  0  0  0  0
M  END
>  <minimizedAffinity>
-6.22579908

$$$$

 OpenBabel03272504293D

 40 43  0  0  0  0  0  0  0  0999 V2000
   36.2170   28.5530   33.0780 C   0  0  0  0  0  0  0  0  0  0  0  0
   35.9550   29.1410   31.8920 C   0  0  0  0  0  0  0  0  0  0  0  0
   35.2510   30.2760   31.8250 C   0  0  0  0  0  0  0  0  0  0  0  0
   34.7980   30.8360   32.9760 N   0  0  0  0  0  0  0  0  0  0  0  0
   35.0620   30.2500   34.1380 C   0  0  0  0  0  0  0  0  0  0  0  0
   35.7660   29.1130   34.2120 N   0  0  0  0  0  0  0  0  0  0  0  0
   36.3130   28.7010   30.9660 H   0  0  0  0  0  0  0  0  0  0  0  0
   35.0430   30.7440   30.8690 H   0  0  0  0  0  0  0  0  0  0  0  0
   33.2670   30.6690   35.7620 C   0  0  0  0  0  0  0  0  0  0  0  0
   34.5510   30.9480   35.2960 C   0  0  0  0  0  0  0  0  0  0  0  0
   35.3920   31.8920   35.8570 C   0  0  0  0  0  0  0  0  0  0  0  0
   34.9520   32.6140   36.9440 C   0  0  0  0  0  0  0  0  0  0  0  0
   33.6970   32.4080   37.4720 C   0  0  0  0  0  0  0  0  0  0  0  0
   32.9460   31.4620   36.8560 C   0  0  0  0  0  0  0  0  0  0  0  0
   36.3820   32.0710   35.4590 H   0  0  0  0  0  0  0  0  0  0  0  0
   35.6120   33.3540   37.3840 H   0  0  0  0  0  0  0  0  0  0  0  0
   33.3470   32.9610   38.3120 H   0  0  0  0  0  0  0  0  0  0  0  0
   31.9460   31.3040   37.2860 H   0  0  0  0  0  0  0  0  0  0  0  0
   32.2380   29.5230   35.1270 S   0  0  0  0  0  0  0  0  0  0  0  0
   30.9630   30.4290   35.0750 O   0  0  0  0  0  0  0  0  0  0  0  0
   32.0330   28.4730   36.1870 O   0  0  0  0  0  0  0  0  0  0  0  0
   31.6260   28.6910   33.9110 C   0  0  0  0  0  0  0  0  0  0  0  0
   32.1650   28.6420   32.6070 F   0  0  0  0  0  0  0  0  0  0  0  0
   30.4410   29.3850   33.3810 F   0  0  0  0  0  0  0  0  0  0  0  0
   30.7680   27.5740   34.1250 F   0  0  0  0  0  0  0  0  0  0  0  0
   37.8590   25.5400   34.3770 C   0  0  0  0  0  0  0  0  0  0  0  0
   38.4680   24.9930   33.2260 C   0  0  0  0  0  0  0  0  0  0  0  0
   38.2890   25.6900   32.0340 C   0  0  0  0  0  0  0  0  0  0  0  0
   37.5540   26.8300   32.0510 N   0  0  0  0  0  0  0  0  0  0  0  0
   36.9840   27.3220   33.1850 C   0  0  0  0  0  0  0  0  0  0  0  0
   37.1450   26.6670   34.3410 N   0  0  0  0  0  0  0  0  0  0  0  0
   37.9880   25.0100   35.3110 H   0  0  0  0  0  0  0  0  0  0  0  0
   39.0420   24.1000   33.2100 H   0  0  0  0  0  0  0  0  0  0  0  0
   38.8410   25.2780   30.7490 C   0  0  0  0  0  0  0  0  0  0  0  0
   38.6220   24.0250   30.2150 C   0  0  0  0  0  3  0  0  0  0  0  0
   39.1330   23.6110   29.0010 C   0  0  0  0  0  0  0  0  0  0  0  0
   38.9740   22.6480   28.5730 H   0  0  0  0  0  0  0  0  0  0  0  0
   39.8900   24.4590   28.2790 N   0  0  0  0  0  0  0  0  0  0  0  0
   40.1060   25.6990   28.8100 C   0  0  0  0  0  3  0  0  0  0  0  0
   39.6030   26.0910   29.9940 N   0  0  0  0  0  0  0  0  0  0  0  0
  1 30  1  0  0  0  0
  1  6  1  0  0  0  0
  2  1  2  0  0  0  0
  3  2  1  0  0  0  0
  3  4  2  0  0  0  0
  4  5  1  0  0  0  0
  5  6  2  0  0  0  0
  5 10  1  0  0  0  0
  7  2  1  0  0  0  0
  8  3  1  0  0  0  0
  9 14  1  0  0  0  0
 10  9  2  0  0  0  0
 10 11  1  0  0  0  0
 11 12  2  0  0  0  0
 12 16  1  0  0  0  0
 12 13  1  0  0  0  0
 13 17  1  0  0  0  0
 14 18  1  0  0  0  0
 14 13  2  0  0  0  0
 15 11  1  0  0  0  0
 19  9  1  0  0  0  0
 19 21  2  0  0  0  0
 20 19  2  0  0  0  0
 22 25  1  0  0  0  0
 22 19  1  0  0  0  0
 23 22  1  0  0  0  0
 24 22  1  0  0  0  0
 26 32  1  0  0  0  0
 27 26  2  0  0  0  0
 28 29  2  0  0  0  0
 28 27  1  0  0  0  0
 29 30  1  0  0  0  0
 30 31  2  0  0  0  0
 31 26  1  0  0  0  0
 33 27  1  0  0  0  0
 34 28  1  0  0  0  0
 35 34  1  0  0  0  0
 36 35  2  0  0  0  0
 37 36  1  0  0  0  0
 38 39  2  0  0  0  0
 38 36  1  0  0  0  0
 39 40  1  0  0  0  0
 40 34  2  0  0  0  0
M  END
>  <minimizedAffinity>
-6.15679646

$$$$

 OpenBabel03272504293D

 40 43  0  0  0  0  0  0  0  0999 V2000
   36.8410   25.3300   32.6720 C   0  0  0  0  0  0  0  0  0  0  0  0
   36.0960   25.9870   31.7580 C   0  0  0  0  0  0  0  0  0  0  0  0
   35.4090   25.3240   30.8220 C   0  0  0  0  0  0  0  0  0  0  0  0
   35.4700   23.9670   30.8010 N   0  0  0  0  0  0  0  0  0  0  0  0
   36.2050   23.3310   31.7060 C   0  0  0  0  0  0  0  0  0  0  0  0
   36.8960   23.9890   32.6450 N   0  0  0  0  0  0  0  0  0  0  0  0
   36.0410   27.0720   31.7660 H   0  0  0  0  0  0  0  0  0  0  0  0
   34.8120   25.8560   30.0890 H   0  0  0  0  0  0  0  0  0  0  0  0
   37.2310   21.2170   30.9870 C   0  0  0  0  0  0  0  0  0  0  0  0
   36.1750   21.8890   31.6020 C   0  0  0  0  0  0  0  0  0  0  0  0
   35.0510   21.2660   32.1130 C   0  0  0  0  0  0  0  0  0  0  0  0
   34.9480   19.8960   32.0160 C   0  0  0  0  0  0  0  0  0  0  0  0
   35.9400   19.1490   31.4230 C   0  0  0  0  0  0  0  0  0  0  0  0
   37.0030   19.8480   30.9530 C   0  0  0  0  0  0  0  0  0  0  0  0
   34.2590   21.8320   32.5830 H   0  0  0  0  0  0  0  0  0  0  0  0
   34.0660   19.4070   32.4180 H   0  0  0  0  0  0  0  0  0  0  0  0
   35.8700   18.0900   31.3430 H   0  0  0  0  0  0  0  0  0  0  0  0
   37.7920   19.2430   30.4820 H   0  0  0  0  0  0  0  0  0  0  0  0
   38.6090   21.9330   30.3830 S   0  0  0  0  0  0  0  0  0  0  0  0
   38.8650   20.9010   29.2350 O   0  0  0  0  0  0  0  0  0  0  0  0
   39.6870   21.7680   31.4210 O   0  0  0  0  0  0  0  0  0  0  0  0
   39.3630   23.0220   29.4940 C   0  0  0  0  0  0  0  0  0  0  0  0
   40.5100   23.7430   29.8900 F   0  0  0  0  0  0  0  0  0  0  0  0
   38.5930   24.2770   29.4860 F   0  0  0  0  0  0  0  0  0  0  0  0
   39.2430   23.0430   28.0740 F   0  0  0  0  0  0  0  0  0  0  0  0
   37.7530   27.3560   35.5910 C   0  0  0  0  0  0  0  0  0  0  0  0
   39.1630   27.2760   35.6020 C   0  0  0  0  0  0  0  0  0  0  0  0
   39.7530   26.5200   34.5920 C   0  0  0  0  0  0  0  0  0  0  0  0
   38.9520   25.9180   33.6770 N   0  0  0  0  0  0  0  0  0  0  0  0
   37.5950   26.0220   33.7060 C   0  0  0  0  0  0  0  0  0  0  0  0
   37.0080   26.7450   34.6680 N   0  0  0  0  0  0  0  0  0  0  0  0
   37.2800   27.9400   36.3690 H   0  0  0  0  0  0  0  0  0  0  0  0
   39.7920   27.7450   36.3170 H   0  0  0  0  0  0  0  0  0  0  0  0
   41.1900   26.3230   34.4430 C   0  0  0  0  0  0  0  0  0  0  0  0
   41.9830   27.1760   33.7030 C   0  0  0  0  0  3  0  0  0  0  0  0
   43.3440   27.0120   33.5470 C   0  0  0  0  0  0  0  0  0  0  0  0
   43.9710   27.6610   32.9790 H   0  0  0  0  0  0  0  0  0  0  0  0
   43.9560   25.9680   34.1390 N   0  0  0  0  0  0  0  0  0  0  0  0
   43.1690   25.1250   34.8700 C   0  0  0  0  0  3  0  0  0  0  0  0
   41.8430   25.2950   35.0160 N   0  0  0  0  0  0  0  0  0  0  0  0
  1 30  1  0  0  0  0
  2  7  1  0  0  0  0
  2  1  2  0  0  0  0
  3  2  1  0  0  0  0
  4  3  2  0  0  0  0
  4  5  1  0  0  0  0
  5  6  2  0  0  0  0
  6  1  1  0  0  0  0
  8  3  1  0  0  0  0
  9 10  1  0  0  0  0
 10  5  1  0  0  0  0
 10 11  2  0  0  0  0
 11 15  1  0  0  0  0
 12 11  1  0  0  0  0
 12 16  1  0  0  0  0
 13 12  2  0  0  0  0
 14  9  2  0  0  0  0
 14 13  1  0  0  0  0
 17 13  1  0  0  0  0
 18 14  1  0  0  0  0
 19  9  1  0  0  0  0
 19 21  2  0  0  0  0
 20 19  2  0  0  0  0
 22 23  1  0  0  0  0
 22 19  1  0  0  0  0
 24 22  1  0  0  0  0
 25 22  1  0  0  0  0
 26 27  1  0  0  0  0
 26 32  1  0  0  0  0
 27 33  1  0  0  0  0
 28 27  2  0  0  0  0
 29 30  2  0  0  0  0
 29 28  1  0  0  0  0
 30 31  1  0  0  0  0
 31 26  2  0  0  0  0
 34 28  1  0  0  0  0
 34 40  1  0  0  0  0
 35 34  2  0  0  0  0
 36 35  1  0  0  0  0
 36 38  2  0  0  0  0
 37 36  1  0  0  0  0
 38 39  1  0  0  0  0
 39 40  2  0  0  0  0
M  END
>  <minimizedAffinity>
-6.07486725

$$$$
