
 OpenBabel03272502173D

 31 33  0  0  1  0  0  0  0  0999 V2000
   36.3330   29.1860   49.6080 S   0  0  0  0  0  0  0  0  0  0  0  0
   33.8130   28.3090   49.1450 N   0  0  0  0  0  0  0  0  0  0  0  0
   34.5530   29.5400   49.2750 C   0  0  2  0  0  0  0  0  0  0  0  0
   34.4430   30.2850   47.9740 C   0  0  0  0  0  0  0  0  0  0  0  0
   33.3780   29.7960   47.1870 O   0  0  0  0  0  0  0  0  0  0  0  0
   33.8040   28.5190   46.7730 C   0  0  0  0  0  0  0  0  0  0  0  0
   34.2280   27.6620   47.9300 C   0  0  2  0  0  0  0  0  0  0  0  0
   34.1080   27.6930   49.9380 H   0  0  0  0  0  0  0  0  0  0  0  0
   34.1640   30.1140   50.1290 H   0  0  0  0  0  0  0  0  0  0  0  0
   35.3760   30.3480   47.4040 H   0  0  0  0  0  0  0  0  0  0  0  0
   34.1410   31.3440   48.2120 H   0  0  0  0  0  0  0  0  0  0  0  0
   34.6320   28.7310   46.0580 H   0  0  0  0  0  0  0  0  0  0  0  0
   32.9690   28.1000   46.1750 H   0  0  0  0  0  0  0  0  0  0  0  0
   35.3280   27.5170   47.8880 H   0  0  0  0  0  0  0  0  0  0  0  0
   33.5840   26.4030   47.8640 O   0  0  0  0  0  0  0  0  0  0  0  0
   34.1110   25.8540   47.2240 H   0  0  0  0  0  0  0  0  0  0  0  0
   37.3500   30.5060   49.0040 C   0  0  0  0  0  0  0  0  0  0  0  0
   37.6320   31.4920   49.9620 C   0  0  0  0  0  0  0  0  0  0  0  0
   38.4190   32.5750   49.6060 C   0  0  0  0  0  0  0  0  0  0  0  0
   38.8900   32.6270   48.3120 N   0  0  0  0  0  0  0  0  0  0  0  0
   38.6030   31.6690   47.4200 C   0  0  0  0  0  0  0  0  0  0  0  0
   37.8450   30.6340   47.7740 N   0  0  0  0  0  0  0  0  0  0  0  0
   37.2860   31.4890   50.9760 H   0  0  0  0  0  0  0  0  0  0  0  0
   38.6590   33.3550   50.3160 H   0  0  0  0  0  0  0  0  0  0  0  0
   39.1420   31.7980   46.0670 C   0  0  0  0  0  0  0  0  0  0  0  0
   40.2780   31.0840   45.7390 C   0  0  0  0  0  0  0  0  0  0  0  0
   40.7100   31.2710   44.4410 C   0  0  0  0  0  0  0  0  0  0  0  0
   41.5860   30.7830   44.0290 H   0  0  0  0  0  0  0  0  0  0  0  0
   40.1040   32.0720   43.5460 N   0  0  0  0  0  0  0  0  0  0  0  0
   38.9930   32.7520   43.9110 C   0  0  0  0  0  0  0  0  0  0  0  0
   38.5260   32.6020   45.1810 N   0  0  0  0  0  0  0  0  0  0  0  0
  2  3  1  0  0  0  0
  2  8  1  0  0  0  0
  3  1  1  0  0  0  0
  3  9  1  1  0  0  0
  4 11  1  0  0  0  0
  4  3  1  0  0  0  0
  5  4  1  0  0  0  0
  6  5  1  0  0  0  0
  6  7  1  0  0  0  0
  7 14  1  6  0  0  0
  7  2  1  0  0  0  0
 10  4  1  0  0  0  0
 12  6  1  0  0  0  0
 13  6  1  0  0  0  0
 15  7  1  0  0  0  0
 16 15  1  0  0  0  0
 17  1  1  0  0  0  0
 17 18  1  0  0  0  0
 18 23  1  0  0  0  0
 19 18  2  0  0  0  0
 19 24  1  0  0  0  0
 20 19  1  0  0  0  0
 21 22  1  0  0  0  0
 21 20  2  0  0  0  0
 22 17  2  0  0  0  0
 25 21  1  0  0  0  0
 26 25  1  0  0  0  0
 27 26  2  0  0  0  0
 28 27  1  0  0  0  0
 29 30  2  0  0  0  0
 29 27  1  0  0  0  0
 30 31  1  0  0  0  0
 31 25  2  0  0  0  0
M  END
>  <minimizedAffinity>
-5.82726431

>  <minimizedRMSD>
0.763017952

$$$$
