
 OpenBabel03272507283D

 39 41  0  0  1  0  0  0  0  0999 V2000
   36.6950   30.4320   48.5850 C   0  0  0  0  0  0  0  0  0  0  0  0
   36.9150   30.8110   47.2440 C   0  0  0  0  0  0  0  0  0  0  0  0
   35.9810   30.3740   46.3040 C   0  0  0  0  0  0  0  0  0  0  0  0
   34.9400   29.6280   46.7100 N   0  0  0  0  0  0  0  0  0  0  0  0
   34.7620   29.2860   48.0000 C   0  0  0  0  0  0  0  0  0  0  0  0
   35.6310   29.6850   48.9240 N   0  0  0  0  0  0  0  0  0  0  0  0
   36.1280   30.7020   44.9580 N   0  0  0  0  0  0  0  0  0  0  0  0
   36.7350   31.9540   44.4300 C   0  0  0  0  0  0  0  0  0  0  0  0
   36.4560   32.0170   42.9810 C   0  0  0  0  0  0  0  0  0  0  0  0
   35.3700   31.0610   42.7940 C   0  0  0  0  0  0  0  0  0  0  0  0
   35.7500   30.0110   43.7680 C   0  0  2  0  0  0  0  0  0  0  0  0
   37.4850   30.8280   49.2320 H   0  0  0  0  0  0  0  0  0  0  0  0
   37.7260   31.3990   46.8810 H   0  0  0  0  0  0  0  0  0  0  0  0
   33.9550   28.6950   48.3950 H   0  0  0  0  0  0  0  0  0  0  0  0
   37.6810   32.2320   44.8240 H   0  0  0  0  0  0  0  0  0  0  0  0
   36.0290   32.7140   44.9640 H   0  0  0  0  0  0  0  0  0  0  0  0
   35.8720   33.0440   42.8750 H   0  0  0  0  0  0  0  0  0  0  0  0
   37.2090   32.2090   42.2610 H   0  0  0  0  0  0  0  0  0  0  0  0
   34.3620   31.4570   43.0350 H   0  0  0  0  0  0  0  0  0  0  0  0
   35.3000   30.6000   41.7850 H   0  0  0  0  0  0  0  0  0  0  0  0
   34.5920   29.0250   43.9470 C   0  0  0  0  0  0  0  0  0  0  0  0
   33.6100   29.6450   44.6890 F   0  0  0  0  0  0  0  0  0  0  0  0
   34.9030   27.8700   44.6000 F   0  0  0  0  0  0  0  0  0  0  0  0
   34.0640   28.8080   42.6940 F   0  0  0  0  0  0  0  0  0  0  0  0
   36.8730   29.2300   43.3390 C   0  0  2  0  0  0  0  0  0  0  0  0
   37.0630   28.3970   43.9780 H   0  0  0  0  0  0  0  0  0  0  0  0
   38.3240   29.8520   43.4720 C   0  0  0  0  0  0  0  0  0  0  0  0
   39.0670   29.8530   44.6460 C   0  0  0  0  0  3  0  0  0  0  0  0
   40.2850   30.4840   44.6660 C   0  0  0  0  0  0  0  0  0  0  0  0
   40.7740   30.4220   45.6300 H   0  0  0  0  0  0  0  0  0  0  0  0
   40.7700   31.0960   43.5810 N   0  0  0  0  0  0  0  0  0  0  0  0
   40.0810   31.1130   42.4350 C   0  0  0  0  0  3  0  0  0  0  0  0
   38.9140   30.5000   42.4430 N   0  0  0  0  0  0  0  0  0  0  0  0
   36.8070   29.0980   42.0910 O   0  0  0  0  0  0  0  0  0  0  0  0
   36.9120   28.1430   41.1530 C   0  0  0  0  0  0  0  0  0  0  0  0
   36.0290   28.2330   40.2990 O   0  0  0  0  0  0  0  0  0  0  0  0
   37.6060   27.0130   40.6450 N   0  0  0  0  0  0  0  0  0  0  0  0
   37.5160   26.0170   40.9590 H   0  0  0  0  0  0  0  0  0  0  0  0
   38.3190   27.0760   39.8570 H   0  0  0  0  0  0  0  0  0  0  0  0
  1  6  1  0  0  0  0
  1 12  1  0  0  0  0
  2  1  2  0  0  0  0
  3  4  2  0  0  0  0
  3  2  1  0  0  0  0
  4  5  1  0  0  0  0
  5 14  1  0  0  0  0
  5  6  2  0  0  0  0
  7  3  1  0  0  0  0
  8 15  1  0  0  0  0
  8  7  1  0  0  0  0
  8 16  1  0  0  0  0
  9  8  1  0  0  0  0
 10  9  1  0  0  0  0
 10 19  1  0  0  0  0
 10 11  1  0  0  0  0
 11 21  1  1  0  0  0
 11  7  1  0  0  0  0
 13  2  1  0  0  0  0
 17  9  1  0  0  0  0
 18  9  1  0  0  0  0
 20 10  1  0  0  0  0
 21 23  1  0  0  0  0
 21 22  1  0  0  0  0
 24 21  1  0  0  0  0
 25 27  1  0  0  0  0
 25 11  1  0  0  0  0
 25 26  1  1  0  0  0
 27 28  1  0  0  0  0
 28 29  2  0  0  0  0
 29 30  1  0  0  0  0
 31 29  1  0  0  0  0
 32 33  1  0  0  0  0
 32 31  2  0  0  0  0
 33 27  2  0  0  0  0
 34 25  1  0  0  0  0
 35 34  1  0  0  0  0
 36 35  2  0  0  0  0
 37 38  1  0  0  0  0
 37 35  1  0  0  0  0
 39 37  1  0  0  0  0
M  END
>  <minimizedAffinity>
-3.35187459

>  <minimizedRMSD>
3.6332047

$$$$
