
 OpenBabel03262521153D

 17 18  0  0  0  0  0  0  0  0999 V2000
   37.4920   22.1520   33.6120 C   0  0  0  0  0  0  0  0  0  0  0  0
   36.4940   21.1850   33.5020 C   0  0  0  0  0  0  0  0  0  0  0  0
   35.4870   21.3850   32.5680 C   0  0  0  0  0  0  0  0  0  0  0  0
   35.5310   22.5110   31.8140 N   0  0  0  0  0  0  0  0  0  0  0  0
   36.5100   23.4430   31.9320 C   0  0  0  0  0  0  0  0  0  0  0  0
   37.4820   23.2590   32.8260 N   0  0  0  0  0  0  0  0  0  0  0  0
   36.4020   20.2870   34.0590 H   0  0  0  0  0  0  0  0  0  0  0  0
   34.6670   20.6960   32.4050 H   0  0  0  0  0  0  0  0  0  0  0  0
   36.5320   24.3380   31.3230 H   0  0  0  0  0  0  0  0  0  0  0  0
   38.4280   21.8260   34.5780 O   0  0  0  0  0  0  0  0  0  0  0  0
   38.5090   22.3400   35.8400 C   0  0  0  0  0  0  0  0  0  0  0  0
   39.7930   22.2210   36.3850 C   0  0  0  0  0  3  0  0  0  0  0  0
   40.0660   22.6940   37.6730 C   0  0  0  0  0  0  0  0  0  0  0  0
   41.0500   22.6100   38.1100 H   0  0  0  0  0  0  0  0  0  0  0  0
   39.0490   23.2680   38.3680 N   0  0  0  0  0  0  0  0  0  0  0  0
   37.8050   23.3800   37.8310 C   0  0  0  0  0  3  0  0  0  0  0  0
   37.5550   22.9270   36.6060 N   0  0  0  0  0  0  0  0  0  0  0  0
  1 10  1  0  0  0  0
  2  1  1  0  0  0  0
  2  7  1  0  0  0  0
  3  2  2  0  0  0  0
  4  5  2  0  0  0  0
  4  3  1  0  0  0  0
  5  6  1  0  0  0  0
  6  1  2  0  0  0  0
  8  3  1  0  0  0  0
  9  5  1  0  0  0  0
 10 11  1  0  0  0  0
 11 12  2  0  0  0  0
 11 17  1  0  0  0  0
 12 13  1  0  0  0  0
 13 14  1  0  0  0  0
 13 15  2  0  0  0  0
 16 15  1  0  0  0  0
 17 16  2  0  0  0  0
M  END
>  <minimizedAffinity>
-3.83880687

$$$$

 OpenBabel03262521153D

 17 18  0  0  0  0  0  0  0  0999 V2000
   38.4610   24.9300   36.4040 C   0  0  0  0  0  0  0  0  0  0  0  0
   38.0250   24.4370   37.6320 C   0  0  0  0  0  0  0  0  0  0  0  0
   38.6690   23.3270   38.1600 C   0  0  0  0  0  0  0  0  0  0  0  0
   39.6880   22.7840   37.4500 N   0  0  0  0  0  0  0  0  0  0  0  0
   40.1020   23.2760   36.2550 C   0  0  0  0  0  0  0  0  0  0  0  0
   39.4900   24.3420   35.7410 N   0  0  0  0  0  0  0  0  0  0  0  0
   37.2370   24.8140   38.2350 H   0  0  0  0  0  0  0  0  0  0  0  0
   38.4060   22.8680   39.1050 H   0  0  0  0  0  0  0  0  0  0  0  0
   40.9180   22.8310   35.7000 H   0  0  0  0  0  0  0  0  0  0  0  0
   37.7330   26.0350   35.9970 O   0  0  0  0  0  0  0  0  0  0  0  0
   37.3400   26.3290   34.7230 C   0  0  0  0  0  0  0  0  0  0  0  0
   36.9260   27.6580   34.5840 C   0  0  0  0  0  3  0  0  0  0  0  0
   36.4880   28.1420   33.3460 C   0  0  0  0  0  0  0  0  0  0  0  0
   36.1650   29.1640   33.2200 H   0  0  0  0  0  0  0  0  0  0  0  0
   36.4800   27.2800   32.2950 N   0  0  0  0  0  0  0  0  0  0  0  0
   36.8840   25.9900   32.4380 C   0  0  0  0  0  3  0  0  0  0  0  0
   37.2990   25.5400   33.6200 N   0  0  0  0  0  0  0  0  0  0  0  0
  1  2  1  0  0  0  0
  2  3  2  0  0  0  0
  2  7  1  0  0  0  0
  3  8  1  0  0  0  0
  4  3  1  0  0  0  0
  5  4  2  0  0  0  0
  6  5  1  0  0  0  0
  6  1  2  0  0  0  0
  9  5  1  0  0  0  0
 10  1  1  0  0  0  0
 11 10  1  0  0  0  0
 12 11  1  0  0  0  0
 13 12  2  0  0  0  0
 14 13  1  0  0  0  0
 15 16  2  0  0  0  0
 15 13  1  0  0  0  0
 16 17  1  0  0  0  0
 17 11  2  0  0  0  0
M  END
>  <minimizedAffinity>
-3.81070566

$$$$

 OpenBabel03262521153D

 17 18  0  0  0  0  0  0  0  0999 V2000
   38.5860   22.3410   35.8560 C   0  0  0  0  0  0  0  0  0  0  0  0
   39.8600   22.1720   36.3960 C   0  0  0  0  0  0  0  0  0  0  0  0
   40.0980   22.6510   37.6770 C   0  0  0  0  0  0  0  0  0  0  0  0
   39.0770   23.2560   38.3320 N   0  0  0  0  0  0  0  0  0  0  0  0
   37.8420   23.4120   37.7930 C   0  0  0  0  0  0  0  0  0  0  0  0
   37.6030   22.9550   36.5630 N   0  0  0  0  0  0  0  0  0  0  0  0
   40.6980   21.7100   35.9390 H   0  0  0  0  0  0  0  0  0  0  0  0
   41.0510   22.5710   38.1850 H   0  0  0  0  0  0  0  0  0  0  0  0
   37.0350   23.8980   38.3280 H   0  0  0  0  0  0  0  0  0  0  0  0
   38.4890   21.8180   34.5780 O   0  0  0  0  0  0  0  0  0  0  0  0
   37.5450   22.1270   33.6410 C   0  0  0  0  0  0  0  0  0  0  0  0
   36.5280   21.1680   33.5700 C   0  0  0  0  0  3  0  0  0  0  0  0
   35.4710   21.3170   32.6650 C   0  0  0  0  0  0  0  0  0  0  0  0
   34.6790   20.5880   32.5950 H   0  0  0  0  0  0  0  0  0  0  0  0
   35.4700   22.4160   31.8660 N   0  0  0  0  0  0  0  0  0  0  0  0
   36.4620   23.3440   31.9420 C   0  0  0  0  0  3  0  0  0  0  0  0
   37.4620   23.1930   32.8060 N   0  0  0  0  0  0  0  0  0  0  0  0
  1  2  2  0  0  0  0
  1  6  1  0  0  0  0
  2  3  1  0  0  0  0
  3  8  1  0  0  0  0
  3  4  2  0  0  0  0
  5  9  1  0  0  0  0
  5  4  1  0  0  0  0
  6  5  2  0  0  0  0
  7  2  1  0  0  0  0
 10  1  1  0  0  0  0
 11 10  1  0  0  0  0
 12 11  1  0  0  0  0
 13 12  2  0  0  0  0
 14 13  1  0  0  0  0
 15 16  2  0  0  0  0
 15 13  1  0  0  0  0
 16 17  1  0  0  0  0
 17 11  2  0  0  0  0
M  END
>  <minimizedAffinity>
-3.81059122

$$$$

 OpenBabel03262521153D

 17 18  0  0  0  0  0  0  0  0999 V2000
   37.3640   26.3310   34.7120 C   0  0  0  0  0  0  0  0  0  0  0  0
   36.9040   27.6420   34.6000 C   0  0  0  0  0  0  0  0  0  0  0  0
   36.4670   28.0800   33.3580 C   0  0  0  0  0  0  0  0  0  0  0  0
   36.5120   27.2070   32.3210 N   0  0  0  0  0  0  0  0  0  0  0  0
   36.9620   25.9330   32.4460 C   0  0  0  0  0  0  0  0  0  0  0  0
   37.3830   25.5030   33.6370 N   0  0  0  0  0  0  0  0  0  0  0  0
   36.8440   28.3720   35.3670 H   0  0  0  0  0  0  0  0  0  0  0  0
   36.0930   29.0780   33.1650 H   0  0  0  0  0  0  0  0  0  0  0  0
   36.9910   25.2460   31.6100 H   0  0  0  0  0  0  0  0  0  0  0  0
   37.7670   26.0290   36.0010 O   0  0  0  0  0  0  0  0  0  0  0  0
   38.4830   24.9360   36.3960 C   0  0  0  0  0  0  0  0  0  0  0  0
   38.0410   24.4200   37.6200 C   0  0  0  0  0  3  0  0  0  0  0  0
   38.6570   23.2970   38.1830 C   0  0  0  0  0  0  0  0  0  0  0  0
   38.3290   22.8850   39.1260 H   0  0  0  0  0  0  0  0  0  0  0  0
   39.6900   22.7330   37.5050 N   0  0  0  0  0  0  0  0  0  0  0  0
   40.1140   23.2400   36.3170 C   0  0  0  0  0  3  0  0  0  0  0  0
   39.5220   24.3080   35.7900 N   0  0  0  0  0  0  0  0  0  0  0  0
  1 10  1  0  0  0  0
  2  1  1  0  0  0  0
  2  7  1  0  0  0  0
  3  2  2  0  0  0  0
  4  5  2  0  0  0  0
  4  3  1  0  0  0  0
  5  6  1  0  0  0  0
  6  1  2  0  0  0  0
  8  3  1  0  0  0  0
  9  5  1  0  0  0  0
 10 11  1  0  0  0  0
 11 12  1  0  0  0  0
 12 13  2  0  0  0  0
 13 14  1  0  0  0  0
 15 13  1  0  0  0  0
 16 15  2  0  0  0  0
 17 16  1  0  0  0  0
 17 11  2  0  0  0  0
M  END
>  <minimizedAffinity>
-3.79656553

$$$$

 OpenBabel03262521153D

 17 18  0  0  0  0  0  0  0  0999 V2000
   35.6700   21.3970   31.6850 C   0  0  0  0  0  0  0  0  0  0  0  0
   35.9490   20.2920   30.8820 C   0  0  0  0  0  0  0  0  0  0  0  0
   35.9600   19.0380   31.4740 C   0  0  0  0  0  0  0  0  0  0  0  0
   35.6990   18.9570   32.8020 N   0  0  0  0  0  0  0  0  0  0  0  0
   35.4290   20.0410   33.5710 C   0  0  0  0  0  0  0  0  0  0  0  0
   35.4150   21.2510   33.0100 N   0  0  0  0  0  0  0  0  0  0  0  0
   36.1600   20.2880   29.8430 H   0  0  0  0  0  0  0  0  0  0  0  0
   36.1660   18.1180   30.9400 H   0  0  0  0  0  0  0  0  0  0  0  0
   35.2220   19.9610   34.6300 H   0  0  0  0  0  0  0  0  0  0  0  0
   35.6920   22.5810   30.9670 O   0  0  0  0  0  0  0  0  0  0  0  0
   36.0350   23.8150   31.4410 C   0  0  0  0  0  0  0  0  0  0  0  0
   35.2200   24.8310   30.9280 C   0  0  0  0  0  3  0  0  0  0  0  0
   35.4230   26.1630   31.3030 C   0  0  0  0  0  0  0  0  0  0  0  0
   34.8050   26.9600   30.9170 H   0  0  0  0  0  0  0  0  0  0  0  0
   36.4310   26.4310   32.1730 N   0  0  0  0  0  0  0  0  0  0  0  0
   37.2180   25.4390   32.6670 C   0  0  0  0  0  3  0  0  0  0  0  0
   37.0170   24.1750   32.3050 N   0  0  0  0  0  0  0  0  0  0  0  0
  1  6  1  0  0  0  0
  2  3  1  0  0  0  0
  2  1  2  0  0  0  0
  3  4  2  0  0  0  0
  4  5  1  0  0  0  0
  5  9  1  0  0  0  0
  6  5  2  0  0  0  0
  7  2  1  0  0  0  0
  8  3  1  0  0  0  0
 10 11  1  0  0  0  0
 10  1  1  0  0  0  0
 11 17  1  0  0  0  0
 12 13  1  0  0  0  0
 12 11  2  0  0  0  0
 13 15  2  0  0  0  0
 14 13  1  0  0  0  0
 15 16  1  0  0  0  0
 17 16  2  0  0  0  0
M  END
>  <minimizedAffinity>
-3.65613103

$$$$

 OpenBabel03262521153D

 17 18  0  0  0  0  0  0  0  0999 V2000
   37.1100   25.1720   32.5960 C   0  0  0  0  0  0  0  0  0  0  0  0
   36.7280   26.4820   32.3110 C   0  0  0  0  0  0  0  0  0  0  0  0
   35.7010   26.6820   31.4000 C   0  0  0  0  0  0  0  0  0  0  0  0
   35.1250   25.5900   30.8380 N   0  0  0  0  0  0  0  0  0  0  0  0
   35.5070   24.3210   31.1270 C   0  0  0  0  0  0  0  0  0  0  0  0
   36.4930   24.1190   32.0020 N   0  0  0  0  0  0  0  0  0  0  0  0
   37.1360   27.3750   32.7130 H   0  0  0  0  0  0  0  0  0  0  0  0
   35.3310   27.6580   31.1090 H   0  0  0  0  0  0  0  0  0  0  0  0
   35.0380   23.4590   30.6710 H   0  0  0  0  0  0  0  0  0  0  0  0
   38.1420   25.1200   33.5170 O   0  0  0  0  0  0  0  0  0  0  0  0
   38.1870   24.3560   34.6480 C   0  0  0  0  0  0  0  0  0  0  0  0
   37.9830   25.1080   35.8110 C   0  0  0  0  0  3  0  0  0  0  0  0
   37.9940   24.4940   37.0680 C   0  0  0  0  0  0  0  0  0  0  0  0
   37.8390   25.0590   37.9750 H   0  0  0  0  0  0  0  0  0  0  0  0
   38.2080   23.1530   37.1170 N   0  0  0  0  0  0  0  0  0  0  0  0
   38.4040   22.4290   35.9830 C   0  0  0  0  0  3  0  0  0  0  0  0
   38.3920   23.0230   34.7930 N   0  0  0  0  0  0  0  0  0  0  0  0
  1 10  1  0  0  0  0
  2  1  1  0  0  0  0
  2  7  1  0  0  0  0
  3  2  2  0  0  0  0
  4  5  2  0  0  0  0
  4  3  1  0  0  0  0
  5  6  1  0  0  0  0
  6  1  2  0  0  0  0
  8  3  1  0  0  0  0
  9  5  1  0  0  0  0
 10 11  1  0  0  0  0
 11 17  2  0  0  0  0
 11 12  1  0  0  0  0
 12 13  2  0  0  0  0
 13 15  1  0  0  0  0
 13 14  1  0  0  0  0
 16 15  2  0  0  0  0
 17 16  1  0  0  0  0
M  END
>  <minimizedAffinity>
-3.628227

$$$$

 OpenBabel03262521153D

 17 18  0  0  0  0  0  0  0  0999 V2000
   37.7850   25.1530   33.9520 C   0  0  0  0  0  0  0  0  0  0  0  0
   37.2480   24.7980   32.7160 C   0  0  0  0  0  0  0  0  0  0  0  0
   36.6080   25.7800   31.9720 C   0  0  0  0  0  0  0  0  0  0  0  0
   36.5430   27.0310   32.4900 N   0  0  0  0  0  0  0  0  0  0  0  0
   37.0720   27.3620   33.6950 C   0  0  0  0  0  0  0  0  0  0  0  0
   37.6880   26.4250   34.4170 N   0  0  0  0  0  0  0  0  0  0  0  0
   37.2640   23.8420   32.2560 H   0  0  0  0  0  0  0  0  0  0  0  0
   36.1580   25.6070   31.0020 H   0  0  0  0  0  0  0  0  0  0  0  0
   37.0120   28.3660   34.0960 H   0  0  0  0  0  0  0  0  0  0  0  0
   38.3910   24.0800   34.5840 O   0  0  0  0  0  0  0  0  0  0  0  0
   38.4630   23.8630   35.9300 C   0  0  0  0  0  0  0  0  0  0  0  0
   39.6290   23.1810   36.2990 C   0  0  0  0  0  3  0  0  0  0  0  0
   39.8760   22.8690   37.6410 C   0  0  0  0  0  0  0  0  0  0  0  0
   40.7690   22.3440   37.9440 H   0  0  0  0  0  0  0  0  0  0  0  0
   38.9520   23.2490   38.5610 N   0  0  0  0  0  0  0  0  0  0  0  0
   37.8230   23.9120   38.1950 C   0  0  0  0  0  3  0  0  0  0  0  0
   37.5970   24.2030   36.9160 N   0  0  0  0  0  0  0  0  0  0  0  0
  1  6  1  0  0  0  0
  1 10  1  0  0  0  0
  2  1  2  0  0  0  0
  3  4  2  0  0  0  0
  3  2  1  0  0  0  0
  4  5  1  0  0  0  0
  5  9  1  0  0  0  0
  5  6  2  0  0  0  0
  7  2  1  0  0  0  0
  8  3  1  0  0  0  0
 10 11  1  0  0  0  0
 11 12  2  0  0  0  0
 11 17  1  0  0  0  0
 12 13  1  0  0  0  0
 13 14  1  0  0  0  0
 13 15  2  0  0  0  0
 16 15  1  0  0  0  0
 17 16  2  0  0  0  0
M  END
>  <minimizedAffinity>
-3.61607671

$$$$

 OpenBabel03262521153D

 17 18  0  0  0  0  0  0  0  0999 V2000
   39.0080   24.1730   35.8750 C   0  0  0  0  0  0  0  0  0  0  0  0
   38.0670   24.6790   36.7700 C   0  0  0  0  0  0  0  0  0  0  0  0
   38.0610   24.1830   38.0660 C   0  0  0  0  0  0  0  0  0  0  0  0
   38.9740   23.2340   38.3900 N   0  0  0  0  0  0  0  0  0  0  0  0
   39.8850   22.7520   37.5080 C   0  0  0  0  0  0  0  0  0  0  0  0
   39.8980   23.2230   36.2600 N   0  0  0  0  0  0  0  0  0  0  0  0
   37.3290   25.4180   36.5810 H   0  0  0  0  0  0  0  0  0  0  0  0
   37.3710   24.5090   38.8350 H   0  0  0  0  0  0  0  0  0  0  0  0
   40.6080   21.9940   37.7810 H   0  0  0  0  0  0  0  0  0  0  0  0
   38.9010   24.7540   34.6230 O   0  0  0  0  0  0  0  0  0  0  0  0
   38.0060   24.4240   33.6460 C   0  0  0  0  0  0  0  0  0  0  0  0
   37.4240   25.5500   33.0520 C   0  0  0  0  0  3  0  0  0  0  0  0
   36.4810   25.4070   32.0280 C   0  0  0  0  0  0  0  0  0  0  0  0
   36.0220   26.2640   31.5580 H   0  0  0  0  0  0  0  0  0  0  0  0
   36.1540   24.1470   31.6370 N   0  0  0  0  0  0  0  0  0  0  0  0
   36.7240   23.0590   32.2190 C   0  0  0  0  0  3  0  0  0  0  0  0
   37.6200   23.2050   33.1920 N   0  0  0  0  0  0  0  0  0  0  0  0
  1  6  2  0  0  0  0
  1  2  1  0  0  0  0
  2  3  2  0  0  0  0
  3  4  1  0  0  0  0
  3  8  1  0  0  0  0
  5  9  1  0  0  0  0
  5  4  2  0  0  0  0
  6  5  1  0  0  0  0
  7  2  1  0  0  0  0
 10  1  1  0  0  0  0
 11 10  1  0  0  0  0
 12 11  2  0  0  0  0
 13 12  1  0  0  0  0
 14 13  1  0  0  0  0
 15 13  2  0  0  0  0
 15 16  1  0  0  0  0
 16 17  2  0  0  0  0
 17 11  1  0  0  0  0
M  END
>  <minimizedAffinity>
-3.60395598

$$$$

 OpenBabel03262521153D

 17 18  0  0  0  0  0  0  0  0999 V2000
   35.8950   24.0090   31.4470 C   0  0  0  0  0  0  0  0  0  0  0  0
   35.2070   25.1020   30.9210 C   0  0  0  0  0  0  0  0  0  0  0  0
   35.5720   26.3720   31.3450 C   0  0  0  0  0  0  0  0  0  0  0  0
   36.5780   26.4790   32.2480 N   0  0  0  0  0  0  0  0  0  0  0  0
   37.2380   25.4060   32.7500 C   0  0  0  0  0  0  0  0  0  0  0  0
   36.8950   24.1810   32.3480 N   0  0  0  0  0  0  0  0  0  0  0  0
   34.4150   25.0860   30.2160 H   0  0  0  0  0  0  0  0  0  0  0  0
   35.1010   27.2840   30.9980 H   0  0  0  0  0  0  0  0  0  0  0  0
   38.0400   25.5060   33.4710 H   0  0  0  0  0  0  0  0  0  0  0  0
   35.4300   22.8080   30.9390 O   0  0  0  0  0  0  0  0  0  0  0  0
   35.8490   21.5570   31.2930 C   0  0  0  0  0  0  0  0  0  0  0  0
   35.0540   20.9910   32.2960 C   0  0  0  0  0  3  0  0  0  0  0  0
   35.3320   19.7100   32.7860 C   0  0  0  0  0  0  0  0  0  0  0  0
   34.7310   19.2580   33.5600 H   0  0  0  0  0  0  0  0  0  0  0  0
   36.3920   19.0440   32.2570 N   0  0  0  0  0  0  0  0  0  0  0  0
   37.1590   19.6010   31.2820 C   0  0  0  0  0  3  0  0  0  0  0  0
   36.8860   20.8200   30.8230 N   0  0  0  0  0  0  0  0  0  0  0  0
  1  6  1  0  0  0  0
  2  3  1  0  0  0  0
  2  1  2  0  0  0  0
  3  4  2  0  0  0  0
  4  5  1  0  0  0  0
  5  9  1  0  0  0  0
  6  5  2  0  0  0  0
  7  2  1  0  0  0  0
  8  3  1  0  0  0  0
 10 11  1  0  0  0  0
 10  1  1  0  0  0  0
 11 12  1  0  0  0  0
 12 13  2  0  0  0  0
 13 14  1  0  0  0  0
 15 13  1  0  0  0  0
 16 15  2  0  0  0  0
 17 16  1  0  0  0  0
 17 11  2  0  0  0  0
M  END
>  <minimizedAffinity>
-3.60106921

$$$$
