
 OpenBabel03272500203D

 32 34  0  0  0  0  0  0  0  0999 V2000
   35.5640   28.3050   32.1000 C   0  0  0  0  0  0  0  0  0  0  0  0
   36.5260   27.3870   32.5730 C   0  0  0  0  0  0  0  0  0  0  0  0
   36.9990   27.5100   33.8860 C   0  0  0  0  0  0  0  0  0  0  0  0
   36.4860   28.5310   34.6370 N   0  0  0  0  0  0  0  0  0  0  0  0
   35.5870   29.3780   34.1770 C   0  0  0  0  0  0  0  0  0  0  0  0
   35.1100   29.2900   32.9190 N   0  0  0  0  0  0  0  0  0  0  0  0
   35.1880   28.2240   31.0880 H   0  0  0  0  0  0  0  0  0  0  0  0
   32.6010   29.3460   34.6860 Cl  0  0  0  0  0  0  0  0  0  0  0  0
   33.7220   30.5340   35.3560 C   0  0  0  0  0  0  0  0  0  0  0  0
   35.0850   30.4500   35.0510 C   0  0  0  0  0  0  0  0  0  0  0  0
   36.0110   31.3650   35.5580 C   0  0  0  0  0  0  0  0  0  0  0  0
   35.4930   32.3640   36.3810 C   0  0  0  0  0  0  0  0  0  0  0  0
   34.1620   32.4700   36.6950 C   0  0  0  0  0  0  0  0  0  0  0  0
   33.6560   33.7690   37.7370 Cl  0  0  0  0  0  0  0  0  0  0  0  0
   33.2860   31.5420   36.1720 C   0  0  0  0  0  0  0  0  0  0  0  0
   37.0560   31.3000   35.3230 H   0  0  0  0  0  0  0  0  0  0  0  0
   36.2010   33.0900   36.7860 H   0  0  0  0  0  0  0  0  0  0  0  0
   31.8310   31.6320   36.4970 C   0  0  0  0  0  0  0  0  0  0  0  0
   31.4470   30.5290   37.2730 F   0  0  0  0  0  0  0  0  0  0  0  0
   31.0570   31.7290   35.3740 F   0  0  0  0  0  0  0  0  0  0  0  0
   31.5910   32.7400   37.2780 F   0  0  0  0  0  0  0  0  0  0  0  0
   37.9810   26.5870   34.3930 C   0  0  0  0  0  0  0  0  0  0  0  0
   39.3200   26.9910   34.3690 C   0  0  0  0  0  3  0  0  0  0  0  0
   40.2660   26.1080   34.8570 C   0  0  0  0  0  0  0  0  0  0  0  0
   41.2940   26.4450   34.8260 H   0  0  0  0  0  0  0  0  0  0  0  0
   39.9470   24.8970   35.3420 N   0  0  0  0  0  0  0  0  0  0  0  0
   38.6570   24.5190   35.3600 C   0  0  0  0  0  3  0  0  0  0  0  0
   37.7120   25.3570   34.8940 N   0  0  0  0  0  0  0  0  0  0  0  0
   37.0160   26.3100   31.6610 C   0  0  0  0  0  0  0  0  0  0  0  0
   36.6600   25.0480   32.1360 F   0  0  0  0  0  0  0  0  0  0  0  0
   36.4520   26.4960   30.4180 F   0  0  0  0  0  0  0  0  0  0  0  0
   38.3890   26.3410   31.5050 F   0  0  0  0  0  0  0  0  0  0  0  0
  1  2  2  0  0  0  0
  1  6  1  0  0  0  0
  2  3  1  0  0  0  0
  3 22  1  0  0  0  0
  3  4  2  0  0  0  0
  5  4  1  0  0  0  0
  5 10  1  0  0  0  0
  6  5  2  0  0  0  0
  7  1  1  0  0  0  0
  8  9  1  0  0  0  0
  9 15  1  0  0  0  0
 10  9  2  0  0  0  0
 10 11  1  0  0  0  0
 11 12  2  0  0  0  0
 12 13  1  0  0  0  0
 12 17  1  0  0  0  0
 13 14  1  0  0  0  0
 15 18  1  0  0  0  0
 15 13  2  0  0  0  0
 16 11  1  0  0  0  0
 18 19  1  0  0  0  0
 18 21  1  0  0  0  0
 20 18  1  0  0  0  0
 22 28  1  0  0  0  0
 23 22  2  0  0  0  0
 23 24  1  0  0  0  0
 24 26  2  0  0  0  0
 25 24  1  0  0  0  0
 26 27  1  0  0  0  0
 28 27  2  0  0  0  0
 29 30  1  0  0  0  0
 29  2  1  0  0  0  0
 31 29  1  0  0  0  0
 32 29  1  0  0  0  0
M  END
>  <minimizedAffinity>
-6.14992762

$$$$

 OpenBabel03272500203D

 32 34  0  0  0  0  0  0  0  0999 V2000
   36.8620   29.2090   31.2470 C   0  0  0  0  0  0  0  0  0  0  0  0
   37.6150   28.1460   31.7910 C   0  0  0  0  0  0  0  0  0  0  0  0
   37.2510   27.6200   33.0370 C   0  0  0  0  0  0  0  0  0  0  0  0
   36.1680   28.1810   33.6560 N   0  0  0  0  0  0  0  0  0  0  0  0
   35.4780   29.1740   33.1300 C   0  0  0  0  0  0  0  0  0  0  0  0
   35.7990   29.7050   31.9340 N   0  0  0  0  0  0  0  0  0  0  0  0
   37.1310   29.6270   30.2860 H   0  0  0  0  0  0  0  0  0  0  0  0
   36.1550   30.8140   35.5860 Cl  0  0  0  0  0  0  0  0  0  0  0  0
   34.5170   30.4960   35.0110 C   0  0  0  0  0  0  0  0  0  0  0  0
   34.3240   29.7220   33.8610 C   0  0  0  0  0  0  0  0  0  0  0  0
   33.0470   29.4430   33.3660 C   0  0  0  0  0  0  0  0  0  0  0  0
   31.9830   29.9810   34.0880 C   0  0  0  0  0  0  0  0  0  0  0  0
   32.1440   30.7420   35.2180 C   0  0  0  0  0  0  0  0  0  0  0  0
   30.7230   31.3500   36.0190 Cl  0  0  0  0  0  0  0  0  0  0  0  0
   33.4240   30.9900   35.6680 C   0  0  0  0  0  0  0  0  0  0  0  0
   32.9000   28.8500   32.4850 H   0  0  0  0  0  0  0  0  0  0  0  0
   30.9770   29.7730   33.7180 H   0  0  0  0  0  0  0  0  0  0  0  0
   33.6300   31.8160   36.8960 C   0  0  0  0  0  0  0  0  0  0  0  0
   32.9760   31.2230   37.9840 F   0  0  0  0  0  0  0  0  0  0  0  0
   33.2150   33.1070   36.7240 F   0  0  0  0  0  0  0  0  0  0  0  0
   34.9670   31.8380   37.2290 F   0  0  0  0  0  0  0  0  0  0  0  0
   38.0020   26.5360   33.6160 C   0  0  0  0  0  0  0  0  0  0  0  0
   39.0440   26.8650   34.4880 C   0  0  0  0  0  3  0  0  0  0  0  0
   39.7670   25.8270   35.0460 C   0  0  0  0  0  0  0  0  0  0  0  0
   40.5690   26.1100   35.7170 H   0  0  0  0  0  0  0  0  0  0  0  0
   39.5070   24.5360   34.7810 N   0  0  0  0  0  0  0  0  0  0  0  0
   38.5030   24.2320   33.9410 C   0  0  0  0  0  3  0  0  0  0  0  0
   37.7800   25.2200   33.3820 N   0  0  0  0  0  0  0  0  0  0  0  0
   38.7820   27.6120   31.0250 C   0  0  0  0  0  0  0  0  0  0  0  0
   38.5640   26.2920   30.6340 F   0  0  0  0  0  0  0  0  0  0  0  0
   38.9620   28.3880   29.9010 F   0  0  0  0  0  0  0  0  0  0  0  0
   39.9530   27.6580   31.7570 F   0  0  0  0  0  0  0  0  0  0  0  0
  1  2  2  0  0  0  0
  1  6  1  0  0  0  0
  2  3  1  0  0  0  0
  3 22  1  0  0  0  0
  3  4  2  0  0  0  0
  5  4  1  0  0  0  0
  5 10  1  0  0  0  0
  6  5  2  0  0  0  0
  7  1  1  0  0  0  0
  9  8  1  0  0  0  0
  9 15  1  0  0  0  0
 10  9  2  0  0  0  0
 11 10  1  0  0  0  0
 11 12  2  0  0  0  0
 12 13  1  0  0  0  0
 13 15  2  0  0  0  0
 13 14  1  0  0  0  0
 15 18  1  0  0  0  0
 16 11  1  0  0  0  0
 17 12  1  0  0  0  0
 18 21  1  0  0  0  0
 18 19  1  0  0  0  0
 20 18  1  0  0  0  0
 22 23  1  0  0  0  0
 23 24  2  0  0  0  0
 24 25  1  0  0  0  0
 26 24  1  0  0  0  0
 27 26  2  0  0  0  0
 28 22  2  0  0  0  0
 28 27  1  0  0  0  0
 29 32  1  0  0  0  0
 29  2  1  0  0  0  0
 30 29  1  0  0  0  0
 31 29  1  0  0  0  0
M  END
>  <minimizedAffinity>
-6.0134182

$$$$

 OpenBabel03272500203D

 32 34  0  0  0  0  0  0  0  0999 V2000
   36.5070   29.7720   31.5880 C   0  0  0  0  0  0  0  0  0  0  0  0
   35.8410   30.4750   32.6150 C   0  0  0  0  0  0  0  0  0  0  0  0
   35.6030   29.8320   33.8360 C   0  0  0  0  0  0  0  0  0  0  0  0
   36.0400   28.5420   33.9560 N   0  0  0  0  0  0  0  0  0  0  0  0
   36.6600   27.9040   32.9830 C   0  0  0  0  0  0  0  0  0  0  0  0
   36.9070   28.4900   31.7950 N   0  0  0  0  0  0  0  0  0  0  0  0
   36.6980   30.2540   30.6370 H   0  0  0  0  0  0  0  0  0  0  0  0
   38.4020   27.4450   35.4190 Cl  0  0  0  0  0  0  0  0  0  0  0  0
   37.9080   26.1850   34.2860 C   0  0  0  0  0  0  0  0  0  0  0  0
   37.0990   26.5150   33.1920 C   0  0  0  0  0  0  0  0  0  0  0  0
   36.6820   25.5530   32.2690 C   0  0  0  0  0  0  0  0  0  0  0  0
   37.1210   24.2510   32.5040 C   0  0  0  0  0  0  0  0  0  0  0  0
   37.9140   23.9010   33.5670 C   0  0  0  0  0  0  0  0  0  0  0  0
   38.3870   22.2340   33.7370 Cl  0  0  0  0  0  0  0  0  0  0  0  0
   38.3000   24.8860   34.4520 C   0  0  0  0  0  0  0  0  0  0  0  0
   36.0620   25.8060   31.4310 H   0  0  0  0  0  0  0  0  0  0  0  0
   36.8060   23.4850   31.7920 H   0  0  0  0  0  0  0  0  0  0  0  0
   39.1640   24.5340   35.6200 C   0  0  0  0  0  0  0  0  0  0  0  0
   38.5890   25.0230   36.8010 F   0  0  0  0  0  0  0  0  0  0  0  0
   40.4420   24.9970   35.4730 F   0  0  0  0  0  0  0  0  0  0  0  0
   39.2190   23.1660   35.7690 F   0  0  0  0  0  0  0  0  0  0  0  0
   34.9250   30.5260   34.9020 C   0  0  0  0  0  0  0  0  0  0  0  0
   35.7050   31.2990   35.7680 C   0  0  0  0  0  3  0  0  0  0  0  0
   35.0590   31.9670   36.7910 C   0  0  0  0  0  0  0  0  0  0  0  0
   35.6860   32.5580   37.4470 H   0  0  0  0  0  0  0  0  0  0  0  0
   33.7310   31.8980   36.9790 N   0  0  0  0  0  0  0  0  0  0  0  0
   32.9910   31.1510   36.1400 C   0  0  0  0  0  3  0  0  0  0  0  0
   33.5910   30.4900   35.1330 N   0  0  0  0  0  0  0  0  0  0  0  0
   35.4070   31.8840   32.3720 C   0  0  0  0  0  0  0  0  0  0  0  0
   36.1200   32.7740   33.1730 F   0  0  0  0  0  0  0  0  0  0  0  0
   35.6350   32.1920   31.0490 F   0  0  0  0  0  0  0  0  0  0  0  0
   34.0590   32.0660   32.6180 F   0  0  0  0  0  0  0  0  0  0  0  0
  1  6  2  0  0  0  0
  1  2  1  0  0  0  0
  2  3  2  0  0  0  0
  3  4  1  0  0  0  0
  3 22  1  0  0  0  0
  5 10  1  0  0  0  0
  5  4  2  0  0  0  0
  6  5  1  0  0  0  0
  7  1  1  0  0  0  0
  9 15  1  0  0  0  0
  9  8  1  0  0  0  0
 10  9  2  0  0  0  0
 11 12  2  0  0  0  0
 11 10  1  0  0  0  0
 12 13  1  0  0  0  0
 13 14  1  0  0  0  0
 13 15  2  0  0  0  0
 15 18  1  0  0  0  0
 16 11  1  0  0  0  0
 17 12  1  0  0  0  0
 18 21  1  0  0  0  0
 18 19  1  0  0  0  0
 20 18  1  0  0  0  0
 22 28  2  0  0  0  0
 22 23  1  0  0  0  0
 23 24  2  0  0  0  0
 24 26  1  0  0  0  0
 24 25  1  0  0  0  0
 27 26  2  0  0  0  0
 28 27  1  0  0  0  0
 29  2  1  0  0  0  0
 29 32  1  0  0  0  0
 29 30  1  0  0  0  0
 31 29  1  0  0  0  0
M  END
>  <minimizedAffinity>
-6.00060463

$$$$

 OpenBabel03272500203D

 32 34  0  0  0  0  0  0  0  0999 V2000
   36.2720   30.7590   31.0260 C   0  0  0  0  0  0  0  0  0  0  0  0
   36.5470   29.3750   30.9900 C   0  0  0  0  0  0  0  0  0  0  0  0
   35.8560   28.5200   31.8570 C   0  0  0  0  0  0  0  0  0  0  0  0
   34.9420   29.0930   32.6980 N   0  0  0  0  0  0  0  0  0  0  0  0
   34.7000   30.3880   32.7160 C   0  0  0  0  0  0  0  0  0  0  0  0
   35.3450   31.2410   31.8950 N   0  0  0  0  0  0  0  0  0  0  0  0
   36.7970   31.4340   30.3630 H   0  0  0  0  0  0  0  0  0  0  0  0
   35.7020   30.9240   35.5240 Cl  0  0  0  0  0  0  0  0  0  0  0  0
   34.0500   31.2120   34.9760 C   0  0  0  0  0  0  0  0  0  0  0  0
   33.6990   30.9260   33.6510 C   0  0  0  0  0  0  0  0  0  0  0  0
   32.4050   31.1380   33.1700 C   0  0  0  0  0  0  0  0  0  0  0  0
   31.4890   31.6480   34.0880 C   0  0  0  0  0  0  0  0  0  0  0  0
   31.8050   31.9360   35.3910 C   0  0  0  0  0  0  0  0  0  0  0  0
   30.5590   32.5700   36.4290 Cl  0  0  0  0  0  0  0  0  0  0  0  0
   33.0970   31.7110   35.8200 C   0  0  0  0  0  0  0  0  0  0  0  0
   32.1370   30.9180   32.1550 H   0  0  0  0  0  0  0  0  0  0  0  0
   30.4710   31.8190   33.7310 H   0  0  0  0  0  0  0  0  0  0  0  0
   33.4710   32.0160   37.2340 C   0  0  0  0  0  0  0  0  0  0  0  0
   32.9230   31.0510   38.0900 F   0  0  0  0  0  0  0  0  0  0  0  0
   33.0870   33.2730   37.6090 F   0  0  0  0  0  0  0  0  0  0  0  0
   34.8370   31.9220   37.3900 F   0  0  0  0  0  0  0  0  0  0  0  0
   36.1180   27.1030   31.8410 C   0  0  0  0  0  0  0  0  0  0  0  0
   36.9880   26.5960   32.8110 C   0  0  0  0  0  3  0  0  0  0  0  0
   37.2410   25.2370   32.8010 C   0  0  0  0  0  0  0  0  0  0  0  0
   37.9180   24.8710   33.5620 H   0  0  0  0  0  0  0  0  0  0  0  0
   36.6890   24.4030   31.9030 N   0  0  0  0  0  0  0  0  0  0  0  0
   35.8540   24.9020   30.9750 C   0  0  0  0  0  3  0  0  0  0  0  0
   35.5870   26.2210   30.9610 N   0  0  0  0  0  0  0  0  0  0  0  0
   37.5690   28.8600   30.0290 C   0  0  0  0  0  0  0  0  0  0  0  0
   36.9660   28.1810   28.9710 F   0  0  0  0  0  0  0  0  0  0  0  0
   38.2800   29.9280   29.5280 F   0  0  0  0  0  0  0  0  0  0  0  0
   38.4710   28.0040   30.6340 F   0  0  0  0  0  0  0  0  0  0  0  0
  1  6  1  0  0  0  0
  2  1  2  0  0  0  0
  2  3  1  0  0  0  0
  3  4  2  0  0  0  0
  4  5  1  0  0  0  0
  5 10  1  0  0  0  0
  6  5  2  0  0  0  0
  7  1  1  0  0  0  0
  9  8  1  0  0  0  0
  9 15  1  0  0  0  0
 10  9  2  0  0  0  0
 11 10  1  0  0  0  0
 11 12  2  0  0  0  0
 12 13  1  0  0  0  0
 13 15  2  0  0  0  0
 13 14  1  0  0  0  0
 15 18  1  0  0  0  0
 16 11  1  0  0  0  0
 17 12  1  0  0  0  0
 18 21  1  0  0  0  0
 18 20  1  0  0  0  0
 18 19  1  0  0  0  0
 22  3  1  0  0  0  0
 22 23  1  0  0  0  0
 24 23  2  0  0  0  0
 24 25  1  0  0  0  0
 26 24  1  0  0  0  0
 27 26  2  0  0  0  0
 28 27  1  0  0  0  0
 28 22  2  0  0  0  0
 29 32  1  0  0  0  0
 29  2  1  0  0  0  0
 30 29  1  0  0  0  0
 31 29  1  0  0  0  0
M  END
>  <minimizedAffinity>
-5.87295389

$$$$

 OpenBabel03272500203D

 32 34  0  0  0  0  0  0  0  0999 V2000
   36.7900   29.0340   30.9340 C   0  0  0  0  0  0  0  0  0  0  0  0
   36.1770   29.7970   31.9500 C   0  0  0  0  0  0  0  0  0  0  0  0
   35.8970   29.1930   33.1820 C   0  0  0  0  0  0  0  0  0  0  0  0
   36.2430   27.8780   33.3220 N   0  0  0  0  0  0  0  0  0  0  0  0
   36.8140   27.1820   32.3600 C   0  0  0  0  0  0  0  0  0  0  0  0
   37.0990   27.7300   31.1620 N   0  0  0  0  0  0  0  0  0  0  0  0
   37.0130   29.4850   29.9760 H   0  0  0  0  0  0  0  0  0  0  0  0
   35.0700   25.1700   30.9130 Cl  0  0  0  0  0  0  0  0  0  0  0  0
   36.4180   24.7520   31.9730 C   0  0  0  0  0  0  0  0  0  0  0  0
   37.1560   25.7690   32.5910 C   0  0  0  0  0  0  0  0  0  0  0  0
   38.2310   25.4880   33.4370 C   0  0  0  0  0  0  0  0  0  0  0  0
   38.5200   24.1380   33.6290 C   0  0  0  0  0  0  0  0  0  0  0  0
   37.8130   23.1230   33.0370 C   0  0  0  0  0  0  0  0  0  0  0  0
   38.2860   21.4800   33.3660 Cl  0  0  0  0  0  0  0  0  0  0  0  0
   36.7600   23.4490   32.2080 C   0  0  0  0  0  0  0  0  0  0  0  0
   38.7960   26.2680   33.9100 H   0  0  0  0  0  0  0  0  0  0  0  0
   39.3570   23.8990   34.2880 H   0  0  0  0  0  0  0  0  0  0  0  0
   35.9720   22.3640   31.5500 C   0  0  0  0  0  0  0  0  0  0  0  0
   35.1710   21.7140   32.4990 F   0  0  0  0  0  0  0  0  0  0  0  0
   36.7730   21.4700   30.8950 F   0  0  0  0  0  0  0  0  0  0  0  0
   35.0990   22.9070   30.6320 F   0  0  0  0  0  0  0  0  0  0  0  0
   35.2720   29.9500   34.2370 C   0  0  0  0  0  0  0  0  0  0  0  0
   33.8920   29.8030   34.4070 C   0  0  0  0  0  3  0  0  0  0  0  0
   33.2880   30.5260   35.4190 C   0  0  0  0  0  0  0  0  0  0  0  0
   32.2190   30.3930   35.5280 H   0  0  0  0  0  0  0  0  0  0  0  0
   33.9710   31.3530   36.2270 N   0  0  0  0  0  0  0  0  0  0  0  0
   35.2980   31.4870   36.0540 C   0  0  0  0  0  3  0  0  0  0  0  0
   35.9150   30.7950   35.0780 N   0  0  0  0  0  0  0  0  0  0  0  0
   35.8430   31.2290   31.6850 C   0  0  0  0  0  0  0  0  0  0  0  0
   36.6050   32.0800   32.4830 F   0  0  0  0  0  0  0  0  0  0  0  0
   36.1050   31.5040   30.3600 F   0  0  0  0  0  0  0  0  0  0  0  0
   34.5070   31.5050   31.9110 F   0  0  0  0  0  0  0  0  0  0  0  0
  1  6  2  0  0  0  0
  1  2  1  0  0  0  0
  2  3  2  0  0  0  0
  3  4  1  0  0  0  0
  3 22  1  0  0  0  0
  5 10  1  0  0  0  0
  5  4  2  0  0  0  0
  6  5  1  0  0  0  0
  7  1  1  0  0  0  0
  8  9  1  0  0  0  0
  9 15  2  0  0  0  0
  9 10  1  0  0  0  0
 10 11  2  0  0  0  0
 11 12  1  0  0  0  0
 11 16  1  0  0  0  0
 12 17  1  0  0  0  0
 13 14  1  0  0  0  0
 13 12  2  0  0  0  0
 15 13  1  0  0  0  0
 18 15  1  0  0  0  0
 18 19  1  0  0  0  0
 20 18  1  0  0  0  0
 21 18  1  0  0  0  0
 22 23  2  0  0  0  0
 22 28  1  0  0  0  0
 23 24  1  0  0  0  0
 24 25  1  0  0  0  0
 24 26  2  0  0  0  0
 27 26  1  0  0  0  0
 28 27  2  0  0  0  0
 29 32  1  0  0  0  0
 29  2  1  0  0  0  0
 29 30  1  0  0  0  0
 31 29  1  0  0  0  0
M  END
>  <minimizedAffinity>
-5.86185312

$$$$

 OpenBabel03272500203D

 32 34  0  0  0  0  0  0  0  0999 V2000
   36.6420   28.2860   32.0250 C   0  0  0  0  0  0  0  0  0  0  0  0
   35.9420   29.2550   32.7750 C   0  0  0  0  0  0  0  0  0  0  0  0
   35.9780   29.1910   34.1740 C   0  0  0  0  0  0  0  0  0  0  0  0
   36.7020   28.1740   34.7310 N   0  0  0  0  0  0  0  0  0  0  0  0
   37.3480   27.2780   34.0120 C   0  0  0  0  0  0  0  0  0  0  0  0
   37.3370   27.3090   32.6640 N   0  0  0  0  0  0  0  0  0  0  0  0
   36.6250   28.3210   30.9430 H   0  0  0  0  0  0  0  0  0  0  0  0
   40.2900   27.1260   33.3020 Cl  0  0  0  0  0  0  0  0  0  0  0  0
   39.4740   26.0490   34.4380 C   0  0  0  0  0  0  0  0  0  0  0  0
   38.1070   26.2140   34.6890 C   0  0  0  0  0  0  0  0  0  0  0  0
   37.4170   25.3880   35.5800 C   0  0  0  0  0  0  0  0  0  0  0  0
   38.1720   24.3930   36.1990 C   0  0  0  0  0  0  0  0  0  0  0  0
   39.5130   24.2100   35.9710 C   0  0  0  0  0  0  0  0  0  0  0  0
   40.3310   22.9260   36.8160 Cl  0  0  0  0  0  0  0  0  0  0  0  0
   40.1500   25.0510   35.0830 C   0  0  0  0  0  0  0  0  0  0  0  0
   36.3690   25.5140   35.7710 H   0  0  0  0  0  0  0  0  0  0  0  0
   37.6510   23.7370   36.8980 H   0  0  0  0  0  0  0  0  0  0  0  0
   41.6100   24.8760   34.8150 C   0  0  0  0  0  0  0  0  0  0  0  0
   42.2960   26.0590   35.1220 F   0  0  0  0  0  0  0  0  0  0  0  0
   41.8540   24.4920   33.5260 F   0  0  0  0  0  0  0  0  0  0  0  0
   42.1300   23.9140   35.6520 F   0  0  0  0  0  0  0  0  0  0  0  0
   35.2720   30.1670   34.9640 C   0  0  0  0  0  0  0  0  0  0  0  0
   36.0280   31.1760   35.5700 C   0  0  0  0  0  3  0  0  0  0  0  0
   35.3550   32.1160   36.3280 C   0  0  0  0  0  0  0  0  0  0  0  0
   35.9640   32.8840   36.7860 H   0  0  0  0  0  0  0  0  0  0  0  0
   34.0230   32.0910   36.5000 N   0  0  0  0  0  0  0  0  0  0  0  0
   33.3060   31.1170   35.9130 C   0  0  0  0  0  3  0  0  0  0  0  0
   33.9330   30.1870   35.1670 N   0  0  0  0  0  0  0  0  0  0  0  0
   35.1820   30.3230   32.0580 C   0  0  0  0  0  0  0  0  0  0  0  0
   35.6250   31.5920   32.4300 F   0  0  0  0  0  0  0  0  0  0  0  0
   35.3700   30.1630   30.7030 F   0  0  0  0  0  0  0  0  0  0  0  0
   33.8230   30.2510   32.3020 F   0  0  0  0  0  0  0  0  0  0  0  0
  1  6  2  0  0  0  0
  1  2  1  0  0  0  0
  2  3  2  0  0  0  0
  3  4  1  0  0  0  0
  3 22  1  0  0  0  0
  5 10  1  0  0  0  0
  5  4  2  0  0  0  0
  6  5  1  0  0  0  0
  7  1  1  0  0  0  0
  8  9  1  0  0  0  0
  9 10  2  0  0  0  0
  9 15  1  0  0  0  0
 10 11  1  0  0  0  0
 11 16  1  0  0  0  0
 11 12  2  0  0  0  0
 12 17  1  0  0  0  0
 13 12  1  0  0  0  0
 13 14  1  0  0  0  0
 15 13  2  0  0  0  0
 18 15  1  0  0  0  0
 18 19  1  0  0  0  0
 18 21  1  0  0  0  0
 20 18  1  0  0  0  0
 22 28  2  0  0  0  0
 22 23  1  0  0  0  0
 23 24  2  0  0  0  0
 24 26  1  0  0  0  0
 24 25  1  0  0  0  0
 27 26  2  0  0  0  0
 28 27  1  0  0  0  0
 29 32  1  0  0  0  0
 29 30  1  0  0  0  0
 29  2  1  0  0  0  0
 31 29  1  0  0  0  0
M  END
>  <minimizedAffinity>
-5.79972506

$$$$

 OpenBabel03272500203D

 32 34  0  0  0  0  0  0  0  0999 V2000
   38.1500   26.0430   36.0770 C   0  0  0  0  0  0  0  0  0  0  0  0
   38.3250   24.7600   35.5150 C   0  0  0  0  0  0  0  0  0  0  0  0
   37.9870   24.5530   34.1720 C   0  0  0  0  0  0  0  0  0  0  0  0
   37.5000   25.6270   33.4800 N   0  0  0  0  0  0  0  0  0  0  0  0
   37.3440   26.8180   34.0240 C   0  0  0  0  0  0  0  0  0  0  0  0
   37.6590   27.0540   35.3130 N   0  0  0  0  0  0  0  0  0  0  0  0
   38.4060   26.2200   37.1140 H   0  0  0  0  0  0  0  0  0  0  0  0
   38.5600   27.0980   31.2640 Cl  0  0  0  0  0  0  0  0  0  0  0  0
   37.3020   28.1480   31.9180 C   0  0  0  0  0  0  0  0  0  0  0  0
   36.8140   27.9230   33.2110 C   0  0  0  0  0  0  0  0  0  0  0  0
   35.8180   28.7270   33.7720 C   0  0  0  0  0  0  0  0  0  0  0  0
   35.3450   29.7620   32.9670 C   0  0  0  0  0  0  0  0  0  0  0  0
   35.8050   30.0040   31.6980 C   0  0  0  0  0  0  0  0  0  0  0  0
   35.1220   31.3340   30.8060 Cl  0  0  0  0  0  0  0  0  0  0  0  0
   36.7890   29.1840   31.1870 C   0  0  0  0  0  0  0  0  0  0  0  0
   35.4450   28.5540   34.7620 H   0  0  0  0  0  0  0  0  0  0  0  0
   34.5660   30.4020   33.3890 H   0  0  0  0  0  0  0  0  0  0  0  0
   37.3100   29.4240   29.8070 C   0  0  0  0  0  0  0  0  0  0  0  0
   38.7080   29.5180   29.8370 F   0  0  0  0  0  0  0  0  0  0  0  0
   36.7590   30.5360   29.2350 F   0  0  0  0  0  0  0  0  0  0  0  0
   37.0250   28.3430   29.0020 F   0  0  0  0  0  0  0  0  0  0  0  0
   38.1560   23.2530   33.5720 C   0  0  0  0  0  0  0  0  0  0  0  0
   39.3870   22.9750   32.9700 C   0  0  0  0  0  3  0  0  0  0  0  0
   39.5540   21.7290   32.3950 C   0  0  0  0  0  0  0  0  0  0  0  0
   40.5150   21.5410   31.9350 H   0  0  0  0  0  0  0  0  0  0  0  0
   38.5890   20.7950   32.3940 N   0  0  0  0  0  0  0  0  0  0  0  0
   37.4090   21.0730   32.9770 C   0  0  0  0  0  3  0  0  0  0  0  0
   37.2170   22.2780   33.5470 N   0  0  0  0  0  0  0  0  0  0  0  0
   38.8650   23.6580   36.3670 C   0  0  0  0  0  0  0  0  0  0  0  0
   40.1560   23.3050   35.9740 F   0  0  0  0  0  0  0  0  0  0  0  0
   38.8990   24.0900   37.6750 F   0  0  0  0  0  0  0  0  0  0  0  0
   38.0750   22.5260   36.3210 F   0  0  0  0  0  0  0  0  0  0  0  0
  1  7  1  0  0  0  0
  2  1  1  0  0  0  0
  2 29  1  0  0  0  0
  3  2  2  0  0  0  0
  4  5  2  0  0  0  0
  4  3  1  0  0  0  0
  5  6  1  0  0  0  0
  6  1  2  0  0  0  0
  8  9  1  0  0  0  0
  9 10  1  0  0  0  0
 10 11  2  0  0  0  0
 10  5  1  0  0  0  0
 11 16  1  0  0  0  0
 12 17  1  0  0  0  0
 12 11  1  0  0  0  0
 13 12  2  0  0  0  0
 14 13  1  0  0  0  0
 15 13  1  0  0  0  0
 15  9  2  0  0  0  0
 18 19  1  0  0  0  0
 18 15  1  0  0  0  0
 20 18  1  0  0  0  0
 21 18  1  0  0  0  0
 22  3  1  0  0  0  0
 23 22  2  0  0  0  0
 24 23  1  0  0  0  0
 25 24  1  0  0  0  0
 26 24  2  0  0  0  0
 26 27  1  0  0  0  0
 27 28  2  0  0  0  0
 28 22  1  0  0  0  0
 29 31  1  0  0  0  0
 30 29  1  0  0  0  0
 32 29  1  0  0  0  0
M  END
>  <minimizedAffinity>
-5.70756769

$$$$

 OpenBabel03272500203D

 32 34  0  0  0  0  0  0  0  0999 V2000
   36.3680   29.9980   30.8320 C   0  0  0  0  0  0  0  0  0  0  0  0
   35.9300   30.6470   32.0060 C   0  0  0  0  0  0  0  0  0  0  0  0
   35.5630   29.8750   33.1150 C   0  0  0  0  0  0  0  0  0  0  0  0
   35.6570   28.5170   32.9860 N   0  0  0  0  0  0  0  0  0  0  0  0
   36.0680   27.9300   31.8790 C   0  0  0  0  0  0  0  0  0  0  0  0
   36.4300   28.6410   30.7930 N   0  0  0  0  0  0  0  0  0  0  0  0
   36.6550   30.5790   29.9650 H   0  0  0  0  0  0  0  0  0  0  0  0
   38.3070   26.6750   33.4890 Cl  0  0  0  0  0  0  0  0  0  0  0  0
   37.1350   25.7730   32.5260 C   0  0  0  0  0  0  0  0  0  0  0  0
   36.1410   26.4620   31.8210 C   0  0  0  0  0  0  0  0  0  0  0  0
   35.1900   25.7920   31.0460 C   0  0  0  0  0  0  0  0  0  0  0  0
   35.2950   24.4020   31.0190 C   0  0  0  0  0  0  0  0  0  0  0  0
   36.2590   23.7030   31.6990 C   0  0  0  0  0  0  0  0  0  0  0  0
   36.2710   21.9670   31.5740 Cl  0  0  0  0  0  0  0  0  0  0  0  0
   37.1760   24.4080   32.4520 C   0  0  0  0  0  0  0  0  0  0  0  0
   34.4290   26.3200   30.5060 H   0  0  0  0  0  0  0  0  0  0  0  0
   34.5620   23.8610   30.4180 H   0  0  0  0  0  0  0  0  0  0  0  0
   38.2380   23.6740   33.2040 C   0  0  0  0  0  0  0  0  0  0  0  0
   38.0460   23.8410   34.5820 F   0  0  0  0  0  0  0  0  0  0  0  0
   39.4940   24.0660   32.8360 F   0  0  0  0  0  0  0  0  0  0  0  0
   38.1280   22.3200   32.9720 F   0  0  0  0  0  0  0  0  0  0  0  0
   35.1120   30.5120   34.3260 C   0  0  0  0  0  0  0  0  0  0  0  0
   33.7400   30.4920   34.5940 C   0  0  0  0  0  3  0  0  0  0  0  0
   33.3030   31.1010   35.7560 C   0  0  0  0  0  0  0  0  0  0  0  0
   32.2360   31.0710   35.9380 H   0  0  0  0  0  0  0  0  0  0  0  0
   34.1390   31.7020   36.6190 N   0  0  0  0  0  0  0  0  0  0  0  0
   35.4560   31.7160   36.3510 C   0  0  0  0  0  3  0  0  0  0  0  0
   35.9130   31.1300   35.2280 N   0  0  0  0  0  0  0  0  0  0  0  0
   35.8680   32.1390   32.0340 C   0  0  0  0  0  0  0  0  0  0  0  0
   36.8230   32.6660   32.9020 F   0  0  0  0  0  0  0  0  0  0  0  0
   36.1090   32.6140   30.7630 F   0  0  0  0  0  0  0  0  0  0  0  0
   34.6260   32.6040   32.4240 F   0  0  0  0  0  0  0  0  0  0  0  0
  1  2  1  0  0  0  0
  2 29  1  0  0  0  0
  2  3  2  0  0  0  0
  3 22  1  0  0  0  0
  4  3  1  0  0  0  0
  5  4  2  0  0  0  0
  6  1  2  0  0  0  0
  6  5  1  0  0  0  0
  7  1  1  0  0  0  0
  9  8  1  0  0  0  0
 10  5  1  0  0  0  0
 10  9  2  0  0  0  0
 11 10  1  0  0  0  0
 12 11  2  0  0  0  0
 12 13  1  0  0  0  0
 13 15  2  0  0  0  0
 14 13  1  0  0  0  0
 15  9  1  0  0  0  0
 15 18  1  0  0  0  0
 16 11  1  0  0  0  0
 17 12  1  0  0  0  0
 18 19  1  0  0  0  0
 20 18  1  0  0  0  0
 21 18  1  0  0  0  0
 22 23  2  0  0  0  0
 22 28  1  0  0  0  0
 23 24  1  0  0  0  0
 24 25  1  0  0  0  0
 24 26  2  0  0  0  0
 27 26  1  0  0  0  0
 28 27  2  0  0  0  0
 29 32  1  0  0  0  0
 29 30  1  0  0  0  0
 31 29  1  0  0  0  0
M  END
>  <minimizedAffinity>
-5.68692303

$$$$

 OpenBabel03272500203D

 32 34  0  0  0  0  0  0  0  0999 V2000
   37.4370   28.2560   31.5630 C   0  0  0  0  0  0  0  0  0  0  0  0
   36.4550   29.1930   31.9470 C   0  0  0  0  0  0  0  0  0  0  0  0
   35.9050   29.1170   33.2320 C   0  0  0  0  0  0  0  0  0  0  0  0
   36.3650   28.1200   34.0470 N   0  0  0  0  0  0  0  0  0  0  0  0
   37.2830   27.2530   33.6690 C   0  0  0  0  0  0  0  0  0  0  0  0
   37.8350   27.2970   32.4400 N   0  0  0  0  0  0  0  0  0  0  0  0
   37.8730   28.3000   30.5730 H   0  0  0  0  0  0  0  0  0  0  0  0
   37.3590   24.4420   32.5420 Cl  0  0  0  0  0  0  0  0  0  0  0  0
   37.8000   24.8730   34.1960 C   0  0  0  0  0  0  0  0  0  0  0  0
   37.7250   26.2090   34.6070 C   0  0  0  0  0  0  0  0  0  0  0  0
   38.0640   26.6000   35.9050 C   0  0  0  0  0  0  0  0  0  0  0  0
   38.4770   25.5800   36.7610 C   0  0  0  0  0  0  0  0  0  0  0  0
   38.5580   24.2630   36.3840 C   0  0  0  0  0  0  0  0  0  0  0  0
   39.0910   23.0940   37.5580 Cl  0  0  0  0  0  0  0  0  0  0  0  0
   38.2140   23.9260   35.0910 C   0  0  0  0  0  0  0  0  0  0  0  0
   38.0070   27.6230   36.2200 H   0  0  0  0  0  0  0  0  0  0  0  0
   38.7450   25.8650   37.7800 H   0  0  0  0  0  0  0  0  0  0  0  0
   38.2930   22.5000   34.6520 C   0  0  0  0  0  0  0  0  0  0  0  0
   39.1890   22.3810   33.5810 F   0  0  0  0  0  0  0  0  0  0  0  0
   37.0670   21.9960   34.3190 F   0  0  0  0  0  0  0  0  0  0  0  0
   38.8140   21.7240   35.6640 F   0  0  0  0  0  0  0  0  0  0  0  0
   34.9000   30.0620   33.6500 C   0  0  0  0  0  0  0  0  0  0  0  0
   33.5740   29.6190   33.6900 C   0  0  0  0  0  3  0  0  0  0  0  0
   32.6070   30.5220   34.0920 C   0  0  0  0  0  0  0  0  0  0  0  0
   31.5890   30.1540   34.1130 H   0  0  0  0  0  0  0  0  0  0  0  0
   32.8940   31.7890   34.4350 N   0  0  0  0  0  0  0  0  0  0  0  0
   34.1730   32.2030   34.3930 C   0  0  0  0  0  3  0  0  0  0  0  0
   35.1370   31.3460   34.0070 N   0  0  0  0  0  0  0  0  0  0  0  0
   36.0270   30.2420   30.9720 C   0  0  0  0  0  0  0  0  0  0  0  0
   36.5070   31.4970   31.3410 F   0  0  0  0  0  0  0  0  0  0  0  0
   36.5290   29.9180   29.7300 F   0  0  0  0  0  0  0  0  0  0  0  0
   34.6520   30.3210   30.8590 F   0  0  0  0  0  0  0  0  0  0  0  0
  1  2  2  0  0  0  0
  1  6  1  0  0  0  0
  2  3  1  0  0  0  0
  3 22  1  0  0  0  0
  3  4  2  0  0  0  0
  5  4  1  0  0  0  0
  5 10  1  0  0  0  0
  6  5  2  0  0  0  0
  7  1  1  0  0  0  0
  8  9  1  0  0  0  0
  9 10  2  0  0  0  0
  9 15  1  0  0  0  0
 10 11  1  0  0  0  0
 11 16  1  0  0  0  0
 11 12  2  0  0  0  0
 12 17  1  0  0  0  0
 13 12  1  0  0  0  0
 13 14  1  0  0  0  0
 15 13  2  0  0  0  0
 18 15  1  0  0  0  0
 18 21  1  0  0  0  0
 19 18  1  0  0  0  0
 20 18  1  0  0  0  0
 22 23  2  0  0  0  0
 22 28  1  0  0  0  0
 23 24  1  0  0  0  0
 24 25  1  0  0  0  0
 24 26  2  0  0  0  0
 27 26  1  0  0  0  0
 28 27  2  0  0  0  0
 29 30  1  0  0  0  0
 29  2  1  0  0  0  0
 31 29  1  0  0  0  0
 32 29  1  0  0  0  0
M  END
>  <minimizedAffinity>
-5.67071533

$$$$
