
 OpenBabel03272510273D

 43 47  0  0  1  0  0  0  0  0999 V2000
   36.1540   30.2260   46.8670 C   0  0  0  0  0  0  0  0  0  0  0  0
   37.0520   30.7700   47.7840 C   0  0  0  0  0  0  0  0  0  0  0  0
   38.0590   31.6380   47.3770 C   0  0  0  0  0  0  0  0  0  0  0  0
   38.1160   31.9250   46.0170 C   0  0  0  0  0  0  0  0  0  0  0  0
   39.0090   32.7370   45.3800 N   0  0  0  0  0  0  0  0  0  0  0  0
   38.6860   32.7120   44.0790 C   0  0  0  0  0  0  0  0  0  0  0  0
   37.6460   31.9290   43.8890 N   0  0  0  0  0  0  0  0  0  0  0  0
   37.2530   31.4130   45.0790 C   0  0  0  0  0  0  0  0  0  0  0  0
   36.2470   30.5410   45.5150 C   0  0  0  0  0  0  0  0  0  0  0  0
   35.3650   29.5530   47.1520 H   0  0  0  0  0  0  0  0  0  0  0  0
   38.7470   32.0520   48.0980 H   0  0  0  0  0  0  0  0  0  0  0  0
   39.7930   33.2720   45.8470 H   0  0  0  0  0  0  0  0  0  0  0  0
   35.5800   30.1510   44.7570 H   0  0  0  0  0  0  0  0  0  0  0  0
   37.5550   30.1980   51.4580 C   0  0  0  0  0  0  0  0  0  0  0  0
   37.8110   30.6250   50.1690 C   0  0  0  0  0  0  0  0  0  0  0  0
   36.8800   30.3730   49.1670 C   0  0  0  0  0  0  0  0  0  0  0  0
   35.7370   29.7060   49.5110 N   0  0  0  0  0  0  0  0  0  0  0  0
   35.5010   29.2940   50.7820 C   0  0  0  0  0  0  0  0  0  0  0  0
   36.3870   29.5350   51.7240 N   0  0  0  0  0  0  0  0  0  0  0  0
   38.2600   30.3850   52.2330 H   0  0  0  0  0  0  0  0  0  0  0  0
   38.7170   31.1540   49.9000 H   0  0  0  0  0  0  0  0  0  0  0  0
   34.5580   28.7610   50.9800 H   0  0  0  0  0  0  0  0  0  0  0  0
   39.4070   33.4470   43.1240 O   0  0  0  0  0  0  0  0  0  0  0  0
   38.9460   31.6190   41.8340 N   0  0  0  0  0  0  0  0  0  0  0  0
   39.1960   33.0720   41.7690 C   0  0  1  0  0  0  0  0  0  0  0  0
   38.0290   33.7250   41.1890 C   0  0  0  0  0  0  0  0  0  0  0  0
   37.8890   33.2940   39.8570 O   0  0  0  0  0  0  0  0  0  0  0  0
   37.8160   31.9390   39.6900 C   0  0  0  0  0  0  0  0  0  0  0  0
   38.8570   31.1830   40.4560 C   0  0  1  0  0  0  0  0  0  0  0  0
   39.8150   31.2140   42.2510 H   0  0  0  0  0  0  0  0  0  0  0  0
   40.0800   33.2920   41.1610 H   0  0  0  0  0  0  0  0  0  0  0  0
   37.0460   33.6770   41.5710 H   0  0  0  0  0  0  0  0  0  0  0  0
   38.2780   34.8230   41.0740 H   0  0  0  0  0  0  0  0  0  0  0  0
   36.8180   31.6190   40.0830 H   0  0  0  0  0  0  0  0  0  0  0  0
   37.9220   31.7290   38.6150 H   0  0  0  0  0  0  0  0  0  0  0  0
   38.4660   30.1250   40.5240 H   0  0  0  0  0  0  0  0  0  0  0  0
   40.1650   31.0770   39.8070 C   0  0  0  0  0  0  0  0  0  0  0  0
   41.3320   30.4970   40.2100 C   0  0  0  0  0  3  0  0  0  0  0  0
   42.4630   30.5190   39.4210 C   0  0  0  0  0  0  0  0  0  0  0  0
   43.3290   30.0210   39.8540 H   0  0  0  0  0  0  0  0  0  0  0  0
   42.4650   31.1240   38.1990 N   0  0  0  0  0  0  0  0  0  0  0  0
   41.3000   31.6890   37.8280 C   0  0  0  0  0  3  0  0  0  0  0  0
   40.1610   31.6860   38.5830 N   0  0  0  0  0  0  0  0  0  0  0  0
  1 10  1  0  0  0  0
  1  2  1  0  0  0  0
  2 16  1  0  0  0  0
  3  2  2  0  0  0  0
  3 11  1  0  0  0  0
  4  3  1  0  0  0  0
  5 12  1  0  0  0  0
  5  4  1  0  0  0  0
  6  5  1  0  0  0  0
  7  6  2  0  0  0  0
  7  8  1  0  0  0  0
  8  9  1  0  0  0  0
  8  4  2  0  0  0  0
  9  1  2  0  0  0  0
 13  9  1  0  0  0  0
 14 19  1  0  0  0  0
 14 20  1  0  0  0  0
 15 14  2  0  0  0  0
 16 17  2  0  0  0  0
 16 15  1  0  0  0  0
 17 18  1  0  0  0  0
 18 22  1  0  0  0  0
 18 19  2  0  0  0  0
 21 15  1  0  0  0  0
 23  6  1  0  0  0  0
 24 30  1  0  0  0  0
 25 31  1  6  0  0  0
 25 24  1  0  0  0  0
 25 23  1  0  0  0  0
 26 32  1  0  0  0  0
 26 25  1  0  0  0  0
 27 26  1  0  0  0  0
 28 27  1  0  0  0  0
 28 34  1  0  0  0  0
 28 29  1  0  0  0  0
 29 36  1  1  0  0  0
 29 24  1  0  0  0  0
 33 26  1  0  0  0  0
 35 28  1  0  0  0  0
 37 38  1  0  0  0  0
 37 29  1  0  0  0  0
 39 40  1  0  0  0  0
 39 38  2  0  0  0  0
 41 39  1  0  0  0  0
 42 41  2  0  0  0  0
 42 43  1  0  0  0  0
 43 37  2  0  0  0  0
M  END
>  <minimizedAffinity>
-5.96051025

>  <minimizedRMSD>
0.823906958

$$$$
