
 OpenBabel03272508033D

 26 28  0  0  0  0  0  0  0  0999 V2000
   37.4470   26.5100   34.2450 C   0  0  0  0  0  0  0  0  0  0  0  0
   37.4860   26.8900   32.9300 C   0  0  0  0  0  0  0  0  0  0  0  0
   36.7400   28.0490   32.7480 C   0  0  0  0  0  0  0  0  0  0  0  0
   36.2680   28.3330   33.9850 N   0  0  0  0  0  0  0  0  0  0  0  0
   36.6810   27.4360   34.8510 N   0  0  0  0  0  0  0  0  0  0  0  0
   38.0100   26.3850   32.1330 H   0  0  0  0  0  0  0  0  0  0  0  0
   36.5470   28.6320   31.8600 H   0  0  0  0  0  0  0  0  0  0  0  0
   38.0840   25.3590   34.8810 C   0  0  0  0  0  0  0  0  0  0  0  0
   37.8600   25.1900   36.2820 C   0  0  0  0  0  0  0  0  0  0  0  0
   38.4630   24.0950   36.8990 C   0  0  0  0  0  0  0  0  0  0  0  0
   39.2190   23.2620   36.1430 N   0  0  0  0  0  0  0  0  0  0  0  0
   39.4130   23.4480   34.8170 C   0  0  0  0  0  0  0  0  0  0  0  0
   38.8340   24.5040   34.2120 N   0  0  0  0  0  0  0  0  0  0  0  0
   37.2430   25.9060   36.7980 H   0  0  0  0  0  0  0  0  0  0  0  0
   40.0230   22.7660   34.2370 H   0  0  0  0  0  0  0  0  0  0  0  0
   38.2490   23.8920   38.3600 C   0  0  0  0  0  0  0  0  0  0  0  0
   39.4470   23.4190   38.8440 F   0  0  0  0  0  0  0  0  0  0  0  0
   37.9200   25.0610   39.0190 F   0  0  0  0  0  0  0  0  0  0  0  0
   37.2880   22.9150   38.6140 F   0  0  0  0  0  0  0  0  0  0  0  0
   35.4410   29.4070   34.4160 C   0  0  0  0  0  0  0  0  0  0  0  0
   35.9690   30.4340   35.2060 C   0  0  0  0  0  3  0  0  0  0  0  0
   35.2530   31.5190   35.6740 C   0  0  0  0  0  0  0  0  0  0  0  0
   35.7860   32.2410   36.2750 H   0  0  0  0  0  0  0  0  0  0  0  0
   33.9550   31.5560   35.3230 N   0  0  0  0  0  0  0  0  0  0  0  0
   33.4040   30.5850   34.5630 C   0  0  0  0  0  3  0  0  0  0  0  0
   34.1370   29.5280   34.1160 N   0  0  0  0  0  0  0  0  0  0  0  0
  1  5  2  0  0  0  0
  1  8  1  0  0  0  0
  2  1  1  0  0  0  0
  3  2  2  0  0  0  0
  3  4  1  0  0  0  0
  4 20  1  0  0  0  0
  4  5  1  0  0  0  0
  6  2  1  0  0  0  0
  7  3  1  0  0  0  0
  8  9  1  0  0  0  0
  9 14  1  0  0  0  0
  9 10  2  0  0  0  0
 10 16  1  0  0  0  0
 11 10  1  0  0  0  0
 12 11  2  0  0  0  0
 13 12  1  0  0  0  0
 13  8  2  0  0  0  0
 15 12  1  0  0  0  0
 16 19  1  0  0  0  0
 16 17  1  0  0  0  0
 16 18  1  0  0  0  0
 20 21  1  0  0  0  0
 21 22  2  0  0  0  0
 22 23  1  0  0  0  0
 24 22  1  0  0  0  0
 25 24  2  0  0  0  0
 26 20  2  0  0  0  0
 26 25  1  0  0  0  0
M  END
>  <minimizedAffinity>
-5.77527761

$$$$

 OpenBabel03272508033D

 26 28  0  0  0  0  0  0  0  0999 V2000
   37.6930   25.2050   33.8100 C   0  0  0  0  0  0  0  0  0  0  0  0
   37.4110   25.0350   32.4820 C   0  0  0  0  0  0  0  0  0  0  0  0
   36.8620   26.2000   31.9580 C   0  0  0  0  0  0  0  0  0  0  0  0
   36.8320   27.0490   33.0130 N   0  0  0  0  0  0  0  0  0  0  0  0
   37.3150   26.4670   34.0860 N   0  0  0  0  0  0  0  0  0  0  0  0
   37.5800   24.1400   31.9010 H   0  0  0  0  0  0  0  0  0  0  0  0
   36.5230   26.4350   30.9610 H   0  0  0  0  0  0  0  0  0  0  0  0
   38.2740   24.2490   34.7500 C   0  0  0  0  0  0  0  0  0  0  0  0
   38.0240   24.4740   36.1380 C   0  0  0  0  0  0  0  0  0  0  0  0
   38.5740   23.5680   37.0430 C   0  0  0  0  0  0  0  0  0  0  0  0
   39.3070   22.5350   36.5600 N   0  0  0  0  0  0  0  0  0  0  0  0
   39.5260   22.3470   35.2380 C   0  0  0  0  0  0  0  0  0  0  0  0
   38.9980   23.2190   34.3550 N   0  0  0  0  0  0  0  0  0  0  0  0
   37.4290   25.3240   36.4260 H   0  0  0  0  0  0  0  0  0  0  0  0
   40.1160   21.5120   34.8790 H   0  0  0  0  0  0  0  0  0  0  0  0
   38.3310   23.7760   38.4990 C   0  0  0  0  0  0  0  0  0  0  0  0
   37.3390   22.8840   38.8360 F   0  0  0  0  0  0  0  0  0  0  0  0
   39.4520   23.5250   39.2670 F   0  0  0  0  0  0  0  0  0  0  0  0
   37.8450   25.0540   38.7680 F   0  0  0  0  0  0  0  0  0  0  0  0
   36.3710   28.3940   33.0810 C   0  0  0  0  0  0  0  0  0  0  0  0
   35.8970   28.9200   34.2870 C   0  0  0  0  0  3  0  0  0  0  0  0
   35.4300   30.2080   34.4590 C   0  0  0  0  0  0  0  0  0  0  0  0
   35.0930   30.4850   35.4470 H   0  0  0  0  0  0  0  0  0  0  0  0
   35.4470   30.9850   33.3620 N   0  0  0  0  0  0  0  0  0  0  0  0
   35.8960   30.5190   32.1760 C   0  0  0  0  0  3  0  0  0  0  0  0
   36.3510   29.2420   32.0390 N   0  0  0  0  0  0  0  0  0  0  0  0
  1  5  2  0  0  0  0
  1  8  1  0  0  0  0
  2  1  1  0  0  0  0
  3  2  2  0  0  0  0
  3  4  1  0  0  0  0
  4 20  1  0  0  0  0
  4  5  1  0  0  0  0
  6  2  1  0  0  0  0
  7  3  1  0  0  0  0
  8  9  1  0  0  0  0
  9 14  1  0  0  0  0
  9 10  2  0  0  0  0
 10 16  1  0  0  0  0
 11 10  1  0  0  0  0
 12 11  2  0  0  0  0
 13  8  2  0  0  0  0
 13 12  1  0  0  0  0
 15 12  1  0  0  0  0
 16 19  1  0  0  0  0
 16 17  1  0  0  0  0
 16 18  1  0  0  0  0
 20 21  1  0  0  0  0
 21 22  2  0  0  0  0
 22 23  1  0  0  0  0
 24 22  1  0  0  0  0
 25 24  2  0  0  0  0
 26 25  1  0  0  0  0
 26 20  2  0  0  0  0
M  END
>  <minimizedAffinity>
-5.65150976

$$$$

 OpenBabel03272508033D

 26 28  0  0  0  0  0  0  0  0999 V2000
   37.3190   26.6590   34.2610 C   0  0  0  0  0  0  0  0  0  0  0  0
   36.9090   26.8260   32.9660 C   0  0  0  0  0  0  0  0  0  0  0  0
   36.2220   28.0270   32.8350 C   0  0  0  0  0  0  0  0  0  0  0  0
   36.2410   28.5530   34.0830 N   0  0  0  0  0  0  0  0  0  0  0  0
   36.8790   27.7550   34.9080 N   0  0  0  0  0  0  0  0  0  0  0  0
   37.0810   26.1440   32.1470 H   0  0  0  0  0  0  0  0  0  0  0  0
   35.7610   28.4870   31.9740 H   0  0  0  0  0  0  0  0  0  0  0  0
   38.0670   25.5490   34.8460 C   0  0  0  0  0  0  0  0  0  0  0  0
   37.8130   25.2520   36.2190 C   0  0  0  0  0  0  0  0  0  0  0  0
   38.5230   24.1940   36.7880 C   0  0  0  0  0  0  0  0  0  0  0  0
   39.4040   23.5160   36.0120 N   0  0  0  0  0  0  0  0  0  0  0  0
   39.6230   23.8210   34.7120 C   0  0  0  0  0  0  0  0  0  0  0  0
   38.9420   24.8420   34.1550 N   0  0  0  0  0  0  0  0  0  0  0  0
   37.0940   25.8480   36.7550 H   0  0  0  0  0  0  0  0  0  0  0  0
   40.3330   23.2610   34.1150 H   0  0  0  0  0  0  0  0  0  0  0  0
   38.2800   23.8590   38.2190 C   0  0  0  0  0  0  0  0  0  0  0  0
   37.9470   25.0500   38.8230 F   0  0  0  0  0  0  0  0  0  0  0  0
   37.2470   22.9580   38.3880 F   0  0  0  0  0  0  0  0  0  0  0  0
   39.4320   23.3880   38.8460 F   0  0  0  0  0  0  0  0  0  0  0  0
   35.6920   29.7750   34.5600 C   0  0  0  0  0  0  0  0  0  0  0  0
   34.5440   30.3140   33.9700 C   0  0  0  0  0  3  0  0  0  0  0  0
   33.9330   31.4900   34.3580 C   0  0  0  0  0  0  0  0  0  0  0  0
   33.0480   31.7910   33.8150 H   0  0  0  0  0  0  0  0  0  0  0  0
   34.5140   32.1380   35.3830 N   0  0  0  0  0  0  0  0  0  0  0  0
   35.6240   31.6550   35.9830 C   0  0  0  0  0  3  0  0  0  0  0  0
   36.2030   30.4910   35.5760 N   0  0  0  0  0  0  0  0  0  0  0  0
  1  8  1  0  0  0  0
  1  5  2  0  0  0  0
  2  1  1  0  0  0  0
  3  2  2  0  0  0  0
  3  4  1  0  0  0  0
  4 20  1  0  0  0  0
  4  5  1  0  0  0  0
  6  2  1  0  0  0  0
  7  3  1  0  0  0  0
  8  9  1  0  0  0  0
  9 14  1  0  0  0  0
  9 10  2  0  0  0  0
 10 16  1  0  0  0  0
 11 10  1  0  0  0  0
 12 11  2  0  0  0  0
 13 12  1  0  0  0  0
 13  8  2  0  0  0  0
 15 12  1  0  0  0  0
 16 18  1  0  0  0  0
 16 17  1  0  0  0  0
 16 19  1  0  0  0  0
 20 26  1  0  0  0  0
 21 22  1  0  0  0  0
 21 20  2  0  0  0  0
 22 24  2  0  0  0  0
 23 22  1  0  0  0  0
 24 25  1  0  0  0  0
 26 25  2  0  0  0  0
M  END
>  <minimizedAffinity>
-5.6423955

$$$$

 OpenBabel03272508033D

 26 28  0  0  0  0  0  0  0  0999 V2000
   37.7430   25.9290   34.0520 C   0  0  0  0  0  0  0  0  0  0  0  0
   37.0280   27.0220   34.4600 C   0  0  0  0  0  0  0  0  0  0  0  0
   36.9040   27.9280   33.4130 C   0  0  0  0  0  0  0  0  0  0  0  0
   37.5640   27.3360   32.3890 N   0  0  0  0  0  0  0  0  0  0  0  0
   38.0500   26.1760   32.7650 N   0  0  0  0  0  0  0  0  0  0  0  0
   36.6090   27.1830   35.4420 H   0  0  0  0  0  0  0  0  0  0  0  0
   36.4130   28.8880   33.3640 H   0  0  0  0  0  0  0  0  0  0  0  0
   38.1110   24.7410   34.8190 C   0  0  0  0  0  0  0  0  0  0  0  0
   37.9900   24.8260   36.2390 C   0  0  0  0  0  0  0  0  0  0  0  0
   38.3390   23.6990   36.9810 C   0  0  0  0  0  0  0  0  0  0  0  0
   38.7690   22.5970   36.3190 N   0  0  0  0  0  0  0  0  0  0  0  0
   38.8720   22.5450   34.9700 C   0  0  0  0  0  0  0  0  0  0  0  0
   38.5370   23.6310   34.2460 N   0  0  0  0  0  0  0  0  0  0  0  0
   37.6390   25.7460   36.6760 H   0  0  0  0  0  0  0  0  0  0  0  0
   39.2190   21.6500   34.4670 H   0  0  0  0  0  0  0  0  0  0  0  0
   38.2240   23.7560   38.4660 C   0  0  0  0  0  0  0  0  0  0  0  0
   39.4710   23.4240   38.9430 F   0  0  0  0  0  0  0  0  0  0  0  0
   37.8800   25.0130   38.9250 F   0  0  0  0  0  0  0  0  0  0  0  0
   37.3290   22.8080   38.9560 F   0  0  0  0  0  0  0  0  0  0  0  0
   37.7730   27.7960   31.0590 C   0  0  0  0  0  0  0  0  0  0  0  0
   38.8340   27.2970   30.2950 C   0  0  0  0  0  3  0  0  0  0  0  0
   39.1210   27.6750   28.9990 C   0  0  0  0  0  0  0  0  0  0  0  0
   39.9720   27.2090   28.5240 H   0  0  0  0  0  0  0  0  0  0  0  0
   38.2980   28.5950   28.4640 N   0  0  0  0  0  0  0  0  0  0  0  0
   37.2620   29.1050   29.1650 C   0  0  0  0  0  3  0  0  0  0  0  0
   37.0050   28.7100   30.4430 N   0  0  0  0  0  0  0  0  0  0  0  0
  1  2  1  0  0  0  0
  1  8  1  0  0  0  0
  2  6  1  0  0  0  0
  3  2  2  0  0  0  0
  4  5  1  0  0  0  0
  4  3  1  0  0  0  0
  5  1  2  0  0  0  0
  7  3  1  0  0  0  0
  8  9  1  0  0  0  0
  9 14  1  0  0  0  0
  9 10  2  0  0  0  0
 10 16  1  0  0  0  0
 11 10  1  0  0  0  0
 12 11  2  0  0  0  0
 13  8  2  0  0  0  0
 13 12  1  0  0  0  0
 15 12  1  0  0  0  0
 16 18  1  0  0  0  0
 16 17  1  0  0  0  0
 16 19  1  0  0  0  0
 20  4  1  0  0  0  0
 21 20  2  0  0  0  0
 22 21  1  0  0  0  0
 23 22  1  0  0  0  0
 24 22  2  0  0  0  0
 24 25  1  0  0  0  0
 25 26  2  0  0  0  0
 26 20  1  0  0  0  0
M  END
>  <minimizedAffinity>
-5.63087511

$$$$

 OpenBabel03272508033D

 26 28  0  0  0  0  0  0  0  0999 V2000
   37.1430   26.3260   33.5210 C   0  0  0  0  0  0  0  0  0  0  0  0
   37.3740   25.2220   32.7450 C   0  0  0  0  0  0  0  0  0  0  0  0
   37.9030   24.1970   33.5200 C   0  0  0  0  0  0  0  0  0  0  0  0
   37.9750   24.7310   34.7630 N   0  0  0  0  0  0  0  0  0  0  0  0
   37.5330   25.9670   34.7590 N   0  0  0  0  0  0  0  0  0  0  0  0
   37.1820   25.1330   31.6860 H   0  0  0  0  0  0  0  0  0  0  0  0
   38.2040   23.1950   33.2560 H   0  0  0  0  0  0  0  0  0  0  0  0
   36.5980   27.6230   33.1260 C   0  0  0  0  0  0  0  0  0  0  0  0
   36.2690   28.5320   34.1760 C   0  0  0  0  0  0  0  0  0  0  0  0
   35.7480   29.7720   33.8100 C   0  0  0  0  0  0  0  0  0  0  0  0
   35.5840   30.0410   32.4910 N   0  0  0  0  0  0  0  0  0  0  0  0
   35.9050   29.1580   31.5170 C   0  0  0  0  0  0  0  0  0  0  0  0
   36.4090   27.9560   31.8630 N   0  0  0  0  0  0  0  0  0  0  0  0
   36.4360   28.2290   35.1960 H   0  0  0  0  0  0  0  0  0  0  0  0
   35.7630   29.3990   30.4710 H   0  0  0  0  0  0  0  0  0  0  0  0
   35.3950   30.7440   34.8830 C   0  0  0  0  0  0  0  0  0  0  0  0
   36.3940   30.6300   35.8230 F   0  0  0  0  0  0  0  0  0  0  0  0
   35.3450   32.0470   34.4270 F   0  0  0  0  0  0  0  0  0  0  0  0
   34.1980   30.4120   35.5130 F   0  0  0  0  0  0  0  0  0  0  0  0
   38.4390   24.1470   35.9750 C   0  0  0  0  0  0  0  0  0  0  0  0
   37.7700   24.3890   37.1790 C   0  0  0  0  0  3  0  0  0  0  0  0
   38.1370   23.8710   38.4060 C   0  0  0  0  0  0  0  0  0  0  0  0
   37.5300   24.1390   39.2580 H   0  0  0  0  0  0  0  0  0  0  0  0
   39.2240   23.0800   38.4020 N   0  0  0  0  0  0  0  0  0  0  0  0
   39.9020   22.8200   37.2630 C   0  0  0  0  0  3  0  0  0  0  0  0
   39.5130   23.3460   36.0670 N   0  0  0  0  0  0  0  0  0  0  0  0
  1  5  2  0  0  0  0
  2  3  2  0  0  0  0
  2  1  1  0  0  0  0
  3  4  1  0  0  0  0
  4 20  1  0  0  0  0
  5  4  1  0  0  0  0
  6  2  1  0  0  0  0
  7  3  1  0  0  0  0
  8  1  1  0  0  0  0
  8  9  1  0  0  0  0
  9 14  1  0  0  0  0
 10  9  2  0  0  0  0
 10 16  1  0  0  0  0
 11 10  1  0  0  0  0
 12 13  1  0  0  0  0
 12 11  2  0  0  0  0
 13  8  2  0  0  0  0
 15 12  1  0  0  0  0
 16 19  1  0  0  0  0
 16 17  1  0  0  0  0
 18 16  1  0  0  0  0
 20 26  2  0  0  0  0
 20 21  1  0  0  0  0
 21 22  2  0  0  0  0
 22 23  1  0  0  0  0
 24 22  1  0  0  0  0
 25 24  2  0  0  0  0
 26 25  1  0  0  0  0
M  END
>  <minimizedAffinity>
-5.45679617

$$$$

 OpenBabel03272508033D

 26 28  0  0  0  0  0  0  0  0999 V2000
   37.9580   25.0800   34.8830 C   0  0  0  0  0  0  0  0  0  0  0  0
   37.9110   24.6360   33.5890 C   0  0  0  0  0  0  0  0  0  0  0  0
   37.4070   25.6320   32.7620 C   0  0  0  0  0  0  0  0  0  0  0  0
   37.1630   26.6650   33.6040 N   0  0  0  0  0  0  0  0  0  0  0  0
   37.4840   26.3390   34.8350 N   0  0  0  0  0  0  0  0  0  0  0  0
   38.2140   23.6610   33.2350 H   0  0  0  0  0  0  0  0  0  0  0  0
   37.2300   25.6440   31.6970 H   0  0  0  0  0  0  0  0  0  0  0  0
   38.4150   24.3700   36.0760 C   0  0  0  0  0  0  0  0  0  0  0  0
   39.6130   23.6040   35.9520 C   0  0  0  0  0  0  0  0  0  0  0  0
   40.0580   22.9220   37.0840 C   0  0  0  0  0  0  0  0  0  0  0  0
   39.3340   23.0240   38.2260 N   0  0  0  0  0  0  0  0  0  0  0  0
   38.2020   23.7600   38.3130 C   0  0  0  0  0  0  0  0  0  0  0  0
   37.7640   24.4210   37.2230 N   0  0  0  0  0  0  0  0  0  0  0  0
   40.1190   23.5830   35.0010 H   0  0  0  0  0  0  0  0  0  0  0  0
   37.6430   23.8240   39.2390 H   0  0  0  0  0  0  0  0  0  0  0  0
   41.3050   22.1130   36.9860 C   0  0  0  0  0  0  0  0  0  0  0  0
   42.3360   23.0260   37.0020 F   0  0  0  0  0  0  0  0  0  0  0  0
   41.4560   21.2360   38.0430 F   0  0  0  0  0  0  0  0  0  0  0  0
   41.3860   21.4230   35.7790 F   0  0  0  0  0  0  0  0  0  0  0  0
   36.6390   27.9580   33.3250 C   0  0  0  0  0  0  0  0  0  0  0  0
   36.0300   28.7080   34.3370 C   0  0  0  0  0  3  0  0  0  0  0  0
   35.4930   29.9700   34.1710 C   0  0  0  0  0  0  0  0  0  0  0  0
   35.0530   30.4380   35.0390 H   0  0  0  0  0  0  0  0  0  0  0  0
   35.5800   30.4820   32.9310 N   0  0  0  0  0  0  0  0  0  0  0  0
   36.1580   29.7920   31.9230 C   0  0  0  0  0  3  0  0  0  0  0  0
   36.6800   28.5480   32.1200 N   0  0  0  0  0  0  0  0  0  0  0  0
  1  8  1  0  0  0  0
  2  1  1  0  0  0  0
  3  2  2  0  0  0  0
  3  4  1  0  0  0  0
  4  5  1  0  0  0  0
  5  1  2  0  0  0  0
  6  2  1  0  0  0  0
  7  3  1  0  0  0  0
  8 13  1  0  0  0  0
  9  8  2  0  0  0  0
  9 10  1  0  0  0  0
 10 11  2  0  0  0  0
 11 12  1  0  0  0  0
 12 15  1  0  0  0  0
 13 12  2  0  0  0  0
 14  9  1  0  0  0  0
 16 17  1  0  0  0  0
 16 10  1  0  0  0  0
 16 18  1  0  0  0  0
 19 16  1  0  0  0  0
 20  4  1  0  0  0  0
 20 21  1  0  0  0  0
 22 21  2  0  0  0  0
 22 23  1  0  0  0  0
 24 22  1  0  0  0  0
 25 26  1  0  0  0  0
 25 24  2  0  0  0  0
 26 20  2  0  0  0  0
M  END
>  <minimizedAffinity>
-5.44595671

$$$$

 OpenBabel03272508033D

 26 28  0  0  0  0  0  0  0  0999 V2000
   37.4710   27.2910   34.1020 C   0  0  0  0  0  0  0  0  0  0  0  0
   37.1700   27.7210   32.8370 C   0  0  0  0  0  0  0  0  0  0  0  0
   36.3240   28.8220   32.8980 C   0  0  0  0  0  0  0  0  0  0  0  0
   36.1400   29.0210   34.2260 N   0  0  0  0  0  0  0  0  0  0  0  0
   36.8080   28.1290   34.9200 N   0  0  0  0  0  0  0  0  0  0  0  0
   37.5230   27.2890   31.9130 H   0  0  0  0  0  0  0  0  0  0  0  0
   35.8840   29.4200   32.1140 H   0  0  0  0  0  0  0  0  0  0  0  0
   38.3190   26.1720   34.5070 C   0  0  0  0  0  0  0  0  0  0  0  0
   37.9400   25.4720   35.6930 C   0  0  0  0  0  0  0  0  0  0  0  0
   38.7430   24.4030   36.0900 C   0  0  0  0  0  0  0  0  0  0  0  0
   39.8250   24.0920   35.3350 N   0  0  0  0  0  0  0  0  0  0  0  0
   40.1580   24.7740   34.2150 C   0  0  0  0  0  0  0  0  0  0  0  0
   39.3880   25.8100   33.8240 N   0  0  0  0  0  0  0  0  0  0  0  0
   37.0620   25.7930   36.2270 H   0  0  0  0  0  0  0  0  0  0  0  0
   41.0300   24.5040   33.6300 H   0  0  0  0  0  0  0  0  0  0  0  0
   38.3740   23.6530   37.3230 C   0  0  0  0  0  0  0  0  0  0  0  0
   37.6220   24.5270   38.0740 F   0  0  0  0  0  0  0  0  0  0  0  0
   37.6270   22.5220   37.0560 F   0  0  0  0  0  0  0  0  0  0  0  0
   39.4930   23.3170   38.0820 F   0  0  0  0  0  0  0  0  0  0  0  0
   35.3670   30.0090   34.8960 C   0  0  0  0  0  0  0  0  0  0  0  0
   35.9940   31.0580   35.5760 C   0  0  0  0  0  3  0  0  0  0  0  0
   35.3360   32.0650   36.2550 C   0  0  0  0  0  0  0  0  0  0  0  0
   35.9450   32.8160   36.7380 H   0  0  0  0  0  0  0  0  0  0  0  0
   33.9930   31.9980   36.2400 N   0  0  0  0  0  0  0  0  0  0  0  0
   33.3460   31.0020   35.5960 C   0  0  0  0  0  3  0  0  0  0  0  0
   34.0240   30.0230   34.9340 N   0  0  0  0  0  0  0  0  0  0  0  0
  1  8  1  0  0  0  0
  1  5  2  0  0  0  0
  2  3  2  0  0  0  0
  2  1  1  0  0  0  0
  3  4  1  0  0  0  0
  4 20  1  0  0  0  0
  4  5  1  0  0  0  0
  6  2  1  0  0  0  0
  7  3  1  0  0  0  0
  8  9  1  0  0  0  0
  9 10  2  0  0  0  0
  9 14  1  0  0  0  0
 10 16  1  0  0  0  0
 11 10  1  0  0  0  0
 12 11  2  0  0  0  0
 13 12  1  0  0  0  0
 13  8  2  0  0  0  0
 15 12  1  0  0  0  0
 16 17  1  0  0  0  0
 16 19  1  0  0  0  0
 18 16  1  0  0  0  0
 20 26  2  0  0  0  0
 20 21  1  0  0  0  0
 21 22  2  0  0  0  0
 22 23  1  0  0  0  0
 24 22  1  0  0  0  0
 25 24  2  0  0  0  0
 26 25  1  0  0  0  0
M  END
>  <minimizedAffinity>
-5.1604805

$$$$

 OpenBabel03272508033D

 26 28  0  0  0  0  0  0  0  0999 V2000
   36.6490   27.6650   33.8330 C   0  0  0  0  0  0  0  0  0  0  0  0
   37.3160   27.0880   32.7860 C   0  0  0  0  0  0  0  0  0  0  0  0
   38.0320   25.9820   33.2290 C   0  0  0  0  0  0  0  0  0  0  0  0
   37.7670   25.9310   34.5570 N   0  0  0  0  0  0  0  0  0  0  0  0
   36.9630   26.9100   34.9020 N   0  0  0  0  0  0  0  0  0  0  0  0
   37.3050   27.4200   31.7590 H   0  0  0  0  0  0  0  0  0  0  0  0
   38.6650   25.2900   32.6950 H   0  0  0  0  0  0  0  0  0  0  0  0
   35.7820   28.8410   33.8260 C   0  0  0  0  0  0  0  0  0  0  0  0
   36.0510   29.8470   34.8040 C   0  0  0  0  0  0  0  0  0  0  0  0
   35.2290   30.9730   34.8060 C   0  0  0  0  0  0  0  0  0  0  0  0
   34.2320   31.0490   33.8910 N   0  0  0  0  0  0  0  0  0  0  0  0
   34.0030   30.0790   32.9750 C   0  0  0  0  0  0  0  0  0  0  0  0
   34.7920   28.9860   32.9660 N   0  0  0  0  0  0  0  0  0  0  0  0
   36.8660   29.6980   35.4910 H   0  0  0  0  0  0  0  0  0  0  0  0
   33.1980   30.1660   32.2540 H   0  0  0  0  0  0  0  0  0  0  0  0
   35.4830   32.0410   35.8140 C   0  0  0  0  0  0  0  0  0  0  0  0
   34.6770   33.0930   35.4460 F   0  0  0  0  0  0  0  0  0  0  0  0
   35.1620   31.6480   37.0990 F   0  0  0  0  0  0  0  0  0  0  0  0
   36.7990   32.4960   35.7700 F   0  0  0  0  0  0  0  0  0  0  0  0
   38.2240   25.0080   35.5380 C   0  0  0  0  0  0  0  0  0  0  0  0
   39.3940   24.2700   35.3250 C   0  0  0  0  0  3  0  0  0  0  0  0
   39.9230   23.3530   36.2120 C   0  0  0  0  0  0  0  0  0  0  0  0
   40.8350   22.8530   35.9210 H   0  0  0  0  0  0  0  0  0  0  0  0
   39.2340   23.1830   37.3540 N   0  0  0  0  0  0  0  0  0  0  0  0
   38.0980   23.8730   37.6010 C   0  0  0  0  0  3  0  0  0  0  0  0
   37.6030   24.7720   36.7050 N   0  0  0  0  0  0  0  0  0  0  0  0
  1  5  2  0  0  0  0
  2  3  2  0  0  0  0
  2  1  1  0  0  0  0
  3  4  1  0  0  0  0
  4  5  1  0  0  0  0
  4 20  1  0  0  0  0
  6  2  1  0  0  0  0
  7  3  1  0  0  0  0
  8  1  1  0  0  0  0
  8  9  1  0  0  0  0
  9 10  2  0  0  0  0
  9 14  1  0  0  0  0
 10 16  1  0  0  0  0
 11 10  1  0  0  0  0
 12 11  2  0  0  0  0
 13 12  1  0  0  0  0
 13  8  2  0  0  0  0
 15 12  1  0  0  0  0
 16 18  1  0  0  0  0
 17 16  1  0  0  0  0
 19 16  1  0  0  0  0
 20 26  1  0  0  0  0
 21 20  2  0  0  0  0
 21 22  1  0  0  0  0
 22 24  2  0  0  0  0
 23 22  1  0  0  0  0
 24 25  1  0  0  0  0
 26 25  2  0  0  0  0
M  END
>  <minimizedAffinity>
-5.12140751

$$$$

 OpenBabel03272508033D

 26 28  0  0  0  0  0  0  0  0999 V2000
   36.4420   28.3810   33.3320 C   0  0  0  0  0  0  0  0  0  0  0  0
   36.2970   29.0760   32.1620 C   0  0  0  0  0  0  0  0  0  0  0  0
   35.7490   30.3280   32.4180 C   0  0  0  0  0  0  0  0  0  0  0  0
   35.5780   30.3420   33.7610 N   0  0  0  0  0  0  0  0  0  0  0  0
   35.9820   29.2090   34.2880 N   0  0  0  0  0  0  0  0  0  0  0  0
   36.5620   28.7300   31.1740 H   0  0  0  0  0  0  0  0  0  0  0  0
   35.4960   31.1380   31.7510 H   0  0  0  0  0  0  0  0  0  0  0  0
   36.9730   27.0340   33.5340 C   0  0  0  0  0  0  0  0  0  0  0  0
   37.2790   26.6550   34.8760 C   0  0  0  0  0  0  0  0  0  0  0  0
   37.7870   25.3730   35.0800 C   0  0  0  0  0  0  0  0  0  0  0  0
   37.9600   24.5680   34.0030 N   0  0  0  0  0  0  0  0  0  0  0  0
   37.6610   24.9550   32.7420 C   0  0  0  0  0  0  0  0  0  0  0  0
   37.1700   26.1930   32.5360 N   0  0  0  0  0  0  0  0  0  0  0  0
   37.1070   27.3650   35.6680 H   0  0  0  0  0  0  0  0  0  0  0  0
   37.8090   24.2900   31.8990 H   0  0  0  0  0  0  0  0  0  0  0  0
   38.1150   24.9470   36.4690 C   0  0  0  0  0  0  0  0  0  0  0  0
   39.3230   24.2940   36.3770 F   0  0  0  0  0  0  0  0  0  0  0  0
   38.2390   26.0140   37.3390 F   0  0  0  0  0  0  0  0  0  0  0  0
   37.1900   24.0320   36.9670 F   0  0  0  0  0  0  0  0  0  0  0  0
   35.0520   31.3660   34.5970 C   0  0  0  0  0  0  0  0  0  0  0  0
   35.4620   31.4720   35.9310 C   0  0  0  0  0  3  0  0  0  0  0  0
   35.0140   32.4270   36.8220 C   0  0  0  0  0  0  0  0  0  0  0  0
   35.4150   32.3940   37.8250 H   0  0  0  0  0  0  0  0  0  0  0  0
   34.1170   33.3030   36.3360 N   0  0  0  0  0  0  0  0  0  0  0  0
   33.6920   33.2380   35.0550 C   0  0  0  0  0  3  0  0  0  0  0  0
   34.1540   32.2830   34.2000 N   0  0  0  0  0  0  0  0  0  0  0  0
  1  8  1  0  0  0  0
  1  5  2  0  0  0  0
  2  3  2  0  0  0  0
  2  1  1  0  0  0  0
  3  4  1  0  0  0  0
  4  5  1  0  0  0  0
  4 20  1  0  0  0  0
  6  2  1  0  0  0  0
  7  3  1  0  0  0  0
  8  9  1  0  0  0  0
  9 10  2  0  0  0  0
  9 14  1  0  0  0  0
 10 16  1  0  0  0  0
 11 10  1  0  0  0  0
 12 11  2  0  0  0  0
 13 12  1  0  0  0  0
 13  8  2  0  0  0  0
 15 12  1  0  0  0  0
 16 19  1  0  0  0  0
 16 18  1  0  0  0  0
 17 16  1  0  0  0  0
 20 21  1  0  0  0  0
 21 22  2  0  0  0  0
 22 23  1  0  0  0  0
 24 22  1  0  0  0  0
 25 24  2  0  0  0  0
 26 20  2  0  0  0  0
 26 25  1  0  0  0  0
M  END
>  <minimizedAffinity>
-5.09056568

$$$$
