
 OpenBabel03272507283D

 39 41  0  0  1  0  0  0  0  0999 V2000
   36.6670   30.3960   48.6440 C   0  0  0  0  0  0  0  0  0  0  0  0
   36.9010   30.7870   47.3080 C   0  0  0  0  0  0  0  0  0  0  0  0
   35.9760   30.3590   46.3550 C   0  0  0  0  0  0  0  0  0  0  0  0
   34.9300   29.6110   46.7440 N   0  0  0  0  0  0  0  0  0  0  0  0
   34.7400   29.2570   48.0290 C   0  0  0  0  0  0  0  0  0  0  0  0
   35.6000   29.6460   48.9650 N   0  0  0  0  0  0  0  0  0  0  0  0
   36.1370   30.6990   45.0140 N   0  0  0  0  0  0  0  0  0  0  0  0
   36.7500   31.9550   44.5030 C   0  0  0  0  0  0  0  0  0  0  0  0
   36.4850   32.0320   43.0520 C   0  0  0  0  0  0  0  0  0  0  0  0
   35.4010   31.0780   42.8450 C   0  0  0  0  0  0  0  0  0  0  0  0
   35.7710   30.0190   43.8140 C   0  0  2  0  0  0  0  0  0  0  0  0
   37.4510   30.7860   49.3020 H   0  0  0  0  0  0  0  0  0  0  0  0
   37.7160   31.3780   46.9590 H   0  0  0  0  0  0  0  0  0  0  0  0
   33.9290   28.6630   48.4110 H   0  0  0  0  0  0  0  0  0  0  0  0
   37.6920   32.2290   44.9090 H   0  0  0  0  0  0  0  0  0  0  0  0
   36.0390   32.7110   45.0360 H   0  0  0  0  0  0  0  0  0  0  0  0
   35.9030   33.0600   42.9490 H   0  0  0  0  0  0  0  0  0  0  0  0
   37.2450   32.2290   42.3420 H   0  0  0  0  0  0  0  0  0  0  0  0
   34.3910   31.4720   43.0810 H   0  0  0  0  0  0  0  0  0  0  0  0
   35.3400   30.6260   41.8320 H   0  0  0  0  0  0  0  0  0  0  0  0
   34.6100   29.0320   43.9720 C   0  0  0  0  0  0  0  0  0  0  0  0
   33.5970   29.6650   44.6600 F   0  0  0  0  0  0  0  0  0  0  0  0
   34.9000   27.8950   44.6660 F   0  0  0  0  0  0  0  0  0  0  0  0
   34.1320   28.7820   42.7050 F   0  0  0  0  0  0  0  0  0  0  0  0
   36.8970   29.2410   43.3890 C   0  0  2  0  0  0  0  0  0  0  0  0
   37.0940   28.4150   44.0340 H   0  0  0  0  0  0  0  0  0  0  0  0
   38.3450   29.8740   43.5130 C   0  0  0  0  0  0  0  0  0  0  0  0
   39.0830   29.9040   44.6890 C   0  0  0  0  0  3  0  0  0  0  0  0
   40.2990   30.5420   44.6990 C   0  0  0  0  0  0  0  0  0  0  0  0
   40.7850   30.5030   45.6650 H   0  0  0  0  0  0  0  0  0  0  0  0
   40.7840   31.1320   43.6010 N   0  0  0  0  0  0  0  0  0  0  0  0
   40.0980   31.1210   42.4530 C   0  0  0  0  0  3  0  0  0  0  0  0
   38.9330   30.5020   42.4720 N   0  0  0  0  0  0  0  0  0  0  0  0
   36.8280   29.0970   42.1420 O   0  0  0  0  0  0  0  0  0  0  0  0
   37.2860   28.2860   41.1760 C   0  0  0  0  0  0  0  0  0  0  0  0
   36.5010   27.3680   40.9310 O   0  0  0  0  0  0  0  0  0  0  0  0
   38.3070   27.9670   40.2410 N   0  0  0  0  0  0  0  0  0  0  0  0
   39.2020   27.4550   40.4270 H   0  0  0  0  0  0  0  0  0  0  0  0
   38.2540   28.2340   39.2130 H   0  0  0  0  0  0  0  0  0  0  0  0
  1  6  1  0  0  0  0
  1 12  1  0  0  0  0
  2  1  2  0  0  0  0
  3  4  2  0  0  0  0
  3  2  1  0  0  0  0
  4  5  1  0  0  0  0
  5 14  1  0  0  0  0
  5  6  2  0  0  0  0
  7  3  1  0  0  0  0
  8 15  1  0  0  0  0
  8  7  1  0  0  0  0
  8 16  1  0  0  0  0
  9  8  1  0  0  0  0
 10  9  1  0  0  0  0
 10 19  1  0  0  0  0
 10 11  1  0  0  0  0
 11 21  1  1  0  0  0
 11  7  1  0  0  0  0
 13  2  1  0  0  0  0
 17  9  1  0  0  0  0
 18  9  1  0  0  0  0
 20 10  1  0  0  0  0
 21 22  1  0  0  0  0
 21 23  1  0  0  0  0
 24 21  1  0  0  0  0
 25 27  1  0  0  0  0
 25 11  1  0  0  0  0
 25 26  1  1  0  0  0
 27 28  1  0  0  0  0
 28 29  2  0  0  0  0
 29 30  1  0  0  0  0
 31 29  1  0  0  0  0
 32 33  1  0  0  0  0
 32 31  2  0  0  0  0
 33 27  2  0  0  0  0
 34 25  1  0  0  0  0
 35 34  1  0  0  0  0
 36 35  2  0  0  0  0
 37 38  1  0  0  0  0
 37 35  1  0  0  0  0
 39 37  1  0  0  0  0
M  END
>  <minimizedAffinity>
-3.40624189

>  <minimizedRMSD>
3.54907131

$$$$
