
 OpenBabel03272510023D

 19 20  0  0  0  0  0  0  0  0999 V2000
   38.3080   31.2900   50.2020 C   0  0  0  0  0  0  0  0  0  0  0  0
   38.4180   31.5540   48.8250 C   0  0  0  0  0  0  0  0  0  0  0  0
   37.4080   31.0680   48.0090 C   0  0  0  0  0  0  0  0  0  0  0  0
   36.3790   30.3750   48.5530 N   0  0  0  0  0  0  0  0  0  0  0  0
   36.3120   30.1430   49.8850 C   0  0  0  0  0  0  0  0  0  0  0  0
   37.2690   30.5980   50.7000 N   0  0  0  0  0  0  0  0  0  0  0  0
   39.0760   31.6530   50.8740 H   0  0  0  0  0  0  0  0  0  0  0  0
   39.2620   32.1140   48.4430 H   0  0  0  0  0  0  0  0  0  0  0  0
   37.4600   31.3060   46.5700 C   0  0  0  0  0  0  0  0  0  0  0  0
   36.6980   30.5310   45.7190 C   0  0  0  0  0  3  0  0  0  0  0  0
   36.7970   30.8120   44.3710 C   0  0  0  0  0  0  0  0  0  0  0  0
   36.2150   30.2250   43.6890 H   0  0  0  0  0  0  0  0  0  0  0  0
   37.6060   31.8000   43.9580 N   0  0  0  0  0  0  0  0  0  0  0  0
   38.3480   32.5560   44.7710 C   0  0  0  0  0  3  0  0  0  0  0  0
   38.2530   32.2810   46.0970 N   0  0  0  0  0  0  0  0  0  0  0  0
   35.1500   29.3750   50.3960 C   0  0  0  0  0  0  0  0  0  0  0  0
   35.2460   29.1110   51.7570 F   0  0  0  0  0  0  0  0  0  0  0  0
   33.9690   30.0740   50.2110 F   0  0  0  0  0  0  0  0  0  0  0  0
   34.9760   28.1710   49.7560 F   0  0  0  0  0  0  0  0  0  0  0  0
  1  6  1  0  0  0  0
  1  7  1  0  0  0  0
  2  1  2  0  0  0  0
  3  4  2  0  0  0  0
  3  2  1  0  0  0  0
  4  5  1  0  0  0  0
  5 16  1  0  0  0  0
  5  6  2  0  0  0  0
  8  2  1  0  0  0  0
  9  3  1  0  0  0  0
 10  9  2  0  0  0  0
 11 10  1  0  0  0  0
 12 11  1  0  0  0  0
 13 11  2  0  0  0  0
 13 14  1  0  0  0  0
 14 15  2  0  0  0  0
 15  9  1  0  0  0  0
 16 17  1  0  0  0  0
 18 16  1  0  0  0  0
 19 16  1  0  0  0  0
M  END
>  <minimizedAffinity>
-5.39793396

>  <minimizedRMSD>
0.556165874

$$$$
