
 OpenBabel03262520233D

 30 32  0  0  0  0  0  0  0  0999 V2000
   39.6780   24.6080   35.0320 C   0  0  0  0  0  0  0  0  0  0  0  0
   40.2760   25.8780   35.0750 C   0  0  0  0  0  0  0  0  0  0  0  0
   39.9210   26.9600   34.3500 C   0  0  0  0  0  0  0  0  0  0  0  0
   38.8960   26.8750   33.4800 C   0  0  0  0  0  0  0  0  0  0  0  0
   38.3020   25.6490   33.4240 C   0  0  0  0  0  0  0  0  0  0  0  0
   38.7040   24.6410   34.1610 N   0  0  0  0  0  0  0  0  0  0  0  0
   41.1540   26.0250   35.7890 H   0  0  0  0  0  0  0  0  0  0  0  0
   40.4900   27.9170   34.4870 H   0  0  0  0  0  0  0  0  0  0  0  0
   38.5850   27.7050   32.8920 H   0  0  0  0  0  0  0  0  0  0  0  0
   41.3840   23.0120   35.4170 C   0  0  0  0  0  0  0  0  0  0  0  0
   40.1520   23.5490   35.9070 C   0  0  0  0  0  0  0  0  0  0  0  0
   39.6660   23.0190   37.0710 C   0  0  0  0  0  0  0  0  0  0  0  0
   40.4030   22.0230   37.6670 N   0  0  0  0  0  0  0  0  0  0  0  0
   41.5430   21.5370   37.2020 C   0  0  0  0  0  0  0  0  0  0  0  0
   42.0280   22.0480   36.0610 N   0  0  0  0  0  0  0  0  0  0  0  0
   42.1570   20.5310   37.9730 N   0  0  0  0  0  0  0  0  0  0  0  0
   41.8810   23.3340   34.5140 H   0  0  0  0  0  0  0  0  0  0  0  0
   43.1030   20.6650   38.4080 H   0  0  0  0  0  0  0  0  0  0  0  0
   41.5720   19.6690   38.0540 H   0  0  0  0  0  0  0  0  0  0  0  0
   38.4120   23.5270   37.6280 C   0  0  0  0  0  0  0  0  0  0  0  0
   38.2310   23.0080   38.8220 F   0  0  0  0  0  0  0  0  0  0  0  0
   38.3420   24.9050   37.7020 F   0  0  0  0  0  0  0  0  0  0  0  0
   37.3070   23.1420   36.8130 F   0  0  0  0  0  0  0  0  0  0  0  0
   37.1530   25.3910   32.5100 C   0  0  0  0  0  0  0  0  0  0  0  0
   36.7340   24.1300   32.1460 C   0  0  0  0  0  3  0  0  0  0  0  0
   35.6650   23.9390   31.2960 C   0  0  0  0  0  0  0  0  0  0  0  0
   35.3640   22.9520   31.0320 H   0  0  0  0  0  0  0  0  0  0  0  0
   34.9940   24.9890   30.7930 N   0  0  0  0  0  0  0  0  0  0  0  0
   35.3960   26.2230   31.1420 C   0  0  0  0  0  3  0  0  0  0  0  0
   36.4400   26.3970   31.9710 N   0  0  0  0  0  0  0  0  0  0  0  0
  1  2  1  0  0  0  0
  1 11  1  0  0  0  0
  2  7  1  0  0  0  0
  3  8  1  0  0  0  0
  3  2  2  0  0  0  0
  4  3  1  0  0  0  0
  5  4  2  0  0  0  0
  5  6  1  0  0  0  0
  6  1  2  0  0  0  0
  9  4  1  0  0  0  0
 10 11  2  0  0  0  0
 10 15  1  0  0  0  0
 11 12  1  0  0  0  0
 12 20  1  0  0  0  0
 12 13  2  0  0  0  0
 14 13  1  0  0  0  0
 14 16  1  0  0  0  0
 15 14  2  0  0  0  0
 16 19  1  0  0  0  0
 16 18  1  0  0  0  0
 17 10  1  0  0  0  0
 20 22  1  0  0  0  0
 20 21  1  0  0  0  0
 23 20  1  0  0  0  0
 24  5  1  0  0  0  0
 25 24  1  0  0  0  0
 26 25  2  0  0  0  0
 27 26  1  0  0  0  0
 28 29  2  0  0  0  0
 28 26  1  0  0  0  0
 29 30  1  0  0  0  0
 30 24  2  0  0  0  0
M  END
>  <minimizedAffinity>
-6.48877335

$$$$

 OpenBabel03262520233D

 30 32  0  0  0  0  0  0  0  0999 V2000
   37.7380   25.4130   32.3990 C   0  0  0  0  0  0  0  0  0  0  0  0
   36.7820   26.2790   31.8410 C   0  0  0  0  0  0  0  0  0  0  0  0
   35.6260   25.9210   31.2390 C   0  0  0  0  0  0  0  0  0  0  0  0
   35.3030   24.6180   31.1320 C   0  0  0  0  0  0  0  0  0  0  0  0
   36.2200   23.7630   31.6690 C   0  0  0  0  0  0  0  0  0  0  0  0
   37.3230   24.1840   32.2390 N   0  0  0  0  0  0  0  0  0  0  0  0
   36.9890   27.3990   31.8920 H   0  0  0  0  0  0  0  0  0  0  0  0
   34.9540   26.7230   30.8360 H   0  0  0  0  0  0  0  0  0  0  0  0
   34.4030   24.2970   30.6670 H   0  0  0  0  0  0  0  0  0  0  0  0
   40.0560   25.8410   32.1920 C   0  0  0  0  0  0  0  0  0  0  0  0
   38.9190   25.9550   33.0500 C   0  0  0  0  0  0  0  0  0  0  0  0
   39.1180   26.5480   34.2670 C   0  0  0  0  0  0  0  0  0  0  0  0
   40.3900   26.9830   34.5550 N   0  0  0  0  0  0  0  0  0  0  0  0
   41.4340   26.8710   33.7490 C   0  0  0  0  0  0  0  0  0  0  0  0
   41.2500   26.2910   32.5560 N   0  0  0  0  0  0  0  0  0  0  0  0
   42.6510   27.4000   34.2230 N   0  0  0  0  0  0  0  0  0  0  0  0
   40.0450   25.3960   31.2080 H   0  0  0  0  0  0  0  0  0  0  0  0
   43.1370   28.1940   33.7360 H   0  0  0  0  0  0  0  0  0  0  0  0
   42.9930   26.9220   35.0870 H   0  0  0  0  0  0  0  0  0  0  0  0
   37.9930   26.7000   35.1900 C   0  0  0  0  0  0  0  0  0  0  0  0
   37.1640   27.6010   34.7120 F   0  0  0  0  0  0  0  0  0  0  0  0
   37.3100   25.5270   35.4500 F   0  0  0  0  0  0  0  0  0  0  0  0
   38.4450   27.1560   36.4630 F   0  0  0  0  0  0  0  0  0  0  0  0
   36.0100   22.2870   31.6310 C   0  0  0  0  0  0  0  0  0  0  0  0
   35.0210   21.6370   32.3370 C   0  0  0  0  0  3  0  0  0  0  0  0
   34.8650   20.2690   32.2710 C   0  0  0  0  0  0  0  0  0  0  0  0
   34.0910   19.7940   32.8290 H   0  0  0  0  0  0  0  0  0  0  0  0
   35.6810   19.5220   31.5090 N   0  0  0  0  0  0  0  0  0  0  0  0
   36.6480   20.1470   30.8170 C   0  0  0  0  0  3  0  0  0  0  0  0
   36.7920   21.4810   30.8880 N   0  0  0  0  0  0  0  0  0  0  0  0
  1 11  1  0  0  0  0
  2  7  1  0  0  0  0
  2  1  2  0  0  0  0
  3  2  1  0  0  0  0
  4  3  2  0  0  0  0
  4  5  1  0  0  0  0
  5  6  2  0  0  0  0
  6  1  1  0  0  0  0
  8  3  1  0  0  0  0
  9  4  1  0  0  0  0
 10 15  2  0  0  0  0
 10 11  1  0  0  0  0
 11 12  2  0  0  0  0
 12 13  1  0  0  0  0
 12 20  1  0  0  0  0
 14 16  1  0  0  0  0
 14 13  2  0  0  0  0
 15 14  1  0  0  0  0
 16 19  1  0  0  0  0
 17 10  1  0  0  0  0
 18 16  1  0  0  0  0
 20 22  1  0  0  0  0
 20 23  1  0  0  0  0
 21 20  1  0  0  0  0
 24  5  1  0  0  0  0
 24 25  1  0  0  0  0
 26 25  2  0  0  0  0
 26 27  1  0  0  0  0
 28 26  1  0  0  0  0
 29 30  1  0  0  0  0
 29 28  2  0  0  0  0
 30 24  2  0  0  0  0
M  END
>  <minimizedAffinity>
-5.85372257

$$$$

 OpenBabel03262520233D

 30 32  0  0  0  0  0  0  0  0999 V2000
   38.8790   24.0570   35.7980 C   0  0  0  0  0  0  0  0  0  0  0  0
   38.3270   24.0150   37.0900 C   0  0  0  0  0  0  0  0  0  0  0  0
   38.8260   23.3540   38.1560 C   0  0  0  0  0  0  0  0  0  0  0  0
   39.9630   22.6440   38.0310 C   0  0  0  0  0  0  0  0  0  0  0  0
   40.5130   22.6730   36.7840 C   0  0  0  0  0  0  0  0  0  0  0  0
   39.9710   23.3390   35.7930 N   0  0  0  0  0  0  0  0  0  0  0  0
   37.3600   24.5930   37.2710 H   0  0  0  0  0  0  0  0  0  0  0  0
   38.2780   23.4080   39.1330 H   0  0  0  0  0  0  0  0  0  0  0  0
   40.3880   22.1110   38.8480 H   0  0  0  0  0  0  0  0  0  0  0  0
   37.7530   24.0030   33.7160 C   0  0  0  0  0  0  0  0  0  0  0  0
   38.2420   24.8490   34.7590 C   0  0  0  0  0  0  0  0  0  0  0  0
   38.0170   26.1930   34.6230 C   0  0  0  0  0  0  0  0  0  0  0  0
   37.3410   26.6070   33.5010 N   0  0  0  0  0  0  0  0  0  0  0  0
   36.8920   25.8110   32.5440 C   0  0  0  0  0  0  0  0  0  0  0  0
   37.1080   24.4940   32.6660 N   0  0  0  0  0  0  0  0  0  0  0  0
   36.2030   26.4310   31.4830 N   0  0  0  0  0  0  0  0  0  0  0  0
   37.8590   22.9280   33.6930 H   0  0  0  0  0  0  0  0  0  0  0  0
   35.1930   26.2230   31.2810 H   0  0  0  0  0  0  0  0  0  0  0  0
   36.8010   27.0990   30.9460 H   0  0  0  0  0  0  0  0  0  0  0  0
   38.4880   27.1130   35.6580 C   0  0  0  0  0  0  0  0  0  0  0  0
   39.8010   27.1660   35.6200 F   0  0  0  0  0  0  0  0  0  0  0  0
   37.9660   28.3890   35.5640 F   0  0  0  0  0  0  0  0  0  0  0  0
   38.1080   26.6520   36.9520 F   0  0  0  0  0  0  0  0  0  0  0  0
   41.7740   21.9370   36.4820 C   0  0  0  0  0  0  0  0  0  0  0  0
   42.1700   20.7950   37.1430 C   0  0  0  0  0  3  0  0  0  0  0  0
   43.3460   20.1470   36.8290 C   0  0  0  0  0  0  0  0  0  0  0  0
   43.6270   19.2670   37.3580 H   0  0  0  0  0  0  0  0  0  0  0  0
   44.1490   20.6160   35.8580 N   0  0  0  0  0  0  0  0  0  0  0  0
   43.7700   21.7290   35.2070 C   0  0  0  0  0  3  0  0  0  0  0  0
   42.6220   22.3520   35.5210 N   0  0  0  0  0  0  0  0  0  0  0  0
  1  2  1  0  0  0  0
  2  7  1  0  0  0  0
  2  3  2  0  0  0  0
  3  8  1  0  0  0  0
  4  3  1  0  0  0  0
  4  9  1  0  0  0  0
  5  4  2  0  0  0  0
  6  1  2  0  0  0  0
  6  5  1  0  0  0  0
 10 11  1  0  0  0  0
 11  1  1  0  0  0  0
 12 11  2  0  0  0  0
 12 20  1  0  0  0  0
 13 12  1  0  0  0  0
 14 15  1  0  0  0  0
 14 13  2  0  0  0  0
 15 10  2  0  0  0  0
 16 14  1  0  0  0  0
 17 10  1  0  0  0  0
 18 16  1  0  0  0  0
 19 16  1  0  0  0  0
 20 23  1  0  0  0  0
 21 20  1  0  0  0  0
 22 20  1  0  0  0  0
 24  5  1  0  0  0  0
 24 25  1  0  0  0  0
 26 25  2  0  0  0  0
 26 27  1  0  0  0  0
 28 26  1  0  0  0  0
 29 30  1  0  0  0  0
 29 28  2  0  0  0  0
 30 24  2  0  0  0  0
M  END
>  <minimizedAffinity>
-5.77326202

$$$$

 OpenBabel03262520233D

 30 32  0  0  0  0  0  0  0  0999 V2000
   38.2840   23.9500   34.2740 C   0  0  0  0  0  0  0  0  0  0  0  0
   38.0330   23.2260   33.0970 C   0  0  0  0  0  0  0  0  0  0  0  0
   37.3990   23.6790   31.9930 C   0  0  0  0  0  0  0  0  0  0  0  0
   36.9390   24.9450   31.9590 C   0  0  0  0  0  0  0  0  0  0  0  0
   37.1740   25.6630   33.0930 C   0  0  0  0  0  0  0  0  0  0  0  0
   37.7970   25.1550   34.1290 N   0  0  0  0  0  0  0  0  0  0  0  0
   38.3930   22.1450   33.0540 H   0  0  0  0  0  0  0  0  0  0  0  0
   37.2670   22.9880   31.1200 H   0  0  0  0  0  0  0  0  0  0  0  0
   36.4370   25.3390   31.1080 H   0  0  0  0  0  0  0  0  0  0  0  0
   39.9660   22.3920   34.8620 C   0  0  0  0  0  0  0  0  0  0  0  0
   39.0160   23.3320   35.3670 C   0  0  0  0  0  0  0  0  0  0  0  0
   38.9750   23.5020   36.7250 C   0  0  0  0  0  0  0  0  0  0  0  0
   39.8510   22.7570   37.4790 N   0  0  0  0  0  0  0  0  0  0  0  0
   40.7270   21.8910   36.9960 C   0  0  0  0  0  0  0  0  0  0  0  0
   40.7740   21.7160   35.6680 N   0  0  0  0  0  0  0  0  0  0  0  0
   41.5510   21.2430   37.9360 N   0  0  0  0  0  0  0  0  0  0  0  0
   40.1070   22.1580   33.8160 H   0  0  0  0  0  0  0  0  0  0  0  0
   42.5950   21.3620   37.9340 H   0  0  0  0  0  0  0  0  0  0  0  0
   41.0130   20.6520   38.6090 H   0  0  0  0  0  0  0  0  0  0  0  0
   38.0270   24.4530   37.3070 C   0  0  0  0  0  0  0  0  0  0  0  0
   36.8120   24.1410   36.9160 F   0  0  0  0  0  0  0  0  0  0  0  0
   38.0720   24.5260   38.6860 F   0  0  0  0  0  0  0  0  0  0  0  0
   38.3040   25.7770   36.8550 F   0  0  0  0  0  0  0  0  0  0  0  0
   36.7260   27.0800   33.2140 C   0  0  0  0  0  0  0  0  0  0  0  0
   36.4300   27.8830   32.1350 C   0  0  0  0  0  3  0  0  0  0  0  0
   36.0190   29.1890   32.2940 C   0  0  0  0  0  0  0  0  0  0  0  0
   35.7970   29.7860   31.4410 H   0  0  0  0  0  0  0  0  0  0  0  0
   35.8950   29.7230   33.5210 N   0  0  0  0  0  0  0  0  0  0  0  0
   36.1820   28.9470   34.5800 C   0  0  0  0  0  3  0  0  0  0  0  0
   36.5810   27.6750   34.4130 N   0  0  0  0  0  0  0  0  0  0  0  0
  1 11  1  0  0  0  0
  2  1  2  0  0  0  0
  3  2  1  0  0  0  0
  4  3  2  0  0  0  0
  4  5  1  0  0  0  0
  5 24  1  0  0  0  0
  5  6  2  0  0  0  0
  6  1  1  0  0  0  0
  7  2  1  0  0  0  0
  8  3  1  0  0  0  0
  9  4  1  0  0  0  0
 10 11  2  0  0  0  0
 10 15  1  0  0  0  0
 11 12  1  0  0  0  0
 12 20  1  0  0  0  0
 12 13  2  0  0  0  0
 14 13  1  0  0  0  0
 14 16  1  0  0  0  0
 15 14  2  0  0  0  0
 16 19  1  0  0  0  0
 17 10  1  0  0  0  0
 18 16  1  0  0  0  0
 20 22  1  0  0  0  0
 21 20  1  0  0  0  0
 23 20  1  0  0  0  0
 24 30  1  0  0  0  0
 25 26  1  0  0  0  0
 25 24  2  0  0  0  0
 26 28  2  0  0  0  0
 27 26  1  0  0  0  0
 28 29  1  0  0  0  0
 30 29  2  0  0  0  0
M  END
>  <minimizedAffinity>
-5.75285196

$$$$

 OpenBabel03262520233D

 30 32  0  0  0  0  0  0  0  0999 V2000
   38.6820   25.0460   33.4610 C   0  0  0  0  0  0  0  0  0  0  0  0
   39.6400   24.3480   32.7070 C   0  0  0  0  0  0  0  0  0  0  0  0
   40.0560   24.6480   31.4570 C   0  0  0  0  0  0  0  0  0  0  0  0
   39.5340   25.7110   30.8170 C   0  0  0  0  0  0  0  0  0  0  0  0
   38.6010   26.4010   31.5330 C   0  0  0  0  0  0  0  0  0  0  0  0
   38.2470   26.0500   32.7450 N   0  0  0  0  0  0  0  0  0  0  0  0
   40.1250   23.4330   33.1860 H   0  0  0  0  0  0  0  0  0  0  0  0
   40.8330   23.9990   30.9740 H   0  0  0  0  0  0  0  0  0  0  0  0
   39.8360   25.9800   29.8330 H   0  0  0  0  0  0  0  0  0  0  0  0
   38.2130   23.2000   34.8670 C   0  0  0  0  0  0  0  0  0  0  0  0
   38.3680   24.6200   34.8150 C   0  0  0  0  0  0  0  0  0  0  0  0
   38.2270   25.3020   35.9930 C   0  0  0  0  0  0  0  0  0  0  0  0
   37.9530   24.5630   37.1190 N   0  0  0  0  0  0  0  0  0  0  0  0
   37.8140   23.2480   37.1520 C   0  0  0  0  0  0  0  0  0  0  0  0
   37.9490   22.5710   36.0040 N   0  0  0  0  0  0  0  0  0  0  0  0
   37.5550   22.6760   38.4140 N   0  0  0  0  0  0  0  0  0  0  0  0
   38.2970   22.5380   34.0170 H   0  0  0  0  0  0  0  0  0  0  0  0
   38.2220   22.0000   38.8640 H   0  0  0  0  0  0  0  0  0  0  0  0
   36.6520   22.9990   38.8280 H   0  0  0  0  0  0  0  0  0  0  0  0
   38.3780   26.7580   36.0080 C   0  0  0  0  0  0  0  0  0  0  0  0
   38.2980   27.1840   37.2490 F   0  0  0  0  0  0  0  0  0  0  0  0
   39.5480   27.2130   35.4320 F   0  0  0  0  0  0  0  0  0  0  0  0
   37.3320   27.3790   35.2650 F   0  0  0  0  0  0  0  0  0  0  0  0
   37.9290   27.6040   30.9630 C   0  0  0  0  0  0  0  0  0  0  0  0
   37.0650   28.4050   31.6760 C   0  0  0  0  0  3  0  0  0  0  0  0
   36.4650   29.5090   31.1070 C   0  0  0  0  0  0  0  0  0  0  0  0
   35.8000   30.1100   31.6820 H   0  0  0  0  0  0  0  0  0  0  0  0
   36.7090   29.8380   29.8270 N   0  0  0  0  0  0  0  0  0  0  0  0
   37.5520   29.0620   29.1240 C   0  0  0  0  0  3  0  0  0  0  0  0
   38.1310   27.9890   29.6890 N   0  0  0  0  0  0  0  0  0  0  0  0
  1 11  1  0  0  0  0
  2  7  1  0  0  0  0
  2  1  2  0  0  0  0
  3  2  1  0  0  0  0
  4  3  2  0  0  0  0
  4  5  1  0  0  0  0
  5  6  2  0  0  0  0
  6  1  1  0  0  0  0
  8  3  1  0  0  0  0
  9  4  1  0  0  0  0
 10 15  1  0  0  0  0
 11 10  2  0  0  0  0
 11 12  1  0  0  0  0
 12 20  1  0  0  0  0
 12 13  2  0  0  0  0
 13 14  1  0  0  0  0
 14 16  1  0  0  0  0
 15 14  2  0  0  0  0
 16 19  1  0  0  0  0
 16 18  1  0  0  0  0
 17 10  1  0  0  0  0
 20 21  1  0  0  0  0
 22 20  1  0  0  0  0
 23 20  1  0  0  0  0
 24  5  1  0  0  0  0
 24 25  1  0  0  0  0
 26 25  2  0  0  0  0
 26 27  1  0  0  0  0
 28 26  1  0  0  0  0
 29 30  1  0  0  0  0
 29 28  2  0  0  0  0
 30 24  2  0  0  0  0
M  END
>  <minimizedAffinity>
-5.66863966

$$$$

 OpenBabel03262520233D

 30 32  0  0  0  0  0  0  0  0999 V2000
   37.2610   24.9320   32.8600 C   0  0  0  0  0  0  0  0  0  0  0  0
   36.8560   23.8440   32.0680 C   0  0  0  0  0  0  0  0  0  0  0  0
   37.0470   22.5350   32.3400 C   0  0  0  0  0  0  0  0  0  0  0  0
   37.6850   22.1730   33.4690 C   0  0  0  0  0  0  0  0  0  0  0  0
   38.0860   23.2160   34.2510 C   0  0  0  0  0  0  0  0  0  0  0  0
   37.8640   24.4660   33.9210 N   0  0  0  0  0  0  0  0  0  0  0  0
   36.3110   24.0740   31.0920 H   0  0  0  0  0  0  0  0  0  0  0  0
   36.6690   21.7690   31.6130 H   0  0  0  0  0  0  0  0  0  0  0  0
   37.8530   21.1530   33.7190 H   0  0  0  0  0  0  0  0  0  0  0  0
   36.6390   26.3290   31.0530 C   0  0  0  0  0  0  0  0  0  0  0  0
   36.9460   26.2900   32.4480 C   0  0  0  0  0  0  0  0  0  0  0  0
   36.8710   27.4730   33.1330 C   0  0  0  0  0  0  0  0  0  0  0  0
   36.5050   28.5900   32.4200 N   0  0  0  0  0  0  0  0  0  0  0  0
   36.2220   28.6100   31.1270 C   0  0  0  0  0  0  0  0  0  0  0  0
   36.2940   27.4580   30.4480 N   0  0  0  0  0  0  0  0  0  0  0  0
   35.8460   29.8560   30.5870 N   0  0  0  0  0  0  0  0  0  0  0  0
   36.6580   25.4740   30.3920 H   0  0  0  0  0  0  0  0  0  0  0  0
   34.8960   30.0160   30.1700 H   0  0  0  0  0  0  0  0  0  0  0  0
   36.6050   30.5720   30.6540 H   0  0  0  0  0  0  0  0  0  0  0  0
   37.1690   27.5000   34.5650 C   0  0  0  0  0  0  0  0  0  0  0  0
   36.3880   26.6410   35.1820 F   0  0  0  0  0  0  0  0  0  0  0  0
   38.4900   27.2380   34.8750 F   0  0  0  0  0  0  0  0  0  0  0  0
   36.9100   28.7920   35.1080 F   0  0  0  0  0  0  0  0  0  0  0  0
   38.8050   22.9820   35.5360 C   0  0  0  0  0  0  0  0  0  0  0  0
   38.4120   23.5200   36.7410 C   0  0  0  0  0  3  0  0  0  0  0  0
   39.1100   23.2770   37.9050 C   0  0  0  0  0  0  0  0  0  0  0  0
   38.7820   23.7080   38.8230 H   0  0  0  0  0  0  0  0  0  0  0  0
   40.2060   22.4990   37.8970 N   0  0  0  0  0  0  0  0  0  0  0  0
   40.5970   21.9700   36.7260 C   0  0  0  0  0  3  0  0  0  0  0  0
   39.9090   22.2130   35.5970 N   0  0  0  0  0  0  0  0  0  0  0  0
  1  6  1  0  0  0  0
  2  3  1  0  0  0  0
  2  1  2  0  0  0  0
  3  4  2  0  0  0  0
  4  9  1  0  0  0  0
  4  5  1  0  0  0  0
  5 24  1  0  0  0  0
  6  5  2  0  0  0  0
  7  2  1  0  0  0  0
  8  3  1  0  0  0  0
 10 11  1  0  0  0  0
 11  1  1  0  0  0  0
 11 12  2  0  0  0  0
 12 20  1  0  0  0  0
 13 12  1  0  0  0  0
 14 13  2  0  0  0  0
 15 10  2  0  0  0  0
 15 14  1  0  0  0  0
 16 19  1  0  0  0  0
 16 14  1  0  0  0  0
 17 10  1  0  0  0  0
 18 16  1  0  0  0  0
 20 22  1  0  0  0  0
 20 23  1  0  0  0  0
 20 21  1  0  0  0  0
 24 30  2  0  0  0  0
 24 25  1  0  0  0  0
 25 26  2  0  0  0  0
 26 27  1  0  0  0  0
 28 26  1  0  0  0  0
 29 28  2  0  0  0  0
 30 29  1  0  0  0  0
M  END
>  <minimizedAffinity>
-5.62460566

$$$$

 OpenBabel03262520233D

 30 32  0  0  0  0  0  0  0  0999 V2000
   38.0170   24.8790   33.7940 C   0  0  0  0  0  0  0  0  0  0  0  0
   37.6950   24.2140   32.5990 C   0  0  0  0  0  0  0  0  0  0  0  0
   36.9970   24.7210   31.5590 C   0  0  0  0  0  0  0  0  0  0  0  0
   36.5360   25.9850   31.6160 C   0  0  0  0  0  0  0  0  0  0  0  0
   36.8390   26.6460   32.7690 C   0  0  0  0  0  0  0  0  0  0  0  0
   37.5230   26.0880   33.7390 N   0  0  0  0  0  0  0  0  0  0  0  0
   38.0510   23.1370   32.4800 H   0  0  0  0  0  0  0  0  0  0  0  0
   36.8130   24.0730   30.6620 H   0  0  0  0  0  0  0  0  0  0  0  0
   35.9840   26.4200   30.8170 H   0  0  0  0  0  0  0  0  0  0  0  0
   38.0950   23.0960   35.3490 C   0  0  0  0  0  0  0  0  0  0  0  0
   38.8120   24.2080   34.8090 C   0  0  0  0  0  0  0  0  0  0  0  0
   40.0730   24.4280   35.2960 C   0  0  0  0  0  0  0  0  0  0  0  0
   40.5370   23.5600   36.2550 N   0  0  0  0  0  0  0  0  0  0  0  0
   39.8610   22.5330   36.7450 C   0  0  0  0  0  0  0  0  0  0  0  0
   38.6260   22.3100   36.2770 N   0  0  0  0  0  0  0  0  0  0  0  0
   40.5240   21.7500   37.7100 N   0  0  0  0  0  0  0  0  0  0  0  0
   37.0960   22.8060   35.0600 H   0  0  0  0  0  0  0  0  0  0  0  0
   40.7450   20.7360   37.5450 H   0  0  0  0  0  0  0  0  0  0  0  0
   40.7600   22.2860   38.5760 H   0  0  0  0  0  0  0  0  0  0  0  0
   40.8610   25.5480   34.7810 C   0  0  0  0  0  0  0  0  0  0  0  0
   42.0860   25.4610   35.2490 F   0  0  0  0  0  0  0  0  0  0  0  0
   40.8930   25.6320   33.4020 F   0  0  0  0  0  0  0  0  0  0  0  0
   40.3150   26.7900   35.2160 F   0  0  0  0  0  0  0  0  0  0  0  0
   36.4000   28.0540   32.9870 C   0  0  0  0  0  0  0  0  0  0  0  0
   36.3510   29.0030   31.9900 C   0  0  0  0  0  3  0  0  0  0  0  0
   35.9390   30.2950   32.2380 C   0  0  0  0  0  0  0  0  0  0  0  0
   35.9120   31.0070   31.4470 H   0  0  0  0  0  0  0  0  0  0  0  0
   35.5680   30.6700   33.4740 N   0  0  0  0  0  0  0  0  0  0  0  0
   35.6120   29.7510   34.4540 C   0  0  0  0  0  3  0  0  0  0  0  0
   36.0160   28.4940   34.2000 N   0  0  0  0  0  0  0  0  0  0  0  0
  1 11  1  0  0  0  0
  2  1  2  0  0  0  0
  3  4  2  0  0  0  0
  3  2  1  0  0  0  0
  4  5  1  0  0  0  0
  5 24  1  0  0  0  0
  5  6  2  0  0  0  0
  6  1  1  0  0  0  0
  7  2  1  0  0  0  0
  8  3  1  0  0  0  0
  9  4  1  0  0  0  0
 10 15  1  0  0  0  0
 11 12  1  0  0  0  0
 11 10  2  0  0  0  0
 12 13  2  0  0  0  0
 13 14  1  0  0  0  0
 14 16  1  0  0  0  0
 15 14  2  0  0  0  0
 16 19  1  0  0  0  0
 17 10  1  0  0  0  0
 18 16  1  0  0  0  0
 20 23  1  0  0  0  0
 20 21  1  0  0  0  0
 20 12  1  0  0  0  0
 22 20  1  0  0  0  0
 24 30  1  0  0  0  0
 25 26  1  0  0  0  0
 25 24  2  0  0  0  0
 26 28  2  0  0  0  0
 27 26  1  0  0  0  0
 28 29  1  0  0  0  0
 30 29  2  0  0  0  0
M  END
>  <minimizedAffinity>
-5.5917778

$$$$

 OpenBabel03262520233D

 30 32  0  0  0  0  0  0  0  0999 V2000
   36.0940   28.2230   32.4550 C   0  0  0  0  0  0  0  0  0  0  0  0
   36.4840   29.1030   31.4320 C   0  0  0  0  0  0  0  0  0  0  0  0
   36.3830   30.4490   31.4460 C   0  0  0  0  0  0  0  0  0  0  0  0
   35.8620   31.0690   32.5220 C   0  0  0  0  0  0  0  0  0  0  0  0
   35.4780   30.2310   33.5260 C   0  0  0  0  0  0  0  0  0  0  0  0
   35.6070   28.9290   33.4410 N   0  0  0  0  0  0  0  0  0  0  0  0
   36.9330   28.6480   30.4860 H   0  0  0  0  0  0  0  0  0  0  0  0
   36.7360   31.0300   30.5530 H   0  0  0  0  0  0  0  0  0  0  0  0
   35.7670   32.1270   32.5720 H   0  0  0  0  0  0  0  0  0  0  0  0
   35.5140   26.2820   31.2300 C   0  0  0  0  0  0  0  0  0  0  0  0
   36.3040   26.7930   32.3060 C   0  0  0  0  0  0  0  0  0  0  0  0
   37.1050   25.8980   32.9640 C   0  0  0  0  0  0  0  0  0  0  0  0
   37.0790   24.5940   32.5320 N   0  0  0  0  0  0  0  0  0  0  0  0
   36.3430   24.1360   31.5320 C   0  0  0  0  0  0  0  0  0  0  0  0
   35.5550   25.0030   30.8820 N   0  0  0  0  0  0  0  0  0  0  0  0
   36.4760   22.7670   31.2300 N   0  0  0  0  0  0  0  0  0  0  0  0
   34.8400   26.8720   30.6250 H   0  0  0  0  0  0  0  0  0  0  0  0
   36.8400   22.4360   30.3020 H   0  0  0  0  0  0  0  0  0  0  0  0
   36.1800   22.1470   32.0180 H   0  0  0  0  0  0  0  0  0  0  0  0
   37.9420   26.3570   34.0730 C   0  0  0  0  0  0  0  0  0  0  0  0
   38.7190   27.3290   33.6490 F   0  0  0  0  0  0  0  0  0  0  0  0
   37.2340   26.7740   35.1840 F   0  0  0  0  0  0  0  0  0  0  0  0
   38.7790   25.3030   34.5410 F   0  0  0  0  0  0  0  0  0  0  0  0
   34.8820   30.7620   34.7860 C   0  0  0  0  0  0  0  0  0  0  0  0
   35.5740   31.5320   35.6940 C   0  0  0  0  0  3  0  0  0  0  0  0
   34.9820   32.0010   36.8470 C   0  0  0  0  0  0  0  0  0  0  0  0
   35.5430   32.5940   37.5310 H   0  0  0  0  0  0  0  0  0  0  0  0
   33.6970   31.7170   37.1220 N   0  0  0  0  0  0  0  0  0  0  0  0
   33.0140   30.9660   36.2410 C   0  0  0  0  0  3  0  0  0  0  0  0
   33.6020   30.5140   35.1200 N   0  0  0  0  0  0  0  0  0  0  0  0
  1  6  1  0  0  0  0
  2  3  1  0  0  0  0
  2  1  2  0  0  0  0
  3  4  2  0  0  0  0
  4  9  1  0  0  0  0
  4  5  1  0  0  0  0
  5 24  1  0  0  0  0
  6  5  2  0  0  0  0
  7  2  1  0  0  0  0
  8  3  1  0  0  0  0
 10 11  1  0  0  0  0
 11  1  1  0  0  0  0
 11 12  2  0  0  0  0
 12 20  1  0  0  0  0
 13 12  1  0  0  0  0
 14 13  2  0  0  0  0
 15 10  2  0  0  0  0
 15 14  1  0  0  0  0
 16 14  1  0  0  0  0
 16 19  1  0  0  0  0
 17 10  1  0  0  0  0
 18 16  1  0  0  0  0
 20 23  1  0  0  0  0
 20 22  1  0  0  0  0
 21 20  1  0  0  0  0
 24 30  2  0  0  0  0
 24 25  1  0  0  0  0
 25 26  2  0  0  0  0
 26 28  1  0  0  0  0
 26 27  1  0  0  0  0
 29 28  2  0  0  0  0
 30 29  1  0  0  0  0
M  END
>  <minimizedAffinity>
-5.55828953

$$$$

 OpenBabel03262520233D

 30 32  0  0  0  0  0  0  0  0999 V2000
   35.1980   29.4180   33.9910 C   0  0  0  0  0  0  0  0  0  0  0  0
   35.5530   29.8930   32.7180 C   0  0  0  0  0  0  0  0  0  0  0  0
   36.4310   29.3250   31.8630 C   0  0  0  0  0  0  0  0  0  0  0  0
   37.0620   28.1870   32.2100 C   0  0  0  0  0  0  0  0  0  0  0  0
   36.7300   27.7100   33.4440 C   0  0  0  0  0  0  0  0  0  0  0  0
   35.8660   28.3180   34.2210 N   0  0  0  0  0  0  0  0  0  0  0  0
   35.0600   30.8560   32.3560 H   0  0  0  0  0  0  0  0  0  0  0  0
   36.6200   29.8160   30.8720 H   0  0  0  0  0  0  0  0  0  0  0  0
   37.7580   27.7090   31.5640 H   0  0  0  0  0  0  0  0  0  0  0  0
   32.9140   29.5360   34.6000 C   0  0  0  0  0  0  0  0  0  0  0  0
   34.2040   30.1240   34.7810 C   0  0  0  0  0  0  0  0  0  0  0  0
   34.2850   31.1840   35.6440 C   0  0  0  0  0  0  0  0  0  0  0  0
   33.1230   31.5850   36.2600 N   0  0  0  0  0  0  0  0  0  0  0  0
   31.9360   31.0290   36.0820 C   0  0  0  0  0  0  0  0  0  0  0  0
   31.8450   29.9910   35.2390 N   0  0  0  0  0  0  0  0  0  0  0  0
   30.8700   31.5750   36.8250 N   0  0  0  0  0  0  0  0  0  0  0  0
   32.7030   28.6980   33.9520 H   0  0  0  0  0  0  0  0  0  0  0  0
   30.3450   31.0110   37.5380 H   0  0  0  0  0  0  0  0  0  0  0  0
   30.6780   32.5740   36.5850 H   0  0  0  0  0  0  0  0  0  0  0  0
   35.5770   31.8290   35.8770 C   0  0  0  0  0  0  0  0  0  0  0  0
   35.4670   32.6560   36.8930 F   0  0  0  0  0  0  0  0  0  0  0  0
   36.6180   30.9480   36.1020 F   0  0  0  0  0  0  0  0  0  0  0  0
   35.9730   32.5880   34.7380 F   0  0  0  0  0  0  0  0  0  0  0  0
   37.3420   26.4590   33.9760 C   0  0  0  0  0  0  0  0  0  0  0  0
   37.8400   25.4530   33.1790 C   0  0  0  0  0  3  0  0  0  0  0  0
   38.3970   24.3120   33.7160 C   0  0  0  0  0  0  0  0  0  0  0  0
   38.7740   23.5500   33.0750 H   0  0  0  0  0  0  0  0  0  0  0  0
   38.4720   24.1480   35.0480 N   0  0  0  0  0  0  0  0  0  0  0  0
   37.9890   25.1250   35.8340 C   0  0  0  0  0  3  0  0  0  0  0  0
   37.4470   26.2330   35.2990 N   0  0  0  0  0  0  0  0  0  0  0  0
  1  6  1  0  0  0  0
  1 11  1  0  0  0  0
  2  1  2  0  0  0  0
  3  4  2  0  0  0  0
  3  2  1  0  0  0  0
  4  5  1  0  0  0  0
  5 24  1  0  0  0  0
  5  6  2  0  0  0  0
  7  2  1  0  0  0  0
  8  3  1  0  0  0  0
  9  4  1  0  0  0  0
 10 11  2  0  0  0  0
 10 15  1  0  0  0  0
 11 12  1  0  0  0  0
 12 20  1  0  0  0  0
 12 13  2  0  0  0  0
 14 13  1  0  0  0  0
 14 16  1  0  0  0  0
 15 14  2  0  0  0  0
 16 18  1  0  0  0  0
 17 10  1  0  0  0  0
 19 16  1  0  0  0  0
 20 22  1  0  0  0  0
 20 21  1  0  0  0  0
 23 20  1  0  0  0  0
 24 30  1  0  0  0  0
 25 26  1  0  0  0  0
 25 24  2  0  0  0  0
 26 28  2  0  0  0  0
 27 26  1  0  0  0  0
 28 29  1  0  0  0  0
 30 29  2  0  0  0  0
M  END
>  <minimizedAffinity>
-5.5232811

$$$$
