
 OpenBabel03272507283D

 39 41  0  0  1  0  0  0  0  0999 V2000
   37.0490   30.5470   48.0760 C   0  0  0  0  0  0  0  0  0  0  0  0
   35.8660   30.4440   47.3130 C   0  0  0  0  0  0  0  0  0  0  0  0
   34.8850   29.5730   47.7880 C   0  0  0  0  0  0  0  0  0  0  0  0
   35.1060   28.8890   48.9220 N   0  0  0  0  0  0  0  0  0  0  0  0
   36.2490   29.0130   49.6240 C   0  0  0  0  0  0  0  0  0  0  0  0
   37.2070   29.8340   49.2030 N   0  0  0  0  0  0  0  0  0  0  0  0
   33.6900   29.4110   47.0910 N   0  0  0  0  0  0  0  0  0  0  0  0
   33.0020   30.4590   46.2890 C   0  0  0  0  0  0  0  0  0  0  0  0
   31.6560   29.9560   45.9450 C   0  0  0  0  0  0  0  0  0  0  0  0
   31.4450   28.8580   46.8800 C   0  0  0  0  0  0  0  0  0  0  0  0
   32.8120   28.2920   46.9620 C   0  0  2  0  0  0  0  0  0  0  0  0
   37.7460   31.2550   47.6120 H   0  0  0  0  0  0  0  0  0  0  0  0
   35.6520   30.9670   46.4100 H   0  0  0  0  0  0  0  0  0  0  0  0
   36.4930   28.5000   50.5360 H   0  0  0  0  0  0  0  0  0  0  0  0
   33.5920   30.9880   45.5830 H   0  0  0  0  0  0  0  0  0  0  0  0
   32.8810   31.2550   47.1330 H   0  0  0  0  0  0  0  0  0  0  0  0
   30.9440   30.7850   46.4070 H   0  0  0  0  0  0  0  0  0  0  0  0
   31.2730   29.9770   44.9580 H   0  0  0  0  0  0  0  0  0  0  0  0
   31.1030   29.1710   47.8880 H   0  0  0  0  0  0  0  0  0  0  0  0
   30.7510   28.0590   46.5410 H   0  0  0  0  0  0  0  0  0  0  0  0
   32.8910   27.2880   48.1160 C   0  0  0  0  0  0  0  0  0  0  0  0
   32.8380   27.9890   49.3010 F   0  0  0  0  0  0  0  0  0  0  0  0
   34.0260   26.5350   48.1590 F   0  0  0  0  0  0  0  0  0  0  0  0
   31.7440   26.5280   48.0540 F   0  0  0  0  0  0  0  0  0  0  0  0
   33.1910   27.5720   45.7830 C   0  0  2  0  0  0  0  0  0  0  0  0
   34.0490   26.9570   45.9330 H   0  0  0  0  0  0  0  0  0  0  0  0
   33.8010   28.3800   44.5640 C   0  0  0  0  0  0  0  0  0  0  0  0
   33.0510   28.8680   43.5000 C   0  0  0  0  0  3  0  0  0  0  0  0
   33.6940   29.4920   42.4610 C   0  0  0  0  0  0  0  0  0  0  0  0
   33.0140   29.8320   41.6900 H   0  0  0  0  0  0  0  0  0  0  0  0
   35.0230   29.6400   42.4520 N   0  0  0  0  0  0  0  0  0  0  0  0
   35.7730   29.1830   43.4610 C   0  0  0  0  0  3  0  0  0  0  0  0
   35.1300   28.5860   44.4460 N   0  0  0  0  0  0  0  0  0  0  0  0
   32.1480   27.1210   45.2450 O   0  0  0  0  0  0  0  0  0  0  0  0
   31.6410   25.9590   44.8020 C   0  0  0  0  0  0  0  0  0  0  0  0
   30.5300   25.7260   45.2800 O   0  0  0  0  0  0  0  0  0  0  0  0
   31.7870   24.8040   43.9890 N   0  0  0  0  0  0  0  0  0  0  0  0
   32.3180   23.9300   44.2150 H   0  0  0  0  0  0  0  0  0  0  0  0
   31.3460   24.7150   43.0240 H   0  0  0  0  0  0  0  0  0  0  0  0
  1  6  1  0  0  0  0
  2  3  1  0  0  0  0
  2  1  2  0  0  0  0
  3  4  2  0  0  0  0
  4  5  1  0  0  0  0
  5 14  1  0  0  0  0
  6  5  2  0  0  0  0
  7  3  1  0  0  0  0
  8  7  1  0  0  0  0
  8 16  1  0  0  0  0
  9  8  1  0  0  0  0
  9 17  1  0  0  0  0
  9 10  1  0  0  0  0
 10 11  1  0  0  0  0
 10 19  1  0  0  0  0
 11  7  1  0  0  0  0
 11 21  1  1  0  0  0
 12  1  1  0  0  0  0
 13  2  1  0  0  0  0
 15  8  1  0  0  0  0
 18  9  1  0  0  0  0
 20 10  1  0  0  0  0
 21 23  1  0  0  0  0
 21 22  1  0  0  0  0
 24 21  1  0  0  0  0
 25 26  1  1  0  0  0
 25 11  1  0  0  0  0
 27 25  1  0  0  0  0
 28 27  2  0  0  0  0
 29 28  1  0  0  0  0
 30 29  1  0  0  0  0
 31 29  2  0  0  0  0
 31 32  1  0  0  0  0
 32 33  2  0  0  0  0
 33 27  1  0  0  0  0
 34 25  1  0  0  0  0
 35 34  1  0  0  0  0
 35 36  2  0  0  0  0
 37 38  1  0  0  0  0
 37 35  1  0  0  0  0
 39 37  1  0  0  0  0
M  END
>  <minimizedAffinity>
-3.97553682

>  <minimizedRMSD>
7.6670475

$$$$
