
 OpenBabel03272505523D

 42 45  0  0  1  0  0  0  0  0999 V2000
   37.1660   29.3280   50.3820 C   0  0  0  0  0  0  0  0  0  0  0  0
   37.3520   30.7090   50.6070 C   0  0  0  0  0  0  0  0  0  0  0  0
   36.6240   31.5840   49.8030 C   0  0  0  0  0  0  0  0  0  0  0  0
   35.7900   31.0610   48.8640 N   0  0  0  0  0  0  0  0  0  0  0  0
   35.6430   29.7520   48.6840 C   0  0  0  0  0  0  0  0  0  0  0  0
   36.3320   28.8860   49.4440 N   0  0  0  0  0  0  0  0  0  0  0  0
   34.7650   29.2660   47.6940 N   0  0  0  0  0  0  0  0  0  0  0  0
   34.1030   27.9540   47.7880 C   0  0  0  0  0  0  0  0  0  0  0  0
   32.6310   28.1280   47.6400 C   0  0  0  0  0  0  0  0  0  0  0  0
   32.1950   29.3580   47.1810 N   0  0  0  0  0  0  0  0  0  0  0  0
   33.0230   30.1160   46.2760 C   0  0  0  0  0  0  0  0  0  0  0  0
   34.4630   30.0520   46.5040 C   0  0  2  0  0  0  0  0  0  0  0  0
   37.7230   28.6410   50.9980 H   0  0  0  0  0  0  0  0  0  0  0  0
   38.0190   31.1060   51.3550 H   0  0  0  0  0  0  0  0  0  0  0  0
   36.7080   32.6760   49.9090 H   0  0  0  0  0  0  0  0  0  0  0  0
   34.3860   27.4450   48.7340 H   0  0  0  0  0  0  0  0  0  0  0  0
   34.5500   27.3150   46.9850 H   0  0  0  0  0  0  0  0  0  0  0  0
   32.1490   27.8770   48.5990 H   0  0  0  0  0  0  0  0  0  0  0  0
   32.2890   27.3170   46.9350 H   0  0  0  0  0  0  0  0  0  0  0  0
   31.8430   29.9550   47.9700 H   0  0  0  0  0  0  0  0  0  0  0  0
   32.5930   29.7270   45.3370 H   0  0  0  0  0  0  0  0  0  0  0  0
   32.6770   31.1710   46.3440 H   0  0  0  0  0  0  0  0  0  0  0  0
   34.9100   31.0680   46.6390 H   0  0  0  0  0  0  0  0  0  0  0  0
   35.1620   29.4540   45.4030 N   0  0  2  0  0  0  0  0  0  0  0  0
   36.4660   30.0490   45.1610 C   0  0  0  0  0  0  0  0  0  0  0  0
   36.7380   29.8990   43.6730 C   0  0  0  0  0  0  0  0  0  0  0  0
   35.5730   29.1270   43.1700 C   0  0  0  0  0  0  0  0  0  0  0  0
   34.4970   29.5520   44.1650 C   0  0  2  0  0  0  0  0  0  0  0  0
   37.1890   29.3620   45.6890 H   0  0  0  0  0  0  0  0  0  0  0  0
   36.6100   31.0420   45.5620 H   0  0  0  0  0  0  0  0  0  0  0  0
   36.9680   30.8370   43.1740 H   0  0  0  0  0  0  0  0  0  0  0  0
   37.6760   29.2700   43.5200 H   0  0  0  0  0  0  0  0  0  0  0  0
   35.7500   28.0350   43.2130 H   0  0  0  0  0  0  0  0  0  0  0  0
   35.3310   29.4180   42.1250 H   0  0  0  0  0  0  0  0  0  0  0  0
   33.6760   28.8670   43.9670 H   0  0  0  0  0  0  0  0  0  0  0  0
   34.2730   30.9370   43.6470 C   0  0  0  0  0  0  0  0  0  0  0  0
   33.0680   31.6080   43.5590 C   0  0  0  0  0  0  0  0  0  0  0  0
   32.8970   32.8910   43.0970 C   0  0  0  0  0  0  0  0  0  0  0  0
   31.9000   33.3110   43.0760 H   0  0  0  0  0  0  0  0  0  0  0  0
   34.0150   33.5310   42.7000 N   0  0  0  0  0  0  0  0  0  0  0  0
   35.2180   32.9330   42.7590 C   0  0  0  0  0  0  0  0  0  0  0  0
   35.2980   31.6890   43.2190 N   0  0  0  0  0  0  0  0  0  0  0  0
  1  2  1  0  0  0  0
  1 13  1  0  0  0  0
  2 14  1  0  0  0  0
  3 15  1  0  0  0  0
  3  2  2  0  0  0  0
  4  3  1  0  0  0  0
  5  4  2  0  0  0  0
  5  6  1  0  0  0  0
  6  1  2  0  0  0  0
  7  8  1  0  0  0  0
  7  5  1  0  0  0  0
  8 16  1  0  0  0  0
  9  8  1  0  0  0  0
  9 18  1  0  0  0  0
 10  9  1  0  0  0  0
 10 20  1  0  0  0  0
 11 22  1  0  0  0  0
 11 12  1  0  0  0  0
 11 10  1  0  0  0  0
 12 23  1  1  0  0  0
 12  7  1  0  0  0  0
 17  8  1  0  0  0  0
 19  9  1  0  0  0  0
 21 11  1  0  0  0  0
 24 25  1  6  0  0  0
 24 12  1  0  0  0  0
 25 30  1  0  0  0  0
 25 29  1  0  0  0  0
 26 25  1  0  0  0  0
 27 33  1  0  0  0  0
 27 26  1  0  0  0  0
 27 28  1  0  0  0  0
 28 35  1  6  0  0  0
 28 24  1  0  0  0  0
 31 26  1  0  0  0  0
 32 26  1  0  0  0  0
 34 27  1  0  0  0  0
 36 28  1  0  0  0  0
 37 36  1  0  0  0  0
 38 37  2  0  0  0  0
 39 38  1  0  0  0  0
 40 41  2  0  0  0  0
 40 38  1  0  0  0  0
 41 42  1  0  0  0  0
 42 36  2  0  0  0  0
M  END
>  <minimizedAffinity>
-4.99757242

>  <minimizedRMSD>
0.311516345

$$$$
