
 OpenBabel03262523143D

 27 29  0  0  0  0  0  0  0  0999 V2000
   37.1470   25.3230   32.4550 C   0  0  0  0  0  0  0  0  0  0  0  0
   36.3320   26.2160   31.8320 C   0  0  0  0  0  0  0  0  0  0  0  0
   35.3290   25.6820   31.0690 C   0  0  0  0  0  0  0  0  0  0  0  0
   35.1460   24.3330   30.9340 C   0  0  0  0  0  0  0  0  0  0  0  0
   36.0100   23.4870   31.5950 C   0  0  0  0  0  0  0  0  0  0  0  0
   37.0110   23.9840   32.3550 N   0  0  0  0  0  0  0  0  0  0  0  0
   36.4480   27.2800   31.9170 H   0  0  0  0  0  0  0  0  0  0  0  0
   34.6520   26.3770   30.5520 H   0  0  0  0  0  0  0  0  0  0  0  0
   34.3500   23.9320   30.3280 H   0  0  0  0  0  0  0  0  0  0  0  0
   38.9960   26.9500   35.1750 C   0  0  0  0  0  0  0  0  0  0  0  0
   40.3330   26.7110   34.8410 C   0  0  0  0  0  0  0  0  0  0  0  0
   40.5760   25.9890   33.6780 C   0  0  0  0  0  0  0  0  0  0  0  0
   39.5260   25.5630   32.9430 N   0  0  0  0  0  0  0  0  0  0  0  0
   38.2450   25.8090   33.2890 C   0  0  0  0  0  0  0  0  0  0  0  0
   38.0070   26.5070   34.4110 N   0  0  0  0  0  0  0  0  0  0  0  0
   41.1150   27.0950   35.4950 H   0  0  0  0  0  0  0  0  0  0  0  0
   41.5960   25.7930   33.4020 H   0  0  0  0  0  0  0  0  0  0  0  0
   38.6360   27.6870   36.3550 N   0  0  0  0  0  0  0  0  0  0  0  0
   39.2570   27.6900   37.1920 H   0  0  0  0  0  0  0  0  0  0  0  0
   37.7630   28.2240   36.4000 H   0  0  0  0  0  0  0  0  0  0  0  0
   35.9170   22.0330   31.5260 C   0  0  0  0  0  0  0  0  0  0  0  0
   34.9870   21.2880   32.2220 C   0  0  0  0  0  3  0  0  0  0  0  0
   34.8730   19.9180   32.1790 C   0  0  0  0  0  0  0  0  0  0  0  0
   34.1270   19.3770   32.7420 H   0  0  0  0  0  0  0  0  0  0  0  0
   35.7610   19.2690   31.3770 N   0  0  0  0  0  0  0  0  0  0  0  0
   36.6880   19.9520   30.6780 C   0  0  0  0  0  3  0  0  0  0  0  0
   36.7410   21.2710   30.7670 N   0  0  0  0  0  0  0  0  0  0  0  0
  1 14  1  0  0  0  0
  2  7  1  0  0  0  0
  2  1  2  0  0  0  0
  3  2  1  0  0  0  0
  4  3  2  0  0  0  0
  4  5  1  0  0  0  0
  5  6  2  0  0  0  0
  6  1  1  0  0  0  0
  8  3  1  0  0  0  0
  9  4  1  0  0  0  0
 10 18  1  0  0  0  0
 11 10  1  0  0  0  0
 11 16  1  0  0  0  0
 12 11  2  0  0  0  0
 13 14  2  0  0  0  0
 13 12  1  0  0  0  0
 14 15  1  0  0  0  0
 15 10  2  0  0  0  0
 17 12  1  0  0  0  0
 18 20  1  0  0  0  0
 18 19  1  0  0  0  0
 21  5  1  0  0  0  0
 21 22  1  0  0  0  0
 23 22  2  0  0  0  0
 23 24  1  0  0  0  0
 25 23  1  0  0  0  0
 26 27  1  0  0  0  0
 26 25  2  0  0  0  0
 27 21  2  0  0  0  0
M  END
>  <minimizedAffinity>
-5.56076384

$$$$

 OpenBabel03262523143D

 27 29  0  0  0  0  0  0  0  0999 V2000
   38.4740   24.7280   34.7440 C   0  0  0  0  0  0  0  0  0  0  0  0
   38.9910   24.0160   33.7060 C   0  0  0  0  0  0  0  0  0  0  0  0
   38.8090   24.5540   32.4610 C   0  0  0  0  0  0  0  0  0  0  0  0
   38.1500   25.7360   32.2580 C   0  0  0  0  0  0  0  0  0  0  0  0
   37.6530   26.4040   33.3570 C   0  0  0  0  0  0  0  0  0  0  0  0
   37.8160   25.8970   34.5990 N   0  0  0  0  0  0  0  0  0  0  0  0
   39.5120   23.0870   33.8310 H   0  0  0  0  0  0  0  0  0  0  0  0
   39.2150   24.0030   31.6010 H   0  0  0  0  0  0  0  0  0  0  0  0
   38.0170   26.1430   31.2700 H   0  0  0  0  0  0  0  0  0  0  0  0
   39.6520   22.7970   37.6330 C   0  0  0  0  0  0  0  0  0  0  0  0
   38.8800   23.2970   38.6880 C   0  0  0  0  0  0  0  0  0  0  0  0
   37.9630   24.2960   38.3840 C   0  0  0  0  0  0  0  0  0  0  0  0
   37.8650   24.7250   37.1070 N   0  0  0  0  0  0  0  0  0  0  0  0
   38.6220   24.2250   36.1090 C   0  0  0  0  0  0  0  0  0  0  0  0
   39.5090   23.2600   36.4000 N   0  0  0  0  0  0  0  0  0  0  0  0
   39.0280   22.8880   39.6870 H   0  0  0  0  0  0  0  0  0  0  0  0
   37.3600   24.6950   39.1790 H   0  0  0  0  0  0  0  0  0  0  0  0
   40.6280   21.7640   37.8400 N   0  0  0  0  0  0  0  0  0  0  0  0
   41.1050   21.6570   38.7600 H   0  0  0  0  0  0  0  0  0  0  0  0
   40.8780   21.1110   37.0890 H   0  0  0  0  0  0  0  0  0  0  0  0
   36.9330   27.6690   33.2680 C   0  0  0  0  0  0  0  0  0  0  0  0
   36.3380   28.2940   34.3440 C   0  0  0  0  0  3  0  0  0  0  0  0
   35.6540   29.4860   34.2920 C   0  0  0  0  0  0  0  0  0  0  0  0
   35.2040   29.9380   35.1630 H   0  0  0  0  0  0  0  0  0  0  0  0
   35.5710   30.0750   33.0680 N   0  0  0  0  0  0  0  0  0  0  0  0
   36.1350   29.5030   31.9860 C   0  0  0  0  0  3  0  0  0  0  0  0
   36.7800   28.3550   32.1090 N   0  0  0  0  0  0  0  0  0  0  0  0
  1 14  1  0  0  0  0
  2  7  1  0  0  0  0
  2  1  2  0  0  0  0
  3  2  1  0  0  0  0
  4  3  2  0  0  0  0
  4  5  1  0  0  0  0
  5  6  2  0  0  0  0
  6  1  1  0  0  0  0
  8  3  1  0  0  0  0
  9  4  1  0  0  0  0
 10 18  1  0  0  0  0
 10 11  1  0  0  0  0
 11 16  1  0  0  0  0
 12 11  2  0  0  0  0
 12 17  1  0  0  0  0
 13 12  1  0  0  0  0
 14 15  1  0  0  0  0
 14 13  2  0  0  0  0
 15 10  2  0  0  0  0
 18 19  1  0  0  0  0
 20 18  1  0  0  0  0
 21  5  1  0  0  0  0
 21 22  1  0  0  0  0
 23 22  2  0  0  0  0
 23 24  1  0  0  0  0
 25 23  1  0  0  0  0
 26 27  1  0  0  0  0
 26 25  2  0  0  0  0
 27 21  2  0  0  0  0
M  END
>  <minimizedAffinity>
-5.5443964

$$$$

 OpenBabel03262523143D

 27 29  0  0  0  0  0  0  0  0999 V2000
   39.8520   25.0870   34.7840 C   0  0  0  0  0  0  0  0  0  0  0  0
   40.6600   26.1770   34.6880 C   0  0  0  0  0  0  0  0  0  0  0  0
   40.2950   27.1140   33.7600 C   0  0  0  0  0  0  0  0  0  0  0  0
   39.1860   26.9750   32.9700 C   0  0  0  0  0  0  0  0  0  0  0  0
   38.4130   25.8430   33.1220 C   0  0  0  0  0  0  0  0  0  0  0  0
   38.7490   24.9000   34.0300 N   0  0  0  0  0  0  0  0  0  0  0  0
   41.5350   26.3180   35.2920 H   0  0  0  0  0  0  0  0  0  0  0  0
   40.9260   28.0080   33.6580 H   0  0  0  0  0  0  0  0  0  0  0  0
   38.9150   27.7230   32.2440 H   0  0  0  0  0  0  0  0  0  0  0  0
   39.6440   22.8410   37.6780 C   0  0  0  0  0  0  0  0  0  0  0  0
   40.7940   22.0540   37.5560 C   0  0  0  0  0  0  0  0  0  0  0  0
   41.6250   22.3110   36.4720 C   0  0  0  0  0  0  0  0  0  0  0  0
   41.2860   23.2920   35.6080 N   0  0  0  0  0  0  0  0  0  0  0  0
   40.1690   24.0370   35.7510 C   0  0  0  0  0  0  0  0  0  0  0  0
   39.3650   23.7900   36.7970 N   0  0  0  0  0  0  0  0  0  0  0  0
   40.9870   21.2840   38.3030 H   0  0  0  0  0  0  0  0  0  0  0  0
   42.5150   21.7180   36.3570 H   0  0  0  0  0  0  0  0  0  0  0  0
   38.7190   22.6560   38.7620 N   0  0  0  0  0  0  0  0  0  0  0  0
   38.6080   21.7250   39.2160 H   0  0  0  0  0  0  0  0  0  0  0  0
   38.1490   23.4340   39.1120 H   0  0  0  0  0  0  0  0  0  0  0  0
   37.2120   25.5830   32.3380 C   0  0  0  0  0  0  0  0  0  0  0  0
   36.7460   24.3190   32.0400 C   0  0  0  0  0  3  0  0  0  0  0  0
   35.6180   24.0400   31.3040 C   0  0  0  0  0  0  0  0  0  0  0  0
   35.2920   23.0320   31.0960 H   0  0  0  0  0  0  0  0  0  0  0  0
   34.9220   25.1170   30.8450 N   0  0  0  0  0  0  0  0  0  0  0  0
   35.3370   26.3710   31.1100 C   0  0  0  0  0  3  0  0  0  0  0  0
   36.4330   26.5660   31.8250 N   0  0  0  0  0  0  0  0  0  0  0  0
  1 14  1  0  0  0  0
  2  1  1  0  0  0  0
  2  7  1  0  0  0  0
  3  2  2  0  0  0  0
  4  5  2  0  0  0  0
  4  3  1  0  0  0  0
  5  6  1  0  0  0  0
  6  1  2  0  0  0  0
  8  3  1  0  0  0  0
  9  4  1  0  0  0  0
 10 18  1  0  0  0  0
 11 10  1  0  0  0  0
 11 16  1  0  0  0  0
 12 11  2  0  0  0  0
 13 14  2  0  0  0  0
 13 12  1  0  0  0  0
 14 15  1  0  0  0  0
 15 10  2  0  0  0  0
 17 12  1  0  0  0  0
 18 20  1  0  0  0  0
 18 19  1  0  0  0  0
 21  5  1  0  0  0  0
 22 21  1  0  0  0  0
 23 22  2  0  0  0  0
 24 23  1  0  0  0  0
 25 26  2  0  0  0  0
 25 23  1  0  0  0  0
 26 27  1  0  0  0  0
 27 21  2  0  0  0  0
M  END
>  <minimizedAffinity>
-5.53910351

$$$$

 OpenBabel03262523143D

 27 29  0  0  0  0  0  0  0  0999 V2000
   39.9750   23.1660   36.9920 C   0  0  0  0  0  0  0  0  0  0  0  0
   39.3770   23.0360   38.2070 C   0  0  0  0  0  0  0  0  0  0  0  0
   38.2120   23.7320   38.3800 C   0  0  0  0  0  0  0  0  0  0  0  0
   37.6700   24.5150   37.3970 C   0  0  0  0  0  0  0  0  0  0  0  0
   38.3310   24.6000   36.1900 C   0  0  0  0  0  0  0  0  0  0  0  0
   39.4840   23.9240   35.9900 N   0  0  0  0  0  0  0  0  0  0  0  0
   39.7750   22.4300   38.9980 H   0  0  0  0  0  0  0  0  0  0  0  0
   37.7030   23.6480   39.3500 H   0  0  0  0  0  0  0  0  0  0  0  0
   36.7520   25.0570   37.5520 H   0  0  0  0  0  0  0  0  0  0  0  0
   42.6180   20.6220   37.0660 C   0  0  0  0  0  0  0  0  0  0  0  0
   43.5860   21.1400   36.1990 C   0  0  0  0  0  0  0  0  0  0  0  0
   43.3100   22.3640   35.6010 C   0  0  0  0  0  0  0  0  0  0  0  0
   42.1410   22.9790   35.8820 N   0  0  0  0  0  0  0  0  0  0  0  0
   41.2250   22.4550   36.7240 C   0  0  0  0  0  0  0  0  0  0  0  0
   41.4900   21.2740   37.3040 N   0  0  0  0  0  0  0  0  0  0  0  0
   44.5010   20.5730   36.0330 H   0  0  0  0  0  0  0  0  0  0  0  0
   44.0390   22.7820   34.9310 H   0  0  0  0  0  0  0  0  0  0  0  0
   42.8060   19.3650   37.7360 N   0  0  0  0  0  0  0  0  0  0  0  0
   43.3950   18.6170   37.3120 H   0  0  0  0  0  0  0  0  0  0  0  0
   42.3660   19.1760   38.6430 H   0  0  0  0  0  0  0  0  0  0  0  0
   37.8530   25.4020   35.0700 C   0  0  0  0  0  0  0  0  0  0  0  0
   37.4160   26.7050   35.1870 C   0  0  0  0  0  3  0  0  0  0  0  0
   36.9600   27.4870   34.1510 C   0  0  0  0  0  0  0  0  0  0  0  0
   36.6280   28.5040   34.2920 H   0  0  0  0  0  0  0  0  0  0  0  0
   36.9490   26.9040   32.9210 N   0  0  0  0  0  0  0  0  0  0  0  0
   37.3670   25.6330   32.7560 C   0  0  0  0  0  3  0  0  0  0  0  0
   37.7930   24.9380   33.7980 N   0  0  0  0  0  0  0  0  0  0  0  0
  1  2  1  0  0  0  0
  2  3  2  0  0  0  0
  2  7  1  0  0  0  0
  3  8  1  0  0  0  0
  4  9  1  0  0  0  0
  4  3  1  0  0  0  0
  5  4  2  0  0  0  0
  6  5  1  0  0  0  0
  6  1  2  0  0  0  0
 10 15  1  0  0  0  0
 10 18  1  0  0  0  0
 11 10  2  0  0  0  0
 12 13  2  0  0  0  0
 12 11  1  0  0  0  0
 13 14  1  0  0  0  0
 14  1  1  0  0  0  0
 14 15  2  0  0  0  0
 16 11  1  0  0  0  0
 17 12  1  0  0  0  0
 18 20  1  0  0  0  0
 19 18  1  0  0  0  0
 21 22  1  0  0  0  0
 21  5  1  0  0  0  0
 23 24  1  0  0  0  0
 23 22  2  0  0  0  0
 25 23  1  0  0  0  0
 26 25  2  0  0  0  0
 26 27  1  0  0  0  0
 27 21  2  0  0  0  0
M  END
>  <minimizedAffinity>
-5.46441078

$$$$

 OpenBabel03262523143D

 27 29  0  0  0  0  0  0  0  0999 V2000
   38.0940   23.7580   34.4250 C   0  0  0  0  0  0  0  0  0  0  0  0
   38.0660   22.6630   33.6180 C   0  0  0  0  0  0  0  0  0  0  0  0
   37.7660   22.8940   32.3030 C   0  0  0  0  0  0  0  0  0  0  0  0
   37.5090   24.1470   31.8160 C   0  0  0  0  0  0  0  0  0  0  0  0
   37.5560   25.2110   32.6920 C   0  0  0  0  0  0  0  0  0  0  0  0
   37.8480   25.0130   33.9960 N   0  0  0  0  0  0  0  0  0  0  0  0
   38.2620   21.6670   33.9670 H   0  0  0  0  0  0  0  0  0  0  0  0
   37.7360   22.0300   31.6240 H   0  0  0  0  0  0  0  0  0  0  0  0
   37.2750   24.3090   30.7770 H   0  0  0  0  0  0  0  0  0  0  0  0
   39.6710   22.6220   37.5370 C   0  0  0  0  0  0  0  0  0  0  0  0
   38.9680   23.3210   38.5250 C   0  0  0  0  0  0  0  0  0  0  0  0
   37.9590   24.1760   38.0990 C   0  0  0  0  0  0  0  0  0  0  0  0
   37.7110   24.2860   36.7760 N   0  0  0  0  0  0  0  0  0  0  0  0
   38.4050   23.5990   35.8450 C   0  0  0  0  0  0  0  0  0  0  0  0
   39.3800   22.7720   36.2530 N   0  0  0  0  0  0  0  0  0  0  0  0
   39.2380   23.1680   39.5700 H   0  0  0  0  0  0  0  0  0  0  0  0
   37.4060   24.7240   38.8410 H   0  0  0  0  0  0  0  0  0  0  0  0
   40.7320   21.7130   37.8710 N   0  0  0  0  0  0  0  0  0  0  0  0
   41.2990   21.8490   38.7340 H   0  0  0  0  0  0  0  0  0  0  0  0
   40.9550   20.9140   37.2680 H   0  0  0  0  0  0  0  0  0  0  0  0
   37.2990   26.5890   32.2920 C   0  0  0  0  0  0  0  0  0  0  0  0
   37.7730   27.1530   31.1250 C   0  0  0  0  0  3  0  0  0  0  0  0
   37.5490   28.4480   30.7200 C   0  0  0  0  0  0  0  0  0  0  0  0
   37.9410   28.8460   29.7960 H   0  0  0  0  0  0  0  0  0  0  0  0
   36.7970   29.2150   31.5560 N   0  0  0  0  0  0  0  0  0  0  0  0
   36.3120   28.7100   32.7070 C   0  0  0  0  0  3  0  0  0  0  0  0
   36.5660   27.4540   33.0350 N   0  0  0  0  0  0  0  0  0  0  0  0
  1 14  1  0  0  0  0
  2  7  1  0  0  0  0
  2  1  2  0  0  0  0
  3  2  1  0  0  0  0
  4  3  2  0  0  0  0
  4  5  1  0  0  0  0
  5  6  2  0  0  0  0
  6  1  1  0  0  0  0
  8  3  1  0  0  0  0
  9  4  1  0  0  0  0
 10 18  1  0  0  0  0
 10 11  1  0  0  0  0
 11 16  1  0  0  0  0
 12 11  2  0  0  0  0
 12 17  1  0  0  0  0
 13 12  1  0  0  0  0
 14 15  1  0  0  0  0
 14 13  2  0  0  0  0
 15 10  2  0  0  0  0
 18 19  1  0  0  0  0
 20 18  1  0  0  0  0
 21  5  1  0  0  0  0
 21 27  1  0  0  0  0
 22 21  2  0  0  0  0
 23 22  1  0  0  0  0
 23 25  2  0  0  0  0
 24 23  1  0  0  0  0
 25 26  1  0  0  0  0
 26 27  2  0  0  0  0
M  END
>  <minimizedAffinity>
-5.28851461

$$$$

 OpenBabel03262523143D

 27 29  0  0  0  0  0  0  0  0999 V2000
   38.0580   23.8440   34.4530 C   0  0  0  0  0  0  0  0  0  0  0  0
   38.1460   25.0800   33.8910 C   0  0  0  0  0  0  0  0  0  0  0  0
   37.8300   25.1590   32.5620 C   0  0  0  0  0  0  0  0  0  0  0  0
   37.4460   24.0670   31.8310 C   0  0  0  0  0  0  0  0  0  0  0  0
   37.3790   22.8450   32.4670 C   0  0  0  0  0  0  0  0  0  0  0  0
   37.6860   22.7370   33.7780 N   0  0  0  0  0  0  0  0  0  0  0  0
   38.4430   25.9560   34.4350 H   0  0  0  0  0  0  0  0  0  0  0  0
   37.8900   26.1430   32.0770 H   0  0  0  0  0  0  0  0  0  0  0  0
   37.2020   24.1490   30.7850 H   0  0  0  0  0  0  0  0  0  0  0  0
   39.6410   22.6620   37.5450 C   0  0  0  0  0  0  0  0  0  0  0  0
   38.9610   23.3680   38.5430 C   0  0  0  0  0  0  0  0  0  0  0  0
   37.9640   24.2450   38.1310 C   0  0  0  0  0  0  0  0  0  0  0  0
   37.7070   24.3670   36.8100 N   0  0  0  0  0  0  0  0  0  0  0  0
   38.3790   23.6720   35.8690 C   0  0  0  0  0  0  0  0  0  0  0  0
   39.3420   22.8240   36.2640 N   0  0  0  0  0  0  0  0  0  0  0  0
   39.2370   23.2040   39.5840 H   0  0  0  0  0  0  0  0  0  0  0  0
   37.4290   24.7990   38.8810 H   0  0  0  0  0  0  0  0  0  0  0  0
   40.6870   21.7300   37.8640 N   0  0  0  0  0  0  0  0  0  0  0  0
   41.2650   21.8500   38.7230 H   0  0  0  0  0  0  0  0  0  0  0  0
   40.8900   20.9300   37.2550 H   0  0  0  0  0  0  0  0  0  0  0  0
   36.9850   21.6130   31.7940 C   0  0  0  0  0  0  0  0  0  0  0  0
   37.6630   21.0710   30.7220 C   0  0  0  0  0  3  0  0  0  0  0  0
   37.3170   19.9120   30.0670 C   0  0  0  0  0  0  0  0  0  0  0  0
   37.8800   19.5260   29.2300 H   0  0  0  0  0  0  0  0  0  0  0  0
   36.2130   19.2670   30.5340 N   0  0  0  0  0  0  0  0  0  0  0  0
   35.5180   19.7570   31.5790 C   0  0  0  0  0  3  0  0  0  0  0  0
   35.9080   20.8780   32.1630 N   0  0  0  0  0  0  0  0  0  0  0  0
  1 14  1  0  0  0  0
  2  7  1  0  0  0  0
  2  1  1  0  0  0  0
  3  2  2  0  0  0  0
  4  5  2  0  0  0  0
  4  3  1  0  0  0  0
  5  6  1  0  0  0  0
  6  1  2  0  0  0  0
  8  3  1  0  0  0  0
  9  4  1  0  0  0  0
 10 18  1  0  0  0  0
 10 11  1  0  0  0  0
 11 16  1  0  0  0  0
 12 11  2  0  0  0  0
 12 17  1  0  0  0  0
 13 12  1  0  0  0  0
 14 15  1  0  0  0  0
 14 13  2  0  0  0  0
 15 10  2  0  0  0  0
 18 19  1  0  0  0  0
 20 18  1  0  0  0  0
 21 27  1  0  0  0  0
 21  5  1  0  0  0  0
 22 21  2  0  0  0  0
 23 25  2  0  0  0  0
 23 22  1  0  0  0  0
 24 23  1  0  0  0  0
 25 26  1  0  0  0  0
 26 27  2  0  0  0  0
M  END
>  <minimizedAffinity>
-5.26807404

$$$$

 OpenBabel03262523143D

 27 29  0  0  0  0  0  0  0  0999 V2000
   37.5820   25.0120   32.7070 C   0  0  0  0  0  0  0  0  0  0  0  0
   37.7020   23.9940   31.8120 C   0  0  0  0  0  0  0  0  0  0  0  0
   38.1000   22.7890   32.3240 C   0  0  0  0  0  0  0  0  0  0  0  0
   38.3640   22.6060   33.6540 C   0  0  0  0  0  0  0  0  0  0  0  0
   38.2210   23.6820   34.5040 C   0  0  0  0  0  0  0  0  0  0  0  0
   37.8300   24.8850   34.0270 N   0  0  0  0  0  0  0  0  0  0  0  0
   37.5020   24.1040   30.7640 H   0  0  0  0  0  0  0  0  0  0  0  0
   38.2060   21.9460   31.6270 H   0  0  0  0  0  0  0  0  0  0  0  0
   38.6770   21.6490   34.0380 H   0  0  0  0  0  0  0  0  0  0  0  0
   36.7950   27.8420   30.5090 C   0  0  0  0  0  0  0  0  0  0  0  0
   36.3650   28.8310   31.4010 C   0  0  0  0  0  0  0  0  0  0  0  0
   36.3530   28.5020   32.7520 C   0  0  0  0  0  0  0  0  0  0  0  0
   36.7520   27.2680   33.1270 N   0  0  0  0  0  0  0  0  0  0  0  0
   37.1620   26.3340   32.2440 C   0  0  0  0  0  0  0  0  0  0  0  0
   37.1750   26.6480   30.9390 N   0  0  0  0  0  0  0  0  0  0  0  0
   36.0630   29.8000   31.0060 H   0  0  0  0  0  0  0  0  0  0  0  0
   36.0270   29.2470   33.4560 H   0  0  0  0  0  0  0  0  0  0  0  0
   36.8450   28.0790   29.0930 N   0  0  0  0  0  0  0  0  0  0  0  0
   36.1980   28.7600   28.6420 H   0  0  0  0  0  0  0  0  0  0  0  0
   37.5160   27.5840   28.4950 H   0  0  0  0  0  0  0  0  0  0  0  0
   38.4750   23.6100   35.9380 C   0  0  0  0  0  0  0  0  0  0  0  0
   37.7040   24.2450   36.8890 C   0  0  0  0  0  3  0  0  0  0  0  0
   37.9160   24.1970   38.2470 C   0  0  0  0  0  0  0  0  0  0  0  0
   37.2840   24.7120   38.9540 H   0  0  0  0  0  0  0  0  0  0  0  0
   38.9800   23.4550   38.6600 N   0  0  0  0  0  0  0  0  0  0  0  0
   39.7630   22.8160   37.7690 C   0  0  0  0  0  3  0  0  0  0  0  0
   39.5000   22.9060   36.4750 N   0  0  0  0  0  0  0  0  0  0  0  0
  1  6  1  0  0  0  0
  2  3  1  0  0  0  0
  2  1  2  0  0  0  0
  3  4  2  0  0  0  0
  4  9  1  0  0  0  0
  4  5  1  0  0  0  0
  5 21  1  0  0  0  0
  6  5  2  0  0  0  0
  7  2  1  0  0  0  0
  8  3  1  0  0  0  0
 10 15  2  0  0  0  0
 10 11  1  0  0  0  0
 11 12  2  0  0  0  0
 12 13  1  0  0  0  0
 12 17  1  0  0  0  0
 14  1  1  0  0  0  0
 14 13  2  0  0  0  0
 15 14  1  0  0  0  0
 16 11  1  0  0  0  0
 18 10  1  0  0  0  0
 19 18  1  0  0  0  0
 20 18  1  0  0  0  0
 21 27  2  0  0  0  0
 21 22  1  0  0  0  0
 22 23  2  0  0  0  0
 23 25  1  0  0  0  0
 23 24  1  0  0  0  0
 26 25  2  0  0  0  0
 27 26  1  0  0  0  0
M  END
>  <minimizedAffinity>
-5.241292

$$$$

 OpenBabel03262523143D

 27 29  0  0  0  0  0  0  0  0999 V2000
   38.3580   24.6300   36.1790 C   0  0  0  0  0  0  0  0  0  0  0  0
   37.8040   24.7220   37.4180 C   0  0  0  0  0  0  0  0  0  0  0  0
   38.3290   23.8940   38.3730 C   0  0  0  0  0  0  0  0  0  0  0  0
   39.3490   23.0210   38.1090 C   0  0  0  0  0  0  0  0  0  0  0  0
   39.8620   22.9820   36.8300 C   0  0  0  0  0  0  0  0  0  0  0  0
   39.3630   23.7870   35.8660 N   0  0  0  0  0  0  0  0  0  0  0  0
   37.0040   25.3960   37.6580 H   0  0  0  0  0  0  0  0  0  0  0  0
   37.9040   23.9440   39.3850 H   0  0  0  0  0  0  0  0  0  0  0  0
   39.7490   22.3760   38.8740 H   0  0  0  0  0  0  0  0  0  0  0  0
   37.3380   25.7940   32.8510 C   0  0  0  0  0  0  0  0  0  0  0  0
   36.9050   27.1030   33.0890 C   0  0  0  0  0  0  0  0  0  0  0  0
   36.9720   27.5640   34.3990 C   0  0  0  0  0  0  0  0  0  0  0  0
   37.4440   26.7390   35.3580 N   0  0  0  0  0  0  0  0  0  0  0  0
   37.8550   25.4800   35.1000 C   0  0  0  0  0  0  0  0  0  0  0  0
   37.7930   25.0320   33.8360 N   0  0  0  0  0  0  0  0  0  0  0  0
   36.5400   27.6970   32.2520 H   0  0  0  0  0  0  0  0  0  0  0  0
   36.6440   28.5670   34.6050 H   0  0  0  0  0  0  0  0  0  0  0  0
   37.3120   25.2220   31.5340 N   0  0  0  0  0  0  0  0  0  0  0  0
   36.6140   25.5390   30.8290 H   0  0  0  0  0  0  0  0  0  0  0  0
   37.9760   24.4900   31.2600 H   0  0  0  0  0  0  0  0  0  0  0  0
   40.9470   22.0940   36.4280 C   0  0  0  0  0  0  0  0  0  0  0  0
   41.6980   21.3480   37.3130 C   0  0  0  0  0  3  0  0  0  0  0  0
   42.7260   20.5030   36.9670 C   0  0  0  0  0  0  0  0  0  0  0  0
   43.2870   19.9380   37.6960 H   0  0  0  0  0  0  0  0  0  0  0  0
   43.0050   20.4130   35.6370 N   0  0  0  0  0  0  0  0  0  0  0  0
   42.2990   21.1230   34.7340 C   0  0  0  0  0  3  0  0  0  0  0  0
   41.3220   21.9170   35.1380 N   0  0  0  0  0  0  0  0  0  0  0  0
  1  2  1  0  0  0  0
  2  7  1  0  0  0  0
  2  3  2  0  0  0  0
  3  8  1  0  0  0  0
  4  3  1  0  0  0  0
  4  9  1  0  0  0  0
  5  4  2  0  0  0  0
  6  1  2  0  0  0  0
  6  5  1  0  0  0  0
 10 11  2  0  0  0  0
 10 15  1  0  0  0  0
 11 12  1  0  0  0  0
 12 17  1  0  0  0  0
 12 13  2  0  0  0  0
 14 13  1  0  0  0  0
 14  1  1  0  0  0  0
 15 14  2  0  0  0  0
 16 11  1  0  0  0  0
 18 10  1  0  0  0  0
 19 18  1  0  0  0  0
 20 18  1  0  0  0  0
 21  5  1  0  0  0  0
 21 22  1  0  0  0  0
 23 22  2  0  0  0  0
 23 24  1  0  0  0  0
 25 23  1  0  0  0  0
 26 27  1  0  0  0  0
 26 25  2  0  0  0  0
 27 21  2  0  0  0  0
M  END
>  <minimizedAffinity>
-5.11473799

$$$$

 OpenBabel03262523143D

 27 29  0  0  0  0  0  0  0  0999 V2000
   38.5450   25.7340   33.2500 C   0  0  0  0  0  0  0  0  0  0  0  0
   39.1740   26.9310   33.0930 C   0  0  0  0  0  0  0  0  0  0  0  0
   40.2820   27.1330   33.8710 C   0  0  0  0  0  0  0  0  0  0  0  0
   40.7390   26.1970   34.7580 C   0  0  0  0  0  0  0  0  0  0  0  0
   40.0510   25.0070   34.8640 C   0  0  0  0  0  0  0  0  0  0  0  0
   38.9540   24.7780   34.1090 N   0  0  0  0  0  0  0  0  0  0  0  0
   38.8420   27.6860   32.4070 H   0  0  0  0  0  0  0  0  0  0  0  0
   40.8130   28.0900   33.7670 H   0  0  0  0  0  0  0  0  0  0  0  0
   41.6130   26.3750   35.3620 H   0  0  0  0  0  0  0  0  0  0  0  0
   35.8730   23.8910   31.5390 C   0  0  0  0  0  0  0  0  0  0  0  0
   35.1050   24.9070   30.9590 C   0  0  0  0  0  0  0  0  0  0  0  0
   35.5230   26.2150   31.1700 C   0  0  0  0  0  0  0  0  0  0  0  0
   36.6310   26.4360   31.9100 N   0  0  0  0  0  0  0  0  0  0  0  0
   37.3540   25.4370   32.4570 C   0  0  0  0  0  0  0  0  0  0  0  0
   36.9520   24.1710   32.2560 N   0  0  0  0  0  0  0  0  0  0  0  0
   34.2260   24.6330   30.3770 H   0  0  0  0  0  0  0  0  0  0  0  0
   34.9480   27.0120   30.7330 H   0  0  0  0  0  0  0  0  0  0  0  0
   35.5280   22.5060   31.3830 N   0  0  0  0  0  0  0  0  0  0  0  0
   34.5380   22.2150   31.2390 H   0  0  0  0  0  0  0  0  0  0  0  0
   36.2460   21.7730   31.4100 H   0  0  0  0  0  0  0  0  0  0  0  0
   40.4410   23.9350   35.7730 C   0  0  0  0  0  0  0  0  0  0  0  0
   41.6890   23.3460   35.7790 C   0  0  0  0  0  3  0  0  0  0  0  0
   42.0870   22.3350   36.6220 C   0  0  0  0  0  0  0  0  0  0  0  0
   43.0770   21.9050   36.5890 H   0  0  0  0  0  0  0  0  0  0  0  0
   41.1560   21.8980   37.5140 N   0  0  0  0  0  0  0  0  0  0  0  0
   39.9230   22.4420   37.5470 C   0  0  0  0  0  3  0  0  0  0  0  0
   39.6080   23.4130   36.7060 N   0  0  0  0  0  0  0  0  0  0  0  0
  1  6  1  0  0  0  0
  2  1  2  0  0  0  0
  2  3  1  0  0  0  0
  3  4  2  0  0  0  0
  4  5  1  0  0  0  0
  4  9  1  0  0  0  0
  5 21  1  0  0  0  0
  6  5  2  0  0  0  0
  7  2  1  0  0  0  0
  8  3  1  0  0  0  0
 10 15  1  0  0  0  0
 11 12  1  0  0  0  0
 11 10  2  0  0  0  0
 12 13  2  0  0  0  0
 13 14  1  0  0  0  0
 14  1  1  0  0  0  0
 15 14  2  0  0  0  0
 16 11  1  0  0  0  0
 17 12  1  0  0  0  0
 18 20  1  0  0  0  0
 18 10  1  0  0  0  0
 19 18  1  0  0  0  0
 21 22  2  0  0  0  0
 21 27  1  0  0  0  0
 22 23  1  0  0  0  0
 23 25  2  0  0  0  0
 24 23  1  0  0  0  0
 25 26  1  0  0  0  0
 27 26  2  0  0  0  0
M  END
>  <minimizedAffinity>
-5.05387306

$$$$
