
 OpenBabel03272510273D

 43 47  0  0  1  0  0  0  0  0999 V2000
   36.2070   30.2020   46.5930 C   0  0  0  0  0  0  0  0  0  0  0  0
   37.0740   30.8210   47.4930 C   0  0  0  0  0  0  0  0  0  0  0  0
   38.0310   31.7310   47.0590 C   0  0  0  0  0  0  0  0  0  0  0  0
   38.0700   31.9850   45.6920 C   0  0  0  0  0  0  0  0  0  0  0  0
   38.9140   32.8270   45.0300 N   0  0  0  0  0  0  0  0  0  0  0  0
   38.5910   32.7490   43.7320 C   0  0  0  0  0  0  0  0  0  0  0  0
   37.5970   31.9040   43.5660 N   0  0  0  0  0  0  0  0  0  0  0  0
   37.2350   31.3990   44.7700 C   0  0  0  0  0  0  0  0  0  0  0  0
   36.2800   30.4850   45.2330 C   0  0  0  0  0  0  0  0  0  0  0  0
   35.4570   29.4940   46.9000 H   0  0  0  0  0  0  0  0  0  0  0  0
   38.6950   32.2030   47.7660 H   0  0  0  0  0  0  0  0  0  0  0  0
   39.6680   33.4170   45.4810 H   0  0  0  0  0  0  0  0  0  0  0  0
   35.6350   30.0380   44.4890 H   0  0  0  0  0  0  0  0  0  0  0  0
   37.6040   30.3960   51.1830 C   0  0  0  0  0  0  0  0  0  0  0  0
   37.8330   30.8020   49.8820 C   0  0  0  0  0  0  0  0  0  0  0  0
   36.9270   30.4520   48.8870 C   0  0  0  0  0  0  0  0  0  0  0  0
   35.8360   29.7110   49.2480 N   0  0  0  0  0  0  0  0  0  0  0  0
   35.6260   29.3200   50.5310 C   0  0  0  0  0  0  0  0  0  0  0  0
   36.4890   29.6540   51.4670 N   0  0  0  0  0  0  0  0  0  0  0  0
   38.2900   30.6570   51.9530 H   0  0  0  0  0  0  0  0  0  0  0  0
   38.6970   31.3900   49.5990 H   0  0  0  0  0  0  0  0  0  0  0  0
   34.7250   28.7230   50.7420 H   0  0  0  0  0  0  0  0  0  0  0  0
   39.2690   33.4960   42.7540 O   0  0  0  0  0  0  0  0  0  0  0  0
   38.8550   32.0320   41.0520 N   0  0  0  0  0  0  0  0  0  0  0  0
   38.7160   33.4460   41.4460 C   0  0  1  0  0  0  0  0  0  0  0  0
   37.3030   33.8050   41.4270 C   0  0  0  0  0  0  0  0  0  0  0  0
   36.8350   33.7220   40.1030 O   0  0  0  0  0  0  0  0  0  0  0  0
   37.0360   32.5160   39.4920 C   0  0  0  0  0  0  0  0  0  0  0  0
   38.4190   31.9740   39.6710 C   0  0  1  0  0  0  0  0  0  0  0  0
   39.8830   31.8430   41.0800 H   0  0  0  0  0  0  0  0  0  0  0  0
   39.2690   34.1020   40.7640 H   0  0  0  0  0  0  0  0  0  0  0  0
   36.5430   33.3330   41.9890 H   0  0  0  0  0  0  0  0  0  0  0  0
   37.2320   34.9120   41.6520 H   0  0  0  0  0  0  0  0  0  0  0  0
   36.3310   31.7900   39.9710 H   0  0  0  0  0  0  0  0  0  0  0  0
   36.8260   32.6470   38.4200 H   0  0  0  0  0  0  0  0  0  0  0  0
   38.3360   30.8680   39.4530 H   0  0  0  0  0  0  0  0  0  0  0  0
   39.4240   32.4850   38.7370 C   0  0  0  0  0  0  0  0  0  0  0  0
   39.4860   33.6430   38.0170 C   0  0  0  0  0  3  0  0  0  0  0  0
   40.5490   33.9200   37.1820 C   0  0  0  0  0  0  0  0  0  0  0  0
   40.4800   34.8750   36.6640 H   0  0  0  0  0  0  0  0  0  0  0  0
   41.5860   33.0460   37.0380 N   0  0  0  0  0  0  0  0  0  0  0  0
   41.4970   31.9130   37.7610 C   0  0  0  0  0  3  0  0  0  0  0  0
   40.4620   31.6060   38.5960 N   0  0  0  0  0  0  0  0  0  0  0  0
  1 10  1  0  0  0  0
  1  2  1  0  0  0  0
  2 16  1  0  0  0  0
  3  2  2  0  0  0  0
  3 11  1  0  0  0  0
  4  3  1  0  0  0  0
  5 12  1  0  0  0  0
  5  4  1  0  0  0  0
  6  5  1  0  0  0  0
  7  6  2  0  0  0  0
  7  8  1  0  0  0  0
  8  9  1  0  0  0  0
  8  4  2  0  0  0  0
  9  1  2  0  0  0  0
 13  9  1  0  0  0  0
 14 19  1  0  0  0  0
 14 20  1  0  0  0  0
 15 14  2  0  0  0  0
 16 17  2  0  0  0  0
 16 15  1  0  0  0  0
 17 18  1  0  0  0  0
 18 22  1  0  0  0  0
 18 19  2  0  0  0  0
 21 15  1  0  0  0  0
 23  6  1  0  0  0  0
 24 30  1  0  0  0  0
 24 25  1  0  0  0  0
 25 31  1  6  0  0  0
 25 23  1  0  0  0  0
 26 25  1  0  0  0  0
 26 33  1  0  0  0  0
 26 32  1  0  0  0  0
 27 26  1  0  0  0  0
 28 29  1  0  0  0  0
 28 34  1  0  0  0  0
 28 27  1  0  0  0  0
 29 36  1  6  0  0  0
 29 24  1  0  0  0  0
 35 28  1  0  0  0  0
 37 29  1  0  0  0  0
 38 37  2  0  0  0  0
 39 38  1  0  0  0  0
 40 39  1  0  0  0  0
 41 39  2  0  0  0  0
 41 42  1  0  0  0  0
 42 43  2  0  0  0  0
 43 37  1  0  0  0  0
M  END
>  <minimizedAffinity>
-5.56507874

>  <minimizedRMSD>
0.923268676

$$$$
