
 OpenBabel03272502263D

 38 41  0  0  0  0  0  0  0  0999 V2000
   37.6560   30.3300   51.0150 C   0  0  0  0  0  0  0  0  0  0  0  0
   38.1470   30.8610   49.8140 C   0  0  0  0  0  0  0  0  0  0  0  0
   37.4160   30.6290   48.6680 C   0  0  0  0  0  0  0  0  0  0  0  0
   36.2870   29.9140   48.7780 N   0  0  0  0  0  0  0  0  0  0  0  0
   35.8240   29.4100   49.9320 C   0  0  0  0  0  0  0  0  0  0  0  0
   36.5140   29.6210   51.0530 N   0  0  0  0  0  0  0  0  0  0  0  0
   38.2590   30.5370   51.8750 H   0  0  0  0  0  0  0  0  0  0  0  0
   39.0630   31.4350   49.7530 H   0  0  0  0  0  0  0  0  0  0  0  0
   37.8080   31.1280   47.3660 C   0  0  0  0  0  0  0  0  0  0  0  0
   37.1010   30.7780   46.2220 C   0  0  0  0  0  0  0  0  0  0  0  0
   37.4260   31.2260   44.9660 C   0  0  0  0  0  0  0  0  0  0  0  0
   38.4900   32.0520   44.8250 N   0  0  0  0  0  0  0  0  0  0  0  0
   39.1600   32.3810   45.9310 C   0  0  0  0  0  0  0  0  0  0  0  0
   38.8620   31.9560   47.1750 N   0  0  0  0  0  0  0  0  0  0  0  0
   36.2480   30.1180   46.3210 H   0  0  0  0  0  0  0  0  0  0  0  0
   36.8160   30.9010   44.1230 H   0  0  0  0  0  0  0  0  0  0  0  0
   40.3320   33.2870   45.8040 C   0  0  0  0  0  0  0  0  0  0  0  0
   40.4200   34.0250   47.0060 F   0  0  0  0  0  0  0  0  0  0  0  0
   41.4780   32.6000   45.5460 F   0  0  0  0  0  0  0  0  0  0  0  0
   40.1270   34.2460   44.8280 F   0  0  0  0  0  0  0  0  0  0  0  0
   34.6330   28.6910   49.8670 O   0  0  0  0  0  0  0  0  0  0  0  0
   33.6150   26.6580   46.9920 N   0  0  0  0  0  0  0  0  0  0  0  0
   34.1000   26.9130   48.2140 C   0  0  0  0  0  0  0  0  0  0  0  0
   34.1740   28.2100   48.6620 C   0  0  0  0  0  0  0  0  0  0  0  0
   33.7340   29.2360   47.8170 C   0  0  0  0  0  0  0  0  0  0  0  0
   33.7120   30.4870   48.0270 O   0  0  0  0  0  0  0  0  0  0  0  0
   33.2540   28.9120   46.5930 N   0  0  0  0  0  0  0  0  0  0  0  0
   33.1930   27.6380   46.1810 C   0  0  0  0  0  0  0  0  0  0  0  0
   32.7510   27.2980   45.0440 O   0  0  0  0  0  0  0  0  0  0  0  0
   33.5960   25.6480   46.7370 H   0  0  0  0  0  0  0  0  0  0  0  0
   34.4570   26.1800   48.9210 H   0  0  0  0  0  0  0  0  0  0  0  0
   32.7820   29.8610   45.6540 C   0  0  0  0  0  0  0  0  0  0  0  0
   31.4960   30.3360   45.6370 C   0  0  0  0  0  0  0  0  0  0  0  0
   30.9890   31.2580   44.7470 C   0  0  0  0  0  0  0  0  0  0  0  0
   29.9690   31.6080   44.7650 H   0  0  0  0  0  0  0  0  0  0  0  0
   31.8740   31.7120   43.8190 N   0  0  0  0  0  0  0  0  0  0  0  0
   33.1440   31.2670   43.8060 C   0  0  0  0  0  0  0  0  0  0  0  0
   33.6090   30.3630   44.6930 N   0  0  0  0  0  0  0  0  0  0  0  0
  1  6  1  0  0  0  0
  1  7  1  0  0  0  0
  2  1  2  0  0  0  0
  3  4  2  0  0  0  0
  3  2  1  0  0  0  0
  4  5  1  0  0  0  0
  5  6  2  0  0  0  0
  8  2  1  0  0  0  0
  9  3  1  0  0  0  0
 10 15  1  0  0  0  0
 10  9  2  0  0  0  0
 11 10  1  0  0  0  0
 12 11  2  0  0  0  0
 12 13  1  0  0  0  0
 13 14  2  0  0  0  0
 14  9  1  0  0  0  0
 16 11  1  0  0  0  0
 17 13  1  0  0  0  0
 17 18  1  0  0  0  0
 19 17  1  0  0  0  0
 20 17  1  0  0  0  0
 21  5  1  0  0  0  0
 22 23  1  0  0  0  0
 23 24  2  0  0  0  0
 23 31  1  0  0  0  0
 24 21  1  0  0  0  0
 25 26  2  0  0  0  0
 25 24  1  0  0  0  0
 27 25  1  0  0  0  0
 28 27  1  0  0  0  0
 28 22  1  0  0  0  0
 29 28  2  0  0  0  0
 30 22  1  0  0  0  0
 32 27  1  0  0  0  0
 33 32  1  0  0  0  0
 34 35  1  0  0  0  0
 34 33  2  0  0  0  0
 36 34  1  0  0  0  0
 37 36  2  0  0  0  0
 37 38  1  0  0  0  0
 38 32  2  0  0  0  0
M  END
>  <minimizedAffinity>
-6.73754072

>  <minimizedRMSD>
1.38896418

$$$$
