
 OpenBabel03262522023D

 37 40  0  0  1  0  0  0  0  0999 V2000
   34.4880   29.1380   48.8280 C   0  0  2  0  0  0  0  0  0  0  0  0
   35.1610   28.4100   49.9570 C   0  0  0  0  0  0  0  0  0  0  0  0
   36.3400   29.1570   50.3540 N   0  0  0  0  0  0  0  0  0  0  0  0
   37.3350   29.8630   51.1030 C   0  0  0  0  0  0  0  0  0  0  0  0
   37.6230   30.0440   52.3110 O   0  0  0  0  0  0  0  0  0  0  0  0
   38.0120   30.3850   49.9180 C   0  0  1  0  0  0  0  0  0  0  0  0
   37.1470   29.3990   49.1850 C   0  0  2  0  0  0  0  0  0  0  0  0
   35.8530   30.1360   48.1320 S   0  0  0  0  0  0  0  0  0  0  0  0
   34.4350   28.4430   50.8080 H   0  0  0  0  0  0  0  0  0  0  0  0
   35.3500   27.3510   49.7650 H   0  0  0  0  0  0  0  0  0  0  0  0
   39.0610   30.1190   49.7130 H   0  0  0  0  0  0  0  0  0  0  0  0
   37.6410   28.5210   48.7490 H   0  0  0  0  0  0  0  0  0  0  0  0
   33.3040   29.9650   49.2420 C   0  0  0  0  0  0  0  0  0  0  0  0
   33.4730   30.5140   50.1760 H   0  0  0  0  0  0  0  0  0  0  0  0
   33.1160   30.7010   48.4440 H   0  0  0  0  0  0  0  0  0  0  0  0
   32.4070   29.3160   49.3000 H   0  0  0  0  0  0  0  0  0  0  0  0
   34.1180   28.1460   47.7340 C   0  0  0  0  0  0  0  0  0  0  0  0
   33.3770   27.4280   48.1490 H   0  0  0  0  0  0  0  0  0  0  0  0
   35.0390   27.5280   47.5530 H   0  0  0  0  0  0  0  0  0  0  0  0
   33.6670   28.7810   46.4920 C   0  0  0  0  0  0  0  0  0  0  0  0
   34.4290   28.9230   45.3520 C   0  0  0  0  0  3  0  0  0  0  0  0
   33.9600   29.5330   44.1990 C   0  0  0  0  0  0  0  0  0  0  0  0
   34.5920   29.6260   43.3210 H   0  0  0  0  0  0  0  0  0  0  0  0
   32.6920   29.9890   44.2510 N   0  0  0  0  0  0  0  0  0  0  0  0
   31.9570   29.8460   45.3680 C   0  0  0  0  0  3  0  0  0  0  0  0
   32.4040   29.2550   46.4900 N   0  0  0  0  0  0  0  0  0  0  0  0
   37.7800   31.8200   49.6310 C   0  0  0  0  0  0  0  0  0  0  0  0
   36.7980   32.3200   50.2500 O   0  0  0  0  0  0  0  0  0  0  0  0
   38.6100   32.5730   48.7250 C   0  0  0  0  0  0  0  0  0  0  0  0
   39.1310   33.7710   49.1860 C   0  0  0  0  0  0  0  0  0  0  0  0
   39.9470   34.5190   48.3000 C   0  0  0  0  0  0  0  0  0  0  0  0
   40.1680   34.0060   47.0440 N   0  0  0  0  0  0  0  0  0  0  0  0
   39.6460   32.8550   46.6490 C   0  0  0  0  0  0  0  0  0  0  0  0
   38.8690   32.1350   47.4820 N   0  0  0  0  0  0  0  0  0  0  0  0
   38.9470   34.1540   50.1700 H   0  0  0  0  0  0  0  0  0  0  0  0
   40.3830   35.4620   48.6030 H   0  0  0  0  0  0  0  0  0  0  0  0
   39.8010   32.4240   45.6670 H   0  0  0  0  0  0  0  0  0  0  0  0
  1 17  1  6  0  0  0
  1 13  1  0  0  0  0
  1  2  1  0  0  0  0
  2  3  1  0  0  0  0
  2  9  1  0  0  0  0
  3  4  1  0  0  0  0
  4  5  2  0  0  0  0
  6 11  1  6  0  0  0
  6  4  1  0  0  0  0
  7 12  1  6  0  0  0
  7  6  1  0  0  0  0
  7  3  1  0  0  0  0
  8  1  1  0  0  0  0
  8  7  1  0  0  0  0
 10  2  1  0  0  0  0
 13 16  1  0  0  0  0
 13 14  1  0  0  0  0
 15 13  1  0  0  0  0
 17 18  1  0  0  0  0
 19 17  1  0  0  0  0
 20 17  1  0  0  0  0
 21 20  2  0  0  0  0
 22 24  2  0  0  0  0
 22 21  1  0  0  0  0
 23 22  1  0  0  0  0
 24 25  1  0  0  0  0
 25 26  2  0  0  0  0
 26 20  1  0  0  0  0
 27  6  1  0  0  0  0
 27 28  2  0  0  0  0
 29 30  1  0  0  0  0
 29 27  1  0  0  0  0
 30 35  1  0  0  0  0
 31 36  1  0  0  0  0
 31 30  2  0  0  0  0
 32 31  1  0  0  0  0
 33 32  2  0  0  0  0
 33 34  1  0  0  0  0
 34 29  2  0  0  0  0
 37 33  1  0  0  0  0
M  END
>  <minimizedAffinity>
-4.9369812

>  <minimizedRMSD>
0.483068049

$$$$
