
 OpenBabel03272507583D

 30 32  0  0  0  0  0  0  0  0999 V2000
   36.9590   31.1290   48.3550 C   0  0  0  0  0  0  0  0  0  0  0  0
   37.2720   32.0880   49.2990 C   0  0  0  0  0  0  0  0  0  0  0  0
   38.2370   33.0430   49.0170 C   0  0  0  0  0  0  0  0  0  0  0  0
   38.8840   33.0310   47.7870 C   0  0  0  0  0  0  0  0  0  0  0  0
   38.5430   32.0610   46.8760 C   0  0  0  0  0  0  0  0  0  0  0  0
   37.6040   31.1390   47.1640 N   0  0  0  0  0  0  0  0  0  0  0  0
   36.8640   32.2360   50.2940 H   0  0  0  0  0  0  0  0  0  0  0  0
   38.5490   33.8310   49.6880 H   0  0  0  0  0  0  0  0  0  0  0  0
   39.6420   33.7560   47.5210 H   0  0  0  0  0  0  0  0  0  0  0  0
   35.1010   28.5890   50.4050 C   0  0  0  0  0  0  0  0  0  0  0  0
   36.1330   29.4750   49.9850 C   0  0  0  0  0  0  0  0  0  0  0  0
   35.9290   30.2100   48.8220 C   0  0  0  0  0  0  0  0  0  0  0  0
   34.7500   30.0480   48.1420 N   0  0  0  0  0  0  0  0  0  0  0  0
   33.8000   29.1840   48.5950 C   0  0  0  0  0  0  0  0  0  0  0  0
   33.9580   28.4650   49.6990 N   0  0  0  0  0  0  0  0  0  0  0  0
   32.6690   29.1710   47.7230 N   0  0  0  0  0  0  0  0  0  0  0  0
   35.2360   28.0070   51.3030 H   0  0  0  0  0  0  0  0  0  0  0  0
   32.0670   30.0350   47.7480 H   0  0  0  0  0  0  0  0  0  0  0  0
   32.5220   28.3190   47.1320 H   0  0  0  0  0  0  0  0  0  0  0  0
   37.3700   29.5710   50.7980 C   0  0  0  0  0  0  0  0  0  0  0  0
   38.4900   29.7930   49.9970 F   0  0  0  0  0  0  0  0  0  0  0  0
   37.2390   30.6160   51.6570 F   0  0  0  0  0  0  0  0  0  0  0  0
   37.6210   28.4320   51.5420 F   0  0  0  0  0  0  0  0  0  0  0  0
   39.1940   32.0070   45.5720 C   0  0  0  0  0  0  0  0  0  0  0  0
   38.9310   32.9450   44.6010 C   0  0  0  0  0  3  0  0  0  0  0  0
   39.6110   32.7830   43.4120 C   0  0  0  0  0  0  0  0  0  0  0  0
   39.4250   33.5160   42.6120 H   0  0  0  0  0  0  0  0  0  0  0  0
   40.4770   31.7760   43.2020 N   0  0  0  0  0  0  0  0  0  0  0  0
   40.7190   30.8610   44.1800 C   0  0  0  0  0  3  0  0  0  0  0  0
   40.0680   31.0150   45.3230 N   0  0  0  0  0  0  0  0  0  0  0  0
  1 12  1  0  0  0  0
  1  2  1  0  0  0  0
  2  7  1  0  0  0  0
  3  2  2  0  0  0  0
  3  8  1  0  0  0  0
  4  3  1  0  0  0  0
  5  6  1  0  0  0  0
  5  4  2  0  0  0  0
  6  1  2  0  0  0  0
  9  4  1  0  0  0  0
 10 17  1  0  0  0  0
 11 10  1  0  0  0  0
 11 20  1  0  0  0  0
 12 11  2  0  0  0  0
 13 14  2  0  0  0  0
 13 12  1  0  0  0  0
 14 15  1  0  0  0  0
 15 10  2  0  0  0  0
 16 18  1  0  0  0  0
 16 14  1  0  0  0  0
 19 16  1  0  0  0  0
 20 23  1  0  0  0  0
 20 22  1  0  0  0  0
 21 20  1  0  0  0  0
 24  5  1  0  0  0  0
 25 24  2  0  0  0  0
 26 25  1  0  0  0  0
 27 26  1  0  0  0  0
 28 26  2  0  0  0  0
 28 29  1  0  0  0  0
 29 30  2  0  0  0  0
 30 24  1  0  0  0  0
M  END
>  <minimizedAffinity>
-6.90687132

>  <minimizedRMSD>
1.05577934

$$$$
