
 OpenBabel03272510043D

 35 37  0  0  0  0  0  0  0  0999 V2000
   36.7650   30.5050   45.7050 C   0  0  0  0  0  0  0  0  0  0  0  0
   38.0930   30.7980   45.6770 C   0  0  0  0  0  0  0  0  0  0  0  0
   38.7760   31.0170   46.8690 C   0  0  0  0  0  0  0  0  0  0  0  0
   38.1550   30.9510   48.1010 C   0  0  0  0  0  0  0  0  0  0  0  0
   36.8180   30.6620   48.1670 C   0  0  0  0  0  0  0  0  0  0  0  0
   36.1750   30.4500   46.9720 C   0  0  0  0  0  0  0  0  0  0  0  0
   39.8490   31.2500   46.8160 H   0  0  0  0  0  0  0  0  0  0  0  0
   38.7810   31.1360   48.9570 H   0  0  0  0  0  0  0  0  0  0  0  0
   36.3970   30.6260   49.1380 H   0  0  0  0  0  0  0  0  0  0  0  0
   35.1150   30.2320   47.1570 H   0  0  0  0  0  0  0  0  0  0  0  0
   39.5680   32.3210   42.6750 C   0  0  0  0  0  0  0  0  0  0  0  0
   38.8930   32.1550   43.8760 C   0  0  0  0  0  0  0  0  0  0  0  0
   38.8050   30.9260   44.4520 C   0  0  0  0  0  0  0  0  0  0  0  0
   39.4070   29.8910   43.8030 N   0  0  0  0  0  0  0  0  0  0  0  0
   40.0630   30.0480   42.6450 C   0  0  0  0  0  0  0  0  0  0  0  0
   40.1370   31.2610   42.0910 N   0  0  0  0  0  0  0  0  0  0  0  0
   39.7270   33.2140   42.0900 H   0  0  0  0  0  0  0  0  0  0  0  0
   38.5790   33.1380   44.1340 H   0  0  0  0  0  0  0  0  0  0  0  0
   40.7310   28.8440   42.0840 C   0  0  0  0  0  0  0  0  0  0  0  0
   40.7340   28.8490   40.7030 F   0  0  0  0  0  0  0  0  0  0  0  0
   42.1420   28.9130   42.4000 F   0  0  0  0  0  0  0  0  0  0  0  0
   40.3660   27.6750   42.5600 F   0  0  0  0  0  0  0  0  0  0  0  0
   35.8270   30.1850   44.3150 S   0  0  0  0  0  0  0  0  0  0  0  0
   35.3110   31.4260   43.6940 O   0  0  0  0  0  0  0  0  0  0  0  0
   34.5310   29.7810   44.9920 O   0  0  0  0  0  0  0  0  0  0  0  0
   35.6860   28.7440   43.4290 C   0  0  0  0  0  0  0  0  0  0  0  0
   36.2580   27.9670   44.0740 H   0  0  0  0  0  0  0  0  0  0  0  0
   34.6880   28.2690   43.4530 H   0  0  0  0  0  0  0  0  0  0  0  0
   36.4210   28.6630   42.1780 C   0  0  0  0  0  0  0  0  0  0  0  0
   36.5510   29.8620   41.5050 C   0  0  0  0  0  3  0  0  0  0  0  0
   37.2230   29.9820   40.2870 C   0  0  0  0  0  0  0  0  0  0  0  0
   37.3230   30.9240   39.7630 H   0  0  0  0  0  0  0  0  0  0  0  0
   37.7820   28.8690   39.7270 N   0  0  0  0  0  0  0  0  0  0  0  0
   37.6300   27.7250   40.4180 C   0  0  0  0  0  3  0  0  0  0  0  0
   36.9780   27.5810   41.6080 N   0  0  0  0  0  0  0  0  0  0  0  0
  1  6  1  0  0  0  0
  2  1  2  0  0  0  0
  2  3  1  0  0  0  0
  3  4  2  0  0  0  0
  4  5  1  0  0  0  0
  4  8  1  0  0  0  0
  5  9  1  0  0  0  0
  6 10  1  0  0  0  0
  6  5  2  0  0  0  0
  7  3  1  0  0  0  0
 11 12  1  0  0  0  0
 12 18  1  0  0  0  0
 12 13  2  0  0  0  0
 13  2  1  0  0  0  0
 14 13  1  0  0  0  0
 15 14  2  0  0  0  0
 16 15  1  0  0  0  0
 16 11  2  0  0  0  0
 17 11  1  0  0  0  0
 19 21  1  0  0  0  0
 19 22  1  0  0  0  0
 19 15  1  0  0  0  0
 20 19  1  0  0  0  0
 23 25  2  0  0  0  0
 23  1  1  0  0  0  0
 24 23  2  0  0  0  0
 26 28  1  0  0  0  0
 26 27  1  0  0  0  0
 26 23  1  0  0  0  0
 29 26  1  0  0  0  0
 30 29  2  0  0  0  0
 31 30  1  0  0  0  0
 32 31  1  0  0  0  0
 33 31  2  0  0  0  0
 33 34  1  0  0  0  0
 34 35  2  0  0  0  0
 35 29  1  0  0  0  0
M  END
>  <minimizedAffinity>
-4.53831148

>  <minimizedRMSD>
7.01913071

$$$$
