
 OpenBabel03262520203D

 19 20  0  0  0  0  0  0  0  0999 V2000
   39.3090   23.0730   34.9560 C   0  0  0  0  0  0  0  0  0  0  0  0
   39.1750   22.9590   36.3580 C   0  0  0  0  0  0  0  0  0  0  0  0
   38.4200   23.9290   37.0200 C   0  0  0  0  0  0  0  0  0  0  0  0
   37.8540   24.9320   36.2800 N   0  0  0  0  0  0  0  0  0  0  0  0
   38.0110   24.9980   34.9400 C   0  0  0  0  0  0  0  0  0  0  0  0
   38.7290   24.0790   34.2960 N   0  0  0  0  0  0  0  0  0  0  0  0
   39.8820   22.3510   34.3910 H   0  0  0  0  0  0  0  0  0  0  0  0
   39.6430   22.1530   36.8660 H   0  0  0  0  0  0  0  0  0  0  0  0
   37.3840   26.0910   34.2030 C   0  0  0  0  0  0  0  0  0  0  0  0
   37.0170   27.2460   34.8630 C   0  0  0  0  0  3  0  0  0  0  0  0
   36.4150   28.3000   34.1660 C   0  0  0  0  0  0  0  0  0  0  0  0
   36.1380   29.1930   34.7120 H   0  0  0  0  0  0  0  0  0  0  0  0
   36.2130   28.1350   32.8270 N   0  0  0  0  0  0  0  0  0  0  0  0
   36.5720   27.0090   32.1870 C   0  0  0  0  0  3  0  0  0  0  0  0
   37.1570   25.9920   32.8800 N   0  0  0  0  0  0  0  0  0  0  0  0
   38.2630   23.8340   38.4950 C   0  0  0  0  0  0  0  0  0  0  0  0
   39.4860   23.4550   38.9820 F   0  0  0  0  0  0  0  0  0  0  0  0
   37.9150   25.0490   39.0670 F   0  0  0  0  0  0  0  0  0  0  0  0
   37.3230   22.8910   38.8630 F   0  0  0  0  0  0  0  0  0  0  0  0
  1  2  1  0  0  0  0
  2  8  1  0  0  0  0
  2  3  2  0  0  0  0
  3 16  1  0  0  0  0
  4  3  1  0  0  0  0
  5  4  2  0  0  0  0
  6  5  1  0  0  0  0
  6  1  2  0  0  0  0
  7  1  1  0  0  0  0
  9 10  1  0  0  0  0
  9  5  1  0  0  0  0
 11 12  1  0  0  0  0
 11 10  2  0  0  0  0
 13 11  1  0  0  0  0
 14 13  2  0  0  0  0
 14 15  1  0  0  0  0
 15  9  2  0  0  0  0
 16 19  1  0  0  0  0
 16 17  1  0  0  0  0
 16 18  1  0  0  0  0
M  END
>  <minimizedAffinity>
-5.03016043

$$$$

 OpenBabel03262520203D

 19 20  0  0  0  0  0  0  0  0999 V2000
   39.5460   23.3830   35.0270 C   0  0  0  0  0  0  0  0  0  0  0  0
   39.3550   23.2080   36.4170 C   0  0  0  0  0  0  0  0  0  0  0  0
   38.4750   24.0770   37.0660 C   0  0  0  0  0  0  0  0  0  0  0  0
   37.8500   25.0440   36.3260 N   0  0  0  0  0  0  0  0  0  0  0  0
   38.0660   25.1710   34.9990 C   0  0  0  0  0  0  0  0  0  0  0  0
   38.9030   24.3490   34.3670 N   0  0  0  0  0  0  0  0  0  0  0  0
   40.2160   22.7400   34.4730 H   0  0  0  0  0  0  0  0  0  0  0  0
   39.8750   22.4340   36.9240 H   0  0  0  0  0  0  0  0  0  0  0  0
   37.3710   26.2220   34.2620 C   0  0  0  0  0  0  0  0  0  0  0  0
   37.1150   26.0640   32.9150 C   0  0  0  0  0  3  0  0  0  0  0  0
   36.4490   27.0660   32.1990 C   0  0  0  0  0  0  0  0  0  0  0  0
   36.2630   26.9140   31.1430 H   0  0  0  0  0  0  0  0  0  0  0  0
   36.0730   28.1850   32.8820 N   0  0  0  0  0  0  0  0  0  0  0  0
   36.3240   28.3350   34.1940 C   0  0  0  0  0  3  0  0  0  0  0  0
   36.9730   27.3500   34.8780 N   0  0  0  0  0  0  0  0  0  0  0  0
   38.2540   23.9160   38.5270 C   0  0  0  0  0  0  0  0  0  0  0  0
   37.3080   22.9330   38.6610 F   0  0  0  0  0  0  0  0  0  0  0  0
   39.4050   23.5160   39.1910 F   0  0  0  0  0  0  0  0  0  0  0  0
   37.7850   25.0730   39.1180 F   0  0  0  0  0  0  0  0  0  0  0  0
  1  2  1  0  0  0  0
  2  8  1  0  0  0  0
  2  3  2  0  0  0  0
  3 16  1  0  0  0  0
  4  3  1  0  0  0  0
  5  4  2  0  0  0  0
  6  5  1  0  0  0  0
  6  1  2  0  0  0  0
  7  1  1  0  0  0  0
  9 15  1  0  0  0  0
  9  5  1  0  0  0  0
 10  9  2  0  0  0  0
 11 13  2  0  0  0  0
 11 10  1  0  0  0  0
 12 11  1  0  0  0  0
 13 14  1  0  0  0  0
 14 15  2  0  0  0  0
 16 17  1  0  0  0  0
 16 19  1  0  0  0  0
 16 18  1  0  0  0  0
M  END
>  <minimizedAffinity>
-4.91119099

$$$$

 OpenBabel03262520203D

 19 20  0  0  0  0  0  0  0  0999 V2000
   38.1520   25.4910   35.0270 C   0  0  0  0  0  0  0  0  0  0  0  0
   38.1830   25.3030   36.4270 C   0  0  0  0  0  0  0  0  0  0  0  0
   38.1620   23.9910   36.9070 C   0  0  0  0  0  0  0  0  0  0  0  0
   38.1130   22.9670   36.0010 N   0  0  0  0  0  0  0  0  0  0  0  0
   38.0850   23.1980   34.6710 C   0  0  0  0  0  0  0  0  0  0  0  0
   38.1040   24.4440   34.2000 N   0  0  0  0  0  0  0  0  0  0  0  0
   38.1660   26.4840   34.5990 H   0  0  0  0  0  0  0  0  0  0  0  0
   38.2210   26.1470   37.0700 H   0  0  0  0  0  0  0  0  0  0  0  0
   38.0330   22.0650   33.7520 C   0  0  0  0  0  0  0  0  0  0  0  0
   36.8200   21.4830   33.4450 C   0  0  0  0  0  3  0  0  0  0  0  0
   36.7590   20.3960   32.5650 C   0  0  0  0  0  0  0  0  0  0  0  0
   35.7920   19.9600   32.3440 H   0  0  0  0  0  0  0  0  0  0  0  0
   37.9330   19.9470   32.0350 N   0  0  0  0  0  0  0  0  0  0  0  0
   39.1120   20.5170   32.3360 C   0  0  0  0  0  3  0  0  0  0  0  0
   39.1550   21.5750   33.1940 N   0  0  0  0  0  0  0  0  0  0  0  0
   38.1940   23.7630   38.3760 C   0  0  0  0  0  0  0  0  0  0  0  0
   39.4570   23.3160   38.6620 F   0  0  0  0  0  0  0  0  0  0  0  0
   37.9630   24.9280   39.0930 F   0  0  0  0  0  0  0  0  0  0  0  0
   37.2790   22.8100   38.7790 F   0  0  0  0  0  0  0  0  0  0  0  0
  1  2  1  0  0  0  0
  2  3  2  0  0  0  0
  2  8  1  0  0  0  0
  3 16  1  0  0  0  0
  4  3  1  0  0  0  0
  5  4  2  0  0  0  0
  6  5  1  0  0  0  0
  6  1  2  0  0  0  0
  7  1  1  0  0  0  0
  9  5  1  0  0  0  0
 10  9  1  0  0  0  0
 11 10  2  0  0  0  0
 12 11  1  0  0  0  0
 13 14  2  0  0  0  0
 13 11  1  0  0  0  0
 14 15  1  0  0  0  0
 15  9  2  0  0  0  0
 16 17  1  0  0  0  0
 16 19  1  0  0  0  0
 16 18  1  0  0  0  0
M  END
>  <minimizedAffinity>
-4.70634651

$$$$

 OpenBabel03262520203D

 19 20  0  0  0  0  0  0  0  0999 V2000
   37.2390   23.4820   32.3030 C   0  0  0  0  0  0  0  0  0  0  0  0
   36.4550   22.3520   31.9780 C   0  0  0  0  0  0  0  0  0  0  0  0
   36.3410   21.3430   32.9370 C   0  0  0  0  0  0  0  0  0  0  0  0
   36.9910   21.5020   34.1310 N   0  0  0  0  0  0  0  0  0  0  0  0
   37.7300   22.6020   34.3940 C   0  0  0  0  0  0  0  0  0  0  0  0
   37.8470   23.5720   33.4880 N   0  0  0  0  0  0  0  0  0  0  0  0
   37.3630   24.2940   31.6000 H   0  0  0  0  0  0  0  0  0  0  0  0
   35.9790   22.2990   31.0310 H   0  0  0  0  0  0  0  0  0  0  0  0
   38.4010   22.7160   35.6860 C   0  0  0  0  0  0  0  0  0  0  0  0
   39.6880   22.2420   35.8380 C   0  0  0  0  0  3  0  0  0  0  0  0
   40.3400   22.3460   37.0720 C   0  0  0  0  0  0  0  0  0  0  0  0
   41.3500   21.9640   37.1600 H   0  0  0  0  0  0  0  0  0  0  0  0
   39.6570   22.9290   38.0980 N   0  0  0  0  0  0  0  0  0  0  0  0
   38.4030   23.3900   37.9460 C   0  0  0  0  0  3  0  0  0  0  0  0
   37.7820   23.2820   36.7380 N   0  0  0  0  0  0  0  0  0  0  0  0
   35.5220   20.1430   32.6230 C   0  0  0  0  0  0  0  0  0  0  0  0
   34.2700   20.6080   32.3200 F   0  0  0  0  0  0  0  0  0  0  0  0
   36.0120   19.4450   31.5280 F   0  0  0  0  0  0  0  0  0  0  0  0
   35.4310   19.2740   33.6930 F   0  0  0  0  0  0  0  0  0  0  0  0
  1  6  1  0  0  0  0
  2  1  2  0  0  0  0
  2  3  1  0  0  0  0
  3  4  2  0  0  0  0
  4  5  1  0  0  0  0
  5  9  1  0  0  0  0
  6  5  2  0  0  0  0
  7  1  1  0  0  0  0
  8  2  1  0  0  0  0
  9 10  2  0  0  0  0
  9 15  1  0  0  0  0
 10 11  1  0  0  0  0
 11 12  1  0  0  0  0
 11 13  2  0  0  0  0
 14 13  1  0  0  0  0
 15 14  2  0  0  0  0
 16  3  1  0  0  0  0
 16 19  1  0  0  0  0
 17 16  1  0  0  0  0
 18 16  1  0  0  0  0
M  END
>  <minimizedAffinity>
-4.59104204

$$$$

 OpenBabel03262520203D

 19 20  0  0  0  0  0  0  0  0999 V2000
   38.1000   25.9480   35.2270 C   0  0  0  0  0  0  0  0  0  0  0  0
   38.1580   25.5920   36.5940 C   0  0  0  0  0  0  0  0  0  0  0  0
   38.1730   24.2320   36.9110 C   0  0  0  0  0  0  0  0  0  0  0  0
   38.1300   23.3240   35.8880 N   0  0  0  0  0  0  0  0  0  0  0  0
   38.0740   23.7140   34.5960 C   0  0  0  0  0  0  0  0  0  0  0  0
   38.0600   25.0080   34.2800 N   0  0  0  0  0  0  0  0  0  0  0  0
   38.0860   26.9850   34.9230 H   0  0  0  0  0  0  0  0  0  0  0  0
   38.1900   26.3530   37.3330 H   0  0  0  0  0  0  0  0  0  0  0  0
   38.0300   22.6990   33.5480 C   0  0  0  0  0  0  0  0  0  0  0  0
   39.0090   21.7280   33.4860 C   0  0  0  0  0  3  0  0  0  0  0  0
   38.9760   20.7510   32.4850 C   0  0  0  0  0  0  0  0  0  0  0  0
   39.7580   20.0030   32.4630 H   0  0  0  0  0  0  0  0  0  0  0  0
   37.9490   20.8020   31.5890 N   0  0  0  0  0  0  0  0  0  0  0  0
   36.9970   21.7500   31.6510 C   0  0  0  0  0  3  0  0  0  0  0  0
   37.0430   22.6940   32.6330 N   0  0  0  0  0  0  0  0  0  0  0  0
   38.2340   23.8290   38.3410 C   0  0  0  0  0  0  0  0  0  0  0  0
   37.9690   24.9620   39.0650 F   0  0  0  0  0  0  0  0  0  0  0  0
   37.2840   22.8690   38.6570 F   0  0  0  0  0  0  0  0  0  0  0  0
   39.4790   23.3490   38.6980 F   0  0  0  0  0  0  0  0  0  0  0  0
  1  2  1  0  0  0  0
  2  3  2  0  0  0  0
  2  8  1  0  0  0  0
  3 16  1  0  0  0  0
  4  3  1  0  0  0  0
  5  4  2  0  0  0  0
  6  5  1  0  0  0  0
  6  1  2  0  0  0  0
  7  1  1  0  0  0  0
  9  5  1  0  0  0  0
 10  9  1  0  0  0  0
 11 10  2  0  0  0  0
 12 11  1  0  0  0  0
 13 14  2  0  0  0  0
 13 11  1  0  0  0  0
 14 15  1  0  0  0  0
 15  9  2  0  0  0  0
 16 18  1  0  0  0  0
 16 19  1  0  0  0  0
 16 17  1  0  0  0  0
M  END
>  <minimizedAffinity>
-4.5415287

$$$$

 OpenBabel03262520203D

 19 20  0  0  0  0  0  0  0  0999 V2000
   37.9070   22.5140   34.7780 C   0  0  0  0  0  0  0  0  0  0  0  0
   37.7830   22.5580   36.1850 C   0  0  0  0  0  0  0  0  0  0  0  0
   38.3720   23.6310   36.8570 C   0  0  0  0  0  0  0  0  0  0  0  0
   39.0330   24.5760   36.1210 N   0  0  0  0  0  0  0  0  0  0  0  0
   39.1240   24.4910   34.7760 C   0  0  0  0  0  0  0  0  0  0  0  0
   38.5670   23.4720   34.1230 N   0  0  0  0  0  0  0  0  0  0  0  0
   37.4710   21.7070   34.2060 H   0  0  0  0  0  0  0  0  0  0  0  0
   37.2540   21.7870   36.6890 H   0  0  0  0  0  0  0  0  0  0  0  0
   39.8430   25.5300   34.0440 C   0  0  0  0  0  0  0  0  0  0  0  0
   40.9620   26.1140   34.5990 C   0  0  0  0  0  3  0  0  0  0  0  0
   41.6590   27.1110   33.9050 C   0  0  0  0  0  0  0  0  0  0  0  0
   42.5330   27.5520   34.3670 H   0  0  0  0  0  0  0  0  0  0  0  0
   41.1870   27.4710   32.6770 N   0  0  0  0  0  0  0  0  0  0  0  0
   40.0950   26.8990   32.1390 C   0  0  0  0  0  3  0  0  0  0  0  0
   39.4290   25.9290   32.8270 N   0  0  0  0  0  0  0  0  0  0  0  0
   38.2570   23.7020   38.3380 C   0  0  0  0  0  0  0  0  0  0  0  0
   39.4850   23.3430   38.8290 F   0  0  0  0  0  0  0  0  0  0  0  0
   37.9590   24.9820   38.7810 F   0  0  0  0  0  0  0  0  0  0  0  0
   37.3050   22.8320   38.8330 F   0  0  0  0  0  0  0  0  0  0  0  0
  1  2  1  0  0  0  0
  2  8  1  0  0  0  0
  2  3  2  0  0  0  0
  3 16  1  0  0  0  0
  4  3  1  0  0  0  0
  5  4  2  0  0  0  0
  6  5  1  0  0  0  0
  6  1  2  0  0  0  0
  7  1  1  0  0  0  0
  9 10  1  0  0  0  0
  9  5  1  0  0  0  0
 11 12  1  0  0  0  0
 11 10  2  0  0  0  0
 13 11  1  0  0  0  0
 14 13  2  0  0  0  0
 14 15  1  0  0  0  0
 15  9  2  0  0  0  0
 16 18  1  0  0  0  0
 16 17  1  0  0  0  0
 16 19  1  0  0  0  0
M  END
>  <minimizedAffinity>
-4.48173904

$$$$

 OpenBabel03262520203D

 19 20  0  0  0  0  0  0  0  0999 V2000
   37.2530   27.6380   34.8470 C   0  0  0  0  0  0  0  0  0  0  0  0
   36.9160   27.2680   33.5260 C   0  0  0  0  0  0  0  0  0  0  0  0
   37.1670   25.9500   33.1360 C   0  0  0  0  0  0  0  0  0  0  0  0
   37.7240   25.0960   34.0490 N   0  0  0  0  0  0  0  0  0  0  0  0
   38.0290   25.4980   35.3020 C   0  0  0  0  0  0  0  0  0  0  0  0
   37.7940   26.7520   35.6860 N   0  0  0  0  0  0  0  0  0  0  0  0
   37.0810   28.6440   35.2040 H   0  0  0  0  0  0  0  0  0  0  0  0
   36.4860   27.9860   32.8740 H   0  0  0  0  0  0  0  0  0  0  0  0
   38.6220   24.5420   36.2320 C   0  0  0  0  0  0  0  0  0  0  0  0
   38.0690   24.3660   37.4840 C   0  0  0  0  0  3  0  0  0  0  0  0
   38.6300   23.4510   38.3840 C   0  0  0  0  0  0  0  0  0  0  0  0
   38.1740   23.3360   39.3590 H   0  0  0  0  0  0  0  0  0  0  0  0
   39.7280   22.7540   37.9710 N   0  0  0  0  0  0  0  0  0  0  0  0
   40.2630   22.9280   36.7510 C   0  0  0  0  0  3  0  0  0  0  0  0
   39.7050   23.8220   35.8860 N   0  0  0  0  0  0  0  0  0  0  0  0
   36.8220   25.5330   31.7520 C   0  0  0  0  0  0  0  0  0  0  0  0
   35.4540   25.5330   31.6870 F   0  0  0  0  0  0  0  0  0  0  0  0
   37.3110   26.4160   30.8000 F   0  0  0  0  0  0  0  0  0  0  0  0
   37.2850   24.2660   31.4550 F   0  0  0  0  0  0  0  0  0  0  0  0
  1  7  1  0  0  0  0
  1  6  1  0  0  0  0
  2  1  2  0  0  0  0
  3  2  1  0  0  0  0
  3  4  2  0  0  0  0
  4  5  1  0  0  0  0
  5  6  2  0  0  0  0
  5  9  1  0  0  0  0
  8  2  1  0  0  0  0
  9 10  1  0  0  0  0
 10 11  2  0  0  0  0
 11 12  1  0  0  0  0
 13 11  1  0  0  0  0
 14 13  2  0  0  0  0
 15  9  2  0  0  0  0
 15 14  1  0  0  0  0
 16  3  1  0  0  0  0
 17 16  1  0  0  0  0
 18 16  1  0  0  0  0
 19 16  1  0  0  0  0
M  END
>  <minimizedAffinity>
-4.38766098

$$$$

 OpenBabel03262520203D

 19 20  0  0  0  0  0  0  0  0999 V2000
   37.6790   23.7770   32.4980 C   0  0  0  0  0  0  0  0  0  0  0  0
   37.2590   25.0980   32.2220 C   0  0  0  0  0  0  0  0  0  0  0  0
   37.2550   26.0120   33.2780 C   0  0  0  0  0  0  0  0  0  0  0  0
   37.6540   25.5820   34.5140 N   0  0  0  0  0  0  0  0  0  0  0  0
   38.0470   24.3080   34.7270 C   0  0  0  0  0  0  0  0  0  0  0  0
   38.0570   23.4250   33.7290 N   0  0  0  0  0  0  0  0  0  0  0  0
   37.7030   23.0270   31.7190 H   0  0  0  0  0  0  0  0  0  0  0  0
   36.9630   25.3590   31.2370 H   0  0  0  0  0  0  0  0  0  0  0  0
   38.4630   23.9060   36.0680 C   0  0  0  0  0  0  0  0  0  0  0  0
   37.7170   24.2890   37.1640 C   0  0  0  0  0  3  0  0  0  0  0  0
   38.1070   23.9100   38.4540 C   0  0  0  0  0  0  0  0  0  0  0  0
   37.5010   24.2270   39.2940 H   0  0  0  0  0  0  0  0  0  0  0  0
   39.2380   23.1570   38.5740 N   0  0  0  0  0  0  0  0  0  0  0  0
   39.9620   22.7860   37.5040 C   0  0  0  0  0  3  0  0  0  0  0  0
   39.5690   23.1620   36.2550 N   0  0  0  0  0  0  0  0  0  0  0  0
   36.8170   27.4090   33.0160 C   0  0  0  0  0  0  0  0  0  0  0  0
   37.8770   28.0300   32.4090 F   0  0  0  0  0  0  0  0  0  0  0  0
   35.7240   27.4660   32.1640 F   0  0  0  0  0  0  0  0  0  0  0  0
   36.5050   28.0870   34.1780 F   0  0  0  0  0  0  0  0  0  0  0  0
  1  6  1  0  0  0  0
  2  1  2  0  0  0  0
  2  3  1  0  0  0  0
  3  4  2  0  0  0  0
  4  5  1  0  0  0  0
  5  9  1  0  0  0  0
  6  5  2  0  0  0  0
  7  1  1  0  0  0  0
  8  2  1  0  0  0  0
  9 15  2  0  0  0  0
  9 10  1  0  0  0  0
 10 11  2  0  0  0  0
 11 13  1  0  0  0  0
 11 12  1  0  0  0  0
 14 13  2  0  0  0  0
 15 14  1  0  0  0  0
 16  3  1  0  0  0  0
 16 19  1  0  0  0  0
 17 16  1  0  0  0  0
 18 16  1  0  0  0  0
M  END
>  <minimizedAffinity>
-4.36629629

$$$$

 OpenBabel03262520203D

 19 20  0  0  0  0  0  0  0  0999 V2000
   36.4740   27.3290   32.0470 C   0  0  0  0  0  0  0  0  0  0  0  0
   37.0740   27.7260   33.2630 C   0  0  0  0  0  0  0  0  0  0  0  0
   37.6090   26.7270   34.0800 C   0  0  0  0  0  0  0  0  0  0  0  0
   37.5240   25.4280   33.6600 N   0  0  0  0  0  0  0  0  0  0  0  0
   36.9400   25.0990   32.4870 C   0  0  0  0  0  0  0  0  0  0  0  0
   36.4250   26.0410   31.6990 N   0  0  0  0  0  0  0  0  0  0  0  0
   36.0420   28.0590   31.3760 H   0  0  0  0  0  0  0  0  0  0  0  0
   37.1030   28.7550   33.5230 H   0  0  0  0  0  0  0  0  0  0  0  0
   36.8790   23.6950   32.0920 C   0  0  0  0  0  0  0  0  0  0  0  0
   35.7150   23.1800   31.5590 C   0  0  0  0  0  3  0  0  0  0  0  0
   35.6450   21.8350   31.1760 C   0  0  0  0  0  0  0  0  0  0  0  0
   34.7180   21.4600   30.7610 H   0  0  0  0  0  0  0  0  0  0  0  0
   36.7620   21.0710   31.3530 N   0  0  0  0  0  0  0  0  0  0  0  0
   37.8940   21.5760   31.8730 C   0  0  0  0  0  3  0  0  0  0  0  0
   37.9460   22.8880   32.2390 N   0  0  0  0  0  0  0  0  0  0  0  0
   38.2470   27.1160   35.3650 C   0  0  0  0  0  0  0  0  0  0  0  0
   37.6570   28.2960   35.7380 F   0  0  0  0  0  0  0  0  0  0  0  0
   38.0300   26.1780   36.3640 F   0  0  0  0  0  0  0  0  0  0  0  0
   39.6070   27.3160   35.2370 F   0  0  0  0  0  0  0  0  0  0  0  0
  1  2  1  0  0  0  0
  2  8  1  0  0  0  0
  2  3  2  0  0  0  0
  3 16  1  0  0  0  0
  4  3  1  0  0  0  0
  5  4  2  0  0  0  0
  6  1  2  0  0  0  0
  6  5  1  0  0  0  0
  7  1  1  0  0  0  0
  9 15  1  0  0  0  0
  9  5  1  0  0  0  0
 10  9  2  0  0  0  0
 11 13  2  0  0  0  0
 11 10  1  0  0  0  0
 12 11  1  0  0  0  0
 13 14  1  0  0  0  0
 14 15  2  0  0  0  0
 16 17  1  0  0  0  0
 16 18  1  0  0  0  0
 19 16  1  0  0  0  0
M  END
>  <minimizedAffinity>
-4.35037994

$$$$
