
 OpenBabel03272508193D

 29 31  0  0  0  0  0  0  0  0999 V2000
   33.6250   28.5840   47.2340 C   0  0  0  0  0  0  0  0  0  0  0  0
   34.6670   29.4740   47.5400 C   0  0  0  0  0  0  0  0  0  0  0  0
   35.2230   30.0620   46.4290 C   0  0  0  0  0  0  0  0  0  0  0  0
   34.8030   29.8020   45.1770 N   0  0  0  0  0  0  0  0  0  0  0  0
   33.8010   28.9400   44.9140 C   0  0  0  0  0  0  0  0  0  0  0  0
   33.2110   28.3300   45.9460 N   0  0  0  0  0  0  0  0  0  0  0  0
   36.0470   30.7760   46.5830 H   0  0  0  0  0  0  0  0  0  0  0  0
   33.5270   28.7880   43.8930 H   0  0  0  0  0  0  0  0  0  0  0  0
   32.8740   27.9770   48.4140 C   0  0  0  0  0  0  0  0  0  0  0  0
   31.5140   27.5960   48.3320 C   0  0  0  0  0  0  0  0  0  0  0  0
   32.5220   26.4930   48.0570 C   0  0  0  0  0  0  0  0  0  0  0  0
   33.4410   27.9850   49.3910 H   0  0  0  0  0  0  0  0  0  0  0  0
   30.9110   27.5090   49.2560 H   0  0  0  0  0  0  0  0  0  0  0  0
   30.9080   27.8840   47.4400 H   0  0  0  0  0  0  0  0  0  0  0  0
   32.6410   26.1540   47.0360 H   0  0  0  0  0  0  0  0  0  0  0  0
   32.6720   25.7940   48.8850 H   0  0  0  0  0  0  0  0  0  0  0  0
   35.1240   29.6800   48.9090 C   0  0  0  0  0  0  0  0  0  0  0  0
   34.8730   30.6790   49.3360 H   0  0  0  0  0  0  0  0  0  0  0  0
   34.5650   28.9630   49.5540 H   0  0  0  0  0  0  0  0  0  0  0  0
   36.5750   29.4910   49.1360 C   0  0  0  0  0  0  0  0  0  0  0  0
   36.9980   28.8320   48.3460 H   0  0  0  0  0  0  0  0  0  0  0  0
   36.8330   29.0900   50.1200 H   0  0  0  0  0  0  0  0  0  0  0  0
   37.2790   30.7900   49.0040 C   0  0  0  0  0  0  0  0  0  0  0  0
   38.3050   31.2200   48.1910 C   0  0  0  0  0  3  0  0  0  0  0  0
   38.7630   32.5070   48.2710 C   0  0  0  0  0  0  0  0  0  0  0  0
   39.5750   32.6950   47.5660 H   0  0  0  0  0  0  0  0  0  0  0  0
   38.2030   33.3600   49.1510 N   0  0  0  0  0  0  0  0  0  0  0  0
   37.2100   32.9570   49.9430 C   0  0  0  0  0  3  0  0  0  0  0  0
   36.7610   31.6920   49.8650 N   0  0  0  0  0  0  0  0  0  0  0  0
  1  2  1  0  0  0  0
  1  9  1  0  0  0  0
  2 17  1  0  0  0  0
  3  7  1  0  0  0  0
  3  2  2  0  0  0  0
  4  3  1  0  0  0  0
  5  4  2  0  0  0  0
  5  6  1  0  0  0  0
  6  1  2  0  0  0  0
  8  5  1  0  0  0  0
  9 12  1  0  0  0  0
 10  9  1  0  0  0  0
 10 13  1  0  0  0  0
 11 10  1  0  0  0  0
 11  9  1  0  0  0  0
 11 16  1  0  0  0  0
 14 10  1  0  0  0  0
 15 11  1  0  0  0  0
 17 20  1  0  0  0  0
 17 18  1  0  0  0  0
 17 19  1  0  0  0  0
 20 22  1  0  0  0  0
 21 20  1  0  0  0  0
 23 20  1  0  0  0  0
 23 29  1  0  0  0  0
 24 25  1  0  0  0  0
 24 23  2  0  0  0  0
 25 27  2  0  0  0  0
 26 25  1  0  0  0  0
 27 28  1  0  0  0  0
 29 28  2  0  0  0  0
M  END
>  <minimizedAffinity>
-4.41456652

>  <minimizedRMSD>
4.65278387

$$$$
