
 OpenBabel03272507283D

 39 41  0  0  1  0  0  0  0  0999 V2000
   34.3650   29.6090   46.8440 C   0  0  0  0  0  0  0  0  0  0  0  0
   35.3150   30.2670   46.0350 C   0  0  0  0  0  0  0  0  0  0  0  0
   35.5760   29.7020   44.7850 C   0  0  0  0  0  0  0  0  0  0  0  0
   34.9260   28.5840   44.4210 N   0  0  0  0  0  0  0  0  0  0  0  0
   34.0250   27.9840   45.2220 C   0  0  0  0  0  0  0  0  0  0  0  0
   33.7500   28.4930   46.4190 N   0  0  0  0  0  0  0  0  0  0  0  0
   36.5030   30.2880   43.9270 N   0  0  0  0  0  0  0  0  0  0  0  0
   36.7950   31.7440   43.8250 C   0  0  0  0  0  0  0  0  0  0  0  0
   37.6330   31.9550   42.6270 C   0  0  0  0  0  0  0  0  0  0  0  0
   37.4540   30.7300   41.8560 C   0  0  0  0  0  0  0  0  0  0  0  0
   37.3700   29.7250   42.9420 C   0  0  2  0  0  0  0  0  0  0  0  0
   34.2390   30.1360   47.7970 H   0  0  0  0  0  0  0  0  0  0  0  0
   35.8510   31.1520   46.2860 H   0  0  0  0  0  0  0  0  0  0  0  0
   33.4690   27.0920   44.9950 H   0  0  0  0  0  0  0  0  0  0  0  0
   36.9860   32.2600   44.7330 H   0  0  0  0  0  0  0  0  0  0  0  0
   35.7150   32.1080   43.5740 H   0  0  0  0  0  0  0  0  0  0  0  0
   36.9870   32.7190   41.9910 H   0  0  0  0  0  0  0  0  0  0  0  0
   38.5310   32.5170   42.6500 H   0  0  0  0  0  0  0  0  0  0  0  0
   36.5310   30.7050   41.2420 H   0  0  0  0  0  0  0  0  0  0  0  0
   38.2950   30.4550   41.1830 H   0  0  0  0  0  0  0  0  0  0  0  0
   36.8970   28.3840   42.3720 C   0  0  0  0  0  0  0  0  0  0  0  0
   35.5440   28.4740   42.1250 F   0  0  0  0  0  0  0  0  0  0  0  0
   37.0730   27.3070   43.1890 F   0  0  0  0  0  0  0  0  0  0  0  0
   37.5140   28.2370   41.1500 F   0  0  0  0  0  0  0  0  0  0  0  0
   38.6340   29.4680   43.5660 C   0  0  2  0  0  0  0  0  0  0  0  0
   38.5860   28.6810   44.2850 H   0  0  0  0  0  0  0  0  0  0  0  0
   39.2190   30.5480   44.5660 C   0  0  0  0  0  0  0  0  0  0  0  0
   38.8780   30.6300   45.9100 C   0  0  0  0  0  3  0  0  0  0  0  0
   39.3920   31.6530   46.6690 C   0  0  0  0  0  0  0  0  0  0  0  0
   39.0590   31.6190   47.6990 H   0  0  0  0  0  0  0  0  0  0  0  0
   40.2130   32.5660   46.1420 N   0  0  0  0  0  0  0  0  0  0  0  0
   40.5620   32.5140   44.8510 C   0  0  0  0  0  3  0  0  0  0  0  0
   40.0530   31.5220   44.1450 N   0  0  0  0  0  0  0  0  0  0  0  0
   39.5230   29.4890   42.6770 O   0  0  0  0  0  0  0  0  0  0  0  0
   40.6360   28.8280   42.3220 C   0  0  0  0  0  0  0  0  0  0  0  0
   40.4000   27.6610   42.0050 O   0  0  0  0  0  0  0  0  0  0  0  0
   42.0420   28.8380   42.1220 N   0  0  0  0  0  0  0  0  0  0  0  0
   42.7890   28.7270   42.8490 H   0  0  0  0  0  0  0  0  0  0  0  0
   42.4900   28.9660   41.1660 H   0  0  0  0  0  0  0  0  0  0  0  0
  1 12  1  0  0  0  0
  2 13  1  0  0  0  0
  2  1  2  0  0  0  0
  3  2  1  0  0  0  0
  4  3  2  0  0  0  0
  4  5  1  0  0  0  0
  5  6  2  0  0  0  0
  6  1  1  0  0  0  0
  7  3  1  0  0  0  0
  8  7  1  0  0  0  0
  8 15  1  0  0  0  0
  9 18  1  0  0  0  0
  9  8  1  0  0  0  0
 10  9  1  0  0  0  0
 10 11  1  0  0  0  0
 11 21  1  6  0  0  0
 11 25  1  0  0  0  0
 11  7  1  0  0  0  0
 14  5  1  0  0  0  0
 16  8  1  0  0  0  0
 17  9  1  0  0  0  0
 19 10  1  0  0  0  0
 20 10  1  0  0  0  0
 21 23  1  0  0  0  0
 22 21  1  0  0  0  0
 24 21  1  0  0  0  0
 25 26  1  1  0  0  0
 25 27  1  0  0  0  0
 27 28  1  0  0  0  0
 28 29  2  0  0  0  0
 29 30  1  0  0  0  0
 31 29  1  0  0  0  0
 32 31  2  0  0  0  0
 33 27  2  0  0  0  0
 33 32  1  0  0  0  0
 34 25  1  0  0  0  0
 35 34  1  0  0  0  0
 36 35  2  0  0  0  0
 37 35  1  0  0  0  0
 37 38  1  0  0  0  0
 39 37  1  0  0  0  0
M  END
>  <minimizedAffinity>
-4.65993738

>  <minimizedRMSD>
3.03004146

$$$$
