
 OpenBabel03272500043D

 27 29  0  0  0  0  0  0  0  0999 V2000
   35.6620   28.9360   49.2350 C   0  0  0  0  0  0  0  0  0  0  0  0
   35.5280   30.1080   48.4660 C   0  0  0  0  0  0  0  0  0  0  0  0
   34.4200   30.2170   47.6510 C   0  0  0  0  0  0  0  0  0  0  0  0
   33.5110   29.2140   47.6140 N   0  0  0  0  0  0  0  0  0  0  0  0
   33.6580   28.1040   48.3570 C   0  0  0  0  0  0  0  0  0  0  0  0
   34.7320   27.9550   49.1710 N   0  0  0  0  0  0  0  0  0  0  0  0
   36.5210   28.8210   49.8850 H   0  0  0  0  0  0  0  0  0  0  0  0
   34.3130   31.1090   47.0620 H   0  0  0  0  0  0  0  0  0  0  0  0
   36.5510   31.1020   48.5850 N   0  0  0  0  0  0  0  0  0  0  0  0
   36.6990   31.8350   49.7060 C   0  0  0  0  0  0  0  0  0  0  0  0
   37.7100   32.7900   49.7710 C   0  0  0  0  0  0  0  0  0  0  0  0
   38.4810   32.8920   48.6430 C   0  0  0  0  0  0  0  0  0  0  0  0
   39.4060   33.7560   48.6800 O   0  0  0  0  0  0  0  0  0  0  0  0
   38.3500   32.1750   47.5190 N   0  0  0  0  0  0  0  0  0  0  0  0
   37.3500   31.2560   47.5040 C   0  0  0  0  0  0  0  0  0  0  0  0
   37.2200   30.5750   46.4480 O   0  0  0  0  0  0  0  0  0  0  0  0
   36.0420   31.6870   50.5530 H   0  0  0  0  0  0  0  0  0  0  0  0
   37.8780   33.4040   50.6350 H   0  0  0  0  0  0  0  0  0  0  0  0
   38.9630   32.2980   46.7000 H   0  0  0  0  0  0  0  0  0  0  0  0
   32.7530   27.0490   48.3530 O   0  0  0  0  0  0  0  0  0  0  0  0
   31.3730   27.2600   48.2580 C   0  0  0  0  0  0  0  0  0  0  0  0
   30.7320   27.7200   49.3900 C   0  0  0  0  0  3  0  0  0  0  0  0
   29.3760   27.9120   49.2480 C   0  0  0  0  0  0  0  0  0  0  0  0
   28.8030   28.2710   50.0920 H   0  0  0  0  0  0  0  0  0  0  0  0
   28.6860   27.6780   48.0970 N   0  0  0  0  0  0  0  0  0  0  0  0
   29.3720   27.2240   47.0150 C   0  0  0  0  0  3  0  0  0  0  0  0
   30.7010   27.0200   47.1030 N   0  0  0  0  0  0  0  0  0  0  0  0
  1  7  1  0  0  0  0
  2  9  1  0  0  0  0
  2  1  2  0  0  0  0
  3  2  1  0  0  0  0
  4  3  2  0  0  0  0
  4  5  1  0  0  0  0
  5  6  2  0  0  0  0
  6  1  1  0  0  0  0
  8  3  1  0  0  0  0
  9 10  1  0  0  0  0
 10 11  2  0  0  0  0
 10 17  1  0  0  0  0
 11 18  1  0  0  0  0
 12 13  2  0  0  0  0
 12 11  1  0  0  0  0
 14 12  1  0  0  0  0
 15 14  1  0  0  0  0
 15  9  1  0  0  0  0
 16 15  2  0  0  0  0
 19 14  1  0  0  0  0
 20  5  1  0  0  0  0
 21 20  1  0  0  0  0
 21 22  1  0  0  0  0
 23 22  2  0  0  0  0
 23 24  1  0  0  0  0
 25 23  1  0  0  0  0
 26 27  1  0  0  0  0
 26 25  2  0  0  0  0
 27 21  2  0  0  0  0
M  END
>  <minimizedAffinity>
-5.56402254

>  <minimizedRMSD>
1.12514353

$$$$
