
 OpenBabel03272506323D

 38 40  0  0  1  0  0  0  0  0999 V2000
   35.2040   30.0840   48.7080 C   0  0  1  0  0  0  0  0  0  0  0  0
   34.6970   30.2480   50.0540 C   0  0  0  0  0  0  0  0  0  0  0  0
   35.4220   29.5070   51.1580 C   0  0  0  0  0  0  0  0  0  0  0  0
   36.9050   29.4200   51.0100 C   0  0  0  0  0  0  0  0  0  0  0  0
   37.4510   29.2920   49.6340 C   0  0  0  0  0  0  0  0  0  0  0  0
   36.7140   30.1190   48.6460 C   0  0  2  0  0  0  0  0  0  0  0  0
   34.9200   30.9960   48.0950 H   0  0  0  0  0  0  0  0  0  0  0  0
   34.8660   31.3360   50.3270 H   0  0  0  0  0  0  0  0  0  0  0  0
   33.6330   30.1080   50.2250 H   0  0  0  0  0  0  0  0  0  0  0  0
   35.2190   30.0190   52.1310 H   0  0  0  0  0  0  0  0  0  0  0  0
   34.9920   28.4850   51.2730 H   0  0  0  0  0  0  0  0  0  0  0  0
   37.2260   28.5100   51.5790 H   0  0  0  0  0  0  0  0  0  0  0  0
   37.3870   30.2700   51.5430 H   0  0  0  0  0  0  0  0  0  0  0  0
   38.4920   29.6770   49.6610 H   0  0  0  0  0  0  0  0  0  0  0  0
   37.5120   28.2310   49.3050 H   0  0  0  0  0  0  0  0  0  0  0  0
   37.0920   29.8940   47.6420 H   0  0  0  0  0  0  0  0  0  0  0  0
   34.2770   27.7080   48.4740 C   0  0  0  0  0  0  0  0  0  0  0  0
   34.6390   28.9740   47.9170 C   0  0  0  0  0  0  0  0  0  0  0  0
   34.4320   29.1070   46.5540 C   0  0  0  0  0  0  0  0  0  0  0  0
   33.9120   28.0610   45.8410 N   0  0  0  0  0  0  0  0  0  0  0  0
   33.5890   26.8960   46.4190 C   0  0  0  0  0  0  0  0  0  0  0  0
   33.7770   26.7210   47.7550 N   0  0  0  0  0  0  0  0  0  0  0  0
   34.4300   27.5820   49.5390 H   0  0  0  0  0  0  0  0  0  0  0  0
   34.6590   30.0080   46.0050 H   0  0  0  0  0  0  0  0  0  0  0  0
   33.1800   26.0600   45.8800 H   0  0  0  0  0  0  0  0  0  0  0  0
   37.0790   31.5720   48.9880 C   0  0  0  0  0  0  0  0  0  0  0  0
   37.0130   31.7800   50.0580 H   0  0  0  0  0  0  0  0  0  0  0  0
   36.4300   32.2880   48.4120 H   0  0  0  0  0  0  0  0  0  0  0  0
   38.5030   31.8720   48.5220 C   0  0  0  0  0  0  0  0  0  0  0  0
   38.9210   32.6780   49.1400 H   0  0  0  0  0  0  0  0  0  0  0  0
   39.0980   30.9540   48.7190 H   0  0  0  0  0  0  0  0  0  0  0  0
   38.5940   32.1730   47.0900 C   0  0  0  0  0  0  0  0  0  0  0  0
   39.7770   32.8230   46.7210 C   0  0  0  0  0  0  0  0  0  0  0  0
   40.0800   33.2030   45.4340 C   0  0  0  0  0  0  0  0  0  0  0  0
   40.9750   33.6950   45.1470 H   0  0  0  0  0  0  0  0  0  0  0  0
   39.1580   32.9210   44.4710 N   0  0  0  0  0  0  0  0  0  0  0  0
   38.0130   32.2880   44.8520 C   0  0  0  0  0  0  0  0  0  0  0  0
   37.7150   31.9160   46.1070 N   0  0  0  0  0  0  0  0  0  0  0  0
  1  7  1  6  0  0  0
  1  2  1  0  0  0  0
  2  9  1  0  0  0  0
  2  8  1  0  0  0  0
  2  3  1  0  0  0  0
  3 11  1  0  0  0  0
  3 10  1  0  0  0  0
  4  3  1  0  0  0  0
  4 13  1  0  0  0  0
  4 12  1  0  0  0  0
  5 14  1  0  0  0  0
  5  4  1  0  0  0  0
  6 16  1  6  0  0  0
  6  1  1  0  0  0  0
  6 26  1  0  0  0  0
  6  5  1  0  0  0  0
 15  5  1  0  0  0  0
 17 23  1  0  0  0  0
 18 17  1  0  0  0  0
 18  1  1  0  0  0  0
 19 18  2  0  0  0  0
 20 21  2  0  0  0  0
 20 19  1  0  0  0  0
 21 22  1  0  0  0  0
 22 17  2  0  0  0  0
 24 19  1  0  0  0  0
 25 21  1  0  0  0  0
 26 27  1  0  0  0  0
 28 26  1  0  0  0  0
 29 31  1  0  0  0  0
 29 26  1  0  0  0  0
 29 30  1  0  0  0  0
 32 29  1  0  0  0  0
 33 32  1  0  0  0  0
 34 33  2  0  0  0  0
 35 34  1  0  0  0  0
 36 37  2  0  0  0  0
 36 34  1  0  0  0  0
 37 38  1  0  0  0  0
 38 32  2  0  0  0  0
M  END
>  <minimizedAffinity>
-5.97628546

>  <minimizedRMSD>
1.4944272

$$$$
