
 OpenBabel03272509503D

 31 33  0  0  0  0  0  0  0  0999 V2000
   34.9160   28.2500   49.5850 O   0  0  0  0  0  0  0  0  0  0  0  0
   37.3130   30.2350   51.4270 C   0  0  0  0  0  0  0  0  0  0  0  0
   38.0130   30.8380   50.3510 C   0  0  0  0  0  0  0  0  0  0  0  0
   37.6140   30.5210   49.0650 C   0  0  0  0  0  0  0  0  0  0  0  0
   36.5780   29.6540   48.9030 N   0  0  0  0  0  0  0  0  0  0  0  0
   35.9360   29.0990   49.9510 C   0  0  0  0  0  0  0  0  0  0  0  0
   36.3110   29.3970   51.2270 N   0  0  0  0  0  0  0  0  0  0  0  0
   37.6480   30.5030   52.4190 H   0  0  0  0  0  0  0  0  0  0  0  0
   38.8330   31.5250   50.4980 H   0  0  0  0  0  0  0  0  0  0  0  0
   38.2370   31.0600   47.8620 C   0  0  0  0  0  0  0  0  0  0  0  0
   38.9010   32.2570   47.8490 C   0  0  0  0  0  3  0  0  0  0  0  0
   39.4830   32.7460   46.7010 C   0  0  0  0  0  0  0  0  0  0  0  0
   40.0110   33.6910   46.6750 H   0  0  0  0  0  0  0  0  0  0  0  0
   39.4050   32.0520   45.5660 N   0  0  0  0  0  0  0  0  0  0  0  0
   38.7550   30.8770   45.5650 C   0  0  0  0  0  3  0  0  0  0  0  0
   38.1970   30.4130   46.6840 N   0  0  0  0  0  0  0  0  0  0  0  0
   34.2470   28.5240   48.3540 C   0  0  0  0  0  0  0  0  0  0  0  0
   33.7410   29.4950   48.4240 H   0  0  0  0  0  0  0  0  0  0  0  0
   35.0350   28.6230   47.5790 H   0  0  0  0  0  0  0  0  0  0  0  0
   33.3130   27.3870   48.0160 C   0  0  0  0  0  0  0  0  0  0  0  0
   33.3570   26.5760   48.7510 H   0  0  0  0  0  0  0  0  0  0  0  0
   33.6100   26.9630   47.0200 H   0  0  0  0  0  0  0  0  0  0  0  0
   31.9040   27.8460   47.8840 C   0  0  0  0  0  0  0  0  0  0  0  0
   31.0520   27.5540   48.9250 C   0  0  0  0  0  0  0  0  0  0  0  0
   29.7180   27.9280   48.9210 C   0  0  0  0  0  0  0  0  0  0  0  0
   29.2420   28.5920   47.8760 N   0  0  0  0  0  0  0  0  0  0  0  0
   30.0750   28.8830   46.8470 C   0  0  0  0  0  0  0  0  0  0  0  0
   31.3790   28.5270   46.8340 N   0  0  0  0  0  0  0  0  0  0  0  0
   31.4070   27.0110   49.7970 H   0  0  0  0  0  0  0  0  0  0  0  0
   29.0420   27.7100   49.7180 H   0  0  0  0  0  0  0  0  0  0  0  0
   29.7730   29.4280   45.9420 H   0  0  0  0  0  0  0  0  0  0  0  0
  1  6  1  0  0  0  0
  2  8  1  0  0  0  0
  3  9  1  0  0  0  0
  3  2  2  0  0  0  0
  4  3  1  0  0  0  0
  5  4  2  0  0  0  0
  5  6  1  0  0  0  0
  6  7  2  0  0  0  0
  7  2  1  0  0  0  0
 10  4  1  0  0  0  0
 11 10  1  0  0  0  0
 12 11  2  0  0  0  0
 13 12  1  0  0  0  0
 14 12  1  0  0  0  0
 15 14  2  0  0  0  0
 15 16  1  0  0  0  0
 16 10  2  0  0  0  0
 17 18  1  0  0  0  0
 17  1  1  0  0  0  0
 19 17  1  0  0  0  0
 20 17  1  0  0  0  0
 20 21  1  0  0  0  0
 22 20  1  0  0  0  0
 23 20  1  0  0  0  0
 23 24  1  0  0  0  0
 24 29  1  0  0  0  0
 25 24  2  0  0  0  0
 25 30  1  0  0  0  0
 26 25  1  0  0  0  0
 27 26  2  0  0  0  0
 28 27  1  0  0  0  0
 28 23  2  0  0  0  0
 31 27  1  0  0  0  0
M  END
>  <minimizedAffinity>
-5.61076641

>  <minimizedRMSD>
0.767498732

$$$$
