
 OpenBabel03272510273D

 43 47  0  0  1  0  0  0  0  0999 V2000
   36.0940   30.2220   46.8550 C   0  0  0  0  0  0  0  0  0  0  0  0
   37.0460   30.7220   47.7430 C   0  0  0  0  0  0  0  0  0  0  0  0
   38.0890   31.5280   47.3020 C   0  0  0  0  0  0  0  0  0  0  0  0
   38.1250   31.8030   45.9390 C   0  0  0  0  0  0  0  0  0  0  0  0
   39.0440   32.5590   45.2710 N   0  0  0  0  0  0  0  0  0  0  0  0
   38.6840   32.5440   43.9800 C   0  0  0  0  0  0  0  0  0  0  0  0
   37.5980   31.8190   43.8240 N   0  0  0  0  0  0  0  0  0  0  0  0
   37.2090   31.3340   45.0280 C   0  0  0  0  0  0  0  0  0  0  0  0
   36.1680   30.5230   45.4990 C   0  0  0  0  0  0  0  0  0  0  0  0
   35.2770   29.5970   47.1670 H   0  0  0  0  0  0  0  0  0  0  0  0
   38.8180   31.9080   48.0010 H   0  0  0  0  0  0  0  0  0  0  0  0
   39.8690   33.0520   45.7130 H   0  0  0  0  0  0  0  0  0  0  0  0
   35.4600   30.1660   44.7630 H   0  0  0  0  0  0  0  0  0  0  0  0
   37.5870   30.2120   51.4220 C   0  0  0  0  0  0  0  0  0  0  0  0
   37.8270   30.6210   50.1230 C   0  0  0  0  0  0  0  0  0  0  0  0
   36.8900   30.3440   49.1340 C   0  0  0  0  0  0  0  0  0  0  0  0
   35.7570   29.6700   49.4980 N   0  0  0  0  0  0  0  0  0  0  0  0
   35.5360   29.2760   50.7770 C   0  0  0  0  0  0  0  0  0  0  0  0
   36.4280   29.5400   51.7080 N   0  0  0  0  0  0  0  0  0  0  0  0
   38.2960   30.4170   52.1870 H   0  0  0  0  0  0  0  0  0  0  0  0
   38.7250   31.1550   49.8380 H   0  0  0  0  0  0  0  0  0  0  0  0
   34.6000   28.7360   50.9910 H   0  0  0  0  0  0  0  0  0  0  0  0
   39.4200   33.2300   42.9990 O   0  0  0  0  0  0  0  0  0  0  0  0
   39.0910   31.4010   41.6720 N   0  0  0  0  0  0  0  0  0  0  0  0
   39.1330   32.8760   41.6530 C   0  0  1  0  0  0  0  0  0  0  0  0
   37.8380   33.3790   41.2110 C   0  0  0  0  0  0  0  0  0  0  0  0
   37.6310   32.9790   39.8780 O   0  0  0  0  0  0  0  0  0  0  0  0
   37.7280   31.6330   39.6550 C   0  0  0  0  0  0  0  0  0  0  0  0
   38.9310   31.0050   40.2880 C   0  0  1  0  0  0  0  0  0  0  0  0
   40.0430   31.1080   41.9890 H   0  0  0  0  0  0  0  0  0  0  0  0
   39.9170   33.2390   40.9790 H   0  0  0  0  0  0  0  0  0  0  0  0
   36.9120   33.1800   41.6770 H   0  0  0  0  0  0  0  0  0  0  0  0
   37.9230   34.5040   41.1270 H   0  0  0  0  0  0  0  0  0  0  0  0
   36.8250   31.1630   40.1200 H   0  0  0  0  0  0  0  0  0  0  0  0
   37.7590   31.4780   38.5660 H   0  0  0  0  0  0  0  0  0  0  0  0
   38.6950   29.9010   40.3400 H   0  0  0  0  0  0  0  0  0  0  0  0
   40.1730   31.1050   39.5200 C   0  0  0  0  0  0  0  0  0  0  0  0
   40.4670   31.7480   38.3520 C   0  0  0  0  0  3  0  0  0  0  0  0
   41.7320   31.7050   37.8010 C   0  0  0  0  0  0  0  0  0  0  0  0
   41.8380   32.2570   36.8690 H   0  0  0  0  0  0  0  0  0  0  0  0
   42.7440   31.0180   38.4000 N   0  0  0  0  0  0  0  0  0  0  0  0
   42.4250   30.3930   39.5500 C   0  0  0  0  0  3  0  0  0  0  0  0
   41.1860   30.4150   40.1240 N   0  0  0  0  0  0  0  0  0  0  0  0
  1 10  1  0  0  0  0
  1  2  1  0  0  0  0
  2 16  1  0  0  0  0
  3  2  2  0  0  0  0
  3 11  1  0  0  0  0
  4  3  1  0  0  0  0
  5 12  1  0  0  0  0
  5  4  1  0  0  0  0
  6  5  1  0  0  0  0
  7  6  2  0  0  0  0
  7  8  1  0  0  0  0
  8  9  1  0  0  0  0
  8  4  2  0  0  0  0
  9  1  2  0  0  0  0
 13  9  1  0  0  0  0
 14 19  1  0  0  0  0
 14 20  1  0  0  0  0
 15 14  2  0  0  0  0
 16 17  2  0  0  0  0
 16 15  1  0  0  0  0
 17 18  1  0  0  0  0
 18 22  1  0  0  0  0
 18 19  2  0  0  0  0
 21 15  1  0  0  0  0
 23  6  1  0  0  0  0
 24 30  1  0  0  0  0
 25 31  1  6  0  0  0
 25 24  1  0  0  0  0
 25 23  1  0  0  0  0
 26 25  1  0  0  0  0
 26 32  1  0  0  0  0
 27 26  1  0  0  0  0
 28 27  1  0  0  0  0
 28 34  1  0  0  0  0
 28 29  1  0  0  0  0
 29 36  1  1  0  0  0
 29 24  1  0  0  0  0
 33 26  1  0  0  0  0
 35 28  1  0  0  0  0
 37 43  1  0  0  0  0
 37 29  1  0  0  0  0
 38 37  2  0  0  0  0
 39 38  1  0  0  0  0
 39 41  2  0  0  0  0
 40 39  1  0  0  0  0
 41 42  1  0  0  0  0
 42 43  2  0  0  0  0
M  END
>  <minimizedAffinity>
-5.76439238

>  <minimizedRMSD>
0.751707017

$$$$
