
 OpenBabel03272501473D

 45 49  0  0  1  0  0  0  0  0999 V2000
   35.7730   28.2450   31.9940 C   0  0  0  0  0  0  0  0  0  0  0  0
   36.3960   28.4230   31.0890 H   0  0  0  0  0  0  0  0  0  0  0  0
   34.8350   27.7300   31.6670 H   0  0  0  0  0  0  0  0  0  0  0  0
   35.4200   29.5330   32.6490 C   0  0  1  0  0  0  0  0  0  0  0  0
   35.0270   30.5120   31.5610 C   0  0  0  0  0  0  0  0  0  0  0  0
   33.6260   30.9570   31.8220 C   0  0  0  0  0  0  0  0  0  0  0  0
   33.0380   29.8310   32.6390 C   0  0  0  0  0  0  0  0  0  0  0  0
   34.1990   29.4560   33.5320 C   0  0  2  0  0  0  0  0  0  0  0  0
   36.2560   29.9350   33.2810 H   0  0  0  0  0  0  0  0  0  0  0  0
   35.6980   31.4170   31.6200 H   0  0  0  0  0  0  0  0  0  0  0  0
   35.1910   30.1110   30.5490 H   0  0  0  0  0  0  0  0  0  0  0  0
   33.0770   31.0530   30.8570 H   0  0  0  0  0  0  0  0  0  0  0  0
   33.5760   31.9250   32.3530 H   0  0  0  0  0  0  0  0  0  0  0  0
   32.1550   30.1600   33.2210 H   0  0  0  0  0  0  0  0  0  0  0  0
   32.8020   28.9840   31.9900 H   0  0  0  0  0  0  0  0  0  0  0  0
   34.1130   28.4000   33.9050 H   0  0  0  0  0  0  0  0  0  0  0  0
   34.3420   30.3310   34.7100 C   0  0  0  0  0  0  0  0  0  0  0  0
   35.5870   30.8740   35.0510 C   0  0  0  0  0  3  0  0  0  0  0  0
   35.8000   31.7070   36.1480 C   0  0  0  0  0  0  0  0  0  0  0  0
   36.7600   32.1000   36.3730 H   0  0  0  0  0  0  0  0  0  0  0  0
   34.6790   31.9600   36.8850 N   0  0  0  0  0  0  0  0  0  0  0  0
   33.4870   31.4340   36.5490 C   0  0  0  0  0  3  0  0  0  0  0  0
   33.2760   30.6280   35.4920 N   0  0  0  0  0  0  0  0  0  0  0  0
   37.5320   25.2820   33.3460 C   0  0  0  0  0  0  0  0  0  0  0  0
   37.9280   25.7020   34.6200 C   0  0  0  0  0  0  0  0  0  0  0  0
   37.5790   27.0080   34.9940 C   0  0  0  0  0  0  0  0  0  0  0  0
   36.8960   27.7680   34.1180 N   0  0  0  0  0  0  0  0  0  0  0  0
   36.5260   27.3360   32.8920 C   0  0  0  0  0  0  0  0  0  0  0  0
   36.8530   26.0910   32.5250 N   0  0  0  0  0  0  0  0  0  0  0  0
   37.7270   24.3090   32.9200 H   0  0  0  0  0  0  0  0  0  0  0  0
   37.8890   27.3010   35.9600 H   0  0  0  0  0  0  0  0  0  0  0  0
   38.1360   24.4180   36.6550 C   0  0  0  0  0  0  0  0  0  0  0  0
   38.6530   24.7400   35.4090 C   0  0  0  0  0  0  0  0  0  0  0  0
   39.8190   24.1030   35.0440 C   0  0  0  0  0  0  0  0  0  0  0  0
   40.4190   23.1860   35.9130 C   0  0  0  0  0  0  0  0  0  0  0  0
   41.5190   22.4460   35.8180 N   0  0  0  0  0  0  0  0  0  0  0  0
   41.6860   21.7170   36.9090 C   0  0  0  0  0  0  0  0  0  0  0  0
   40.6570   21.9920   37.7470 N   0  0  0  0  0  0  0  0  0  0  0  0
   39.8730   22.8990   37.1350 C   0  0  0  0  0  0  0  0  0  0  0  0
   38.7190   23.5210   37.5120 C   0  0  0  0  0  0  0  0  0  0  0  0
   37.2160   24.8880   37.0040 H   0  0  0  0  0  0  0  0  0  0  0  0
   40.2320   24.3440   34.0770 H   0  0  0  0  0  0  0  0  0  0  0  0
   42.1580   22.4480   34.9870 H   0  0  0  0  0  0  0  0  0  0  0  0
   42.4870   21.0210   37.1230 H   0  0  0  0  0  0  0  0  0  0  0  0
   38.2720   23.3050   38.4770 H   0  0  0  0  0  0  0  0  0  0  0  0
  1  4  1  0  0  0  0
  1 28  1  0  0  0  0
  2  1  1  0  0  0  0
  3  1  1  0  0  0  0
  4  9  1  1  0  0  0
  4  8  1  0  0  0  0
  5 10  1  0  0  0  0
  5  6  1  0  0  0  0
  5  4  1  0  0  0  0
  6 13  1  0  0  0  0
  6  7  1  0  0  0  0
  7 14  1  0  0  0  0
  7  8  1  0  0  0  0
  8 16  1  1  0  0  0
  8 17  1  0  0  0  0
 11  5  1  0  0  0  0
 12  6  1  0  0  0  0
 15  7  1  0  0  0  0
 17 18  2  0  0  0  0
 17 23  1  0  0  0  0
 18 19  1  0  0  0  0
 19 20  1  0  0  0  0
 19 21  2  0  0  0  0
 22 21  1  0  0  0  0
 23 22  2  0  0  0  0
 24 25  1  0  0  0  0
 25 26  2  0  0  0  0
 25 33  1  0  0  0  0
 26 31  1  0  0  0  0
 27 26  1  0  0  0  0
 28 27  2  0  0  0  0
 29 28  1  0  0  0  0
 29 24  2  0  0  0  0
 30 24  1  0  0  0  0
 32 41  1  0  0  0  0
 32 40  1  0  0  0  0
 33 32  2  0  0  0  0
 34 33  1  0  0  0  0
 34 35  2  0  0  0  0
 35 39  1  0  0  0  0
 36 35  1  0  0  0  0
 36 37  1  0  0  0  0
 37 44  1  0  0  0  0
 37 38  2  0  0  0  0
 39 40  2  0  0  0  0
 39 38  1  0  0  0  0
 40 45  1  0  0  0  0
 42 34  1  0  0  0  0
 43 36  1  0  0  0  0
M  END
>  <minimizedAffinity>
-6.45707607

$$$$

 OpenBabel03272501473D

 45 49  0  0  1  0  0  0  0  0999 V2000
   37.8590   25.1720   32.6440 C   0  0  0  0  0  0  0  0  0  0  0  0
   37.2570   24.7990   31.7850 H   0  0  0  0  0  0  0  0  0  0  0  0
   38.8950   25.3730   32.2720 H   0  0  0  0  0  0  0  0  0  0  0  0
   37.9170   24.1530   33.7260 C   0  0  1  0  0  0  0  0  0  0  0  0
   37.5460   22.8140   33.1200 C   0  0  0  0  0  0  0  0  0  0  0  0
   38.6930   21.8800   33.3230 C   0  0  0  0  0  0  0  0  0  0  0  0
   39.8820   22.7980   33.4700 C   0  0  0  0  0  0  0  0  0  0  0  0
   39.3010   23.9310   34.2840 C   0  0  2  0  0  0  0  0  0  0  0  0
   37.2520   24.4100   34.5920 H   0  0  0  0  0  0  0  0  0  0  0  0
   36.6530   22.3960   33.6690 H   0  0  0  0  0  0  0  0  0  0  0  0
   37.2140   22.8990   32.0740 H   0  0  0  0  0  0  0  0  0  0  0  0
   38.8170   21.2380   32.4200 H   0  0  0  0  0  0  0  0  0  0  0  0
   38.5610   21.2260   34.2040 H   0  0  0  0  0  0  0  0  0  0  0  0
   40.7260   22.3020   33.9890 H   0  0  0  0  0  0  0  0  0  0  0  0
   40.1800   23.1810   32.4910 H   0  0  0  0  0  0  0  0  0  0  0  0
   39.8810   24.8830   34.1470 H   0  0  0  0  0  0  0  0  0  0  0  0
   39.2490   23.6510   35.7310 C   0  0  0  0  0  0  0  0  0  0  0  0
   38.1870   24.1200   36.5130 C   0  0  0  0  0  3  0  0  0  0  0  0
   38.0700   23.8950   37.8840 C   0  0  0  0  0  0  0  0  0  0  0  0
   37.2470   24.2690   38.4420 H   0  0  0  0  0  0  0  0  0  0  0  0
   39.0910   23.1670   38.4220 N   0  0  0  0  0  0  0  0  0  0  0  0
   40.1070   22.7210   37.6620 C   0  0  0  0  0  3  0  0  0  0  0  0
   40.2270   22.9350   36.3380 N   0  0  0  0  0  0  0  0  0  0  0  0
   36.7780   28.0050   34.7670 C   0  0  0  0  0  0  0  0  0  0  0  0
   36.1240   28.8470   33.8630 C   0  0  0  0  0  0  0  0  0  0  0  0
   36.0650   28.4220   32.5280 C   0  0  0  0  0  0  0  0  0  0  0  0
   36.6340   27.2460   32.2010 N   0  0  0  0  0  0  0  0  0  0  0  0
   37.2610   26.4510   33.0970 C   0  0  0  0  0  0  0  0  0  0  0  0
   37.3220   26.8480   34.3740 N   0  0  0  0  0  0  0  0  0  0  0  0
   36.9030   28.1980   35.8220 H   0  0  0  0  0  0  0  0  0  0  0  0
   35.5660   29.0750   31.8640 H   0  0  0  0  0  0  0  0  0  0  0  0
   34.8840   30.8950   33.5430 C   0  0  0  0  0  0  0  0  0  0  0  0
   35.5790   30.0640   34.4070 C   0  0  0  0  0  0  0  0  0  0  0  0
   35.6820   30.4870   35.7150 C   0  0  0  0  0  0  0  0  0  0  0  0
   35.1030   31.6960   36.1100 C   0  0  0  0  0  0  0  0  0  0  0  0
   35.0500   32.3280   37.2780 N   0  0  0  0  0  0  0  0  0  0  0  0
   34.3800   33.4620   37.1640 C   0  0  0  0  0  0  0  0  0  0  0  0
   33.9800   33.5750   35.8740 N   0  0  0  0  0  0  0  0  0  0  0  0
   34.4240   32.4860   35.2210 C   0  0  0  0  0  0  0  0  0  0  0  0
   34.3130   32.0820   33.9220 C   0  0  0  0  0  0  0  0  0  0  0  0
   34.7670   30.6190   32.4940 H   0  0  0  0  0  0  0  0  0  0  0  0
   36.2210   29.8490   36.3990 H   0  0  0  0  0  0  0  0  0  0  0  0
   35.4850   31.9680   38.1610 H   0  0  0  0  0  0  0  0  0  0  0  0
   34.1720   34.1900   37.9390 H   0  0  0  0  0  0  0  0  0  0  0  0
   33.7790   32.6950   33.2040 H   0  0  0  0  0  0  0  0  0  0  0  0
  1 28  1  0  0  0  0
  1  4  1  0  0  0  0
  2  1  1  0  0  0  0
  3  1  1  0  0  0  0
  4  8  1  0  0  0  0
  4  9  1  1  0  0  0
  5  6  1  0  0  0  0
  5 10  1  0  0  0  0
  5  4  1  0  0  0  0
  6  7  1  0  0  0  0
  6 13  1  0  0  0  0
  7 14  1  0  0  0  0
  7  8  1  0  0  0  0
  8 16  1  6  0  0  0
  8 17  1  0  0  0  0
 11  5  1  0  0  0  0
 12  6  1  0  0  0  0
 15  7  1  0  0  0  0
 17 23  2  0  0  0  0
 17 18  1  0  0  0  0
 18 19  2  0  0  0  0
 19 21  1  0  0  0  0
 19 20  1  0  0  0  0
 22 21  2  0  0  0  0
 23 22  1  0  0  0  0
 24 30  1  0  0  0  0
 25 33  1  0  0  0  0
 25 24  2  0  0  0  0
 26 25  1  0  0  0  0
 27 26  2  0  0  0  0
 27 28  1  0  0  0  0
 28 29  2  0  0  0  0
 29 24  1  0  0  0  0
 31 26  1  0  0  0  0
 32 40  2  0  0  0  0
 32 33  1  0  0  0  0
 33 34  2  0  0  0  0
 34 35  1  0  0  0  0
 34 42  1  0  0  0  0
 35 36  1  0  0  0  0
 36 43  1  0  0  0  0
 37 36  1  0  0  0  0
 37 44  1  0  0  0  0
 38 37  2  0  0  0  0
 39 38  1  0  0  0  0
 39 35  2  0  0  0  0
 40 39  1  0  0  0  0
 41 32  1  0  0  0  0
 45 40  1  0  0  0  0
M  END
>  <minimizedAffinity>
-6.16304159

$$$$

 OpenBabel03272501473D

 45 49  0  0  1  0  0  0  0  0999 V2000
   40.0870   25.0860   35.2870 C   0  0  0  0  0  0  0  0  0  0  0  0
   40.9820   25.1780   34.6310 H   0  0  0  0  0  0  0  0  0  0  0  0
   40.3910   25.3860   36.3220 H   0  0  0  0  0  0  0  0  0  0  0  0
   39.5970   23.6820   35.3100 C   0  0  1  0  0  0  0  0  0  0  0  0
   40.7330   22.8030   35.7920 C   0  0  0  0  0  0  0  0  0  0  0  0
   40.2810   22.0990   37.0290 C   0  0  0  0  0  0  0  0  0  0  0  0
   39.1920   22.9920   37.5730 C   0  0  0  0  0  0  0  0  0  0  0  0
   38.4930   23.4360   36.3090 C   0  0  2  0  0  0  0  0  0  0  0  0
   39.2140   23.3470   34.3100 H   0  0  0  0  0  0  0  0  0  0  0  0
   40.9540   22.0240   35.0070 H   0  0  0  0  0  0  0  0  0  0  0  0
   41.6780   23.3560   35.9090 H   0  0  0  0  0  0  0  0  0  0  0  0
   41.1230   22.0400   37.7560 H   0  0  0  0  0  0  0  0  0  0  0  0
   39.9160   21.0740   36.8290 H   0  0  0  0  0  0  0  0  0  0  0  0
   38.5110   22.4460   38.2560 H   0  0  0  0  0  0  0  0  0  0  0  0
   39.6350   23.8650   38.0590 H   0  0  0  0  0  0  0  0  0  0  0  0
   37.9420   24.4040   36.4550 H   0  0  0  0  0  0  0  0  0  0  0  0
   37.5240   22.4500   35.7950 C   0  0  0  0  0  0  0  0  0  0  0  0
   37.5210   22.0890   34.4420 C   0  0  0  0  0  3  0  0  0  0  0  0
   36.6370   21.1660   33.8840 C   0  0  0  0  0  0  0  0  0  0  0  0
   36.6670   20.9190   32.8510 H   0  0  0  0  0  0  0  0  0  0  0  0
   35.7540   20.6280   34.7730 N   0  0  0  0  0  0  0  0  0  0  0  0
   35.7650   20.9810   36.0710 C   0  0  0  0  0  3  0  0  0  0  0  0
   36.6150   21.8720   36.6160 N   0  0  0  0  0  0  0  0  0  0  0  0
   37.5850   27.8100   35.1450 C   0  0  0  0  0  0  0  0  0  0  0  0
   37.1640   27.7840   33.8130 C   0  0  0  0  0  0  0  0  0  0  0  0
   37.7520   26.8220   32.9800 C   0  0  0  0  0  0  0  0  0  0  0  0
   38.6740   25.9930   33.5040 N   0  0  0  0  0  0  0  0  0  0  0  0
   39.0640   26.0410   34.7980 C   0  0  0  0  0  0  0  0  0  0  0  0
   38.5080   26.9550   35.6020 N   0  0  0  0  0  0  0  0  0  0  0  0
   37.2250   28.4910   35.9020 H   0  0  0  0  0  0  0  0  0  0  0  0
   37.4170   26.8220   31.9780 H   0  0  0  0  0  0  0  0  0  0  0  0
   35.3430   29.2380   34.4490 C   0  0  0  0  0  0  0  0  0  0  0  0
   36.1660   28.7540   33.4430 C   0  0  0  0  0  0  0  0  0  0  0  0
   35.9460   29.2530   32.1770 C   0  0  0  0  0  0  0  0  0  0  0  0
   34.9380   30.1960   31.9590 C   0  0  0  0  0  0  0  0  0  0  0  0
   34.5200   30.8290   30.8680 N   0  0  0  0  0  0  0  0  0  0  0  0
   33.5190   31.6440   31.1550 C   0  0  0  0  0  0  0  0  0  0  0  0
   33.2750   31.5390   32.4850 N   0  0  0  0  0  0  0  0  0  0  0  0
   34.1490   30.6460   32.9840 C   0  0  0  0  0  0  0  0  0  0  0  0
   34.3530   30.1630   34.2430 C   0  0  0  0  0  0  0  0  0  0  0  0
   35.4640   28.8840   35.4730 H   0  0  0  0  0  0  0  0  0  0  0  0
   36.5800   28.8850   31.3850 H   0  0  0  0  0  0  0  0  0  0  0  0
   34.9340   30.6920   29.9150 H   0  0  0  0  0  0  0  0  0  0  0  0
   32.9740   32.2880   30.4770 H   0  0  0  0  0  0  0  0  0  0  0  0
   33.7370   30.5080   35.0670 H   0  0  0  0  0  0  0  0  0  0  0  0
  1  4  1  0  0  0  0
  1  3  1  0  0  0  0
  2  1  1  0  0  0  0
  4  9  1  6  0  0  0
  4  5  1  0  0  0  0
  4  8  1  0  0  0  0
  5 11  1  0  0  0  0
  5  6  1  0  0  0  0
  6  7  1  0  0  0  0
  6 12  1  0  0  0  0
  7 15  1  0  0  0  0
  7 14  1  0  0  0  0
  8 16  1  1  0  0  0
  8  7  1  0  0  0  0
 10  5  1  0  0  0  0
 13  6  1  0  0  0  0
 17  8  1  0  0  0  0
 17 23  1  0  0  0  0
 18 17  2  0  0  0  0
 19 18  1  0  0  0  0
 19 21  2  0  0  0  0
 20 19  1  0  0  0  0
 21 22  1  0  0  0  0
 22 23  2  0  0  0  0
 24 29  1  0  0  0  0
 24 30  1  0  0  0  0
 25 24  2  0  0  0  0
 26 27  2  0  0  0  0
 26 25  1  0  0  0  0
 27 28  1  0  0  0  0
 28  1  1  0  0  0  0
 28 29  2  0  0  0  0
 31 26  1  0  0  0  0
 32 41  1  0  0  0  0
 33 25  1  0  0  0  0
 33 32  2  0  0  0  0
 34 33  1  0  0  0  0
 35 34  2  0  0  0  0
 35 39  1  0  0  0  0
 36 37  1  0  0  0  0
 36 35  1  0  0  0  0
 37 38  2  0  0  0  0
 38 39  1  0  0  0  0
 39 40  2  0  0  0  0
 40 32  1  0  0  0  0
 40 45  1  0  0  0  0
 42 34  1  0  0  0  0
 43 36  1  0  0  0  0
 44 37  1  0  0  0  0
M  END
>  <minimizedAffinity>
-6.09456396

$$$$

 OpenBabel03272501473D

 45 49  0  0  1  0  0  0  0  0999 V2000
   36.3740   28.4340   32.1800 C   0  0  0  0  0  0  0  0  0  0  0  0
   37.3600   28.7130   32.6140 H   0  0  0  0  0  0  0  0  0  0  0  0
   36.3060   28.8960   31.1620 H   0  0  0  0  0  0  0  0  0  0  0  0
   35.2640   28.9500   33.0250 C   0  0  1  0  0  0  0  0  0  0  0  0
   35.8360   29.2720   34.3920 C   0  0  0  0  0  0  0  0  0  0  0  0
   35.6000   30.7210   34.6630 C   0  0  0  0  0  0  0  0  0  0  0  0
   35.4700   31.3270   33.2860 C   0  0  0  0  0  0  0  0  0  0  0  0
   34.6910   30.2630   32.5500 C   0  0  2  0  0  0  0  0  0  0  0  0
   34.4090   28.2270   33.0970 H   0  0  0  0  0  0  0  0  0  0  0  0
   35.2810   28.6750   35.1730 H   0  0  0  0  0  0  0  0  0  0  0  0
   36.8860   28.9590   34.4980 H   0  0  0  0  0  0  0  0  0  0  0  0
   36.4840   31.1530   35.1870 H   0  0  0  0  0  0  0  0  0  0  0  0
   34.7020   30.9000   35.2820 H   0  0  0  0  0  0  0  0  0  0  0  0
   34.9330   32.2960   33.3100 H   0  0  0  0  0  0  0  0  0  0  0  0
   36.4580   31.4250   32.8290 H   0  0  0  0  0  0  0  0  0  0  0  0
   34.8510   30.3230   31.4400 H   0  0  0  0  0  0  0  0  0  0  0  0
   33.2380   30.3230   32.7910 C   0  0  0  0  0  0  0  0  0  0  0  0
   32.5150   29.1650   33.1000 C   0  0  0  0  0  3  0  0  0  0  0  0
   31.1420   29.1440   33.3400 C   0  0  0  0  0  0  0  0  0  0  0  0
   30.6290   28.2440   33.5720 H   0  0  0  0  0  0  0  0  0  0  0  0
   30.5380   30.3650   33.2480 N   0  0  0  0  0  0  0  0  0  0  0  0
   31.2420   31.4720   32.9510 C   0  0  0  0  0  3  0  0  0  0  0  0
   32.5670   31.4990   32.7170 N   0  0  0  0  0  0  0  0  0  0  0  0
   37.1390   24.8330   32.5660 C   0  0  0  0  0  0  0  0  0  0  0  0
   36.2210   24.2200   31.7080 C   0  0  0  0  0  0  0  0  0  0  0  0
   35.3480   25.0640   31.0060 C   0  0  0  0  0  0  0  0  0  0  0  0
   35.4430   26.3930   31.1970 N   0  0  0  0  0  0  0  0  0  0  0  0
   36.3420   26.9590   32.0340 C   0  0  0  0  0  0  0  0  0  0  0  0
   37.1800   26.1630   32.7080 N   0  0  0  0  0  0  0  0  0  0  0  0
   37.8710   24.3170   33.1700 H   0  0  0  0  0  0  0  0  0  0  0  0
   34.6640   24.5770   30.3640 H   0  0  0  0  0  0  0  0  0  0  0  0
   37.3680   22.2150   31.0030 C   0  0  0  0  0  0  0  0  0  0  0  0
   36.2750   22.7830   31.6410 C   0  0  0  0  0  0  0  0  0  0  0  0
   35.3410   21.9090   32.1530 C   0  0  0  0  0  0  0  0  0  0  0  0
   35.5210   20.5300   32.0160 C   0  0  0  0  0  0  0  0  0  0  0  0
   34.7960   19.4860   32.4050 N   0  0  0  0  0  0  0  0  0  0  0  0
   35.3770   18.3540   32.0460 C   0  0  0  0  0  0  0  0  0  0  0  0
   36.5250   18.6710   31.3980 N   0  0  0  0  0  0  0  0  0  0  0  0
   36.6170   20.0130   31.3780 C   0  0  0  0  0  0  0  0  0  0  0  0
   37.5510   20.8640   30.8650 C   0  0  0  0  0  0  0  0  0  0  0  0
   38.1440   22.8510   30.5750 H   0  0  0  0  0  0  0  0  0  0  0  0
   34.4860   22.3370   32.6520 H   0  0  0  0  0  0  0  0  0  0  0  0
   33.8880   19.5620   32.9240 H   0  0  0  0  0  0  0  0  0  0  0  0
   35.0260   17.3440   32.2210 H   0  0  0  0  0  0  0  0  0  0  0  0
   38.4260   20.4720   30.3560 H   0  0  0  0  0  0  0  0  0  0  0  0
  1  2  1  0  0  0  0
  1  4  1  0  0  0  0
  3  1  1  0  0  0  0
  4  9  1  1  0  0  0
  4  5  1  0  0  0  0
  5 11  1  0  0  0  0
  5  6  1  0  0  0  0
  5 10  1  0  0  0  0
  6 12  1  0  0  0  0
  6 13  1  0  0  0  0
  7 14  1  0  0  0  0
  7  6  1  0  0  0  0
  8 16  1  6  0  0  0
  8 17  1  0  0  0  0
  8  4  1  0  0  0  0
  8  7  1  0  0  0  0
 15  7  1  0  0  0  0
 17 18  1  0  0  0  0
 18 19  2  0  0  0  0
 19 20  1  0  0  0  0
 21 19  1  0  0  0  0
 22 21  2  0  0  0  0
 23 17  2  0  0  0  0
 23 22  1  0  0  0  0
 24 29  1  0  0  0  0
 24 30  1  0  0  0  0
 25 24  2  0  0  0  0
 26 27  2  0  0  0  0
 26 25  1  0  0  0  0
 27 28  1  0  0  0  0
 28  1  1  0  0  0  0
 28 29  2  0  0  0  0
 31 26  1  0  0  0  0
 32 33  1  0  0  0  0
 33 25  1  0  0  0  0
 33 34  2  0  0  0  0
 34 42  1  0  0  0  0
 35 34  1  0  0  0  0
 35 36  1  0  0  0  0
 36 43  1  0  0  0  0
 37 44  1  0  0  0  0
 37 36  1  0  0  0  0
 38 37  2  0  0  0  0
 39 38  1  0  0  0  0
 39 35  2  0  0  0  0
 40 32  2  0  0  0  0
 40 39  1  0  0  0  0
 41 32  1  0  0  0  0
 45 40  1  0  0  0  0
M  END
>  <minimizedAffinity>
-6.06578207

$$$$

 OpenBabel03272501473D

 45 49  0  0  1  0  0  0  0  0999 V2000
   35.1870   29.3850   31.8870 C   0  0  0  0  0  0  0  0  0  0  0  0
   35.9200   29.9890   31.3070 H   0  0  0  0  0  0  0  0  0  0  0  0
   34.5070   28.8780   31.1550 H   0  0  0  0  0  0  0  0  0  0  0  0
   34.3790   30.2580   32.7800 C   0  0  1  0  0  0  0  0  0  0  0  0
   33.4600   31.0880   31.9070 C   0  0  0  0  0  0  0  0  0  0  0  0
   32.0510   30.7940   32.3070 C   0  0  0  0  0  0  0  0  0  0  0  0
   32.1330   29.4220   32.9300 C   0  0  0  0  0  0  0  0  0  0  0  0
   33.4390   29.5020   33.6870 C   0  0  2  0  0  0  0  0  0  0  0  0
   35.0180   30.9050   33.4370 H   0  0  0  0  0  0  0  0  0  0  0  0
   33.6570   32.1820   32.1000 H   0  0  0  0  0  0  0  0  0  0  0  0
   33.6600   30.9560   30.8330 H   0  0  0  0  0  0  0  0  0  0  0  0
   31.4030   30.7630   31.4000 H   0  0  0  0  0  0  0  0  0  0  0  0
   31.6390   31.5450   33.0070 H   0  0  0  0  0  0  0  0  0  0  0  0
   31.2750   29.2200   33.6000 H   0  0  0  0  0  0  0  0  0  0  0  0
   32.2230   28.6630   32.1480 H   0  0  0  0  0  0  0  0  0  0  0  0
   33.8800   28.4850   33.8650 H   0  0  0  0  0  0  0  0  0  0  0  0
   33.3200   30.1680   34.9980 C   0  0  0  0  0  0  0  0  0  0  0  0
   32.2780   29.8410   35.8740 C   0  0  0  0  0  3  0  0  0  0  0  0
   32.1000   30.4280   37.1260 C   0  0  0  0  0  0  0  0  0  0  0  0
   31.2950   30.1520   37.7620 H   0  0  0  0  0  0  0  0  0  0  0  0
   33.0390   31.3660   37.4440 N   0  0  0  0  0  0  0  0  0  0  0  0
   34.0370   31.6720   36.5950 C   0  0  0  0  0  3  0  0  0  0  0  0
   34.2130   31.1100   35.3850 N   0  0  0  0  0  0  0  0  0  0  0  0
   37.0400   27.5970   34.5460 C   0  0  0  0  0  0  0  0  0  0  0  0
   37.3380   26.3670   33.9520 C   0  0  0  0  0  0  0  0  0  0  0  0
   36.8940   26.1730   32.6360 C   0  0  0  0  0  0  0  0  0  0  0  0
   36.2160   27.1670   32.0320 N   0  0  0  0  0  0  0  0  0  0  0  0
   35.9400   28.3480   32.6310 C   0  0  0  0  0  0  0  0  0  0  0  0
   36.3610   28.5430   33.8870 N   0  0  0  0  0  0  0  0  0  0  0  0
   37.3140   27.8900   35.5480 H   0  0  0  0  0  0  0  0  0  0  0  0
   37.1320   25.2370   32.2090 H   0  0  0  0  0  0  0  0  0  0  0  0
   39.1440   24.7780   34.1710 C   0  0  0  0  0  0  0  0  0  0  0  0
   38.0740   25.4320   34.7620 C   0  0  0  0  0  0  0  0  0  0  0  0
   37.8170   25.1200   36.0800 C   0  0  0  0  0  0  0  0  0  0  0  0
   38.6170   24.1900   36.7500 C   0  0  0  0  0  0  0  0  0  0  0  0
   38.5940   23.7140   37.9910 N   0  0  0  0  0  0  0  0  0  0  0  0
   39.5660   22.8350   38.1720 C   0  0  0  0  0  0  0  0  0  0  0  0
   40.2480   22.7330   37.0050 N   0  0  0  0  0  0  0  0  0  0  0  0
   39.6640   23.5680   36.1250 C   0  0  0  0  0  0  0  0  0  0  0  0
   39.9330   23.8650   34.8210 C   0  0  0  0  0  0  0  0  0  0  0  0
   39.4010   24.9790   33.1300 H   0  0  0  0  0  0  0  0  0  0  0  0
   36.9870   25.6220   36.5530 H   0  0  0  0  0  0  0  0  0  0  0  0
   37.8960   24.0030   38.7180 H   0  0  0  0  0  0  0  0  0  0  0  0
   39.7990   22.2820   39.0730 H   0  0  0  0  0  0  0  0  0  0  0  0
   40.7590   23.3820   34.3100 H   0  0  0  0  0  0  0  0  0  0  0  0
  1 28  1  0  0  0  0
  1  4  1  0  0  0  0
  2  1  1  0  0  0  0
  3  1  1  0  0  0  0
  4  9  1  1  0  0  0
  4  8  1  0  0  0  0
  5 10  1  0  0  0  0
  5  6  1  0  0  0  0
  5  4  1  0  0  0  0
  6  7  1  0  0  0  0
  6 13  1  0  0  0  0
  7 14  1  0  0  0  0
  7  8  1  0  0  0  0
  8 16  1  1  0  0  0
  8 17  1  0  0  0  0
 11  5  1  0  0  0  0
 12  6  1  0  0  0  0
 15  7  1  0  0  0  0
 17 23  2  0  0  0  0
 17 18  1  0  0  0  0
 18 19  2  0  0  0  0
 19 21  1  0  0  0  0
 19 20  1  0  0  0  0
 22 21  2  0  0  0  0
 23 22  1  0  0  0  0
 24 30  1  0  0  0  0
 25 24  1  0  0  0  0
 25 33  1  0  0  0  0
 26 25  2  0  0  0  0
 27 28  2  0  0  0  0
 27 26  1  0  0  0  0
 28 29  1  0  0  0  0
 29 24  2  0  0  0  0
 31 26  1  0  0  0  0
 32 33  2  0  0  0  0
 32 40  1  0  0  0  0
 33 34  1  0  0  0  0
 34 42  1  0  0  0  0
 34 35  2  0  0  0  0
 35 36  1  0  0  0  0
 36 37  1  0  0  0  0
 36 43  1  0  0  0  0
 37 44  1  0  0  0  0
 38 37  2  0  0  0  0
 39 35  1  0  0  0  0
 39 38  1  0  0  0  0
 40 39  2  0  0  0  0
 41 32  1  0  0  0  0
 45 40  1  0  0  0  0
M  END
>  <minimizedAffinity>
-6.05433941

$$$$

 OpenBabel03272501473D

 45 49  0  0  1  0  0  0  0  0999 V2000
   35.7760   28.7270   32.5030 C   0  0  0  0  0  0  0  0  0  0  0  0
   36.5180   29.3820   31.9920 H   0  0  0  0  0  0  0  0  0  0  0  0
   35.2060   28.1760   31.7120 H   0  0  0  0  0  0  0  0  0  0  0  0
   34.8290   29.5390   33.3120 C   0  0  1  0  0  0  0  0  0  0  0  0
   35.2810   30.9840   33.2420 C   0  0  0  0  0  0  0  0  0  0  0  0
   34.1670   31.7900   32.6600 C   0  0  0  0  0  0  0  0  0  0  0  0
   33.3710   30.7820   31.8660 C   0  0  0  0  0  0  0  0  0  0  0  0
   33.4240   29.5680   32.7640 C   0  0  2  0  0  0  0  0  0  0  0  0
   34.7590   29.1820   34.3740 H   0  0  0  0  0  0  0  0  0  0  0  0
   35.4770   31.3600   34.2880 H   0  0  0  0  0  0  0  0  0  0  0  0
   36.2430   31.1030   32.7200 H   0  0  0  0  0  0  0  0  0  0  0  0
   34.5840   32.5680   31.9790 H   0  0  0  0  0  0  0  0  0  0  0  0
   33.5530   32.2900   33.4310 H   0  0  0  0  0  0  0  0  0  0  0  0
   32.3330   31.1240   31.6870 H   0  0  0  0  0  0  0  0  0  0  0  0
   33.8890   30.5540   30.9300 H   0  0  0  0  0  0  0  0  0  0  0  0
   33.2620   28.6170   32.1880 H   0  0  0  0  0  0  0  0  0  0  0  0
   32.4310   29.5980   33.8540 C   0  0  0  0  0  0  0  0  0  0  0  0
   32.7970   29.2670   35.1640 C   0  0  0  0  0  3  0  0  0  0  0  0
   31.9160   29.2730   36.2450 C   0  0  0  0  0  0  0  0  0  0  0  0
   32.2330   29.0150   37.2250 H   0  0  0  0  0  0  0  0  0  0  0  0
   30.6390   29.6330   35.9240 N   0  0  0  0  0  0  0  0  0  0  0  0
   30.2980   29.9490   34.6620 C   0  0  0  0  0  3  0  0  0  0  0  0
   31.1430   29.9450   33.6150 N   0  0  0  0  0  0  0  0  0  0  0  0
   37.5250   25.6540   33.5970 C   0  0  0  0  0  0  0  0  0  0  0  0
   37.9260   25.9640   34.9000 C   0  0  0  0  0  0  0  0  0  0  0  0
   37.5840   27.2350   35.3830 C   0  0  0  0  0  0  0  0  0  0  0  0
   36.9010   28.0690   34.5770 N   0  0  0  0  0  0  0  0  0  0  0  0
   36.5270   27.7430   33.3190 C   0  0  0  0  0  0  0  0  0  0  0  0
   36.8470   26.5310   32.8480 N   0  0  0  0  0  0  0  0  0  0  0  0
   37.7150   24.7190   33.0910 H   0  0  0  0  0  0  0  0  0  0  0  0
   37.8970   27.4450   36.3700 H   0  0  0  0  0  0  0  0  0  0  0  0
   38.1130   24.4860   36.8020 C   0  0  0  0  0  0  0  0  0  0  0  0
   38.6480   24.9360   35.6040 C   0  0  0  0  0  0  0  0  0  0  0  0
   39.8290   24.3510   35.2010 C   0  0  0  0  0  0  0  0  0  0  0  0
   40.4240   23.3590   35.9860 C   0  0  0  0  0  0  0  0  0  0  0  0
   41.5350   22.6440   35.8400 N   0  0  0  0  0  0  0  0  0  0  0  0
   41.6910   21.8120   36.8560 C   0  0  0  0  0  0  0  0  0  0  0  0
   40.6430   21.9910   37.6970 N   0  0  0  0  0  0  0  0  0  0  0  0
   39.8590   22.9450   37.1630 C   0  0  0  0  0  0  0  0  0  0  0  0
   38.6910   23.5140   37.5760 C   0  0  0  0  0  0  0  0  0  0  0  0
   37.1800   24.9090   37.1780 H   0  0  0  0  0  0  0  0  0  0  0  0
   40.2560   24.6910   34.2710 H   0  0  0  0  0  0  0  0  0  0  0  0
   42.1900   22.7360   35.0270 H   0  0  0  0  0  0  0  0  0  0  0  0
   42.4970   21.1060   37.0160 H   0  0  0  0  0  0  0  0  0  0  0  0
   38.2290   23.1990   38.5060 H   0  0  0  0  0  0  0  0  0  0  0  0
  1  4  1  0  0  0  0
  1 28  1  0  0  0  0
  2  1  1  0  0  0  0
  3  1  1  0  0  0  0
  4  9  1  1  0  0  0
  5  4  1  0  0  0  0
  5 10  1  0  0  0  0
  6  5  1  0  0  0  0
  6 13  1  0  0  0  0
  7  6  1  0  0  0  0
  7  8  1  0  0  0  0
  8 16  1  6  0  0  0
  8  4  1  0  0  0  0
  8 17  1  0  0  0  0
 11  5  1  0  0  0  0
 12  6  1  0  0  0  0
 14  7  1  0  0  0  0
 15  7  1  0  0  0  0
 17 18  1  0  0  0  0
 18 19  2  0  0  0  0
 19 20  1  0  0  0  0
 21 19  1  0  0  0  0
 22 21  2  0  0  0  0
 23 17  2  0  0  0  0
 23 22  1  0  0  0  0
 24 25  1  0  0  0  0
 25 26  2  0  0  0  0
 25 33  1  0  0  0  0
 26 31  1  0  0  0  0
 27 26  1  0  0  0  0
 28 27  2  0  0  0  0
 29 28  1  0  0  0  0
 29 24  2  0  0  0  0
 30 24  1  0  0  0  0
 32 41  1  0  0  0  0
 32 40  1  0  0  0  0
 33 32  2  0  0  0  0
 34 33  1  0  0  0  0
 34 35  2  0  0  0  0
 35 39  1  0  0  0  0
 36 35  1  0  0  0  0
 36 37  1  0  0  0  0
 37 44  1  0  0  0  0
 37 38  2  0  0  0  0
 39 40  2  0  0  0  0
 39 38  1  0  0  0  0
 40 45  1  0  0  0  0
 42 34  1  0  0  0  0
 43 36  1  0  0  0  0
M  END
>  <minimizedAffinity>
-5.97433424

$$$$

 OpenBabel03272501473D

 45 49  0  0  1  0  0  0  0  0999 V2000
   35.9810   29.7290   33.1890 C   0  0  0  0  0  0  0  0  0  0  0  0
   36.9930   30.1820   33.2920 H   0  0  0  0  0  0  0  0  0  0  0  0
   35.4400   30.2840   32.3810 H   0  0  0  0  0  0  0  0  0  0  0  0
   35.2200   29.8530   34.4610 C   0  0  1  0  0  0  0  0  0  0  0  0
   36.1660   30.3930   35.5150 C   0  0  0  0  0  0  0  0  0  0  0  0
   35.6040   31.6780   36.0280 C   0  0  0  0  0  0  0  0  0  0  0  0
   34.7250   32.1610   34.8990 C   0  0  0  0  0  0  0  0  0  0  0  0
   34.1070   30.8710   34.4120 C   0  0  2  0  0  0  0  0  0  0  0  0
   34.7610   28.8800   34.7810 H   0  0  0  0  0  0  0  0  0  0  0  0
   36.2140   29.6640   36.3750 H   0  0  0  0  0  0  0  0  0  0  0  0
   37.2040   30.4670   35.1570 H   0  0  0  0  0  0  0  0  0  0  0  0
   36.4300   32.4040   36.2040 H   0  0  0  0  0  0  0  0  0  0  0  0
   35.0390   31.5520   36.9690 H   0  0  0  0  0  0  0  0  0  0  0  0
   33.9610   32.8830   35.2490 H   0  0  0  0  0  0  0  0  0  0  0  0
   35.3430   32.5820   34.1010 H   0  0  0  0  0  0  0  0  0  0  0  0
   33.7640   30.9500   33.3450 H   0  0  0  0  0  0  0  0  0  0  0  0
   32.9520   30.4300   35.2160 C   0  0  0  0  0  0  0  0  0  0  0  0
   32.0480   31.3620   35.7390 C   0  0  0  0  0  3  0  0  0  0  0  0
   30.9360   31.0220   36.5090 C   0  0  0  0  0  0  0  0  0  0  0  0
   30.2730   31.7600   36.8880 H   0  0  0  0  0  0  0  0  0  0  0  0
   30.7890   29.6810   36.7190 N   0  0  0  0  0  0  0  0  0  0  0  0
   31.6640   28.7940   36.2110 C   0  0  0  0  0  3  0  0  0  0  0  0
   32.7400   29.1160   35.4700 N   0  0  0  0  0  0  0  0  0  0  0  0
   37.0360   26.1830   33.0720 C   0  0  0  0  0  0  0  0  0  0  0  0
   36.4320   25.7110   31.9030 C   0  0  0  0  0  0  0  0  0  0  0  0
   35.6680   26.6290   31.1690 C   0  0  0  0  0  0  0  0  0  0  0  0
   35.5600   27.8910   31.6270 N   0  0  0  0  0  0  0  0  0  0  0  0
   36.1550   28.3200   32.7630 C   0  0  0  0  0  0  0  0  0  0  0  0
   36.8880   27.4520   33.4700 N   0  0  0  0  0  0  0  0  0  0  0  0
   37.6510   25.5970   33.7380 H   0  0  0  0  0  0  0  0  0  0  0  0
   35.2220   26.2490   30.2900 H   0  0  0  0  0  0  0  0  0  0  0  0
   37.9490   23.9700   31.1960 C   0  0  0  0  0  0  0  0  0  0  0  0
   36.6660   24.3280   31.5810 C   0  0  0  0  0  0  0  0  0  0  0  0
   35.7320   23.3150   31.6190 C   0  0  0  0  0  0  0  0  0  0  0  0
   36.0980   22.0090   31.2800 C   0  0  0  0  0  0  0  0  0  0  0  0
   35.4170   20.8690   31.2310 N   0  0  0  0  0  0  0  0  0  0  0  0
   36.1990   19.8740   30.8480 C   0  0  0  0  0  0  0  0  0  0  0  0
   37.4380   20.3840   30.6390 N   0  0  0  0  0  0  0  0  0  0  0  0
   37.3780   21.7020   30.9050 C   0  0  0  0  0  0  0  0  0  0  0  0
   38.3160   22.6920   30.8620 C   0  0  0  0  0  0  0  0  0  0  0  0
   38.7360   24.7240   31.1450 H   0  0  0  0  0  0  0  0  0  0  0  0
   34.7290   23.5790   31.9170 H   0  0  0  0  0  0  0  0  0  0  0  0
   34.3980   20.7830   31.4650 H   0  0  0  0  0  0  0  0  0  0  0  0
   35.9300   18.8340   30.7160 H   0  0  0  0  0  0  0  0  0  0  0  0
   39.3350   22.4670   30.5670 H   0  0  0  0  0  0  0  0  0  0  0  0
  1  2  1  0  0  0  0
  1  4  1  0  0  0  0
  3  1  1  0  0  0  0
  4  9  1  1  0  0  0
  4  5  1  0  0  0  0
  5  6  1  0  0  0  0
  5 10  1  0  0  0  0
  6 12  1  0  0  0  0
  6 13  1  0  0  0  0
  7 14  1  0  0  0  0
  7  6  1  0  0  0  0
  8 16  1  6  0  0  0
  8  4  1  0  0  0  0
  8  7  1  0  0  0  0
  8 17  1  0  0  0  0
 11  5  1  0  0  0  0
 15  7  1  0  0  0  0
 17 23  2  0  0  0  0
 17 18  1  0  0  0  0
 18 19  2  0  0  0  0
 19 21  1  0  0  0  0
 19 20  1  0  0  0  0
 22 21  2  0  0  0  0
 23 22  1  0  0  0  0
 24 29  1  0  0  0  0
 24 30  1  0  0  0  0
 25 24  2  0  0  0  0
 26 27  2  0  0  0  0
 26 25  1  0  0  0  0
 27 28  1  0  0  0  0
 28  1  1  0  0  0  0
 28 29  2  0  0  0  0
 31 26  1  0  0  0  0
 32 33  1  0  0  0  0
 33 34  2  0  0  0  0
 33 25  1  0  0  0  0
 34 42  1  0  0  0  0
 35 34  1  0  0  0  0
 36 35  1  0  0  0  0
 36 43  1  0  0  0  0
 37 36  1  0  0  0  0
 38 37  2  0  0  0  0
 38 39  1  0  0  0  0
 39 35  2  0  0  0  0
 40 39  1  0  0  0  0
 40 32  2  0  0  0  0
 41 32  1  0  0  0  0
 44 37  1  0  0  0  0
 45 40  1  0  0  0  0
M  END
>  <minimizedAffinity>
-5.87276649

$$$$

 OpenBabel03272501473D

 45 49  0  0  1  0  0  0  0  0999 V2000
   36.4190   26.6610   31.2670 C   0  0  0  0  0  0  0  0  0  0  0  0
   35.6080   26.5830   30.5070 H   0  0  0  0  0  0  0  0  0  0  0  0
   37.3860   26.7980   30.7200 H   0  0  0  0  0  0  0  0  0  0  0  0
   36.4920   25.4210   32.0850 C   0  0  1  0  0  0  0  0  0  0  0  0
   35.4850   24.4370   31.5240 C   0  0  0  0  0  0  0  0  0  0  0  0
   36.2220   23.2060   31.1080 C   0  0  0  0  0  0  0  0  0  0  0  0
   37.6280   23.6970   30.8610 C   0  0  0  0  0  0  0  0  0  0  0  0
   37.8110   24.6950   31.9810 C   0  0  2  0  0  0  0  0  0  0  0  0
   36.3110   25.6170   33.1750 H   0  0  0  0  0  0  0  0  0  0  0  0
   34.7570   24.1510   32.3380 H   0  0  0  0  0  0  0  0  0  0  0  0
   34.8580   24.8750   30.7330 H   0  0  0  0  0  0  0  0  0  0  0  0
   35.7850   22.8100   30.1620 H   0  0  0  0  0  0  0  0  0  0  0  0
   36.1880   22.4080   31.8720 H   0  0  0  0  0  0  0  0  0  0  0  0
   38.3680   22.8740   30.9120 H   0  0  0  0  0  0  0  0  0  0  0  0
   37.6760   24.2240   29.9050 H   0  0  0  0  0  0  0  0  0  0  0  0
   38.6000   25.4550   31.7360 H   0  0  0  0  0  0  0  0  0  0  0  0
   38.1770   24.0760   33.2680 C   0  0  0  0  0  0  0  0  0  0  0  0
   38.0230   24.7790   34.4690 C   0  0  0  0  0  3  0  0  0  0  0  0
   38.3480   24.2600   35.7220 C   0  0  0  0  0  0  0  0  0  0  0  0
   38.2160   24.8260   36.6110 H   0  0  0  0  0  0  0  0  0  0  0  0
   38.8390   22.9870   35.6920 N   0  0  0  0  0  0  0  0  0  0  0  0
   38.9820   22.3210   34.5320 C   0  0  0  0  0  3  0  0  0  0  0  0
   38.6720   22.8150   33.3200 N   0  0  0  0  0  0  0  0  0  0  0  0
   36.0610   28.9660   34.1400 C   0  0  0  0  0  0  0  0  0  0  0  0
   35.6610   30.1630   33.5390 C   0  0  0  0  0  0  0  0  0  0  0  0
   35.5200   30.1560   32.1440 C   0  0  0  0  0  0  0  0  0  0  0  0
   35.7740   29.0140   31.4760 N   0  0  0  0  0  0  0  0  0  0  0  0
   36.1610   27.8700   32.0850 C   0  0  0  0  0  0  0  0  0  0  0  0
   36.2970   27.8660   33.4160 N   0  0  0  0  0  0  0  0  0  0  0  0
   36.2110   28.8190   35.2000 H   0  0  0  0  0  0  0  0  0  0  0  0
   35.2170   31.0710   31.7130 H   0  0  0  0  0  0  0  0  0  0  0  0
   35.9630   32.5030   34.0530 C   0  0  0  0  0  0  0  0  0  0  0  0
   35.4370   31.2760   34.4250 C   0  0  0  0  0  0  0  0  0  0  0  0
   34.7440   31.2390   35.6160 C   0  0  0  0  0  0  0  0  0  0  0  0
   34.6020   32.4010   36.3810 C   0  0  0  0  0  0  0  0  0  0  0  0
   33.9990   32.6450   37.5400 N   0  0  0  0  0  0  0  0  0  0  0  0
   34.1310   33.9170   37.8750 C   0  0  0  0  0  0  0  0  0  0  0  0
   34.8460   34.5260   36.8980 N   0  0  0  0  0  0  0  0  0  0  0  0
   35.1380   33.5930   35.9740 C   0  0  0  0  0  0  0  0  0  0  0  0
   35.8270   33.6460   34.7980 C   0  0  0  0  0  0  0  0  0  0  0  0
   36.5220   32.6000   33.1220 H   0  0  0  0  0  0  0  0  0  0  0  0
   34.3300   30.2900   35.9170 H   0  0  0  0  0  0  0  0  0  0  0  0
   33.4930   31.9200   38.1030 H   0  0  0  0  0  0  0  0  0  0  0  0
   33.7500   34.4120   38.7600 H   0  0  0  0  0  0  0  0  0  0  0  0
   36.2590   34.5830   34.4600 H   0  0  0  0  0  0  0  0  0  0  0  0
  1 28  1  0  0  0  0
  1  4  1  0  0  0  0
  2  1  1  0  0  0  0
  3  1  1  0  0  0  0
  4  9  1  1  0  0  0
  5  4  1  0  0  0  0
  5 10  1  0  0  0  0
  6  5  1  0  0  0  0
  6 13  1  0  0  0  0
  7 14  1  0  0  0  0
  7  6  1  0  0  0  0
  7  8  1  0  0  0  0
  8 16  1  6  0  0  0
  8  4  1  0  0  0  0
  8 17  1  0  0  0  0
 11  5  1  0  0  0  0
 12  6  1  0  0  0  0
 15  7  1  0  0  0  0
 17 23  2  0  0  0  0
 17 18  1  0  0  0  0
 18 19  2  0  0  0  0
 19 20  1  0  0  0  0
 21 19  1  0  0  0  0
 22 21  2  0  0  0  0
 23 22  1  0  0  0  0
 24 30  1  0  0  0  0
 25 24  1  0  0  0  0
 25 33  1  0  0  0  0
 26 25  2  0  0  0  0
 27 28  2  0  0  0  0
 27 26  1  0  0  0  0
 28 29  1  0  0  0  0
 29 24  2  0  0  0  0
 31 26  1  0  0  0  0
 32 33  2  0  0  0  0
 32 40  1  0  0  0  0
 33 34  1  0  0  0  0
 34 42  1  0  0  0  0
 34 35  2  0  0  0  0
 35 36  1  0  0  0  0
 36 37  1  0  0  0  0
 36 43  1  0  0  0  0
 37 44  1  0  0  0  0
 38 37  2  0  0  0  0
 39 35  1  0  0  0  0
 39 38  1  0  0  0  0
 40 39  2  0  0  0  0
 41 32  1  0  0  0  0
 45 40  1  0  0  0  0
M  END
>  <minimizedAffinity>
-5.83165884

$$$$

 OpenBabel03272501473D

 45 49  0  0  1  0  0  0  0  0999 V2000
   35.7100   28.2030   31.9890 C   0  0  0  0  0  0  0  0  0  0  0  0
   35.8870   28.3430   30.8990 H   0  0  0  0  0  0  0  0  0  0  0  0
   34.8430   27.5040   32.1070 H   0  0  0  0  0  0  0  0  0  0  0  0
   35.3830   29.5000   32.6380 C   0  0  1  0  0  0  0  0  0  0  0  0
   34.8700   30.4390   31.5640 C   0  0  0  0  0  0  0  0  0  0  0  0
   33.4860   30.8580   31.9370 C   0  0  0  0  0  0  0  0  0  0  0  0
   33.0030   29.7430   32.8330 C   0  0  0  0  0  0  0  0  0  0  0  0
   34.2470   29.4210   33.6280 C   0  0  2  0  0  0  0  0  0  0  0  0
   36.2610   29.9390   33.1830 H   0  0  0  0  0  0  0  0  0  0  0  0
   35.5200   31.3600   31.5390 H   0  0  0  0  0  0  0  0  0  0  0  0
   34.9540   30.0130   30.5530 H   0  0  0  0  0  0  0  0  0  0  0  0
   32.8520   30.9140   31.0230 H   0  0  0  0  0  0  0  0  0  0  0  0
   33.4590   31.8400   32.4450 H   0  0  0  0  0  0  0  0  0  0  0  0
   32.1660   30.0670   33.4820 H   0  0  0  0  0  0  0  0  0  0  0  0
   32.7320   28.8720   32.2300 H   0  0  0  0  0  0  0  0  0  0  0  0
   34.2210   28.3740   34.0350 H   0  0  0  0  0  0  0  0  0  0  0  0
   34.4710   30.3320   34.7650 C   0  0  0  0  0  0  0  0  0  0  0  0
   33.4180   30.6860   35.6170 C   0  0  0  0  0  3  0  0  0  0  0  0
   33.5530   31.5410   36.7100 C   0  0  0  0  0  0  0  0  0  0  0  0
   32.7290   31.7860   37.3330 H   0  0  0  0  0  0  0  0  0  0  0  0
   34.8180   32.0200   36.8930 N   0  0  0  0  0  0  0  0  0  0  0  0
   35.8240   31.6730   36.0700 C   0  0  0  0  0  3  0  0  0  0  0  0
   35.6990   30.8490   35.0130 N   0  0  0  0  0  0  0  0  0  0  0  0
   37.9710   26.3100   34.2270 C   0  0  0  0  0  0  0  0  0  0  0  0
   39.2060   26.4000   33.5790 C   0  0  0  0  0  0  0  0  0  0  0  0
   39.2400   27.1170   32.3750 C   0  0  0  0  0  0  0  0  0  0  0  0
   38.0990   27.6670   31.9190 N   0  0  0  0  0  0  0  0  0  0  0  0
   36.9160   27.5630   32.5670 C   0  0  0  0  0  0  0  0  0  0  0  0
   36.8730   26.8820   33.7180 N   0  0  0  0  0  0  0  0  0  0  0  0
   37.7890   25.7930   35.1580 H   0  0  0  0  0  0  0  0  0  0  0  0
   40.1850   27.1720   31.9050 H   0  0  0  0  0  0  0  0  0  0  0  0
   40.1340   24.4240   34.6120 C   0  0  0  0  0  0  0  0  0  0  0  0
   40.3120   25.7440   34.2260 C   0  0  0  0  0  0  0  0  0  0  0  0
   41.5410   26.3040   34.5030 C   0  0  0  0  0  0  0  0  0  0  0  0
   42.5300   25.5480   35.1390 C   0  0  0  0  0  0  0  0  0  0  0  0
   43.7730   25.8290   35.5160 N   0  0  0  0  0  0  0  0  0  0  0  0
   44.3350   24.7790   36.0910 C   0  0  0  0  0  0  0  0  0  0  0  0
   43.4250   23.7750   36.0890 N   0  0  0  0  0  0  0  0  0  0  0  0
   42.3100   24.2460   35.5020 C   0  0  0  0  0  0  0  0  0  0  0  0
   41.0990   23.6760   35.2360 C   0  0  0  0  0  0  0  0  0  0  0  0
   39.1840   23.9220   34.4230 H   0  0  0  0  0  0  0  0  0  0  0  0
   41.6930   27.3300   34.2080 H   0  0  0  0  0  0  0  0  0  0  0  0
   44.2330   26.7600   35.3730 H   0  0  0  0  0  0  0  0  0  0  0  0
   45.3350   24.7040   36.4980 H   0  0  0  0  0  0  0  0  0  0  0  0
   40.9060   22.6460   35.5160 H   0  0  0  0  0  0  0  0  0  0  0  0
  1  3  1  0  0  0  0
  1 28  1  0  0  0  0
  1  4  1  0  0  0  0
  2  1  1  0  0  0  0
  4  9  1  1  0  0  0
  4  8  1  0  0  0  0
  5  6  1  0  0  0  0
  5  4  1  0  0  0  0
  6 13  1  0  0  0  0
  6  7  1  0  0  0  0
  7 14  1  0  0  0  0
  7  8  1  0  0  0  0
  8 16  1  1  0  0  0
  8 17  1  0  0  0  0
 10  5  1  0  0  0  0
 11  5  1  0  0  0  0
 12  6  1  0  0  0  0
 15  7  1  0  0  0  0
 17 23  2  0  0  0  0
 17 18  1  0  0  0  0
 18 19  2  0  0  0  0
 19 21  1  0  0  0  0
 19 20  1  0  0  0  0
 22 21  2  0  0  0  0
 23 22  1  0  0  0  0
 24 30  1  0  0  0  0
 25 33  1  0  0  0  0
 25 24  2  0  0  0  0
 26 25  1  0  0  0  0
 27 26  2  0  0  0  0
 27 28  1  0  0  0  0
 28 29  2  0  0  0  0
 29 24  1  0  0  0  0
 31 26  1  0  0  0  0
 32 40  1  0  0  0  0
 33 34  1  0  0  0  0
 33 32  2  0  0  0  0
 34 35  2  0  0  0  0
 35 39  1  0  0  0  0
 35 36  1  0  0  0  0
 36 37  1  0  0  0  0
 37 44  1  0  0  0  0
 38 37  2  0  0  0  0
 39 38  1  0  0  0  0
 40 39  2  0  0  0  0
 40 45  1  0  0  0  0
 41 32  1  0  0  0  0
 42 34  1  0  0  0  0
 43 36  1  0  0  0  0
M  END
>  <minimizedAffinity>
-5.79068422

$$$$
