
 OpenBabel03272502233D

 27 29  0  0  0  0  0  0  0  0999 V2000
   36.6650   29.7140   50.2500 C   0  0  0  0  0  0  0  0  0  0  0  0
   37.2890   30.4070   49.1990 C   0  0  0  0  0  0  0  0  0  0  0  0
   36.7400   30.2940   47.9330 C   0  0  0  0  0  0  0  0  0  0  0  0
   35.6410   29.5250   47.7870 N   0  0  0  0  0  0  0  0  0  0  0  0
   35.0610   28.8710   48.8040 C   0  0  0  0  0  0  0  0  0  0  0  0
   35.5750   28.9650   50.0450 N   0  0  0  0  0  0  0  0  0  0  0  0
   37.1020   29.8110   51.2290 H   0  0  0  0  0  0  0  0  0  0  0  0
   38.1700   31.0220   49.3200 H   0  0  0  0  0  0  0  0  0  0  0  0
   37.2880   30.9580   46.7560 C   0  0  0  0  0  0  0  0  0  0  0  0
   36.7130   30.8210   45.5060 C   0  0  0  0  0  0  0  0  0  0  0  0
   37.2210   31.4460   44.3780 C   0  0  0  0  0  0  0  0  0  0  0  0
   38.3140   32.2210   44.4850 N   0  0  0  0  0  0  0  0  0  0  0  0
   38.8600   32.3460   45.7050 C   0  0  0  0  0  0  0  0  0  0  0  0
   38.3820   31.7490   46.8040 N   0  0  0  0  0  0  0  0  0  0  0  0
   35.8270   30.1960   45.4010 H   0  0  0  0  0  0  0  0  0  0  0  0
   36.7030   31.2790   43.4380 H   0  0  0  0  0  0  0  0  0  0  0  0
   40.0720   33.1970   45.8630 C   0  0  0  0  0  0  0  0  0  0  0  0
   40.0740   33.7160   47.1550 F   0  0  0  0  0  0  0  0  0  0  0  0
   41.2300   32.4750   45.6300 F   0  0  0  0  0  0  0  0  0  0  0  0
   40.0650   34.2610   45.0050 F   0  0  0  0  0  0  0  0  0  0  0  0
   33.8730   28.0570   48.5720 C   0  0  0  0  0  0  0  0  0  0  0  0
   33.9330   26.9710   47.7240 C   0  0  0  0  0  3  0  0  0  0  0  0
   32.7720   26.2460   47.5500 C   0  0  0  0  0  0  0  0  0  0  0  0
   32.8830   25.3980   46.8670 H   0  0  0  0  0  0  0  0  0  0  0  0
   31.6000   26.5560   48.1690 N   0  0  0  0  0  0  0  0  0  0  0  0
   31.5890   27.6320   48.9940 C   0  0  0  0  0  3  0  0  0  0  0  0
   32.7180   28.3750   49.1910 N   0  0  0  0  0  0  0  0  0  0  0  0
  1  7  1  0  0  0  0
  2  8  1  0  0  0  0
  2  1  2  0  0  0  0
  3  2  1  0  0  0  0
  4  3  2  0  0  0  0
  4  5  1  0  0  0  0
  5  6  2  0  0  0  0
  6  1  1  0  0  0  0
  9 14  1  0  0  0  0
  9  3  1  0  0  0  0
 10  9  2  0  0  0  0
 11 12  2  0  0  0  0
 11 10  1  0  0  0  0
 12 13  1  0  0  0  0
 13 17  1  0  0  0  0
 13 14  2  0  0  0  0
 15 10  1  0  0  0  0
 16 11  1  0  0  0  0
 17 18  1  0  0  0  0
 19 17  1  0  0  0  0
 20 17  1  0  0  0  0
 21  5  1  0  0  0  0
 21 27  1  0  0  0  0
 22 21  2  0  0  0  0
 23 22  1  0  0  0  0
 23 25  2  0  0  0  0
 24 23  1  0  0  0  0
 25 26  1  0  0  0  0
 26 27  2  0  0  0  0
M  END
>  <minimizedAffinity>
-6.014328

>  <minimizedRMSD>
1.45533311

$$$$
