
 OpenBabel03272510203D

 34 37  0  0  0  0  0  0  0  0999 V2000
   37.4190   29.1670   50.8020 Br  0  0  0  0  0  0  0  0  0  0  0  0
   36.0010   29.2730   49.5290 C   0  0  0  0  0  0  0  0  0  0  0  0
   36.0010   30.2780   48.5670 C   0  0  0  0  0  0  0  0  0  0  0  0
   34.9430   30.2960   47.6740 C   0  0  0  0  0  0  0  0  0  0  0  0
   33.9100   29.3790   47.6960 C   0  0  0  0  0  0  0  0  0  0  0  0
   33.9520   28.4080   48.6630 C   0  0  0  0  0  0  0  0  0  0  0  0
   34.9920   28.3670   49.5610 C   0  0  0  0  0  0  0  0  0  0  0  0
   34.8810   31.0510   46.9000 H   0  0  0  0  0  0  0  0  0  0  0  0
   33.1680   27.6580   48.7320 H   0  0  0  0  0  0  0  0  0  0  0  0
   35.0150   27.5930   50.3210 H   0  0  0  0  0  0  0  0  0  0  0  0
   38.0100   33.1840   49.4630 C   0  0  0  0  0  0  0  0  0  0  0  0
   39.0420   33.1840   48.4690 C   0  0  0  0  0  0  0  0  0  0  0  0
   39.0180   32.1730   47.5100 C   0  0  0  0  0  0  0  0  0  0  0  0
   38.0220   31.2380   47.5570 N   0  0  0  0  0  0  0  0  0  0  0  0
   37.0670   31.2650   48.5020 C   0  0  0  0  0  0  0  0  0  0  0  0
   37.0750   32.2370   49.4420 N   0  0  0  0  0  0  0  0  0  0  0  0
   38.0360   33.9710   50.2040 H   0  0  0  0  0  0  0  0  0  0  0  0
   39.8230   33.9290   48.4430 H   0  0  0  0  0  0  0  0  0  0  0  0
   39.7610   32.1030   46.7260 H   0  0  0  0  0  0  0  0  0  0  0  0
   32.8070   29.4000   46.7640 C   0  0  0  0  0  0  0  0  0  0  0  0
   31.9870   28.3360   46.4870 C   0  0  0  0  0  0  0  0  0  0  0  0
   30.9390   28.3890   45.5890 C   0  0  0  0  0  0  0  0  0  0  0  0
   30.6970   29.5450   44.9400 N   0  0  0  0  0  0  0  0  0  0  0  0
   31.4920   30.6010   45.2010 C   0  0  0  0  0  0  0  0  0  0  0  0
   32.4900   30.5100   46.0730 N   0  0  0  0  0  0  0  0  0  0  0  0
   32.1770   27.3860   47.0100 H   0  0  0  0  0  0  0  0  0  0  0  0
   30.3250   27.4960   45.4170 H   0  0  0  0  0  0  0  0  0  0  0  0
   31.2460   31.8620   44.5110 C   0  0  0  0  0  0  0  0  0  0  0  0
   30.4960   31.8960   43.3540 C   0  0  0  0  0  3  0  0  0  0  0  0
   30.2610   33.0870   42.6970 C   0  0  0  0  0  0  0  0  0  0  0  0
   29.6610   32.9610   41.8090 H   0  0  0  0  0  0  0  0  0  0  0  0
   30.7690   34.2380   43.1890 N   0  0  0  0  0  0  0  0  0  0  0  0
   31.5100   34.2170   44.3290 C   0  0  0  0  0  3  0  0  0  0  0  0
   31.7300   33.0330   44.9610 N   0  0  0  0  0  0  0  0  0  0  0  0
  2  7  1  0  0  0  0
  2  1  1  0  0  0  0
  3  2  2  0  0  0  0
  4  5  2  0  0  0  0
  4  3  1  0  0  0  0
  5  6  1  0  0  0  0
  6  9  1  0  0  0  0
  6  7  2  0  0  0  0
  7 10  1  0  0  0  0
  8  4  1  0  0  0  0
 11 17  1  0  0  0  0
 12 11  2  0  0  0  0
 13 14  2  0  0  0  0
 13 12  1  0  0  0  0
 14 15  1  0  0  0  0
 15  3  1  0  0  0  0
 15 16  2  0  0  0  0
 16 11  1  0  0  0  0
 18 12  1  0  0  0  0
 19 13  1  0  0  0  0
 20  5  1  0  0  0  0
 21 20  1  0  0  0  0
 21 26  1  0  0  0  0
 22 21  2  0  0  0  0
 23 24  2  0  0  0  0
 23 22  1  0  0  0  0
 24 25  1  0  0  0  0
 25 20  2  0  0  0  0
 27 22  1  0  0  0  0
 28 34  1  0  0  0  0
 28 24  1  0  0  0  0
 29 28  2  0  0  0  0
 30 32  2  0  0  0  0
 30 29  1  0  0  0  0
 31 30  1  0  0  0  0
 32 33  1  0  0  0  0
 33 34  2  0  0  0  0
M  END
>  <minimizedAffinity>
-6.64978886

>  <minimizedRMSD>
0.29572174

$$$$
