
 OpenBabel03272505433D

 22 23  0  0  0  0  0  0  0  0999 V2000
   32.4340   28.0360   49.0800 O   0  0  0  0  0  0  0  0  0  0  0  0
   33.8190   28.2820   48.5210 P   0  0  2  0  0  0  0  0  0  0  0  0
   34.0520   27.1210   47.3040 O   0  0  0  0  0  0  0  0  0  0  0  0
   34.0610   26.2070   47.7160 H   0  0  0  0  0  0  0  0  0  0  0  0
   34.9530   28.0990   49.7720 O   0  0  0  0  0  0  0  0  0  0  0  0
   37.3310   30.3370   51.4050 C   0  0  0  0  0  0  0  0  0  0  0  0
   38.0440   30.7940   50.2500 C   0  0  0  0  0  0  0  0  0  0  0  0
   37.6530   30.2980   49.0000 C   0  0  0  0  0  0  0  0  0  0  0  0
   36.6240   29.4150   48.9500 N   0  0  0  0  0  0  0  0  0  0  0  0
   35.9720   29.0030   50.0560 C   0  0  0  0  0  0  0  0  0  0  0  0
   36.3240   29.4620   51.2760 N   0  0  0  0  0  0  0  0  0  0  0  0
   37.6120   30.7030   52.3850 H   0  0  0  0  0  0  0  0  0  0  0  0
   38.8600   31.5040   50.3720 H   0  0  0  0  0  0  0  0  0  0  0  0
   38.1800   30.6320   48.1080 H   0  0  0  0  0  0  0  0  0  0  0  0
   33.8330   29.8020   47.8300 O   0  0  0  0  0  0  0  0  0  0  0  0
   33.8370   30.1020   46.4810 C   0  0  0  0  0  0  0  0  0  0  0  0
   34.8160   29.9640   45.5200 C   0  0  0  0  0  3  0  0  0  0  0  0
   34.5530   30.3490   44.2240 C   0  0  0  0  0  0  0  0  0  0  0  0
   35.3860   30.2020   43.5370 H   0  0  0  0  0  0  0  0  0  0  0  0
   33.3620   30.8460   43.9210 N   0  0  0  0  0  0  0  0  0  0  0  0
   32.3920   30.9930   44.8270 C   0  0  0  0  0  3  0  0  0  0  0  0
   32.6310   30.6210   46.1010 N   0  0  0  0  0  0  0  0  0  0  0  0
  2  1  2  1  0  0  0
  2  5  1  0  0  0  0
  3  4  1  0  0  0  0
  3  2  1  0  0  0  0
  5 10  1  0  0  0  0
  6 12  1  0  0  0  0
  7 13  1  0  0  0  0
  7  6  2  0  0  0  0
  8  7  1  0  0  0  0
  9  8  2  0  0  0  0
  9 10  1  0  0  0  0
 10 11  2  0  0  0  0
 11  6  1  0  0  0  0
 14  8  1  0  0  0  0
 15  2  1  0  0  0  0
 16 15  1  0  0  0  0
 17 16  2  0  0  0  0
 18 17  1  0  0  0  0
 19 18  1  0  0  0  0
 20 18  2  0  0  0  0
 20 21  1  0  0  0  0
 21 22  2  0  0  0  0
 22 16  1  0  0  0  0
M  END
>  <minimizedAffinity>
-4.34652996

>  <minimizedRMSD>
1.03575349

$$$$
