
 OpenBabel03272508023D

 26 28  0  0  0  0  0  0  0  0999 V2000
   38.6480   30.6580   45.6070 C   0  0  0  0  0  0  0  0  0  0  0  0
   39.7750   31.4340   45.5780 C   0  0  0  0  0  0  0  0  0  0  0  0
   40.5260   31.1420   44.4450 C   0  0  0  0  0  0  0  0  0  0  0  0
   39.8090   30.1790   43.8180 N   0  0  0  0  0  0  0  0  0  0  0  0
   38.7200   29.9010   44.4960 N   0  0  0  0  0  0  0  0  0  0  0  0
   40.0640   32.1720   46.3120 H   0  0  0  0  0  0  0  0  0  0  0  0
   41.4610   31.5500   44.0930 H   0  0  0  0  0  0  0  0  0  0  0  0
   37.5840   30.6310   46.6080 C   0  0  0  0  0  0  0  0  0  0  0  0
   37.9510   30.9550   47.9490 C   0  0  0  0  0  0  0  0  0  0  0  0
   36.9430   30.9320   48.9120 C   0  0  0  0  0  0  0  0  0  0  0  0
   35.6850   30.6060   48.5250 N   0  0  0  0  0  0  0  0  0  0  0  0
   35.3680   30.3040   47.2440 C   0  0  0  0  0  0  0  0  0  0  0  0
   36.3360   30.3240   46.3070 N   0  0  0  0  0  0  0  0  0  0  0  0
   38.9770   31.2010   48.1610 H   0  0  0  0  0  0  0  0  0  0  0  0
   34.3530   30.0480   46.9630 H   0  0  0  0  0  0  0  0  0  0  0  0
   37.2940   31.2660   50.3210 C   0  0  0  0  0  0  0  0  0  0  0  0
   36.7820   32.5240   50.5390 F   0  0  0  0  0  0  0  0  0  0  0  0
   36.7410   30.3850   51.2310 F   0  0  0  0  0  0  0  0  0  0  0  0
   38.6720   31.3440   50.5100 F   0  0  0  0  0  0  0  0  0  0  0  0
   40.0840   29.4910   42.6040 C   0  0  0  0  0  0  0  0  0  0  0  0
   41.3890   29.4320   42.1020 C   0  0  0  0  0  3  0  0  0  0  0  0
   41.7600   28.7920   40.9360 C   0  0  0  0  0  0  0  0  0  0  0  0
   42.8050   28.8240   40.6650 H   0  0  0  0  0  0  0  0  0  0  0  0
   40.7650   28.1910   40.2600 N   0  0  0  0  0  0  0  0  0  0  0  0
   39.4900   28.2220   40.7070 C   0  0  0  0  0  3  0  0  0  0  0  0
   39.1570   28.8630   41.8620 N   0  0  0  0  0  0  0  0  0  0  0  0
  1  8  1  0  0  0  0
  2  1  1  0  0  0  0
  2  6  1  0  0  0  0
  3  2  2  0  0  0  0
  4  3  1  0  0  0  0
  4  5  1  0  0  0  0
  5  1  2  0  0  0  0
  7  3  1  0  0  0  0
  8  9  1  0  0  0  0
  9 14  1  0  0  0  0
  9 10  2  0  0  0  0
 10 16  1  0  0  0  0
 11 10  1  0  0  0  0
 12 11  2  0  0  0  0
 13  8  2  0  0  0  0
 13 12  1  0  0  0  0
 15 12  1  0  0  0  0
 16 19  1  0  0  0  0
 16 17  1  0  0  0  0
 16 18  1  0  0  0  0
 20  4  1  0  0  0  0
 21 20  1  0  0  0  0
 22 21  2  0  0  0  0
 23 22  1  0  0  0  0
 24 25  2  0  0  0  0
 24 22  1  0  0  0  0
 25 26  1  0  0  0  0
 26 20  2  0  0  0  0
M  END
>  <minimizedAffinity>
-5.87739515

>  <minimizedRMSD>
1.26354015

$$$$
