
 OpenBabel03272507073D

 37 41  0  0  0  0  0  0  0  0999 V2000
   38.0800   32.7010   49.6010 C   0  0  0  0  0  0  0  0  0  0  0  0
   38.8200   32.9010   48.4200 C   0  0  0  0  0  0  0  0  0  0  0  0
   38.4530   32.1250   47.3110 C   0  0  0  0  0  0  0  0  0  0  0  0
   37.4300   31.2420   47.4220 N   0  0  0  0  0  0  0  0  0  0  0  0
   36.7470   31.0840   48.5850 C   0  0  0  0  0  0  0  0  0  0  0  0
   37.0690   31.8100   49.6710 N   0  0  0  0  0  0  0  0  0  0  0  0
   38.3720   33.3090   50.4590 H   0  0  0  0  0  0  0  0  0  0  0  0
   39.6240   33.5880   48.3100 H   0  0  0  0  0  0  0  0  0  0  0  0
   35.7010   29.0990   49.5560 C   0  0  0  0  0  0  0  0  0  0  0  0
   35.6640   30.1160   48.6230 C   0  0  0  0  0  0  0  0  0  0  0  0
   34.6120   30.2090   47.7370 C   0  0  0  0  0  0  0  0  0  0  0  0
   33.5930   29.2900   47.7800 C   0  0  0  0  0  0  0  0  0  0  0  0
   32.4560   29.1380   47.0470 N   0  0  0  0  0  0  0  0  0  0  0  0
   31.8570   28.0430   47.5680 C   0  0  0  0  0  0  0  0  0  0  0  0
   32.5780   27.5320   48.5710 N   0  0  0  0  0  0  0  0  0  0  0  0
   33.6730   28.2950   48.7270 C   0  0  0  0  0  0  0  0  0  0  0  0
   34.6940   28.1560   49.6290 C   0  0  0  0  0  0  0  0  0  0  0  0
   36.5350   29.0290   50.2540 H   0  0  0  0  0  0  0  0  0  0  0  0
   34.6250   31.0170   47.0280 H   0  0  0  0  0  0  0  0  0  0  0  0
   32.1700   29.7690   46.2680 H   0  0  0  0  0  0  0  0  0  0  0  0
   30.9170   27.7160   47.1410 H   0  0  0  0  0  0  0  0  0  0  0  0
   34.6910   27.3480   50.3470 H   0  0  0  0  0  0  0  0  0  0  0  0
   39.1070   32.2020   46.0170 C   0  0  0  0  0  0  0  0  0  0  0  0
   39.5920   33.3670   45.4650 C   0  0  0  0  0  0  0  0  0  0  0  0
   40.2140   33.4730   44.2470 C   0  0  0  0  0  0  0  0  0  0  0  0
   40.3520   32.3430   43.5510 N   0  0  0  0  0  0  0  0  0  0  0  0
   39.8990   31.1880   44.0420 C   0  0  0  0  0  0  0  0  0  0  0  0
   39.3020   31.1280   45.2260 N   0  0  0  0  0  0  0  0  0  0  0  0
   39.4830   34.3040   46.0300 H   0  0  0  0  0  0  0  0  0  0  0  0
   40.5680   34.4310   43.8840 H   0  0  0  0  0  0  0  0  0  0  0  0
   40.0640   29.9620   43.2580 C   0  0  0  0  0  0  0  0  0  0  0  0
   39.1650   28.9100   43.4010 C   0  0  0  0  0  0  0  0  0  0  0  0
   39.3590   27.7740   42.6420 C   0  0  0  0  0  0  0  0  0  0  0  0
   38.6540   26.9700   42.7650 H   0  0  0  0  0  0  0  0  0  0  0  0
   40.3860   27.6480   41.7680 N   0  0  0  0  0  0  0  0  0  0  0  0
   41.2590   28.6870   41.6400 C   0  0  0  0  0  0  0  0  0  0  0  0
   41.0680   29.7920   42.3780 N   0  0  0  0  0  0  0  0  0  0  0  0
  1  6  1  0  0  0  0
  1  7  1  0  0  0  0
  2  1  2  0  0  0  0
  3  4  2  0  0  0  0
  3  2  1  0  0  0  0
  4  5  1  0  0  0  0
  5 10  1  0  0  0  0
  5  6  2  0  0  0  0
  8  2  1  0  0  0  0
  9 17  1  0  0  0  0
  9 18  1  0  0  0  0
 10  9  2  0  0  0  0
 11 12  2  0  0  0  0
 11 10  1  0  0  0  0
 12 16  1  0  0  0  0
 13 14  1  0  0  0  0
 13 12  1  0  0  0  0
 14 15  2  0  0  0  0
 15 16  1  0  0  0  0
 16 17  2  0  0  0  0
 17 22  1  0  0  0  0
 19 11  1  0  0  0  0
 20 13  1  0  0  0  0
 21 14  1  0  0  0  0
 23  3  1  0  0  0  0
 24 23  1  0  0  0  0
 24 29  1  0  0  0  0
 25 24  2  0  0  0  0
 26 27  2  0  0  0  0
 26 25  1  0  0  0  0
 27 28  1  0  0  0  0
 28 23  2  0  0  0  0
 30 25  1  0  0  0  0
 31 32  1  0  0  0  0
 31 27  1  0  0  0  0
 33 34  1  0  0  0  0
 33 32  2  0  0  0  0
 35 33  1  0  0  0  0
 36 35  2  0  0  0  0
 36 37  1  0  0  0  0
 37 31  2  0  0  0  0
M  END
>  <minimizedAffinity>
-7.57604933

>  <minimizedRMSD>
1.68691158

$$$$
