
 OpenBabel03272507493D

 44 48  0  0  1  0  0  0  0  0999 V2000
   37.4710   24.9600   31.6860 N   0  0  0  0  0  0  0  0  0  0  0  0
   38.5370   25.8950   31.5520 C   0  0  0  0  0  0  0  0  0  0  0  0
   38.2290   27.3040   31.8900 C   0  0  0  0  0  0  0  0  0  0  0  0
   36.9120   27.8030   31.4920 C   0  0  1  0  0  0  0  0  0  0  0  0
   35.8210   26.7200   31.5960 C   0  0  0  0  0  0  0  0  0  0  0  0
   36.3740   25.4610   30.9050 C   0  0  0  0  0  0  0  0  0  0  0  0
   39.3890   25.5390   32.1720 H   0  0  0  0  0  0  0  0  0  0  0  0
   38.9160   25.8490   30.4900 H   0  0  0  0  0  0  0  0  0  0  0  0
   39.0340   27.9620   31.5260 H   0  0  0  0  0  0  0  0  0  0  0  0
   38.2230   27.2760   33.0310 H   0  0  0  0  0  0  0  0  0  0  0  0
   36.8900   28.0760   30.4190 H   0  0  0  0  0  0  0  0  0  0  0  0
   34.9490   27.0870   31.0530 H   0  0  0  0  0  0  0  0  0  0  0  0
   35.6710   26.4690   32.6520 H   0  0  0  0  0  0  0  0  0  0  0  0
   35.5650   24.7040   30.8240 H   0  0  0  0  0  0  0  0  0  0  0  0
   36.6430   25.7020   29.8530 H   0  0  0  0  0  0  0  0  0  0  0  0
   36.0780   28.6700   33.6290 C   0  0  0  0  0  0  0  0  0  0  0  0
   36.4060   28.9340   32.3100 C   0  0  0  0  0  0  0  0  0  0  0  0
   36.2680   30.1610   31.7200 C   0  0  0  0  0  0  0  0  0  0  0  0
   35.7670   31.2040   32.4970 C   0  0  0  0  0  0  0  0  0  0  0  0
   35.4390   30.9460   33.8050 C   0  0  0  0  0  0  0  0  0  0  0  0
   35.5790   29.6980   34.4080 C   0  0  0  0  0  0  0  0  0  0  0  0
   34.9540   32.1140   34.4200 O   0  0  0  0  0  0  0  0  0  0  0  0
   35.3220   33.1620   33.5320 C   0  0  0  0  0  0  0  0  0  0  0  0
   35.4890   32.5510   32.2770 O   0  0  0  0  0  0  0  0  0  0  0  0
   36.1520   27.7580   34.2030 H   0  0  0  0  0  0  0  0  0  0  0  0
   36.5320   30.3250   30.7050 H   0  0  0  0  0  0  0  0  0  0  0  0
   35.2930   29.5700   35.4670 H   0  0  0  0  0  0  0  0  0  0  0  0
   34.4380   33.8380   33.4380 H   0  0  0  0  0  0  0  0  0  0  0  0
   36.2110   33.7290   33.8760 H   0  0  0  0  0  0  0  0  0  0  0  0
   37.4590   23.7430   32.4400 C   0  0  0  0  0  0  0  0  0  0  0  0
   37.0710   22.4940   31.9650 C   0  0  0  0  0  0  0  0  0  0  0  0
   37.1280   21.4260   32.8560 C   0  0  0  0  0  0  0  0  0  0  0  0
   37.5530   21.6520   34.1230 N   0  0  0  0  0  0  0  0  0  0  0  0
   37.9230   22.8700   34.5570 C   0  0  0  0  0  0  0  0  0  0  0  0
   37.8750   23.9040   33.7180 N   0  0  0  0  0  0  0  0  0  0  0  0
   36.7580   22.4650   30.9420 H   0  0  0  0  0  0  0  0  0  0  0  0
   36.8220   20.4630   32.4710 H   0  0  0  0  0  0  0  0  0  0  0  0
   38.3640   22.9970   35.9430 C   0  0  0  0  0  0  0  0  0  0  0  0
   39.6170   22.5850   36.3530 C   0  0  0  0  0  3  0  0  0  0  0  0
   39.9790   22.7330   37.6910 C   0  0  0  0  0  0  0  0  0  0  0  0
   40.9530   22.4170   38.0290 H   0  0  0  0  0  0  0  0  0  0  0  0
   39.1130   23.2710   38.5750 N   0  0  0  0  0  0  0  0  0  0  0  0
   37.9150   23.6610   38.1630 C   0  0  0  0  0  3  0  0  0  0  0  0
   37.5610   23.5190   36.8630 N   0  0  0  0  0  0  0  0  0  0  0  0
  1 30  1  0  0  0  0
  2  1  1  0  0  0  0
  2  3  1  0  0  0  0
  2  7  1  0  0  0  0
  3 10  1  0  0  0  0
  4 11  1  6  0  0  0
  4  5  1  0  0  0  0
  4  3  1  0  0  0  0
  4 17  1  0  0  0  0
  5 13  1  0  0  0  0
  6  5  1  0  0  0  0
  6  1  1  0  0  0  0
  8  2  1  0  0  0  0
  9  3  1  0  0  0  0
 12  5  1  0  0  0  0
 14  6  1  0  0  0  0
 15  6  1  0  0  0  0
 16 25  1  0  0  0  0
 16 21  1  0  0  0  0
 17 16  2  0  0  0  0
 18 17  1  0  0  0  0
 18 19  2  0  0  0  0
 19 20  1  0  0  0  0
 20 21  2  0  0  0  0
 20 22  1  0  0  0  0
 21 27  1  0  0  0  0
 23 29  1  0  0  0  0
 23 22  1  0  0  0  0
 24 19  1  0  0  0  0
 24 23  1  0  0  0  0
 26 18  1  0  0  0  0
 28 23  1  0  0  0  0
 30 35  1  0  0  0  0
 31 30  2  0  0  0  0
 31 32  1  0  0  0  0
 32 33  2  0  0  0  0
 33 34  1  0  0  0  0
 34 38  1  0  0  0  0
 35 34  2  0  0  0  0
 36 31  1  0  0  0  0
 37 32  1  0  0  0  0
 38 39  2  0  0  0  0
 38 44  1  0  0  0  0
 39 40  1  0  0  0  0
 40 41  1  0  0  0  0
 40 42  2  0  0  0  0
 43 42  1  0  0  0  0
 44 43  2  0  0  0  0
M  END
>  <minimizedAffinity>
-6.20726442

$$$$

 OpenBabel03272507493D

 44 48  0  0  1  0  0  0  0  0999 V2000
   37.2260   27.6170   31.5510 N   0  0  0  0  0  0  0  0  0  0  0  0
   36.6330   26.3580   31.2480 C   0  0  0  0  0  0  0  0  0  0  0  0
   36.8090   25.2840   32.2520 C   0  0  0  0  0  0  0  0  0  0  0  0
   38.1090   25.2130   32.9190 C   0  0  1  0  0  0  0  0  0  0  0  0
   38.7220   26.6070   33.1540 C   0  0  0  0  0  0  0  0  0  0  0  0
   38.6150   27.3720   31.8230 C   0  0  0  0  0  0  0  0  0  0  0  0
   35.5490   26.5230   31.0600 H   0  0  0  0  0  0  0  0  0  0  0  0
   37.0450   26.0040   30.2580 H   0  0  0  0  0  0  0  0  0  0  0  0
   36.5280   24.3120   31.8150 H   0  0  0  0  0  0  0  0  0  0  0  0
   36.0580   25.5900   33.0560 H   0  0  0  0  0  0  0  0  0  0  0  0
   38.8630   24.7130   32.2820 H   0  0  0  0  0  0  0  0  0  0  0  0
   39.7710   26.4590   33.4120 H   0  0  0  0  0  0  0  0  0  0  0  0
   38.1080   27.1440   33.8850 H   0  0  0  0  0  0  0  0  0  0  0  0
   39.1790   28.3260   31.9040 H   0  0  0  0  0  0  0  0  0  0  0  0
   39.1360   26.8010   31.0230 H   0  0  0  0  0  0  0  0  0  0  0  0
   38.0640   23.1940   34.3110 C   0  0  0  0  0  0  0  0  0  0  0  0
   38.0820   24.5780   34.2610 C   0  0  0  0  0  0  0  0  0  0  0  0
   38.0530   25.3820   35.3680 C   0  0  0  0  0  0  0  0  0  0  0  0
   38.0020   24.7670   36.6170 C   0  0  0  0  0  0  0  0  0  0  0  0
   37.9830   23.3950   36.6710 C   0  0  0  0  0  0  0  0  0  0  0  0
   38.0130   22.5740   35.5460 C   0  0  0  0  0  0  0  0  0  0  0  0
   37.9300   22.9660   38.0090 O   0  0  0  0  0  0  0  0  0  0  0  0
   38.2620   24.1230   38.7670 C   0  0  0  0  0  0  0  0  0  0  0  0
   37.9620   25.2160   37.9350 O   0  0  0  0  0  0  0  0  0  0  0  0
   38.0950   22.4610   33.5180 H   0  0  0  0  0  0  0  0  0  0  0  0
   38.0690   26.4410   35.2890 H   0  0  0  0  0  0  0  0  0  0  0  0
   37.9950   21.4780   35.6730 H   0  0  0  0  0  0  0  0  0  0  0  0
   37.5450   24.1730   39.6220 H   0  0  0  0  0  0  0  0  0  0  0  0
   39.3070   24.1140   39.1360 H   0  0  0  0  0  0  0  0  0  0  0  0
   36.5930   28.9020   31.5850 C   0  0  0  0  0  0  0  0  0  0  0  0
   36.4310   29.7590   30.5010 C   0  0  0  0  0  0  0  0  0  0  0  0
   35.7870   30.9710   30.7370 C   0  0  0  0  0  0  0  0  0  0  0  0
   35.3550   31.2500   31.9910 N   0  0  0  0  0  0  0  0  0  0  0  0
   35.5250   30.4030   33.0210 C   0  0  0  0  0  0  0  0  0  0  0  0
   36.1380   29.2390   32.8150 N   0  0  0  0  0  0  0  0  0  0  0  0
   36.8230   29.4070   29.5700 H   0  0  0  0  0  0  0  0  0  0  0  0
   35.6710   31.6260   29.8840 H   0  0  0  0  0  0  0  0  0  0  0  0
   35.0180   30.8090   34.3290 C   0  0  0  0  0  0  0  0  0  0  0  0
   33.7140   30.5720   34.7150 C   0  0  0  0  0  3  0  0  0  0  0  0
   33.2910   30.9840   35.9780 C   0  0  0  0  0  0  0  0  0  0  0  0
   32.2760   30.8070   36.2970 H   0  0  0  0  0  0  0  0  0  0  0  0
   34.1480   31.6080   36.8120 N   0  0  0  0  0  0  0  0  0  0  0  0
   35.3970   31.8270   36.4250 C   0  0  0  0  0  3  0  0  0  0  0  0
   35.8100   31.4270   35.1980 N   0  0  0  0  0  0  0  0  0  0  0  0
  1 30  1  0  0  0  0
  1  6  1  0  0  0  0
  2  1  1  0  0  0  0
  2  3  1  0  0  0  0
  3  4  1  0  0  0  0
  3 10  1  0  0  0  0
  4 11  1  6  0  0  0
  4  5  1  0  0  0  0
  4 17  1  0  0  0  0
  5 12  1  0  0  0  0
  5 13  1  0  0  0  0
  6 14  1  0  0  0  0
  6  5  1  0  0  0  0
  7  2  1  0  0  0  0
  8  2  1  0  0  0  0
  9  3  1  0  0  0  0
 15  6  1  0  0  0  0
 16 21  1  0  0  0  0
 17 16  2  0  0  0  0
 17 18  1  0  0  0  0
 18 19  2  0  0  0  0
 19 20  1  0  0  0  0
 19 24  1  0  0  0  0
 20 22  1  0  0  0  0
 21 27  1  0  0  0  0
 21 20  2  0  0  0  0
 22 23  1  0  0  0  0
 23 29  1  0  0  0  0
 23 28  1  0  0  0  0
 24 23  1  0  0  0  0
 25 16  1  0  0  0  0
 26 18  1  0  0  0  0
 30 35  1  0  0  0  0
 31 32  1  0  0  0  0
 31 30  2  0  0  0  0
 32 33  2  0  0  0  0
 33 34  1  0  0  0  0
 34 38  1  0  0  0  0
 35 34  2  0  0  0  0
 36 31  1  0  0  0  0
 37 32  1  0  0  0  0
 38 39  2  0  0  0  0
 38 44  1  0  0  0  0
 39 40  1  0  0  0  0
 40 41  1  0  0  0  0
 40 42  2  0  0  0  0
 43 42  1  0  0  0  0
 44 43  2  0  0  0  0
M  END
>  <minimizedAffinity>
-6.07693863

$$$$

 OpenBabel03272507493D

 44 48  0  0  1  0  0  0  0  0999 V2000
   37.0340   27.5150   31.5220 N   0  0  0  0  0  0  0  0  0  0  0  0
   36.6730   26.1880   31.1550 C   0  0  0  0  0  0  0  0  0  0  0  0
   36.9280   25.1290   32.1580 C   0  0  0  0  0  0  0  0  0  0  0  0
   38.1630   25.2440   32.9360 C   0  0  1  0  0  0  0  0  0  0  0  0
   38.5280   26.7100   33.2390 C   0  0  0  0  0  0  0  0  0  0  0  0
   38.4160   27.4810   31.9120 C   0  0  0  0  0  0  0  0  0  0  0  0
   35.5960   26.1870   30.8740 H   0  0  0  0  0  0  0  0  0  0  0  0
   37.2180   25.9260   30.2010 H   0  0  0  0  0  0  0  0  0  0  0  0
   36.8410   24.1360   31.6880 H   0  0  0  0  0  0  0  0  0  0  0  0
   36.0740   25.2950   32.8970 H   0  0  0  0  0  0  0  0  0  0  0  0
   39.0370   24.8830   32.3620 H   0  0  0  0  0  0  0  0  0  0  0  0
   39.5620   26.7200   33.5870 H   0  0  0  0  0  0  0  0  0  0  0  0
   37.7780   27.1270   33.9200 H   0  0  0  0  0  0  0  0  0  0  0  0
   38.8160   28.5090   32.0530 H   0  0  0  0  0  0  0  0  0  0  0  0
   39.0860   27.0170   31.1550 H   0  0  0  0  0  0  0  0  0  0  0  0
   38.0800   23.1960   34.2830 C   0  0  0  0  0  0  0  0  0  0  0  0
   38.1220   24.5790   34.2630 C   0  0  0  0  0  0  0  0  0  0  0  0
   38.1030   25.3590   35.3880 C   0  0  0  0  0  0  0  0  0  0  0  0
   38.0390   24.7170   36.6230 C   0  0  0  0  0  0  0  0  0  0  0  0
   37.9970   23.3460   36.6470 C   0  0  0  0  0  0  0  0  0  0  0  0
   38.0150   22.5490   35.5040 C   0  0  0  0  0  0  0  0  0  0  0  0
   37.9330   22.8880   37.9750 O   0  0  0  0  0  0  0  0  0  0  0  0
   38.2830   24.0220   38.7590 C   0  0  0  0  0  0  0  0  0  0  0  0
   38.0040   25.1380   37.9500 O   0  0  0  0  0  0  0  0  0  0  0  0
   38.1010   22.4800   33.4730 H   0  0  0  0  0  0  0  0  0  0  0  0
   38.1380   26.4190   35.3330 H   0  0  0  0  0  0  0  0  0  0  0  0
   37.9790   21.4510   35.6060 H   0  0  0  0  0  0  0  0  0  0  0  0
   37.5650   24.0640   39.6130 H   0  0  0  0  0  0  0  0  0  0  0  0
   39.3270   23.9870   39.1300 H   0  0  0  0  0  0  0  0  0  0  0  0
   36.2070   28.6850   31.5150 C   0  0  0  0  0  0  0  0  0  0  0  0
   36.4010   29.8140   30.7250 C   0  0  0  0  0  0  0  0  0  0  0  0
   35.4850   30.8530   30.8630 C   0  0  0  0  0  0  0  0  0  0  0  0
   34.4660   30.7160   31.7460 N   0  0  0  0  0  0  0  0  0  0  0  0
   34.3020   29.6130   32.4980 C   0  0  0  0  0  0  0  0  0  0  0  0
   35.1680   28.6080   32.3790 N   0  0  0  0  0  0  0  0  0  0  0  0
   37.2490   29.7830   30.0730 H   0  0  0  0  0  0  0  0  0  0  0  0
   35.6500   31.7240   30.2430 H   0  0  0  0  0  0  0  0  0  0  0  0
   33.1670   29.5750   33.4160 C   0  0  0  0  0  0  0  0  0  0  0  0
   33.3350   29.5010   34.7840 C   0  0  0  0  0  3  0  0  0  0  0  0
   32.2120   29.4680   35.6080 C   0  0  0  0  0  0  0  0  0  0  0  0
   32.3230   29.4100   36.6790 H   0  0  0  0  0  0  0  0  0  0  0  0
   30.9740   29.5080   35.0730 N   0  0  0  0  0  0  0  0  0  0  0  0
   30.8320   29.5800   33.7570 C   0  0  0  0  0  3  0  0  0  0  0  0
   31.9230   29.6120   32.9540 N   0  0  0  0  0  0  0  0  0  0  0  0
  1  6  1  0  0  0  0
  2  1  1  0  0  0  0
  2  3  1  0  0  0  0
  3 10  1  0  0  0  0
  3  4  1  0  0  0  0
  4 11  1  6  0  0  0
  4  5  1  0  0  0  0
  4 17  1  0  0  0  0
  5 12  1  0  0  0  0
  5 13  1  0  0  0  0
  6 14  1  0  0  0  0
  6  5  1  0  0  0  0
  7  2  1  0  0  0  0
  8  2  1  0  0  0  0
  9  3  1  0  0  0  0
 15  6  1  0  0  0  0
 16 21  1  0  0  0  0
 17 16  2  0  0  0  0
 17 18  1  0  0  0  0
 18 19  2  0  0  0  0
 19 20  1  0  0  0  0
 19 24  1  0  0  0  0
 20 22  1  0  0  0  0
 21 27  1  0  0  0  0
 21 20  2  0  0  0  0
 22 23  1  0  0  0  0
 23 29  1  0  0  0  0
 23 28  1  0  0  0  0
 24 23  1  0  0  0  0
 25 16  1  0  0  0  0
 26 18  1  0  0  0  0
 30  1  1  0  0  0  0
 30 35  1  0  0  0  0
 31 32  1  0  0  0  0
 31 30  2  0  0  0  0
 32 33  2  0  0  0  0
 33 34  1  0  0  0  0
 34 38  1  0  0  0  0
 35 34  2  0  0  0  0
 36 31  1  0  0  0  0
 37 32  1  0  0  0  0
 38 39  1  0  0  0  0
 39 40  2  0  0  0  0
 40 41  1  0  0  0  0
 42 40  1  0  0  0  0
 43 42  2  0  0  0  0
 44 38  2  0  0  0  0
 44 43  1  0  0  0  0
M  END
>  <minimizedAffinity>
-6.04080915

$$$$

 OpenBabel03272507493D

 44 48  0  0  1  0  0  0  0  0999 V2000
   38.4200   25.2330   33.5300 N   0  0  0  0  0  0  0  0  0  0  0  0
   39.7780   25.4610   33.1670 C   0  0  0  0  0  0  0  0  0  0  0  0
   40.8010   24.6840   33.9020 C   0  0  0  0  0  0  0  0  0  0  0  0
   40.5690   24.4770   35.3320 C   0  0  1  0  0  0  0  0  0  0  0  0
   39.0730   24.3050   35.6620 C   0  0  0  0  0  0  0  0  0  0  0  0
   38.3250   25.4450   34.9480 C   0  0  0  0  0  0  0  0  0  0  0  0
   39.8790   25.2750   32.0740 H   0  0  0  0  0  0  0  0  0  0  0  0
   39.9950   26.5620   33.2920 H   0  0  0  0  0  0  0  0  0  0  0  0
   41.8010   25.1080   33.7150 H   0  0  0  0  0  0  0  0  0  0  0  0
   40.7090   23.6560   33.4160 H   0  0  0  0  0  0  0  0  0  0  0  0
   40.8520   25.3710   35.9210 H   0  0  0  0  0  0  0  0  0  0  0  0
   38.9660   24.4120   36.7420 H   0  0  0  0  0  0  0  0  0  0  0  0
   38.7210   23.3650   35.2250 H   0  0  0  0  0  0  0  0  0  0  0  0
   37.2640   25.4480   35.2800 H   0  0  0  0  0  0  0  0  0  0  0  0
   38.7300   26.4240   35.2840 H   0  0  0  0  0  0  0  0  0  0  0  0
   40.5900   22.6350   36.9500 C   0  0  0  0  0  0  0  0  0  0  0  0
   41.2250   23.2720   35.8980 C   0  0  0  0  0  0  0  0  0  0  0  0
   42.4220   22.8680   35.3720 C   0  0  0  0  0  0  0  0  0  0  0  0
   43.0350   21.7500   35.9340 C   0  0  0  0  0  0  0  0  0  0  0  0
   42.4090   21.1160   36.9780 C   0  0  0  0  0  0  0  0  0  0  0  0
   41.1900   21.5240   37.5150 C   0  0  0  0  0  0  0  0  0  0  0  0
   43.1770   20.0180   37.4060 O   0  0  0  0  0  0  0  0  0  0  0  0
   44.1180   19.8130   36.3590 C   0  0  0  0  0  0  0  0  0  0  0  0
   44.2130   21.0470   35.6930 O   0  0  0  0  0  0  0  0  0  0  0  0
   39.6500   22.8490   37.4380 H   0  0  0  0  0  0  0  0  0  0  0  0
   42.8780   23.3820   34.5630 H   0  0  0  0  0  0  0  0  0  0  0  0
   40.7500   20.9610   38.3560 H   0  0  0  0  0  0  0  0  0  0  0  0
   45.1110   19.6380   36.8400 H   0  0  0  0  0  0  0  0  0  0  0  0
   43.8510   18.9650   35.6970 H   0  0  0  0  0  0  0  0  0  0  0  0
   37.3310   24.8640   32.6760 C   0  0  0  0  0  0  0  0  0  0  0  0
   36.4800   25.7440   32.0160 C   0  0  0  0  0  0  0  0  0  0  0  0
   35.4750   25.1900   31.2280 C   0  0  0  0  0  0  0  0  0  0  0  0
   35.3780   23.8400   31.1440 N   0  0  0  0  0  0  0  0  0  0  0  0
   36.2140   23.0120   31.7930 C   0  0  0  0  0  0  0  0  0  0  0  0
   37.1820   23.5240   32.5520 N   0  0  0  0  0  0  0  0  0  0  0  0
   36.6750   26.7840   32.1750 H   0  0  0  0  0  0  0  0  0  0  0  0
   34.8220   25.8880   30.7220 H   0  0  0  0  0  0  0  0  0  0  0  0
   36.0150   21.5750   31.6290 C   0  0  0  0  0  0  0  0  0  0  0  0
   34.9540   20.9120   32.2130 C   0  0  0  0  0  3  0  0  0  0  0  0
   34.8180   19.5380   32.0190 C   0  0  0  0  0  0  0  0  0  0  0  0
   33.9970   19.0030   32.4670 H   0  0  0  0  0  0  0  0  0  0  0  0
   35.7160   18.8650   31.2690 N   0  0  0  0  0  0  0  0  0  0  0  0
   36.7270   19.5190   30.7150 C   0  0  0  0  0  3  0  0  0  0  0  0
   36.8610   20.8540   30.9030 N   0  0  0  0  0  0  0  0  0  0  0  0
  1  6  1  0  0  0  0
  2  8  1  0  0  0  0
  2  1  1  0  0  0  0
  2  3  1  0  0  0  0
  3  4  1  0  0  0  0
  4  5  1  0  0  0  0
  4 17  1  0  0  0  0
  4 11  1  1  0  0  0
  5 12  1  0  0  0  0
  6 14  1  0  0  0  0
  6 15  1  0  0  0  0
  6  5  1  0  0  0  0
  7  2  1  0  0  0  0
  9  3  1  0  0  0  0
 10  3  1  0  0  0  0
 13  5  1  0  0  0  0
 16 25  1  0  0  0  0
 16 21  1  0  0  0  0
 17 16  2  0  0  0  0
 18 17  1  0  0  0  0
 18 19  2  0  0  0  0
 19 20  1  0  0  0  0
 20 22  1  0  0  0  0
 20 21  2  0  0  0  0
 21 27  1  0  0  0  0
 23 28  1  0  0  0  0
 23 22  1  0  0  0  0
 24 19  1  0  0  0  0
 24 23  1  0  0  0  0
 26 18  1  0  0  0  0
 29 23  1  0  0  0  0
 30  1  1  0  0  0  0
 31 36  1  0  0  0  0
 31 30  2  0  0  0  0
 32 31  1  0  0  0  0
 33 32  2  0  0  0  0
 33 34  1  0  0  0  0
 34 35  2  0  0  0  0
 35 30  1  0  0  0  0
 37 32  1  0  0  0  0
 38 34  1  0  0  0  0
 38 39  1  0  0  0  0
 40 39  2  0  0  0  0
 40 41  1  0  0  0  0
 42 40  1  0  0  0  0
 43 44  1  0  0  0  0
 43 42  2  0  0  0  0
 44 38  2  0  0  0  0
M  END
>  <minimizedAffinity>
-5.97054195

$$$$

 OpenBabel03272507493D

 44 48  0  0  1  0  0  0  0  0999 V2000
   35.2150   30.8060   31.7120 N   0  0  0  0  0  0  0  0  0  0  0  0
   35.6310   31.6250   32.8000 C   0  0  0  0  0  0  0  0  0  0  0  0
   34.8940   31.4590   34.0740 C   0  0  0  0  0  0  0  0  0  0  0  0
   33.4490   31.2460   33.9750 C   0  0  1  0  0  0  0  0  0  0  0  0
   33.0660   30.4120   32.7380 C   0  0  0  0  0  0  0  0  0  0  0  0
   33.8060   31.0270   31.5370 C   0  0  0  0  0  0  0  0  0  0  0  0
   36.7170   31.4480   32.9700 H   0  0  0  0  0  0  0  0  0  0  0  0
   35.5630   32.7040   32.4760 H   0  0  0  0  0  0  0  0  0  0  0  0
   35.1310   32.2920   34.7560 H   0  0  0  0  0  0  0  0  0  0  0  0
   35.3290   30.4830   34.4720 H   0  0  0  0  0  0  0  0  0  0  0  0
   32.9110   32.1990   33.8100 H   0  0  0  0  0  0  0  0  0  0  0  0
   31.9880   30.5150   32.6010 H   0  0  0  0  0  0  0  0  0  0  0  0
   33.4480   29.3940   32.8660 H   0  0  0  0  0  0  0  0  0  0  0  0
   33.4410   30.5510   30.6010 H   0  0  0  0  0  0  0  0  0  0  0  0
   33.5270   32.0990   31.4380 H   0  0  0  0  0  0  0  0  0  0  0  0
   32.7990   31.1840   36.3390 C   0  0  0  0  0  0  0  0  0  0  0  0
   32.8510   30.5220   35.1240 C   0  0  0  0  0  0  0  0  0  0  0  0
   32.4050   29.2420   34.9340 C   0  0  0  0  0  0  0  0  0  0  0  0
   31.8700   28.5700   36.0310 C   0  0  0  0  0  0  0  0  0  0  0  0
   31.8190   29.2220   37.2370 C   0  0  0  0  0  0  0  0  0  0  0  0
   32.2710   30.5250   37.4340 C   0  0  0  0  0  0  0  0  0  0  0  0
   31.2510   28.3850   38.2140 O   0  0  0  0  0  0  0  0  0  0  0  0
   30.6520   27.3290   37.4740 C   0  0  0  0  0  0  0  0  0  0  0  0
   31.3280   27.3040   36.2410 O   0  0  0  0  0  0  0  0  0  0  0  0
   33.1050   32.1850   36.6080 H   0  0  0  0  0  0  0  0  0  0  0  0
   32.4600   28.7680   33.9850 H   0  0  0  0  0  0  0  0  0  0  0  0
   32.1950   30.9810   38.4370 H   0  0  0  0  0  0  0  0  0  0  0  0
   30.9100   26.3750   37.9940 H   0  0  0  0  0  0  0  0  0  0  0  0
   29.5520   27.4360   37.3800 H   0  0  0  0  0  0  0  0  0  0  0  0
   36.0160   29.9240   30.9180 C   0  0  0  0  0  0  0  0  0  0  0  0
   36.8090   30.2950   29.8360 C   0  0  0  0  0  0  0  0  0  0  0  0
   37.5170   29.2870   29.1890 C   0  0  0  0  0  0  0  0  0  0  0  0
   37.4020   28.0130   29.6370 N   0  0  0  0  0  0  0  0  0  0  0  0
   36.6280   27.6820   30.6860 C   0  0  0  0  0  0  0  0  0  0  0  0
   35.9430   28.6330   31.3180 N   0  0  0  0  0  0  0  0  0  0  0  0
   36.8030   31.3380   29.5940 H   0  0  0  0  0  0  0  0  0  0  0  0
   38.1270   29.5920   28.3500 H   0  0  0  0  0  0  0  0  0  0  0  0
   36.5800   26.2770   31.0820 C   0  0  0  0  0  0  0  0  0  0  0  0
   35.4270   25.5250   30.9720 C   0  0  0  0  0  3  0  0  0  0  0  0
   35.4450   24.1880   31.3660 C   0  0  0  0  0  0  0  0  0  0  0  0
   34.5550   23.5850   31.2880 H   0  0  0  0  0  0  0  0  0  0  0  0
   36.5780   23.6370   31.8500 N   0  0  0  0  0  0  0  0  0  0  0  0
   37.6750   24.3740   31.9480 C   0  0  0  0  0  3  0  0  0  0  0  0
   37.6590   25.6730   31.5650 N   0  0  0  0  0  0  0  0  0  0  0  0
  1  2  1  0  0  0  0
  2  7  1  0  0  0  0
  2  3  1  0  0  0  0
  3 10  1  0  0  0  0
  3  9  1  0  0  0  0
  4 11  1  6  0  0  0
  4  3  1  0  0  0  0
  4 17  1  0  0  0  0
  5 13  1  0  0  0  0
  5  4  1  0  0  0  0
  6  1  1  0  0  0  0
  6  5  1  0  0  0  0
  8  2  1  0  0  0  0
 12  5  1  0  0  0  0
 14  6  1  0  0  0  0
 15  6  1  0  0  0  0
 16 25  1  0  0  0  0
 16 21  1  0  0  0  0
 17 16  2  0  0  0  0
 18 17  1  0  0  0  0
 18 19  2  0  0  0  0
 19 24  1  0  0  0  0
 19 20  1  0  0  0  0
 20 21  2  0  0  0  0
 20 22  1  0  0  0  0
 21 27  1  0  0  0  0
 23 28  1  0  0  0  0
 23 22  1  0  0  0  0
 24 23  1  0  0  0  0
 26 18  1  0  0  0  0
 29 23  1  0  0  0  0
 30 35  1  0  0  0  0
 30  1  1  0  0  0  0
 31 30  2  0  0  0  0
 32 33  2  0  0  0  0
 32 31  1  0  0  0  0
 33 34  1  0  0  0  0
 34 38  1  0  0  0  0
 34 35  2  0  0  0  0
 36 31  1  0  0  0  0
 37 32  1  0  0  0  0
 38 44  1  0  0  0  0
 39 38  2  0  0  0  0
 39 40  1  0  0  0  0
 40 42  2  0  0  0  0
 41 40  1  0  0  0  0
 42 43  1  0  0  0  0
 44 43  2  0  0  0  0
M  END
>  <minimizedAffinity>
-5.95937157

$$$$

 OpenBabel03272507493D

 44 48  0  0  1  0  0  0  0  0999 V2000
   37.1400   25.7900   32.0430 N   0  0  0  0  0  0  0  0  0  0  0  0
   38.0050   26.8700   32.3820 C   0  0  0  0  0  0  0  0  0  0  0  0
   37.3630   28.0840   32.9360 C   0  0  0  0  0  0  0  0  0  0  0  0
   36.0810   28.4770   32.3500 C   0  0  1  0  0  0  0  0  0  0  0  0
   35.2270   27.2600   31.9460 C   0  0  0  0  0  0  0  0  0  0  0  0
   36.1450   26.3150   31.1500 C   0  0  0  0  0  0  0  0  0  0  0  0
   38.7690   26.4900   33.0960 H   0  0  0  0  0  0  0  0  0  0  0  0
   38.5910   27.1550   31.4600 H   0  0  0  0  0  0  0  0  0  0  0  0
   38.0800   28.9230   32.9330 H   0  0  0  0  0  0  0  0  0  0  0  0
   37.1350   27.7620   34.0060 H   0  0  0  0  0  0  0  0  0  0  0  0
   36.2220   29.0130   31.3920 H   0  0  0  0  0  0  0  0  0  0  0  0
   34.4270   27.6270   31.3010 H   0  0  0  0  0  0  0  0  0  0  0  0
   34.9210   26.7260   32.8510 H   0  0  0  0  0  0  0  0  0  0  0  0
   35.5340   25.4980   30.7100 H   0  0  0  0  0  0  0  0  0  0  0  0
   36.5670   26.8560   30.2750 H   0  0  0  0  0  0  0  0  0  0  0  0
   33.8580   29.3220   32.9480 C   0  0  0  0  0  0  0  0  0  0  0  0
   35.2080   29.2730   33.2490 C   0  0  0  0  0  0  0  0  0  0  0  0
   35.7790   29.9320   34.3040 C   0  0  0  0  0  0  0  0  0  0  0  0
   34.9470   30.6950   35.1210 C   0  0  0  0  0  0  0  0  0  0  0  0
   33.6070   30.7460   34.8260 C   0  0  0  0  0  0  0  0  0  0  0  0
   33.0230   30.0770   33.7520 C   0  0  0  0  0  0  0  0  0  0  0  0
   32.9390   31.5610   35.7570 O   0  0  0  0  0  0  0  0  0  0  0  0
   33.8690   31.7220   36.8210 C   0  0  0  0  0  0  0  0  0  0  0  0
   35.1330   31.4840   36.2540 O   0  0  0  0  0  0  0  0  0  0  0  0
   33.2950   28.8420   32.1600 H   0  0  0  0  0  0  0  0  0  0  0  0
   36.8200   29.8700   34.5040 H   0  0  0  0  0  0  0  0  0  0  0  0
   31.9370   30.1680   33.5800 H   0  0  0  0  0  0  0  0  0  0  0  0
   33.8510   32.8000   37.1110 H   0  0  0  0  0  0  0  0  0  0  0  0
   33.6420   31.0790   37.6950 H   0  0  0  0  0  0  0  0  0  0  0  0
   37.2170   24.4300   32.4860 C   0  0  0  0  0  0  0  0  0  0  0  0
   36.6680   23.3300   31.8350 C   0  0  0  0  0  0  0  0  0  0  0  0
   36.8500   22.0830   32.4260 C   0  0  0  0  0  0  0  0  0  0  0  0
   37.5440   22.0030   33.5880 N   0  0  0  0  0  0  0  0  0  0  0  0
   38.0650   23.0830   34.1960 C   0  0  0  0  0  0  0  0  0  0  0  0
   37.9000   24.2850   33.6450 N   0  0  0  0  0  0  0  0  0  0  0  0
   36.1450   23.5440   30.9250 H   0  0  0  0  0  0  0  0  0  0  0  0
   36.4160   21.2390   31.9080 H   0  0  0  0  0  0  0  0  0  0  0  0
   38.7930   22.8790   35.4440 C   0  0  0  0  0  0  0  0  0  0  0  0
   38.3430   23.3870   36.6460 C   0  0  0  0  0  3  0  0  0  0  0  0
   39.0840   23.1570   37.8040 C   0  0  0  0  0  0  0  0  0  0  0  0
   38.7490   23.5470   38.7520 H   0  0  0  0  0  0  0  0  0  0  0  0
   40.2290   22.4450   37.7490 N   0  0  0  0  0  0  0  0  0  0  0  0
   40.6450   21.9640   36.5870 C   0  0  0  0  0  3  0  0  0  0  0  0
   39.9260   22.1860   35.4600 N   0  0  0  0  0  0  0  0  0  0  0  0
  1  2  1  0  0  0  0
  1 30  1  0  0  0  0
  2  3  1  0  0  0  0
  2  7  1  0  0  0  0
  3 10  1  0  0  0  0
  4 11  1  6  0  0  0
  4  3  1  0  0  0  0
  4 17  1  0  0  0  0
  5  4  1  0  0  0  0
  5 13  1  0  0  0  0
  6  5  1  0  0  0  0
  6  1  1  0  0  0  0
  8  2  1  0  0  0  0
  9  3  1  0  0  0  0
 12  5  1  0  0  0  0
 14  6  1  0  0  0  0
 15  6  1  0  0  0  0
 16 17  2  0  0  0  0
 16 21  1  0  0  0  0
 17 18  1  0  0  0  0
 18 26  1  0  0  0  0
 18 19  2  0  0  0  0
 19 24  1  0  0  0  0
 20 19  1  0  0  0  0
 20 22  1  0  0  0  0
 21 20  2  0  0  0  0
 22 23  1  0  0  0  0
 23 28  1  0  0  0  0
 23 29  1  0  0  0  0
 24 23  1  0  0  0  0
 25 16  1  0  0  0  0
 27 21  1  0  0  0  0
 30 35  1  0  0  0  0
 31 32  1  0  0  0  0
 31 30  2  0  0  0  0
 32 33  2  0  0  0  0
 33 34  1  0  0  0  0
 34 38  1  0  0  0  0
 35 34  2  0  0  0  0
 36 31  1  0  0  0  0
 37 32  1  0  0  0  0
 38 44  2  0  0  0  0
 38 39  1  0  0  0  0
 39 40  2  0  0  0  0
 40 41  1  0  0  0  0
 42 40  1  0  0  0  0
 43 42  2  0  0  0  0
 44 43  1  0  0  0  0
M  END
>  <minimizedAffinity>
-5.94755268

$$$$

 OpenBabel03272507493D

 44 48  0  0  1  0  0  0  0  0999 V2000
   36.9570   27.3800   33.3930 N   0  0  0  0  0  0  0  0  0  0  0  0
   36.8960   28.2300   34.5340 C   0  0  0  0  0  0  0  0  0  0  0  0
   35.6410   28.9900   34.7290 C   0  0  0  0  0  0  0  0  0  0  0  0
   35.0000   29.5230   33.5260 C   0  0  1  0  0  0  0  0  0  0  0  0
   35.1640   28.5850   32.3140 C   0  0  0  0  0  0  0  0  0  0  0  0
   36.6510   28.1940   32.2490 C   0  0  0  0  0  0  0  0  0  0  0  0
   37.1040   27.6120   35.4360 H   0  0  0  0  0  0  0  0  0  0  0  0
   37.7590   28.9560   34.4790 H   0  0  0  0  0  0  0  0  0  0  0  0
   35.7920   29.7780   35.4850 H   0  0  0  0  0  0  0  0  0  0  0  0
   34.9380   28.1850   35.1300 H   0  0  0  0  0  0  0  0  0  0  0  0
   35.4900   30.4560   33.1860 H   0  0  0  0  0  0  0  0  0  0  0  0
   34.8920   29.1560   31.4250 H   0  0  0  0  0  0  0  0  0  0  0  0
   34.5970   27.6660   32.4990 H   0  0  0  0  0  0  0  0  0  0  0  0
   36.8420   27.6400   31.3040 H   0  0  0  0  0  0  0  0  0  0  0  0
   37.2740   29.1120   32.1710 H   0  0  0  0  0  0  0  0  0  0  0  0
   32.8790   30.2800   32.5560 C   0  0  0  0  0  0  0  0  0  0  0  0
   33.5370   29.7370   33.6470 C   0  0  0  0  0  0  0  0  0  0  0  0
   32.9210   29.4130   34.8260 C   0  0  0  0  0  0  0  0  0  0  0  0
   31.5510   29.6460   34.9290 C   0  0  0  0  0  0  0  0  0  0  0  0
   30.8950   30.1850   33.8500 C   0  0  0  0  0  0  0  0  0  0  0  0
   31.5190   30.5150   32.6490 C   0  0  0  0  0  0  0  0  0  0  0  0
   29.5300   30.3450   34.1460 O   0  0  0  0  0  0  0  0  0  0  0  0
   29.3270   29.5660   35.3190 C   0  0  0  0  0  0  0  0  0  0  0  0
   30.5930   29.4590   35.9220 O   0  0  0  0  0  0  0  0  0  0  0  0
   33.2490   30.5630   31.5810 H   0  0  0  0  0  0  0  0  0  0  0  0
   33.4590   28.9970   35.6400 H   0  0  0  0  0  0  0  0  0  0  0  0
   30.9220   30.9460   31.8260 H   0  0  0  0  0  0  0  0  0  0  0  0
   28.6980   30.1760   36.0130 H   0  0  0  0  0  0  0  0  0  0  0  0
   28.8440   28.5900   35.1130 H   0  0  0  0  0  0  0  0  0  0  0  0
   37.2630   25.9820   33.3530 C   0  0  0  0  0  0  0  0  0  0  0  0
   37.0470   25.1320   32.2720 C   0  0  0  0  0  0  0  0  0  0  0  0
   37.4120   23.7980   32.4280 C   0  0  0  0  0  0  0  0  0  0  0  0
   37.9510   23.3980   33.6060 N   0  0  0  0  0  0  0  0  0  0  0  0
   38.1490   24.2410   34.6350 C   0  0  0  0  0  0  0  0  0  0  0  0
   37.8060   25.5220   34.5040 N   0  0  0  0  0  0  0  0  0  0  0  0
   36.6140   25.5860   31.4060 H   0  0  0  0  0  0  0  0  0  0  0  0
   37.2370   23.1510   31.5790 H   0  0  0  0  0  0  0  0  0  0  0  0
   38.7370   23.7010   35.8570 C   0  0  0  0  0  0  0  0  0  0  0  0
   38.1800   23.9280   37.1000 C   0  0  0  0  0  3  0  0  0  0  0  0
   38.7890   23.3840   38.2290 C   0  0  0  0  0  0  0  0  0  0  0  0
   38.3700   23.5510   39.2080 H   0  0  0  0  0  0  0  0  0  0  0  0
   39.9110   22.6440   38.1080 N   0  0  0  0  0  0  0  0  0  0  0  0
   40.4310   22.4360   36.9060 C   0  0  0  0  0  3  0  0  0  0  0  0
   39.8410   22.9640   35.8070 N   0  0  0  0  0  0  0  0  0  0  0  0
  1  2  1  0  0  0  0
  2  3  1  0  0  0  0
  2  7  1  0  0  0  0
  3 10  1  0  0  0  0
  3  9  1  0  0  0  0
  4 11  1  6  0  0  0
  4 17  1  0  0  0  0
  4  3  1  0  0  0  0
  5 13  1  0  0  0  0
  5  4  1  0  0  0  0
  6  5  1  0  0  0  0
  6  1  1  0  0  0  0
  8  2  1  0  0  0  0
 12  5  1  0  0  0  0
 14  6  1  0  0  0  0
 15  6  1  0  0  0  0
 16 21  2  0  0  0  0
 16 17  1  0  0  0  0
 17 18  2  0  0  0  0
 18 19  1  0  0  0  0
 18 26  1  0  0  0  0
 19 24  1  0  0  0  0
 20 22  1  0  0  0  0
 20 19  2  0  0  0  0
 21 20  1  0  0  0  0
 22 23  1  0  0  0  0
 23 24  1  0  0  0  0
 23 28  1  0  0  0  0
 25 16  1  0  0  0  0
 27 21  1  0  0  0  0
 29 23  1  0  0  0  0
 30  1  1  0  0  0  0
 30 35  1  0  0  0  0
 31 32  1  0  0  0  0
 31 30  2  0  0  0  0
 32 33  2  0  0  0  0
 33 34  1  0  0  0  0
 34 38  1  0  0  0  0
 35 34  2  0  0  0  0
 36 31  1  0  0  0  0
 37 32  1  0  0  0  0
 38 39  1  0  0  0  0
 39 40  2  0  0  0  0
 40 41  1  0  0  0  0
 42 40  1  0  0  0  0
 43 42  2  0  0  0  0
 44 38  2  0  0  0  0
 44 43  1  0  0  0  0
M  END
>  <minimizedAffinity>
-5.92307568

$$$$

 OpenBabel03272507493D

 44 48  0  0  1  0  0  0  0  0999 V2000
   38.3580   26.0190   35.5900 N   0  0  0  0  0  0  0  0  0  0  0  0
   37.1630   26.3320   34.8800 C   0  0  0  0  0  0  0  0  0  0  0  0
   37.2880   26.5030   33.4150 C   0  0  0  0  0  0  0  0  0  0  0  0
   38.4920   27.1810   32.9310 C   0  0  1  0  0  0  0  0  0  0  0  0
   39.7310   26.8500   33.7860 C   0  0  0  0  0  0  0  0  0  0  0  0
   39.3200   27.0330   35.2580 C   0  0  0  0  0  0  0  0  0  0  0  0
   36.4120   25.5420   35.1030 H   0  0  0  0  0  0  0  0  0  0  0  0
   36.7280   27.2750   35.3220 H   0  0  0  0  0  0  0  0  0  0  0  0
   36.3750   26.9710   33.0120 H   0  0  0  0  0  0  0  0  0  0  0  0
   37.3700   25.4220   33.0580 H   0  0  0  0  0  0  0  0  0  0  0  0
   38.4050   28.2790   33.0330 H   0  0  0  0  0  0  0  0  0  0  0  0
   40.5050   27.5730   33.5250 H   0  0  0  0  0  0  0  0  0  0  0  0
   39.9820   25.7930   33.6500 H   0  0  0  0  0  0  0  0  0  0  0  0
   40.2220   26.9510   35.9010 H   0  0  0  0  0  0  0  0  0  0  0  0
   38.9520   28.0700   35.4150 H   0  0  0  0  0  0  0  0  0  0  0  0
   38.9840   25.4880   31.2270 C   0  0  0  0  0  0  0  0  0  0  0  0
   38.8830   26.8320   31.5420 C   0  0  0  0  0  0  0  0  0  0  0  0
   39.1430   27.8450   30.6590 C   0  0  0  0  0  0  0  0  0  0  0  0
   39.5330   27.4970   29.3680 C   0  0  0  0  0  0  0  0  0  0  0  0
   39.6360   26.1650   29.0510 C   0  0  0  0  0  0  0  0  0  0  0  0
   39.3720   25.1320   29.9470 C   0  0  0  0  0  0  0  0  0  0  0  0
   40.0410   26.0180   27.7120 O   0  0  0  0  0  0  0  0  0  0  0  0
   39.8470   27.3050   27.1380 C   0  0  0  0  0  0  0  0  0  0  0  0
   39.8740   28.2050   28.2180 O   0  0  0  0  0  0  0  0  0  0  0  0
   38.7960   24.6080   31.8260 H   0  0  0  0  0  0  0  0  0  0  0  0
   39.0520   28.8650   30.9380 H   0  0  0  0  0  0  0  0  0  0  0  0
   39.4780   24.0840   29.6170 H   0  0  0  0  0  0  0  0  0  0  0  0
   40.7490   27.5270   26.5190 H   0  0  0  0  0  0  0  0  0  0  0  0
   38.9270   27.3700   26.5230 H   0  0  0  0  0  0  0  0  0  0  0  0
   38.5920   24.9170   36.4740 C   0  0  0  0  0  0  0  0  0  0  0  0
   37.9070   24.6640   37.6580 C   0  0  0  0  0  0  0  0  0  0  0  0
   38.2830   23.5370   38.3840 C   0  0  0  0  0  0  0  0  0  0  0  0
   39.2820   22.7540   37.9080 N   0  0  0  0  0  0  0  0  0  0  0  0
   39.9280   23.0220   36.7600 C   0  0  0  0  0  0  0  0  0  0  0  0
   39.5820   24.0960   36.0520 N   0  0  0  0  0  0  0  0  0  0  0  0
   37.1410   25.3680   37.9100 H   0  0  0  0  0  0  0  0  0  0  0  0
   37.7400   23.3540   39.3020 H   0  0  0  0  0  0  0  0  0  0  0  0
   40.9890   22.1090   36.3450 C   0  0  0  0  0  0  0  0  0  0  0  0
   41.7120   21.3640   37.2550 C   0  0  0  0  0  3  0  0  0  0  0  0
   42.7120   20.5100   36.7960 C   0  0  0  0  0  0  0  0  0  0  0  0
   43.2870   19.9200   37.4910 H   0  0  0  0  0  0  0  0  0  0  0  0
   42.9710   20.4130   35.4750 N   0  0  0  0  0  0  0  0  0  0  0  0
   42.2670   21.1360   34.6150 C   0  0  0  0  0  3  0  0  0  0  0  0
   41.2940   21.9670   35.0600 N   0  0  0  0  0  0  0  0  0  0  0  0
  1 30  1  0  0  0  0
  2  7  1  0  0  0  0
  2  8  1  0  0  0  0
  2  1  1  0  0  0  0
  3  2  1  0  0  0  0
  4 11  1  1  0  0  0
  4  3  1  0  0  0  0
  4  5  1  0  0  0  0
  5  6  1  0  0  0  0
  6 15  1  0  0  0  0
  6  1  1  0  0  0  0
  6 14  1  0  0  0  0
  9  3  1  0  0  0  0
 10  3  1  0  0  0  0
 12  5  1  0  0  0  0
 13  5  1  0  0  0  0
 16 17  1  0  0  0  0
 16 25  1  0  0  0  0
 17  4  1  0  0  0  0
 18 26  1  0  0  0  0
 18 17  2  0  0  0  0
 19 18  1  0  0  0  0
 20 19  2  0  0  0  0
 20 21  1  0  0  0  0
 21 16  2  0  0  0  0
 22 20  1  0  0  0  0
 23 22  1  0  0  0  0
 23 24  1  0  0  0  0
 24 19  1  0  0  0  0
 27 21  1  0  0  0  0
 28 23  1  0  0  0  0
 29 23  1  0  0  0  0
 30 31  1  0  0  0  0
 31 36  1  0  0  0  0
 31 32  2  0  0  0  0
 32 37  1  0  0  0  0
 33 32  1  0  0  0  0
 34 33  2  0  0  0  0
 35 30  2  0  0  0  0
 35 34  1  0  0  0  0
 38 34  1  0  0  0  0
 38 39  1  0  0  0  0
 40 39  2  0  0  0  0
 40 41  1  0  0  0  0
 42 40  1  0  0  0  0
 43 44  1  0  0  0  0
 43 42  2  0  0  0  0
 44 38  2  0  0  0  0
M  END
>  <minimizedAffinity>
-5.88081837

$$$$

 OpenBabel03272507493D

 44 48  0  0  1  0  0  0  0  0999 V2000
   37.3310   27.8960   32.4400 N   0  0  0  0  0  0  0  0  0  0  0  0
   38.2710   27.4890   31.4490 C   0  0  0  0  0  0  0  0  0  0  0  0
   38.2620   26.0560   31.0770 C   0  0  0  0  0  0  0  0  0  0  0  0
   38.0490   25.0950   32.1600 C   0  0  1  0  0  0  0  0  0  0  0  0
   37.0760   25.6280   33.2290 C   0  0  0  0  0  0  0  0  0  0  0  0
   37.5390   27.0530   33.5840 C   0  0  0  0  0  0  0  0  0  0  0  0
   38.1080   28.1130   30.5420 H   0  0  0  0  0  0  0  0  0  0  0  0
   39.3040   27.7670   31.8080 H   0  0  0  0  0  0  0  0  0  0  0  0
   39.1690   25.8130   30.4980 H   0  0  0  0  0  0  0  0  0  0  0  0
   37.3370   25.9910   30.4120 H   0  0  0  0  0  0  0  0  0  0  0  0
   38.9790   24.9210   32.7340 H   0  0  0  0  0  0  0  0  0  0  0  0
   37.1690   24.9810   34.1020 H   0  0  0  0  0  0  0  0  0  0  0  0
   36.0770   25.7140   32.7870 H   0  0  0  0  0  0  0  0  0  0  0  0
   36.9570   27.4180   34.4580 H   0  0  0  0  0  0  0  0  0  0  0  0
   38.5930   27.0240   33.9370 H   0  0  0  0  0  0  0  0  0  0  0  0
   36.0910   23.6820   31.7320 C   0  0  0  0  0  0  0  0  0  0  0  0
   37.4700   23.7970   31.7310 C   0  0  0  0  0  0  0  0  0  0  0  0
   38.3200   22.7830   31.3820 C   0  0  0  0  0  0  0  0  0  0  0  0
   37.7580   21.5640   31.0070 C   0  0  0  0  0  0  0  0  0  0  0  0
   36.3910   21.4460   31.0080 C   0  0  0  0  0  0  0  0  0  0  0  0
   35.5230   22.4760   31.3620 C   0  0  0  0  0  0  0  0  0  0  0  0
   36.0180   20.1510   30.6040 O   0  0  0  0  0  0  0  0  0  0  0  0
   37.2010   19.6030   30.0340 C   0  0  0  0  0  0  0  0  0  0  0  0
   38.2630   20.3320   30.5970 O   0  0  0  0  0  0  0  0  0  0  0  0
   35.3250   24.4060   31.9730 H   0  0  0  0  0  0  0  0  0  0  0  0
   39.3740   22.9090   31.3920 H   0  0  0  0  0  0  0  0  0  0  0  0
   34.4330   22.3030   31.3380 H   0  0  0  0  0  0  0  0  0  0  0  0
   37.2970   18.5590   30.4190 H   0  0  0  0  0  0  0  0  0  0  0  0
   37.1900   19.6090   28.9250 H   0  0  0  0  0  0  0  0  0  0  0  0
   36.3560   28.9400   32.3500 C   0  0  0  0  0  0  0  0  0  0  0  0
   35.8870   29.5180   31.1740 C   0  0  0  0  0  0  0  0  0  0  0  0
   34.9340   30.5260   31.2940 C   0  0  0  0  0  0  0  0  0  0  0  0
   34.5150   30.8880   32.5310 N   0  0  0  0  0  0  0  0  0  0  0  0
   34.9850   30.3120   33.6520 C   0  0  0  0  0  0  0  0  0  0  0  0
   35.8970   29.3460   33.5570 N   0  0  0  0  0  0  0  0  0  0  0  0
   36.3080   29.1320   30.2690 H   0  0  0  0  0  0  0  0  0  0  0  0
   34.5820   30.9650   30.3710 H   0  0  0  0  0  0  0  0  0  0  0  0
   34.4620   30.7820   34.9320 C   0  0  0  0  0  0  0  0  0  0  0  0
   33.1900   30.4620   35.3650 C   0  0  0  0  0  3  0  0  0  0  0  0
   32.7490   30.9420   36.5970 C   0  0  0  0  0  0  0  0  0  0  0  0
   31.7590   30.7020   36.9520 H   0  0  0  0  0  0  0  0  0  0  0  0
   33.5560   31.7110   37.3570 N   0  0  0  0  0  0  0  0  0  0  0  0
   34.7740   32.0070   36.9250 C   0  0  0  0  0  3  0  0  0  0  0  0
   35.2050   31.5420   35.7280 N   0  0  0  0  0  0  0  0  0  0  0  0
  1  6  1  0  0  0  0
  2  8  1  0  0  0  0
  2  1  1  0  0  0  0
  3  2  1  0  0  0  0
  3  4  1  0  0  0  0
  4 11  1  1  0  0  0
  4  5  1  0  0  0  0
  5  6  1  0  0  0  0
  5 12  1  0  0  0  0
  6 15  1  0  0  0  0
  6 14  1  0  0  0  0
  7  2  1  0  0  0  0
  9  3  1  0  0  0  0
 10  3  1  0  0  0  0
 13  5  1  0  0  0  0
 16 25  1  0  0  0  0
 17 16  1  0  0  0  0
 17  4  1  0  0  0  0
 18 26  1  0  0  0  0
 18 17  2  0  0  0  0
 19 20  2  0  0  0  0
 19 18  1  0  0  0  0
 20 21  1  0  0  0  0
 21 16  2  0  0  0  0
 22 20  1  0  0  0  0
 23 28  1  0  0  0  0
 23 24  1  0  0  0  0
 23 22  1  0  0  0  0
 24 19  1  0  0  0  0
 27 21  1  0  0  0  0
 29 23  1  0  0  0  0
 30  1  1  0  0  0  0
 30 35  1  0  0  0  0
 31 32  1  0  0  0  0
 31 30  2  0  0  0  0
 32 33  2  0  0  0  0
 33 34  1  0  0  0  0
 34 38  1  0  0  0  0
 35 34  2  0  0  0  0
 36 31  1  0  0  0  0
 37 32  1  0  0  0  0
 38 39  2  0  0  0  0
 38 44  1  0  0  0  0
 39 40  1  0  0  0  0
 40 41  1  0  0  0  0
 40 42  2  0  0  0  0
 43 42  1  0  0  0  0
 44 43  2  0  0  0  0
M  END
>  <minimizedAffinity>
-5.77316952

$$$$
