
 OpenBabel03272505343D

 33 35  0  0  1  0  0  0  0  0999 V2000
   37.2220   30.4740   49.2820 C   0  0  0  0  0  0  0  0  0  0  0  0
   37.2450   31.6940   49.9790 C   0  0  0  0  0  0  0  0  0  0  0  0
   37.8060   32.8050   49.3360 C   0  0  0  0  0  0  0  0  0  0  0  0
   38.2980   32.6300   48.0700 N   0  0  0  0  0  0  0  0  0  0  0  0
   38.2570   31.4380   47.4370 C   0  0  0  0  0  0  0  0  0  0  0  0
   37.7240   30.3740   48.0410 N   0  0  0  0  0  0  0  0  0  0  0  0
   38.7970   31.3750   46.1250 N   0  0  0  0  0  0  0  0  0  0  0  0
   40.2000   31.0570   45.9540 C   0  0  0  0  0  0  0  0  0  0  0  0
   40.8370   31.9770   44.9300 C   0  0  0  0  0  0  0  0  0  0  0  0
   40.0670   32.0580   43.7250 N   0  0  0  0  0  0  0  0  0  0  0  0
   38.8530   31.3060   43.7380 C   0  0  0  0  0  0  0  0  0  0  0  0
   37.9740   31.6220   44.9440 C   0  0  1  0  0  0  0  0  0  0  0  0
   36.8550   31.8170   50.9730 H   0  0  0  0  0  0  0  0  0  0  0  0
   37.8640   33.7770   49.7950 H   0  0  0  0  0  0  0  0  0  0  0  0
   40.3460   30.0210   45.5900 H   0  0  0  0  0  0  0  0  0  0  0  0
   40.7550   31.1580   46.9000 H   0  0  0  0  0  0  0  0  0  0  0  0
   41.8840   31.7020   44.8060 H   0  0  0  0  0  0  0  0  0  0  0  0
   40.8110   32.9990   45.3970 H   0  0  0  0  0  0  0  0  0  0  0  0
   40.6530   31.6750   42.9560 H   0  0  0  0  0  0  0  0  0  0  0  0
   39.0040   30.1930   43.7250 H   0  0  0  0  0  0  0  0  0  0  0  0
   38.2880   31.5510   42.8300 H   0  0  0  0  0  0  0  0  0  0  0  0
   37.6520   32.6670   44.9360 H   0  0  0  0  0  0  0  0  0  0  0  0
   36.8370   30.6740   44.9160 C   0  0  0  0  0  0  0  0  0  0  0  0
   36.6770   29.6720   43.9570 C   0  0  0  0  0  0  0  0  0  0  0  0
   35.6140   28.8020   43.9490 C   0  0  0  0  0  0  0  0  0  0  0  0
   35.5630   28.0440   43.1600 H   0  0  0  0  0  0  0  0  0  0  0  0
   34.6780   28.9170   44.9080 N   0  0  0  0  0  0  0  0  0  0  0  0
   34.8210   29.8910   45.8510 C   0  0  0  0  0  0  0  0  0  0  0  0
   35.8730   30.7340   45.8400 N   0  0  0  0  0  0  0  0  0  0  0  0
   36.6270   29.2910   49.9600 C   0  0  0  0  0  0  0  0  0  0  0  0
   35.8030   29.7170   51.0100 F   0  0  0  0  0  0  0  0  0  0  0  0
   35.9870   28.5410   49.0200 F   0  0  0  0  0  0  0  0  0  0  0  0
   37.6780   28.5840   50.5500 F   0  0  0  0  0  0  0  0  0  0  0  0
  1 30  1  0  0  0  0
  1  2  1  0  0  0  0
  2 13  1  0  0  0  0
  3 14  1  0  0  0  0
  3  2  2  0  0  0  0
  4  3  1  0  0  0  0
  5  6  1  0  0  0  0
  5  4  2  0  0  0  0
  6  1  2  0  0  0  0
  7  5  1  0  0  0  0
  8  7  1  0  0  0  0
  8 16  1  0  0  0  0
  9 18  1  0  0  0  0
  9  8  1  0  0  0  0
 10 11  1  0  0  0  0
 10  9  1  0  0  0  0
 11 12  1  0  0  0  0
 12 22  1  6  0  0  0
 12  7  1  0  0  0  0
 15  8  1  0  0  0  0
 17  9  1  0  0  0  0
 19 10  1  0  0  0  0
 20 11  1  0  0  0  0
 21 11  1  0  0  0  0
 23 12  1  0  0  0  0
 23 29  1  0  0  0  0
 24 23  2  0  0  0  0
 25 24  1  0  0  0  0
 25 27  2  0  0  0  0
 26 25  1  0  0  0  0
 27 28  1  0  0  0  0
 29 28  2  0  0  0  0
 30 33  1  0  0  0  0
 30 31  1  0  0  0  0
 32 30  1  0  0  0  0
M  END
>  <minimizedAffinity>
-6.14158201

>  <minimizedRMSD>
1.28004885

$$$$
