
 OpenBabel03272510273D

 43 47  0  0  1  0  0  0  0  0999 V2000
   36.1070   30.1420   46.5370 C   0  0  0  0  0  0  0  0  0  0  0  0
   37.0160   30.7360   47.4130 C   0  0  0  0  0  0  0  0  0  0  0  0
   38.0040   31.5980   46.9500 C   0  0  0  0  0  0  0  0  0  0  0  0
   38.0310   31.8280   45.5790 C   0  0  0  0  0  0  0  0  0  0  0  0
   38.9010   32.6230   44.8900 N   0  0  0  0  0  0  0  0  0  0  0  0
   38.5530   32.5390   43.5980 C   0  0  0  0  0  0  0  0  0  0  0  0
   37.5210   31.7360   43.4620 N   0  0  0  0  0  0  0  0  0  0  0  0
   37.1570   31.2660   44.6800 C   0  0  0  0  0  0  0  0  0  0  0  0
   36.1710   30.4010   45.1720 C   0  0  0  0  0  0  0  0  0  0  0  0
   35.3330   29.4730   46.8670 H   0  0  0  0  0  0  0  0  0  0  0  0
   38.7000   32.0500   47.6390 H   0  0  0  0  0  0  0  0  0  0  0  0
   39.6870   33.1860   45.3190 H   0  0  0  0  0  0  0  0  0  0  0  0
   35.4940   29.9710   44.4450 H   0  0  0  0  0  0  0  0  0  0  0  0
   37.5590   30.3940   51.1100 C   0  0  0  0  0  0  0  0  0  0  0  0
   37.7810   30.7750   49.8000 C   0  0  0  0  0  0  0  0  0  0  0  0
   36.8760   30.3960   48.8150 C   0  0  0  0  0  0  0  0  0  0  0  0
   35.7930   29.6530   49.1950 N   0  0  0  0  0  0  0  0  0  0  0  0
   35.5890   29.2870   50.4860 C   0  0  0  0  0  0  0  0  0  0  0  0
   36.4510   29.6490   51.4120 N   0  0  0  0  0  0  0  0  0  0  0  0
   38.2440   30.6780   51.8730 H   0  0  0  0  0  0  0  0  0  0  0  0
   38.6390   31.3650   49.5030 H   0  0  0  0  0  0  0  0  0  0  0  0
   34.6940   28.6870   50.7120 H   0  0  0  0  0  0  0  0  0  0  0  0
   39.2470   33.2410   42.5990 O   0  0  0  0  0  0  0  0  0  0  0  0
   38.5610   32.0340   40.7860 N   0  0  0  0  0  0  0  0  0  0  0  0
   38.5620   33.3910   41.3620 C   0  0  1  0  0  0  0  0  0  0  0  0
   37.1830   33.8280   41.5420 C   0  0  0  0  0  0  0  0  0  0  0  0
   36.5790   33.9440   40.2770 O   0  0  0  0  0  0  0  0  0  0  0  0
   36.6320   32.8170   39.5040 C   0  0  0  0  0  0  0  0  0  0  0  0
   37.9860   32.1790   39.4640 C   0  0  1  0  0  0  0  0  0  0  0  0
   39.5710   31.7850   40.6780 H   0  0  0  0  0  0  0  0  0  0  0  0
   39.0880   34.0970   40.7090 H   0  0  0  0  0  0  0  0  0  0  0  0
   36.4530   33.3310   42.1220 H   0  0  0  0  0  0  0  0  0  0  0  0
   37.2120   34.8990   41.9070 H   0  0  0  0  0  0  0  0  0  0  0  0
   35.9300   32.0760   39.9650 H   0  0  0  0  0  0  0  0  0  0  0  0
   36.3250   33.0970   38.4860 H   0  0  0  0  0  0  0  0  0  0  0  0
   37.8040   31.1170   39.1220 H   0  0  0  0  0  0  0  0  0  0  0  0
   38.9240   32.7480   38.4950 C   0  0  0  0  0  0  0  0  0  0  0  0
   40.1910   32.3890   38.1410 C   0  0  0  0  0  3  0  0  0  0  0  0
   40.9020   33.0840   37.1840 C   0  0  0  0  0  0  0  0  0  0  0  0
   41.9010   32.6980   36.9920 H   0  0  0  0  0  0  0  0  0  0  0  0
   40.3660   34.1650   36.5480 N   0  0  0  0  0  0  0  0  0  0  0  0
   39.1140   34.4960   36.9180 C   0  0  0  0  0  3  0  0  0  0  0  0
   38.3820   33.8320   37.8600 N   0  0  0  0  0  0  0  0  0  0  0  0
  1 10  1  0  0  0  0
  1  2  1  0  0  0  0
  2 16  1  0  0  0  0
  3  2  2  0  0  0  0
  3 11  1  0  0  0  0
  4  3  1  0  0  0  0
  5 12  1  0  0  0  0
  5  4  1  0  0  0  0
  6  5  1  0  0  0  0
  7  6  2  0  0  0  0
  7  8  1  0  0  0  0
  8  9  1  0  0  0  0
  8  4  2  0  0  0  0
  9  1  2  0  0  0  0
 13  9  1  0  0  0  0
 14 19  1  0  0  0  0
 14 20  1  0  0  0  0
 15 14  2  0  0  0  0
 16 17  2  0  0  0  0
 16 15  1  0  0  0  0
 17 18  1  0  0  0  0
 18 22  1  0  0  0  0
 18 19  2  0  0  0  0
 21 15  1  0  0  0  0
 23  6  1  0  0  0  0
 24 25  1  0  0  0  0
 25 31  1  6  0  0  0
 25 26  1  0  0  0  0
 25 23  1  0  0  0  0
 26 33  1  0  0  0  0
 26 32  1  0  0  0  0
 27 26  1  0  0  0  0
 28 34  1  0  0  0  0
 28 27  1  0  0  0  0
 29 36  1  6  0  0  0
 29 28  1  0  0  0  0
 29 24  1  0  0  0  0
 30 24  1  0  0  0  0
 35 28  1  0  0  0  0
 37 29  1  0  0  0  0
 38 37  1  0  0  0  0
 39 38  2  0  0  0  0
 40 39  1  0  0  0  0
 41 42  2  0  0  0  0
 41 39  1  0  0  0  0
 42 43  1  0  0  0  0
 43 37  2  0  0  0  0
M  END
>  <minimizedAffinity>
-5.2334857

>  <minimizedRMSD>
1.37946713

$$$$
