
 OpenBabel03272507583D

 30 32  0  0  0  0  0  0  0  0999 V2000
   36.9380   31.1530   48.4480 C   0  0  0  0  0  0  0  0  0  0  0  0
   37.1880   32.1310   49.3920 C   0  0  0  0  0  0  0  0  0  0  0  0
   38.1360   33.1100   49.1340 C   0  0  0  0  0  0  0  0  0  0  0  0
   38.8290   33.1020   47.9300 C   0  0  0  0  0  0  0  0  0  0  0  0
   38.5510   32.1120   47.0190 C   0  0  0  0  0  0  0  0  0  0  0  0
   37.6270   31.1680   47.2830 N   0  0  0  0  0  0  0  0  0  0  0  0
   36.7380   32.2780   50.3680 H   0  0  0  0  0  0  0  0  0  0  0  0
   38.4000   33.9130   49.8070 H   0  0  0  0  0  0  0  0  0  0  0  0
   39.5770   33.8450   47.6840 H   0  0  0  0  0  0  0  0  0  0  0  0
   35.1010   28.5400   50.4240 C   0  0  0  0  0  0  0  0  0  0  0  0
   36.1240   29.4480   50.0310 C   0  0  0  0  0  0  0  0  0  0  0  0
   35.9160   30.2110   48.8870 C   0  0  0  0  0  0  0  0  0  0  0  0
   34.7420   30.0530   48.1980 N   0  0  0  0  0  0  0  0  0  0  0  0
   33.8010   29.1670   48.6250 C   0  0  0  0  0  0  0  0  0  0  0  0
   33.9620   28.4210   49.7100 N   0  0  0  0  0  0  0  0  0  0  0  0
   32.6730   29.1630   47.7470 N   0  0  0  0  0  0  0  0  0  0  0  0
   35.2390   27.9370   51.3070 H   0  0  0  0  0  0  0  0  0  0  0  0
   32.0610   30.0190   47.7920 H   0  0  0  0  0  0  0  0  0  0  0  0
   32.5380   28.3250   47.1350 H   0  0  0  0  0  0  0  0  0  0  0  0
   37.3570   29.5370   50.8520 C   0  0  0  0  0  0  0  0  0  0  0  0
   38.4780   29.7870   50.0610 F   0  0  0  0  0  0  0  0  0  0  0  0
   37.2130   30.5620   51.7330 F   0  0  0  0  0  0  0  0  0  0  0  0
   37.6150   28.3840   51.5720 F   0  0  0  0  0  0  0  0  0  0  0  0
   39.2520   32.0630   45.7420 C   0  0  0  0  0  0  0  0  0  0  0  0
   40.1980   31.0990   45.4800 C   0  0  0  0  0  3  0  0  0  0  0  0
   40.7890   31.1590   44.2360 C   0  0  0  0  0  0  0  0  0  0  0  0
   41.5510   30.4030   43.9940 H   0  0  0  0  0  0  0  0  0  0  0  0
   40.4690   32.0970   43.3270 N   0  0  0  0  0  0  0  0  0  0  0  0
   39.5290   33.0390   43.6090 C   0  0  0  0  0  3  0  0  0  0  0  0
   38.9600   32.9820   44.8040 N   0  0  0  0  0  0  0  0  0  0  0  0
  1 12  1  0  0  0  0
  1  2  1  0  0  0  0
  2  7  1  0  0  0  0
  3  2  2  0  0  0  0
  3  8  1  0  0  0  0
  4  3  1  0  0  0  0
  5  6  1  0  0  0  0
  5  4  2  0  0  0  0
  6  1  2  0  0  0  0
  9  4  1  0  0  0  0
 10 17  1  0  0  0  0
 11 10  1  0  0  0  0
 11 20  1  0  0  0  0
 12 11  2  0  0  0  0
 13 14  2  0  0  0  0
 13 12  1  0  0  0  0
 14 15  1  0  0  0  0
 15 10  2  0  0  0  0
 16 18  1  0  0  0  0
 16 14  1  0  0  0  0
 19 16  1  0  0  0  0
 20 23  1  0  0  0  0
 20 22  1  0  0  0  0
 21 20  1  0  0  0  0
 24  5  1  0  0  0  0
 25 24  1  0  0  0  0
 26 25  2  0  0  0  0
 27 26  1  0  0  0  0
 28 29  2  0  0  0  0
 28 26  1  0  0  0  0
 29 30  1  0  0  0  0
 30 24  2  0  0  0  0
M  END
>  <minimizedAffinity>
-6.94544649

>  <minimizedRMSD>
0.933334589

$$$$
