
 OpenBabel03272510013D

 19 20  0  0  0  0  0  0  0  0999 V2000
   38.1310   32.8170   49.4350 C   0  0  0  0  0  0  0  0  0  0  0  0
   38.5100   32.6860   48.0880 C   0  0  0  0  0  0  0  0  0  0  0  0
   37.9680   31.6220   47.3820 C   0  0  0  0  0  0  0  0  0  0  0  0
   37.1160   30.7690   48.0010 N   0  0  0  0  0  0  0  0  0  0  0  0
   36.7780   30.9320   49.3000 C   0  0  0  0  0  0  0  0  0  0  0  0
   37.2810   31.9470   50.0100 N   0  0  0  0  0  0  0  0  0  0  0  0
   38.5310   33.6340   50.0220 H   0  0  0  0  0  0  0  0  0  0  0  0
   39.1940   33.3960   47.6430 H   0  0  0  0  0  0  0  0  0  0  0  0
   38.3200   31.4280   45.9790 C   0  0  0  0  0  0  0  0  0  0  0  0
   38.0470   32.4210   45.0600 C   0  0  0  0  0  3  0  0  0  0  0  0
   38.4050   32.1700   43.7510 C   0  0  0  0  0  0  0  0  0  0  0  0
   38.2050   32.9250   43.0180 H   0  0  0  0  0  0  0  0  0  0  0  0
   38.9880   31.0020   43.4380 N   0  0  0  0  0  0  0  0  0  0  0  0
   39.2570   30.0340   44.3170 C   0  0  0  0  0  3  0  0  0  0  0  0
   38.9040   30.2790   45.6040 N   0  0  0  0  0  0  0  0  0  0  0  0
   35.8380   29.9510   49.8990 C   0  0  0  0  0  0  0  0  0  0  0  0
   36.1100   29.7060   51.2390 F   0  0  0  0  0  0  0  0  0  0  0  0
   34.5320   30.4090   49.8370 F   0  0  0  0  0  0  0  0  0  0  0  0
   35.8390   28.7390   49.2500 F   0  0  0  0  0  0  0  0  0  0  0  0
  1  6  1  0  0  0  0
  1  7  1  0  0  0  0
  2  1  2  0  0  0  0
  3  4  2  0  0  0  0
  3  2  1  0  0  0  0
  4  5  1  0  0  0  0
  5 16  1  0  0  0  0
  5  6  2  0  0  0  0
  8  2  1  0  0  0  0
  9  3  1  0  0  0  0
 10  9  2  0  0  0  0
 11 10  1  0  0  0  0
 12 11  1  0  0  0  0
 13 11  2  0  0  0  0
 13 14  1  0  0  0  0
 14 15  2  0  0  0  0
 15  9  1  0  0  0  0
 16 17  1  0  0  0  0
 18 16  1  0  0  0  0
 19 16  1  0  0  0  0
M  END
>  <minimizedAffinity>
-5.19857979

>  <minimizedRMSD>
1.52905738

$$$$
