
 OpenBabel03272510343D

 26 28  0  0  0  0  0  0  0  0999 V2000
   35.9930   30.2160   47.0240 C   0  0  0  0  0  0  0  0  0  0  0  0
   35.5210   30.2200   45.7390 C   0  0  0  0  0  0  0  0  0  0  0  0
   34.4660   29.4200   45.3470 C   0  0  0  0  0  0  0  0  0  0  0  0
   33.8890   28.6050   46.2860 C   0  0  0  0  0  0  0  0  0  0  0  0
   34.3370   28.5710   47.5970 C   0  0  0  0  0  0  0  0  0  0  0  0
   35.4000   29.3860   47.9660 C   0  0  0  0  0  0  0  0  0  0  0  0
   35.9570   30.8570   44.9630 H   0  0  0  0  0  0  0  0  0  0  0  0
   34.1090   29.4410   44.3210 H   0  0  0  0  0  0  0  0  0  0  0  0
   33.0650   27.9940   45.9390 H   0  0  0  0  0  0  0  0  0  0  0  0
   33.8490   27.9120   48.2990 H   0  0  0  0  0  0  0  0  0  0  0  0
   37.9510   32.7420   48.7520 C   0  0  0  0  0  0  0  0  0  0  0  0
   39.1500   32.8060   48.0440 C   0  0  0  0  0  0  0  0  0  0  0  0
   39.2720   31.9470   46.9390 C   0  0  0  0  0  0  0  0  0  0  0  0
   38.2440   31.1210   46.6290 N   0  0  0  0  0  0  0  0  0  0  0  0
   37.1100   31.0930   47.3390 C   0  0  0  0  0  0  0  0  0  0  0  0
   36.9650   31.9130   48.4110 N   0  0  0  0  0  0  0  0  0  0  0  0
   37.9010   33.4330   49.6080 H   0  0  0  0  0  0  0  0  0  0  0  0
   39.9960   33.4350   48.2400 H   0  0  0  0  0  0  0  0  0  0  0  0
   40.1470   31.8670   46.2720 H   0  0  0  0  0  0  0  0  0  0  0  0
   35.9020   29.3800   49.3360 C   0  0  0  0  0  0  0  0  0  0  0  0
   37.2540   29.1800   49.5310 C   0  0  0  0  0  3  0  0  0  0  0  0
   37.7310   29.1740   50.8040 C   0  0  0  0  0  0  0  0  0  0  0  0
   38.7590   29.0310   51.1350 H   0  0  0  0  0  0  0  0  0  0  0  0
   36.9180   29.3550   51.8490 N   0  0  0  0  0  0  0  0  0  0  0  0
   35.5780   29.5550   51.6840 C   0  0  0  0  0  3  0  0  0  0  0  0
   35.1510   29.5550   50.4200 N   0  0  0  0  0  0  0  0  0  0  0  0
  1 15  1  0  0  0  0
  1  6  1  0  0  0  0
  2  1  2  0  0  0  0
  3  2  1  0  0  0  0
  3  4  2  0  0  0  0
  4  5  1  0  0  0  0
  5  6  2  0  0  0  0
  5 10  1  0  0  0  0
  6 20  1  0  0  0  0
  7  2  1  0  0  0  0
  8  3  1  0  0  0  0
  9  4  1  0  0  0  0
 11 17  1  0  0  0  0
 12 18  1  0  0  0  0
 12 11  2  0  0  0  0
 13 12  1  0  0  0  0
 14 13  2  0  0  0  0
 14 15  1  0  0  0  0
 15 16  2  0  0  0  0
 16 11  1  0  0  0  0
 19 13  1  0  0  0  0
 20 21  2  0  0  0  0
 20 26  1  0  0  0  0
 21 22  1  0  0  0  0
 22 23  1  0  0  0  0
 22 24  2  0  0  0  0
 25 24  1  0  0  0  0
 26 25  2  0  0  0  0
M  END
>  <minimizedAffinity>
-4.18481827

>  <minimizedRMSD>
1.77299738

$$$$
