
 OpenBabel03272510203D

 34 37  0  0  0  0  0  0  0  0999 V2000
   37.3760   29.1780   50.8150 Br  0  0  0  0  0  0  0  0  0  0  0  0
   35.9710   29.2740   49.5290 C   0  0  0  0  0  0  0  0  0  0  0  0
   35.9810   30.2710   48.5590 C   0  0  0  0  0  0  0  0  0  0  0  0
   34.9310   30.2840   47.6550 C   0  0  0  0  0  0  0  0  0  0  0  0
   33.8960   29.3690   47.6760 C   0  0  0  0  0  0  0  0  0  0  0  0
   33.9290   28.4050   48.6510 C   0  0  0  0  0  0  0  0  0  0  0  0
   34.9600   28.3710   49.5590 C   0  0  0  0  0  0  0  0  0  0  0  0
   34.8770   31.0320   46.8750 H   0  0  0  0  0  0  0  0  0  0  0  0
   33.1430   27.6570   48.7190 H   0  0  0  0  0  0  0  0  0  0  0  0
   34.9750   27.6030   50.3260 H   0  0  0  0  0  0  0  0  0  0  0  0
   37.9970   33.1710   49.4600 C   0  0  0  0  0  0  0  0  0  0  0  0
   39.0280   33.1720   48.4640 C   0  0  0  0  0  0  0  0  0  0  0  0
   39.0000   32.1640   47.5030 C   0  0  0  0  0  0  0  0  0  0  0  0
   38.0020   31.2300   47.5480 N   0  0  0  0  0  0  0  0  0  0  0  0
   37.0490   31.2570   48.4950 C   0  0  0  0  0  0  0  0  0  0  0  0
   37.0600   32.2270   49.4370 N   0  0  0  0  0  0  0  0  0  0  0  0
   38.0260   33.9560   50.2030 H   0  0  0  0  0  0  0  0  0  0  0  0
   39.8100   33.9150   48.4400 H   0  0  0  0  0  0  0  0  0  0  0  0
   39.7420   32.0940   46.7180 H   0  0  0  0  0  0  0  0  0  0  0  0
   32.8020   29.3830   46.7330 C   0  0  0  0  0  0  0  0  0  0  0  0
   31.9940   28.3130   46.4460 C   0  0  0  0  0  0  0  0  0  0  0  0
   30.9540   28.3600   45.5380 C   0  0  0  0  0  0  0  0  0  0  0  0
   30.7080   29.5160   44.8910 N   0  0  0  0  0  0  0  0  0  0  0  0
   31.4910   30.5780   45.1620 C   0  0  0  0  0  0  0  0  0  0  0  0
   32.4820   30.4920   46.0430 N   0  0  0  0  0  0  0  0  0  0  0  0
   32.1860   27.3630   46.9680 H   0  0  0  0  0  0  0  0  0  0  0  0
   30.3490   27.4620   45.3590 H   0  0  0  0  0  0  0  0  0  0  0  0
   31.2410   31.8390   44.4740 C   0  0  0  0  0  0  0  0  0  0  0  0
   31.7610   33.0210   44.9590 C   0  0  0  0  0  3  0  0  0  0  0  0
   31.5270   34.2160   44.3110 C   0  0  0  0  0  0  0  0  0  0  0  0
   31.9950   35.0550   44.8040 H   0  0  0  0  0  0  0  0  0  0  0  0
   30.7800   34.2370   43.1860 N   0  0  0  0  0  0  0  0  0  0  0  0
   30.2630   33.0780   42.6970 C   0  0  0  0  0  3  0  0  0  0  0  0
   30.5050   31.9100   43.3510 N   0  0  0  0  0  0  0  0  0  0  0  0
  2  7  1  0  0  0  0
  2  1  1  0  0  0  0
  3  2  2  0  0  0  0
  4  5  2  0  0  0  0
  4  3  1  0  0  0  0
  5  6  1  0  0  0  0
  6  9  1  0  0  0  0
  6  7  2  0  0  0  0
  7 10  1  0  0  0  0
  8  4  1  0  0  0  0
 11 17  1  0  0  0  0
 12 11  2  0  0  0  0
 13 14  2  0  0  0  0
 13 12  1  0  0  0  0
 14 15  1  0  0  0  0
 15  3  1  0  0  0  0
 15 16  2  0  0  0  0
 16 11  1  0  0  0  0
 18 12  1  0  0  0  0
 19 13  1  0  0  0  0
 20  5  1  0  0  0  0
 21 20  1  0  0  0  0
 21 26  1  0  0  0  0
 22 21  2  0  0  0  0
 23 24  2  0  0  0  0
 23 22  1  0  0  0  0
 24 25  1  0  0  0  0
 25 20  2  0  0  0  0
 27 22  1  0  0  0  0
 28 29  1  0  0  0  0
 28 24  1  0  0  0  0
 30 31  1  0  0  0  0
 30 29  2  0  0  0  0
 32 30  1  0  0  0  0
 33 32  2  0  0  0  0
 33 34  1  0  0  0  0
 34 28  2  0  0  0  0
M  END
>  <minimizedAffinity>
-6.64171076

>  <minimizedRMSD>
0.285500884

$$$$
