
 OpenBabel03272505393D

 29 31  0  0  0  0  0  0  0  0999 V2000
   37.3960   26.4410   33.9590 C   0  0  0  0  0  0  0  0  0  0  0  0
   37.0160   27.6590   34.4970 C   0  0  0  0  0  0  0  0  0  0  0  0
   36.2200   28.5330   33.7800 C   0  0  0  0  0  0  0  0  0  0  0  0
   35.7670   28.2490   32.5160 C   0  0  0  0  0  0  0  0  0  0  0  0
   36.1370   27.0280   31.9550 C   0  0  0  0  0  0  0  0  0  0  0  0
   36.9320   26.1800   32.6970 C   0  0  0  0  0  0  0  0  0  0  0  0
   37.3780   27.8790   35.4950 H   0  0  0  0  0  0  0  0  0  0  0  0
   35.9530   29.4830   34.2550 H   0  0  0  0  0  0  0  0  0  0  0  0
   35.1420   29.0110   32.0410 H   0  0  0  0  0  0  0  0  0  0  0  0
   35.7590   26.8510   30.9670 H   0  0  0  0  0  0  0  0  0  0  0  0
   38.5990   24.2170   36.5910 C   0  0  0  0  0  0  0  0  0  0  0  0
   39.8260   23.7830   36.0980 C   0  0  0  0  0  0  0  0  0  0  0  0
   40.2310   24.2620   34.8510 C   0  0  0  0  0  0  0  0  0  0  0  0
   39.4000   25.1160   34.2110 N   0  0  0  0  0  0  0  0  0  0  0  0
   38.2250   25.5180   34.7070 C   0  0  0  0  0  0  0  0  0  0  0  0
   37.8350   25.0610   35.9000 N   0  0  0  0  0  0  0  0  0  0  0  0
   40.4160   23.0880   36.7060 H   0  0  0  0  0  0  0  0  0  0  0  0
   41.1810   23.9340   34.4560 H   0  0  0  0  0  0  0  0  0  0  0  0
   38.1720   23.6930   37.9410 C   0  0  0  0  0  0  0  0  0  0  0  0
   39.2140   22.9720   38.5110 F   0  0  0  0  0  0  0  0  0  0  0  0
   37.8210   24.7680   38.7110 F   0  0  0  0  0  0  0  0  0  0  0  0
   37.1260   22.8190   37.7470 F   0  0  0  0  0  0  0  0  0  0  0  0
   37.2410   24.9620   31.9620 C   0  0  0  0  0  0  0  0  0  0  0  0
   38.1310   25.0560   30.9090 C   0  0  0  0  0  3  0  0  0  0  0  0
   38.4340   23.8930   30.1960 C   0  0  0  0  0  0  0  0  0  0  0  0
   39.1240   23.9210   29.3700 H   0  0  0  0  0  0  0  0  0  0  0  0
   37.9000   22.7010   30.4860 N   0  0  0  0  0  0  0  0  0  0  0  0
   37.0310   22.6410   31.5210 C   0  0  0  0  0  3  0  0  0  0  0  0
   36.6970   23.7450   32.2550 N   0  0  0  0  0  0  0  0  0  0  0  0
  1  2  1  0  0  0  0
  1 15  1  0  0  0  0
  2  7  1  0  0  0  0
  3  8  1  0  0  0  0
  3  2  2  0  0  0  0
  4  3  1  0  0  0  0
  5  4  2  0  0  0  0
  5  6  1  0  0  0  0
  6  1  2  0  0  0  0
  9  4  1  0  0  0  0
 10  5  1  0  0  0  0
 11 19  1  0  0  0  0
 12 11  1  0  0  0  0
 12 17  1  0  0  0  0
 13 12  2  0  0  0  0
 14 15  2  0  0  0  0
 14 13  1  0  0  0  0
 15 16  1  0  0  0  0
 16 11  2  0  0  0  0
 18 13  1  0  0  0  0
 19 20  1  0  0  0  0
 19 21  1  0  0  0  0
 22 19  1  0  0  0  0
 23 29  1  0  0  0  0
 23  6  1  0  0  0  0
 24 23  2  0  0  0  0
 25 27  2  0  0  0  0
 25 24  1  0  0  0  0
 26 25  1  0  0  0  0
 27 28  1  0  0  0  0
 28 29  2  0  0  0  0
M  END
>  <minimizedAffinity>
-5.7216835

$$$$

 OpenBabel03272505393D

 29 31  0  0  0  0  0  0  0  0999 V2000
   37.4070   22.3110   33.6440 C   0  0  0  0  0  0  0  0  0  0  0  0
   36.6750   21.1510   33.4650 C   0  0  0  0  0  0  0  0  0  0  0  0
   35.8000   21.0210   32.4020 C   0  0  0  0  0  0  0  0  0  0  0  0
   35.6120   22.0180   31.4770 C   0  0  0  0  0  0  0  0  0  0  0  0
   36.3400   23.1950   31.6380 C   0  0  0  0  0  0  0  0  0  0  0  0
   37.2030   23.2920   32.7100 C   0  0  0  0  0  0  0  0  0  0  0  0
   36.8260   20.3670   34.1990 H   0  0  0  0  0  0  0  0  0  0  0  0
   35.2450   20.0810   32.3120 H   0  0  0  0  0  0  0  0  0  0  0  0
   34.8970   21.8090   30.6760 H   0  0  0  0  0  0  0  0  0  0  0  0
   36.1590   23.9440   30.8910 H   0  0  0  0  0  0  0  0  0  0  0  0
   38.7660   23.0720   36.9450 C   0  0  0  0  0  0  0  0  0  0  0  0
   40.1050   22.7130   36.8230 C   0  0  0  0  0  0  0  0  0  0  0  0
   40.5330   22.2060   35.5950 C   0  0  0  0  0  0  0  0  0  0  0  0
   39.6120   22.0990   34.6090 N   0  0  0  0  0  0  0  0  0  0  0  0
   38.3300   22.4510   34.7530 C   0  0  0  0  0  0  0  0  0  0  0  0
   37.9180   22.9360   35.9270 N   0  0  0  0  0  0  0  0  0  0  0  0
   40.7620   22.8420   37.6910 H   0  0  0  0  0  0  0  0  0  0  0  0
   41.5690   21.9240   35.4850 H   0  0  0  0  0  0  0  0  0  0  0  0
   38.3160   23.6190   38.2780 C   0  0  0  0  0  0  0  0  0  0  0  0
   37.9690   24.9580   38.1380 F   0  0  0  0  0  0  0  0  0  0  0  0
   37.2570   22.8630   38.7010 F   0  0  0  0  0  0  0  0  0  0  0  0
   39.3850   23.5610   39.1450 F   0  0  0  0  0  0  0  0  0  0  0  0
   37.8680   24.5870   32.7410 C   0  0  0  0  0  0  0  0  0  0  0  0
   39.0080   24.7410   31.9760 C   0  0  0  0  0  3  0  0  0  0  0  0
   39.6550   25.9800   31.9990 C   0  0  0  0  0  0  0  0  0  0  0  0
   40.5450   26.1430   31.4170 H   0  0  0  0  0  0  0  0  0  0  0  0
   39.2210   27.0140   32.7280 N   0  0  0  0  0  0  0  0  0  0  0  0
   38.1030   26.8310   33.4680 C   0  0  0  0  0  3  0  0  0  0  0  0
   37.4270   25.6430   33.4850 N   0  0  0  0  0  0  0  0  0  0  0  0
  1 15  1  0  0  0  0
  2  1  1  0  0  0  0
  2  7  1  0  0  0  0
  3  2  2  0  0  0  0
  4  5  2  0  0  0  0
  4  3  1  0  0  0  0
  5  6  1  0  0  0  0
  6 23  1  0  0  0  0
  6  1  2  0  0  0  0
  8  3  1  0  0  0  0
  9  4  1  0  0  0  0
 10  5  1  0  0  0  0
 11 19  1  0  0  0  0
 12 11  1  0  0  0  0
 12 17  1  0  0  0  0
 13 12  2  0  0  0  0
 14 15  2  0  0  0  0
 14 13  1  0  0  0  0
 15 16  1  0  0  0  0
 16 11  2  0  0  0  0
 18 13  1  0  0  0  0
 19 21  1  0  0  0  0
 19 22  1  0  0  0  0
 20 19  1  0  0  0  0
 23 29  1  0  0  0  0
 24 25  1  0  0  0  0
 24 23  2  0  0  0  0
 25 27  2  0  0  0  0
 26 25  1  0  0  0  0
 27 28  1  0  0  0  0
 28 29  2  0  0  0  0
M  END
>  <minimizedAffinity>
-5.71781588

$$$$

 OpenBabel03272505393D

 29 31  0  0  0  0  0  0  0  0999 V2000
   40.7450   25.2870   34.6470 C   0  0  0  0  0  0  0  0  0  0  0  0
   42.0930   24.9690   34.6270 C   0  0  0  0  0  0  0  0  0  0  0  0
   43.0180   25.8410   34.0840 C   0  0  0  0  0  0  0  0  0  0  0  0
   42.6620   27.0510   33.5440 C   0  0  0  0  0  0  0  0  0  0  0  0
   41.3100   27.3920   33.5550 C   0  0  0  0  0  0  0  0  0  0  0  0
   40.4130   26.4990   34.1030 C   0  0  0  0  0  0  0  0  0  0  0  0
   42.3690   24.0110   35.0540 H   0  0  0  0  0  0  0  0  0  0  0  0
   44.0700   25.5360   34.0930 H   0  0  0  0  0  0  0  0  0  0  0  0
   43.4750   27.6630   33.1430 H   0  0  0  0  0  0  0  0  0  0  0  0
   41.0820   28.3460   33.1220 H   0  0  0  0  0  0  0  0  0  0  0  0
   38.5390   23.6320   37.0380 C   0  0  0  0  0  0  0  0  0  0  0  0
   37.9330   22.6410   36.2710 C   0  0  0  0  0  0  0  0  0  0  0  0
   38.2900   22.5520   34.9250 C   0  0  0  0  0  0  0  0  0  0  0  0
   39.2030   23.4370   34.4610 N   0  0  0  0  0  0  0  0  0  0  0  0
   39.7710   24.3800   35.2200 C   0  0  0  0  0  0  0  0  0  0  0  0
   39.4300   24.4680   36.5080 N   0  0  0  0  0  0  0  0  0  0  0  0
   37.2050   21.9790   36.7540 H   0  0  0  0  0  0  0  0  0  0  0  0
   37.8290   21.7880   34.3180 H   0  0  0  0  0  0  0  0  0  0  0  0
   38.1450   23.7180   38.4920 C   0  0  0  0  0  0  0  0  0  0  0  0
   39.2440   23.4260   39.2910 F   0  0  0  0  0  0  0  0  0  0  0  0
   37.6750   24.9830   38.7210 F   0  0  0  0  0  0  0  0  0  0  0  0
   37.1940   22.7520   38.7340 F   0  0  0  0  0  0  0  0  0  0  0  0
   39.0480   26.9980   34.0180 C   0  0  0  0  0  0  0  0  0  0  0  0
   38.4460   27.0070   32.7740 C   0  0  0  0  0  3  0  0  0  0  0  0
   37.1350   27.4840   32.6810 C   0  0  0  0  0  0  0  0  0  0  0  0
   36.6280   27.5080   31.7320 H   0  0  0  0  0  0  0  0  0  0  0  0
   36.4450   27.9310   33.7370 N   0  0  0  0  0  0  0  0  0  0  0  0
   37.0630   27.9100   34.9400 C   0  0  0  0  0  3  0  0  0  0  0  0
   38.3430   27.4540   35.0930 N   0  0  0  0  0  0  0  0  0  0  0  0
  1 15  1  0  0  0  0
  2  1  1  0  0  0  0
  2  7  1  0  0  0  0
  3  8  1  0  0  0  0
  3  2  2  0  0  0  0
  4  5  2  0  0  0  0
  4  3  1  0  0  0  0
  5  6  1  0  0  0  0
  6  1  2  0  0  0  0
  9  4  1  0  0  0  0
 10  5  1  0  0  0  0
 11 19  1  0  0  0  0
 12 17  1  0  0  0  0
 12 11  2  0  0  0  0
 13 12  1  0  0  0  0
 14 13  2  0  0  0  0
 14 15  1  0  0  0  0
 15 16  2  0  0  0  0
 16 11  1  0  0  0  0
 18 13  1  0  0  0  0
 19 21  1  0  0  0  0
 19 22  1  0  0  0  0
 19 20  1  0  0  0  0
 23  6  1  0  0  0  0
 23 29  1  0  0  0  0
 24 23  2  0  0  0  0
 25 24  1  0  0  0  0
 25 27  2  0  0  0  0
 26 25  1  0  0  0  0
 27 28  1  0  0  0  0
 28 29  2  0  0  0  0
M  END
>  <minimizedAffinity>
-5.57427597

$$$$

 OpenBabel03272505393D

 29 31  0  0  0  0  0  0  0  0999 V2000
   37.7790   24.8820   33.8240 C   0  0  0  0  0  0  0  0  0  0  0  0
   37.1910   25.8760   33.0610 C   0  0  0  0  0  0  0  0  0  0  0  0
   37.1090   27.1750   33.5290 C   0  0  0  0  0  0  0  0  0  0  0  0
   37.5970   27.5480   34.7570 C   0  0  0  0  0  0  0  0  0  0  0  0
   38.1940   26.5620   35.5420 C   0  0  0  0  0  0  0  0  0  0  0  0
   38.2590   25.2780   35.0450 C   0  0  0  0  0  0  0  0  0  0  0  0
   36.8060   25.5760   32.0920 H   0  0  0  0  0  0  0  0  0  0  0  0
   36.6310   27.9190   32.8830 H   0  0  0  0  0  0  0  0  0  0  0  0
   37.4800   28.6010   35.0270 H   0  0  0  0  0  0  0  0  0  0  0  0
   38.5600   26.9020   36.4910 H   0  0  0  0  0  0  0  0  0  0  0  0
   36.9690   21.3990   33.0940 C   0  0  0  0  0  0  0  0  0  0  0  0
   38.0950   20.9520   32.4100 C   0  0  0  0  0  0  0  0  0  0  0  0
   39.1330   21.8620   32.2020 C   0  0  0  0  0  0  0  0  0  0  0  0
   38.9680   23.1170   32.6820 N   0  0  0  0  0  0  0  0  0  0  0  0
   37.8740   23.5210   33.3370 C   0  0  0  0  0  0  0  0  0  0  0  0
   36.8800   22.6530   33.5370 N   0  0  0  0  0  0  0  0  0  0  0  0
   38.1180   19.9120   32.0660 H   0  0  0  0  0  0  0  0  0  0  0  0
   40.0130   21.5300   31.6730 H   0  0  0  0  0  0  0  0  0  0  0  0
   35.8540   20.4060   33.3140 C   0  0  0  0  0  0  0  0  0  0  0  0
   34.7040   20.8470   32.6710 F   0  0  0  0  0  0  0  0  0  0  0  0
   36.2730   19.1970   32.8280 F   0  0  0  0  0  0  0  0  0  0  0  0
   35.5790   20.3650   34.6630 F   0  0  0  0  0  0  0  0  0  0  0  0
   38.8920   24.3720   35.9930 C   0  0  0  0  0  0  0  0  0  0  0  0
   38.2160   24.0980   37.1670 C   0  0  0  0  0  3  0  0  0  0  0  0
   38.8160   23.2310   38.0850 C   0  0  0  0  0  0  0  0  0  0  0  0
   38.3240   22.9890   39.0110 H   0  0  0  0  0  0  0  0  0  0  0  0
   40.0080   22.6610   37.8770 N   0  0  0  0  0  0  0  0  0  0  0  0
   40.6450   22.9500   36.7200 C   0  0  0  0  0  3  0  0  0  0  0  0
   40.1090   23.7900   35.7840 N   0  0  0  0  0  0  0  0  0  0  0  0
  1  6  1  0  0  0  0
  2  3  1  0  0  0  0
  2  1  2  0  0  0  0
  3  4  2  0  0  0  0
  4  9  1  0  0  0  0
  4  5  1  0  0  0  0
  5 10  1  0  0  0  0
  6  5  2  0  0  0  0
  6 23  1  0  0  0  0
  7  2  1  0  0  0  0
  8  3  1  0  0  0  0
 11 19  1  0  0  0  0
 11 16  1  0  0  0  0
 12 11  2  0  0  0  0
 13 12  1  0  0  0  0
 13 14  2  0  0  0  0
 14 15  1  0  0  0  0
 15 16  2  0  0  0  0
 15  1  1  0  0  0  0
 17 12  1  0  0  0  0
 18 13  1  0  0  0  0
 19 22  1  0  0  0  0
 20 19  1  0  0  0  0
 21 19  1  0  0  0  0
 23 24  1  0  0  0  0
 24 25  2  0  0  0  0
 25 26  1  0  0  0  0
 27 25  1  0  0  0  0
 28 27  2  0  0  0  0
 29 23  2  0  0  0  0
 29 28  1  0  0  0  0
M  END
>  <minimizedAffinity>
-5.46316242

$$$$

 OpenBabel03272505393D

 29 31  0  0  0  0  0  0  0  0999 V2000
   37.9500   25.4210   35.0150 C   0  0  0  0  0  0  0  0  0  0  0  0
   37.6080   26.7430   35.2400 C   0  0  0  0  0  0  0  0  0  0  0  0
   37.1680   27.5480   34.2050 C   0  0  0  0  0  0  0  0  0  0  0  0
   37.0460   27.0900   32.9170 C   0  0  0  0  0  0  0  0  0  0  0  0
   37.3840   25.7610   32.6680 C   0  0  0  0  0  0  0  0  0  0  0  0
   37.8200   24.9860   33.7230 C   0  0  0  0  0  0  0  0  0  0  0  0
   37.7080   27.1010   36.2600 H   0  0  0  0  0  0  0  0  0  0  0  0
   36.9140   28.5870   34.4420 H   0  0  0  0  0  0  0  0  0  0  0  0
   36.6880   27.8110   32.1770 H   0  0  0  0  0  0  0  0  0  0  0  0
   37.2720   25.4500   31.6480 H   0  0  0  0  0  0  0  0  0  0  0  0
   39.9690   23.1070   36.9880 C   0  0  0  0  0  0  0  0  0  0  0  0
   39.2300   22.9640   38.1570 C   0  0  0  0  0  0  0  0  0  0  0  0
   38.0320   23.6730   38.2590 C   0  0  0  0  0  0  0  0  0  0  0  0
   37.6750   24.4510   37.2100 N   0  0  0  0  0  0  0  0  0  0  0  0
   38.4060   24.5710   36.0970 C   0  0  0  0  0  0  0  0  0  0  0  0
   39.5520   23.8940   35.9970 N   0  0  0  0  0  0  0  0  0  0  0  0
   39.6170   22.3050   38.9430 H   0  0  0  0  0  0  0  0  0  0  0  0
   37.4470   23.5710   39.1610 H   0  0  0  0  0  0  0  0  0  0  0  0
   41.2630   22.3340   36.8890 C   0  0  0  0  0  0  0  0  0  0  0  0
   41.3450   21.4270   37.9380 F   0  0  0  0  0  0  0  0  0  0  0  0
   41.2780   21.7050   35.6740 F   0  0  0  0  0  0  0  0  0  0  0  0
   42.3030   23.2250   37.0340 F   0  0  0  0  0  0  0  0  0  0  0  0
   38.1480   23.6350   33.2900 C   0  0  0  0  0  0  0  0  0  0  0  0
   39.3310   23.4530   32.5990 C   0  0  0  0  0  3  0  0  0  0  0  0
   39.6560   22.1600   32.1790 C   0  0  0  0  0  0  0  0  0  0  0  0
   40.5680   21.9730   31.6390 H   0  0  0  0  0  0  0  0  0  0  0  0
   38.8740   21.1000   32.4130 N   0  0  0  0  0  0  0  0  0  0  0  0
   37.7220   21.3120   33.0900 C   0  0  0  0  0  3  0  0  0  0  0  0
   37.3520   22.5530   33.5280 N   0  0  0  0  0  0  0  0  0  0  0  0
  1  2  1  0  0  0  0
  1 15  1  0  0  0  0
  2  7  1  0  0  0  0
  3  8  1  0  0  0  0
  3  2  2  0  0  0  0
  4  3  1  0  0  0  0
  5  4  2  0  0  0  0
  5  6  1  0  0  0  0
  6  1  2  0  0  0  0
  9  4  1  0  0  0  0
 10  5  1  0  0  0  0
 11 12  1  0  0  0  0
 12 13  2  0  0  0  0
 12 17  1  0  0  0  0
 13 18  1  0  0  0  0
 14 13  1  0  0  0  0
 15 14  2  0  0  0  0
 16 15  1  0  0  0  0
 16 11  2  0  0  0  0
 19 11  1  0  0  0  0
 19 22  1  0  0  0  0
 19 20  1  0  0  0  0
 21 19  1  0  0  0  0
 23 29  1  0  0  0  0
 23  6  1  0  0  0  0
 24 23  2  0  0  0  0
 25 27  2  0  0  0  0
 25 24  1  0  0  0  0
 26 25  1  0  0  0  0
 27 28  1  0  0  0  0
 28 29  2  0  0  0  0
M  END
>  <minimizedAffinity>
-5.3993535

$$$$

 OpenBabel03272505393D

 29 31  0  0  0  0  0  0  0  0999 V2000
   37.2310   21.9100   34.6070 C   0  0  0  0  0  0  0  0  0  0  0  0
   36.3030   20.8880   34.7110 C   0  0  0  0  0  0  0  0  0  0  0  0
   35.5300   20.5180   33.6250 C   0  0  0  0  0  0  0  0  0  0  0  0
   35.6370   21.1310   32.4020 C   0  0  0  0  0  0  0  0  0  0  0  0
   36.5670   22.1620   32.2740 C   0  0  0  0  0  0  0  0  0  0  0  0
   37.3200   22.5070   33.3770 C   0  0  0  0  0  0  0  0  0  0  0  0
   36.2210   20.4080   35.6800 H   0  0  0  0  0  0  0  0  0  0  0  0
   34.8110   19.7050   33.7670 H   0  0  0  0  0  0  0  0  0  0  0  0
   34.9790   20.7580   31.6120 H   0  0  0  0  0  0  0  0  0  0  0  0
   36.6140   22.6100   31.3000 H   0  0  0  0  0  0  0  0  0  0  0  0
   40.0760   22.2730   36.8640 C   0  0  0  0  0  0  0  0  0  0  0  0
   39.5570   23.0420   37.9010 C   0  0  0  0  0  0  0  0  0  0  0  0
   38.2210   23.4350   37.8130 C   0  0  0  0  0  0  0  0  0  0  0  0
   37.5240   23.0380   36.7220 N   0  0  0  0  0  0  0  0  0  0  0  0
   38.0480   22.2980   35.7390 C   0  0  0  0  0  0  0  0  0  0  0  0
   39.3260   21.9220   35.8200 N   0  0  0  0  0  0  0  0  0  0  0  0
   40.2170   23.3060   38.7360 H   0  0  0  0  0  0  0  0  0  0  0  0
   37.8050   24.0320   38.6100 H   0  0  0  0  0  0  0  0  0  0  0  0
   41.5220   21.8540   36.9710 C   0  0  0  0  0  0  0  0  0  0  0  0
   42.3330   22.9820   37.0010 F   0  0  0  0  0  0  0  0  0  0  0  0
   41.6540   21.1060   38.1090 F   0  0  0  0  0  0  0  0  0  0  0  0
   41.8460   21.1460   35.8350 F   0  0  0  0  0  0  0  0  0  0  0  0
   38.2240   23.6090   33.0800 C   0  0  0  0  0  0  0  0  0  0  0  0
   37.7400   24.8940   33.2330 C   0  0  0  0  0  3  0  0  0  0  0  0
   38.5990   25.9600   32.9500 C   0  0  0  0  0  0  0  0  0  0  0  0
   38.2630   26.9770   33.0580 H   0  0  0  0  0  0  0  0  0  0  0  0
   39.8600   25.7890   32.5380 N   0  0  0  0  0  0  0  0  0  0  0  0
   40.3040   24.5190   32.3960 C   0  0  0  0  0  3  0  0  0  0  0  0
   39.5100   23.4370   32.6590 N   0  0  0  0  0  0  0  0  0  0  0  0
  1  2  1  0  0  0  0
  1 15  1  0  0  0  0
  2  7  1  0  0  0  0
  3  8  1  0  0  0  0
  3  2  2  0  0  0  0
  4  3  1  0  0  0  0
  5  4  2  0  0  0  0
  5  6  1  0  0  0  0
  6  1  2  0  0  0  0
  9  4  1  0  0  0  0
 10  5  1  0  0  0  0
 11 19  1  0  0  0  0
 11 12  1  0  0  0  0
 12 17  1  0  0  0  0
 13 12  2  0  0  0  0
 13 18  1  0  0  0  0
 14 13  1  0  0  0  0
 15 16  1  0  0  0  0
 15 14  2  0  0  0  0
 16 11  2  0  0  0  0
 19 20  1  0  0  0  0
 19 21  1  0  0  0  0
 22 19  1  0  0  0  0
 23 24  1  0  0  0  0
 23  6  1  0  0  0  0
 25 26  1  0  0  0  0
 25 24  2  0  0  0  0
 27 25  1  0  0  0  0
 28 27  2  0  0  0  0
 28 29  1  0  0  0  0
 29 23  2  0  0  0  0
M  END
>  <minimizedAffinity>
-5.36635828

$$$$

 OpenBabel03272505393D

 29 31  0  0  0  0  0  0  0  0999 V2000
   37.1940   24.7640   32.6900 C   0  0  0  0  0  0  0  0  0  0  0  0
   36.8400   26.0880   32.4940 C   0  0  0  0  0  0  0  0  0  0  0  0
   35.8660   26.4330   31.5750 C   0  0  0  0  0  0  0  0  0  0  0  0
   35.2030   25.4990   30.8190 C   0  0  0  0  0  0  0  0  0  0  0  0
   35.5420   24.1590   31.0010 C   0  0  0  0  0  0  0  0  0  0  0  0
   36.5190   23.8500   31.9240 C   0  0  0  0  0  0  0  0  0  0  0  0
   37.3680   26.8220   33.0930 H   0  0  0  0  0  0  0  0  0  0  0  0
   35.6290   27.4960   31.4610 H   0  0  0  0  0  0  0  0  0  0  0  0
   34.4500   25.8820   30.1240 H   0  0  0  0  0  0  0  0  0  0  0  0
   34.9980   23.4680   30.3880 H   0  0  0  0  0  0  0  0  0  0  0  0
   38.8290   23.8650   35.8270 C   0  0  0  0  0  0  0  0  0  0  0  0
   40.1600   23.7100   35.4530 C   0  0  0  0  0  0  0  0  0  0  0  0
   40.4870   23.9170   34.1120 C   0  0  0  0  0  0  0  0  0  0  0  0
   39.4820   24.2530   33.2700 N   0  0  0  0  0  0  0  0  0  0  0  0
   38.2100   24.3950   33.6550 C   0  0  0  0  0  0  0  0  0  0  0  0
   37.8940   24.1980   34.9370 N   0  0  0  0  0  0  0  0  0  0  0  0
   40.8900   23.4340   36.2230 H   0  0  0  0  0  0  0  0  0  0  0  0
   41.5160   23.8010   33.8070 H   0  0  0  0  0  0  0  0  0  0  0  0
   38.4880   23.6390   37.2800 C   0  0  0  0  0  0  0  0  0  0  0  0
   38.1790   24.8550   37.8800 F   0  0  0  0  0  0  0  0  0  0  0  0
   37.4340   22.7690   37.3290 F   0  0  0  0  0  0  0  0  0  0  0  0
   39.6090   23.1450   37.9090 F   0  0  0  0  0  0  0  0  0  0  0  0
   36.7650   22.4160   31.9770 C   0  0  0  0  0  0  0  0  0  0  0  0
   35.8750   21.6380   32.6930 C   0  0  0  0  0  3  0  0  0  0  0  0
   36.1020   20.2600   32.7500 C   0  0  0  0  0  0  0  0  0  0  0  0
   35.4330   19.6180   33.2960 H   0  0  0  0  0  0  0  0  0  0  0  0
   37.1390   19.6670   32.1480 N   0  0  0  0  0  0  0  0  0  0  0  0
   37.9940   20.4560   31.4570 C   0  0  0  0  0  3  0  0  0  0  0  0
   37.8230   21.8090   31.3640 N   0  0  0  0  0  0  0  0  0  0  0  0
  1 15  1  0  0  0  0
  2  1  1  0  0  0  0
  2  7  1  0  0  0  0
  3  2  2  0  0  0  0
  4  5  2  0  0  0  0
  4  3  1  0  0  0  0
  5  6  1  0  0  0  0
  6 23  1  0  0  0  0
  6  1  2  0  0  0  0
  8  3  1  0  0  0  0
  9  4  1  0  0  0  0
 10  5  1  0  0  0  0
 11 19  1  0  0  0  0
 12 11  1  0  0  0  0
 12 17  1  0  0  0  0
 13 12  2  0  0  0  0
 14 15  2  0  0  0  0
 14 13  1  0  0  0  0
 15 16  1  0  0  0  0
 16 11  2  0  0  0  0
 18 13  1  0  0  0  0
 19 21  1  0  0  0  0
 19 20  1  0  0  0  0
 19 22  1  0  0  0  0
 23 24  1  0  0  0  0
 24 25  2  0  0  0  0
 25 26  1  0  0  0  0
 27 25  1  0  0  0  0
 28 27  2  0  0  0  0
 29 28  1  0  0  0  0
 29 23  2  0  0  0  0
M  END
>  <minimizedAffinity>
-5.35194731

$$$$

 OpenBabel03272505393D

 29 31  0  0  0  0  0  0  0  0999 V2000
   39.5290   24.7730   33.2130 C   0  0  0  0  0  0  0  0  0  0  0  0
   39.9720   25.5990   32.1950 C   0  0  0  0  0  0  0  0  0  0  0  0
   40.5760   26.8100   32.4780 C   0  0  0  0  0  0  0  0  0  0  0  0
   40.7690   27.2560   33.7620 C   0  0  0  0  0  0  0  0  0  0  0  0
   40.3310   26.4380   34.8030 C   0  0  0  0  0  0  0  0  0  0  0  0
   39.7320   25.2370   34.4860 C   0  0  0  0  0  0  0  0  0  0  0  0
   39.8150   25.2440   31.1820 H   0  0  0  0  0  0  0  0  0  0  0  0
   40.9050   27.4240   31.6320 H   0  0  0  0  0  0  0  0  0  0  0  0
   41.2590   28.2270   33.8710 H   0  0  0  0  0  0  0  0  0  0  0  0
   40.5040   26.8290   35.7860 H   0  0  0  0  0  0  0  0  0  0  0  0
   37.0290   22.2650   32.3250 C   0  0  0  0  0  0  0  0  0  0  0  0
   37.7420   21.0730   32.3960 C   0  0  0  0  0  0  0  0  0  0  0  0
   39.0910   21.1420   32.7500 C   0  0  0  0  0  0  0  0  0  0  0  0
   39.6080   22.3680   32.9990 N   0  0  0  0  0  0  0  0  0  0  0  0
   38.9000   23.4990   32.9240 C   0  0  0  0  0  0  0  0  0  0  0  0
   37.6100   23.4360   32.5850 N   0  0  0  0  0  0  0  0  0  0  0  0
   37.2180   20.1370   32.1710 H   0  0  0  0  0  0  0  0  0  0  0  0
   39.6570   20.2250   32.8090 H   0  0  0  0  0  0  0  0  0  0  0  0
   35.5710   22.1770   31.9420 C   0  0  0  0  0  0  0  0  0  0  0  0
   35.4520   21.5580   30.7040 F   0  0  0  0  0  0  0  0  0  0  0  0
   34.9270   21.4750   32.9230 F   0  0  0  0  0  0  0  0  0  0  0  0
   35.0880   23.4600   31.8080 F   0  0  0  0  0  0  0  0  0  0  0  0
   39.3180   24.5180   35.6820 C   0  0  0  0  0  0  0  0  0  0  0  0
   38.1060   24.8620   36.2500 C   0  0  0  0  0  3  0  0  0  0  0  0
   37.6990   24.1780   37.3990 C   0  0  0  0  0  0  0  0  0  0  0  0
   36.7610   24.4130   37.8720 H   0  0  0  0  0  0  0  0  0  0  0  0
   38.4290   23.2130   37.9690 N   0  0  0  0  0  0  0  0  0  0  0  0
   39.6110   22.9010   37.3910 C   0  0  0  0  0  3  0  0  0  0  0  0
   40.0610   23.5340   36.2660 N   0  0  0  0  0  0  0  0  0  0  0  0
  1  6  1  0  0  0  0
  2  3  1  0  0  0  0
  2  1  2  0  0  0  0
  3  4  2  0  0  0  0
  4  9  1  0  0  0  0
  4  5  1  0  0  0  0
  5 10  1  0  0  0  0
  6  5  2  0  0  0  0
  6 23  1  0  0  0  0
  7  2  1  0  0  0  0
  8  3  1  0  0  0  0
 11 12  2  0  0  0  0
 11 16  1  0  0  0  0
 12 13  1  0  0  0  0
 13 18  1  0  0  0  0
 13 14  2  0  0  0  0
 15 14  1  0  0  0  0
 15  1  1  0  0  0  0
 16 15  2  0  0  0  0
 17 12  1  0  0  0  0
 19 11  1  0  0  0  0
 19 21  1  0  0  0  0
 20 19  1  0  0  0  0
 22 19  1  0  0  0  0
 23 24  2  0  0  0  0
 23 29  1  0  0  0  0
 24 25  1  0  0  0  0
 25 26  1  0  0  0  0
 25 27  2  0  0  0  0
 28 27  1  0  0  0  0
 29 28  2  0  0  0  0
M  END
>  <minimizedAffinity>
-5.31798363

$$$$

 OpenBabel03272505393D

 29 31  0  0  0  0  0  0  0  0999 V2000
   38.1880   25.5700   33.6620 C   0  0  0  0  0  0  0  0  0  0  0  0
   37.0290   26.2060   33.2500 C   0  0  0  0  0  0  0  0  0  0  0  0
   37.0820   27.2860   32.3880 C   0  0  0  0  0  0  0  0  0  0  0  0
   38.2640   27.7830   31.9000 C   0  0  0  0  0  0  0  0  0  0  0  0
   39.4440   27.1570   32.3020 C   0  0  0  0  0  0  0  0  0  0  0  0
   39.3560   26.0830   33.1630 C   0  0  0  0  0  0  0  0  0  0  0  0
   36.0970   25.8110   33.6390 H   0  0  0  0  0  0  0  0  0  0  0  0
   36.1330   27.7510   32.0970 H   0  0  0  0  0  0  0  0  0  0  0  0
   38.1900   28.6400   31.2250 H   0  0  0  0  0  0  0  0  0  0  0  0
   40.3410   27.5800   31.8950 H   0  0  0  0  0  0  0  0  0  0  0  0
   38.1770   23.5590   36.7080 C   0  0  0  0  0  0  0  0  0  0  0  0
   38.0560   22.2600   36.2260 C   0  0  0  0  0  0  0  0  0  0  0  0
   37.9770   22.0850   34.8430 C   0  0  0  0  0  0  0  0  0  0  0  0
   38.0230   23.1950   34.0700 N   0  0  0  0  0  0  0  0  0  0  0  0
   38.1390   24.4340   34.5600 C   0  0  0  0  0  0  0  0  0  0  0  0
   38.2150   24.6040   35.8820 N   0  0  0  0  0  0  0  0  0  0  0  0
   38.0280   21.4360   36.9470 H   0  0  0  0  0  0  0  0  0  0  0  0
   37.8830   21.0830   34.4540 H   0  0  0  0  0  0  0  0  0  0  0  0
   38.2630   23.7350   38.2050 C   0  0  0  0  0  0  0  0  0  0  0  0
   39.5130   23.3230   38.6510 F   0  0  0  0  0  0  0  0  0  0  0  0
   38.0380   25.0570   38.4810 F   0  0  0  0  0  0  0  0  0  0  0  0
   37.3270   22.9090   38.7860 F   0  0  0  0  0  0  0  0  0  0  0  0
   40.6730   25.5600   33.4970 C   0  0  0  0  0  0  0  0  0  0  0  0
   41.3430   26.1410   34.5570 C   0  0  0  0  0  3  0  0  0  0  0  0
   42.6090   25.6470   34.8860 C   0  0  0  0  0  0  0  0  0  0  0  0
   43.1650   26.0690   35.7050 H   0  0  0  0  0  0  0  0  0  0  0  0
   43.1950   24.6450   34.2210 N   0  0  0  0  0  0  0  0  0  0  0  0
   42.5140   24.0990   33.1880 C   0  0  0  0  0  3  0  0  0  0  0  0
   41.2730   24.5390   32.8200 N   0  0  0  0  0  0  0  0  0  0  0  0
  1 15  1  0  0  0  0
  2  7  1  0  0  0  0
  2  1  1  0  0  0  0
  3  2  2  0  0  0  0
  4  5  2  0  0  0  0
  4  3  1  0  0  0  0
  5  6  1  0  0  0  0
  6 23  1  0  0  0  0
  6  1  2  0  0  0  0
  8  3  1  0  0  0  0
  9  4  1  0  0  0  0
 10  5  1  0  0  0  0
 11 19  1  0  0  0  0
 12 11  1  0  0  0  0
 12 17  1  0  0  0  0
 13 12  2  0  0  0  0
 14 15  2  0  0  0  0
 14 13  1  0  0  0  0
 15 16  1  0  0  0  0
 16 11  2  0  0  0  0
 18 13  1  0  0  0  0
 19 21  1  0  0  0  0
 19 20  1  0  0  0  0
 19 22  1  0  0  0  0
 23 24  1  0  0  0  0
 24 25  2  0  0  0  0
 25 26  1  0  0  0  0
 27 25  1  0  0  0  0
 28 27  2  0  0  0  0
 29 28  1  0  0  0  0
 29 23  2  0  0  0  0
M  END
>  <minimizedAffinity>
-5.28905773

$$$$
