
 OpenBabel03272510273D

 43 47  0  0  1  0  0  0  0  0999 V2000
   36.0020   30.0390   46.3780 C   0  0  0  0  0  0  0  0  0  0  0  0
   37.0090   30.8380   46.9180 C   0  0  0  0  0  0  0  0  0  0  0  0
   37.6920   31.7630   46.1350 C   0  0  0  0  0  0  0  0  0  0  0  0
   37.3140   31.8410   44.7990 C   0  0  0  0  0  0  0  0  0  0  0  0
   37.8340   32.6600   43.8390 N   0  0  0  0  0  0  0  0  0  0  0  0
   37.1700   32.3890   42.7070 C   0  0  0  0  0  0  0  0  0  0  0  0
   36.2750   31.4500   42.9230 N   0  0  0  0  0  0  0  0  0  0  0  0
   36.3280   31.0750   44.2250 C   0  0  0  0  0  0  0  0  0  0  0  0
   35.6560   30.1510   45.0350 C   0  0  0  0  0  0  0  0  0  0  0  0
   35.4570   29.3160   46.9590 H   0  0  0  0  0  0  0  0  0  0  0  0
   38.4680   32.3750   46.5670 H   0  0  0  0  0  0  0  0  0  0  0  0
   38.6100   33.3630   43.9880 H   0  0  0  0  0  0  0  0  0  0  0  0
   34.8840   29.5600   44.5600 H   0  0  0  0  0  0  0  0  0  0  0  0
   38.3900   31.1680   50.3920 C   0  0  0  0  0  0  0  0  0  0  0  0
   38.1710   31.4440   49.0550 C   0  0  0  0  0  0  0  0  0  0  0  0
   37.3040   30.6400   48.3230 C   0  0  0  0  0  0  0  0  0  0  0  0
   36.7000   29.5980   48.9700 N   0  0  0  0  0  0  0  0  0  0  0  0
   36.9260   29.3400   50.2830 C   0  0  0  0  0  0  0  0  0  0  0  0
   37.7490   30.1050   50.9690 N   0  0  0  0  0  0  0  0  0  0  0  0
   39.0510   31.7760   50.9620 H   0  0  0  0  0  0  0  0  0  0  0  0
   38.6500   32.2720   48.5460 H   0  0  0  0  0  0  0  0  0  0  0  0
   36.4040   28.4820   50.7330 H   0  0  0  0  0  0  0  0  0  0  0  0
   37.4530   33.0590   41.5050 O   0  0  0  0  0  0  0  0  0  0  0  0
   35.6760   34.4700   41.7580 N   0  0  0  0  0  0  0  0  0  0  0  0
   36.3260   33.5590   40.7970 C   0  0  1  0  0  0  0  0  0  0  0  0
   36.7070   34.3170   39.6130 C   0  0  0  0  0  0  0  0  0  0  0  0
   35.5390   34.7800   38.9800 O   0  0  0  0  0  0  0  0  0  0  0  0
   34.7020   35.5130   39.7730 C   0  0  0  0  0  0  0  0  0  0  0  0
   34.4500   34.8960   41.1130 C   0  0  1  0  0  0  0  0  0  0  0  0
   35.4250   33.8670   42.5750 H   0  0  0  0  0  0  0  0  0  0  0  0
   35.6530   32.7430   40.5100 H   0  0  0  0  0  0  0  0  0  0  0  0
   37.3460   35.1580   39.6020 H   0  0  0  0  0  0  0  0  0  0  0  0
   37.1280   33.5820   38.8610 H   0  0  0  0  0  0  0  0  0  0  0  0
   35.2050   36.4970   39.9510 H   0  0  0  0  0  0  0  0  0  0  0  0
   33.7490   35.6290   39.2350 H   0  0  0  0  0  0  0  0  0  0  0  0
   34.0730   35.7400   41.7640 H   0  0  0  0  0  0  0  0  0  0  0  0
   33.4030   33.8730   41.1510 C   0  0  0  0  0  0  0  0  0  0  0  0
   32.6070   33.3550   40.1720 C   0  0  0  0  0  3  0  0  0  0  0  0
   31.6690   32.3790   40.4410 C   0  0  0  0  0  0  0  0  0  0  0  0
   31.0970   32.0500   39.5750 H   0  0  0  0  0  0  0  0  0  0  0  0
   31.4980   31.8880   41.7000 N   0  0  0  0  0  0  0  0  0  0  0  0
   32.2970   32.4170   42.6460 C   0  0  0  0  0  3  0  0  0  0  0  0
   33.2350   33.3830   42.4160 N   0  0  0  0  0  0  0  0  0  0  0  0
  1  2  1  0  0  0  0
  1 10  1  0  0  0  0
  2 16  1  0  0  0  0
  3 11  1  0  0  0  0
  3  2  2  0  0  0  0
  4  3  1  0  0  0  0
  5 12  1  0  0  0  0
  5  4  1  0  0  0  0
  6  7  2  0  0  0  0
  6  5  1  0  0  0  0
  7  8  1  0  0  0  0
  8  4  2  0  0  0  0
  8  9  1  0  0  0  0
  9  1  2  0  0  0  0
 13  9  1  0  0  0  0
 14 20  1  0  0  0  0
 14 19  1  0  0  0  0
 15 14  2  0  0  0  0
 16 17  2  0  0  0  0
 16 15  1  0  0  0  0
 17 18  1  0  0  0  0
 18 22  1  0  0  0  0
 18 19  2  0  0  0  0
 21 15  1  0  0  0  0
 23  6  1  0  0  0  0
 24 30  1  0  0  0  0
 25 31  1  6  0  0  0
 25 23  1  0  0  0  0
 25 24  1  0  0  0  0
 26 25  1  0  0  0  0
 27 26  1  0  0  0  0
 27 28  1  0  0  0  0
 28 34  1  0  0  0  0
 28 29  1  0  0  0  0
 29 37  1  0  0  0  0
 29 24  1  0  0  0  0
 29 36  1  1  0  0  0
 32 26  1  0  0  0  0
 33 26  1  0  0  0  0
 35 28  1  0  0  0  0
 37 43  1  0  0  0  0
 38 39  1  0  0  0  0
 38 37  2  0  0  0  0
 39 41  2  0  0  0  0
 40 39  1  0  0  0  0
 41 42  1  0  0  0  0
 43 42  2  0  0  0  0
M  END
>  <minimizedAffinity>
-5.26234579

>  <minimizedRMSD>
5.09091663

$$$$
